data_PCOD8270261
_publ_section_title
;
Structure prediction by ZEFSAII (Michael W. Deem and Ramdas Pophale) SiO2 
 PCOD8270261
Probable space group: C M M M
;
_chemical_formula_sum "Si O2"
_cell_formula_units_Z 80
_cell_length_a 7.561009
_cell_length_b 18.134604
_cell_length_c 29.795580
_cell_angle_alpha 90.000000
_cell_angle_beta 90.000000
_cell_angle_gamma 90.000000
_cell_volume 4085.447889
_symmetry_space_group_name_H-M "C M M M"
_symmetry_group_IT_number 65
_symmetry_cell_setting 'orthorhombic'
loop_
_space_group_symop_operation_xyz
x,y,z
-x,-y,z
x,-y,-z
-x,y,-z
-x,-y,-z
x,y,-z
-x,y,z
x,-y,z
1/2+x,1/2+y,z
1/2-x,1/2-y,z
1/2+x,1/2-y,-z
1/2-x,1/2+y,-z
1/2-x,1/2-y,-z
1/2+x,1/2+y,-z
1/2-x,1/2+y,z
1/2+x,1/2-y,z
loop_
_atom_site_type_symbol
_atom_site_label
_atom_site_fract_x
_atom_site_fract_y
_atom_site_fract_z
Si Si1 0.794086 0.335240 0.500000
Si Si2 0.000000 0.087237 0.755909
Si Si3 0.293536 0.164638 0.087324
Si Si4 0.203088 0.413302 0.588709
Si Si5 0.711208 0.916298 0.000000
Si Si6 0.500000 0.587313 0.343729
Si Si7 0.203222 0.586620 0.823597
O O1 0.750000 0.250000 0.500000
O O2 0.717637 0.372915 0.455202
O O3 0.000000 0.350840 0.500000
O O4 0.822863 0.112772 0.781821
O O5 0.000000 0.122695 0.706106
O O6 0.000000 0.000000 0.751888
O O7 0.500000 0.150278 0.086724
O O8 0.250000 0.250000 0.085785
O O9 0.210151 0.124813 0.043809
O O10 0.219580 0.128438 0.132828
O O11 0.220638 0.500000 0.580102
O O12 0.322844 0.386903 0.630427
O O13 0.000000 0.391043 0.599050
O O14 0.500000 0.913211 0.000000
O O15 0.779733 0.000000 0.000000
O O16 0.500000 0.500000 0.339966
O O17 0.222521 0.500000 0.832905
O O18 0.000000 0.607808 0.812854
#
# Coordination Sequence:
#
# PCOD8270261 Si02
#       7
#     8   8  16  16   8   8  16
#     4  10  21  33  50  78 104 142 177 213 256 308
#     4   9  18  32  53  81 107 131 168 221 270 310
#     4  10  20  32  51  77 102 138 172 211 258 311
#     4   9  18  33  52  76 107 139 175 217 257 306
#     4   9  17  32  53  75 104 137 172 210 253 313
#     4   9  18  31  52  81 105 134 171 213 272 316
#     4   9  18  33  53  77 103 135 175 215 260 310
#
# _framework density 19.581696000000001
#
# number of rings (size 3 to 8) (size 9 to 14) (size 15 to 20)
#    0.000    2.700    0.000    1.200    2.800    4.400 
#    0.000    5.500    0.000    1.800    0.000    0.000 
#    0.000    0.000    0.000    0.000    0.000    0.000 
#
# Total GULP energy -495917.640590 kJ/mol
# GULP energy per Si atom -12397.941015 kJ/mol
# Density = 1.953713 g / cm^3
# Si number density = 19.581696 Si / 1000 Ang^3
#
#
#
# Elastic Constant Matrix: (Units=GPa)
#
#
# Indices 1 2 3 4 5 6 
#
# 1 84.2887 21.7834 71.6123 0.0000 0.0000 0.0000
# 2 21.7834 79.6538 62.3174 0.0000 0.0000 0.0000
# 3 71.6123 62.3174 217.2189 0.0000 0.0000 0.0000
# 4 0.0000 0.0000 0.0000 10.1186 0.0000 0.0000
# 5 0.0000 0.0000 0.0000 0.0000 6.7346 0.0000
# 6 0.0000 0.0000 0.0000 0.0000 0.0000 20.3848
#
#
#
# Elastic Compliance Matrix: (Units=1/GPa)
#
#
# Indices 1 2 3 4 5 6 
#
# 1 0.016487 -0.000331 -0.005340 0.000000 0.000000 0.000000
# 2 -0.000331 0.016194 -0.004537 0.000000 0.000000 0.000000
# 3 -0.005340 -0.004537 0.007666 0.000000 0.000000 0.000000
# 4 0.000000 0.000000 0.000000 0.098828 0.000000 0.000000
# 5 0.000000 0.000000 0.000000 0.000000 0.148486 0.000000
# 6 0.000000 0.000000 0.000000 0.000000 0.000000 0.049056
#
#
# Mechanical properties :
#
#
# Convention : Reuss Voigt Hill
#
# Bulk Modulus (GPa) = 50.17350 76.95419 63.56384
# Shear Modulus (GPa) = 13.74471 22.47750 18.11110
#
# Velocity S-wave (km/s) = 2.65224 3.39172 3.04452
# Velocity P-wave (km/s) = 5.92094 7.39748 6.70001
#
# Compressibility (1/GPa) = 0.01993084
#
# Stress axis : x y z
#
# Youngs Moduli (GPa) = 60.65484 61.75037 130.44826
#
# Poissons Ratio (x) = 0.02041 0.69665
# Poissons Ratio (y) = 0.02005 0.59184
# Poissons Ratio (z) = 0.32393 0.28016
#
# Static dielectric constant tensor:
#      x y z
#    x 3.607850 0.000000 0.000000 
#    y 0.000000 3.220210 0.000000 
#    z 0.000000 0.000000 3.963310 
# 
# 
# High freq. dielectric constant tensor:
#      x y z
#    x 1.760610 0.000000 0.000000 
#    y 0.000000 1.733580 0.000000 
#    z 0.000000 0.000000 1.766920 
# 
# From -- ./inp_files/72977.got.cif
#   From: 2010.03.12/outbox.cif.g09.slc.cpg/sg65_37_cif.got.tgz:72977.got - 2010.04.10 20:52:16.
