data_PCOD8270087
_publ_section_title
;
Structure prediction by ZEFSAII (Michael W. Deem and Ramdas Pophale) SiO2 
 PCOD8270087
Probable space group: C M M M
;
_chemical_formula_sum "Si O2"
_cell_formula_units_Z 104
_cell_length_a 32.324103
_cell_length_b 20.062100
_cell_length_c 9.302659
_cell_angle_alpha 90.000000
_cell_angle_beta 90.000000
_cell_angle_gamma 90.000000
_cell_volume 6032.675630
_symmetry_space_group_name_H-M "C M M M"
_symmetry_group_IT_number 65
_symmetry_cell_setting 'orthorhombic'
loop_
_space_group_symop_operation_xyz
x,y,z
-x,-y,z
x,-y,-z
-x,y,-z
-x,-y,-z
x,y,-z
-x,y,z
x,-y,z
1/2+x,1/2+y,z
1/2-x,1/2-y,z
1/2+x,1/2-y,-z
1/2-x,1/2+y,-z
1/2-x,1/2-y,-z
1/2+x,1/2+y,-z
1/2-x,1/2+y,z
1/2+x,1/2-y,z
loop_
_atom_site_type_symbol
_atom_site_label
_atom_site_fract_x
_atom_site_fract_y
_atom_site_fract_z
Si Si1 0.571341 0.128314 0.162897
Si Si2 0.186566 0.075149 0.333029
Si Si3 0.048806 0.500000 0.662463
Si Si4 0.632546 0.302898 0.667156
Si Si5 0.045310 0.752053 0.334551
Si Si6 0.230536 0.575697 0.169730
Si Si7 0.337311 0.180243 0.838027
O O1 0.565415 0.063104 0.254553
O O2 0.545471 0.187311 0.235137
O O3 0.619596 0.142584 0.165264
O O4 0.555310 0.118455 0.000000
O O5 0.197963 0.082074 0.500000
O O6 0.148950 0.124050 0.289843
O O7 0.226630 0.095918 0.243444
O O8 0.172264 0.000000 0.295603
O O9 0.066161 0.500000 0.500000
O O10 0.000000 0.500000 0.661986
O O11 0.638374 0.288906 0.500000
O O12 0.583644 0.300053 0.709787
O O13 0.660320 0.247363 0.745345
O O14 0.050666 0.729494 0.500000
O O15 0.000000 0.787032 0.313286
O O16 0.217640 0.500000 0.213329
O O17 0.196355 0.628363 0.224705
O O18 0.236380 0.580777 0.000000
O O19 0.325532 0.201216 0.000000
#
# Coordination Sequence:
#
# PCOD8270087 Si02
#       7
#    16  16   8  16  16  16  16
#     4  10  20  32  48  68  91 121 158 200 243 283
#     4   9  18  33  51  71  96 125 157 193 235 282
#     4  11  23  35  45  61  89 125 163 201 243 287
#     4   9  18  32  50  71  96 125 157 194 236 284
#     4   9  17  31  50  69  92 122 155 191 234 286
#     4   9  18  32  50  69  93 127 163 196 233 279
#     4   9  19  33  49  70  96 125 157 198 241 280
#
# _framework density 17.239447999999999
#
# number of rings (size 3 to 8) (size 9 to 14) (size 15 to 20)
#    0.000    2.692    0.000    1.154    1.077    5.231 
#    0.000    3.077    0.000    0.462    0.000    3.231 
#    0.000    0.000    0.000   11.538    0.000   12.000 
#
# Total GULP energy -644627.963638 kJ/mol
# GULP energy per Si atom -12396.691608 kJ/mol
# Density = 1.720021 g / cm^3
# Si number density = 17.239448 Si / 1000 Ang^3
#
#
#
# Elastic Constant Matrix: (Units=GPa)
#
#
# Indices 1 2 3 4 5 6 
#
# 1 104.6486 69.6220 30.2312 0.0000 0.0000 0.0000
# 2 69.6220 106.0078 39.2623 0.0000 0.0000 0.0000
# 3 30.2312 39.2623 59.8477 0.0000 0.0000 0.0000
# 4 0.0000 0.0000 0.0000 22.8280 0.0000 0.0000
# 5 0.0000 0.0000 0.0000 0.0000 23.5167 0.0000
# 6 0.0000 0.0000 0.0000 0.0000 0.0000 10.3024
#
#
#
# Elastic Compliance Matrix: (Units=1/GPa)
#
#
# Indices 1 2 3 4 5 6 
#
# 1 0.017098 -0.010608 -0.001678 0.000000 0.000000 0.000000
# 2 -0.010608 0.019042 -0.007134 0.000000 0.000000 0.000000
# 3 -0.001678 -0.007134 0.022237 0.000000 0.000000 0.000000
# 4 0.000000 0.000000 0.000000 0.043806 0.000000 0.000000
# 5 0.000000 0.000000 0.000000 0.000000 0.042523 0.000000
# 6 0.000000 0.000000 0.000000 0.000000 0.000000 0.097065
#
#
# Mechanical properties :
#
#
# Convention : Reuss Voigt Hill
#
# Bulk Modulus (GPa) = 51.18272 60.97057 56.07664
# Shear Modulus (GPa) = 17.41421 20.08867 18.75144
#
# Velocity S-wave (km/s) = 3.18171 3.41731 3.30162
# Velocity P-wave (km/s) = 6.57659 7.14243 6.86534
#
# Compressibility (1/GPa) = 0.01953784
#
# Stress axis : x y z
#
# Youngs Moduli (GPa) = 58.48732 52.51439 44.97070
#
# Poissons Ratio (x) = 0.55706 0.07544
# Poissons Ratio (y) = 0.62042 0.32083
# Poissons Ratio (z) = 0.09811 0.37464
#
# Static dielectric constant tensor:
#      x y z
#    x 3.328800 0.000000 0.000000 
#    y 0.000000 3.288620 0.000000 
#    z 0.000000 0.000000 3.360890 
# 
# 
# High freq. dielectric constant tensor:
#      x y z
#    x 1.665860 0.000000 0.000000 
#    y 0.000000 1.649450 0.000000 
#    z 0.000000 0.000000 1.667930 
# 
# From -- ./inp_files/18670.got.cif
#   From: 2010.03.12/outbox.cif.g09.slc.cpg/sg65_10_cif.got.tgz:18670.got - 2010.04.10 20:52:16.
