data_PCOD8270404
_publ_section_title
;
Structure prediction by ZEFSAII (Michael W. Deem and Ramdas Pophale) SiO2 
 PCOD8270404
Probable space group: C M M M
;
_chemical_formula_sum "Si O2"
_cell_formula_units_Z 96
_cell_length_a 31.365769
_cell_length_b 18.224690
_cell_length_c 9.194566
_cell_angle_alpha 90.000000
_cell_angle_beta 90.000000
_cell_angle_gamma 90.000000
_cell_volume 5255.902788
_symmetry_space_group_name_H-M "C M M M"
_symmetry_group_IT_number 65
_symmetry_cell_setting 'orthorhombic'
loop_
_space_group_symop_operation_xyz
x,y,z
-x,-y,z
x,-y,-z
-x,y,-z
-x,-y,-z
x,y,-z
-x,y,z
x,-y,z
1/2+x,1/2+y,z
1/2-x,1/2-y,z
1/2+x,1/2-y,-z
1/2-x,1/2+y,-z
1/2-x,1/2-y,-z
1/2+x,1/2+y,-z
1/2-x,1/2+y,z
1/2+x,1/2-y,z
loop_
_atom_site_type_symbol
_atom_site_label
_atom_site_fract_x
_atom_site_fract_y
_atom_site_fract_z
Si Si1 0.416242 0.085674 0.168406
Si Si2 0.500000 0.832834 0.827067
Si Si3 0.250000 0.663425 0.658168
Si Si4 0.000000 0.167166 0.827067
Si Si5 0.657937 0.166443 0.673663
Si Si6 0.342063 0.333557 0.326337
Si Si7 0.416242 0.585674 0.831594
O O1 0.457919 0.126458 0.231377
O O2 0.375486 0.111200 0.257767
O O3 0.423382 0.000000 0.191982
O O4 0.408877 0.105221 0.000000
O O5 0.500000 0.750000 0.767225
O O6 0.500000 0.835251 0.000000
O O7 0.250000 0.625192 0.500000
O O8 0.250000 0.750000 0.635365
O O9 0.205096 0.642753 0.736117
O O10 0.294904 0.642753 0.736118
O O11 0.957919 0.126458 0.768623
O O12 0.000000 0.164749 0.000000
O O13 0.657479 0.159451 0.500000
O O14 0.647055 0.250000 0.720167
O O15 0.342521 0.340549 0.500000
O O16 0.375486 0.388799 0.257767
O O17 0.423382 0.500000 0.808018
O O18 0.408877 0.605222 0.000000
#
# Coordination Sequence:
#
# PCOD8270404 Si02
#       7
#    16   8  16   8  16  16  16
#     4  10  20  33  49  71 100 131 160 193 237 288
#     4   9  17  31  52  73  92 121 162 202 238 281
#     4   7  12  26  48  71  94 122 158 199 240 281
#     4   9  17  31  52  73  92 121 162 202 238 281
#     4   9  17  31  52  75  97 124 161 203 243 283
#     4   9  17  31  52  75  97 124 161 203 243 283
#     4  10  20  33  49  71 100 131 160 193 237 288
#
# _framework density 18.265177999999999
#
# number of rings (size 3 to 8) (size 9 to 14) (size 15 to 20)
#    0.000    3.000    0.000    3.500    0.000    4.667 
#    0.000    2.500    0.000   13.000    0.000    0.000 
#    0.000    0.000    0.000    0.000    0.000    0.000 
#
# Total GULP energy -594788.434823 kJ/mol
# GULP energy per Si atom -12391.425725 kJ/mol
# Density = 1.822361 g / cm^3
# Si number density = 18.265178 Si / 1000 Ang^3
#
#
#
# Elastic Constant Matrix: (Units=GPa)
#
#
# Indices 1 2 3 4 5 6 
#
# 1 179.8535 62.9559 32.9333 0.0000 0.0000 0.0000
# 2 62.9559 84.8247 23.0043 0.0000 0.0000 0.0000
# 3 32.9333 23.0043 24.9505 0.0000 0.0000 0.0000
# 4 0.0000 0.0000 0.0000 23.3465 0.0000 0.0000
# 5 0.0000 0.0000 0.0000 0.0000 22.0122 0.0000
# 6 0.0000 0.0000 0.0000 0.0000 0.0000 14.4363
#
#
#
# Elastic Compliance Matrix: (Units=1/GPa)
#
#
# Indices 1 2 3 4 5 6 
#
# 1 0.008355 -0.004281 -0.007082 0.000000 0.000000 0.000000
# 2 -0.004281 0.017913 -0.010865 0.000000 0.000000 0.000000
# 3 -0.007082 -0.010865 0.059445 0.000000 0.000000 0.000000
# 4 0.000000 0.000000 0.000000 0.042833 0.000000 0.000000
# 5 0.000000 0.000000 0.000000 0.000000 0.045429 0.000000
# 6 0.000000 0.000000 0.000000 0.000000 0.000000 0.069270
#
#
# Mechanical properties :
#
#
# Convention : Reuss Voigt Hill
#
# Bulk Modulus (GPa) = 24.23816 58.60176 41.41996
# Shear Modulus (GPa) = 16.58638 23.34135 19.96386
#
# Velocity S-wave (km/s) = 3.01672 3.57867 3.30964
# Velocity P-wave (km/s) = 5.04312 7.01636 6.10993
#
# Compressibility (1/GPa) = 0.04125726
#
# Stress axis : x y z
#
# Youngs Moduli (GPa) = 119.68589 55.82649 16.82239
#
# Poissons Ratio (x) = 0.23897 0.11913
# Poissons Ratio (y) = 0.51232 0.18278
# Poissons Ratio (z) = 0.84758 0.60657
#
# Static dielectric constant tensor:
#      x y z
#    x 3.814480 0.000000 0.000000 
#    y 0.000000 3.210430 0.000000 
#    z 0.000000 0.000000 2.901000 
# 
# 
# High freq. dielectric constant tensor:
#      x y z
#    x 1.733760 0.000000 0.000000 
#    y 0.000000 1.693820 0.000000 
#    z 0.000000 0.000000 1.657570 
# 
# From -- ./inp_files/32483.got.cif
#   From: 2010.03.12/outbox.cif.g09.slc.cpg/sg65_17_cif.got.tgz:32483.got - 2010.04.10 20:52:16.
