data_PCOD8270031
_publ_section_title
;
Structure prediction by ZEFSAII (Michael W. Deem and Ramdas Pophale) SiO2 
 PCOD8270031
Probable space group: C M M M
;
_chemical_formula_sum "Si O2"
_cell_formula_units_Z 80
_cell_length_a 26.982832
_cell_length_b 9.223568
_cell_length_c 18.680808
_cell_angle_alpha 90.000000
_cell_angle_beta 90.000000
_cell_angle_gamma 90.000000
_cell_volume 4649.241868
_symmetry_space_group_name_H-M "C M M M"
_symmetry_group_IT_number 65
_symmetry_cell_setting 'orthorhombic'
loop_
_space_group_symop_operation_xyz
x,y,z
-x,-y,z
x,-y,-z
-x,y,-z
-x,-y,-z
x,y,-z
-x,y,z
x,-y,z
1/2+x,1/2+y,z
1/2-x,1/2-y,z
1/2+x,1/2-y,-z
1/2-x,1/2+y,-z
1/2-x,1/2-y,-z
1/2+x,1/2+y,-z
1/2-x,1/2+y,z
1/2+x,1/2-y,z
loop_
_atom_site_type_symbol
_atom_site_label
_atom_site_fract_x
_atom_site_fract_y
_atom_site_fract_z
Si Si1 0.942990 0.333023 0.161767
Si Si2 0.101509 0.169290 0.291587
Si Si3 0.862813 0.168451 0.081108
Si Si4 0.799038 0.166230 0.212664
Si Si5 0.057181 0.332981 0.582227
O O1 0.927201 0.500000 0.170971
O O2 0.934141 0.251464 0.236407
O O3 0.911675 0.261120 0.097880
O O4 0.000000 0.318753 0.139810
O O5 0.158739 0.197254 0.271474
O O6 0.092249 0.230887 0.370594
O O7 0.088567 0.000000 0.288843
O O8 0.818677 0.216219 0.134375
O O9 0.875940 0.000000 0.094541
O O10 0.845600 0.197750 0.000000
O O11 0.750000 0.250000 0.234993
O O12 0.783996 0.000000 0.210621
O O13 0.070941 0.303489 0.500000
O O14 0.066930 0.500000 0.602145
O O15 0.000000 0.293628 0.596592
#
# Coordination Sequence:
#
# PCOD8270031 Si02
#       5
#    16  16  16  16  16
#     4  10  20  32  47  69  97 129 165 202 238 281
#     4  10  20  33  50  73 100 128 162 203 241 283
#     4   9  19  35  51  69  96 126 157 197 245 295
#     4   9  19  34  51  72  95 121 157 201 247 292
#     4   9  18  32  50  75 107 138 165 194 231 277
#
# _framework density 17.207107000000001
#
# number of rings (size 3 to 8) (size 9 to 14) (size 15 to 20)
#    0.000    2.600    0.000    3.600    0.000   10.000 
#    0.000    3.000    0.000    0.600    0.000    0.000 
#    0.000    0.000    0.000    0.000    0.000    0.000 
#
# Total GULP energy -496050.171499 kJ/mol
# GULP energy per Si atom -12401.254287 kJ/mol
# Density = 1.716794 g / cm^3
# Si number density = 17.207107 Si / 1000 Ang^3
#
#
#
# Elastic Constant Matrix: (Units=GPa)
#
#
# Indices 1 2 3 4 5 6 
#
# 1 87.3152 50.9737 38.9161 0.0000 0.0000 0.0000
# 2 50.9737 89.5286 45.3383 0.0000 0.0000 0.0000
# 3 38.9161 45.3383 99.7382 0.0000 0.0000 0.0000
# 4 0.0000 0.0000 0.0000 30.5148 0.0000 0.0000
# 5 0.0000 0.0000 0.0000 0.0000 16.8832 0.0000
# 6 0.0000 0.0000 0.0000 0.0000 0.0000 32.1132
#
#
#
# Elastic Compliance Matrix: (Units=1/GPa)
#
#
# Indices 1 2 3 4 5 6 
#
# 1 0.017839 -0.008615 -0.003044 0.000000 0.000000 0.000000
# 2 -0.008615 0.018670 -0.005126 0.000000 0.000000 0.000000
# 3 -0.003044 -0.005126 0.013544 0.000000 0.000000 0.000000
# 4 0.000000 0.000000 0.000000 0.032771 0.000000 0.000000
# 5 0.000000 0.000000 0.000000 0.000000 0.059231 0.000000
# 6 0.000000 0.000000 0.000000 0.000000 0.000000 0.031140
#
#
# Mechanical properties :
#
#
# Convention : Reuss Voigt Hill
#
# Bulk Modulus (GPa) = 60.66687 60.78201 60.72444
# Shear Modulus (GPa) = 23.55613 25.32583 24.44098
#
# Velocity S-wave (km/s) = 3.70398 3.84060 3.77291
# Velocity P-wave (km/s) = 7.32298 7.42074 7.37202
#
# Compressibility (1/GPa) = 0.01648346
#
# Stress axis : x y z
#
# Youngs Moduli (GPa) = 56.05708 53.56104 73.83333
#
# Poissons Ratio (x) = 0.46143 0.22477
# Poissons Ratio (y) = 0.48294 0.37844
# Poissons Ratio (z) = 0.17065 0.27453
#
# Static dielectric constant tensor:
#      x y z
#    x 2.999720 0.000000 0.000000 
#    y 0.000000 3.265720 0.000000 
#    z 0.000000 0.000000 3.172800 
# 
# 
# High freq. dielectric constant tensor:
#      x y z
#    x 1.647770 0.000000 0.000000 
#    y 0.000000 1.671400 0.000000 
#    z 0.000000 0.000000 1.658500 
# 
# From -- ./inp_files/49840.got.cif
#   From: 2010.03.12/outbox.cif.g09.slc.cpg/sg65_25_cif.got.tgz:49840.got - 2010.04.10 20:52:16.
