data_PCOD8270433
_publ_section_title
;
Structure prediction by ZEFSAII (Michael W. Deem and Ramdas Pophale) SiO2 
 PCOD8270433
Probable space group: C M M M
;
_chemical_formula_sum "Si O2"
_cell_formula_units_Z 80
_cell_length_a 34.207371
_cell_length_b 14.089470
_cell_length_c 8.799034
_cell_angle_alpha 90.000000
_cell_angle_beta 90.000000
_cell_angle_gamma 90.000000
_cell_volume 4240.815225
_symmetry_space_group_name_H-M "C M M M"
_symmetry_group_IT_number 65
_symmetry_cell_setting 'orthorhombic'
loop_
_space_group_symop_operation_xyz
x,y,z
-x,-y,z
x,-y,-z
-x,y,-z
-x,-y,-z
x,y,-z
-x,y,z
x,-y,z
1/2+x,1/2+y,z
1/2-x,1/2-y,z
1/2+x,1/2-y,-z
1/2-x,1/2+y,-z
1/2-x,1/2-y,-z
1/2+x,1/2+y,-z
1/2-x,1/2+y,z
1/2+x,1/2-y,z
loop_
_atom_site_type_symbol
_atom_site_label
_atom_site_fract_x
_atom_site_fract_y
_atom_site_fract_z
Si Si1 0.812283 0.612893 0.325902
Si Si2 0.883204 0.721007 0.819777
Si Si3 0.153703 0.892408 0.320493
Si Si4 0.266421 0.387207 0.171785
Si Si5 0.043199 0.606184 0.819500
O O1 0.814711 0.646928 0.500000
O O2 0.813460 0.500000 0.313334
O O3 0.848399 0.653369 0.232897
O O4 0.772208 0.653667 0.253254
O O5 0.879922 0.826126 0.749176
O O6 0.923892 0.677611 0.757109
O O7 0.882657 0.728489 0.000000
O O8 0.153377 0.885882 0.500000
O O9 0.195242 0.852537 0.261578
O O10 0.146217 0.000000 0.264809
O O11 0.264881 0.500000 0.175019
O O12 0.268291 0.348453 0.000000
O O13 0.051457 0.500000 0.757089
O O14 0.000000 0.640119 0.765728
O O15 0.044960 0.603755 0.000000
#
# Coordination Sequence:
#
# PCOD8270433 Si02
#       5
#    16  16  16  16  16
#     4  10  20  33  49  72 106 143 174 207 252 307
#     4  11  21  32  52  80 105 131 169 215 258 302
#     4  10  21  37  54  71  97 135 176 216 260 308
#     4   9  17  31  51  73  98 130 172 220 263 301
#     4   8  15  30  53  81 111 138 162 194 243 302
#
# _framework density 18.864298000000002
#
# number of rings (size 3 to 8) (size 9 to 14) (size 15 to 20)
#    0.000    2.400    0.000    3.600    0.000    6.400 
#    0.000    4.000    0.000    3.000    0.000   11.200 
#    0.000    0.000    0.000    0.000    0.000    0.000 
#
# Total GULP energy -496004.897242 kJ/mol
# GULP energy per Si atom -12400.122431 kJ/mol
# Density = 1.882136 g / cm^3
# Si number density = 18.864298 Si / 1000 Ang^3
#
#
#
# Elastic Constant Matrix: (Units=GPa)
#
#
# Indices 1 2 3 4 5 6 
#
# 1 155.4622 75.3781 37.1331 0.0000 0.0000 0.0000
# 2 75.3781 78.1630 29.6480 0.0000 0.0000 0.0000
# 3 37.1331 29.6480 75.0352 0.0000 0.0000 0.0000
# 4 0.0000 0.0000 0.0000 25.7284 0.0000 0.0000
# 5 0.0000 0.0000 0.0000 0.0000 4.3137 0.0000
# 6 0.0000 0.0000 0.0000 0.0000 0.0000 33.3387
#
#
#
# Elastic Compliance Matrix: (Units=1/GPa)
#
#
# Indices 1 2 3 4 5 6 
#
# 1 0.012251 -0.011192 -0.001640 0.000000 0.000000 0.000000
# 2 -0.011192 0.025274 -0.004448 0.000000 0.000000 0.000000
# 3 -0.001640 -0.004448 0.015896 0.000000 0.000000 0.000000
# 4 0.000000 0.000000 0.000000 0.038868 0.000000 0.000000
# 5 0.000000 0.000000 0.000000 0.000000 0.231820 0.000000
# 6 0.000000 0.000000 0.000000 0.000000 0.000000 0.029995
#
#
# Mechanical properties :
#
#
# Convention : Reuss Voigt Hill
#
# Bulk Modulus (GPa) = 53.01974 65.88654 59.45314
# Shear Modulus (GPa) = 12.65976 23.77623 18.21800
#
# Velocity S-wave (km/s) = 2.59336 3.55404 3.11101
# Velocity P-wave (km/s) = 6.09379 7.20028 6.67002
#
# Compressibility (1/GPa) = 0.01886090
#
# Stress axis : x y z
#
# Youngs Moduli (GPa) = 81.62598 39.56582 62.90797
#
# Poissons Ratio (x) = 0.44283 0.10320
# Poissons Ratio (y) = 0.91358 0.27979
# Poissons Ratio (z) = 0.13390 0.17597
#
# Static dielectric constant tensor:
#      x y z
#    x 3.630800 0.000000 0.000000 
#    y 0.000000 3.538560 0.000000 
#    z 0.000000 0.000000 3.369100 
# 
# 
# High freq. dielectric constant tensor:
#      x y z
#    x 1.718080 0.000000 0.000000 
#    y 0.000000 1.733550 0.000000 
#    z 0.000000 0.000000 1.725500 
# 
# From -- ./inp_files/18182.got.cif
#   From: 2010.03.12/outbox.cif.g09.slc.cpg/sg65_10_cif.got.tgz:18182.got - 2010.04.10 20:52:16.
