data_PCOD8270470
_publ_section_title
;
Structure prediction by ZEFSAII (Michael W. Deem and Ramdas Pophale) SiO2 
 PCOD8270470
Probable space group: C M M M
;
_chemical_formula_sum "Si O2"
_cell_formula_units_Z 80
_cell_length_a 29.967798
_cell_length_b 15.830519
_cell_length_c 8.808917
_cell_angle_alpha 90.000000
_cell_angle_beta 90.000000
_cell_angle_gamma 90.000000
_cell_volume 4179.001278
_symmetry_space_group_name_H-M "C M M M"
_symmetry_group_IT_number 65
_symmetry_cell_setting 'orthorhombic'
loop_
_space_group_symop_operation_xyz
x,y,z
-x,-y,z
x,-y,-z
-x,y,-z
-x,-y,-z
x,y,-z
-x,y,z
x,-y,z
1/2+x,1/2+y,z
1/2-x,1/2-y,z
1/2+x,1/2-y,-z
1/2-x,1/2+y,-z
1/2-x,1/2-y,-z
1/2+x,1/2+y,-z
1/2-x,1/2+y,z
1/2+x,1/2-y,z
loop_
_atom_site_type_symbol
_atom_site_label
_atom_site_fract_x
_atom_site_fract_y
_atom_site_fract_z
Si Si1 0.275204 0.596115 0.166102
Si Si2 0.292335 0.189546 0.675942
Si Si3 0.634451 0.403747 0.679136
Si Si4 0.615439 0.760332 0.179714
Si Si5 0.949771 0.405943 0.180367
O O1 0.284144 0.500000 0.133926
O O2 0.227596 0.603622 0.252625
O O3 0.315925 0.626830 0.273319
O O4 0.275955 0.642254 0.000000
O O5 0.304664 0.180879 0.500000
O O6 0.250000 0.250000 0.708183
O O7 0.335220 0.215221 0.769654
O O8 0.630856 0.397293 0.500000
O O9 0.622784 0.500000 0.732587
O O10 0.602028 0.332822 0.753977
O O11 0.582150 0.832265 0.245471
O O12 0.612532 0.755028 0.000000
O O13 0.934372 0.500000 0.235539
O O14 0.000000 0.388282 0.238277
O O15 0.948500 0.403864 0.000000
#
# Coordination Sequence:
#
# PCOD8270470 Si02
#       5
#    16  16  16  16  16
#     4  10  20  33  50  71  96 131 179 231 273 313
#     4  11  22  34  48  69 104 148 184 218 266 324
#     4  10  20  34  51  72 103 144 184 219 263 322
#     4  11  21  32  55  85 109 138 181 232 278 323
#     4   8  16  34  59  86 115 143 173 217 278 342
#
# _framework density 19.143329999999999
#
# number of rings (size 3 to 8) (size 9 to 14) (size 15 to 20)
#    0.000    2.000    2.000    3.000    0.000    4.000 
#    0.000    2.000    0.000    4.800    0.000    9.800 
#    0.000    0.000    0.000    0.000    0.000    0.000 
#
# Total GULP energy -495560.125259 kJ/mol
# GULP energy per Si atom -12389.003131 kJ/mol
# Density = 1.909976 g / cm^3
# Si number density = 19.143330 Si / 1000 Ang^3
#
#
#
# Elastic Constant Matrix: (Units=GPa)
#
#
# Indices 1 2 3 4 5 6 
#
# 1 72.9515 75.1240 22.7911 0.0000 0.0000 0.0000
# 2 75.1240 145.6907 36.3211 0.0000 0.0000 0.0000
# 3 22.7911 36.3211 67.8401 0.0000 0.0000 0.0000
# 4 0.0000 0.0000 0.0000 27.3805 0.0000 0.0000
# 5 0.0000 0.0000 0.0000 0.0000 0.4265 0.0000
# 6 0.0000 0.0000 0.0000 0.0000 0.0000 27.8729
#
#
#
# Elastic Compliance Matrix: (Units=1/GPa)
#
#
# Indices 1 2 3 4 5 6 
#
# 1 0.029469 -0.014688 -0.002037 0.000000 0.000000 0.000000
# 2 -0.014688 0.015242 -0.003226 0.000000 0.000000 0.000000
# 3 -0.002037 -0.003226 0.017152 0.000000 0.000000 0.000000
# 4 0.000000 0.000000 0.000000 0.036522 0.000000 0.000000
# 5 0.000000 0.000000 0.000000 0.000000 2.344851 0.000000
# 6 0.000000 0.000000 0.000000 0.000000 0.000000 0.035877
#
#
# Mechanical properties :
#
#
# Convention : Reuss Voigt Hill
#
# Bulk Modulus (GPa) = 45.53255 61.66162 53.59708
# Shear Modulus (GPa) = 1.97915 21.28572 11.63244
#
# Velocity S-wave (km/s) = 1.01789 3.33815 2.46773
# Velocity P-wave (km/s) = 5.02177 6.86572 6.01483
#
# Compressibility (1/GPa) = 0.02196231
#
# Stress axis : x y z
#
# Youngs Moduli (GPa) = 33.93385 65.60963 58.30276
#
# Poissons Ratio (x) = 0.96366 0.11873
# Poissons Ratio (y) = 0.49841 0.18808
# Poissons Ratio (z) = 0.06911 0.21165
#
# Static dielectric constant tensor:
#      x y z
#    x 3.436370 0.000000 0.000000 
#    y 0.000000 4.057090 0.000000 
#    z 0.000000 0.000000 3.470880 
# 
# 
# High freq. dielectric constant tensor:
#      x y z
#    x 1.701080 0.000000 0.000000 
#    y 0.000000 1.761370 0.000000 
#    z 0.000000 0.000000 1.737320 
# 
# From -- ./inp_files/9594.got.cif
#   From: 2010.03.12/outbox.cif.g09.slc.cpg/sg65_5_cif.got.tgz:9594.got - 2010.04.10 20:52:16.
