data_PCOD8270642
_publ_section_title
;
Structure prediction by ZEFSAII (Michael W. Deem and Ramdas Pophale) SiO2 
 PCOD8270642
Probable space group: C M M M
;
_chemical_formula_sum "Si O2"
_cell_formula_units_Z 112
_cell_length_a 14.257294
_cell_length_b 26.277652
_cell_length_c 14.728670
_cell_angle_alpha 90.000000
_cell_angle_beta 90.000000
_cell_angle_gamma 90.000000
_cell_volume 5518.069854
_symmetry_space_group_name_H-M "C M M M"
_symmetry_group_IT_number 65
_symmetry_cell_setting 'orthorhombic'
loop_
_space_group_symop_operation_xyz
x,y,z
-x,-y,z
x,-y,-z
-x,y,-z
-x,-y,-z
x,y,-z
-x,y,z
x,-y,z
1/2+x,1/2+y,z
1/2-x,1/2-y,z
1/2+x,1/2-y,-z
1/2-x,1/2+y,-z
1/2-x,1/2-y,-z
1/2+x,1/2+y,-z
1/2-x,1/2+y,z
1/2+x,1/2-y,z
loop_
_atom_site_type_symbol
_atom_site_label
_atom_site_fract_x
_atom_site_fract_y
_atom_site_fract_z
Si Si1 0.101932 0.383809 0.396255
Si Si2 0.898432 0.942616 0.774101
Si Si3 0.266573 0.058229 0.895598
Si Si4 0.889318 0.653369 0.102312
Si Si5 0.394391 0.213017 0.270602
Si Si6 0.197272 0.910134 0.397465
Si Si7 0.389802 0.301381 0.397169
O O1 0.109732 0.365794 0.500000
O O2 0.108226 0.333887 0.337594
O O3 0.191850 0.419515 0.374990
O O4 0.000000 0.411179 0.379179
O O5 0.820809 0.917889 0.839556
O O6 0.864564 0.943459 0.669916
O O7 0.000000 0.914690 0.782725
O O8 0.911144 0.000000 0.806684
O O9 0.352428 0.096353 0.876781
O O10 0.292716 0.000000 0.865618
O O11 0.236676 0.058762 0.000000
O O12 0.848027 0.695122 0.174129
O O13 0.000000 0.648895 0.115391
O O14 0.862020 0.670517 0.000000
O O15 0.500000 0.229684 0.249176
O O16 0.348547 0.261202 0.322902
O O17 0.173469 0.927200 0.500000
O O18 0.171969 0.851280 0.381408
O O19 0.375137 0.280726 0.500000
O O20 0.500000 0.313243 0.381784
#
# Coordination Sequence:
#
# PCOD8270642 Si02
#       7
#    16  16  16  16  16  16  16
#     4   9  17  29  46  69  97 129 165 202 240 289
#     4  10  21  36  54  76 101 130 167 210 255 307
#     4   9  18  33  53  76 101 130 167 212 258 301
#     4   9  17  29  48  76 107 138 172 208 250 304
#     4   9  16  27  44  66  97 135 168 203 248 294
#     4  10  20  33  51  75 103 135 168 206 255 305
#     4   9  17  29  46  70  99 129 166 213 258 298
#
# _framework density 20.296952999999998
#
# number of rings (size 3 to 8) (size 9 to 14) (size 15 to 20)
#    0.000    2.714    0.000    1.714    0.000    4.000 
#    0.000    5.714    0.000    2.143    0.000    7.000 
#    0.000    0.000    0.000   16.714    0.000    0.429 
#
# Total GULP energy -693766.070615 kJ/mol
# GULP energy per Si atom -12388.679832 kJ/mol
# Density = 2.025076 g / cm^3
# Si number density = 20.296953 Si / 1000 Ang^3
#
#
#
# Elastic Constant Matrix: (Units=GPa)
#
#
# Indices 1 2 3 4 5 6 
#
# 1 77.2340 11.6888 29.7634 0.0000 0.0000 0.0000
# 2 11.6888 38.1865 31.6475 0.0000 0.0000 0.0000
# 3 29.7634 31.6475 89.4878 0.0000 0.0000 0.0000
# 4 0.0000 0.0000 0.0000 30.5970 0.0000 0.0000
# 5 0.0000 0.0000 0.0000 0.0000 26.1778 0.0000
# 6 0.0000 0.0000 0.0000 0.0000 0.0000 16.6658
#
#
#
# Elastic Compliance Matrix: (Units=1/GPa)
#
#
# Indices 1 2 3 4 5 6 
#
# 1 0.014862 -0.000640 -0.004717 0.000000 0.000000 0.000000
# 2 -0.000640 0.037072 -0.012898 0.000000 0.000000 0.000000
# 3 -0.004717 -0.012898 0.017305 0.000000 0.000000 0.000000
# 4 0.000000 0.000000 0.000000 0.032683 0.000000 0.000000
# 5 0.000000 0.000000 0.000000 0.000000 0.038200 0.000000
# 6 0.000000 0.000000 0.000000 0.000000 0.000000 0.060003
#
#
# Mechanical properties :
#
#
# Convention : Reuss Voigt Hill
#
# Bulk Modulus (GPa) = 30.55304 39.01197 34.78250
# Shear Modulus (GPa) = 20.19830 23.47535 21.83683
#
# Velocity S-wave (km/s) = 3.15801 3.40456 3.28360
# Velocity P-wave (km/s) = 5.32757 5.89212 5.61694
#
# Compressibility (1/GPa) = 0.03272997
#
# Stress axis : x y z
#
# Youngs Moduli (GPa) = 67.28464 26.97418 57.78738
#
# Poissons Ratio (x) = 0.01727 0.27257
# Poissons Ratio (y) = 0.04308 0.74533
# Poissons Ratio (z) = 0.31736 0.34791
#
# Static dielectric constant tensor:
#      x y z
#    x 4.027740 0.000000 0.000000 
#    y 0.000000 3.355050 0.000000 
#    z 0.000000 0.000000 3.951250 
# 
# 
# High freq. dielectric constant tensor:
#      x y z
#    x 1.793090 0.000000 0.000000 
#    y 0.000000 1.749310 0.000000 
#    z 0.000000 0.000000 1.798800 
# 
# From -- ./inp_files/40787.got.cif
#   From: 2010.03.12/outbox.cif.g09.slc.cpg/sg65_21_cif.got.tgz:40787.got - 2010.04.10 20:52:16.
