data_PCOD8270093
_publ_section_title
;
Structure prediction by ZEFSAII (Michael W. Deem and Ramdas Pophale) SiO2 
 PCOD8270093
Probable space group: C M M M
;
_chemical_formula_sum "Si O2"
_cell_formula_units_Z 104
_cell_length_a 20.403333
_cell_length_b 32.436352
_cell_length_c 8.914731
_cell_angle_alpha 90.000000
_cell_angle_beta 90.000000
_cell_angle_gamma 90.000000
_cell_volume 5899.855370
_symmetry_space_group_name_H-M "C M M M"
_symmetry_group_IT_number 65
_symmetry_cell_setting 'orthorhombic'
loop_
_space_group_symop_operation_xyz
x,y,z
-x,-y,z
x,-y,-z
-x,y,-z
-x,-y,-z
x,y,-z
-x,y,z
x,-y,z
1/2+x,1/2+y,z
1/2-x,1/2-y,z
1/2+x,1/2-y,-z
1/2-x,1/2+y,-z
1/2-x,1/2-y,-z
1/2+x,1/2+y,-z
1/2-x,1/2+y,z
1/2+x,1/2-y,z
loop_
_atom_site_type_symbol
_atom_site_label
_atom_site_fract_x
_atom_site_fract_y
_atom_site_fract_z
Si Si1 0.427450 0.819573 0.178103
Si Si2 0.308291 0.126223 0.179608
Si Si3 0.825537 0.838184 0.168667
Si Si4 0.739249 0.046476 0.675099
Si Si5 0.369730 0.570995 0.830133
Si Si6 0.926581 0.773068 0.178985
Si Si7 0.500000 0.452148 0.335380
O O1 0.500000 0.832426 0.235921
O O2 0.373946 0.851757 0.239982
O O3 0.410359 0.773379 0.232766
O O4 0.426313 0.820309 0.000000
O O5 0.246086 0.152939 0.241851
O O6 0.307297 0.079678 0.242650
O O7 0.304439 0.123135 0.000000
O O8 0.866440 0.879893 0.172866
O O9 0.870422 0.803122 0.249340
O O10 0.812568 0.823000 0.000000
O O11 0.739643 0.056573 0.500000
O O12 0.812901 0.049613 0.735091
O O13 0.712961 0.000000 0.705547
O O14 0.438026 0.560049 0.759980
O O15 0.364949 0.554413 0.000000
O O16 0.000000 0.785358 0.235067
O O17 0.925683 0.776245 0.000000
O O18 0.500000 0.500000 0.362067
O O19 0.500000 0.430499 0.500000
#
# Coordination Sequence:
#
# PCOD8270093 Si02
#       7
#    16  16  16  16  16  16   8
#     4   8  14  25  42  67  97 126 153 186 234 284
#     4   9  17  29  46  70  97 120 152 197 237 279
#     4   8  15  25  38  63  94 122 153 192 238 277
#     4  10  20  34  51  69  91 120 154 191 235 292
#     4  10  20  32  48  70  94 122 160 205 247 283
#     4   8  13  21  36  60  94 130 157 186 231 279
#     4  11  23  35  45  61  89 127 169 207 247 293
#
# _framework density 17.627549999999999
#
# number of rings (size 3 to 8) (size 9 to 14) (size 15 to 20)
#    0.000    3.000    0.000    3.462    1.077    4.308 
#    0.000    3.077    0.000    0.923    0.000   12.923 
#    0.000    0.000    0.000    0.000    0.000    0.000 
#
# Total GULP energy -644361.730053 kJ/mol
# GULP energy per Si atom -12391.571732 kJ/mol
# Density = 1.758743 g / cm^3
# Si number density = 17.627550 Si / 1000 Ang^3
#
#
#
# Elastic Constant Matrix: (Units=GPa)
#
#
# Indices 1 2 3 4 5 6 
#
# 1 122.0673 82.6955 24.6813 0.0000 0.0000 0.0000
# 2 82.6955 112.7535 31.1873 0.0000 0.0000 0.0000
# 3 24.6813 31.1873 38.1576 0.0000 0.0000 0.0000
# 4 0.0000 0.0000 0.0000 -1.2175 0.0000 0.0000
# 5 0.0000 0.0000 0.0000 0.0000 8.4505 0.0000
# 6 0.0000 0.0000 0.0000 0.0000 0.0000 23.0224
#
#
#
# Elastic Compliance Matrix: (Units=1/GPa)
#
#
# Indices 1 2 3 4 5 6 
#
# 1 0.016312 -0.011687 -0.000999 0.000000 0.000000 0.000000
# 2 -0.011687 0.019833 -0.008651 0.000000 0.000000 0.000000
# 3 -0.000999 -0.008651 0.033924 0.000000 0.000000 0.000000
# 4 0.000000 0.000000 0.000000 -0.821372 0.000000 0.000000
# 5 0.000000 0.000000 0.000000 0.000000 0.118336 0.000000
# 6 0.000000 0.000000 0.000000 0.000000 0.000000 0.043436
#
#
# Mechanical properties :
#
#
# Convention : Reuss Voigt Hill
#
# Bulk Modulus (GPa) = 36.50231 61.12295 48.81263
# Shear Modulus (GPa) = -9.29839 15.01203 2.85682
#
# Velocity S-wave (km/s) = -2.29921 2.92142 1.27443
# Velocity P-wave (km/s) = 3.70189 6.79188 5.46962
#
# Compressibility (1/GPa) = 0.02739552
#
# Stress axis : x y z
#
# Youngs Moduli (GPa) = 61.30614 50.42066 29.47807
#
# Poissons Ratio (x) = 0.58927 0.02944
# Poissons Ratio (y) = 0.71649 0.25501
# Poissons Ratio (z) = 0.06122 0.43618
#
# Static dielectric constant tensor:
#      x y z
#    x 3.412850 0.000000 0.000000 
#    y 0.000000 3.407590 0.000000 
#    z 0.000000 0.000000 2.932490 
# 
# 
# High freq. dielectric constant tensor:
#      x y z
#    x 1.674790 0.000000 0.000000 
#    y 0.000000 1.681750 0.000000 
#    z 0.000000 0.000000 1.637270 
# 
# From -- ./inp_files/12733.got.cif
#   From: 2010.03.12/outbox.cif.g09.slc.cpg/sg65_7_cif.got.tgz:12733.got - 2010.04.10 20:52:16.
