data_PCOD8270872
_publ_section_title
;
Structure prediction by ZEFSAII (Michael W. Deem and Ramdas Pophale) SiO2 
 PCOD8270872
Probable space group: C M M M
;
_chemical_formula_sum "Si O2"
_cell_formula_units_Z 104
_cell_length_a 9.407737
_cell_length_b 18.815005
_cell_length_c 30.100004
_cell_angle_alpha 90.000000
_cell_angle_beta 90.000000
_cell_angle_gamma 90.000000
_cell_volume 5327.899931
_symmetry_space_group_name_H-M "C M M M"
_symmetry_group_IT_number 65
_symmetry_cell_setting 'orthorhombic'
loop_
_space_group_symop_operation_xyz
x,y,z
-x,-y,z
x,-y,-z
-x,y,-z
-x,-y,-z
x,y,-z
-x,y,z
x,-y,z
1/2+x,1/2+y,z
1/2-x,1/2-y,z
1/2+x,1/2-y,-z
1/2-x,1/2+y,-z
1/2-x,1/2-y,-z
1/2+x,1/2+y,-z
1/2-x,1/2+y,z
1/2+x,1/2-y,z
loop_
_atom_site_type_symbol
_atom_site_label
_atom_site_fract_x
_atom_site_fract_y
_atom_site_fract_z
Si Si1 0.342197 0.084454 0.802457
Si Si2 0.665091 0.179777 0.052139
Si Si3 0.162591 0.583204 0.296680
Si Si4 0.662456 0.415589 0.884632
Si Si5 0.225891 0.832883 0.451339
Si Si6 0.500000 0.078684 0.551643
Si Si7 0.344999 0.680202 0.642398
O O1 0.500000 0.111554 0.816097
O O2 0.303987 0.112097 0.753073
O O3 0.226724 0.112534 0.837843
O O4 0.343139 0.000000 0.801513
O O5 0.500000 0.186231 0.066355
O O6 0.750000 0.250000 0.066813
O O7 0.740693 0.113586 0.075670
O O8 0.678909 0.166380 0.000000
O O9 0.190385 0.500000 0.299014
O O10 0.269658 0.618062 0.330932
O O11 0.000000 0.601136 0.309594
O O12 0.500000 0.388729 0.888667
O O13 0.669888 0.500000 0.887496
O O14 0.170041 0.861690 0.500000
O O15 0.250000 0.750000 0.458152
O O16 0.365712 0.874330 0.435129
O O17 0.124787 0.843651 0.408962
O O18 0.500000 0.065048 0.500000
O O19 0.500000 0.000000 0.575115
O O20 0.500000 0.694933 0.663492
O O21 0.250000 0.750000 0.644970
#
# Coordination Sequence:
#
# PCOD8270872 Si02
#       7
#    16  16  16  16  16   8  16
#     4   8  15  31  55  81 108 140 180 225 274 328
#     4  10  21  37  56  77 106 147 191 234 280 331
#     4   9  19  37  61  85 110 144 183 224 273 333
#     4  10  20  33  53  83 115 146 181 227 280 329
#     4   9  20  35  56  82 109 144 188 231 276 336
#     4   9  18  34  56  84 113 143 183 231 280 328
#     4  11  24  38  56  81 112 147 183 229 280 327
#
# _framework density 19.519886
#
# number of rings (size 3 to 8) (size 9 to 14) (size 15 to 20)
#    0.000    2.538    0.000    2.308    5.385    4.000 
#    0.000    3.846    0.000    3.692    0.000    3.231 
#    0.000    0.000    0.000    0.000    0.000    0.000 
#
# Total GULP energy -644325.907084 kJ/mol
# GULP energy per Si atom -12390.882829 kJ/mol
# Density = 1.947546 g / cm^3
# Si number density = 19.519886 Si / 1000 Ang^3
#
#
#
# Elastic Constant Matrix: (Units=GPa)
#
#
# Indices 1 2 3 4 5 6 
#
# 1 153.7244 49.9363 60.3767 0.0000 0.0000 0.0000
# 2 49.9363 62.2365 28.4091 0.0000 0.0000 0.0000
# 3 60.3767 28.4091 96.4371 0.0000 0.0000 0.0000
# 4 0.0000 0.0000 0.0000 20.0732 0.0000 0.0000
# 5 0.0000 0.0000 0.0000 0.0000 25.9282 0.0000
# 6 0.0000 0.0000 0.0000 0.0000 0.0000 30.8773
#
#
#
# Elastic Compliance Matrix: (Units=1/GPa)
#
#
# Indices 1 2 3 4 5 6 
#
# 1 0.010337 -0.006170 -0.004654 0.000000 0.000000 0.000000
# 2 -0.006170 0.022246 -0.002691 0.000000 0.000000 0.000000
# 3 -0.004654 -0.002691 0.014076 0.000000 0.000000 0.000000
# 4 0.000000 0.000000 0.000000 0.049818 0.000000 0.000000
# 5 0.000000 0.000000 0.000000 0.000000 0.038568 0.000000
# 6 0.000000 0.000000 0.000000 0.000000 0.000000 0.032386
#
#
# Mechanical properties :
#
#
# Convention : Reuss Voigt Hill
#
# Bulk Modulus (GPa) = 50.94245 65.53803 58.24024
# Shear Modulus (GPa) = 24.87497 26.95414 25.91456
#
# Velocity S-wave (km/s) = 3.57366 3.72002 3.64757
# Velocity P-wave (km/s) = 6.57134 7.21798 6.90224
#
# Compressibility (1/GPa) = 0.01962999
#
# Stress axis : x y z
#
# Youngs Moduli (GPa) = 96.73574 44.95115 71.04208
#
# Poissons Ratio (x) = 0.27734 0.33066
# Poissons Ratio (y) = 0.59684 0.19116
# Poissons Ratio (z) = 0.45025 0.12095
#
# Static dielectric constant tensor:
#      x y z
#    x 3.677150 0.000000 0.000000 
#    y 0.000000 3.325200 0.000000 
#    z 0.000000 0.000000 3.826740 
# 
# 
# High freq. dielectric constant tensor:
#      x y z
#    x 1.762220 0.000000 0.000000 
#    y 0.000000 1.732340 0.000000 
#    z 0.000000 0.000000 1.765850 
# 
# From -- ./inp_files/73345.got.cif
#   From: 2010.03.12/outbox.cif.g09.slc.cpg/sg65_37_cif.got.tgz:73345.got - 2010.04.10 20:52:16.
