data_PCOD8270263
_publ_section_title
;
Structure prediction by ZEFSAII (Michael W. Deem and Ramdas Pophale) SiO2 
 PCOD8270263
Probable space group: C M M M
;
_chemical_formula_sum "Si O2"
_cell_formula_units_Z 88
_cell_length_a 17.832507
_cell_length_b 30.764600
_cell_length_c 8.986420
_cell_angle_alpha 90.000000
_cell_angle_beta 90.000000
_cell_angle_gamma 90.000000
_cell_volume 4930.039381
_symmetry_space_group_name_H-M "C M M M"
_symmetry_group_IT_number 65
_symmetry_cell_setting 'orthorhombic'
loop_
_space_group_symop_operation_xyz
x,y,z
-x,-y,z
x,-y,-z
-x,y,-z
-x,-y,-z
x,y,-z
-x,y,z
x,-y,z
1/2+x,1/2+y,z
1/2-x,1/2-y,z
1/2+x,1/2-y,-z
1/2-x,1/2+y,-z
1/2-x,1/2-y,-z
1/2+x,1/2+y,-z
1/2-x,1/2+y,z
1/2+x,1/2-y,z
loop_
_atom_site_type_symbol
_atom_site_label
_atom_site_fract_x
_atom_site_fract_y
_atom_site_fract_z
Si Si1 0.081299 0.166959 0.674886
Si Si2 0.760872 0.200773 0.676409
Si Si3 0.193137 0.379644 0.174599
Si Si4 0.912279 0.549489 0.673705
Si Si5 0.582866 0.500000 0.176874
Si Si6 0.357094 0.411141 0.173075
O O1 0.087215 0.163346 0.500000
O O2 0.154121 0.192427 0.734774
O O3 0.084229 0.119094 0.742350
O O4 0.000000 0.188067 0.719474
O O5 0.752334 0.195220 0.500000
O O6 0.750000 0.250000 0.728347
O O7 0.698913 0.168603 0.751122
O O8 0.130191 0.411863 0.239783
O O9 0.271604 0.401763 0.211772
O O10 0.177723 0.373783 0.000000
O O11 0.894882 0.554954 0.500000
O O12 0.888979 0.500000 0.724098
O O13 0.000000 0.556001 0.706206
O O14 0.500000 0.500000 0.245841
O O15 0.628656 0.541039 0.234862
O O16 0.578418 0.500000 0.000000
O O17 0.374239 0.406012 0.000000
#
# Coordination Sequence:
#
# PCOD8270263 Si02
#       6
#    16  16  16  16   8  16
#     4   9  17  30  48  69  93 120 156 204 250 291
#     4   9  18  34  54  73  98 134 174 215 261 315
#     4  10  20  32  51  77 104 133 166 211 261 312
#     4   9  19  36  56  77 103 138 179 219 259 311
#     4   9  16  26  41  61  88 123 160 194 223 261
#     4   9  18  30  45  66  93 128 164 195 231 283
#
# _framework density 17.849757
#
# number of rings (size 3 to 8) (size 9 to 14) (size 15 to 20)
#    0.000    2.818    0.000    1.636    1.273    2.909 
#    0.000    2.273    0.000    4.909    0.000    0.000 
#    0.000    0.000    0.000    0.000    0.000    0.000 
#
# Total GULP energy -545154.668412 kJ/mol
# GULP energy per Si atom -12389.878828 kJ/mol
# Density = 1.780913 g / cm^3
# Si number density = 17.849757 Si / 1000 Ang^3
#
#
#
# Elastic Constant Matrix: (Units=GPa)
#
#
# Indices 1 2 3 4 5 6 
#
# 1 85.7753 59.4132 33.3695 0.0000 0.0000 0.0000
# 2 59.4132 152.5274 34.5994 0.0000 0.0000 0.0000
# 3 33.3695 34.5994 30.0351 0.0000 0.0000 0.0000
# 4 0.0000 0.0000 0.0000 25.9357 0.0000 0.0000
# 5 0.0000 0.0000 0.0000 0.0000 20.3629 0.0000
# 6 0.0000 0.0000 0.0000 0.0000 0.0000 21.2769
#
#
#
# Elastic Compliance Matrix: (Units=1/GPa)
#
#
# Indices 1 2 3 4 5 6 
#
# 1 0.022323 -0.004155 -0.020014 0.000000 0.000000 0.000000
# 2 -0.004155 0.009649 -0.006499 0.000000 0.000000 0.000000
# 3 -0.020014 -0.006499 0.063017 0.000000 0.000000 0.000000
# 4 0.000000 0.000000 0.000000 0.038557 0.000000 0.000000
# 5 0.000000 0.000000 0.000000 0.000000 0.049109 0.000000
# 6 0.000000 0.000000 0.000000 0.000000 0.000000 0.046999
#
#
# Mechanical properties :
#
#
# Convention : Reuss Voigt Hill
#
# Bulk Modulus (GPa) = 29.71582 58.12244 43.91913
# Shear Modulus (GPa) = 16.54491 22.91214 19.72853
#
# Velocity S-wave (km/s) = 3.04780 3.58664 3.32814
# Velocity P-wave (km/s) = 5.39160 7.05583 6.27909
#
# Compressibility (1/GPa) = 0.03365211
#
# Stress axis : x y z
#
# Youngs Moduli (GPa) = 44.79728 103.63849 15.86876
#
# Poissons Ratio (x) = 0.43064 0.31760
# Poissons Ratio (y) = 0.18614 0.10313
# Poissons Ratio (z) = 0.89659 0.67351
#
# Static dielectric constant tensor:
#      x y z
#    x 3.547410 0.000000 0.000000 
#    y 0.000000 4.054990 0.000000 
#    z 0.000000 0.000000 3.131970 
# 
# 
# High freq. dielectric constant tensor:
#      x y z
#    x 1.690830 0.000000 0.000000 
#    y 0.000000 1.687850 0.000000 
#    z 0.000000 0.000000 1.675490 
# 
# From -- ./inp_files/10146.got.cif
#   From: 2010.03.12/outbox.cif.g09.slc.cpg/sg65_6_cif.got.tgz:10146.got - 2010.04.10 20:52:16.
