data_PCOD8270122
_publ_section_title
;
Structure prediction by ZEFSAII (Michael W. Deem and Ramdas Pophale) SiO2 
 PCOD8270122
Probable space group: C M M M
;
_chemical_formula_sum "Si O2"
_cell_formula_units_Z 88
_cell_length_a 9.127306
_cell_length_b 19.789135
_cell_length_c 29.225371
_cell_angle_alpha 90.000000
_cell_angle_beta 90.000000
_cell_angle_gamma 90.000000
_cell_volume 5278.730074
_symmetry_space_group_name_H-M "C M M M"
_symmetry_group_IT_number 65
_symmetry_cell_setting 'orthorhombic'
loop_
_space_group_symop_operation_xyz
x,y,z
-x,-y,z
x,-y,-z
-x,y,-z
-x,-y,-z
x,y,-z
-x,y,z
x,-y,z
1/2+x,1/2+y,z
1/2-x,1/2-y,z
1/2+x,1/2-y,-z
1/2-x,1/2+y,-z
1/2-x,1/2-y,-z
1/2+x,1/2+y,-z
1/2-x,1/2+y,z
1/2+x,1/2-y,z
loop_
_atom_site_type_symbol
_atom_site_label
_atom_site_fract_x
_atom_site_fract_y
_atom_site_fract_z
Si Si1 0.335743 0.575190 0.865325
Si Si2 0.827559 0.681324 0.296516
Si Si3 0.664226 0.919833 0.550324
Si Si4 0.827645 0.000000 0.050012
Si Si5 0.330248 0.579693 0.638803
Si Si6 0.169940 0.683171 0.809162
O O1 0.500000 0.605866 0.860899
O O2 0.334102 0.500000 0.842991
O O3 0.289091 0.566754 0.919311
O O4 0.219314 0.620560 0.839565
O O5 0.750000 0.750000 0.313654
O O6 0.762329 0.617217 0.322607
O O7 0.791222 0.668580 0.243475
O O8 0.000000 0.687292 0.305874
O O9 0.713370 0.892925 0.500000
O O10 0.500000 0.893805 0.561593
O O11 0.775914 0.894116 0.589082
O O12 0.664435 0.000000 0.549436
O O13 0.000000 0.000000 0.042648
O O14 0.748722 0.000000 0.000000
O O15 0.500000 0.598247 0.643787
O O16 0.302467 0.500000 0.644761
O O17 0.250000 0.750000 0.826900
O O18 0.000000 0.694857 0.816389
#
# Coordination Sequence:
#
# PCOD8270122 Si02
#       6
#    16  16  16   8  16  16
#     4   8  16  29  48  74 100 128 160 197 240 283
#     4  10  21  36  52  69  92 127 165 200 242 292
#     4   8  14  26  45  68  94 124 157 194 237 284
#     4   7  12  26  49  75 101 131 165 197 236 287
#     4  10  20  32  48  73 101 128 159 198 240 282
#     4  10  20  33  50  70  95 127 163 203 244 289
#
# _framework density 16.670677000000001
#
# number of rings (size 3 to 8) (size 9 to 14) (size 15 to 20)
#    0.545    2.455    0.000    2.182    0.000    4.727 
#    0.000    5.455    0.000    2.182    0.000    0.000 
#    0.000    0.000    0.000    0.000    0.000    0.000 
#
# Total GULP energy -545213.152311 kJ/mol
# GULP energy per Si atom -12391.208007 kJ/mol
# Density = 1.663273 g / cm^3
# Si number density = 16.670677 Si / 1000 Ang^3
#
#
#
# Elastic Constant Matrix: (Units=GPa)
#
#
# Indices 1 2 3 4 5 6 
#
# 1 83.9002 39.3547 51.0594 0.0000 0.0000 0.0000
# 2 39.3547 61.7462 48.2955 0.0000 0.0000 0.0000
# 3 51.0594 48.2955 97.1214 0.0000 0.0000 0.0000
# 4 0.0000 0.0000 0.0000 0.4477 0.0000 0.0000
# 5 0.0000 0.0000 0.0000 0.0000 21.6223 0.0000
# 6 0.0000 0.0000 0.0000 0.0000 0.0000 29.9126
#
#
#
# Elastic Compliance Matrix: (Units=1/GPa)
#
#
# Indices 1 2 3 4 5 6 
#
# 1 0.019272 -0.007133 -0.006585 0.000000 0.000000 0.000000
# 2 -0.007133 0.029144 -0.010742 0.000000 0.000000 0.000000
# 3 -0.006585 -0.010742 0.019100 0.000000 0.000000 0.000000
# 4 0.000000 0.000000 0.000000 2.233847 0.000000 0.000000
# 5 0.000000 0.000000 0.000000 0.000000 0.046249 0.000000
# 6 0.000000 0.000000 0.000000 0.000000 0.000000 0.033431
#
#
# Mechanical properties :
#
#
# Convention : Reuss Voigt Hill
#
# Bulk Modulus (GPa) = 53.77581 57.79856 55.78718
# Shear Modulus (GPa) = 2.05241 17.33372 9.69307
#
# Velocity S-wave (km/s) = 1.11078 3.22805 2.41393
# Velocity P-wave (km/s) = 5.82862 6.97422 6.42700
#
# Compressibility (1/GPa) = 0.01859572
#
# Stress axis : x y z
#
# Youngs Moduli (GPa) = 51.88856 34.31265 52.35559
#
# Poissons Ratio (x) = 0.24474 0.34476
# Poissons Ratio (y) = 0.37011 0.56243
# Poissons Ratio (z) = 0.34168 0.36860
#
# Static dielectric constant tensor:
#      x y z
#    x 3.105810 0.000000 0.000000 
#    y 0.000000 2.852660 0.000000 
#    z 0.000000 0.000000 3.417150 
# 
# 
# High freq. dielectric constant tensor:
#      x y z
#    x 1.642650 0.000000 0.000000 
#    y 0.000000 1.611950 0.000000 
#    z 0.000000 0.000000 1.638840 
# 
# From -- ./inp_files/76798.got.cif
#   From: 2010.03.12/outbox.cif.g09.slc.cpg/sg65_39_cif.got.tgz:76798.got - 2010.04.10 20:52:16.
