data_PCOD8270644
_publ_section_title
;
Structure prediction by ZEFSAII (Michael W. Deem and Ramdas Pophale) SiO2 
 PCOD8270644
Probable space group: C M M M
;
_chemical_formula_sum "Si O2"
_cell_formula_units_Z 80
_cell_length_a 15.865525
_cell_length_b 29.032437
_cell_length_c 9.196984
_cell_angle_alpha 90.000000
_cell_angle_beta 90.000000
_cell_angle_gamma 90.000000
_cell_volume 4236.267452
_symmetry_space_group_name_H-M "C M M M"
_symmetry_group_IT_number 65
_symmetry_cell_setting 'orthorhombic'
loop_
_space_group_symop_operation_xyz
x,y,z
-x,-y,z
x,-y,-z
-x,y,-z
-x,-y,-z
x,y,-z
-x,y,z
x,-y,z
1/2+x,1/2+y,z
1/2-x,1/2-y,z
1/2+x,1/2-y,-z
1/2-x,1/2+y,-z
1/2-x,1/2-y,-z
1/2+x,1/2+y,-z
1/2-x,1/2+y,z
1/2+x,1/2-y,z
loop_
_atom_site_type_symbol
_atom_site_label
_atom_site_fract_x
_atom_site_fract_y
_atom_site_fract_z
Si Si1 0.826191 0.550990 0.165947
Si Si2 0.251561 0.301865 0.173426
Si Si3 0.908483 0.356714 0.829368
Si Si4 0.654694 0.551952 0.670130
Si Si5 0.093615 0.863195 0.832113
O O1 0.865388 0.500000 0.188427
O O2 0.896142 0.589028 0.203359
O O3 0.748522 0.559152 0.271765
O O4 0.794131 0.557413 0.000000
O O5 0.250000 0.250000 0.234647
O O6 0.168490 0.327247 0.237668
O O7 0.336090 0.327722 0.229172
O O8 0.250743 0.301833 0.000000
O O9 0.000000 0.342422 0.763163
O O10 0.910137 0.347393 0.000000
O O11 0.654539 0.561810 0.500000
O O12 0.622902 0.500000 0.704009
O O13 0.594152 0.588514 0.747061
O O14 0.000000 0.841471 0.812456
O O15 0.112555 0.873886 0.000000
#
# Coordination Sequence:
#
# PCOD8270644 Si02
#       5
#    16  16  16  16  16
#     4   9  16  28  48  72 100 132 166 204 246 296
#     4   9  17  30  48  72 104 134 162 204 254 298
#     4   9  16  26  44  72 101 127 159 200 247 295
#     4  10  20  33  51  75 103 136 173 210 251 299
#     4  10  20  34  53  77 104 135 171 208 250 301
#
# _framework density 18.884549
#
# number of rings (size 3 to 8) (size 9 to 14) (size 15 to 20)
#    0.000    2.600    2.000    0.600    0.000    3.200 
#    0.000    8.000    0.000    1.200    0.000    2.800 
#    0.000    0.000    0.000    0.000    0.000    0.000 
#
# Total GULP energy -495763.265127 kJ/mol
# GULP energy per Si atom -12394.081628 kJ/mol
# Density = 1.884157 g / cm^3
# Si number density = 18.884549 Si / 1000 Ang^3
#
#
#
# Elastic Constant Matrix: (Units=GPa)
#
#
# Indices 1 2 3 4 5 6 
#
# 1 153.8056 80.4884 20.3471 0.0000 0.0000 0.0000
# 2 80.4884 139.6646 25.4936 0.0000 0.0000 0.0000
# 3 20.3471 25.4936 35.5958 0.0000 0.0000 0.0000
# 4 0.0000 0.0000 0.0000 10.7352 0.0000 0.0000
# 5 0.0000 0.0000 0.0000 0.0000 4.9601 0.0000
# 6 0.0000 0.0000 0.0000 0.0000 0.0000 16.7697
#
#
#
# Elastic Compliance Matrix: (Units=1/GPa)
#
#
# Indices 1 2 3 4 5 6 
#
# 1 0.009400 -0.005103 -0.001718 0.000000 0.000000 0.000000
# 2 -0.005103 0.011008 -0.004966 0.000000 0.000000 0.000000
# 3 -0.001718 -0.004966 0.032632 0.000000 0.000000 0.000000
# 4 0.000000 0.000000 0.000000 0.093151 0.000000 0.000000
# 5 0.000000 0.000000 0.000000 0.000000 0.201607 0.000000
# 6 0.000000 0.000000 0.000000 0.000000 0.000000 0.059631
#
#
# Mechanical properties :
#
#
# Convention : Reuss Voigt Hill
#
# Bulk Modulus (GPa) = 33.93990 64.63602 49.28796
# Shear Modulus (GPa) = 11.34233 20.00881 15.67557
#
# Velocity S-wave (km/s) = 2.45340 3.25858 2.88423
# Velocity P-wave (km/s) = 5.10264 6.96125 6.10311
#
# Compressibility (1/GPa) = 0.02946385
#
# Stress axis : x y z
#
# Youngs Moduli (GPa) = 106.38677 90.84591 30.64461
#
# Poissons Ratio (x) = 0.46362 0.05265
# Poissons Ratio (y) = 0.54294 0.15220
# Poissons Ratio (z) = 0.18277 0.45118
#
# Static dielectric constant tensor:
#      x y z
#    x 3.564020 0.000000 0.000000 
#    y 0.000000 3.689630 0.000000 
#    z 0.000000 0.000000 3.006370 
# 
# 
# High freq. dielectric constant tensor:
#      x y z
#    x 1.733140 0.000000 0.000000 
#    y 0.000000 1.736470 0.000000 
#    z 0.000000 0.000000 1.675420 
# 
# From -- ./inp_files/9903.got.cif
#   From: 2010.03.12/outbox.cif.g09.slc.cpg/sg65_5_cif.got.tgz:9903.got - 2010.04.10 20:52:16.
