data_PCOD8270273
_publ_section_title
;
Structure prediction by ZEFSAII (Michael W. Deem and Ramdas Pophale) SiO2 
 PCOD8270273
Probable space group: C M M M
;
_chemical_formula_sum "Si O2"
_cell_formula_units_Z 72
_cell_length_a 15.166623
_cell_length_b 18.121810
_cell_length_c 14.138297
_cell_angle_alpha 90.000000
_cell_angle_beta 90.000000
_cell_angle_gamma 90.000000
_cell_volume 3885.863713
_symmetry_space_group_name_H-M "C M M M"
_symmetry_group_IT_number 65
_symmetry_cell_setting 'orthorhombic'
loop_
_space_group_symop_operation_xyz
x,y,z
-x,-y,z
x,-y,-z
-x,y,-z
-x,-y,-z
x,y,-z
-x,y,z
x,-y,z
1/2+x,1/2+y,z
1/2-x,1/2-y,z
1/2+x,1/2-y,-z
1/2-x,1/2+y,-z
1/2-x,1/2-y,-z
1/2+x,1/2+y,-z
1/2-x,1/2+y,z
1/2+x,1/2-y,z
loop_
_atom_site_type_symbol
_atom_site_label
_atom_site_fract_x
_atom_site_fract_y
_atom_site_fract_z
Si Si1 0.694023 0.919279 0.000000
Si Si2 0.598351 0.296264 0.796435
Si Si3 0.101924 0.643612 0.300454
Si Si4 0.353811 0.761956 0.000000
Si Si5 0.896493 0.417262 0.500000
Si Si6 0.236141 0.918785 0.199915
O O1 0.625681 0.850509 0.000000
O O2 0.760934 0.913183 0.087233
O O3 0.645301 0.000000 0.000000
O O4 0.500000 0.326912 0.780499
O O5 0.617192 0.228523 0.726358
O O6 0.605482 0.272846 0.905962
O O7 0.666644 0.358750 0.763460
O O8 0.132275 0.629537 0.408330
O O9 0.164302 0.594034 0.235367
O O10 0.000000 0.620198 0.283360
O O11 0.250000 0.750000 0.000000
O O12 0.853895 0.500000 0.500000
O O13 0.000000 0.427125 0.500000
O O14 0.204885 0.000000 0.232772
#
# Coordination Sequence:
#
# PCOD8270273 Si02
#       6
#     8  16  16   8   8  16
#     4  10  20  32  52  78 108 145 178 218 269 319
#     4  11  22  35  54  80 109 148 191 224 263 316
#     4  10  20  35  58  84 108 137 175 219 277 339
#     4  12  17  34  57  74 108 142 180 225 270 318
#     4   9  18  34  55  82 114 140 167 215 278 340
#     4  11  21  36  55  77 111 148 183 227 270 314
#
# _framework density 18.528699
#
# number of rings (size 3 to 8) (size 9 to 14) (size 15 to 20)
#    0.000    1.444    4.444    1.667    0.000    1.778 
#    0.000    2.778    0.000    6.667    0.000    0.000 
#    0.000    7.111    0.000    0.000    0.000    0.000 
#
# Total GULP energy -446278.954327 kJ/mol
# GULP energy per Si atom -12396.637620 kJ/mol
# Density = 1.848653 g / cm^3
# Si number density = 18.528699 Si / 1000 Ang^3
#
#
#
# Elastic Constant Matrix: (Units=GPa)
#
#
# Indices 1 2 3 4 5 6 
#
# 1 82.6885 55.1937 41.0762 0.0000 0.0000 0.0000
# 2 55.1937 141.7930 48.6558 0.0000 0.0000 0.0000
# 3 41.0762 48.6558 102.4245 0.0000 0.0000 0.0000
# 4 0.0000 0.0000 0.0000 9.3327 0.0000 0.0000
# 5 0.0000 0.0000 0.0000 0.0000 11.4012 0.0000
# 6 0.0000 0.0000 0.0000 0.0000 0.0000 24.9036
#
#
#
# Elastic Compliance Matrix: (Units=1/GPa)
#
#
# Indices 1 2 3 4 5 6 
#
# 1 0.018022 -0.005418 -0.004654 0.000000 0.000000 0.000000
# 2 -0.005418 0.010055 -0.002604 0.000000 0.000000 0.000000
# 3 -0.004654 -0.002604 0.012866 0.000000 0.000000 0.000000
# 4 0.000000 0.000000 0.000000 0.107150 0.000000 0.000000
# 5 0.000000 0.000000 0.000000 0.000000 0.087710 0.000000
# 6 0.000000 0.000000 0.000000 0.000000 0.000000 0.040155
#
#
# Mechanical properties :
#
#
# Convention : Reuss Voigt Hill
#
# Bulk Modulus (GPa) = 64.13385 68.52862 66.33123
# Shear Modulus (GPa) = 16.31289 21.25953 18.78621
#
# Velocity S-wave (km/s) = 2.97039 3.39098 3.18763
# Velocity P-wave (km/s) = 6.81562 7.23858 7.03028
#
# Compressibility (1/GPa) = 0.01559239
#
# Stress axis : x y z
#
# Youngs Moduli (GPa) = 55.48796 99.45254 77.72187
#
# Poissons Ratio (x) = 0.53886 0.36169
# Poissons Ratio (y) = 0.30065 0.20236
# Poissons Ratio (z) = 0.25822 0.25894
#
# Static dielectric constant tensor:
#      x y z
#    x 3.249230 0.000000 0.000000 
#    y 0.000000 3.684040 0.000000 
#    z 0.000000 0.000000 3.504380 
# 
# 
# High freq. dielectric constant tensor:
#      x y z
#    x 1.693650 0.000000 0.000000 
#    y 0.000000 1.726690 0.000000 
#    z 0.000000 0.000000 1.708040 
# 
# From -- ./inp_files/39833.got.cif
#   From: 2010.03.12/outbox.cif.g09.slc.cpg/sg65_20_cif.got.tgz:39833.got - 2010.04.10 20:52:16.
