data_PCOD8270225
_publ_section_title
;
Structure prediction by ZEFSAII (Michael W. Deem and Ramdas Pophale) SiO2 
 PCOD8270225
Probable space group: C M M M
;
_chemical_formula_sum "Si O2"
_cell_formula_units_Z 112
_cell_length_a 11.822472
_cell_length_b 28.475619
_cell_length_c 17.533887
_cell_angle_alpha 90.000000
_cell_angle_beta 90.000000
_cell_angle_gamma 90.000000
_cell_volume 5902.821779
_symmetry_space_group_name_H-M "C M M M"
_symmetry_group_IT_number 65
_symmetry_cell_setting 'orthorhombic'
loop_
_space_group_symop_operation_xyz
x,y,z
-x,-y,z
x,-y,-z
-x,y,-z
-x,-y,-z
x,y,-z
-x,y,z
x,-y,z
1/2+x,1/2+y,z
1/2-x,1/2-y,z
1/2+x,1/2-y,-z
1/2-x,1/2+y,-z
1/2-x,1/2-y,-z
1/2+x,1/2+y,-z
1/2-x,1/2+y,z
1/2+x,1/2-y,z
loop_
_atom_site_type_symbol
_atom_site_label
_atom_site_fract_x
_atom_site_fract_y
_atom_site_fract_z
Si Si1 0.704404 0.201536 0.181676
Si Si2 0.736699 0.945965 0.790088
Si Si3 0.628549 0.222999 0.657163
Si Si4 0.244219 0.641594 0.414916
Si Si5 0.628905 0.947982 0.365450
Si Si6 0.872183 0.135412 0.733692
Si Si7 0.870326 0.617869 0.914168
O O1 0.750000 0.250000 0.144243
O O2 0.622659 0.213587 0.252547
O O3 0.808476 0.171286 0.212103
O O4 0.639660 0.170553 0.119302
O O5 0.639376 0.940475 0.726034
O O6 0.844797 0.918449 0.755804
O O7 0.697302 0.921538 0.867703
O O8 0.768923 0.000000 0.806477
O O9 0.500000 0.244143 0.636864
O O10 0.750000 0.250000 0.637958
O O11 0.639278 0.174714 0.609902
O O12 0.287015 0.654095 0.500000
O O13 0.201913 0.588143 0.414081
O O14 0.346169 0.647139 0.354806
O O15 0.500000 0.941671 0.388829
O O16 0.672943 0.000000 0.386694
O O17 0.000000 0.146074 0.749564
O O18 0.000000 0.602665 0.913544
O O19 0.821827 0.618160 0.000000
#
# Coordination Sequence:
#
# PCOD8270225 Si02
#       7
#    16  16  16  16  16  16  16
#     4   9  19  34  55  76 101 137 177 221 268 316
#     4   9  18  33  52  73 100 134 171 213 258 306
#     4  10  21  36  55  78 105 140 186 235 277 322
#     4  10  21  34  49  73 106 139 166 205 267 327
#     4   9  17  30  50  73  95 125 167 209 248 299
#     4   9  19  35  54  77 100 128 176 226 262 306
#     4  10  20  32  49  78 112 139 166 207 262 325
#
# _framework density 18.973977000000001
#
# number of rings (size 3 to 8) (size 9 to 14) (size 15 to 20)
#    0.000    2.571    0.000    2.143    0.000    9.429 
#    0.000    1.429    0.000    6.857    0.000    8.000 
#    0.000    0.000    0.000    0.000    0.000    0.000 
#
# Total GULP energy -693820.007221 kJ/mol
# GULP energy per Si atom -12389.642986 kJ/mol
# Density = 1.893079 g / cm^3
# Si number density = 18.973977 Si / 1000 Ang^3
#
#
#
# Elastic Constant Matrix: (Units=GPa)
#
#
# Indices 1 2 3 4 5 6 
#
# 1 97.3391 20.1067 8.9600 0.0000 0.0000 0.0000
# 2 20.1067 97.7686 16.6809 0.0000 0.0000 0.0000
# 3 8.9600 16.6809 87.4404 0.0000 0.0000 0.0000
# 4 0.0000 0.0000 0.0000 16.7579 0.0000 0.0000
# 5 0.0000 0.0000 0.0000 0.0000 7.2713 0.0000
# 6 0.0000 0.0000 0.0000 0.0000 0.0000 18.8351
#
#
#
# Elastic Compliance Matrix: (Units=1/GPa)
#
#
# Indices 1 2 3 4 5 6 
#
# 1 0.010771 -0.002095 -0.000704 0.000000 0.000000 0.000000
# 2 -0.002095 0.010980 -0.001880 0.000000 0.000000 0.000000
# 3 -0.000704 -0.001880 0.011867 0.000000 0.000000 0.000000
# 4 0.000000 0.000000 0.000000 0.059673 0.000000 0.000000
# 5 0.000000 0.000000 0.000000 0.000000 0.137526 0.000000
# 6 0.000000 0.000000 0.000000 0.000000 0.000000 0.053092
#
#
# Mechanical properties :
#
#
# Convention : Reuss Voigt Hill
#
# Bulk Modulus (GPa) = 41.22017 41.56037 41.39027
# Shear Modulus (GPa) = 16.59175 24.35956 20.47565
#
# Velocity S-wave (km/s) = 2.96031 3.58696 3.28860
# Velocity P-wave (km/s) = 5.78415 6.25352 6.02341
#
# Compressibility (1/GPa) = 0.02425997
#
# Stress axis : x y z
#
# Youngs Moduli (GPa) = 92.84257 91.07607 84.26631
#
# Poissons Ratio (x) = 0.19080 0.05933
# Poissons Ratio (y) = 0.19450 0.15842
# Poissons Ratio (z) = 0.06536 0.17122
#
# Static dielectric constant tensor:
#      x y z
#    x 3.253710 0.000000 0.000000 
#    y 0.000000 3.768260 0.000000 
#    z 0.000000 0.000000 3.348190 
# 
# 
# High freq. dielectric constant tensor:
#      x y z
#    x 1.712690 0.000000 0.000000 
#    y 0.000000 1.750240 0.000000 
#    z 0.000000 0.000000 1.717720 
# 
# From -- ./inp_files/39001.got.cif
#   From: 2010.03.12/outbox.cif.g09.slc.cpg/sg65_20_cif.got.tgz:39001.got - 2010.04.10 20:52:16.
