data_PCOD8270277
_publ_section_title
;
Structure prediction by ZEFSAII (Michael W. Deem and Ramdas Pophale) SiO2 
 PCOD8270277
Probable space group: C M M M
;
_chemical_formula_sum "Si O2"
_cell_formula_units_Z 72
_cell_length_a 24.805948
_cell_length_b 16.836708
_cell_length_c 8.961115
_cell_angle_alpha 90.000000
_cell_angle_beta 90.000000
_cell_angle_gamma 90.000000
_cell_volume 3742.614188
_symmetry_space_group_name_H-M "C M M M"
_symmetry_group_IT_number 65
_symmetry_cell_setting 'orthorhombic'
loop_
_space_group_symop_operation_xyz
x,y,z
-x,-y,z
x,-y,-z
-x,y,-z
-x,-y,-z
x,y,-z
-x,y,z
x,-y,z
1/2+x,1/2+y,z
1/2-x,1/2-y,z
1/2+x,1/2-y,-z
1/2-x,1/2+y,-z
1/2-x,1/2-y,-z
1/2+x,1/2+y,-z
1/2-x,1/2+y,z
1/2+x,1/2-y,z
loop_
_atom_site_type_symbol
_atom_site_label
_atom_site_fract_x
_atom_site_fract_y
_atom_site_fract_z
Si Si1 0.844762 0.193900 0.676557
Si Si2 0.560498 0.000000 0.324072
Si Si3 0.851265 0.624069 0.676036
Si Si4 0.940809 0.911343 0.322504
Si Si5 0.757572 0.911738 0.172671
O O1 0.839770 0.185187 0.500000
O O2 0.853889 0.284282 0.724781
O O3 0.895968 0.147045 0.743465
O O4 0.790911 0.156828 0.745019
O O5 0.593689 0.078994 0.275400
O O6 0.500000 0.000000 0.252068
O O7 0.553913 0.000000 0.500000
O O8 0.841590 0.614733 0.500000
O O9 0.802059 0.583935 0.760916
O O10 0.938902 0.910154 0.500000
O O11 0.000000 0.883372 0.267894
O O12 0.928976 0.000000 0.263780
O O13 0.783208 0.000000 0.195152
O O14 0.754602 0.888922 0.000000
#
# Coordination Sequence:
#
# PCOD8270277 Si02
#       5
#    16   8  16  16  16
#     4  10  20  32  52  82 109 138 178 221 267 320
#     4   9  18  34  57  83 111 145 182 223 272 321
#     4  10  20  35  55  79 108 141 177 219 269 323
#     4   8  14  26  45  71 104 137 167 205 255 308
#     4  11  23  37  54  76 105 142 181 221 272 326
#
# _framework density 19.237888999999999
#
# number of rings (size 3 to 8) (size 9 to 14) (size 15 to 20)
#    0.000    2.333    1.111    2.667    0.000    6.667 
#    0.000    4.444    0.000    2.000    0.000    6.222 
#    0.000    0.000    0.000    0.000    0.000    0.000 
#
# Total GULP energy -446283.111739 kJ/mol
# GULP energy per Si atom -12396.753104 kJ/mol
# Density = 1.919410 g / cm^3
# Si number density = 19.237889 Si / 1000 Ang^3
#
#
#
# Elastic Constant Matrix: (Units=GPa)
#
#
# Indices 1 2 3 4 5 6 
#
# 1 142.5211 72.6384 22.3888 0.0000 0.0000 0.0000
# 2 72.6384 141.0164 29.8639 0.0000 0.0000 0.0000
# 3 22.3888 29.8639 28.7008 0.0000 0.0000 0.0000
# 4 0.0000 0.0000 0.0000 15.6529 0.0000 0.0000
# 5 0.0000 0.0000 0.0000 0.0000 -2.2104 0.0000
# 6 0.0000 0.0000 0.0000 0.0000 0.0000 26.8114
#
#
#
# Elastic Compliance Matrix: (Units=1/GPa)
#
#
# Indices 1 2 3 4 5 6 
#
# 1 0.009717 -0.004361 -0.003042 0.000000 0.000000 0.000000
# 2 -0.004361 0.011053 -0.008099 0.000000 0.000000 0.000000
# 3 -0.003042 -0.008099 0.045643 0.000000 0.000000 0.000000
# 4 0.000000 0.000000 0.000000 0.063886 0.000000 0.000000
# 5 0.000000 0.000000 0.000000 0.000000 -0.452412 0.000000
# 6 0.000000 0.000000 0.000000 0.000000 0.000000 0.037298
#
#
# Mechanical properties :
#
#
# Convention : Reuss Voigt Hill
#
# Bulk Modulus (GPa) = 28.24211 62.44673 45.34442
# Shear Modulus (GPa) = -20.66039 20.54060 -0.05989
#
# Velocity S-wave (km/s) = -3.28066 3.27114 -0.17664
# Velocity P-wave (km/s) = 0.60168 6.84090 4.85592
#
# Compressibility (1/GPa) = 0.03540812
#
# Stress axis : x y z
#
# Youngs Moduli (GPa) = 102.91120 90.47381 21.90937
#
# Poissons Ratio (x) = 0.39456 0.06666
# Poissons Ratio (y) = 0.44880 0.17744
# Poissons Ratio (z) = 0.31309 0.73274
#
# Static dielectric constant tensor:
#      x y z
#    x 3.825800 0.000000 0.000000 
#    y 0.000000 3.795630 0.000000 
#    z 0.000000 0.000000 3.050310 
# 
# 
# High freq. dielectric constant tensor:
#      x y z
#    x 1.754410 0.000000 0.000000 
#    y 0.000000 1.761020 0.000000 
#    z 0.000000 0.000000 1.700750 
# 
# From -- ./inp_files/7266.got.cif
#   From: 2010.03.12/outbox.cif.g09.slc.cpg/sg65_4_cif.got.tgz:7266.got - 2010.04.10 20:52:16.
