data_PCOD8270756
_publ_section_title
;
Structure prediction by ZEFSAII (Michael W. Deem and Ramdas Pophale) SiO2 
 PCOD8270756
Probable space group: C M M M
;
_chemical_formula_sum "Si O2"
_cell_formula_units_Z 72
_cell_length_a 14.449230
_cell_length_b 8.890729
_cell_length_c 30.563145
_cell_angle_alpha 90.000000
_cell_angle_beta 90.000000
_cell_angle_gamma 90.000000
_cell_volume 3926.269611
_symmetry_space_group_name_H-M "C M M M"
_symmetry_group_IT_number 65
_symmetry_cell_setting 'orthorhombic'
loop_
_space_group_symop_operation_xyz
x,y,z
-x,-y,z
x,-y,-z
-x,y,-z
-x,-y,-z
x,y,-z
-x,y,z
x,-y,z
1/2+x,1/2+y,z
1/2-x,1/2-y,z
1/2+x,1/2-y,-z
1/2-x,1/2+y,-z
1/2-x,1/2-y,-z
1/2+x,1/2+y,-z
1/2-x,1/2+y,z
1/2+x,1/2-y,z
loop_
_atom_site_type_symbol
_atom_site_label
_atom_site_fract_x
_atom_site_fract_y
_atom_site_fract_z
Si Si1 0.500000 0.323250 0.929718
Si Si2 0.349456 0.674837 0.000000
Si Si3 0.500000 0.177900 0.387192
Si Si4 0.000000 0.828383 0.294997
Si Si5 0.649297 0.677128 0.777005
Si Si6 0.000000 0.321818 0.162934
Si Si7 0.153601 0.677129 0.548736
O O1 0.500000 0.500000 0.917337
O O2 0.408306 0.280942 0.957146
O O3 0.500000 0.217604 0.887825
O O4 0.250000 0.750000 0.000000
O O5 0.330856 0.500000 0.000000
O O6 0.500000 0.225751 0.337276
O O7 0.412729 0.241897 0.413752
O O8 0.500000 0.000000 0.388886
O O9 0.092180 0.792190 0.267341
O O10 0.000000 0.000000 0.310262
O O11 0.658434 0.500000 0.786366
O O12 0.750000 0.750000 0.772451
O O13 0.593209 0.752083 0.816646
O O14 0.000000 0.500000 0.170169
O O15 0.118066 0.721509 0.500000
O O16 0.163510 0.500000 0.552172
O O17 0.250000 0.750000 0.559408
#
# Coordination Sequence:
#
# PCOD8270756 Si02
#       7
#     8   8   8   8  16   8  16
#     4   9  19  37  55  76 111 150 183 224 274 321
#     4   9  19  35  56  78 106 147 189 227 271 318
#     4  10  20  33  52  75 100 134 171 207 252 307
#     4   9  21  38  54  76 107 137 169 213 262 313
#     4  10  21  39  60  81 107 141 178 221 271 322
#     4  11  22  36  57  86 114 144 182 225 273 325
#     4   9  18  33  51  72  99 131 168 209 252 300
#
# _framework density 18.338017000000001
#
# number of rings (size 3 to 8) (size 9 to 14) (size 15 to 20)
#    0.000    2.444    0.000    3.333    0.000    7.556 
#    0.000    7.778    0.000    3.333    0.000    0.000 
#    0.000    0.000    0.000    0.000    0.000    0.000 
#
# Total GULP energy -446323.926680 kJ/mol
# GULP energy per Si atom -12397.886852 kJ/mol
# Density = 1.829628 g / cm^3
# Si number density = 18.338017 Si / 1000 Ang^3
#
#
#
# Elastic Constant Matrix: (Units=GPa)
#
#
# Indices 1 2 3 4 5 6 
#
# 1 163.6649 63.0175 74.5392 0.0000 0.0000 0.0000
# 2 63.0175 78.9305 53.8915 0.0000 0.0000 0.0000
# 3 74.5392 53.8915 131.3066 0.0000 0.0000 0.0000
# 4 0.0000 0.0000 0.0000 33.5009 0.0000 0.0000
# 5 0.0000 0.0000 0.0000 0.0000 17.8658 0.0000
# 6 0.0000 0.0000 0.0000 0.0000 0.0000 34.7007
#
#
#
# Elastic Compliance Matrix: (Units=1/GPa)
#
#
# Indices 1 2 3 4 5 6 
#
# 1 0.009723 -0.005549 -0.003242 0.000000 0.000000 0.000000
# 2 -0.005549 0.020769 -0.005374 0.000000 0.000000 0.000000
# 3 -0.003242 -0.005374 0.011662 0.000000 0.000000 0.000000
# 4 0.000000 0.000000 0.000000 0.029850 0.000000 0.000000
# 5 0.000000 0.000000 0.000000 0.000000 0.055973 0.000000
# 6 0.000000 0.000000 0.000000 0.000000 0.000000 0.028818
#
#
# Mechanical properties :
#
#
# Convention : Reuss Voigt Hill
#
# Bulk Modulus (GPa) = 72.34077 84.08871 78.21474
# Shear Modulus (GPa) = 26.35274 29.37708 27.86491
#
# Velocity S-wave (km/s) = 3.79496 4.00681 3.90233
# Velocity P-wave (km/s) = 7.66397 8.20734 7.94031
#
# Compressibility (1/GPa) = 0.01382346
#
# Stress axis : x y z
#
# Youngs Moduli (GPa) = 102.84504 48.14829 85.75033
#
# Poissons Ratio (x) = 0.26720 0.27801
# Poissons Ratio (y) = 0.57074 0.46081
# Poissons Ratio (z) = 0.33343 0.25874
#
# Static dielectric constant tensor:
#      x y z
#    x 3.316760 0.000000 0.000000 
#    y 0.000000 3.290850 0.000000 
#    z 0.000000 0.000000 3.392580 
# 
# 
# High freq. dielectric constant tensor:
#      x y z
#    x 1.719130 0.000000 0.000000 
#    y 0.000000 1.707940 0.000000 
#    z 0.000000 0.000000 1.713440 
# 
# From -- ./inp_files/77581.got.cif
#   From: 2010.03.12/outbox.cif.g09.slc.cpg/sg65_39_cif.got.tgz:77581.got - 2010.04.10 20:52:16.
