data_PCOD8270459
_publ_section_title
;
Structure prediction by ZEFSAII (Michael W. Deem and Ramdas Pophale) SiO2 
 PCOD8270459
Probable space group: C M M M
;
_chemical_formula_sum "Si O2"
_cell_formula_units_Z 80
_cell_length_a 9.146170
_cell_length_b 20.100291
_cell_length_c 25.380021
_cell_angle_alpha 90.000000
_cell_angle_beta 90.000000
_cell_angle_gamma 90.000000
_cell_volume 4665.880282
_symmetry_space_group_name_H-M "C M M M"
_symmetry_group_IT_number 65
_symmetry_cell_setting 'orthorhombic'
loop_
_space_group_symop_operation_xyz
x,y,z
-x,-y,z
x,-y,-z
-x,y,-z
-x,-y,-z
x,y,-z
-x,y,z
x,-y,z
1/2+x,1/2+y,z
1/2-x,1/2-y,z
1/2+x,1/2-y,-z
1/2-x,1/2+y,-z
1/2-x,1/2-y,-z
1/2+x,1/2+y,-z
1/2-x,1/2+y,z
1/2+x,1/2-y,z
loop_
_atom_site_type_symbol
_atom_site_label
_atom_site_fract_x
_atom_site_fract_y
_atom_site_fract_z
Si Si1 0.328594 0.183393 0.750023
Si Si2 0.167290 0.923300 0.061018
Si Si3 0.663470 0.921008 0.444251
Si Si4 0.675010 0.925434 0.668724
Si Si5 0.828741 0.682832 0.870945
O O1 0.500000 0.193659 0.742254
O O2 0.250000 0.250000 0.730670
O O3 0.268000 0.122812 0.714675
O O4 0.289109 0.167401 0.810387
O O5 0.275648 0.879156 0.095169
O O6 0.000000 0.907145 0.076039
O O7 0.202986 0.000000 0.073072
O O8 0.195043 0.907380 0.000000
O O9 0.743031 0.899090 0.500000
O O10 0.500000 0.891787 0.446479
O O11 0.736824 0.898873 0.388505
O O12 0.655949 0.000000 0.441862
O O13 0.500000 0.926030 0.666282
O O14 0.732543 0.000000 0.681037
O O15 0.750000 0.750000 0.890247
O O16 0.000000 0.692708 0.879461
#
# Coordination Sequence:
#
# PCOD8270459 Si02
#       5
#    16  16  16  16  16
#     4   9  18  31  46  64  88 119 150 181 221 266
#     4   9  19  36  55  74  98 126 152 181 223 273
#     4   7   9  14  27  50  79 107 135 172 218 261
#     4   8  13  22  38  60  84 110 143 183 223 261
#     4  10  20  33  50  71  94 122 158 196 230 269
#
# _framework density 17.145745999999999
#
# number of rings (size 3 to 8) (size 9 to 14) (size 15 to 20)
#    0.000    3.400    0.000    3.000    0.000    2.800 
#    0.000    3.000    0.000    1.200    0.000    0.000 
#    0.000    0.000    0.000    5.000    0.000    4.000 
#
# Total GULP energy -495524.686042 kJ/mol
# GULP energy per Si atom -12388.117151 kJ/mol
# Density = 1.710672 g / cm^3
# Si number density = 17.145746 Si / 1000 Ang^3
#
#
#
# Elastic Constant Matrix: (Units=GPa)
#
#
# Indices 1 2 3 4 5 6 
#
# 1 38.2534 34.2756 34.9867 0.0000 0.0000 0.0000
# 2 34.2756 99.4310 73.1824 0.0000 0.0000 0.0000
# 3 34.9867 73.1824 107.3862 0.0000 0.0000 0.0000
# 4 0.0000 0.0000 0.0000 7.6862 0.0000 0.0000
# 5 0.0000 0.0000 0.0000 0.0000 9.6454 0.0000
# 6 0.0000 0.0000 0.0000 0.0000 0.0000 24.5392
#
#
#
# Elastic Compliance Matrix: (Units=1/GPa)
#
#
# Indices 1 2 3 4 5 6 
#
# 1 0.040554 -0.008537 -0.007395 0.000000 0.000000 0.000000
# 2 -0.008537 0.021976 -0.012195 0.000000 0.000000 0.000000
# 3 -0.007395 -0.012195 0.020032 0.000000 0.000000 0.000000
# 4 0.000000 0.000000 0.000000 0.130104 0.000000 0.000000
# 5 0.000000 0.000000 0.000000 0.000000 0.103676 0.000000
# 6 0.000000 0.000000 0.000000 0.000000 0.000000 0.040751
#
#
# Mechanical properties :
#
#
# Convention : Reuss Voigt Hill
#
# Bulk Modulus (GPa) = 38.01039 58.88444 48.44741
# Shear Modulus (GPa) = 11.84511 15.21588 13.53049
#
# Velocity S-wave (km/s) = 2.63125 2.98223 2.81222
# Velocity P-wave (km/s) = 5.60789 6.80267 6.23397
#
# Compressibility (1/GPa) = 0.02630860
#
# Stress axis : x y z
#
# Youngs Moduli (GPa) = 24.65848 45.50517 49.92038
#
# Poissons Ratio (x) = 0.38848 0.36914
# Poissons Ratio (y) = 0.21051 0.60876
# Poissons Ratio (z) = 0.18234 0.55492
#
# Static dielectric constant tensor:
#      x y z
#    x 2.781020 0.000000 0.000000 
#    y 0.000000 3.073490 0.000000 
#    z 0.000000 0.000000 3.632880 
# 
# 
# High freq. dielectric constant tensor:
#      x y z
#    x 1.616280 0.000000 0.000000 
#    y 0.000000 1.639360 0.000000 
#    z 0.000000 0.000000 1.679490 
# 
# From -- ./inp_files/72818.got.cif
#   From: 2010.03.12/outbox.cif.g09.slc.cpg/sg65_37_cif.got.tgz:72818.got - 2010.04.10 20:52:16.
