data_PCOD8270803
_publ_section_title
;
Structure prediction by ZEFSAII (Michael W. Deem and Ramdas Pophale) SiO2 
 PCOD8270803
Probable space group: C M M M
;
_chemical_formula_sum "Si O2"
_cell_formula_units_Z 68
_cell_length_a 9.033987
_cell_length_b 34.030328
_cell_length_c 11.826979
_cell_angle_alpha 90.000000
_cell_angle_beta 90.000000
_cell_angle_gamma 90.000000
_cell_volume 3635.962723
_symmetry_space_group_name_H-M "C M M M"
_symmetry_group_IT_number 65
_symmetry_cell_setting 'orthorhombic'
loop_
_space_group_symop_operation_xyz
x,y,z
-x,-y,z
x,-y,-z
-x,y,-z
-x,-y,-z
x,y,-z
-x,y,z
x,-y,z
1/2+x,1/2+y,z
1/2-x,1/2-y,z
1/2+x,1/2-y,-z
1/2-x,1/2+y,-z
1/2-x,1/2-y,-z
1/2+x,1/2+y,-z
1/2-x,1/2+y,z
1/2+x,1/2-y,z
loop_
_atom_site_type_symbol
_atom_site_label
_atom_site_fract_x
_atom_site_fract_y
_atom_site_fract_z
Si Si1 0.172649 0.923527 0.368651
Si Si2 0.827128 0.209513 0.131715
Si Si3 0.834756 0.412834 0.000000
Si Si4 0.823595 0.366698 0.785607
Si Si5 0.164063 0.000000 0.749614
Si Si6 0.745969 0.500000 0.000000
O O1 0.200283 0.931021 0.500000
O O2 0.264364 0.885367 0.330599
O O3 0.000000 0.916729 0.341016
O O4 0.240716 0.960782 0.299364
O O5 0.750000 0.250000 0.166694
O O6 0.747167 0.176078 0.203806
O O7 0.000000 0.211542 0.161946
O O8 0.801418 0.200513 0.000000
O O9 0.761007 0.394627 0.887375
O O10 0.841031 0.460161 0.000000
O O11 0.000000 0.396624 0.000000
O O12 0.000000 0.363398 0.782405
O O13 0.000000 0.000000 0.697713
O O14 0.150765 0.000000 0.885669
#
# Coordination Sequence:
#
# PCOD8270803 Si02
#       6
#    16  16   8  16   8   4
#     4  10  21  38  57  77 106 147 194 240 284 331
#     4  10  20  34  55  85 118 152 183 221 272 335
#     4  10  21  33  50  75 111 152 186 225 282 337
#     4  11  21  36  56  81 113 148 187 233 279 335
#     4  10  20  33  52  79 108 144 187 235 287 335
#     4  12  18  34  52  78 112 150 186 232 280 340
#
# _framework density 18.702061
#
# number of rings (size 3 to 8) (size 9 to 14) (size 15 to 20)
#    0.000    1.647    3.529    2.118    0.000    2.824 
#    0.000    0.588    0.000    2.118    0.000    0.000 
#    0.000    0.000    0.000    0.000    0.000    0.000 
#
# Total GULP energy -421552.234064 kJ/mol
# GULP energy per Si atom -12398.595120 kJ/mol
# Density = 1.865949 g / cm^3
# Si number density = 18.702061 Si / 1000 Ang^3
#
#
#
# Elastic Constant Matrix: (Units=GPa)
#
#
# Indices 1 2 3 4 5 6 
#
# 1 90.4259 55.5012 35.8526 0.0000 0.0000 0.0000
# 2 55.5012 154.5234 56.3428 0.0000 0.0000 0.0000
# 3 35.8526 56.3428 96.8122 0.0000 0.0000 0.0000
# 4 0.0000 0.0000 0.0000 22.8492 0.0000 0.0000
# 5 0.0000 0.0000 0.0000 0.0000 23.6475 0.0000
# 6 0.0000 0.0000 0.0000 0.0000 0.0000 28.8587
#
#
#
# Elastic Compliance Matrix: (Units=1/GPa)
#
#
# Indices 1 2 3 4 5 6 
#
# 1 0.014860 -0.004228 -0.003043 0.000000 0.000000 0.000000
# 2 -0.004228 0.009418 -0.003915 0.000000 0.000000 0.000000
# 3 -0.003043 -0.003915 0.013735 0.000000 0.000000 0.000000
# 4 0.000000 0.000000 0.000000 0.043765 0.000000 0.000000
# 5 0.000000 0.000000 0.000000 0.000000 0.042288 0.000000
# 6 0.000000 0.000000 0.000000 0.000000 0.000000 0.034652
#
#
# Mechanical properties :
#
#
# Convention : Reuss Voigt Hill
#
# Bulk Modulus (GPa) = 63.93471 70.79499 67.36485
# Shear Modulus (GPa) = 26.83814 28.00875 27.42344
#
# Velocity S-wave (km/s) = 3.79230 3.87412 3.83343
# Velocity P-wave (km/s) = 7.30996 7.61236 7.46269
#
# Compressibility (1/GPa) = 0.01564096
#
# Stress axis : x y z
#
# Youngs Moduli (GPa) = 67.29395 106.18337 72.80911
#
# Poissons Ratio (x) = 0.44895 0.22153
# Poissons Ratio (y) = 0.28452 0.28506
# Poissons Ratio (z) = 0.20475 0.41572
#
# Static dielectric constant tensor:
#      x y z
#    x 3.204390 0.000000 0.000000 
#    y 0.000000 3.446590 0.000000 
#    z 0.000000 0.000000 3.261800 
# 
# 
# High freq. dielectric constant tensor:
#      x y z
#    x 1.712290 0.000000 0.000000 
#    y 0.000000 1.734080 0.000000 
#    z 0.000000 0.000000 1.706440 
# 
# From -- ./inp_files/22746.got.cif
#   From: 2010.03.12/outbox.cif.g09.slc.cpg/sg65_12_cif.got.tgz:22746.got - 2010.04.10 20:52:16.
