data_PCOD8270301
_publ_section_title
;
Structure prediction by ZEFSAII (Michael W. Deem and Ramdas Pophale) SiO2 
 PCOD8270301
Probable space group: C M M M
;
_chemical_formula_sum "Si O2"
_cell_formula_units_Z 80
_cell_length_a 28.125096
_cell_length_b 8.797381
_cell_length_c 20.651044
_cell_angle_alpha 90.000000
_cell_angle_beta 90.000000
_cell_angle_gamma 90.000000
_cell_volume 5109.629688
_symmetry_space_group_name_H-M "C M M M"
_symmetry_group_IT_number 65
_symmetry_cell_setting 'orthorhombic'
loop_
_space_group_symop_operation_xyz
x,y,z
-x,-y,z
x,-y,-z
-x,y,-z
-x,-y,-z
x,y,-z
-x,y,z
x,-y,z
1/2+x,1/2+y,z
1/2-x,1/2-y,z
1/2+x,1/2-y,-z
1/2-x,1/2+y,-z
1/2-x,1/2-y,-z
1/2+x,1/2+y,-z
1/2-x,1/2+y,z
1/2+x,1/2-y,z
loop_
_atom_site_type_symbol
_atom_site_label
_atom_site_fract_x
_atom_site_fract_y
_atom_site_fract_z
Si Si1 0.799718 0.822501 0.575095
Si Si2 0.443560 0.170556 0.129163
Si Si3 0.056282 0.172563 0.500000
Si Si4 0.556761 0.671559 0.000000
Si Si5 0.393348 0.179148 0.379710
Si Si6 0.555826 0.676027 0.739168
O O1 0.810816 0.788065 0.500000
O O2 0.750000 0.750000 0.596251
O O3 0.840515 0.746676 0.617906
O O4 0.797668 0.000000 0.589508
O O5 0.500000 0.166702 0.125179
O O6 0.427277 0.272628 0.189707
O O7 0.423306 0.000000 0.136645
O O8 0.423007 0.244098 0.063510
O O9 0.074189 0.254722 0.436213
O O10 0.000000 0.175643 0.500000
O O11 0.075815 0.000000 0.500000
O O12 0.576017 0.500000 0.000000
O O13 0.500000 0.673122 0.000000
O O14 0.416193 0.221807 0.311575
O O15 0.390749 0.000000 0.387549
O O16 0.500000 0.705213 0.729628
O O17 0.568588 0.500000 0.729031
#
# Coordination Sequence:
#
# PCOD8270301 Si02
#       6
#    16  16   8   8  16  16
#     4  10  20  35  55  74  94 115 142 182 230 280
#     4   9  16  26  40  59  83 112 149 191 230 267
#     4  11  23  37  50  65  88 119 155 193 231 269
#     4   9  15  23  37  57  81 111 148 187 226 267
#     4  12  23  34  50  70  92 118 151 189 231 276
#     4  10  20  33  47  63  88 123 159 193 231 275
#
# _framework density 15.656712000000001
#
# number of rings (size 3 to 8) (size 9 to 14) (size 15 to 20)
#    0.000    1.800    1.000    4.800    0.000    8.800 
#    0.000    0.000    0.000    0.000    0.000    0.000 
#    0.000    0.000    0.000    0.900    0.000   12.700 
#
# Total GULP energy -496128.573179 kJ/mol
# GULP energy per Si atom -12403.214329 kJ/mol
# Density = 1.562108 g / cm^3
# Si number density = 15.656712 Si / 1000 Ang^3
#
#
#
# Elastic Constant Matrix: (Units=GPa)
#
#
# Indices 1 2 3 4 5 6 
#
# 1 55.7803 38.4350 33.6346 0.0000 0.0000 0.0000
# 2 38.4350 117.7943 38.5739 0.0000 0.0000 0.0000
# 3 33.6346 38.5739 103.0441 0.0000 0.0000 0.0000
# 4 0.0000 0.0000 0.0000 16.4468 0.0000 0.0000
# 5 0.0000 0.0000 0.0000 0.0000 1.1618 0.0000
# 6 0.0000 0.0000 0.0000 0.0000 0.0000 22.3300
#
#
#
# Elastic Compliance Matrix: (Units=1/GPa)
#
#
# Indices 1 2 3 4 5 6 
#
# 1 0.026083 -0.006522 -0.006072 0.000000 0.000000 0.000000
# 2 -0.006522 0.011306 -0.002104 0.000000 0.000000 0.000000
# 3 -0.006072 -0.002104 0.012474 0.000000 0.000000 0.000000
# 4 0.000000 0.000000 0.000000 0.060802 0.000000 0.000000
# 5 0.000000 0.000000 0.000000 0.000000 0.860713 0.000000
# 6 0.000000 0.000000 0.000000 0.000000 0.000000 0.044783
#
#
# Mechanical properties :
#
#
# Convention : Reuss Voigt Hill
#
# Bulk Modulus (GPa) = 48.85784 55.32283 52.09034
# Shear Modulus (GPa) = 4.75114 19.05274 11.90194
#
# Velocity S-wave (km/s) = 1.74389 3.49220 2.76013
# Velocity P-wave (km/s) = 5.94376 7.18834 6.59547
#
# Compressibility (1/GPa) = 0.02046754
#
# Stress axis : x y z
#
# Youngs Moduli (GPa) = 38.33922 88.44605 80.16632
#
# Poissons Ratio (x) = 0.57686 0.48679
# Poissons Ratio (y) = 0.25005 0.16864
# Poissons Ratio (z) = 0.23280 0.18605
#
# Static dielectric constant tensor:
#      x y z
#    x 2.688690 0.000000 0.000000 
#    y 0.000000 3.216870 0.000000 
#    z 0.000000 0.000000 3.201380 
# 
# 
# High freq. dielectric constant tensor:
#      x y z
#    x 1.552200 0.000000 0.000000 
#    y 0.000000 1.625560 0.000000 
#    z 0.000000 0.000000 1.597950 
# 
# From -- ./inp_files/60048.got.cif
#   From: 2010.03.12/outbox.cif.g09.slc.cpg/sg65_31_cif.got.tgz:60048.got - 2010.04.10 20:52:16.
