data_PCOD8270965
_publ_section_title
;
Structure prediction by ZEFSAII (Michael W. Deem and Ramdas Pophale) SiO2 
 PCOD8270965
Probable space group: C M M M
;
_chemical_formula_sum "Si O2"
_cell_formula_units_Z 104
_cell_length_a 22.618986
_cell_length_b 33.136172
_cell_length_c 7.715863
_cell_angle_alpha 90.000000
_cell_angle_beta 90.000000
_cell_angle_gamma 90.000000
_cell_volume 5783.090325
_symmetry_space_group_name_H-M "C M M M"
_symmetry_group_IT_number 65
_symmetry_cell_setting 'orthorhombic'
loop_
_space_group_symop_operation_xyz
x,y,z
-x,-y,z
x,-y,-z
-x,y,-z
-x,-y,-z
x,y,-z
-x,y,z
x,-y,z
1/2+x,1/2+y,z
1/2-x,1/2-y,z
1/2+x,1/2-y,-z
1/2-x,1/2+y,-z
1/2-x,1/2-y,-z
1/2+x,1/2+y,-z
1/2-x,1/2+y,z
1/2+x,1/2-y,z
loop_
_atom_site_type_symbol
_atom_site_label
_atom_site_fract_x
_atom_site_fract_y
_atom_site_fract_z
Si Si1 0.338593 0.454382 0.704829
Si Si2 0.000000 0.455777 0.295387
Si Si3 0.894254 0.599664 0.697173
Si Si4 0.929883 0.748044 0.000000
Si Si5 0.565554 0.607779 0.705416
Si Si6 0.208105 0.545540 0.801827
Si Si7 0.070855 0.344678 0.000000
Si Si8 0.929708 0.802342 0.691955
O O1 0.333303 0.449972 0.500000
O O2 0.355217 0.500000 0.758695
O O3 0.388883 0.424990 0.782248
O O4 0.276230 0.441581 0.786617
O O5 0.941990 0.432419 0.233264
O O6 0.000000 0.500000 0.208486
O O7 0.000000 0.459944 0.500000
O O8 0.907560 0.614236 0.500000
O O9 0.830801 0.577855 0.697541
O O10 0.899082 0.637370 0.826817
O O11 0.904070 0.769966 0.171557
O O12 0.910377 0.701869 0.000000
O O13 0.000000 0.752214 0.000000
O O14 0.562043 0.603754 0.500000
O O15 0.500000 0.599804 0.783622
O O16 0.588226 0.652637 0.754174
O O17 0.199424 0.500000 0.726418
O O18 0.187938 0.546936 0.000000
O O19 0.000000 0.350663 0.000000
O O20 0.903676 0.792886 0.500000
O O21 0.000000 0.800149 0.682490
#
# Coordination Sequence:
#
# PCOD8270965 Si02
#       8
#    16   8  16   8  16  16   8  16
#     4   9  17  29  46  71 102 136 174 212 251 296
#     4   9  18  31  49  73  98 127 165 202 241 297
#     4  11  21  35  53  73 100 134 169 208 257 301
#     4   9  18  30  48  71  99 131 164 197 243 310
#     4   8  14  26  46  72 104 137 169 209 252 296
#     4  10  20  34  51  70  96 132 176 220 254 288
#     4  11  22  36  50  75 108 134 162 201 253 316
#     4   8  14  27  46  70  98 128 165 206 246 291
#
# _framework density 17.983464999999999
#
# number of rings (size 3 to 8) (size 9 to 14) (size 15 to 20)
#    0.000    2.692    1.538    1.846    0.000    2.462 
#    1.385    3.462    0.000    0.000    0.000    4.308 
#    0.000    4.923    0.000    0.000    0.000    0.000 
#
# Total GULP energy -644623.991223 kJ/mol
# GULP energy per Si atom -12396.615216 kJ/mol
# Density = 1.794253 g / cm^3
# Si number density = 17.983465 Si / 1000 Ang^3
#
#
#
# Elastic Constant Matrix: (Units=GPa)
#
#
# Indices 1 2 3 4 5 6 
#
# 1 71.5909 57.2057 25.2542 0.0000 0.0000 0.0000
# 2 57.2057 139.1871 53.8560 0.0000 0.0000 0.0000
# 3 25.2542 53.8560 80.8129 0.0000 0.0000 0.0000
# 4 0.0000 0.0000 0.0000 21.4342 0.0000 0.0000
# 5 0.0000 0.0000 0.0000 0.0000 14.6570 0.0000
# 6 0.0000 0.0000 0.0000 0.0000 0.0000 15.7830
#
#
#
# Elastic Compliance Matrix: (Units=1/GPa)
#
#
# Indices 1 2 3 4 5 6 
#
# 1 0.020869 -0.008157 -0.001085 0.000000 0.000000 0.000000
# 2 -0.008157 0.012869 -0.006027 0.000000 0.000000 0.000000
# 3 -0.001085 -0.006027 0.016730 0.000000 0.000000 0.000000
# 4 0.000000 0.000000 0.000000 0.046654 0.000000 0.000000
# 5 0.000000 0.000000 0.000000 0.000000 0.068227 0.000000
# 6 0.000000 0.000000 0.000000 0.000000 0.000000 0.063359
#
#
# Mechanical properties :
#
#
# Convention : Reuss Voigt Hill
#
# Bulk Modulus (GPa) = 50.17863 62.69139 56.43501
# Shear Modulus (GPa) = 18.80461 20.72652 19.76556
#
# Velocity S-wave (km/s) = 3.23718 3.39858 3.31886
# Velocity P-wave (km/s) = 6.47577 7.09484 6.79236
#
# Compressibility (1/GPa) = 0.01992880
#
# Stress axis : x y z
#
# Youngs Moduli (GPa) = 47.91717 77.70386 59.77184
#
# Poissons Ratio (x) = 0.63385 0.06488
# Poissons Ratio (y) = 0.39087 0.36027
# Poissons Ratio (z) = 0.05201 0.46835
#
# Static dielectric constant tensor:
#      x y z
#    x 3.150110 0.000000 0.000000 
#    y 0.000000 3.393530 0.000000 
#    z 0.000000 0.000000 3.311600 
# 
# 
# High freq. dielectric constant tensor:
#      x y z
#    x 1.660480 0.000000 0.000000 
#    y 0.000000 1.682580 0.000000 
#    z 0.000000 0.000000 1.696040 
# 
# From -- ./inp_files/15095.got.cif
#   From: 2010.03.12/outbox.cif.g09.slc.cpg/sg65_8_cif.got.tgz:15095.got - 2010.04.10 20:52:16.
