data_PCOD8270169
_publ_section_title
;
Structure prediction by ZEFSAII (Michael W. Deem and Ramdas Pophale) SiO2 
 PCOD8270169
Probable space group: C M M M
;
_chemical_formula_sum "Si O2"
_cell_formula_units_Z 128
_cell_length_a 16.987398
_cell_length_b 18.363756
_cell_length_c 23.208149
_cell_angle_alpha 90.000000
_cell_angle_beta 90.000000
_cell_angle_gamma 90.000000
_cell_volume 7239.838522
_symmetry_space_group_name_H-M "C M M M"
_symmetry_group_IT_number 65
_symmetry_cell_setting 'orthorhombic'
loop_
_space_group_symop_operation_xyz
x,y,z
-x,-y,z
x,-y,-z
-x,y,-z
-x,-y,-z
x,y,-z
-x,y,z
x,-y,z
1/2+x,1/2+y,z
1/2-x,1/2-y,z
1/2+x,1/2-y,-z
1/2-x,1/2+y,-z
1/2-x,1/2-y,-z
1/2+x,1/2+y,-z
1/2-x,1/2+y,z
1/2+x,1/2-y,z
loop_
_atom_site_type_symbol
_atom_site_label
_atom_site_fract_x
_atom_site_fract_y
_atom_site_fract_z
Si Si1 0.590847 0.712569 0.433225
Si Si2 0.593797 0.919924 0.130935
Si Si3 0.308653 0.187824 0.350785
Si Si4 0.911366 0.198835 0.829025
Si Si5 0.674603 0.585168 0.376039
Si Si6 0.405627 0.781894 0.064072
Si Si7 0.588791 0.843285 0.756692
Si Si8 0.909006 0.082386 0.744705
O O1 0.605631 0.728017 0.500000
O O2 0.500000 0.718444 0.416270
O O3 0.636488 0.775055 0.398589
O O4 0.619341 0.630450 0.419321
O O5 0.500000 0.917941 0.131273
O O6 0.624424 0.861871 0.083738
O O7 0.622281 0.899303 0.195405
O O8 0.625961 0.000000 0.114568
O O9 0.250000 0.250000 0.326540
O O10 0.261601 0.120211 0.379022
O O11 0.357985 0.152941 0.299414
O O12 0.871541 0.222360 0.890104
O O13 0.909100 0.263579 0.783568
O O14 0.871500 0.130076 0.796993
O O15 0.000000 0.176367 0.844025
O O16 0.676291 0.500000 0.393990
O O17 0.641114 0.596244 0.312101
O O18 0.500000 0.780826 0.065689
O O19 0.373643 0.764762 0.000000
O O20 0.500000 0.863998 0.738629
O O21 0.000000 0.104542 0.732093
O O22 0.902972 0.000000 0.765517
#
# Coordination Sequence:
#
# PCOD8270169 Si02
#       8
#    16  16  16  16  16  16  16  16
#     4  10  21  37  57  77  96 125 167 206 234 270
#     4   8  14  23  35  55  82 111 147 188 225 267
#     4  10  20  32  49  72 100 129 157 193 239 287
#     4   8  13  22  37  57  81 110 148 191 231 274
#     4  10  21  34  49  75 107 131 154 192 245 298
#     4   8  13  20  31  50  79 116 151 182 225 278
#     4   9  16  27  44  63  85 119 158 191 226 271
#     4   9  16  27  45  66  89 119 152 188 233 285
#
# _framework density 17.679952
#
# number of rings (size 3 to 8) (size 9 to 14) (size 15 to 20)
#    0.000    3.000    0.000    3.750    0.000    5.000 
#    0.000    1.875    0.000    1.500    0.000    3.500 
#    0.000   32.000    0.000    5.250    0.000    5.750 
#
# Total GULP energy -793105.407032 kJ/mol
# GULP energy per Si atom -12392.271985 kJ/mol
# Density = 1.763971 g / cm^3
# Si number density = 17.679952 Si / 1000 Ang^3
#
#
#
# Elastic Constant Matrix: (Units=GPa)
#
#
# Indices 1 2 3 4 5 6 
#
# 1 56.4206 28.8933 35.5430 0.0000 0.0000 0.0000
# 2 28.8933 79.8187 34.3024 0.0000 0.0000 0.0000
# 3 35.5430 34.3024 88.9653 0.0000 0.0000 0.0000
# 4 0.0000 0.0000 0.0000 21.8469 0.0000 0.0000
# 5 0.0000 0.0000 0.0000 0.0000 -3.0713 0.0000
# 6 0.0000 0.0000 0.0000 0.0000 0.0000 15.6284
#
#
#
# Elastic Compliance Matrix: (Units=1/GPa)
#
#
# Indices 1 2 3 4 5 6 
#
# 1 0.025802 -0.005885 -0.008039 0.000000 0.000000 0.000000
# 2 -0.005885 0.016359 -0.003956 0.000000 0.000000 0.000000
# 3 -0.008039 -0.003956 0.015978 0.000000 0.000000 0.000000
# 4 0.000000 0.000000 0.000000 0.045773 0.000000 0.000000
# 5 0.000000 0.000000 0.000000 0.000000 -0.325592 0.000000
# 6 0.000000 0.000000 0.000000 0.000000 0.000000 0.063986
#
#
# Mechanical properties :
#
#
# Convention : Reuss Voigt Hill
#
# Bulk Modulus (GPa) = 44.68803 46.96466 45.82634
# Shear Modulus (GPa) = -43.67815 15.31185 -14.18315
#
# Velocity S-wave (km/s) = -4.97580 2.94608 -2.83542
# Velocity P-wave (km/s) = 2.77135 6.18013 3.90599
#
# Compressibility (1/GPa) = 0.02237736
#
# Stress axis : x y z
#
# Youngs Moduli (GPa) = 38.75624 61.12842 62.58773
#
# Poissons Ratio (x) = 0.35975 0.50316
# Poissons Ratio (y) = 0.22809 0.24762
# Poissons Ratio (z) = 0.31157 0.24184
#
# Static dielectric constant tensor:
#      x y z
#    x 3.017910 0.000000 0.000000 
#    y 0.000000 3.405200 0.000000 
#    z 0.000000 0.000000 3.310110 
# 
# 
# High freq. dielectric constant tensor:
#      x y z
#    x 1.647360 0.000000 0.000000 
#    y 0.000000 1.678620 0.000000 
#    z 0.000000 0.000000 1.676670 
# 
# From -- ./inp_files/70692.got.cif
#   From: 2010.03.12/outbox.cif.g09.slc.cpg/sg65_36_cif.got.tgz:70692.got - 2010.04.10 20:52:16.
