data_PCOD8270671
_publ_section_title
;
Structure prediction by ZEFSAII (Michael W. Deem and Ramdas Pophale) SiO2 
 PCOD8270671
Probable space group: C M M M
;
_chemical_formula_sum "Si O2"
_cell_formula_units_Z 104
_cell_length_a 28.585327
_cell_length_b 8.794749
_cell_length_c 23.503630
_cell_angle_alpha 90.000000
_cell_angle_beta 90.000000
_cell_angle_gamma 90.000000
_cell_volume 5908.830822
_symmetry_space_group_name_H-M "C M M M"
_symmetry_group_IT_number 65
_symmetry_cell_setting 'orthorhombic'
loop_
_space_group_symop_operation_xyz
x,y,z
-x,-y,z
x,-y,-z
-x,y,-z
-x,-y,-z
x,y,-z
-x,y,z
x,-y,z
1/2+x,1/2+y,z
1/2-x,1/2-y,z
1/2+x,1/2-y,-z
1/2-x,1/2+y,-z
1/2-x,1/2-y,-z
1/2+x,1/2+y,-z
1/2-x,1/2+y,z
1/2+x,1/2-y,z
loop_
_atom_site_type_symbol
_atom_site_label
_atom_site_fract_x
_atom_site_fract_y
_atom_site_fract_z
Si Si1 0.199910 0.677753 0.500000
Si Si2 0.448307 0.826739 0.881782
Si Si3 0.800615 0.820485 0.167209
Si Si4 0.857461 0.321038 0.730404
Si Si5 0.147518 0.676289 0.064376
Si Si6 0.199218 0.320616 0.377555
Si Si7 0.552553 0.675995 0.236885
O O1 0.207397 0.500000 0.500000
O O2 0.250000 0.750000 0.500000
O O3 0.176012 0.725054 0.560471
O O4 0.500000 0.802320 0.909475
O O5 0.407839 0.790670 0.927215
O O6 0.441484 0.714133 0.829331
O O7 0.443446 0.000000 0.859346
O O8 0.750000 0.750000 0.177621
O O9 0.835521 0.761166 0.215308
O O10 0.820357 0.775906 0.105526
O O11 0.796426 0.000000 0.171457
O O12 0.851374 0.500000 0.738156
O O13 0.833940 0.260070 0.672474
O O14 0.911963 0.276686 0.725934
O O15 0.158614 0.500000 0.076288
O O16 0.160287 0.721536 0.000000
O O17 0.204990 0.500000 0.372710
O O18 0.250000 0.250000 0.369329
O O19 0.500000 0.713959 0.257512
O O20 0.564544 0.500000 0.245411
#
# Coordination Sequence:
#
# PCOD8270671 Si02
#       7
#     8  16  16  16  16  16  16
#     4   8  14  28  46  68 101 138 173 207 246 289
#     4   9  17  31  53  78 104 133 162 198 246 302
#     4  12  25  40  57  75  99 133 170 213 260 304
#     4  11  21  34  53  79 107 135 170 209 254 304
#     4  10  21  37  56  78 104 133 168 209 253 307
#     4   9  18  30  48  74 105 140 174 209 247 295
#     4  10  20  33  51  76 104 134 167 206 254 304
#
# _framework density 17.600774000000001
#
# number of rings (size 3 to 8) (size 9 to 14) (size 15 to 20)
#    0.000    2.000    1.538    2.769    0.000    4.308 
#    0.000    1.538    0.000    0.000    0.000    3.769 
#    0.000    4.308    0.000    0.000    0.000    0.000 
#
# Total GULP energy -644560.728050 kJ/mol
# GULP energy per Si atom -12395.398616 kJ/mol
# Density = 1.756071 g / cm^3
# Si number density = 17.600774 Si / 1000 Ang^3
#
#
#
# Elastic Constant Matrix: (Units=GPa)
#
#
# Indices 1 2 3 4 5 6 
#
# 1 92.2678 34.4228 44.0228 0.0000 0.0000 0.0000
# 2 34.4228 66.4378 34.8209 0.0000 0.0000 0.0000
# 3 44.0228 34.8209 116.4961 0.0000 0.0000 0.0000
# 4 0.0000 0.0000 0.0000 13.2676 0.0000 0.0000
# 5 0.0000 0.0000 0.0000 0.0000 19.0906 0.0000
# 6 0.0000 0.0000 0.0000 0.0000 0.0000 25.3395
#
#
#
# Elastic Compliance Matrix: (Units=1/GPa)
#
#
# Indices 1 2 3 4 5 6 
#
# 1 0.014801 -0.005617 -0.003914 0.000000 0.000000 0.000000
# 2 -0.005617 0.019980 -0.003849 0.000000 0.000000 0.000000
# 3 -0.003914 -0.003849 0.011214 0.000000 0.000000 0.000000
# 4 0.000000 0.000000 0.000000 0.075372 0.000000 0.000000
# 5 0.000000 0.000000 0.000000 0.000000 0.052382 0.000000
# 6 0.000000 0.000000 0.000000 0.000000 0.000000 0.039464
#
#
# Mechanical properties :
#
#
# Convention : Reuss Voigt Hill
#
# Bulk Modulus (GPa) = 51.99407 55.74830 53.87118
# Shear Modulus (GPa) = 20.29350 22.33522 21.31436
#
# Velocity S-wave (km/s) = 3.39925 3.56615 3.48370
# Velocity P-wave (km/s) = 6.70906 6.97848 6.84509
#
# Compressibility (1/GPa) = 0.01923296
#
# Stress axis : x y z
#
# Youngs Moduli (GPa) = 67.56179 50.05119 89.17693
#
# Poissons Ratio (x) = 0.28115 0.34906
# Poissons Ratio (y) = 0.37952 0.34326
# Poissons Ratio (z) = 0.26445 0.19266
#
# Static dielectric constant tensor:
#      x y z
#    x 3.415200 0.000000 0.000000 
#    y 0.000000 3.215520 0.000000 
#    z 0.000000 0.000000 3.513000 
# 
# 
# High freq. dielectric constant tensor:
#      x y z
#    x 1.673360 0.000000 0.000000 
#    y 0.000000 1.682680 0.000000 
#    z 0.000000 0.000000 1.667410 
# 
# From -- ./inp_files/68239.got.cif
#   From: 2010.03.12/outbox.cif.g09.slc.cpg/sg65_35_cif.got.tgz:68239.got - 2010.04.10 20:52:16.
