data_PCOD8270319
_publ_section_title
;
Structure prediction by ZEFSAII (Michael W. Deem and Ramdas Pophale) SiO2 
 PCOD8270319
Probable space group: C M M M
;
_chemical_formula_sum "Si O2"
_cell_formula_units_Z 80
_cell_length_a 18.863329
_cell_length_b 17.371174
_cell_length_c 13.530612
_cell_angle_alpha 90.000000
_cell_angle_beta 90.000000
_cell_angle_gamma 90.000000
_cell_volume 4433.686183
_symmetry_space_group_name_H-M "C M M M"
_symmetry_group_IT_number 65
_symmetry_cell_setting 'orthorhombic'
loop_
_space_group_symop_operation_xyz
x,y,z
-x,-y,z
x,-y,-z
-x,y,-z
-x,-y,-z
x,y,-z
-x,y,z
x,-y,z
1/2+x,1/2+y,z
1/2-x,1/2-y,z
1/2+x,1/2-y,-z
1/2-x,1/2+y,-z
1/2-x,1/2-y,-z
1/2+x,1/2+y,-z
1/2-x,1/2+y,z
1/2+x,1/2-y,z
loop_
_atom_site_type_symbol
_atom_site_label
_atom_site_fract_x
_atom_site_fract_y
_atom_site_fract_z
Si Si1 0.856024 0.409102 0.201554
Si Si2 0.274639 0.334571 0.886863
Si Si3 0.500000 0.408498 0.387815
Si Si4 0.500000 0.907977 0.111602
Si Si5 0.782745 0.590383 0.392462
Si Si6 0.641941 0.409729 0.280360
O O1 0.862286 0.500000 0.206106
O O2 0.793332 0.389803 0.125375
O O3 0.836700 0.375406 0.310381
O O4 0.930677 0.373908 0.166068
O O5 0.250000 0.250000 0.853809
O O6 0.340412 0.362848 0.819728
O O7 0.300527 0.336285 0.000000
O O8 0.500000 0.500000 0.394228
O O9 0.500000 0.375150 0.500000
O O10 0.568712 0.379718 0.327432
O O11 0.500000 0.000000 0.112989
O O12 0.500000 0.877171 0.000000
O O13 0.797149 0.628425 0.500000
O O14 0.794985 0.500000 0.399758
O O15 0.702304 0.607408 0.361092
O O16 0.638699 0.500000 0.253602
#
# Coordination Sequence:
#
# PCOD8270319 Si02
#       6
#    16  16   8   8  16  16
#     4   9  17  29  47  69  90 115 149 188 230 275
#     4  10  20  33  48  67  92 123 159 197 237 281
#     4   9  16  28  50  79 105 127 157 198 240 284
#     4   9  16  26  42  65  89 111 143 187 226 261
#     4   8  13  23  41  65  91 117 146 181 220 264
#     4   9  17  29  48  73  97 124 159 196 236 282
#
# _framework density 18.043676000000001
#
# number of rings (size 3 to 8) (size 9 to 14) (size 15 to 20)
#    0.000    3.000    0.000    3.000    0.000    4.800 
#    0.000    2.000    0.000   22.200    0.000    0.000 
#    0.000    0.000    0.000    0.000    0.000    0.000 
#
# Total GULP energy -495776.499625 kJ/mol
# GULP energy per Si atom -12394.412491 kJ/mol
# Density = 1.800261 g / cm^3
# Si number density = 18.043676 Si / 1000 Ang^3
#
#
#
# Elastic Constant Matrix: (Units=GPa)
#
#
# Indices 1 2 3 4 5 6 
#
# 1 151.5426 17.0002 85.5261 0.0000 0.0000 0.0000
# 2 17.0002 21.0832 35.1635 0.0000 0.0000 0.0000
# 3 85.5261 35.1635 159.0663 0.0000 0.0000 0.0000
# 4 0.0000 0.0000 0.0000 13.5254 0.0000 0.0000
# 5 0.0000 0.0000 0.0000 0.0000 24.5325 0.0000
# 6 0.0000 0.0000 0.0000 0.0000 0.0000 9.6315
#
#
#
# Elastic Compliance Matrix: (Units=1/GPa)
#
#
# Indices 1 2 3 4 5 6 
#
# 1 0.009498 0.001360 -0.005408 0.000000 0.000000 0.000000
# 2 0.001360 0.075327 -0.017383 0.000000 0.000000 0.000000
# 3 -0.005408 -0.017383 0.013037 0.000000 0.000000 0.000000
# 4 0.000000 0.000000 0.000000 0.073935 0.000000 0.000000
# 5 0.000000 0.000000 0.000000 0.000000 0.040762 0.000000
# 6 0.000000 0.000000 0.000000 0.000000 0.000000 0.103826
#
#
# Mechanical properties :
#
#
# Convention : Reuss Voigt Hill
#
# Bulk Modulus (GPa) = 18.18153 67.45238 42.81695
# Shear Modulus (GPa) = 13.24225 22.47139 17.85682
#
# Velocity S-wave (km/s) = 2.71200 3.53284 3.14927
# Velocity P-wave (km/s) = 4.46148 7.35563 6.08318
#
# Compressibility (1/GPa) = 0.05500088
#
# Stress axis : x y z
#
# Youngs Moduli (GPa) = 105.28425 13.27547 76.70457
#
# Poissons Ratio (x) = -0.01806 0.41479
# Poissons Ratio (y) = -0.14323 1.33338
# Poissons Ratio (z) = 0.56934 0.23077
#
# Static dielectric constant tensor:
#      x y z
#    x 3.509610 0.000000 0.000000 
#    y 0.000000 2.886970 0.000000 
#    z 0.000000 0.000000 3.669250 
# 
# 
# High freq. dielectric constant tensor:
#      x y z
#    x 1.690530 0.000000 0.000000 
#    y 0.000000 1.648660 0.000000 
#    z 0.000000 0.000000 1.708070 
# 
# From -- ./inp_files/42398.got.cif
#   From: 2010.03.12/outbox.cif.g09.slc.cpg/sg65_22_cif.got.tgz:42398.got - 2010.04.10 20:52:16.
