data_PCOD8270599
_publ_section_title
;
Structure prediction by ZEFSAII (Michael W. Deem and Ramdas Pophale) SiO2 
 PCOD8270599
Probable space group: C M M M
;
_chemical_formula_sum "Si O2"
_cell_formula_units_Z 72
_cell_length_a 17.460300
_cell_length_b 20.690690
_cell_length_c 11.314199
_cell_angle_alpha 90.000000
_cell_angle_beta 90.000000
_cell_angle_gamma 90.000000
_cell_volume 4087.431508
_symmetry_space_group_name_H-M "C M M M"
_symmetry_group_IT_number 65
_symmetry_cell_setting 'orthorhombic'
loop_
_space_group_symop_operation_xyz
x,y,z
-x,-y,z
x,-y,-z
-x,y,-z
-x,-y,-z
x,y,-z
-x,y,z
x,-y,z
1/2+x,1/2+y,z
1/2-x,1/2-y,z
1/2+x,1/2-y,-z
1/2-x,1/2+y,-z
1/2-x,1/2-y,-z
1/2+x,1/2+y,-z
1/2-x,1/2+y,z
1/2+x,1/2-y,z
loop_
_atom_site_type_symbol
_atom_site_label
_atom_site_fract_x
_atom_site_fract_y
_atom_site_fract_z
Si Si1 0.863900 0.628198 0.246263
Si Si2 0.300017 0.362975 0.357776
Si Si3 0.869740 0.500000 0.370731
Si Si4 0.408651 0.923611 0.000000
Si Si5 0.313075 0.500000 0.629311
Si Si6 0.414893 0.748488 0.633922
O O1 0.779027 0.647068 0.289410
O O2 0.899191 0.564337 0.306667
O O3 0.868695 0.613744 0.107885
O O4 0.914842 0.689640 0.281019
O O5 0.285575 0.365581 0.500000
O O6 0.337144 0.431594 0.311735
O O7 0.356439 0.305924 0.320354
O O8 0.906277 0.500000 0.500000
O O9 0.778605 0.500000 0.375230
O O10 0.500000 0.913997 0.000000
O O11 0.387654 0.000000 0.000000
O O12 0.349978 0.500000 0.500000
O O13 0.392726 0.769125 0.500000
O O14 0.500000 0.718538 0.637246
#
# Coordination Sequence:
#
# PCOD8270599 Si02
#       6
#    16  16   8   8   8  16
#     4  11  19  34  54  75 100 139 184 218 257 310
#     4   9  17  31  54  82 108 135 173 220 266 313
#     4   9  16  27  49  79 103 123 162 216 260 308
#     4  11  24  40  53  72 107 146 177 216 267 312
#     4   7  12  24  44  71  99 126 158 199 248 299
#     4  10  20  33  50  77 113 146 173 212 269 322
#
# _framework density 17.614972999999999
#
# number of rings (size 3 to 8) (size 9 to 14) (size 15 to 20)
#    0.000    2.333    1.111    4.667    0.000    1.778 
#    0.000    2.778    0.000    6.000    0.000    0.000 
#    0.000    0.889    0.000    0.000    0.000    0.000 
#
# Total GULP energy -446064.970823 kJ/mol
# GULP energy per Si atom -12390.693634 kJ/mol
# Density = 1.757488 g / cm^3
# Si number density = 17.614973 Si / 1000 Ang^3
#
#
#
# Elastic Constant Matrix: (Units=GPa)
#
#
# Indices 1 2 3 4 5 6 
#
# 1 71.6043 41.6408 29.2576 0.0000 0.0000 0.0000
# 2 41.6408 125.0130 39.1997 0.0000 0.0000 0.0000
# 3 29.2576 39.1997 97.7115 0.0000 0.0000 0.0000
# 4 0.0000 0.0000 0.0000 16.5858 0.0000 0.0000
# 5 0.0000 0.0000 0.0000 0.0000 11.0514 0.0000
# 6 0.0000 0.0000 0.0000 0.0000 0.0000 12.6084
#
#
#
# Elastic Compliance Matrix: (Units=1/GPa)
#
#
# Indices 1 2 3 4 5 6 
#
# 1 0.018294 -0.005006 -0.003470 0.000000 0.000000 0.000000
# 2 -0.005006 0.010520 -0.002721 0.000000 0.000000 0.000000
# 3 -0.003470 -0.002721 0.012365 0.000000 0.000000 0.000000
# 4 0.000000 0.000000 0.000000 0.060293 0.000000 0.000000
# 5 0.000000 0.000000 0.000000 0.000000 0.090486 0.000000
# 6 0.000000 0.000000 0.000000 0.000000 0.000000 0.079312
#
#
# Mechanical properties :
#
#
# Convention : Reuss Voigt Hill
#
# Bulk Modulus (GPa) = 53.23275 57.16942 55.20108
# Shear Modulus (GPa) = 16.67079 20.33116 18.50098
#
# Velocity S-wave (km/s) = 3.07970 3.40103 3.24435
# Velocity P-wave (km/s) = 6.55224 6.92446 6.74092
#
# Compressibility (1/GPa) = 0.01878543
#
# Stress axis : x y z
#
# Youngs Moduli (GPa) = 54.66156 95.05788 80.87390
#
# Poissons Ratio (x) = 0.47584 0.28061
# Poissons Ratio (y) = 0.27362 0.22010
# Poissons Ratio (z) = 0.18966 0.25870
#
# Static dielectric constant tensor:
#      x y z
#    x 2.966590 0.000000 0.000000 
#    y 0.000000 3.641650 0.000000 
#    z 0.000000 0.000000 3.039510 
# 
# 
# High freq. dielectric constant tensor:
#      x y z
#    x 1.657190 0.000000 0.000000 
#    y 0.000000 1.700500 0.000000 
#    z 0.000000 0.000000 1.641940 
# 
# From -- ./inp_files/26588.got.cif
#   From: 2010.03.12/outbox.cif.g09.slc.cpg/sg65_14_cif.got.tgz:26588.got - 2010.04.10 20:52:16.
