data_PCOD8270818
_publ_section_title
;
Structure prediction by ZEFSAII (Michael W. Deem and Ramdas Pophale) SiO2 
 PCOD8270818
Probable space group: C M M M
;
_chemical_formula_sum "Si O2"
_cell_formula_units_Z 88
_cell_length_a 18.386362
_cell_length_b 9.072252
_cell_length_c 28.030230
_cell_angle_alpha 90.000000
_cell_angle_beta 90.000000
_cell_angle_gamma 90.000000
_cell_volume 4675.602401
_symmetry_space_group_name_H-M "C M M M"
_symmetry_group_IT_number 65
_symmetry_cell_setting 'orthorhombic'
loop_
_space_group_symop_operation_xyz
x,y,z
-x,-y,z
x,-y,-z
-x,y,-z
-x,-y,-z
x,y,-z
-x,y,z
x,-y,z
1/2+x,1/2+y,z
1/2-x,1/2-y,z
1/2+x,1/2-y,-z
1/2-x,1/2+y,-z
1/2-x,1/2-y,-z
1/2+x,1/2+y,-z
1/2-x,1/2+y,z
1/2+x,1/2-y,z
loop_
_atom_site_type_symbol
_atom_site_label
_atom_site_fract_x
_atom_site_fract_y
_atom_site_fract_z
Si Si1 0.415680 0.327331 0.327669
Si Si2 0.172377 0.675191 0.591033
Si Si3 0.918502 0.325356 0.500000
Si Si4 0.913716 0.837158 0.779212
Si Si5 0.175951 0.827574 0.054774
Si Si6 0.086250 0.334925 0.130323
O O1 0.500000 0.288446 0.336575
O O2 0.401754 0.500000 0.337312
O O3 0.366309 0.227033 0.360923
O O4 0.391773 0.284875 0.273807
O O5 0.181877 0.500000 0.591893
O O6 0.250000 0.750000 0.585809
O O7 0.123677 0.730012 0.546750
O O8 0.922986 0.500000 0.500000
O O9 0.000000 0.257912 0.500000
O O10 0.882791 0.727000 0.819402
O O11 0.000000 0.845013 0.781932
O O12 0.881685 0.000000 0.789299
O O13 0.250000 0.750000 0.071030
O O14 0.110792 0.765848 0.086505
O O15 0.184433 0.000000 0.063284
O O16 0.157541 0.790289 0.000000
O O17 0.116442 0.500000 0.123865
O O18 0.000000 0.332842 0.130742
#
# Coordination Sequence:
#
# PCOD8270818 Si02
#       6
#    16  16   8  16  16  16
#     4   9  18  34  56  81 108 138 175 218 262 311
#     4  11  22  36  55  78 109 145 178 217 264 313
#     4   9  19  36  57  81 106 135 176 221 264 314
#     4   8  15  30  52  76 104 138 173 213 261 310
#     4  10  21  37  56  76 101 136 176 217 263 317
#     4  10  20  33  52  80 111 140 173 216 262 309
#
# _framework density 18.821103999999998
#
# number of rings (size 3 to 8) (size 9 to 14) (size 15 to 20)
#    0.000    2.455    0.000    3.545    0.000    4.364 
#    0.000    5.909    0.000    7.636    0.000    0.000 
#    0.000    0.000    0.000    0.000    0.000    0.000 
#
# Total GULP energy -545598.483630 kJ/mol
# GULP energy per Si atom -12399.965537 kJ/mol
# Density = 1.877827 g / cm^3
# Si number density = 18.821104 Si / 1000 Ang^3
#
#
#
# Elastic Constant Matrix: (Units=GPa)
#
#
# Indices 1 2 3 4 5 6 
#
# 1 80.2763 43.5173 53.7038 0.0000 0.0000 0.0000
# 2 43.5173 94.5906 62.3794 0.0000 0.0000 0.0000
# 3 53.7038 62.3794 136.2290 0.0000 0.0000 0.0000
# 4 0.0000 0.0000 0.0000 29.1771 0.0000 0.0000
# 5 0.0000 0.0000 0.0000 0.0000 8.9075 0.0000
# 6 0.0000 0.0000 0.0000 0.0000 0.0000 23.0137
#
#
#
# Elastic Compliance Matrix: (Units=1/GPa)
#
#
# Indices 1 2 3 4 5 6 
#
# 1 0.018629 -0.005340 -0.004899 0.000000 0.000000 0.000000
# 2 -0.005340 0.016676 -0.005531 0.000000 0.000000 0.000000
# 3 -0.004899 -0.005531 0.011804 0.000000 0.000000 0.000000
# 4 0.000000 0.000000 0.000000 0.034273 0.000000 0.000000
# 5 0.000000 0.000000 0.000000 0.000000 0.112265 0.000000
# 6 0.000000 0.000000 0.000000 0.000000 0.000000 0.043452
#
#
# Mechanical properties :
#
#
# Convention : Reuss Voigt Hill
#
# Bulk Modulus (GPa) = 64.22491 70.03302 67.12897
# Shear Modulus (GPa) = 18.25955 22.31933 20.28944
#
# Velocity S-wave (km/s) = 3.11812 3.44738 3.28688
# Velocity P-wave (km/s) = 6.86743 7.28948 7.08160
#
# Compressibility (1/GPa) = 0.01557028
#
# Stress axis : x y z
#
# Youngs Moduli (GPa) = 53.68022 59.96648 84.71468
#
# Poissons Ratio (x) = 0.32021 0.41499
# Poissons Ratio (y) = 0.28664 0.46855
# Poissons Ratio (z) = 0.26296 0.33167
#
# Static dielectric constant tensor:
#      x y z
#    x 3.233790 0.000000 0.000000 
#    y 0.000000 3.551780 0.000000 
#    z 0.000000 0.000000 3.656710 
# 
# 
# High freq. dielectric constant tensor:
#      x y z
#    x 1.708640 0.000000 0.000000 
#    y 0.000000 1.729650 0.000000 
#    z 0.000000 0.000000 1.744800 
# 
# From -- ./inp_files/67572.got.cif
#   From: 2010.03.12/outbox.cif.g09.slc.cpg/sg65_34_cif.got.tgz:67572.got - 2010.04.10 20:52:16.
