data_PCOD8270486
_publ_section_title
;
Structure prediction by ZEFSAII (Michael W. Deem and Ramdas Pophale) SiO2 
 PCOD8270486
Probable space group: C M M M
;
_chemical_formula_sum "Si O2"
_cell_formula_units_Z 88
_cell_length_a 9.988038
_cell_length_b 17.707557
_cell_length_c 28.317173
_cell_angle_alpha 90.000000
_cell_angle_beta 90.000000
_cell_angle_gamma 90.000000
_cell_volume 5008.281469
_symmetry_space_group_name_H-M "C M M M"
_symmetry_group_IT_number 65
_symmetry_cell_setting 'orthorhombic'
loop_
_space_group_symop_operation_xyz
x,y,z
-x,-y,z
x,-y,-z
-x,y,-z
-x,-y,-z
x,y,-z
-x,y,z
x,-y,z
1/2+x,1/2+y,z
1/2-x,1/2-y,z
1/2+x,1/2-y,-z
1/2-x,1/2+y,-z
1/2-x,1/2-y,-z
1/2+x,1/2+y,-z
1/2-x,1/2+y,z
1/2+x,1/2-y,z
loop_
_atom_site_type_symbol
_atom_site_label
_atom_site_fract_x
_atom_site_fract_y
_atom_site_fract_z
Si Si1 0.652230 0.412252 0.685398
Si Si2 0.350075 0.589890 0.052510
Si Si3 0.650083 0.089758 0.235169
Si Si4 0.156321 0.177970 0.409493
Si Si5 0.341845 0.584006 0.500000
Si Si6 0.850024 0.589918 0.869781
O O1 0.500000 0.399921 0.702003
O O2 0.682738 0.500000 0.676508
O O3 0.746712 0.377557 0.726321
O O4 0.682708 0.370169 0.637084
O O5 0.500000 0.618334 0.063801
O O6 0.345833 0.500000 0.054683
O O7 0.250334 0.625308 0.091460
O O8 0.306536 0.616682 0.000000
O O9 0.500000 0.117211 0.247900
O O10 0.690308 0.118475 0.182717
O O11 0.656118 0.000000 0.235579
O O12 0.250000 0.250000 0.407283
O O13 0.205588 0.128450 0.453676
O O14 0.000000 0.201168 0.414233
O O15 0.277815 0.500000 0.500000
O O16 0.500000 0.576279 0.500000
O O17 0.843320 0.500000 0.871090
O O18 0.000000 0.617018 0.882114
#
# Coordination Sequence:
#
# PCOD8270486 Si02
#       6
#    16  16  16  16   8  16
#     4   9  17  29  45  65  87 112 147 187 221 259
#     4   8  13  19  25  35  54  82 118 160 204 249
#     4   8  14  24  37  54  76 101 131 171 219 265
#     4  10  20  33  50  72  97 124 153 185 223 267
#     4   9  17  32  55  77  96 123 158 192 224 259
#     4   8  13  20  29  42  61  86 119 160 205 253
#
# _framework density 17.570898
#
# number of rings (size 3 to 8) (size 9 to 14) (size 15 to 20)
#    0.000    3.364    0.000    2.455    0.000    4.000 
#    0.000    5.455    0.000    2.182    0.000    0.000 
#    0.000    0.000    0.000    0.000    0.000    0.909 
#
# Total GULP energy -545327.071325 kJ/mol
# GULP energy per Si atom -12393.797076 kJ/mol
# Density = 1.753091 g / cm^3
# Si number density = 17.570898 Si / 1000 Ang^3
#
#
#
# Elastic Constant Matrix: (Units=GPa)
#
#
# Indices 1 2 3 4 5 6 
#
# 1 109.4850 36.1252 105.3182 0.0000 0.0000 0.0000
# 2 36.1252 40.5243 36.0054 0.0000 0.0000 0.0000
# 3 105.3182 36.0054 178.5053 0.0000 0.0000 0.0000
# 4 0.0000 0.0000 0.0000 -1.7018 0.0000 0.0000
# 5 0.0000 0.0000 0.0000 0.0000 31.3263 0.0000
# 6 0.0000 0.0000 0.0000 0.0000 0.0000 15.8527
#
#
#
# Elastic Compliance Matrix: (Units=1/GPa)
#
#
# Indices 1 2 3 4 5 6 
#
# 1 0.024577 -0.010996 -0.012282 0.000000 0.000000 0.000000
# 2 -0.010996 0.034984 -0.000569 0.000000 0.000000 0.000000
# 3 -0.012282 -0.000569 0.012963 0.000000 0.000000 0.000000
# 4 0.000000 0.000000 0.000000 -0.587619 0.000000 0.000000
# 5 0.000000 0.000000 0.000000 0.000000 0.031922 0.000000
# 6 0.000000 0.000000 0.000000 0.000000 0.000000 0.063081
#
#
# Mechanical properties :
#
#
# Convention : Reuss Voigt Hill
#
# Bulk Modulus (GPa) = 40.27389 75.93470 58.10430
# Shear Modulus (GPa) = -13.73173 19.16651 2.71739
#
# Velocity S-wave (km/s) = -2.79857 3.30632 1.24494
# Velocity P-wave (km/s) = 3.53947 7.60827 5.93353
#
# Compressibility (1/GPa) = 0.02482998
#
# Stress axis : x y z
#
# Youngs Moduli (GPa) = 40.68866 28.58420 77.14019
#
# Poissons Ratio (x) = 0.31432 0.94747
# Poissons Ratio (y) = 0.44742 0.04387
# Poissons Ratio (z) = 0.49975 0.01626
#
# Static dielectric constant tensor:
#      x y z
#    x 3.397280 0.000000 0.000000 
#    y 0.000000 2.718300 0.000000 
#    z 0.000000 0.000000 3.671230 
# 
# 
# High freq. dielectric constant tensor:
#      x y z
#    x 1.672260 0.000000 0.000000 
#    y 0.000000 1.617880 0.000000 
#    z 0.000000 0.000000 1.695520 
# 
# From -- ./inp_files/76600.got.cif
#   From: 2010.03.12/outbox.cif.g09.slc.cpg/sg65_39_cif.got.tgz:76600.got - 2010.04.10 20:52:16.
