data_PCOD8270807
_publ_section_title
;
Structure prediction by ZEFSAII (Michael W. Deem and Ramdas Pophale) SiO2 
 PCOD8270807
Probable space group: C M M M
;
_chemical_formula_sum "Si O2"
_cell_formula_units_Z 88
_cell_length_a 20.787755
_cell_length_b 15.797772
_cell_length_c 12.943449
_cell_angle_alpha 90.000000
_cell_angle_beta 90.000000
_cell_angle_gamma 90.000000
_cell_volume 4250.631420
_symmetry_space_group_name_H-M "C M M M"
_symmetry_group_IT_number 65
_symmetry_cell_setting 'orthorhombic'
loop_
_space_group_symop_operation_xyz
x,y,z
-x,-y,z
x,-y,-z
-x,y,-z
-x,-y,-z
x,y,-z
-x,y,z
x,-y,z
1/2+x,1/2+y,z
1/2-x,1/2-y,z
1/2+x,1/2-y,-z
1/2-x,1/2+y,-z
1/2-x,1/2-y,-z
1/2+x,1/2+y,-z
1/2-x,1/2+y,z
1/2+x,1/2-y,z
loop_
_atom_site_type_symbol
_atom_site_label
_atom_site_fract_x
_atom_site_fract_y
_atom_site_fract_z
Si Si1 0.071894 0.099273 0.190871
Si Si2 0.796941 0.597457 0.000000
Si Si3 0.250000 0.250000 0.680201
Si Si4 0.346450 0.398732 0.000000
Si Si5 0.881967 0.186148 0.388065
Si Si6 0.428041 0.865842 0.616847
Si Si7 0.180542 0.595522 0.224082
O O1 0.116189 0.137704 0.100315
O O2 0.105338 0.118029 0.300089
O O3 0.000000 0.138463 0.184602
O O4 0.067089 0.000000 0.177778
O O5 0.725543 0.640462 0.000000
O O6 0.837243 0.618625 0.104313
O O7 0.779787 0.500000 0.000000
O O8 0.189944 0.223948 0.610680
O O9 0.232699 0.333952 0.745665
O O10 0.347828 0.500000 0.000000
O O11 0.893825 0.143206 0.500000
O O12 0.929950 0.264612 0.371829
O O13 0.405252 0.890913 0.500000
O O14 0.500000 0.900351 0.636248
O O15 0.381901 0.905441 0.703226
O O16 0.210647 0.500000 0.229888
#
# Coordination Sequence:
#
# PCOD8270807 Si02
#       7
#    16   8   8   8  16  16  16
#     4  10  20  33  52  79 109 144 186 229 276 332
#     4   9  18  34  56  81 113 149 182 224 282 336
#     4  10  21  37  58  82 110 149 193 230 276 334
#     4   9  17  32  52  73 103 144 188 231 271 319
#     4  10  20  35  54  77 109 145 180 226 283 337
#     4   9  19  37  59  80 105 143 189 232 275 325
#     4  10  21  37  57  84 115 145 183 232 280 331
#
# _framework density 20.702807
#
# number of rings (size 3 to 8) (size 9 to 14) (size 15 to 20)
#    0.000    2.364    0.000    2.182    0.000    6.545 
#    0.000    5.909    0.000    1.636    0.000    0.000 
#    0.000    0.000    0.000    0.000    0.000    0.000 
#
# Total GULP energy -545221.784026 kJ/mol
# GULP energy per Si atom -12391.404182 kJ/mol
# Density = 2.065569 g / cm^3
# Si number density = 20.702807 Si / 1000 Ang^3
#
#
#
# Elastic Constant Matrix: (Units=GPa)
#
#
# Indices 1 2 3 4 5 6 
#
# 1 106.5684 15.1885 63.7739 0.0000 0.0000 0.0000
# 2 15.1885 57.4039 28.4768 0.0000 0.0000 0.0000
# 3 63.7739 28.4768 190.0876 0.0000 0.0000 0.0000
# 4 0.0000 0.0000 0.0000 9.5361 0.0000 0.0000
# 5 0.0000 0.0000 0.0000 0.0000 26.5771 0.0000
# 6 0.0000 0.0000 0.0000 0.0000 0.0000 19.6699
#
#
#
# Elastic Compliance Matrix: (Units=1/GPa)
#
#
# Indices 1 2 3 4 5 6 
#
# 1 0.011824 -0.001254 -0.003779 0.000000 0.000000 0.000000
# 2 -0.001254 0.018952 -0.002419 0.000000 0.000000 0.000000
# 3 -0.003779 -0.002419 0.006891 0.000000 0.000000 0.000000
# 4 0.000000 0.000000 0.000000 0.104864 0.000000 0.000000
# 5 0.000000 0.000000 0.000000 0.000000 0.037626 0.000000
# 6 0.000000 0.000000 0.000000 0.000000 0.000000 0.050839
#
#
# Mechanical properties :
#
#
# Convention : Reuss Voigt Hill
#
# Bulk Modulus (GPa) = 43.92902 63.21535 53.57219
# Shear Modulus (GPa) = 19.72486 27.59799 23.66143
#
# Velocity S-wave (km/s) = 3.09003 3.65506 3.38436
# Velocity P-wave (km/s) = 5.83061 6.95799 6.41910
#
# Compressibility (1/GPa) = 0.02276399
#
# Stress axis : x y z
#
# Youngs Moduli (GPa) = 84.57492 52.76507 145.11880
#
# Poissons Ratio (x) = 0.06616 0.54841
# Poissons Ratio (y) = 0.10604 0.35097
# Poissons Ratio (z) = 0.31961 0.12761
#
# Static dielectric constant tensor:
#      x y z
#    x 3.672840 0.000000 0.000000 
#    y 0.000000 3.482910 0.000000 
#    z 0.000000 0.000000 3.945740 
# 
# 
# High freq. dielectric constant tensor:
#      x y z
#    x 1.801870 0.000000 0.000000 
#    y 0.000000 1.783590 0.000000 
#    z 0.000000 0.000000 1.821970 
# 
# From -- ./inp_files/28762.got.cif
#   From: 2010.03.12/outbox.cif.g09.slc.cpg/sg65_15_cif.got.tgz:28762.got - 2010.04.10 20:52:16.
