data_PCOD8270992
_publ_section_title
;
Structure prediction by ZEFSAII (Michael W. Deem and Ramdas Pophale) SiO2 
 PCOD8270992
Probable space group: C M M M
;
_chemical_formula_sum "Si O2"
_cell_formula_units_Z 88
_cell_length_a 18.418244
_cell_length_b 13.727698
_cell_length_c 18.726520
_cell_angle_alpha 90.000000
_cell_angle_beta 90.000000
_cell_angle_gamma 90.000000
_cell_volume 4734.815027
_symmetry_space_group_name_H-M "C M M M"
_symmetry_group_IT_number 65
_symmetry_cell_setting 'orthorhombic'
loop_
_space_group_symop_operation_xyz
x,y,z
-x,-y,z
x,-y,-z
-x,y,-z
-x,-y,-z
x,y,-z
-x,y,z
x,-y,z
1/2+x,1/2+y,z
1/2-x,1/2-y,z
1/2+x,1/2-y,-z
1/2-x,1/2+y,-z
1/2-x,1/2-y,-z
1/2+x,1/2+y,-z
1/2-x,1/2+y,z
1/2+x,1/2-y,z
loop_
_atom_site_type_symbol
_atom_site_label
_atom_site_fract_x
_atom_site_fract_y
_atom_site_fract_z
Si Si1 0.587333 0.712463 0.781336
Si Si2 0.779944 0.888854 0.416338
Si Si3 0.827564 0.790412 0.080283
Si Si4 0.421713 0.500000 0.775631
Si Si5 0.626654 0.500000 0.923870
Si Si6 0.640233 0.210368 0.360152
Si Si7 0.500000 0.107291 0.582895
O O1 0.500000 0.716677 0.778874
O O2 0.613186 0.743353 0.860696
O O3 0.616762 0.603225 0.758141
O O4 0.623782 0.784486 0.724395
O O5 0.762851 0.875955 0.500000
O O6 0.708050 0.860999 0.372147
O O7 0.845021 0.817377 0.393502
O O8 0.802453 0.000000 0.398490
O O9 0.750000 0.750000 0.103536
O O10 0.820712 0.906969 0.081579
O O11 0.849598 0.754010 0.000000
O O12 0.500000 0.500000 0.738168
O O13 0.433215 0.500000 0.861940
O O14 0.584768 0.500000 0.000000
O O15 0.570399 0.168022 0.397855
O O16 0.500000 0.089967 0.500000
O O17 0.500000 0.000000 0.620284
#
# Coordination Sequence:
#
# PCOD8270992 Si02
#       7
#    16  16  16   8   8  16   8
#     4  10  20  34  51  77 113 146 181 224 276 334
#     4  10  22  40  60  82 110 147 191 236 285 338
#     4   9  18  32  53  78 104 139 182 227 272 322
#     4   8  16  29  46  68 102 143 171 203 263 326
#     4   8  14  27  46  72  99 124 168 220 260 309
#     4  11  21  36  57  85 115 146 186 234 281 338
#     4  11  22  38  63  87 112 148 186 231 283 333
#
# _framework density 18.585732
#
# number of rings (size 3 to 8) (size 9 to 14) (size 15 to 20)
#    0.000    2.273    0.909    2.727    3.818    2.000 
#    0.000    4.091    2.000    1.636    0.000    0.000 
#    0.000    4.364    0.000    0.000    0.000    0.000 
#
# Total GULP energy -545162.686391 kJ/mol
# GULP energy per Si atom -12390.061054 kJ/mol
# Density = 1.854343 g / cm^3
# Si number density = 18.585732 Si / 1000 Ang^3
#
#
#
# Elastic Constant Matrix: (Units=GPa)
#
#
# Indices 1 2 3 4 5 6 
#
# 1 100.1132 51.9895 40.1277 0.0000 0.0000 0.0000
# 2 51.9895 93.7653 37.5072 0.0000 0.0000 0.0000
# 3 40.1277 37.5072 105.8635 0.0000 0.0000 0.0000
# 4 0.0000 0.0000 0.0000 22.1173 0.0000 0.0000
# 5 0.0000 0.0000 0.0000 0.0000 31.5759 0.0000
# 6 0.0000 0.0000 0.0000 0.0000 0.0000 21.1515
#
#
#
# Elastic Compliance Matrix: (Units=1/GPa)
#
#
# Indices 1 2 3 4 5 6 
#
# 1 0.014887 -0.006987 -0.003167 0.000000 0.000000 0.000000
# 2 -0.006987 0.015705 -0.002916 0.000000 0.000000 0.000000
# 3 -0.003167 -0.002916 0.011680 0.000000 0.000000 0.000000
# 4 0.000000 0.000000 0.000000 0.045213 0.000000 0.000000
# 5 0.000000 0.000000 0.000000 0.000000 0.031670 0.000000
# 6 0.000000 0.000000 0.000000 0.000000 0.000000 0.047278
#
#
# Mechanical properties :
#
#
# Convention : Reuss Voigt Hill
#
# Bulk Modulus (GPa) = 61.99166 62.11009 62.05088
# Shear Modulus (GPa) = 25.25877 26.31011 25.78444
#
# Velocity S-wave (km/s) = 3.69052 3.76654 3.72872
# Velocity P-wave (km/s) = 7.18239 7.23923 7.21087
#
# Compressibility (1/GPa) = 0.01613120
#
# Stress axis : x y z
#
# Youngs Moduli (GPa) = 67.17398 63.67212 85.61799
#
# Poissons Ratio (x) = 0.44489 0.27118
# Poissons Ratio (y) = 0.46936 0.24965
# Poissons Ratio (z) = 0.21276 0.18566
#
# Static dielectric constant tensor:
#      x y z
#    x 3.163940 0.000000 0.000000 
#    y 0.000000 3.568110 0.000000 
#    z 0.000000 0.000000 3.567540 
# 
# 
# High freq. dielectric constant tensor:
#      x y z
#    x 1.701920 0.000000 0.000000 
#    y 0.000000 1.716070 0.000000 
#    z 0.000000 0.000000 1.727870 
# 
# From -- ./inp_files/54386.got.cif
#   From: 2010.03.12/outbox.cif.g09.slc.cpg/sg65_28_cif.got.tgz:54386.got - 2010.04.10 20:52:16.
