data_PCOD8270073
_publ_section_title
;
Structure prediction by ZEFSAII (Michael W. Deem and Ramdas Pophale) SiO2 
 PCOD8270073
Probable space group: C M M M
;
_chemical_formula_sum "Si O2"
_cell_formula_units_Z 88
_cell_length_a 19.833885
_cell_length_b 8.190152
_cell_length_c 29.649273
_cell_angle_alpha 90.000000
_cell_angle_beta 90.000000
_cell_angle_gamma 90.000000
_cell_volume 4816.303005
_symmetry_space_group_name_H-M "C M M M"
_symmetry_group_IT_number 65
_symmetry_cell_setting 'orthorhombic'
loop_
_space_group_symop_operation_xyz
x,y,z
-x,-y,z
x,-y,-z
-x,y,-z
-x,-y,-z
x,y,-z
-x,y,z
x,-y,z
1/2+x,1/2+y,z
1/2-x,1/2-y,z
1/2+x,1/2-y,-z
1/2-x,1/2+y,-z
1/2-x,1/2-y,-z
1/2+x,1/2+y,-z
1/2-x,1/2+y,z
1/2+x,1/2-y,z
loop_
_atom_site_type_symbol
_atom_site_label
_atom_site_fract_x
_atom_site_fract_y
_atom_site_fract_z
Si Si1 0.079866 0.185665 0.951258
Si Si2 0.420889 0.310260 0.390558
Si Si3 0.420351 0.000000 0.550246
Si Si4 0.423336 0.187230 0.858020
Si Si5 0.821682 0.191291 0.687803
Si Si6 0.820429 0.811796 0.787276
O O1 0.107023 0.287989 0.908528
O O2 0.000000 0.198893 0.952771
O O3 0.103163 0.000000 0.944332
O O4 0.107797 0.250645 0.000000
O O5 0.500000 0.296294 0.380528
O O6 0.403773 0.500000 0.405628
O O7 0.397626 0.171697 0.426505
O O8 0.382338 0.258254 0.345066
O O9 0.500000 0.000000 0.547885
O O10 0.389033 0.000000 0.500000
O O11 0.500000 0.253421 0.856016
O O12 0.381154 0.283108 0.821271
O O13 0.419641 0.000000 0.845058
O O14 0.750000 0.250000 0.667863
O O15 0.833857 0.269389 0.737841
O O16 0.819659 0.000000 0.691650
O O17 0.750000 0.750000 0.808343
O O18 0.812567 0.000000 0.779213
#
# Coordination Sequence:
#
# PCOD8270073 Si02
#       6
#    16  16   8  16  16  16
#     4   8  14  26  45  68  93 123 161 202 245 297
#     4   9  18  33  52  78 108 136 173 217 258 303
#     4   9  18  32  52  80 108 138 175 211 258 310
#     4  10  20  32  47  72 103 132 165 205 251 298
#     4   9  19  33  52  76  98 131 170 207 253 304
#     4  10  20  35  53  72  99 132 170 209 250 306
#
# _framework density 18.271276
#
# number of rings (size 3 to 8) (size 9 to 14) (size 15 to 20)
#    0.000    2.818    0.000    1.636    1.273    3.273 
#    0.000    5.455    0.000    1.091    0.000    0.000 
#    0.000    0.000    0.000    0.000    0.000    0.000 
#
# Total GULP energy -545127.437699 kJ/mol
# GULP energy per Si atom -12389.259948 kJ/mol
# Density = 1.822969 g / cm^3
# Si number density = 18.271276 Si / 1000 Ang^3
#
#
#
# Elastic Constant Matrix: (Units=GPa)
#
#
# Indices 1 2 3 4 5 6 
#
# 1 60.4704 23.9558 54.1657 0.0000 0.0000 0.0000
# 2 23.9558 58.5953 45.6049 0.0000 0.0000 0.0000
# 3 54.1657 45.6049 130.1358 0.0000 0.0000 0.0000
# 4 0.0000 0.0000 0.0000 25.5871 0.0000 0.0000
# 5 0.0000 0.0000 0.0000 0.0000 7.3869 0.0000
# 6 0.0000 0.0000 0.0000 0.0000 0.0000 22.4344
#
#
#
# Elastic Compliance Matrix: (Units=1/GPa)
#
#
# Indices 1 2 3 4 5 6 
#
# 1 0.026777 -0.003126 -0.010050 0.000000 0.000000 0.000000
# 2 -0.003126 0.023832 -0.007051 0.000000 0.000000 0.000000
# 3 -0.010050 -0.007051 0.014338 0.000000 0.000000 0.000000
# 4 0.000000 0.000000 0.000000 0.039082 0.000000 0.000000
# 5 0.000000 0.000000 0.000000 0.000000 0.135375 0.000000
# 6 0.000000 0.000000 0.000000 0.000000 0.000000 0.044574
#
#
# Mechanical properties :
#
#
# Convention : Reuss Voigt Hill
#
# Bulk Modulus (GPa) = 40.82518 55.18382 48.00450
# Shear Modulus (GPa) = 15.03326 19.44670 17.23998
#
# Velocity S-wave (km/s) = 2.87153 3.26595 3.07507
# Velocity P-wave (km/s) = 5.77812 6.67008 6.24006
#
# Compressibility (1/GPa) = 0.02449469
#
# Stress axis : x y z
#
# Youngs Moduli (GPa) = 37.34479 41.96115 69.74369
#
# Poissons Ratio (x) = 0.13115 0.70093
# Poissons Ratio (y) = 0.11672 0.49174
# Poissons Ratio (z) = 0.37532 0.29585
#
# Static dielectric constant tensor:
#      x y z
#    x 3.034030 0.000000 0.000000 
#    y 0.000000 3.434070 0.000000 
#    z 0.000000 0.000000 4.077480 
# 
# 
# High freq. dielectric constant tensor:
#      x y z
#    x 1.668840 0.000000 0.000000 
#    y 0.000000 1.711340 0.000000 
#    z 0.000000 0.000000 1.711440 
# 
# From -- ./inp_files/77849.got.cif
#   From: 2010.03.12/outbox.cif.g09.slc.cpg/sg65_39_cif.got.tgz:77849.got - 2010.04.10 20:52:16.
