data_PCOD8270039
_publ_section_title
;
Structure prediction by ZEFSAII (Michael W. Deem and Ramdas Pophale) SiO2 
 PCOD8270039
Probable space group: C M M M
;
_chemical_formula_sum "Si O2"
_cell_formula_units_Z 96
_cell_length_a 25.084338
_cell_length_b 24.962460
_cell_length_c 8.974564
_cell_angle_alpha 90.000000
_cell_angle_beta 90.000000
_cell_angle_gamma 90.000000
_cell_volume 5619.573877
_symmetry_space_group_name_H-M "C M M M"
_symmetry_group_IT_number 65
_symmetry_cell_setting 'orthorhombic'
loop_
_space_group_symop_operation_xyz
x,y,z
-x,-y,z
x,-y,-z
-x,y,-z
-x,-y,-z
x,y,-z
-x,y,z
x,-y,z
1/2+x,1/2+y,z
1/2-x,1/2-y,z
1/2+x,1/2-y,-z
1/2-x,1/2+y,-z
1/2-x,1/2-y,-z
1/2+x,1/2+y,-z
1/2-x,1/2+y,z
1/2+x,1/2-y,z
loop_
_atom_site_type_symbol
_atom_site_label
_atom_site_fract_x
_atom_site_fract_y
_atom_site_fract_z
Si Si1 0.749103 0.313693 0.831653
Si Si2 0.142533 0.814652 0.326297
Si Si3 0.062315 0.107729 0.825471
Si Si4 0.936699 0.000000 0.331719
Si Si5 0.355043 0.810763 0.672989
Si Si6 0.561684 0.115596 0.176064
Si Si7 0.563087 0.000000 0.836843
O O1 0.750000 0.250000 0.827304
O O2 0.698031 0.335916 0.742655
O O3 0.802896 0.334565 0.754130
O O4 0.746677 0.335522 0.000000
O O5 0.141940 0.828611 0.500000
O O6 0.093004 0.842634 0.246385
O O7 0.136777 0.751797 0.295810
O O8 0.083981 0.052715 0.753265
O O9 0.000000 0.116161 0.791735
O O10 0.073936 0.105313 0.000000
O O11 0.914255 0.000000 0.500000
O O12 0.000000 0.000000 0.331044
O O13 0.348165 0.822730 0.500000
O O14 0.406749 0.839548 0.736044
O O15 0.500000 0.126477 0.209354
O O16 0.579212 0.056446 0.240605
O O17 0.573227 0.119047 0.000000
O O18 0.500000 0.000000 0.856588
O O19 0.589516 0.000000 0.000000
#
# Coordination Sequence:
#
# PCOD8270039 Si02
#       7
#    16  16  16   8  16  16   8
#     4   9  17  31  51  71  91 120 161 202 237 280
#     4  10  20  33  49  70  98 130 161 195 239 289
#     4  10  20  33  50  73 100 129 163 202 240 281
#     4   9  17  31  51  72  95 126 163 199 238 286
#     4  10  20  32  47  70 100 130 159 194 239 290
#     4   9  17  30  49  71  95 125 161 199 239 284
#     4   7  12  26  47  68  89 118 159 201 236 274
#
# _framework density 17.083145999999999
#
# number of rings (size 3 to 8) (size 9 to 14) (size 15 to 20)
#    0.000    2.667    0.000    3.250    0.000    7.000 
#    0.000    3.750    0.000    2.500    0.000    5.833 
#    0.000    0.000    0.000    0.000    0.000    0.000 
#
# Total GULP energy -595028.372690 kJ/mol
# GULP energy per Si atom -12396.424431 kJ/mol
# Density = 1.704426 g / cm^3
# Si number density = 17.083146 Si / 1000 Ang^3
#
#
#
# Elastic Constant Matrix: (Units=GPa)
#
#
# Indices 1 2 3 4 5 6 
#
# 1 85.3751 52.7116 58.6482 0.0000 0.0000 0.0000
# 2 52.7116 68.5591 55.8204 0.0000 0.0000 0.0000
# 3 58.6482 55.8204 117.6920 0.0000 0.0000 0.0000
# 4 0.0000 0.0000 0.0000 24.5577 0.0000 0.0000
# 5 0.0000 0.0000 0.0000 0.0000 29.7948 0.0000
# 6 0.0000 0.0000 0.0000 0.0000 0.0000 3.0597
#
#
#
# Elastic Compliance Matrix: (Units=1/GPa)
#
#
# Indices 1 2 3 4 5 6 
#
# 1 0.024141 -0.014281 -0.005257 0.000000 0.000000 0.000000
# 2 -0.014281 0.032210 -0.008160 0.000000 0.000000 0.000000
# 3 -0.005257 -0.008160 0.014987 0.000000 0.000000 0.000000
# 4 0.000000 0.000000 0.000000 0.040721 0.000000 0.000000
# 5 0.000000 0.000000 0.000000 0.000000 0.033563 0.000000
# 6 0.000000 0.000000 0.000000 0.000000 0.000000 0.326833
#
#
# Mechanical properties :
#
#
# Convention : Reuss Voigt Hill
#
# Bulk Modulus (GPa) = 62.72853 67.33185 65.03019
# Shear Modulus (GPa) = 9.37796 18.44549 13.91172
#
# Velocity S-wave (km/s) = 2.34553 3.28952 2.85678
# Velocity P-wave (km/s) = 6.64339 7.34355 7.00222
#
# Compressibility (1/GPa) = 0.01594171
#
# Stress axis : x y z
#
# Youngs Moduli (GPa) = 41.42253 31.04606 66.72563
#
# Poissons Ratio (x) = 0.44337 0.35076
# Poissons Ratio (y) = 0.59156 0.54451
# Poissons Ratio (z) = 0.21775 0.25335
#
# Static dielectric constant tensor:
#      x y z
#    x 3.090750 0.000000 0.000000 
#    y 0.000000 3.176530 0.000000 
#    z 0.000000 0.000000 3.242560 
# 
# 
# High freq. dielectric constant tensor:
#      x y z
#    x 1.644040 0.000000 0.000000 
#    y 0.000000 1.643660 0.000000 
#    z 0.000000 0.000000 1.664250 
# 
# From -- ./inp_files/14357.got.cif
#   From: 2010.03.12/outbox.cif.g09.slc.cpg/sg65_8_cif.got.tgz:14357.got - 2010.04.10 20:52:16.
