data_PCOD8270484
_publ_section_title
;
Structure prediction by ZEFSAII (Michael W. Deem and Ramdas Pophale) SiO2 
 PCOD8270484
Probable space group: C M M M
;
_chemical_formula_sum "Si O2"
_cell_formula_units_Z 80
_cell_length_a 18.068674
_cell_length_b 27.293057
_cell_length_c 9.311821
_cell_angle_alpha 90.000000
_cell_angle_beta 90.000000
_cell_angle_gamma 90.000000
_cell_volume 4592.118468
_symmetry_space_group_name_H-M "C M M M"
_symmetry_group_IT_number 65
_symmetry_cell_setting 'orthorhombic'
loop_
_space_group_symop_operation_xyz
x,y,z
-x,-y,z
x,-y,-z
-x,y,-z
-x,-y,-z
x,y,-z
-x,y,z
x,-y,z
1/2+x,1/2+y,z
1/2-x,1/2-y,z
1/2+x,1/2-y,-z
1/2-x,1/2+y,-z
1/2-x,1/2-y,-z
1/2+x,1/2+y,-z
1/2-x,1/2+y,z
1/2+x,1/2-y,z
loop_
_atom_site_type_symbol
_atom_site_label
_atom_site_fract_x
_atom_site_fract_y
_atom_site_fract_z
Si Si1 0.085472 0.703566 0.832293
Si Si2 0.583054 0.594864 0.166248
Si Si3 0.838272 0.194952 0.834617
Si Si4 0.293798 0.151490 0.669742
Si Si5 0.786369 0.054252 0.334944
O O1 0.119324 0.756002 0.790792
O O2 0.126725 0.661822 0.740465
O O3 0.000000 0.702959 0.787603
O O4 0.095584 0.692314 0.000000
O O5 0.500000 0.586988 0.223814
O O6 0.604712 0.651126 0.193544
O O7 0.637396 0.558582 0.248885
O O8 0.588551 0.581395 0.000000
O O9 0.765948 0.189038 0.736131
O O10 0.811753 0.196259 0.000000
O O11 0.297694 0.159501 0.500000
O O12 0.272635 0.095561 0.712108
O O13 0.807143 0.062133 0.500000
O O14 0.752575 0.000000 0.307336
#
# Coordination Sequence:
#
# PCOD8270484 Si02
#       5
#    16  16  16  16  16
#     4  10  20  33  50  72  98 128 159 189 226 277
#     4   9  17  29  46  70  99 127 157 194 230 266
#     4   9  17  31  50  70  96 132 165 187 217 269
#     4  10  20  33  50  72  96 122 156 198 238 275
#     4   9  19  35  51  66  88 122 161 197 236 284
#
# _framework density 17.421153
#
# number of rings (size 3 to 8) (size 9 to 14) (size 15 to 20)
#    0.000    2.600    0.000    1.800    0.000    8.000 
#    0.000    2.000    0.000    4.200    0.000    4.200 
#    0.000    0.000    0.000    0.000    0.000    0.000 
#
# Total GULP energy -496038.440363 kJ/mol
# GULP energy per Si atom -12400.961009 kJ/mol
# Density = 1.738150 g / cm^3
# Si number density = 17.421153 Si / 1000 Ang^3
#
#
#
# Elastic Constant Matrix: (Units=GPa)
#
#
# Indices 1 2 3 4 5 6 
#
# 1 124.9269 65.1623 54.4057 0.0000 0.0000 0.0000
# 2 65.1623 102.2133 43.4130 0.0000 0.0000 0.0000
# 3 54.4057 43.4130 60.4139 0.0000 0.0000 0.0000
# 4 0.0000 0.0000 0.0000 24.6072 0.0000 0.0000
# 5 0.0000 0.0000 0.0000 0.0000 18.7416 0.0000
# 6 0.0000 0.0000 0.0000 0.0000 0.0000 13.7339
#
#
#
# Elastic Compliance Matrix: (Units=1/GPa)
#
#
# Indices 1 2 3 4 5 6 
#
# 1 0.015068 -0.005531 -0.009595 0.000000 0.000000 0.000000
# 2 -0.005531 0.016111 -0.006597 0.000000 0.000000 0.000000
# 3 -0.009595 -0.006597 0.029934 0.000000 0.000000 0.000000
# 4 0.000000 0.000000 0.000000 0.040638 0.000000 0.000000
# 5 0.000000 0.000000 0.000000 0.000000 0.053357 0.000000
# 6 0.000000 0.000000 0.000000 0.000000 0.000000 0.072812
#
#
# Mechanical properties :
#
#
# Convention : Reuss Voigt Hill
#
# Bulk Modulus (GPa) = 56.60016 68.16845 62.38430
# Shear Modulus (GPa) = 18.03384 19.72143 18.87763
#
# Velocity S-wave (km/s) = 3.22089 3.36823 3.29539
# Velocity P-wave (km/s) = 6.81117 7.37165 7.09695
#
# Compressibility (1/GPa) = 0.01766779
#
# Stress axis : x y z
#
# Youngs Moduli (GPa) = 66.36416 62.06856 33.40692
#
# Poissons Ratio (x) = 0.34329 0.32055
# Poissons Ratio (y) = 0.36705 0.22037
# Poissons Ratio (z) = 0.63679 0.40944
#
# Static dielectric constant tensor:
#      x y z
#    x 3.237880 0.000000 0.000000 
#    y 0.000000 3.299980 0.000000 
#    z 0.000000 0.000000 3.197610 
# 
# 
# High freq. dielectric constant tensor:
#      x y z
#    x 1.660600 0.000000 0.000000 
#    y 0.000000 1.669040 0.000000 
#    z 0.000000 0.000000 1.669640 
# 
# From -- ./inp_files/9569.got.cif
#   From: 2010.03.12/outbox.cif.g09.slc.cpg/sg65_5_cif.got.tgz:9569.got - 2010.04.10 20:52:16.
