data_PCOD8270405
_publ_section_title
;
Structure prediction by ZEFSAII (Michael W. Deem and Ramdas Pophale) SiO2 
 PCOD8270405
Probable space group: C M M M
;
_chemical_formula_sum "Si O2"
_cell_formula_units_Z 88
_cell_length_a 9.157993
_cell_length_b 18.575553
_cell_length_c 28.434792
_cell_angle_alpha 90.000000
_cell_angle_beta 90.000000
_cell_angle_gamma 90.000000
_cell_volume 4837.178509
_symmetry_space_group_name_H-M "C M M M"
_symmetry_group_IT_number 65
_symmetry_cell_setting 'orthorhombic'
loop_
_space_group_symop_operation_xyz
x,y,z
-x,-y,z
x,-y,-z
-x,y,-z
-x,-y,-z
x,y,-z
-x,y,z
x,-y,z
1/2+x,1/2+y,z
1/2-x,1/2-y,z
1/2+x,1/2-y,-z
1/2-x,1/2+y,-z
1/2-x,1/2-y,-z
1/2+x,1/2+y,-z
1/2-x,1/2+y,z
1/2+x,1/2-y,z
loop_
_atom_site_type_symbol
_atom_site_label
_atom_site_fract_x
_atom_site_fract_y
_atom_site_fract_z
Si Si1 0.331699 0.915420 0.578178
Si Si2 0.328636 0.918047 0.141498
Si Si3 0.672273 0.079382 0.315759
Si Si4 0.326700 0.825634 0.230579
Si Si5 0.334992 0.585547 0.051337
Si Si6 0.174027 0.172972 0.500000
O O1 0.500000 0.895155 0.567079
O O2 0.290092 0.894509 0.631622
O O3 0.223113 0.870589 0.545889
O O4 0.307898 0.000000 0.569371
O O5 0.500000 0.914718 0.135274
O O6 0.276538 0.872857 0.186236
O O7 0.261005 0.883376 0.094078
O O8 0.275430 0.000000 0.149252
O O9 0.500000 0.072907 0.309840
O O10 0.733491 0.135553 0.277699
O O11 0.740245 0.000000 0.306671
O O12 0.500000 0.815308 0.232086
O O13 0.250000 0.750000 0.226338
O O14 0.500000 0.611864 0.059051
O O15 0.326143 0.500000 0.051884
O O16 0.278466 0.613032 0.000000
O O17 0.250000 0.250000 0.500000
O O18 0.000000 0.181876 0.500000
#
# Coordination Sequence:
#
# PCOD8270405 Si02
#       6
#    16  16  16  16  16   8
#     4   9  18  35  59  83 106 134 169 208 252 304
#     4   9  17  29  47  70  94 123 160 200 238 280
#     4   8  15  31  56  80 100 128 166 204 242 289
#     4  10  20  33  49  71 100 131 163 199 241 289
#     4   8  14  25  42  66  95 123 151 189 240 292
#     4  12  25  38  53  75 107 143 177 214 255 298
#
# _framework density 18.192423999999999
#
# number of rings (size 3 to 8) (size 9 to 14) (size 15 to 20)
#    0.000    2.909    0.000    3.273    0.000    5.455 
#    0.000    4.545    0.000    3.273    0.000    0.000 
#    0.000    0.000    0.000    0.000    0.000    0.000 
#
# Total GULP energy -545404.095601 kJ/mol
# GULP energy per Si atom -12395.547627 kJ/mol
# Density = 1.815102 g / cm^3
# Si number density = 18.192424 Si / 1000 Ang^3
#
#
#
# Elastic Constant Matrix: (Units=GPa)
#
#
# Indices 1 2 3 4 5 6 
#
# 1 55.7168 42.6613 57.8202 0.0000 0.0000 0.0000
# 2 42.6613 90.2612 78.2317 0.0000 0.0000 0.0000
# 3 57.8202 78.2317 180.0701 0.0000 0.0000 0.0000
# 4 0.0000 0.0000 0.0000 3.2067 0.0000 0.0000
# 5 0.0000 0.0000 0.0000 0.0000 22.4114 0.0000
# 6 0.0000 0.0000 0.0000 0.0000 0.0000 25.4296
#
#
#
# Elastic Compliance Matrix: (Units=1/GPa)
#
#
# Indices 1 2 3 4 5 6 
#
# 1 0.031563 -0.009839 -0.005860 0.000000 0.000000 0.000000
# 2 -0.009839 0.020837 -0.005894 0.000000 0.000000 0.000000
# 3 -0.005860 -0.005894 0.009996 0.000000 0.000000 0.000000
# 4 0.000000 0.000000 0.000000 0.311848 0.000000 0.000000
# 5 0.000000 0.000000 0.000000 0.000000 0.044620 0.000000
# 6 0.000000 0.000000 0.000000 0.000000 0.000000 0.039324
#
#
# Mechanical properties :
#
#
# Convention : Reuss Voigt Hill
#
# Bulk Modulus (GPa) = 52.05485 75.94162 63.99823
# Shear Modulus (GPa) = 9.84686 20.03186 14.93936
#
# Velocity S-wave (km/s) = 2.32903 3.32190 2.86874
# Velocity P-wave (km/s) = 5.99233 7.51981 6.79910
#
# Compressibility (1/GPa) = 0.01921051
#
# Stress axis : x y z
#
# Youngs Moduli (GPa) = 31.68296 47.99102 100.04365
#
# Poissons Ratio (x) = 0.47216 0.58629
# Poissons Ratio (y) = 0.31171 0.58962
# Poissons Ratio (z) = 0.18567 0.28284
#
# Static dielectric constant tensor:
#      x y z
#    x 3.100010 0.000000 0.000000 
#    y 0.000000 3.208700 0.000000 
#    z 0.000000 0.000000 3.842160 
# 
# 
# High freq. dielectric constant tensor:
#      x y z
#    x 1.674880 0.000000 0.000000 
#    y 0.000000 1.680080 0.000000 
#    z 0.000000 0.000000 1.726830 
# 
# From -- ./inp_files/75346.got.cif
#   From: 2010.03.12/outbox.cif.g09.slc.cpg/sg65_38_cif.got.tgz:75346.got - 2010.04.10 20:52:16.
