data_PCOD8270622
_publ_section_title
;
Structure prediction by ZEFSAII (Michael W. Deem and Ramdas Pophale) SiO2 
 PCOD8270622
Probable space group: C M M M
;
_chemical_formula_sum "Si O2"
_cell_formula_units_Z 80
_cell_length_a 31.501690
_cell_length_b 18.427928
_cell_length_c 7.458253
_cell_angle_alpha 90.000000
_cell_angle_beta 90.000000
_cell_angle_gamma 90.000000
_cell_volume 4329.596976
_symmetry_space_group_name_H-M "C M M M"
_symmetry_group_IT_number 65
_symmetry_cell_setting 'orthorhombic'
loop_
_space_group_symop_operation_xyz
x,y,z
-x,-y,z
x,-y,-z
-x,y,-z
-x,-y,-z
x,y,-z
-x,y,z
x,-y,z
1/2+x,1/2+y,z
1/2-x,1/2-y,z
1/2+x,1/2-y,-z
1/2-x,1/2+y,-z
1/2-x,1/2-y,-z
1/2+x,1/2+y,-z
1/2-x,1/2+y,z
1/2+x,1/2-y,z
loop_
_atom_site_type_symbol
_atom_site_label
_atom_site_fract_x
_atom_site_fract_y
_atom_site_fract_z
Si Si1 0.599951 0.418233 0.500000
Si Si2 0.838014 0.581364 0.212970
Si Si3 0.450168 0.276005 0.500000
Si Si4 0.891635 0.285725 0.793261
Si Si5 0.341578 0.356436 0.793886
Si Si6 0.244707 0.919220 0.788337
O O1 0.581616 0.500000 0.500000
O O2 0.561082 0.361416 0.500000
O O3 0.628031 0.407272 0.322643
O O4 0.850280 0.500000 0.277223
O O5 0.873005 0.638415 0.282466
O O6 0.791130 0.602628 0.288857
O O7 0.837167 0.585195 0.000000
O O8 0.500000 0.266112 0.500000
O O9 0.432109 0.236918 0.323000
O O10 0.853962 0.227343 0.769532
O O11 0.906332 0.291020 0.000000
O O12 0.292825 0.365121 0.726295
O O13 0.346378 0.381806 0.000000
O O14 0.232858 0.000000 0.721219
O O15 0.248541 0.918498 0.000000
#
# Coordination Sequence:
#
# PCOD8270622 Si02
#       6
#     8  16   8  16  16  16
#     4  10  20  33  51  74  98 127 161 194 234 283
#     4   8  14  26  46  72 100 131 167 201 234 278
#     4  10  22  39  56  75  97 118 150 198 246 299
#     4   9  18  33  53  74  96 127 162 196 242 291
#     4   9  17  29  46  70 101 135 169 201 230 267
#     4   8  13  22  39  65  98 135 169 199 231 265
#
# _framework density 18.47747
#
# number of rings (size 3 to 8) (size 9 to 14) (size 15 to 20)
#    0.000    3.200    0.000    1.800    0.000    2.600 
#    0.000    5.500    0.000    7.200    0.000    8.400 
#    0.000    0.000    0.000    0.000    0.000    0.000 
#
# Total GULP energy -495694.969347 kJ/mol
# GULP energy per Si atom -12392.374234 kJ/mol
# Density = 1.843541 g / cm^3
# Si number density = 18.477470 Si / 1000 Ang^3
#
#
#
# Elastic Constant Matrix: (Units=GPa)
#
#
# Indices 1 2 3 4 5 6 
#
# 1 139.1866 81.0407 39.9393 0.0000 0.0000 0.0000
# 2 81.0407 120.0355 34.5681 0.0000 0.0000 0.0000
# 3 39.9393 34.5681 68.1536 0.0000 0.0000 0.0000
# 4 0.0000 0.0000 0.0000 9.3830 0.0000 0.0000
# 5 0.0000 0.0000 0.0000 0.0000 -31.3263 0.0000
# 6 0.0000 0.0000 0.0000 0.0000 0.0000 16.1811
#
#
#
# Elastic Compliance Matrix: (Units=1/GPa)
#
#
# Indices 1 2 3 4 5 6 
#
# 1 0.012541 -0.007437 -0.003577 0.000000 0.000000 0.000000
# 2 -0.007437 0.014166 -0.002827 0.000000 0.000000 0.000000
# 3 -0.003577 -0.002827 0.018203 0.000000 0.000000 0.000000
# 4 0.000000 0.000000 0.000000 0.106576 0.000000 0.000000
# 5 0.000000 0.000000 0.000000 0.000000 -0.031922 0.000000
# 6 0.000000 0.000000 0.000000 0.000000 0.000000 0.061801
#
#
# Mechanical properties :
#
#
# Convention : Reuss Voigt Hill
#
# Bulk Modulus (GPa) = 58.04566 70.94132 64.49349
# Shear Modulus (GPa) = 23.27864 10.30273 16.79069
#
# Velocity S-wave (km/s) = 3.55327 2.36388 3.01775
# Velocity P-wave (km/s) = 6.95103 6.77697 6.86455
#
# Compressibility (1/GPa) = 0.01722782
#
# Stress axis : x y z
#
# Youngs Moduli (GPa) = 79.73734 70.59218 54.93610
#
# Poissons Ratio (x) = 0.52498 0.19653
# Poissons Ratio (y) = 0.59299 0.15530
# Poissons Ratio (z) = 0.28525 0.19956
#
# Static dielectric constant tensor:
#      x y z
#    x 3.165020 0.000000 0.000000 
#    y 0.000000 3.539740 0.000000 
#    z 0.000000 0.000000 3.341010 
# 
# 
# High freq. dielectric constant tensor:
#      x y z
#    x 1.680820 0.000000 0.000000 
#    y 0.000000 1.711190 0.000000 
#    z 0.000000 0.000000 1.711280 
# 
# From -- ./inp_files/18213.got.cif
#   From: 2010.03.12/outbox.cif.g09.slc.cpg/sg65_10_cif.got.tgz:18213.got - 2010.04.10 20:52:16.
