data_PCOD8270702
_publ_section_title
;
Structure prediction by ZEFSAII (Michael W. Deem and Ramdas Pophale) SiO2 
 PCOD8270702
Probable space group: C M M M
;
_chemical_formula_sum "Si O2"
_cell_formula_units_Z 104
_cell_length_a 29.312286
_cell_length_b 8.812848
_cell_length_c 20.611011
_cell_angle_alpha 90.000000
_cell_angle_beta 90.000000
_cell_angle_gamma 90.000000
_cell_volume 5324.333667
_symmetry_space_group_name_H-M "C M M M"
_symmetry_group_IT_number 65
_symmetry_cell_setting 'orthorhombic'
loop_
_space_group_symop_operation_xyz
x,y,z
-x,-y,z
x,-y,-z
-x,y,-z
-x,-y,-z
x,y,-z
-x,y,z
x,-y,z
1/2+x,1/2+y,z
1/2-x,1/2-y,z
1/2+x,1/2-y,-z
1/2-x,1/2+y,-z
1/2-x,1/2-y,-z
1/2+x,1/2+y,-z
1/2-x,1/2+y,z
1/2+x,1/2-y,z
loop_
_atom_site_type_symbol
_atom_site_label
_atom_site_fract_x
_atom_site_fract_y
_atom_site_fract_z
Si Si1 0.893217 0.677005 0.117071
Si Si2 0.861250 0.322185 0.570574
Si Si3 0.702797 0.180126 0.683228
Si Si4 0.202501 0.321296 0.829901
Si Si5 0.947663 0.179174 0.000000
Si Si6 0.949321 0.672795 0.640209
Si Si7 0.447563 0.673301 0.773913
O O1 0.897312 0.500000 0.101069
O O2 0.839692 0.724899 0.123150
O O3 0.919351 0.769493 0.062261
O O4 0.916951 0.712061 0.185110
O O5 0.848091 0.251019 0.500000
O O6 0.851625 0.500000 0.567735
O O7 0.833320 0.253412 0.631249
O O8 0.914566 0.288177 0.582634
O O9 0.750000 0.250000 0.660163
O O10 0.691159 0.235194 0.756497
O O11 0.705028 0.000000 0.681070
O O12 0.209184 0.500000 0.830167
O O13 0.250000 0.250000 0.855480
O O14 0.000000 0.243737 0.000000
O O15 0.950189 0.000000 0.000000
O O16 0.941981 0.500000 0.665190
O O17 0.940370 0.786193 0.699219
O O18 0.000000 0.694992 0.611932
O O19 0.500000 0.695995 0.794787
O O20 0.432291 0.500000 0.785833
#
# Coordination Sequence:
#
# PCOD8270702 Si02
#       7
#    16  16  16  16   8  16  16
#     4  11  22  37  59  85 112 144 183 223 263 309
#     4   9  17  29  46  69  98 132 169 212 264 318
#     4   9  17  31  50  72 100 132 166 209 261 312
#     4   9  19  35  56  82 109 137 174 221 269 318
#     4  11  25  43  60  83 118 155 188 219 256 307
#     4   9  17  30  49  72  97 127 168 218 267 317
#     4  10  20  33  51  77 107 138 174 218 270 325
#
# _framework density 19.532959999999999
#
# number of rings (size 3 to 8) (size 9 to 14) (size 15 to 20)
#    0.000    2.385    0.000    2.538    0.000    7.692 
#    0.000    5.769    0.000    1.385    0.000    2.154 
#    0.000    0.000    0.000    0.000    0.000    0.000 
#
# Total GULP energy -644585.462717 kJ/mol
# GULP energy per Si atom -12395.874283 kJ/mol
# Density = 1.948850 g / cm^3
# Si number density = 19.532960 Si / 1000 Ang^3
#
#
#
# Elastic Constant Matrix: (Units=GPa)
#
#
# Indices 1 2 3 4 5 6 
#
# 1 139.3443 31.6804 64.0598 0.0000 0.0000 0.0000
# 2 31.6804 34.0262 19.2414 0.0000 0.0000 0.0000
# 3 64.0598 19.2414 76.5705 0.0000 0.0000 0.0000
# 4 0.0000 0.0000 0.0000 17.1084 0.0000 0.0000
# 5 0.0000 0.0000 0.0000 0.0000 19.2918 0.0000
# 6 0.0000 0.0000 0.0000 0.0000 0.0000 28.7585
#
#
#
# Elastic Compliance Matrix: (Units=1/GPa)
#
#
# Indices 1 2 3 4 5 6 
#
# 1 0.012914 -0.006894 -0.009072 0.000000 0.000000 0.000000
# 2 -0.006894 0.037937 -0.003766 0.000000 0.000000 0.000000
# 3 -0.009072 -0.003766 0.021596 0.000000 0.000000 0.000000
# 4 0.000000 0.000000 0.000000 0.058451 0.000000 0.000000
# 5 0.000000 0.000000 0.000000 0.000000 0.051836 0.000000
# 6 0.000000 0.000000 0.000000 0.000000 0.000000 0.034772
#
#
# Mechanical properties :
#
#
# Convention : Reuss Voigt Hill
#
# Bulk Modulus (GPa) = 30.31745 53.32269 41.82007
# Shear Modulus (GPa) = 18.65918 22.02901 20.34410
#
# Velocity S-wave (km/s) = 3.09409 3.36190 3.23077
# Velocity P-wave (km/s) = 5.32160 6.51367 5.94758
#
# Compressibility (1/GPa) = 0.03298431
#
# Stress axis : x y z
#
# Youngs Moduli (GPa) = 77.43258 26.35927 46.30509
#
# Poissons Ratio (x) = 0.18172 0.42008
# Poissons Ratio (y) = 0.53382 0.17437
# Poissons Ratio (z) = 0.70247 0.09926
#
# Static dielectric constant tensor:
#      x y z
#    x 3.788990 0.000000 0.000000 
#    y 0.000000 3.338750 0.000000 
#    z 0.000000 0.000000 3.609900 
# 
# 
# High freq. dielectric constant tensor:
#      x y z
#    x 1.771140 0.000000 0.000000 
#    y 0.000000 1.736830 0.000000 
#    z 0.000000 0.000000 1.748210 
# 
# From -- ./inp_files/60436.got.cif
#   From: 2010.03.12/outbox.cif.g09.slc.cpg/sg65_31_cif.got.tgz:60436.got - 2010.04.10 20:52:16.
