data_PCOD8270264
_publ_section_title
;
Structure prediction by ZEFSAII (Michael W. Deem and Ramdas Pophale) SiO2 
 PCOD8270264
Probable space group: C M M M
;
_chemical_formula_sum "Si O2"
_cell_formula_units_Z 104
_cell_length_a 17.832013
_cell_length_b 14.030771
_cell_length_c 22.463011
_cell_angle_alpha 90.000000
_cell_angle_beta 90.000000
_cell_angle_gamma 90.000000
_cell_volume 5620.175512
_symmetry_space_group_name_H-M "C M M M"
_symmetry_group_IT_number 65
_symmetry_cell_setting 'orthorhombic'
loop_
_space_group_symop_operation_xyz
x,y,z
-x,-y,z
x,-y,-z
-x,y,-z
-x,-y,-z
x,y,-z
-x,y,z
x,-y,z
1/2+x,1/2+y,z
1/2-x,1/2-y,z
1/2+x,1/2-y,-z
1/2-x,1/2+y,-z
1/2-x,1/2-y,-z
1/2+x,1/2+y,-z
1/2-x,1/2+y,z
1/2+x,1/2-y,z
loop_
_atom_site_type_symbol
_atom_site_label
_atom_site_fract_x
_atom_site_fract_y
_atom_site_fract_z
Si Si1 0.318397 0.896368 0.337256
Si Si2 0.500000 0.106431 0.070594
Si Si3 0.088834 0.785866 0.346963
Si Si4 0.290168 0.350099 0.565721
Si Si5 0.705738 0.610778 0.881497
Si Si6 0.184868 0.889577 0.743192
Si Si7 0.850538 0.703932 0.930464
O O1 0.387412 0.825190 0.347326
O O2 0.266688 0.913238 0.395636
O O3 0.263932 0.854997 0.285362
O O4 0.351872 0.000000 0.320002
O O5 0.571012 0.165090 0.093398
O O6 0.500000 0.000000 0.097863
O O7 0.500000 0.100338 0.000000
O O8 0.129305 0.840385 0.401588
O O9 0.114969 0.832262 0.284611
O O10 0.000000 0.794588 0.354532
O O11 0.303165 0.394712 0.500000
O O12 0.250000 0.250000 0.560016
O O13 0.693327 0.500000 0.900038
O O14 0.686806 0.628252 0.813061
O O15 0.790446 0.643022 0.893690
O O16 0.652673 0.682059 0.919168
O O17 0.173193 0.000000 0.727793
O O18 0.837603 0.683949 0.000000
#
# Coordination Sequence:
#
# PCOD8270264 Si02
#       7
#    16   8  16  16  16  16  16
#     4   9  18  32  52  75 102 137 177 214 255 311
#     4   9  18  36  57  77 109 145 172 204 258 325
#     4  10  20  32  51  77 107 141 170 214 270 316
#     4   8  15  30  51  73  99 135 179 218 253 301
#     4  10  20  34  55  80 105 137 180 227 265 308
#     4   9  19  36  55  73  95 133 179 219 259 304
#     4  10  21  34  55  84 110 140 175 215 266 322
#
# _framework density 18.504760000000001
#
# number of rings (size 3 to 8) (size 9 to 14) (size 15 to 20)
#    0.000    2.692    0.000    2.769    4.308    3.077 
#    1.385    0.385    0.000    1.385    0.000    8.615 
#    0.000    0.000    0.000    0.000    0.000    0.000 
#
# Total GULP energy -644513.467068 kJ/mol
# GULP energy per Si atom -12394.489751 kJ/mol
# Density = 1.846264 g / cm^3
# Si number density = 18.504760 Si / 1000 Ang^3
#
#
#
# Elastic Constant Matrix: (Units=GPa)
#
#
# Indices 1 2 3 4 5 6 
#
# 1 131.0523 48.9237 34.5907 0.0000 0.0000 0.0000
# 2 48.9237 101.2531 23.5122 0.0000 0.0000 0.0000
# 3 34.5907 23.5122 74.2147 0.0000 0.0000 0.0000
# 4 0.0000 0.0000 0.0000 17.2456 0.0000 0.0000
# 5 0.0000 0.0000 0.0000 0.0000 -83.4726 0.0000
# 6 0.0000 0.0000 0.0000 0.0000 0.0000 19.8590
#
#
#
# Elastic Compliance Matrix: (Units=1/GPa)
#
#
# Indices 1 2 3 4 5 6 
#
# 1 0.010044 -0.004065 -0.003393 0.000000 0.000000 0.000000
# 2 -0.004065 0.012306 -0.002004 0.000000 0.000000 0.000000
# 3 -0.003393 -0.002004 0.015691 0.000000 0.000000 0.000000
# 4 0.000000 0.000000 0.000000 0.057986 0.000000 0.000000
# 5 0.000000 0.000000 0.000000 0.000000 -0.011980 0.000000
# 6 0.000000 0.000000 0.000000 0.000000 0.000000 0.050355
#
#
# Mechanical properties :
#
#
# Convention : Reuss Voigt Hill
#
# Bulk Modulus (GPa) = 52.31320 57.84148 55.07734
# Shear Modulus (GPa) = 31.30909 4.02596 17.66753
#
# Velocity S-wave (km/s) = 4.11779 1.47660 3.09326
# Velocity P-wave (km/s) = 7.13721 5.85086 6.52581
#
# Compressibility (1/GPa) = 0.01911563
#
# Stress axis : x y z
#
# Youngs Moduli (GPa) = 99.56458 81.26319 63.73096
#
# Poissons Ratio (x) = 0.33033 0.21627
# Poissons Ratio (y) = 0.40472 0.12772
# Poissons Ratio (z) = 0.33787 0.16285
#
# Static dielectric constant tensor:
#      x y z
#    x 3.158270 0.000000 0.000000 
#    y 0.000000 3.530010 0.000000 
#    z 0.000000 0.000000 3.572870 
# 
# 
# High freq. dielectric constant tensor:
#      x y z
#    x 1.688340 0.000000 0.000000 
#    y 0.000000 1.729840 0.000000 
#    z 0.000000 0.000000 1.713030 
# 
# From -- ./inp_files/63813.got.cif
#   From: 2010.03.12/outbox.cif.g09.slc.cpg/sg65_32_cif.got.tgz:63813.got - 2010.04.10 20:52:16.
