data_PCOD8270579
_publ_section_title
;
Structure prediction by ZEFSAII (Michael W. Deem and Ramdas Pophale) SiO2 
 PCOD8270579
Probable space group: C M M M
;
_chemical_formula_sum "Si O2"
_cell_formula_units_Z 104
_cell_length_a 26.922807
_cell_length_b 8.764496
_cell_length_c 24.063382
_cell_angle_alpha 90.000000
_cell_angle_beta 90.000000
_cell_angle_gamma 90.000000
_cell_volume 5678.111945
_symmetry_space_group_name_H-M "C M M M"
_symmetry_group_IT_number 65
_symmetry_cell_setting 'orthorhombic'
loop_
_space_group_symop_operation_xyz
x,y,z
-x,-y,z
x,-y,-z
-x,y,-z
-x,-y,-z
x,y,-z
-x,y,z
x,-y,z
1/2+x,1/2+y,z
1/2-x,1/2-y,z
1/2+x,1/2-y,-z
1/2-x,1/2+y,-z
1/2-x,1/2-y,-z
1/2+x,1/2+y,-z
1/2-x,1/2+y,z
1/2+x,1/2-y,z
loop_
_atom_site_type_symbol
_atom_site_label
_atom_site_fract_x
_atom_site_fract_y
_atom_site_fract_z
Si Si1 0.402572 0.180819 0.620478
Si Si2 0.553570 0.180133 0.266000
Si Si3 0.303087 0.680976 0.646418
Si Si4 0.000000 0.825158 0.565648
Si Si5 0.387678 0.820415 0.838294
Si Si6 0.698916 0.679191 0.773512
Si Si7 0.556513 0.322643 0.063714
O O1 0.410527 0.229573 0.684458
O O2 0.348154 0.253520 0.607486
O O3 0.449000 0.245049 0.585549
O O4 0.400487 0.000000 0.610622
O O5 0.500000 0.255662 0.276904
O O6 0.572223 0.238054 0.206611
O O7 0.548692 0.000000 0.265590
O O8 0.300786 0.500000 0.639264
O O9 0.250000 0.750000 0.626795
O O10 0.313569 0.731300 0.710360
O O11 0.000000 0.814109 0.500000
O O12 0.000000 0.000000 0.586178
O O13 0.337581 0.738744 0.820823
O O14 0.405491 0.773268 0.899236
O O15 0.379477 0.000000 0.835920
O O16 0.701777 0.500000 0.776307
O O17 0.750000 0.750000 0.792759
O O18 0.500000 0.270063 0.075464
O O19 0.562466 0.500000 0.077571
O O20 0.570402 0.289570 0.000000
#
# Coordination Sequence:
#
# PCOD8270579 Si02
#       7
#    16  16  16   8  16  16  16
#     4  11  20  35  59  84 114 151 191 234 280 334
#     4   9  17  29  46  74 109 142 172 214 270 322
#     4  10  20  34  54  82 116 153 192 233 282 338
#     4  11  25  43  61  85 119 157 198 241 282 329
#     4  11  20  31  51  77 107 139 176 220 272 330
#     4  10  20  33  50  74 107 144 181 220 266 324
#     4   9  19  36  54  72  99 137 180 224 269 319
#
# _framework density 18.315946
#
# number of rings (size 3 to 8) (size 9 to 14) (size 15 to 20)
#    0.000    1.923    2.308    3.000    0.000    3.077 
#    0.000    0.769    0.000    0.923    0.000    0.000 
#    0.000    0.000    0.000    0.000    0.000    0.000 
#
# Total GULP energy -644533.208900 kJ/mol
# GULP energy per Si atom -12394.869402 kJ/mol
# Density = 1.827426 g / cm^3
# Si number density = 18.315946 Si / 1000 Ang^3
#
#
#
# Elastic Constant Matrix: (Units=GPa)
#
#
# Indices 1 2 3 4 5 6 
#
# 1 153.3665 52.7496 34.8065 0.0000 0.0000 0.0000
# 2 52.7496 79.0023 24.7630 0.0000 0.0000 0.0000
# 3 34.8065 24.7630 53.1999 0.0000 0.0000 0.0000
# 4 0.0000 0.0000 0.0000 22.4498 0.0000 0.0000
# 5 0.0000 0.0000 0.0000 0.0000 16.7064 0.0000
# 6 0.0000 0.0000 0.0000 0.0000 0.0000 33.2837
#
#
#
# Elastic Compliance Matrix: (Units=1/GPa)
#
#
# Indices 1 2 3 4 5 6 
#
# 1 0.009025 -0.004889 -0.003629 0.000000 0.000000 0.000000
# 2 -0.004889 0.017468 -0.004932 0.000000 0.000000 0.000000
# 3 -0.003629 -0.004932 0.023468 0.000000 0.000000 0.000000
# 4 0.000000 0.000000 0.000000 0.044544 0.000000 0.000000
# 5 0.000000 0.000000 0.000000 0.000000 0.059857 0.000000
# 6 0.000000 0.000000 0.000000 0.000000 0.000000 0.030045
#
#
# Mechanical properties :
#
#
# Convention : Reuss Voigt Hill
#
# Bulk Modulus (GPa) = 43.36519 56.68967 50.02743
# Shear Modulus (GPa) = 22.83160 26.03794 24.43477
#
# Velocity S-wave (km/s) = 3.53447 3.77450 3.65646
# Velocity P-wave (km/s) = 6.35486 7.07206 6.72303
#
# Compressibility (1/GPa) = 0.02305997
#
# Stress axis : x y z
#
# Youngs Moduli (GPa) = 110.79779 57.24744 42.61203
#
# Poissons Ratio (x) = 0.27986 0.15466
# Poissons Ratio (y) = 0.54165 0.21018
# Poissons Ratio (z) = 0.40214 0.28237
#
# Static dielectric constant tensor:
#      x y z
#    x 3.524580 0.000000 0.000000 
#    y 0.000000 3.285040 0.000000 
#    z 0.000000 0.000000 3.186060 
# 
# 
# High freq. dielectric constant tensor:
#      x y z
#    x 1.719880 0.000000 0.000000 
#    y 0.000000 1.708670 0.000000 
#    z 0.000000 0.000000 1.681060 
# 
# From -- ./inp_files/71863.got.cif
#   From: 2010.03.12/outbox.cif.g09.slc.cpg/sg65_36_cif.got.tgz:71863.got - 2010.04.10 20:52:16.
