data_PCOD8270503
_publ_section_title
;
Structure prediction by ZEFSAII (Michael W. Deem and Ramdas Pophale) SiO2 
 PCOD8270503
Probable space group: C M M M
;
_chemical_formula_sum "Si O2"
_cell_formula_units_Z 104
_cell_length_a 32.117337
_cell_length_b 20.017484
_cell_length_c 8.971053
_cell_angle_alpha 90.000000
_cell_angle_beta 90.000000
_cell_angle_gamma 90.000000
_cell_volume 5767.564250
_symmetry_space_group_name_H-M "C M M M"
_symmetry_group_IT_number 65
_symmetry_cell_setting 'orthorhombic'
loop_
_space_group_symop_operation_xyz
x,y,z
-x,-y,z
x,-y,-z
-x,y,-z
-x,-y,-z
x,y,-z
-x,y,z
x,-y,z
1/2+x,1/2+y,z
1/2-x,1/2-y,z
1/2+x,1/2-y,-z
1/2-x,1/2+y,-z
1/2-x,1/2-y,-z
1/2+x,1/2+y,-z
1/2-x,1/2+y,z
1/2+x,1/2-y,z
loop_
_atom_site_type_symbol
_atom_site_label
_atom_site_fract_x
_atom_site_fract_y
_atom_site_fract_z
Si Si1 0.063516 0.653279 0.169197
Si Si2 0.136405 0.820194 0.675471
Si Si3 0.805411 0.077057 0.828508
Si Si4 0.218430 0.576845 0.323958
Si Si5 0.843048 0.681681 0.826562
Si Si6 0.000000 0.576608 0.340509
Si Si7 0.954661 0.786029 0.670039
O O1 0.112552 0.646928 0.192413
O O2 0.042233 0.592807 0.254178
O O3 0.044538 0.721974 0.226685
O O4 0.050383 0.647548 0.000000
O O5 0.145854 0.822812 0.500000
O O6 0.156696 0.882101 0.759135
O O7 0.156304 0.751974 0.739747
O O8 0.086717 0.828616 0.709648
O O9 0.764444 0.092673 0.733682
O O10 0.818036 0.000000 0.815930
O O11 0.797746 0.097764 0.000000
O O12 0.216689 0.588642 0.500000
O O13 0.206073 0.500000 0.283963
O O14 0.188919 0.629633 0.243539
O O15 0.832203 0.694898 0.000000
O O16 0.000000 0.500000 0.371079
O O17 0.000000 0.614535 0.500000
O O18 0.950181 0.762124 0.500000
O O19 0.000000 0.823292 0.692867
#
# Coordination Sequence:
#
# PCOD8270503 Si02
#       7
#    16  16  16  16  16   8  16
#     4  10  20  33  50  72  98 131 171 217 265 310
#     4  10  20  34  55  84 113 141 179 223 268 319
#     4  10  21  38  59  81 108 142 178 218 268 326
#     4  10  21  37  57  80 106 140 183 226 270 323
#     4  10  21  36  54  79 111 142 177 223 272 322
#     4  11  23  35  47  65  93 133 178 221 266 315
#     4   9  17  31  53  78 105 137 170 209 259 314
#
# _framework density 18.031876
#
# number of rings (size 3 to 8) (size 9 to 14) (size 15 to 20)
#    0.000    2.077    0.769    2.538    0.000    6.154 
#    0.000    6.154    0.000    0.462    0.000    3.231 
#    0.000    0.000    0.000    0.000    0.000    0.000 
#
# Total GULP energy -644563.047831 kJ/mol
# GULP energy per Si atom -12395.443228 kJ/mol
# Density = 1.799083 g / cm^3
# Si number density = 18.031876 Si / 1000 Ang^3
#
#
#
# Elastic Constant Matrix: (Units=GPa)
#
#
# Indices 1 2 3 4 5 6 
#
# 1 114.5680 56.2999 45.1819 0.0000 0.0000 0.0000
# 2 56.2999 71.2788 43.1155 0.0000 0.0000 0.0000
# 3 45.1819 43.1155 102.9909 0.0000 0.0000 0.0000
# 4 0.0000 0.0000 0.0000 -5.4701 0.0000 0.0000
# 5 0.0000 0.0000 0.0000 0.0000 243.4066 0.0000
# 6 0.0000 0.0000 0.0000 0.0000 0.0000 36.6247
#
#
#
# Elastic Compliance Matrix: (Units=1/GPa)
#
#
# Indices 1 2 3 4 5 6 
#
# 1 0.014601 -0.010255 -0.002112 0.000000 0.000000 0.000000
# 2 -0.010255 0.025989 -0.006381 0.000000 0.000000 0.000000
# 3 -0.002112 -0.006381 0.013308 0.000000 0.000000 0.000000
# 4 0.000000 0.000000 0.000000 -0.182812 0.000000 0.000000
# 5 0.000000 0.000000 0.000000 0.000000 0.004108 0.000000
# 6 0.000000 0.000000 0.000000 0.000000 0.000000 0.027304
#
#
# Mechanical properties :
#
#
# Convention : Reuss Voigt Hill
#
# Bulk Modulus (GPa) = 60.97207 64.22582 62.59894
# Shear Modulus (GPa) = -91.67772 64.52827 -13.57472
#
# Velocity S-wave (km/s) = -7.13810 5.98860 -2.74673
# Velocity P-wave (km/s) = 5.83521 9.13855 4.97310
#
# Compressibility (1/GPa) = 0.01640095
#
# Stress axis : x y z
#
# Youngs Moduli (GPa) = 68.48951 38.47775 75.14487
#
# Poissons Ratio (x) = 0.39458 0.15873
# Poissons Ratio (y) = 0.70234 0.47951
# Poissons Ratio (z) = 0.14467 0.24553
#
# Static dielectric constant tensor:
#      x y z
#    x 1.995740 0.000000 0.000000 
#    y 0.000000 3.092540 0.000000 
#    z 0.000000 0.000000 3.633110 
# 
# 
# High freq. dielectric constant tensor:
#      x y z
#    x 1.708440 0.000000 0.000000 
#    y 0.000000 1.670070 0.000000 
#    z 0.000000 0.000000 1.719250 
# 
# From -- ./inp_files/18619.got.cif
#   From: 2010.03.12/outbox.cif.g09.slc.cpg/sg65_10_cif.got.tgz:18619.got - 2010.04.10 20:52:16.
