data_PCOD8270704
_publ_section_title
;
Structure prediction by ZEFSAII (Michael W. Deem and Ramdas Pophale) SiO2 
 PCOD8270704
Probable space group: C M M M
;
_chemical_formula_sum "Si O2"
_cell_formula_units_Z 80
_cell_length_a 8.934474
_cell_length_b 18.276873
_cell_length_c 25.407405
_cell_angle_alpha 90.000000
_cell_angle_beta 90.000000
_cell_angle_gamma 90.000000
_cell_volume 4148.883058
_symmetry_space_group_name_H-M "C M M M"
_symmetry_group_IT_number 65
_symmetry_cell_setting 'orthorhombic'
loop_
_space_group_symop_operation_xyz
x,y,z
-x,-y,z
x,-y,-z
-x,y,-z
-x,-y,-z
x,y,-z
-x,y,z
x,-y,z
1/2+x,1/2+y,z
1/2-x,1/2-y,z
1/2+x,1/2-y,-z
1/2-x,1/2+y,-z
1/2-x,1/2-y,-z
1/2+x,1/2+y,-z
1/2-x,1/2+y,z
1/2+x,1/2-y,z
loop_
_atom_site_type_symbol
_atom_site_label
_atom_site_fract_x
_atom_site_fract_y
_atom_site_fract_z
Si Si1 0.327631 0.085387 0.740585
Si Si2 0.823879 0.827991 0.350561
Si Si3 0.172829 0.416333 0.439002
Si Si4 0.822196 0.418086 0.941698
Si Si5 0.175681 0.327150 0.844370
O O1 0.500000 0.101519 0.726050
O O2 0.223234 0.117336 0.695444
O O3 0.283734 0.120440 0.796114
O O4 0.295999 0.000000 0.745295
O O5 0.750000 0.750000 0.340604
O O6 0.774972 0.861193 0.406393
O O7 0.000000 0.817501 0.350336
O O8 0.202860 0.400254 0.500000
O O9 0.215233 0.500000 0.425323
O O10 0.000000 0.402312 0.424731
O O11 0.759881 0.500000 0.931836
O O12 0.757256 0.363380 0.897626
O O13 0.000000 0.420473 0.937291
O O14 0.773330 0.390826 0.000000
O O15 0.250000 0.250000 0.833933
O O16 0.000000 0.315200 0.849615
#
# Coordination Sequence:
#
# PCOD8270704 Si02
#       5
#    16  16  16  16  16
#     4  10  21  38  59  80 105 139 179 224 273 326
#     4  12  25  39  57  82 113 147 183 225 272 322
#     4   9  19  38  63  88 115 148 184 222 267 320
#     4   8  14  27  49  75 101 132 175 223 264 309
#     4  10  20  33  51  77 107 139 175 216 266 321
#
# _framework density 19.282298999999998
#
# number of rings (size 3 to 8) (size 9 to 14) (size 15 to 20)
#    0.000    2.200    0.000    4.800    0.000    9.200 
#    0.000    1.000    0.000    1.800    0.000    1.400 
#    0.000    0.000    0.000    0.000    0.000    0.000 
#
# Total GULP energy -496065.416371 kJ/mol
# GULP energy per Si atom -12401.635409 kJ/mol
# Density = 1.923841 g / cm^3
# Si number density = 19.282299 Si / 1000 Ang^3
#
#
#
# Elastic Constant Matrix: (Units=GPa)
#
#
# Indices 1 2 3 4 5 6 
#
# 1 73.3882 48.5289 49.8073 0.0000 0.0000 0.0000
# 2 48.5289 128.0489 66.8186 0.0000 0.0000 0.0000
# 3 49.8073 66.8186 125.1919 0.0000 0.0000 0.0000
# 4 0.0000 0.0000 0.0000 -355.9746 0.0000 0.0000
# 5 0.0000 0.0000 0.0000 0.0000 -14.4015 0.0000
# 6 0.0000 0.0000 0.0000 0.0000 0.0000 28.2909
#
#
#
# Elastic Compliance Matrix: (Units=1/GPa)
#
#
# Indices 1 2 3 4 5 6 
#
# 1 0.020678 -0.004912 -0.005605 0.000000 0.000000 0.000000
# 2 -0.004912 0.011991 -0.004446 0.000000 0.000000 0.000000
# 3 -0.005605 -0.004446 0.012591 0.000000 0.000000 0.000000
# 4 0.000000 0.000000 0.000000 -0.002809 0.000000 0.000000
# 5 0.000000 0.000000 0.000000 0.000000 -0.069437 0.000000
# 6 0.000000 0.000000 0.000000 0.000000 0.000000 0.035347
#
#
# Mechanical properties :
#
#
# Convention : Reuss Voigt Hill
#
# Bulk Modulus (GPa) = 65.21374 72.99317 69.10345
# Shear Modulus (GPa) = 115.21380 -57.65208 28.78086
#
# Velocity S-wave (km/s) = 7.73827 -5.47393 3.86762
# Velocity P-wave (km/s) = 10.66466 1.41938 7.47397
#
# Compressibility (1/GPa) = 0.01533419
#
# Stress axis : x y z
#
# Youngs Moduli (GPa) = 48.35968 83.39624 79.42455
#
# Poissons Ratio (x) = 0.40964 0.44519
# Poissons Ratio (y) = 0.23754 0.35310
# Poissons Ratio (z) = 0.27107 0.37076
#
# Static dielectric constant tensor:
#      x y z
#    x 3.229620 0.000000 0.000000 
#    y 0.000000 3.586900 0.000000 
#    z 0.000000 0.000000 3.762370 
# 
# 
# High freq. dielectric constant tensor:
#      x y z
#    x 1.717180 0.000000 0.000000 
#    y 0.000000 1.757370 0.000000 
#    z 0.000000 0.000000 1.768210 
# 
# From -- ./inp_files/72803.got.cif
#   From: 2010.03.12/outbox.cif.g09.slc.cpg/sg65_37_cif.got.tgz:72803.got - 2010.04.10 20:52:16.
