data_PCOD8270129
_publ_section_title
;
Structure prediction by ZEFSAII (Michael W. Deem and Ramdas Pophale) SiO2 
 PCOD8270129
Probable space group: C M M M
;
_chemical_formula_sum "Si O2"
_cell_formula_units_Z 120
_cell_length_a 9.200738
_cell_length_b 27.766701
_cell_length_c 26.234724
_cell_angle_alpha 90.000000
_cell_angle_beta 90.000000
_cell_angle_gamma 90.000000
_cell_volume 6702.293579
_symmetry_space_group_name_H-M "C M M M"
_symmetry_group_IT_number 65
_symmetry_cell_setting 'orthorhombic'
loop_
_space_group_symop_operation_xyz
x,y,z
-x,-y,z
x,-y,-z
-x,y,-z
-x,-y,-z
x,y,-z
-x,y,z
x,-y,z
1/2+x,1/2+y,z
1/2-x,1/2-y,z
1/2+x,1/2-y,-z
1/2-x,1/2+y,-z
1/2-x,1/2-y,-z
1/2+x,1/2+y,-z
1/2-x,1/2+y,z
1/2+x,1/2-y,z
loop_
_atom_site_type_symbol
_atom_site_label
_atom_site_fract_x
_atom_site_fract_y
_atom_site_fract_z
Si Si1 0.665600 0.943290 0.500000
Si Si2 0.832551 0.124155 0.695652
Si Si3 0.835393 0.556013 0.236802
Si Si4 0.327590 0.554007 0.056455
Si Si5 0.670570 0.381887 0.422995
Si Si6 0.669072 0.699347 0.219069
Si Si7 0.828403 0.890014 0.846997
Si Si8 0.657707 0.209079 0.443393
O O1 0.500000 0.922421 0.500000
O O2 0.750406 0.927896 0.551812
O O3 0.660809 0.000000 0.500000
O O4 0.731398 0.081047 0.713788
O O5 0.798685 0.127772 0.636290
O O6 0.794758 0.173209 0.726901
O O7 0.000000 0.110752 0.706131
O O8 0.826546 0.500000 0.247111
O O9 0.743267 0.569281 0.187474
O O10 0.000000 0.573618 0.228824
O O11 0.500000 0.552852 0.055452
O O12 0.272074 0.500000 0.071807
O O13 0.276265 0.596103 0.095659
O O14 0.268055 0.567323 0.000000
O O15 0.500000 0.385200 0.434764
O O16 0.744220 0.337465 0.450545
O O17 0.500000 0.711128 0.214789
O O18 0.750000 0.750000 0.214583
O O19 0.717711 0.663555 0.172354
O O20 0.000000 0.895318 0.840885
O O21 0.625246 0.228516 0.500000
O O22 0.500000 0.200034 0.416314
O O23 0.750000 0.250000 0.412939
#
# Coordination Sequence:
#
# PCOD8270129 Si02
#       8
#     8  16  16  16  16  16  16  16
#     4  11  25  43  60  79 106 141 177 209 245 297
#     4   9  21  38  54  76 102 130 166 207 253 306
#     4  10  20  32  48  73 102 131 165 205 250 303
#     4   8  13  22  41  72 104 132 169 218 266 308
#     4  11  22  38  60  82 106 133 167 213 259 305
#     4   9  18  33  51  72  99 130 168 209 254 306
#     4   9  17  30  49  72  99 134 173 213 258 308
#     4  10  20  34  54  79 107 135 164 197 242 296
#
# _framework density 17.904319999999998
#
# number of rings (size 3 to 8) (size 9 to 14) (size 15 to 20)
#    0.000    2.467    0.667    3.000    0.000    6.933 
#    0.000    4.000    0.000    0.800    0.000    1.867 
#    0.000    0.000    0.000    0.000    0.000    0.267 
#
# Total GULP energy -743394.809654 kJ/mol
# GULP energy per Si atom -12389.913494 kJ/mol
# Density = 1.786357 g / cm^3
# Si number density = 17.904320 Si / 1000 Ang^3
#
#
#
# Elastic Constant Matrix: (Units=GPa)
#
#
# Indices 1 2 3 4 5 6 
#
# 1 82.6215 50.9315 35.0595 0.0000 0.0000 0.0000
# 2 50.9315 107.0804 56.7990 0.0000 0.0000 0.0000
# 3 35.0595 56.7990 118.5037 0.0000 0.0000 0.0000
# 4 0.0000 0.0000 0.0000 7.2075 0.0000 0.0000
# 5 0.0000 0.0000 0.0000 0.0000 7.3477 0.0000
# 6 0.0000 0.0000 0.0000 0.0000 0.0000 31.0332
#
#
#
# Elastic Compliance Matrix: (Units=1/GPa)
#
#
# Indices 1 2 3 4 5 6 
#
# 1 0.017342 -0.007411 -0.001578 0.000000 0.000000 0.000000
# 2 -0.007411 0.015690 -0.005327 0.000000 0.000000 0.000000
# 3 -0.001578 -0.005327 0.011459 0.000000 0.000000 0.000000
# 4 0.000000 0.000000 0.000000 0.138745 0.000000 0.000000
# 5 0.000000 0.000000 0.000000 0.000000 0.136098 0.000000
# 6 0.000000 0.000000 0.000000 0.000000 0.000000 0.032224
#
#
# Mechanical properties :
#
#
# Convention : Reuss Voigt Hill
#
# Bulk Modulus (GPa) = 63.06631 65.97619 64.52125
# Shear Modulus (GPa) = 12.97098 20.14536 16.55817
#
# Velocity S-wave (km/s) = 2.69450 3.35799 3.04437
# Velocity P-wave (km/s) = 6.70679 7.20861 6.96222
#
# Compressibility (1/GPa) = 0.01585633
#
# Stress axis : x y z
#
# Youngs Moduli (GPa) = 57.66442 63.73614 87.26756
#
# Poissons Ratio (x) = 0.47236 0.13774
# Poissons Ratio (y) = 0.42736 0.46492
# Poissons Ratio (z) = 0.09102 0.33955
#
# Static dielectric constant tensor:
#      x y z
#    x 3.473200 0.000000 0.000000 
#    y 0.000000 3.241950 0.000000 
#    z 0.000000 0.000000 3.521070 
# 
# 
# High freq. dielectric constant tensor:
#      x y z
#    x 1.690060 0.000000 0.000000 
#    y 0.000000 1.683940 0.000000 
#    z 0.000000 0.000000 1.681220 
# 
# From -- ./inp_files/74011.got.cif
#   From: 2010.03.12/outbox.cif.g09.slc.cpg/sg65_38_cif.got.tgz:74011.got - 2010.04.10 20:52:16.
