data_PCOD8270887
_publ_section_title
;
Structure prediction by ZEFSAII (Michael W. Deem and Ramdas Pophale) SiO2 
 PCOD8270887
Probable space group: C M M M
;
_chemical_formula_sum "Si O2"
_cell_formula_units_Z 112
_cell_length_a 14.819294
_cell_length_b 14.438976
_cell_length_c 25.343291
_cell_angle_alpha 90.000000
_cell_angle_beta 90.000000
_cell_angle_gamma 90.000000
_cell_volume 5422.841600
_symmetry_space_group_name_H-M "C M M M"
_symmetry_group_IT_number 65
_symmetry_cell_setting 'orthorhombic'
loop_
_space_group_symop_operation_xyz
x,y,z
-x,-y,z
x,-y,-z
-x,y,-z
-x,-y,-z
x,y,-z
-x,y,z
x,-y,z
1/2+x,1/2+y,z
1/2-x,1/2-y,z
1/2+x,1/2-y,-z
1/2-x,1/2+y,-z
1/2-x,1/2-y,-z
1/2+x,1/2+y,-z
1/2-x,1/2+y,z
1/2+x,1/2-y,z
loop_
_atom_site_type_symbol
_atom_site_label
_atom_site_fract_x
_atom_site_fract_y
_atom_site_fract_z
Si Si1 0.651872 0.275163 0.656026
Si Si2 0.789947 0.893399 0.148944
Si Si3 0.601087 0.604773 0.752271
Si Si4 0.401991 0.103294 0.399227
Si Si5 0.897754 0.790807 0.940496
Si Si6 0.210065 0.106509 0.440998
Si Si7 0.900594 0.396581 0.110978
O O1 0.750000 0.250000 0.677806
O O2 0.602106 0.335763 0.699291
O O3 0.598405 0.179276 0.647462
O O4 0.656996 0.330772 0.600660
O O5 0.832677 0.853851 0.202948
O O6 0.828299 0.838825 0.098907
O O7 0.681278 0.880662 0.152513
O O8 0.818426 0.000000 0.142329
O O9 0.500000 0.607476 0.775343
O O10 0.630120 0.500000 0.737760
O O11 0.500000 0.109848 0.428307
O O12 0.318393 0.123151 0.438199
O O13 0.390686 0.000000 0.374553
O O14 0.892340 0.679379 0.934958
O O15 0.000000 0.824888 0.928944
O O16 0.869245 0.816354 0.000000
O O17 0.179477 0.134372 0.500000
O O18 0.186181 0.000000 0.429258
O O19 0.890875 0.500000 0.086295
O O20 0.000000 0.386939 0.138796
#
# Coordination Sequence:
#
# PCOD8270887 Si02
#       7
#    16  16  16  16  16  16  16
#     4  10  20  33  55  81 107 141 180 222 270 326
#     4  10  21  37  58  83 112 145 182 227 278 330
#     4  10  21  38  60  83 107 139 182 229 274 325
#     4   9  18  32  50  75 106 138 176 221 267 320
#     4  10  21  36  56  83 114 148 185 226 273 327
#     4   9  18  33  53  77 106 140 178 222 272 324
#     4   9  19  36  57  81 109 143 185 229 272 323
#
# _framework density 20.653379000000001
#
# number of rings (size 3 to 8) (size 9 to 14) (size 15 to 20)
#    0.000    2.429    0.000    1.714    0.000    7.143 
#    0.000    5.000    0.000    5.571    0.000   19.000 
#    0.000    0.000    0.000    0.000    0.000    0.000 
#
# Total GULP energy -693988.934799 kJ/mol
# GULP energy per Si atom -12392.659550 kJ/mol
# Density = 2.060637 g / cm^3
# Si number density = 20.653379 Si / 1000 Ang^3
#
#
#
# Elastic Constant Matrix: (Units=GPa)
#
#
# Indices 1 2 3 4 5 6 
#
# 1 106.8064 32.7830 49.0278 0.0000 0.0000 0.0000
# 2 32.7830 99.1239 53.1613 0.0000 0.0000 0.0000
# 3 49.0278 53.1613 115.3757 0.0000 0.0000 0.0000
# 4 0.0000 0.0000 0.0000 23.1093 0.0000 0.0000
# 5 0.0000 0.0000 0.0000 0.0000 17.2022 0.0000
# 6 0.0000 0.0000 0.0000 0.0000 0.0000 24.7885
#
#
#
# Elastic Compliance Matrix: (Units=1/GPa)
#
#
# Indices 1 2 3 4 5 6 
#
# 1 0.011823 -0.001615 -0.004280 0.000000 0.000000 0.000000
# 2 -0.001615 0.013620 -0.005590 0.000000 0.000000 0.000000
# 3 -0.004280 -0.005590 0.013062 0.000000 0.000000 0.000000
# 4 0.000000 0.000000 0.000000 0.043273 0.000000 0.000000
# 5 0.000000 0.000000 0.000000 0.000000 0.058132 0.000000
# 6 0.000000 0.000000 0.000000 0.000000 0.000000 0.040341
#
#
# Mechanical properties :
#
#
# Convention : Reuss Voigt Hill
#
# Bulk Modulus (GPa) = 64.36632 65.69445 65.03039
# Shear Modulus (GPa) = 23.99253 25.44227 24.71740
#
# Velocity S-wave (km/s) = 3.41203 3.51361 3.46319
# Velocity P-wave (km/s) = 6.83779 6.95253 6.89540
#
# Compressibility (1/GPa) = 0.01553607
#
# Stress axis : x y z
#
# Youngs Moduli (GPa) = 84.58044 73.42048 76.56034
#
# Poissons Ratio (x) = 0.11856 0.32768
# Poissons Ratio (y) = 0.13658 0.42794
# Poissons Ratio (z) = 0.36201 0.41039
#
# Static dielectric constant tensor:
#      x y z
#    x 3.904910 0.000000 0.000000 
#    y 0.000000 3.986820 0.000000 
#    z 0.000000 0.000000 3.303280 
# 
# 
# High freq. dielectric constant tensor:
#      x y z
#    x 1.814750 0.000000 0.000000 
#    y 0.000000 1.822600 0.000000 
#    z 0.000000 0.000000 1.764790 
# 
# From -- ./inp_files/69980.got.cif
#   From: 2010.03.12/outbox.cif.g09.slc.cpg/sg65_35_cif.got.tgz:69980.got - 2010.04.10 20:52:16.
