data_PCOD8270310
_publ_section_title
;
Structure prediction by ZEFSAII (Michael W. Deem and Ramdas Pophale) SiO2 
 PCOD8270310
Probable space group: C M M M
;
_chemical_formula_sum "Si O2"
_cell_formula_units_Z 80
_cell_length_a 26.282426
_cell_length_b 23.411310
_cell_length_c 8.814823
_cell_angle_alpha 90.000000
_cell_angle_beta 90.000000
_cell_angle_gamma 90.000000
_cell_volume 5423.813680
_symmetry_space_group_name_H-M "C M M M"
_symmetry_group_IT_number 65
_symmetry_cell_setting 'orthorhombic'
loop_
_space_group_symop_operation_xyz
x,y,z
-x,-y,z
x,-y,-z
-x,y,-z
-x,-y,-z
x,y,-z
-x,y,z
x,-y,z
1/2+x,1/2+y,z
1/2-x,1/2-y,z
1/2+x,1/2-y,-z
1/2-x,1/2+y,-z
1/2-x,1/2-y,-z
1/2+x,1/2+y,-z
1/2-x,1/2+y,z
1/2+x,1/2-y,z
loop_
_atom_site_type_symbol
_atom_site_label
_atom_site_fract_x
_atom_site_fract_y
_atom_site_fract_z
Si Si1 0.259280 0.115473 0.322606
Si Si2 0.892683 0.500000 0.677154
Si Si3 0.442312 0.106424 0.174325
Si Si4 0.298468 0.290881 0.832054
Si Si5 0.282123 0.000000 0.179308
Si Si6 0.350069 0.817864 0.823633
O O1 0.259557 0.104840 0.500000
O O2 0.211472 0.156224 0.280111
O O3 0.252271 0.055191 0.239800
O O4 0.312842 0.142805 0.274602
O O5 0.880023 0.500000 0.500000
O O6 0.925741 0.444859 0.717865
O O7 0.840307 0.500000 0.767728
O O8 0.500000 0.124026 0.212153
O O9 0.407686 0.162140 0.205973
O O10 0.436576 0.086288 0.000000
O O11 0.250000 0.250000 0.834068
O O12 0.344921 0.249444 0.777990
O O13 0.308999 0.315687 0.000000
O O14 0.281404 0.000000 0.000000
O O15 0.334173 0.825291 0.000000
#
# Coordination Sequence:
#
# PCOD8270310 Si02
#       6
#    16   8  16  16   8  16
#     4  11  20  29  43  65  86 106 136 176 216 254
#     4  12  23  33  44  61  82 110 146 189 231 259
#     4  10  20  33  48  63  81 113 152 185 219 258
#     4   8  15  28  44  61  81 109 140 168 206 255
#     4  12  22  33  47  60  82 115 145 177 214 259
#     4   9  17  30  46  61  82 112 143 176 212 255
#
# _framework density 14.749769000000001
#
# number of rings (size 3 to 8) (size 9 to 14) (size 15 to 20)
#    0.000    2.000    2.000    5.100    0.000    5.200 
#    0.000    0.000    0.000    0.000    0.000    0.000 
#    0.000    0.000    0.000    0.900    0.000   21.200 
#
# Total GULP energy -495891.108646 kJ/mol
# GULP energy per Si atom -12397.277716 kJ/mol
# Density = 1.471620 g / cm^3
# Si number density = 14.749769 Si / 1000 Ang^3
#
#
#
# Elastic Constant Matrix: (Units=GPa)
#
#
# Indices 1 2 3 4 5 6 
#
# 1 62.2459 56.5417 26.1370 0.0000 0.0000 0.0000
# 2 56.5417 108.2213 51.2960 0.0000 0.0000 0.0000
# 3 26.1370 51.2960 99.6433 0.0000 0.0000 0.0000
# 4 0.0000 0.0000 0.0000 6.4724 0.0000 0.0000
# 5 0.0000 0.0000 0.0000 0.0000 7.9509 0.0000
# 6 0.0000 0.0000 0.0000 0.0000 0.0000 14.9117
#
#
#
# Elastic Compliance Matrix: (Units=1/GPa)
#
#
# Indices 1 2 3 4 5 6 
#
# 1 0.030582 -0.016106 0.000269 0.000000 0.000000 0.000000
# 2 -0.016106 0.020705 -0.006434 0.000000 0.000000 0.000000
# 3 0.000269 -0.006434 0.013277 0.000000 0.000000 0.000000
# 4 0.000000 0.000000 0.000000 0.154502 0.000000 0.000000
# 5 0.000000 0.000000 0.000000 0.000000 0.125771 0.000000
# 6 0.000000 0.000000 0.000000 0.000000 0.000000 0.067062
#
#
# Mechanical properties :
#
#
# Convention : Reuss Voigt Hill
#
# Bulk Modulus (GPa) = 49.94212 59.78444 54.86328
# Shear Modulus (GPa) = 10.79647 14.94272 12.86959
#
# Velocity S-wave (km/s) = 2.70844 3.18635 2.95706
# Velocity P-wave (km/s) = 6.61165 7.35918 6.99541
#
# Compressibility (1/GPa) = 0.02002318
#
# Stress axis : x y z
#
# Youngs Moduli (GPa) = 32.69910 48.29849 75.31599
#
# Poissons Ratio (x) = 0.77787 -0.02028
# Poissons Ratio (y) = 0.52664 0.48459
# Poissons Ratio (z) = -0.00881 0.31076
#
# Static dielectric constant tensor:
#      x y z
#    x 2.783600 0.000000 0.000000 
#    y 0.000000 3.123230 0.000000 
#    z 0.000000 0.000000 2.861890 
# 
# 
# High freq. dielectric constant tensor:
#      x y z
#    x 1.521040 0.000000 0.000000 
#    y 0.000000 1.557450 0.000000 
#    z 0.000000 0.000000 1.568670 
# 
# From -- ./inp_files/12126.got.cif
#   From: 2010.03.12/outbox.cif.g09.slc.cpg/sg65_7_cif.got.tgz:12126.got - 2010.04.10 20:52:16.
