data_PCOD8270211
_publ_section_title
;
Structure prediction by ZEFSAII (Michael W. Deem and Ramdas Pophale) SiO2 
 PCOD8270211
Probable space group: C M M M
;
_chemical_formula_sum "Si O2"
_cell_formula_units_Z 88
_cell_length_a 17.735398
_cell_length_b 27.017526
_cell_length_c 9.923532
_cell_angle_alpha 90.000000
_cell_angle_beta 90.000000
_cell_angle_gamma 90.000000
_cell_volume 4755.024856
_symmetry_space_group_name_H-M "C M M M"
_symmetry_group_IT_number 65
_symmetry_cell_setting 'orthorhombic'
loop_
_space_group_symop_operation_xyz
x,y,z
-x,-y,z
x,-y,-z
-x,y,-z
-x,-y,-z
x,y,-z
-x,y,z
x,-y,z
1/2+x,1/2+y,z
1/2-x,1/2-y,z
1/2+x,1/2-y,-z
1/2-x,1/2+y,-z
1/2-x,1/2-y,-z
1/2+x,1/2+y,-z
1/2-x,1/2+y,z
1/2+x,1/2-y,z
loop_
_atom_site_type_symbol
_atom_site_label
_atom_site_fract_x
_atom_site_fract_y
_atom_site_fract_z
Si Si1 0.500000 0.942700 0.660679
Si Si2 0.911544 0.796530 0.853741
Si Si3 0.208199 0.944035 0.348788
Si Si4 0.648406 0.114404 0.659853
Si Si5 0.587238 0.592613 0.844851
Si Si6 0.168997 0.272733 0.657734
O O1 0.500000 0.942607 0.500000
O O2 0.426730 0.912812 0.716387
O O3 0.500000 0.000000 0.712346
O O4 0.882977 0.851643 0.819868
O O5 0.891941 0.759307 0.735553
O O6 0.000000 0.799656 0.866755
O O7 0.878411 0.779625 0.000000
O O8 0.187538 0.925072 0.500000
O O9 0.277347 0.913129 0.285857
O O10 0.135512 0.941685 0.253485
O O11 0.236595 0.000000 0.355903
O O12 0.646335 0.111515 0.500000
O O13 0.656714 0.171165 0.707682
O O14 0.500000 0.586156 0.805201
O O15 0.599784 0.576925 0.000000
O O16 0.152853 0.267752 0.500000
O O17 0.250000 0.250000 0.695421
#
# Coordination Sequence:
#
# PCOD8270211 Si02
#       6
#     8  16  16  16  16  16
#     4   9  16  28  48  72  99 135 179 223 264 309
#     4   9  19  35  53  73 100 134 172 211 251 302
#     4  10  20  34  53  77 105 135 170 216 266 311
#     4   9  18  31  48  73 106 138 172 214 263 317
#     4   9  19  36  55  75 102 138 177 214 254 307
#     4  10  20  32  49  76 108 138 169 210 260 314
#
# _framework density 18.506737000000001
#
# number of rings (size 3 to 8) (size 9 to 14) (size 15 to 20)
#    0.000    2.636    0.000    2.727    1.273    6.182 
#    0.000    4.545    0.000    0.000    0.000    0.000 
#    0.000    2.909    0.000    0.000    0.000    0.000 
#
# Total GULP energy -545436.154664 kJ/mol
# GULP energy per Si atom -12396.276242 kJ/mol
# Density = 1.846461 g / cm^3
# Si number density = 18.506737 Si / 1000 Ang^3
#
#
#
# Elastic Constant Matrix: (Units=GPa)
#
#
# Indices 1 2 3 4 5 6 
#
# 1 91.2206 41.2062 30.9979 0.0000 0.0000 0.0000
# 2 41.2062 98.9090 25.2466 0.0000 0.0000 0.0000
# 3 30.9979 25.2466 43.7326 0.0000 0.0000 0.0000
# 4 0.0000 0.0000 0.0000 -28.6074 0.0000 0.0000
# 5 0.0000 0.0000 0.0000 0.0000 17.5568 0.0000
# 6 0.0000 0.0000 0.0000 0.0000 0.0000 36.6029
#
#
#
# Elastic Compliance Matrix: (Units=1/GPa)
#
#
# Indices 1 2 3 4 5 6 
#
# 1 0.015922 -0.004401 -0.008745 0.000000 0.000000 0.000000
# 2 -0.004401 0.013074 -0.004428 0.000000 0.000000 0.000000
# 3 -0.008745 -0.004428 0.031621 0.000000 0.000000 0.000000
# 4 0.000000 0.000000 0.000000 -0.034956 0.000000 0.000000
# 5 0.000000 0.000000 0.000000 0.000000 0.056958 0.000000
# 6 0.000000 0.000000 0.000000 0.000000 0.000000 0.027320
#
#
# Mechanical properties :
#
#
# Convention : Reuss Voigt Hill
#
# Bulk Modulus (GPa) = 39.26349 47.64040 43.45194
# Shear Modulus (GPa) = 32.55691 14.20458 23.38074
#
# Velocity S-wave (km/s) = 4.19882 2.77345 3.55824
# Velocity P-wave (km/s) = 6.69094 6.00451 6.35699
#
# Compressibility (1/GPa) = 0.02546896
#
# Stress axis : x y z
#
# Youngs Moduli (GPa) = 62.80559 76.48702 31.62461
#
# Poissons Ratio (x) = 0.33663 0.27656
# Poissons Ratio (y) = 0.27642 0.14004
# Poissons Ratio (z) = 0.54923 0.33869
#
# Static dielectric constant tensor:
#      x y z
#    x 3.364230 0.000000 0.000000 
#    y 0.000000 3.585670 0.000000 
#    z 0.000000 0.000000 3.085040 
# 
# 
# High freq. dielectric constant tensor:
#      x y z
#    x 1.716810 0.000000 0.000000 
#    y 0.000000 1.727280 0.000000 
#    z 0.000000 0.000000 1.683110 
# 
# From -- ./inp_files/10164.got.cif
#   From: 2010.03.12/outbox.cif.g09.slc.cpg/sg65_6_cif.got.tgz:10164.got - 2010.04.10 20:52:16.
