data_PCOD8270237
_publ_section_title
;
Structure prediction by ZEFSAII (Michael W. Deem and Ramdas Pophale) SiO2 
 PCOD8270237
Probable space group: C M M M
;
_chemical_formula_sum "Si O2"
_cell_formula_units_Z 72
_cell_length_a 9.734176
_cell_length_b 33.708602
_cell_length_c 12.789998
_cell_angle_alpha 90.000000
_cell_angle_beta 90.000000
_cell_angle_gamma 90.000000
_cell_volume 4196.724036
_symmetry_space_group_name_H-M "C M M M"
_symmetry_group_IT_number 65
_symmetry_cell_setting 'orthorhombic'
loop_
_space_group_symop_operation_xyz
x,y,z
-x,-y,z
x,-y,-z
-x,y,-z
-x,-y,-z
x,y,-z
-x,y,z
x,-y,z
1/2+x,1/2+y,z
1/2-x,1/2-y,z
1/2+x,1/2-y,-z
1/2-x,1/2+y,-z
1/2-x,1/2-y,-z
1/2+x,1/2+y,-z
1/2-x,1/2+y,z
1/2+x,1/2-y,z
loop_
_atom_site_type_symbol
_atom_site_label
_atom_site_fract_x
_atom_site_fract_y
_atom_site_fract_z
Si Si1 0.159086 0.853406 0.333503
Si Si2 0.658658 0.956001 0.830409
Si Si3 0.159516 0.788814 0.500000
Si Si4 0.342798 0.383351 0.885746
Si Si5 0.345905 0.924890 0.387196
O O1 0.196586 0.812839 0.393542
O O2 0.194167 0.852457 0.208080
O O3 0.243414 0.888232 0.385871
O O4 0.000000 0.862997 0.352210
O O5 0.500000 0.947017 0.857651
O O6 0.750947 0.922862 0.884515
O O7 0.684509 0.955711 0.705352
O O8 0.698963 0.000000 0.870630
O O9 0.250000 0.750000 0.500000
O O10 0.000000 0.776819 0.500000
O O11 0.500000 0.397214 0.872757
O O12 0.320426 0.362898 0.000000
O O13 0.329367 0.946424 0.500000
O O14 0.500000 0.907757 0.374251
#
# Coordination Sequence:
#
# PCOD8270237 Si02
#       5
#    16  16   8  16  16
#     4   9  17  31  49  69  94 121 150 184 223 268
#     4   9  18  30  42  61  91 124 157 195 239 281
#     4  10  20  32  50  76 101 124 145 173 218 271
#     4   9  18  32  50  69  88 117 158 198 232 267
#     4   9  16  26  43  65  88 119 157 193 230 271
#
# _framework density 17.156237999999998
#
# number of rings (size 3 to 8) (size 9 to 14) (size 15 to 20)
#    0.000    2.889    1.111    0.000    0.000    2.667 
#    0.000    4.444    0.000    0.667    0.000    6.222 
#    0.000    0.000    0.000    0.000    0.000    0.000 
#
# Total GULP energy -445989.900666 kJ/mol
# GULP energy per Si atom -12388.608352 kJ/mol
# Density = 1.711719 g / cm^3
# Si number density = 17.156238 Si / 1000 Ang^3
#
#
#
# Elastic Constant Matrix: (Units=GPa)
#
#
# Indices 1 2 3 4 5 6 
#
# 1 48.6100 36.6705 26.1125 0.0000 0.0000 0.0000
# 2 36.6705 80.9355 39.1058 0.0000 0.0000 0.0000
# 3 26.1125 39.1058 136.0014 0.0000 0.0000 0.0000
# 4 0.0000 0.0000 0.0000 12.6620 0.0000 0.0000
# 5 0.0000 0.0000 0.0000 0.0000 17.7954 0.0000
# 6 0.0000 0.0000 0.0000 0.0000 0.0000 25.2494
#
#
#
# Elastic Compliance Matrix: (Units=1/GPa)
#
#
# Indices 1 2 3 4 5 6 
#
# 1 0.031854 -0.013329 -0.002283 0.000000 0.000000 0.000000
# 2 -0.013329 0.019927 -0.003170 0.000000 0.000000 0.000000
# 3 -0.002283 -0.003170 0.008703 0.000000 0.000000 0.000000
# 4 0.000000 0.000000 0.000000 0.078976 0.000000 0.000000
# 5 0.000000 0.000000 0.000000 0.000000 0.056194 0.000000
# 6 0.000000 0.000000 0.000000 0.000000 0.000000 0.039605
#
#
# Mechanical properties :
#
#
# Convention : Reuss Voigt Hill
#
# Bulk Modulus (GPa) = 43.63502 52.14717 47.89109
# Shear Modulus (GPa) = 17.82761 22.05190 19.93975
#
# Velocity S-wave (km/s) = 3.22706 3.58908 3.41287
# Velocity P-wave (km/s) = 6.27489 6.90194 6.59587
#
# Compressibility (1/GPa) = 0.02291737
#
# Stress axis : x y z
#
# Youngs Moduli (GPa) = 31.39349 50.18413 114.90419
#
# Poissons Ratio (x) = 0.66891 0.26236
# Poissons Ratio (y) = 0.41845 0.36430
# Poissons Ratio (z) = 0.07168 0.15911
#
# Static dielectric constant tensor:
#      x y z
#    x 3.252880 0.000000 0.000000 
#    y 0.000000 2.785990 0.000000 
#    z 0.000000 0.000000 3.654090 
# 
# 
# High freq. dielectric constant tensor:
#      x y z
#    x 1.664710 0.000000 0.000000 
#    y 0.000000 1.607630 0.000000 
#    z 0.000000 0.000000 1.684700 
# 
# From -- ./inp_files/22701.got.cif
#   From: 2010.03.12/outbox.cif.g09.slc.cpg/sg65_12_cif.got.tgz:22701.got - 2010.04.10 20:52:16.
