data_PCOD8270102
_publ_section_title
;
Structure prediction by ZEFSAII (Michael W. Deem and Ramdas Pophale) SiO2 
 PCOD8270102
Probable space group: C M M M
;
_chemical_formula_sum "Si O2"
_cell_formula_units_Z 72
_cell_length_a 18.860743
_cell_length_b 9.271795
_cell_length_c 22.984861
_cell_angle_alpha 90.000000
_cell_angle_beta 90.000000
_cell_angle_gamma 90.000000
_cell_volume 4019.430279
_symmetry_space_group_name_H-M "C M M M"
_symmetry_group_IT_number 65
_symmetry_cell_setting 'orthorhombic'
loop_
_space_group_symop_operation_xyz
x,y,z
-x,-y,z
x,-y,-z
-x,y,-z
-x,-y,-z
x,y,-z
-x,y,z
x,-y,z
1/2+x,1/2+y,z
1/2-x,1/2-y,z
1/2+x,1/2-y,-z
1/2-x,1/2+y,-z
1/2-x,1/2-y,-z
1/2+x,1/2+y,-z
1/2-x,1/2+y,z
1/2+x,1/2-y,z
loop_
_atom_site_type_symbol
_atom_site_label
_atom_site_fract_x
_atom_site_fract_y
_atom_site_fract_z
Si Si1 0.415808 0.835502 0.846701
Si Si2 0.820919 0.832492 0.068015
Si Si3 0.415233 0.838421 0.500000
Si Si4 0.915719 0.162036 0.391478
Si Si5 0.584270 0.662059 0.736797
O O1 0.500000 0.826239 0.849840
O O2 0.386633 0.740074 0.899381
O O3 0.386593 0.771173 0.785669
O O4 0.389398 0.000000 0.851997
O O5 0.750000 0.750000 0.087321
O O6 0.814155 0.000000 0.085124
O O7 0.835472 0.812933 0.000000
O O8 0.500000 0.832624 0.500000
O O9 0.384178 0.762932 0.442048
O O10 0.386460 0.000000 0.500000
O O11 0.889843 0.213748 0.327343
O O12 0.000000 0.166605 0.393693
O O13 0.889024 0.000000 0.403116
O O14 0.500000 0.661034 0.738026
O O15 0.612171 0.500000 0.749596
#
# Coordination Sequence:
#
# PCOD8270102 Si02
#       5
#    16  16   8  16  16
#     4  10  20  32  48  72 100 128 158 194 235 279
#     4  10  21  37  56  75  96 124 157 193 234 281
#     4   9  15  19  25  41  65  95 134 179 222 265
#     4   8  13  21  32  45  65  98 139 180 221 266
#     4   8  14  25  40  57  79 110 148 188 229 273
#
# _framework density 17.912986
#
# number of rings (size 3 to 8) (size 9 to 14) (size 15 to 20)
#    0.000    3.000    0.000    3.000    0.000    5.333 
#    0.000    6.667    0.000    0.000    0.000    0.000 
#    0.000    0.000    0.000    1.000    0.000   14.222 
#
# Total GULP energy -446220.896110 kJ/mol
# GULP energy per Si atom -12395.024892 kJ/mol
# Density = 1.787222 g / cm^3
# Si number density = 17.912986 Si / 1000 Ang^3
#
#
#
# Elastic Constant Matrix: (Units=GPa)
#
#
# Indices 1 2 3 4 5 6 
#
# 1 16.9102 25.5475 25.9189 0.0000 0.0000 0.0000
# 2 25.5475 146.8090 82.4810 0.0000 0.0000 0.0000
# 3 25.9189 82.4810 118.6834 0.0000 0.0000 0.0000
# 4 0.0000 0.0000 0.0000 31.8450 0.0000 0.0000
# 5 0.0000 0.0000 0.0000 0.0000 1.6513 0.0000
# 6 0.0000 0.0000 0.0000 0.0000 0.0000 18.3077
#
#
#
# Elastic Compliance Matrix: (Units=1/GPa)
#
#
# Indices 1 2 3 4 5 6 
#
# 1 0.094203 -0.007932 -0.015060 0.000000 0.000000 0.000000
# 2 -0.007932 0.011843 -0.006498 0.000000 0.000000 0.000000
# 3 -0.015060 -0.006498 0.016231 0.000000 0.000000 0.000000
# 4 0.000000 0.000000 0.000000 0.031402 0.000000 0.000000
# 5 0.000000 0.000000 0.000000 0.000000 0.605600 0.000000
# 6 0.000000 0.000000 0.000000 0.000000 0.000000 0.054622
#
#
# Mechanical properties :
#
#
# Convention : Reuss Voigt Hill
#
# Bulk Modulus (GPa) = 15.79883 61.14416 38.47149
# Shear Modulus (GPa) = 5.59297 20.25779 12.92538
#
# Velocity S-wave (km/s) = 1.76892 3.36653 2.68911
# Velocity P-wave (km/s) = 3.60708 7.02278 5.58258
#
# Compressibility (1/GPa) = 0.06329584
#
# Stress axis : x y z
#
# Youngs Moduli (GPa) = 10.61538 84.44094 61.61175
#
# Poissons Ratio (x) = 0.66977 0.92790
# Poissons Ratio (y) = 0.08420 0.40035
# Poissons Ratio (z) = 0.15987 0.54870
#
# Static dielectric constant tensor:
#      x y z
#    x 2.634570 0.000000 0.000000 
#    y 0.000000 3.532890 0.000000 
#    z 0.000000 0.000000 3.678940 
# 
# 
# High freq. dielectric constant tensor:
#      x y z
#    x 1.617750 0.000000 0.000000 
#    y 0.000000 1.701820 0.000000 
#    z 0.000000 0.000000 1.709850 
# 
# From -- ./inp_files/64354.got.cif
#   From: 2010.03.12/outbox.cif.g09.slc.cpg/sg65_33_cif.got.tgz:64354.got - 2010.04.10 20:52:16.
