data_PCOD8270823
_publ_section_title
;
Structure prediction by ZEFSAII (Michael W. Deem and Ramdas Pophale) SiO2 
 PCOD8270823
Probable space group: C M M M
;
_chemical_formula_sum "Si O2"
_cell_formula_units_Z 96
_cell_length_a 8.814083
_cell_length_b 28.701057
_cell_length_c 20.538183
_cell_angle_alpha 90.000000
_cell_angle_beta 90.000000
_cell_angle_gamma 90.000000
_cell_volume 5195.616008
_symmetry_space_group_name_H-M "C M M M"
_symmetry_group_IT_number 65
_symmetry_cell_setting 'orthorhombic'
loop_
_space_group_symop_operation_xyz
x,y,z
-x,-y,z
x,-y,-z
-x,y,-z
-x,-y,-z
x,y,-z
-x,y,z
x,-y,z
1/2+x,1/2+y,z
1/2-x,1/2-y,z
1/2+x,1/2-y,-z
1/2-x,1/2+y,-z
1/2-x,1/2-y,-z
1/2+x,1/2+y,-z
1/2-x,1/2+y,z
1/2+x,1/2-y,z
loop_
_atom_site_type_symbol
_atom_site_label
_atom_site_fract_x
_atom_site_fract_y
_atom_site_fract_z
Si Si1 0.679133 0.199519 0.691222
Si Si2 0.175729 0.147535 0.426455
Si Si3 0.821657 0.798301 0.072578
Si Si4 0.672858 0.448562 0.632959
Si Si5 0.324591 0.052349 0.768532
Si Si6 0.677838 0.641573 0.807086
O O1 0.500000 0.204165 0.694996
O O2 0.750000 0.250000 0.701886
O O3 0.724331 0.178774 0.621316
O O4 0.735276 0.165383 0.747643
O O5 0.219905 0.161095 0.500000
O O6 0.208138 0.092193 0.418432
O O7 0.000000 0.158491 0.412197
O O8 0.750000 0.750000 0.095499
O O9 0.770299 0.837137 0.123988
O O10 0.000000 0.791540 0.073109
O O11 0.764891 0.812386 0.000000
O O12 0.500000 0.444071 0.658787
O O13 0.697612 0.500000 0.601003
O O14 0.785619 0.441868 0.692864
O O15 0.500000 0.064785 0.777947
O O16 0.223265 0.087404 0.811036
O O17 0.288351 0.000000 0.792417
O O18 0.500000 0.647581 0.794926
#
# Coordination Sequence:
#
# PCOD8270823 Si02
#       6
#    16  16  16  16  16  16
#     4  12  25  40  58  79 106 140 181 229 276 325
#     4  10  21  37  56  79 109 143 181 225 274 329
#     4   9  19  35  55  82 115 148 181 219 265 320
#     4   9  17  31  53  79 108 141 176 217 267 323
#     4  10  20  33  52  80 112 144 180 224 271 319
#     4  11  21  35  58  85 113 144 181 223 269 322
#
# _framework density 18.477115999999999
#
# number of rings (size 3 to 8) (size 9 to 14) (size 15 to 20)
#    0.000    1.833    1.667    3.000    0.000    4.667 
#    0.000    1.667    0.000    0.500    0.000    7.000 
#    0.000    0.000    0.000    0.000    0.000    0.000 
#
# Total GULP energy -595217.750278 kJ/mol
# GULP energy per Si atom -12400.369797 kJ/mol
# Density = 1.843506 g / cm^3
# Si number density = 18.477116 Si / 1000 Ang^3
#
#
#
# Elastic Constant Matrix: (Units=GPa)
#
#
# Indices 1 2 3 4 5 6 
#
# 1 78.2383 42.9982 39.6993 0.0000 0.0000 0.0000
# 2 42.9982 110.4761 49.5624 0.0000 0.0000 0.0000
# 3 39.6993 49.5624 96.8592 0.0000 0.0000 0.0000
# 4 0.0000 0.0000 0.0000 0.5849 0.0000 0.0000
# 5 0.0000 0.0000 0.0000 0.0000 14.4879 0.0000
# 6 0.0000 0.0000 0.0000 0.0000 0.0000 29.1026
#
#
#
# Elastic Compliance Matrix: (Units=1/GPa)
#
#
# Indices 1 2 3 4 5 6 
#
# 1 0.017882 -0.004766 -0.004891 0.000000 0.000000 0.000000
# 2 -0.004766 0.013019 -0.004708 0.000000 0.000000 0.000000
# 3 -0.004891 -0.004708 0.014738 0.000000 0.000000 0.000000
# 4 0.000000 0.000000 0.000000 1.709550 0.000000 0.000000
# 5 0.000000 0.000000 0.000000 0.000000 0.069023 0.000000
# 6 0.000000 0.000000 0.000000 0.000000 0.000000 0.034361
#
#
# Mechanical properties :
#
#
# Convention : Reuss Voigt Hill
#
# Bulk Modulus (GPa) = 59.13848 61.12149 60.12998
# Shear Modulus (GPa) = 2.64139 19.05599 10.84869
#
# Velocity S-wave (km/s) = 1.19693 3.21492 2.42573
# Velocity P-wave (km/s) = 5.82975 6.85071 6.36075
#
# Compressibility (1/GPa) = 0.01690947
#
# Stress axis : x y z
#
# Youngs Moduli (GPa) = 55.92133 76.81116 67.85165
#
# Poissons Ratio (x) = 0.36607 0.33184
# Poissons Ratio (y) = 0.26651 0.31947
# Poissons Ratio (z) = 0.27349 0.36166
#
# Static dielectric constant tensor:
#      x y z
#    x 3.396030 0.000000 0.000000 
#    y 0.000000 3.660550 0.000000 
#    z 0.000000 0.000000 3.365240 
# 
# 
# High freq. dielectric constant tensor:
#      x y z
#    x 1.718190 0.000000 0.000000 
#    y 0.000000 1.726420 0.000000 
#    z 0.000000 0.000000 1.695070 
# 
# From -- ./inp_files/60236.got.cif
#   From: 2010.03.12/outbox.cif.g09.slc.cpg/sg65_31_cif.got.tgz:60236.got - 2010.04.10 20:52:16.
