data_PCOD8270423
_publ_section_title
;
Structure prediction by ZEFSAII (Michael W. Deem and Ramdas Pophale) SiO2 
 PCOD8270423
Probable space group: C M M M
;
_chemical_formula_sum "Si O2"
_cell_formula_units_Z 120
_cell_length_a 29.273677
_cell_length_b 9.083333
_cell_length_c 25.459656
_cell_angle_alpha 90.000000
_cell_angle_beta 90.000000
_cell_angle_gamma 90.000000
_cell_volume 6769.787614
_symmetry_space_group_name_H-M "C M M M"
_symmetry_group_IT_number 65
_symmetry_cell_setting 'orthorhombic'
loop_
_space_group_symop_operation_xyz
x,y,z
-x,-y,z
x,-y,-z
-x,y,-z
-x,-y,-z
x,y,-z
-x,y,z
x,-y,z
1/2+x,1/2+y,z
1/2-x,1/2-y,z
1/2+x,1/2-y,-z
1/2-x,1/2+y,-z
1/2-x,1/2-y,-z
1/2+x,1/2+y,-z
1/2-x,1/2+y,z
1/2+x,1/2-y,z
loop_
_atom_site_type_symbol
_atom_site_label
_atom_site_fract_x
_atom_site_fract_y
_atom_site_fract_z
Si Si1 0.702980 0.830269 0.500000
Si Si2 0.051899 0.171867 0.258121
Si Si3 0.204382 0.169228 0.092190
Si Si4 0.552882 0.665823 0.862716
Si Si5 0.201344 0.672475 0.386322
Si Si6 0.637812 0.825465 0.708315
Si Si7 0.296057 0.329621 0.215472
Si Si8 0.883561 0.332008 0.058995
O O1 0.750000 0.750000 0.500000
O O2 0.678948 0.790194 0.555802
O O3 0.714863 0.000000 0.500000
O O4 0.060007 0.214256 0.197397
O O5 0.085753 0.267634 0.294442
O O6 0.000000 0.209961 0.274584
O O7 0.061758 0.000000 0.266819
O O8 0.250000 0.250000 0.073373
O O9 0.196467 0.190219 0.153937
O O10 0.162313 0.238105 0.061631
O O11 0.208968 0.000000 0.076491
O O12 0.500000 0.671773 0.877781
O O13 0.571835 0.500000 0.870838
O O14 0.578893 0.776361 0.900434
O O15 0.210575 0.500000 0.379984
O O16 0.250000 0.750000 0.377133
O O17 0.164365 0.726302 0.344014
O O18 0.661006 0.748603 0.758133
O O19 0.638343 0.000000 0.715281
O O20 0.293262 0.500000 0.232020
O O21 0.250000 0.250000 0.234876
O O22 0.871901 0.500000 0.073175
O O23 0.903331 0.317905 0.000000
#
# Coordination Sequence:
#
# PCOD8270423 Si02
#       8
#     8  16  16  16  16  16  16  16
#     4   8  14  28  46  62  89 130 171 209 244 277
#     4   9  19  36  55  74  97 126 160 197 240 290
#     4  10  21  37  56  74  94 125 164 201 237 281
#     4   9  19  37  59  79  98 123 157 195 236 287
#     4   9  18  30  45  68  98 133 171 207 242 282
#     4  11  21  30  45  73 104 131 161 199 244 291
#     4  10  20  33  49  71  99 130 162 195 235 285
#     4  11  24  38  52  74 102 128 156 193 237 285
#
# _framework density 17.725814
#
# number of rings (size 3 to 8) (size 9 to 14) (size 15 to 20)
#    0.000    2.267    0.000    3.600    0.000    9.600 
#    0.000    2.667    0.000    0.000    0.000    0.467 
#    0.000    3.733    0.000    0.000    0.000    0.000 
#
# Total GULP energy -743909.672983 kJ/mol
# GULP energy per Si atom -12398.494550 kJ/mol
# Density = 1.768547 g / cm^3
# Si number density = 17.725814 Si / 1000 Ang^3
#
#
#
# Elastic Constant Matrix: (Units=GPa)
#
#
# Indices 1 2 3 4 5 6 
#
# 1 97.0560 45.1876 47.6945 0.0000 0.0000 0.0000
# 2 45.1876 88.8266 40.9526 0.0000 0.0000 0.0000
# 3 47.6945 40.9526 73.3441 0.0000 0.0000 0.0000
# 4 0.0000 0.0000 0.0000 20.3064 0.0000 0.0000
# 5 0.0000 0.0000 0.0000 0.0000 17.5567 0.0000
# 6 0.0000 0.0000 0.0000 0.0000 0.0000 34.9984
#
#
#
# Elastic Compliance Matrix: (Units=1/GPa)
#
#
# Indices 1 2 3 4 5 6 
#
# 1 0.016442 -0.004626 -0.008109 0.000000 0.000000 0.000000
# 2 -0.004626 0.016462 -0.006184 0.000000 0.000000 0.000000
# 3 -0.008109 -0.006184 0.022360 0.000000 0.000000 0.000000
# 4 0.000000 0.000000 0.000000 0.049246 0.000000 0.000000
# 5 0.000000 0.000000 0.000000 0.000000 0.056958 0.000000
# 6 0.000000 0.000000 0.000000 0.000000 0.000000 0.028573
#
#
# Mechanical properties :
#
#
# Convention : Reuss Voigt Hill
#
# Bulk Modulus (GPa) = 57.38158 58.54400 57.96279
# Shear Modulus (GPa) = 21.39616 22.93179 22.16397
#
# Velocity S-wave (km/s) = 3.47805 3.60070 3.53991
# Velocity P-wave (km/s) = 6.96930 7.09831 7.03410
#
# Compressibility (1/GPa) = 0.01742720
#
# Stress axis : x y z
#
# Youngs Moduli (GPa) = 60.82047 60.74597 44.72202
#
# Poissons Ratio (x) = 0.28099 0.36265
# Poissons Ratio (y) = 0.28133 0.27655
# Poissons Ratio (z) = 0.49320 0.37564
#
# Static dielectric constant tensor:
#      x y z
#    x 3.238630 0.000000 0.000000 
#    y 0.000000 3.346120 0.000000 
#    z 0.000000 0.000000 3.571550 
# 
# 
# High freq. dielectric constant tensor:
#      x y z
#    x 1.673750 0.000000 0.000000 
#    y 0.000000 1.693400 0.000000 
#    z 0.000000 0.000000 1.674920 
# 
# From -- ./inp_files/76190.got.cif
#   From: 2010.03.12/outbox.cif.g09.slc.cpg/sg65_39_cif.got.tgz:76190.got - 2010.04.10 20:52:16.
