data_PCOD8270552
_publ_section_title
;
Structure prediction by ZEFSAII (Michael W. Deem and Ramdas Pophale) SiO2 
 PCOD8270552
Probable space group: C M M M
;
_chemical_formula_sum "Si O2"
_cell_formula_units_Z 96
_cell_length_a 9.219965
_cell_length_b 28.889917
_cell_length_c 20.836925
_cell_angle_alpha 90.000000
_cell_angle_beta 90.000000
_cell_angle_gamma 90.000000
_cell_volume 5550.207182
_symmetry_space_group_name_H-M "C M M M"
_symmetry_group_IT_number 65
_symmetry_cell_setting 'orthorhombic'
loop_
_space_group_symop_operation_xyz
x,y,z
-x,-y,z
x,-y,-z
-x,y,-z
-x,-y,-z
x,y,-z
-x,y,z
x,-y,z
1/2+x,1/2+y,z
1/2-x,1/2-y,z
1/2+x,1/2-y,-z
1/2-x,1/2+y,-z
1/2-x,1/2-y,-z
1/2+x,1/2+y,-z
1/2-x,1/2+y,z
1/2+x,1/2-y,z
loop_
_atom_site_type_symbol
_atom_site_label
_atom_site_fract_x
_atom_site_fract_y
_atom_site_fract_z
Si Si1 0.171942 0.298800 0.186343
Si Si2 0.831305 0.052134 0.877148
Si Si3 0.332037 0.051122 0.745042
Si Si4 0.829564 0.297487 0.571896
Si Si5 0.166189 0.635216 0.071643
Si Si6 0.329310 0.144942 0.689891
O O1 0.250000 0.250000 0.184312
O O2 0.220494 0.327183 0.123163
O O3 0.229229 0.326560 0.248793
O O4 0.000000 0.291014 0.187871
O O5 0.762605 0.058406 0.807585
O O6 0.758444 0.088141 0.925430
O O7 0.000000 0.063412 0.871654
O O8 0.805054 0.000000 0.902939
O O9 0.500000 0.057603 0.764766
O O10 0.284890 0.090742 0.694449
O O11 0.305609 0.000000 0.714869
O O12 0.793109 0.315165 0.500000
O O13 0.750000 0.250000 0.587212
O O14 0.768551 0.334942 0.622840
O O15 0.000000 0.288773 0.580006
O O16 0.000000 0.622189 0.086177
O O17 0.184553 0.656006 0.000000
O O18 0.500000 0.150028 0.689363
#
# Coordination Sequence:
#
# PCOD8270552 Si02
#       6
#    16  16  16  16  16  16
#     4  10  20  34  50  70  94 121 157 201 242 282
#     4  10  20  33  50  74 102 126 152 195 249 294
#     4   9  16  29  51  73  94 125 162 196 234 285
#     4   9  17  29  46  69  99 132 162 194 235 282
#     4  10  21  37  54  70  92 126 165 200 236 286
#     4   9  16  29  49  72  97 124 158 198 237 276
#
# _framework density 17.296652000000002
#
# number of rings (size 3 to 8) (size 9 to 14) (size 15 to 20)
#    0.000    2.500    1.667    1.000    0.000    2.667 
#    0.000    2.500    0.000    0.500    0.000    3.500 
#    0.000    0.000    0.000    8.333    0.000    8.667 
#
# Total GULP energy -595032.029751 kJ/mol
# GULP energy per Si atom -12396.500620 kJ/mol
# Density = 1.725728 g / cm^3
# Si number density = 17.296652 Si / 1000 Ang^3
#
#
#
# Elastic Constant Matrix: (Units=GPa)
#
#
# Indices 1 2 3 4 5 6 
#
# 1 39.8543 35.3531 23.7477 0.0000 0.0000 0.0000
# 2 35.3531 140.9141 79.0400 0.0000 0.0000 0.0000
# 3 23.7477 79.0400 127.1286 0.0000 0.0000 0.0000
# 4 0.0000 0.0000 0.0000 29.5673 0.0000 0.0000
# 5 0.0000 0.0000 0.0000 0.0000 11.1391 0.0000
# 6 0.0000 0.0000 0.0000 0.0000 0.0000 27.6663
#
#
#
# Elastic Compliance Matrix: (Units=1/GPa)
#
#
# Indices 1 2 3 4 5 6 
#
# 1 0.032468 -0.007284 -0.001536 0.000000 0.000000 0.000000
# 2 -0.007284 0.012531 -0.006430 0.000000 0.000000 0.000000
# 3 -0.001536 -0.006430 0.012151 0.000000 0.000000 0.000000
# 4 0.000000 0.000000 0.000000 0.033821 0.000000 0.000000
# 5 0.000000 0.000000 0.000000 0.000000 0.089774 0.000000
# 6 0.000000 0.000000 0.000000 0.000000 0.000000 0.036145
#
#
# Mechanical properties :
#
#
# Convention : Reuss Voigt Hill
#
# Bulk Modulus (GPa) = 37.52517 64.90875 51.21696
# Shear Modulus (GPa) = 19.51044 24.99163 22.25103
#
# Velocity S-wave (km/s) = 3.36220 3.80528 3.59058
# Velocity P-wave (km/s) = 6.06751 7.54421 6.84579
#
# Compressibility (1/GPa) = 0.02664878
#
# Stress axis : x y z
#
# Youngs Moduli (GPa) = 30.79942 79.80446 82.29889
#
# Poissons Ratio (x) = 0.58129 0.12644
# Poissons Ratio (y) = 0.22434 0.52919
# Poissons Ratio (z) = 0.04732 0.51315
#
# Static dielectric constant tensor:
#      x y z
#    x 3.077750 0.000000 0.000000 
#    y 0.000000 3.426570 0.000000 
#    z 0.000000 0.000000 3.395510 
# 
# 
# High freq. dielectric constant tensor:
#      x y z
#    x 1.649290 0.000000 0.000000 
#    y 0.000000 1.670960 0.000000 
#    z 0.000000 0.000000 1.656220 
# 
# From -- ./inp_files/60214.got.cif
#   From: 2010.03.12/outbox.cif.g09.slc.cpg/sg65_31_cif.got.tgz:60214.got - 2010.04.10 20:52:16.
