data_PCOD8270294
_publ_section_title
;
Structure prediction by ZEFSAII (Michael W. Deem and Ramdas Pophale) SiO2 
 PCOD8270294
Probable space group: C M M M
;
_chemical_formula_sum "Si O2"
_cell_formula_units_Z 112
_cell_length_a 9.206655
_cell_length_b 28.298183
_cell_length_c 28.697102
_cell_angle_alpha 90.000000
_cell_angle_beta 90.000000
_cell_angle_gamma 90.000000
_cell_volume 7476.502129
_symmetry_space_group_name_H-M "C M M M"
_symmetry_group_IT_number 65
_symmetry_cell_setting 'orthorhombic'
loop_
_space_group_symop_operation_xyz
x,y,z
-x,-y,z
x,-y,-z
-x,y,-z
-x,-y,-z
x,y,-z
-x,y,z
x,-y,z
1/2+x,1/2+y,z
1/2-x,1/2-y,z
1/2+x,1/2-y,-z
1/2-x,1/2+y,-z
1/2-x,1/2-y,-z
1/2+x,1/2+y,-z
1/2-x,1/2+y,z
1/2+x,1/2-y,z
loop_
_atom_site_type_symbol
_atom_site_label
_atom_site_fract_x
_atom_site_fract_y
_atom_site_fract_z
Si Si1 0.672542 0.051803 0.500000
Si Si2 0.663567 0.056618 0.599899
Si Si3 0.332125 0.701551 0.899244
Si Si4 0.668282 0.944339 0.220960
Si Si5 0.163333 0.943759 0.688080
Si Si6 0.329456 0.396966 0.135710
Si Si7 0.165722 0.444300 0.053047
Si Si8 0.832402 0.797924 0.000000
O O1 0.500000 0.046402 0.500000
O O2 0.717018 0.077045 0.549065
O O3 0.745096 0.000000 0.500000
O O4 0.500000 0.073611 0.610991
O O5 0.767410 0.076505 0.640408
O O6 0.667391 0.000000 0.597839
O O7 0.500000 0.715433 0.897810
O O8 0.250000 0.750000 0.886654
O O9 0.297852 0.659491 0.863143
O O10 0.290797 0.678336 0.950345
O O11 0.500000 0.930556 0.223095
O O12 0.743409 0.925808 0.268145
O O13 0.742133 0.919200 0.177796
O O14 0.690047 0.000000 0.214734
O O15 0.000000 0.924220 0.692663
O O16 0.165106 0.000000 0.686551
O O17 0.500000 0.407666 0.141161
O O18 0.277188 0.418797 0.087131
O O19 0.185077 0.500000 0.059046
O O20 0.000000 0.429994 0.065343
O O21 0.202634 0.429187 0.000000
O O22 0.750000 0.750000 0.000000
O O23 0.000000 0.786014 0.000000
#
# Coordination Sequence:
#
# PCOD8270294 Si02
#       8
#     8  16  16  16  16  16  16   8
#     4   7  10  16  27  43  63  89 123 161 196 235
#     4   8  12  19  31  46  65  92 126 161 199 242
#     4   9  19  33  49  67  88 110 131 158 191 232
#     4  10  20  33  47  61  79 106 139 172 205 245
#     4   9  16  25  37  53  73  96 125 165 210 248
#     4  11  22  32  47  69  89 107 130 164 205 243
#     4   9  19  35  50  64  85 112 140 166 192 231
#     4   8  14  28  46  62  81 102 123 147 176 213
#
# _framework density 14.980267
#
# number of rings (size 3 to 8) (size 9 to 14) (size 15 to 20)
#    0.000    2.929    0.000    3.000    1.000    6.000 
#    0.000    1.071    0.000    2.143    0.000    0.000 
#    0.000    0.000    0.000    0.000    0.000    0.000 
#
# Total GULP energy -693743.599928 kJ/mol
# GULP energy per Si atom -12388.278570 kJ/mol
# Density = 1.494617 g / cm^3
# Si number density = 14.980267 Si / 1000 Ang^3
#
#
#
# Elastic Constant Matrix: (Units=GPa)
#
#
# Indices 1 2 3 4 5 6 
#
# 1 92.4635 27.7802 66.6314 0.0000 0.0000 0.0000
# 2 27.7802 28.7805 32.0910 0.0000 0.0000 0.0000
# 3 66.6314 32.0910 124.0664 0.0000 0.0000 0.0000
# 4 0.0000 0.0000 0.0000 1.6611 0.0000 0.0000
# 5 0.0000 0.0000 0.0000 0.0000 18.2969 0.0000
# 6 0.0000 0.0000 0.0000 0.0000 0.0000 15.2098
#
#
#
# Elastic Compliance Matrix: (Units=1/GPa)
#
#
# Indices 1 2 3 4 5 6 
#
# 1 0.019513 -0.010047 -0.007881 0.000000 0.000000 0.000000
# 2 -0.010047 0.054002 -0.008572 0.000000 0.000000 0.000000
# 3 -0.007881 -0.008572 0.014510 0.000000 0.000000 0.000000
# 4 0.000000 0.000000 0.000000 0.602023 0.000000 0.000000
# 5 0.000000 0.000000 0.000000 0.000000 0.054654 0.000000
# 6 0.000000 0.000000 0.000000 0.000000 0.000000 0.065747
#
#
# Mechanical properties :
#
#
# Convention : Reuss Voigt Hill
#
# Bulk Modulus (GPa) = 28.55163 55.36842 41.96003
# Shear Modulus (GPa) = 5.71348 14.95407 10.33377
#
# Velocity S-wave (km/s) = 1.95507 3.16294 2.62930
# Velocity P-wave (km/s) = 4.91907 7.09789 6.10644
#
# Compressibility (1/GPa) = 0.03502426
#
# Stress axis : x y z
#
# Youngs Moduli (GPa) = 51.24835 18.51783 68.91848
#
# Poissons Ratio (x) = 0.18606 0.54313
# Poissons Ratio (y) = 0.51491 0.59077
# Poissons Ratio (z) = 0.40387 0.15874
#
# Static dielectric constant tensor:
#      x y z
#    x 2.959530 0.000000 0.000000 
#    y 0.000000 2.416830 0.000000 
#    z 0.000000 0.000000 3.067500 
# 
# 
# High freq. dielectric constant tensor:
#      x y z
#    x 1.579110 0.000000 0.000000 
#    y 0.000000 1.507710 0.000000 
#    z 0.000000 0.000000 1.578290 
# 
# From -- ./inp_files/77163.got.cif
#   From: 2010.03.12/outbox.cif.g09.slc.cpg/sg65_39_cif.got.tgz:77163.got - 2010.04.10 20:52:16.
