data_PCOD8270785
_publ_section_title
;
Structure prediction by ZEFSAII (Michael W. Deem and Ramdas Pophale) SiO2 
 PCOD8270785
Probable space group: C M M M
;
_chemical_formula_sum "Si O2"
_cell_formula_units_Z 88
_cell_length_a 17.284915
_cell_length_b 20.982570
_cell_length_c 14.096148
_cell_angle_alpha 90.000000
_cell_angle_beta 90.000000
_cell_angle_gamma 90.000000
_cell_volume 5112.418288
_symmetry_space_group_name_H-M "C M M M"
_symmetry_group_IT_number 65
_symmetry_cell_setting 'orthorhombic'
loop_
_space_group_symop_operation_xyz
x,y,z
-x,-y,z
x,-y,-z
-x,y,-z
-x,-y,-z
x,y,-z
-x,y,z
x,-y,z
1/2+x,1/2+y,z
1/2-x,1/2-y,z
1/2+x,1/2-y,-z
1/2-x,1/2+y,-z
1/2-x,1/2-y,-z
1/2+x,1/2+y,-z
1/2-x,1/2+y,z
1/2+x,1/2-y,z
loop_
_atom_site_type_symbol
_atom_site_label
_atom_site_fract_x
_atom_site_fract_y
_atom_site_fract_z
Si Si1 0.591451 0.000000 0.387477
Si Si2 0.301094 0.686851 0.605841
Si Si3 0.587796 0.757789 0.730842
Si Si4 0.086381 0.163381 0.108473
Si Si5 0.774060 0.073236 0.891923
Si Si6 0.319772 0.112693 0.716573
O O1 0.629587 0.938049 0.340647
O O2 0.500000 0.000000 0.366074
O O3 0.607313 0.000000 0.500000
O O4 0.320527 0.663866 0.500000
O O5 0.250000 0.750000 0.605141
O O6 0.380395 0.704753 0.658098
O O7 0.257732 0.628688 0.657825
O O8 0.500000 0.770779 0.702464
O O9 0.598180 0.729149 0.835569
O O10 0.631027 0.824116 0.728567
O O11 0.149748 0.111755 0.139513
O O12 0.000000 0.135414 0.127564
O O13 0.097501 0.182561 0.000000
O O14 0.703191 0.087794 0.821044
O O15 0.797610 0.000000 0.884011
O O16 0.748475 0.090146 0.000000
#
# Coordination Sequence:
#
# PCOD8270785 Si02
#       6
#     8  16  16  16  16  16
#     4  11  24  40  59  81 106 143 189 229 267 312
#     4   9  18  32  51  75 102 133 172 219 269 319
#     4  10  20  33  52  78 108 141 177 219 271 326
#     4   9  18  33  53  80 112 141 175 221 270 323
#     4  10  20  34  55  82 108 141 183 220 265 325
#     4  11  20  36  55  79 108 141 180 227 273 314
#
# _framework density 17.212989
#
# number of rings (size 3 to 8) (size 9 to 14) (size 15 to 20)
#    0.000    2.091    2.727    1.091    0.000    2.182 
#    0.000    3.636    0.000    2.182    0.000    0.000 
#    0.000    5.818    0.000    0.000    0.000    0.000 
#
# Total GULP energy -545536.356502 kJ/mol
# GULP energy per Si atom -12398.553557 kJ/mol
# Density = 1.717381 g / cm^3
# Si number density = 17.212989 Si / 1000 Ang^3
#
#
#
# Elastic Constant Matrix: (Units=GPa)
#
#
# Indices 1 2 3 4 5 6 
#
# 1 104.2851 55.2304 60.1045 0.0000 0.0000 0.0000
# 2 55.2304 97.3421 47.0657 0.0000 0.0000 0.0000
# 3 60.1045 47.0657 110.4927 0.0000 0.0000 0.0000
# 4 0.0000 0.0000 0.0000 24.9327 0.0000 0.0000
# 5 0.0000 0.0000 0.0000 0.0000 27.8162 0.0000
# 6 0.0000 0.0000 0.0000 0.0000 0.0000 27.8622
#
#
#
# Elastic Compliance Matrix: (Units=1/GPa)
#
#
# Indices 1 2 3 4 5 6 
#
# 1 0.016602 -0.006364 -0.006320 0.000000 0.000000 0.000000
# 2 -0.006364 0.015377 -0.003088 0.000000 0.000000 0.000000
# 3 -0.006320 -0.003088 0.013804 0.000000 0.000000 0.000000
# 4 0.000000 0.000000 0.000000 0.040108 0.000000 0.000000
# 5 0.000000 0.000000 0.000000 0.000000 0.035950 0.000000
# 6 0.000000 0.000000 0.000000 0.000000 0.000000 0.035891
#
#
# Mechanical properties :
#
#
# Convention : Reuss Voigt Hill
#
# Bulk Modulus (GPa) = 70.23366 70.76903 70.50135
# Shear Modulus (GPa) = 25.77011 26.10349 25.93680
#
# Velocity S-wave (km/s) = 3.87348 3.89845 3.88598
# Velocity P-wave (km/s) = 7.80361 7.84008 7.82187
#
# Compressibility (1/GPa) = 0.01423819
#
# Stress axis : x y z
#
# Youngs Moduli (GPa) = 60.23315 65.03201 72.44339
#
# Poissons Ratio (x) = 0.41386 0.45786
# Poissons Ratio (y) = 0.38332 0.22373
# Poissons Ratio (z) = 0.38069 0.20084
#
# Static dielectric constant tensor:
#      x y z
#    x 3.261110 0.000000 0.000000 
#    y 0.000000 3.108010 0.000000 
#    z 0.000000 0.000000 3.421340 
# 
# 
# High freq. dielectric constant tensor:
#      x y z
#    x 1.662280 0.000000 0.000000 
#    y 0.000000 1.656580 0.000000 
#    z 0.000000 0.000000 1.675320 
# 
# From -- ./inp_files/42510.got.cif
#   From: 2010.03.12/outbox.cif.g09.slc.cpg/sg65_22_cif.got.tgz:42510.got - 2010.04.10 20:52:16.
