data_PCOD8270783
_publ_section_title
;
Structure prediction by ZEFSAII (Michael W. Deem and Ramdas Pophale) SiO2 
 PCOD8270783
Probable space group: C M M M
;
_chemical_formula_sum "Si O2"
_cell_formula_units_Z 88
_cell_length_a 8.907409
_cell_length_b 18.331791
_cell_length_c 28.031070
_cell_angle_alpha 90.000000
_cell_angle_beta 90.000000
_cell_angle_gamma 90.000000
_cell_volume 4577.158666
_symmetry_space_group_name_H-M "C M M M"
_symmetry_group_IT_number 65
_symmetry_cell_setting 'orthorhombic'
loop_
_space_group_symop_operation_xyz
x,y,z
-x,-y,z
x,-y,-z
-x,y,-z
-x,-y,-z
x,y,-z
-x,y,z
x,-y,z
1/2+x,1/2+y,z
1/2-x,1/2-y,z
1/2+x,1/2-y,-z
1/2-x,1/2+y,-z
1/2-x,1/2-y,-z
1/2+x,1/2+y,-z
1/2-x,1/2+y,z
1/2+x,1/2-y,z
loop_
_atom_site_type_symbol
_atom_site_label
_atom_site_fract_x
_atom_site_fract_y
_atom_site_fract_z
Si Si1 0.674385 0.084255 0.315930
Si Si2 0.172578 0.083645 0.055102
Si Si3 0.678637 0.082005 0.500000
Si Si4 0.671385 0.586083 0.219078
Si Si5 0.822286 0.328632 0.408961
Si Si6 0.323387 0.828094 0.864494
O O1 0.500000 0.096814 0.304508
O O2 0.769223 0.111213 0.270613
O O3 0.728912 0.131467 0.360689
O O4 0.706511 0.000000 0.327962
O O5 0.277481 0.136263 0.085408
O O6 0.000000 0.095602 0.070282
O O7 0.218635 0.000000 0.064496
O O8 0.195784 0.103919 0.000000
O O9 0.500000 0.078849 0.500000
O O10 0.737813 0.123918 0.453292
O O11 0.744374 0.000000 0.500000
O O12 0.500000 0.611987 0.213479
O O13 0.686977 0.500000 0.213403
O O14 0.772321 0.621221 0.178608
O O15 0.750000 0.250000 0.411410
O O16 0.000000 0.320551 0.411207
O O17 0.500000 0.818854 0.863208
O O18 0.250000 0.750000 0.858640
#
# Coordination Sequence:
#
# PCOD8270783 Si02
#       6
#    16  16   8  16  16  16
#     4   9  18  34  55  78 104 138 183 227 265 312
#     4   9  19  38  63  88 115 148 185 226 273 326
#     4   9  17  32  55  79 102 135 182 226 262 309
#     4  10  21  38  60  84 111 144 182 226 276 330
#     4  10  20  33  52  78 108 141 175 218 270 322
#     4  12  25  39  57  82 114 150 187 230 278 328
#
# _framework density 19.225902000000001
#
# number of rings (size 3 to 8) (size 9 to 14) (size 15 to 20)
#    0.000    2.091    0.000    4.091    0.000    8.000 
#    0.000    2.727    0.000    2.182    0.000    0.000 
#    0.000    0.000    0.000    0.000    0.000    0.000 
#
# Total GULP energy -545768.688798 kJ/mol
# GULP energy per Si atom -12403.833836 kJ/mol
# Density = 1.918214 g / cm^3
# Si number density = 19.225902 Si / 1000 Ang^3
#
#
#
# Elastic Constant Matrix: (Units=GPa)
#
#
# Indices 1 2 3 4 5 6 
#
# 1 90.8851 33.9219 50.4653 0.0000 0.0000 0.0000
# 2 33.9219 79.3327 55.6445 0.0000 0.0000 0.0000
# 3 50.4653 55.6445 131.4158 0.0000 0.0000 0.0000
# 4 0.0000 0.0000 0.0000 10.7543 0.0000 0.0000
# 5 0.0000 0.0000 0.0000 0.0000 26.4751 0.0000
# 6 0.0000 0.0000 0.0000 0.0000 0.0000 2.2777
#
#
#
# Elastic Compliance Matrix: (Units=1/GPa)
#
#
# Indices 1 2 3 4 5 6 
#
# 1 0.014560 -0.003277 -0.004204 0.000000 0.000000 0.000000
# 2 -0.003277 0.018668 -0.006646 0.000000 0.000000 0.000000
# 3 -0.004204 -0.006646 0.012038 0.000000 0.000000 0.000000
# 4 0.000000 0.000000 0.000000 0.092986 0.000000 0.000000
# 5 0.000000 0.000000 0.000000 0.000000 0.037771 0.000000
# 6 0.000000 0.000000 0.000000 0.000000 0.000000 0.439046
#
#
# Mechanical properties :
#
#
# Convention : Reuss Voigt Hill
#
# Bulk Modulus (GPa) = 58.78143 64.63299 61.70721
# Shear Modulus (GPa) = 7.70424 18.67488 13.18956
#
# Velocity S-wave (km/s) = 2.00398 3.12001 2.62206
# Velocity P-wave (km/s) = 5.99958 6.83154 6.42903
#
# Compressibility (1/GPa) = 0.01701217
#
# Stress axis : x y z
#
# Youngs Moduli (GPa) = 68.68002 53.56749 83.07230
#
# Poissons Ratio (x) = 0.17556 0.34920
# Poissons Ratio (y) = 0.22509 0.55209
# Poissons Ratio (z) = 0.28870 0.35601
#
# Static dielectric constant tensor:
#      x y z
#    x 3.409200 0.000000 0.000000 
#    y 0.000000 3.515820 0.000000 
#    z 0.000000 0.000000 3.689510 
# 
# 
# High freq. dielectric constant tensor:
#      x y z
#    x 1.734810 0.000000 0.000000 
#    y 0.000000 1.749450 0.000000 
#    z 0.000000 0.000000 1.764580 
# 
# From -- ./inp_files/76492.got.cif
#   From: 2010.03.12/outbox.cif.g09.slc.cpg/sg65_39_cif.got.tgz:76492.got - 2010.04.10 20:52:16.
