data_PCOD8270745
_publ_section_title
;
Structure prediction by ZEFSAII (Michael W. Deem and Ramdas Pophale) SiO2 
 PCOD8270745
Probable space group: C M M M
;
_chemical_formula_sum "Si O2"
_cell_formula_units_Z 120
_cell_length_a 9.003987
_cell_length_b 26.521323
_cell_length_c 27.645007
_cell_angle_alpha 90.000000
_cell_angle_beta 90.000000
_cell_angle_gamma 90.000000
_cell_volume 6601.562637
_symmetry_space_group_name_H-M "C M M M"
_symmetry_group_IT_number 65
_symmetry_cell_setting 'orthorhombic'
loop_
_space_group_symop_operation_xyz
x,y,z
-x,-y,z
x,-y,-z
-x,y,-z
-x,-y,-z
x,y,-z
-x,y,z
x,-y,z
1/2+x,1/2+y,z
1/2-x,1/2-y,z
1/2+x,1/2-y,-z
1/2-x,1/2+y,-z
1/2-x,1/2-y,-z
1/2+x,1/2+y,-z
1/2-x,1/2+y,z
1/2+x,1/2-y,z
loop_
_atom_site_type_symbol
_atom_site_label
_atom_site_fract_x
_atom_site_fract_y
_atom_site_fract_z
Si Si1 0.823540 0.360943 0.136887
Si Si2 0.323911 0.500000 0.553915
Si Si3 0.174533 0.801173 0.555568
Si Si4 0.676322 0.598534 0.611508
Si Si5 0.826530 0.600815 0.285894
Si Si6 0.831423 0.057943 0.803986
Si Si7 0.672399 0.697709 0.055982
Si Si8 0.169726 0.699802 0.770634
O O1 0.759477 0.414432 0.153689
O O2 0.750151 0.346573 0.086012
O O3 0.775075 0.319996 0.177228
O O4 0.000000 0.365135 0.131691
O O5 0.500000 0.500000 0.551475
O O6 0.256376 0.500000 0.500000
O O7 0.269276 0.449272 0.580329
O O8 0.221117 0.810443 0.500000
O O9 0.250000 0.750000 0.575648
O O10 0.228682 0.849707 0.585847
O O11 0.000000 0.793980 0.560705
O O12 0.500000 0.598111 0.618857
O O13 0.755823 0.592646 0.662326
O O14 0.746448 0.564335 0.247900
O O15 0.800203 0.658461 0.270337
O O16 0.000000 0.587155 0.286697
O O17 0.000000 0.078747 0.801119
O O18 0.830478 0.000000 0.818531
O O19 0.500000 0.702064 0.069664
O O20 0.750000 0.750000 0.069569
O O21 0.695396 0.684238 0.000000
O O22 0.250000 0.750000 0.754106
O O23 0.000000 0.713987 0.774822
#
# Coordination Sequence:
#
# PCOD8270745 Si02
#       8
#    16   8  16  16  16  16  16  16
#     4  10  20  34  53  79 109 142 181 223 273 328
#     4   9  18  34  57  81 103 129 165 213 262 311
#     4   9  18  33  53  76 102 134 172 213 257 307
#     4  10  20  34  54  79 104 132 170 214 261 315
#     4  10  22  37  51  74 107 139 171 209 260 314
#     4  10  21  37  58  80 103 134 176 223 267 317
#     4  10  20  33  51  78 113 151 189 229 273 320
#     4   9  19  33  49  71 100 136 174 211 253 305
#
# _framework density 18.177515
#
# number of rings (size 3 to 8) (size 9 to 14) (size 15 to 20)
#    0.000    2.333    0.000    3.200    0.933    8.800 
#    0.000    2.667    0.000    2.000    0.000    2.800 
#    0.000    0.000    0.000    0.000    0.000    0.000 
#
# Total GULP energy -744103.304775 kJ/mol
# GULP energy per Si atom -12401.721746 kJ/mol
# Density = 1.813614 g / cm^3
# Si number density = 18.177515 Si / 1000 Ang^3
#
#
#
# Elastic Constant Matrix: (Units=GPa)
#
#
# Indices 1 2 3 4 5 6 
#
# 1 86.0443 49.1417 53.1252 0.0000 0.0000 0.0000
# 2 49.1417 116.7424 56.9003 0.0000 0.0000 0.0000
# 3 53.1252 56.9003 117.3085 0.0000 0.0000 0.0000
# 4 0.0000 0.0000 0.0000 19.6874 0.0000 0.0000
# 5 0.0000 0.0000 0.0000 0.0000 29.4513 0.0000
# 6 0.0000 0.0000 0.0000 0.0000 0.0000 29.7901
#
#
#
# Elastic Compliance Matrix: (Units=1/GPa)
#
#
# Indices 1 2 3 4 5 6 
#
# 1 0.017903 -0.004694 -0.005831 0.000000 0.000000 0.000000
# 2 -0.004694 0.012449 -0.003912 0.000000 0.000000 0.000000
# 3 -0.005831 -0.003912 0.013063 0.000000 0.000000 0.000000
# 4 0.000000 0.000000 0.000000 0.050794 0.000000 0.000000
# 5 0.000000 0.000000 0.000000 0.000000 0.033954 0.000000
# 6 0.000000 0.000000 0.000000 0.000000 0.000000 0.033568
#
#
# Mechanical properties :
#
#
# Convention : Reuss Voigt Hill
#
# Bulk Modulus (GPa) = 68.77676 70.93661 69.85669
# Shear Modulus (GPa) = 25.58174 26.51430 26.04802
#
# Velocity S-wave (km/s) = 3.75551 3.82335 3.78958
# Velocity P-wave (km/s) = 7.53150 7.65505 7.59352
#
# Compressibility (1/GPa) = 0.01453979
#
# Stress axis : x y z
#
# Youngs Moduli (GPa) = 55.85709 80.32938 76.55339
#
# Poissons Ratio (x) = 0.37708 0.44636
# Poissons Ratio (y) = 0.26220 0.29951
# Poissons Ratio (z) = 0.32569 0.31428
#
# Static dielectric constant tensor:
#      x y z
#    x 3.369000 0.000000 0.000000 
#    y 0.000000 3.366980 0.000000 
#    z 0.000000 0.000000 3.315760 
# 
# 
# High freq. dielectric constant tensor:
#      x y z
#    x 1.704950 0.000000 0.000000 
#    y 0.000000 1.703000 0.000000 
#    z 0.000000 0.000000 1.699510 
# 
# From -- ./inp_files/73981.got.cif
#   From: 2010.03.12/outbox.cif.g09.slc.cpg/sg65_37_cif.got.tgz:73981.got - 2010.04.10 20:52:16.
