data_PCOD8270171
_publ_section_title
;
Structure prediction by ZEFSAII (Michael W. Deem and Ramdas Pophale) SiO2 
 PCOD8270171
Probable space group: C M M M
;
_chemical_formula_sum "Si O2"
_cell_formula_units_Z 88
_cell_length_a 14.606242
_cell_length_b 27.472006
_cell_length_c 12.710969
_cell_angle_alpha 90.000000
_cell_angle_beta 90.000000
_cell_angle_gamma 90.000000
_cell_volume 5100.438603
_symmetry_space_group_name_H-M "C M M M"
_symmetry_group_IT_number 65
_symmetry_cell_setting 'orthorhombic'
loop_
_space_group_symop_operation_xyz
x,y,z
-x,-y,z
x,-y,-z
-x,y,-z
-x,-y,-z
x,y,-z
-x,y,z
x,-y,z
1/2+x,1/2+y,z
1/2-x,1/2-y,z
1/2+x,1/2-y,-z
1/2-x,1/2+y,-z
1/2-x,1/2-y,-z
1/2+x,1/2+y,-z
1/2-x,1/2+y,z
1/2+x,1/2-y,z
loop_
_atom_site_type_symbol
_atom_site_label
_atom_site_fract_x
_atom_site_fract_y
_atom_site_fract_z
Si Si1 0.397078 0.610046 0.619343
Si Si2 0.225103 0.556983 0.305238
Si Si3 0.603926 0.322991 0.193567
Si Si4 0.895170 0.718602 0.121584
Si Si5 0.775460 0.372016 0.119077
Si Si6 0.396411 0.942166 0.500000
O O1 0.375362 0.624460 0.500000
O O2 0.500000 0.589065 0.631874
O O3 0.328617 0.568242 0.658908
O O4 0.385373 0.659646 0.685887
O O5 0.214595 0.500000 0.285775
O O6 0.201801 0.583127 0.195342
O O7 0.155666 0.576175 0.395264
O O8 0.500000 0.329591 0.151773
O O9 0.632485 0.266448 0.187599
O O10 0.668828 0.356744 0.121900
O O11 0.834249 0.673730 0.160147
O O12 0.000000 0.703953 0.140582
O O13 0.875625 0.730764 0.000000
O O14 0.801933 0.386967 0.000000
O O15 0.500000 0.921566 0.500000
O O16 0.396205 0.000000 0.500000
#
# Coordination Sequence:
#
# PCOD8270171 Si02
#       6
#    16  16  16  16  16   8
#     4   9  17  30  50  75 102 131 163 201 245 293
#     4  10  20  34  52  73  99 129 166 209 250 295
#     4   9  17  29  48  73 101 133 167 200 239 291
#     4   9  17  30  49  71  95 127 167 207 243 285
#     4  10  20  32  49  73 102 133 166 205 247 293
#     4   9  18  34  55  73  88 117 162 208 251 291
#
# _framework density 17.253419000000001
#
# number of rings (size 3 to 8) (size 9 to 14) (size 15 to 20)
#    0.000    2.636    0.909    1.091    0.000    4.000 
#    0.000    0.909    2.000    2.182    0.000   10.182 
#    0.000    0.000    0.000    0.000    0.000    0.000 
#
# Total GULP energy -545540.792033 kJ/mol
# GULP energy per Si atom -12398.654364 kJ/mol
# Density = 1.721415 g / cm^3
# Si number density = 17.253419 Si / 1000 Ang^3
#
#
#
# Elastic Constant Matrix: (Units=GPa)
#
#
# Indices 1 2 3 4 5 6 
#
# 1 82.0315 42.9251 39.1413 0.0000 0.0000 0.0000
# 2 42.9251 95.2375 55.4408 0.0000 0.0000 0.0000
# 3 39.1413 55.4408 99.5387 0.0000 0.0000 0.0000
# 4 0.0000 0.0000 0.0000 24.3547 0.0000 0.0000
# 5 0.0000 0.0000 0.0000 0.0000 21.6869 0.0000
# 6 0.0000 0.0000 0.0000 0.0000 0.0000 23.6900
#
#
#
# Elastic Compliance Matrix: (Units=1/GPa)
#
#
# Indices 1 2 3 4 5 6 
#
# 1 0.016749 -0.005497 -0.003524 0.000000 0.000000 0.000000
# 2 -0.005497 0.017342 -0.007498 0.000000 0.000000 0.000000
# 3 -0.003524 -0.007498 0.015608 0.000000 0.000000 0.000000
# 4 0.000000 0.000000 0.000000 0.041060 0.000000 0.000000
# 5 0.000000 0.000000 0.000000 0.000000 0.046111 0.000000
# 6 0.000000 0.000000 0.000000 0.000000 0.000000 0.042212
#
#
# Mechanical properties :
#
#
# Convention : Reuss Voigt Hill
#
# Bulk Modulus (GPa) = 60.02051 61.31355 60.66703
# Shear Modulus (GPa) = 22.97019 23.23302 23.10160
#
# Velocity S-wave (km/s) = 3.65271 3.67355 3.66315
# Velocity P-wave (km/s) = 7.25623 7.32171 7.28905
#
# Compressibility (1/GPa) = 0.01666097
#
# Stress axis : x y z
#
# Youngs Moduli (GPa) = 59.70645 57.66212 64.06924
#
# Poissons Ratio (x) = 0.31699 0.22579
# Poissons Ratio (y) = 0.32823 0.48037
# Poissons Ratio (z) = 0.21041 0.43233
#
# Static dielectric constant tensor:
#      x y z
#    x 3.439700 0.000000 0.000000 
#    y 0.000000 2.978680 0.000000 
#    z 0.000000 0.000000 3.205790 
# 
# 
# High freq. dielectric constant tensor:
#      x y z
#    x 1.678150 0.000000 0.000000 
#    y 0.000000 1.641610 0.000000 
#    z 0.000000 0.000000 1.659230 
# 
# From -- ./inp_files/25112.got.cif
#   From: 2010.03.12/outbox.cif.g09.slc.cpg/sg65_13_cif.got.tgz:25112.got - 2010.04.10 20:52:16.
