data_PCOD8270287
_publ_section_title
;
Structure prediction by ZEFSAII (Michael W. Deem and Ramdas Pophale) SiO2 
 PCOD8270287
Probable space group: C M M M
;
_chemical_formula_sum "Si O2"
_cell_formula_units_Z 72
_cell_length_a 23.242225
_cell_length_b 17.909151
_cell_length_c 9.182964
_cell_angle_alpha 90.000000
_cell_angle_beta 90.000000
_cell_angle_gamma 90.000000
_cell_volume 3822.395148
_symmetry_space_group_name_H-M "C M M M"
_symmetry_group_IT_number 65
_symmetry_cell_setting 'orthorhombic'
loop_
_space_group_symop_operation_xyz
x,y,z
-x,-y,z
x,-y,-z
-x,y,-z
-x,-y,-z
x,y,-z
-x,y,z
x,-y,z
1/2+x,1/2+y,z
1/2-x,1/2-y,z
1/2+x,1/2-y,-z
1/2-x,1/2+y,-z
1/2-x,1/2-y,-z
1/2+x,1/2+y,-z
1/2-x,1/2+y,z
1/2+x,1/2-y,z
loop_
_atom_site_type_symbol
_atom_site_label
_atom_site_fract_x
_atom_site_fract_y
_atom_site_fract_z
Si Si1 0.307936 0.000000 0.170941
Si Si2 0.187936 0.000000 0.326747
Si Si3 0.156708 0.363616 0.659390
Si Si4 0.651115 0.356165 0.836766
Si Si5 0.750000 0.250000 0.247248
Si Si6 0.433851 0.742382 0.665967
O O1 0.341907 0.075084 0.212750
O O2 0.251951 0.000000 0.268504
O O3 0.293635 0.000000 0.000000
O O4 0.157409 0.926100 0.269314
O O5 0.187234 0.000000 0.500000
O O6 0.158335 0.402144 0.500000
O O7 0.209510 0.304516 0.658706
O O8 0.096260 0.322500 0.682561
O O9 0.707620 0.303130 0.845441
O O10 0.595215 0.314144 0.778012
O O11 0.639077 0.384405 0.000000
O O12 0.426838 0.713041 0.500000
O O13 0.500000 0.751672 0.709882
#
# Coordination Sequence:
#
# PCOD8270287 Si02
#       6
#     8   8  16  16   8  16
#     4  12  24  36  53  82 121 155 186 231 288 344
#     4  12  24  38  57  82 117 156 192 231 280 341
#     4  10  20  35  58  84 113 150 193 234 281 338
#     4  11  22  36  57  86 119 151 187 232 286 343
#     4  10  20  32  56  82 118 146 188 228 288 336
#     4   9  20  40  63  86 113 148 194 242 283 330
#
# _framework density 18.836357
#
# number of rings (size 3 to 8) (size 9 to 14) (size 15 to 20)
#    0.000    1.556    2.222    3.333    0.000    5.778 
#    0.000    1.111    0.000    6.667    0.000    0.000 
#    0.000    0.000    0.000    0.000    0.000    0.000 
#
# Total GULP energy -446299.603465 kJ/mol
# GULP energy per Si atom -12397.211207 kJ/mol
# Density = 1.879348 g / cm^3
# Si number density = 18.836357 Si / 1000 Ang^3
#
#
#
# Elastic Constant Matrix: (Units=GPa)
#
#
# Indices 1 2 3 4 5 6 
#
# 1 131.9779 44.3004 46.5860 0.0000 0.0000 0.0000
# 2 44.3004 107.4388 59.7014 0.0000 0.0000 0.0000
# 3 46.5860 59.7014 154.6745 0.0000 0.0000 0.0000
# 4 0.0000 0.0000 0.0000 22.3679 0.0000 0.0000
# 5 0.0000 0.0000 0.0000 0.0000 18.6489 0.0000
# 6 0.0000 0.0000 0.0000 0.0000 0.0000 16.5413
#
#
#
# Elastic Compliance Matrix: (Units=1/GPa)
#
#
# Indices 1 2 3 4 5 6 
#
# 1 0.009113 -0.002842 -0.001648 0.000000 0.000000 0.000000
# 2 -0.002842 0.012735 -0.004060 0.000000 0.000000 0.000000
# 3 -0.001648 -0.004060 0.008528 0.000000 0.000000 0.000000
# 4 0.000000 0.000000 0.000000 0.044707 0.000000 0.000000
# 5 0.000000 0.000000 0.000000 0.000000 0.053623 0.000000
# 6 0.000000 0.000000 0.000000 0.000000 0.000000 0.060455
#
#
# Mechanical properties :
#
#
# Convention : Reuss Voigt Hill
#
# Bulk Modulus (GPa) = 75.31315 77.25186 76.28250
# Shear Modulus (GPa) = 23.73214 27.74517 25.73865
#
# Velocity S-wave (km/s) = 3.55337 3.84208 3.70054
# Velocity P-wave (km/s) = 7.54354 7.79636 7.67099
#
# Compressibility (1/GPa) = 0.01327789
#
# Stress axis : x y z
#
# Youngs Moduli (GPa) = 109.73910 78.52233 117.25534
#
# Poissons Ratio (x) = 0.22314 0.19320
# Poissons Ratio (y) = 0.31186 0.47601
# Poissons Ratio (z) = 0.18082 0.31877
#
# Static dielectric constant tensor:
#      x y z
#    x 3.341160 0.000000 0.000000 
#    y 0.000000 3.422970 0.000000 
#    z 0.000000 0.000000 3.397690 
# 
# 
# High freq. dielectric constant tensor:
#      x y z
#    x 1.714530 0.000000 0.000000 
#    y 0.000000 1.732680 0.000000 
#    z 0.000000 0.000000 1.735260 
# 
# From -- ./inp_files/13656.got.cif
#   From: 2010.03.12/outbox.cif.g09.slc.cpg/sg65_7_cif.got.tgz:13656.got - 2010.04.10 20:52:16.
