data_PCOD8270064
_publ_section_title
;
Structure prediction by ZEFSAII (Michael W. Deem and Ramdas Pophale) SiO2 
 PCOD8270064
Probable space group: C M M M
;
_chemical_formula_sum "Si O2"
_cell_formula_units_Z 96
_cell_length_a 14.649935
_cell_length_b 28.502379
_cell_length_c 14.264835
_cell_angle_alpha 90.000000
_cell_angle_beta 90.000000
_cell_angle_gamma 90.000000
_cell_volume 5956.395969
_symmetry_space_group_name_H-M "C M M M"
_symmetry_group_IT_number 65
_symmetry_cell_setting 'orthorhombic'
loop_
_space_group_symop_operation_xyz
x,y,z
-x,-y,z
x,-y,-z
-x,y,-z
-x,-y,-z
x,y,-z
-x,y,z
x,-y,z
1/2+x,1/2+y,z
1/2-x,1/2-y,z
1/2+x,1/2-y,-z
1/2-x,1/2+y,-z
1/2-x,1/2-y,-z
1/2+x,1/2+y,-z
1/2-x,1/2+y,z
1/2+x,1/2-y,z
loop_
_atom_site_type_symbol
_atom_site_label
_atom_site_fract_x
_atom_site_fract_y
_atom_site_fract_z
Si Si1 0.500000 0.275996 0.611326
Si Si2 0.735981 0.304378 0.101400
Si Si3 0.809589 0.201611 0.697365
Si Si4 0.683411 0.124314 0.610995
Si Si5 0.500000 0.171158 0.388814
Si Si6 0.397932 0.127121 0.893623
Si Si7 0.605969 0.946313 0.736337
O O1 0.500000 0.280229 0.500000
O O2 0.591963 0.298435 0.650288
O O3 0.500000 0.223432 0.648821
O O4 0.750000 0.250000 0.087167
O O5 0.672667 0.310952 0.192897
O O6 0.831487 0.329310 0.126618
O O7 0.697059 0.323694 0.000000
O O8 0.750000 0.250000 0.683642
O O9 0.763018 0.157569 0.647046
O O10 0.690076 0.119741 0.500000
O O11 0.589673 0.146551 0.650290
O O12 0.677204 0.072590 0.656853
O O13 0.500000 0.169800 0.500000
O O14 0.500000 0.145680 0.872182
O O15 0.373914 0.082176 0.831146
O O16 0.388679 0.109557 0.000000
O O17 0.500000 0.941910 0.704021
O O18 0.631727 0.000000 0.755549
#
# Coordination Sequence:
#
# PCOD8270064 Si02
#       7
#     8  16  16  16   8  16  16
#     4  11  22  34  49  76 106 134 173 214 253 298
#     4   9  18  33  49  71 102 133 169 207 244 300
#     4  11  21  34  52  75 101 138 171 210 254 301
#     4  11  20  32  49  71 100 137 173 207 251 302
#     4   9  18  30  47  69  96 131 174 211 242 291
#     4   9  17  31  52  74 100 137 174 208 251 302
#     4  10  20  32  47  71 102 134 172 216 258 304
#
# _framework density 16.117128999999998
#
# number of rings (size 3 to 8) (size 9 to 14) (size 15 to 20)
#    0.000    2.000    4.167    0.500    0.000    1.333 
#    6.000    2.917    0.000    0.000    0.000    0.583 
#    0.000    2.000    0.000    3.667    0.000    0.000 
#
# Total GULP energy -594729.982533 kJ/mol
# GULP energy per Si atom -12390.207969 kJ/mol
# Density = 1.608045 g / cm^3
# Si number density = 16.117129 Si / 1000 Ang^3
#
#
#
# Elastic Constant Matrix: (Units=GPa)
#
#
# Indices 1 2 3 4 5 6 
#
# 1 77.8893 41.1387 37.4433 0.0000 0.0000 0.0000
# 2 41.1387 107.1551 39.8871 0.0000 0.0000 0.0000
# 3 37.4433 39.8871 109.7120 0.0000 0.0000 0.0000
# 4 0.0000 0.0000 0.0000 33.2291 0.0000 0.0000
# 5 0.0000 0.0000 0.0000 0.0000 23.4159 0.0000
# 6 0.0000 0.0000 0.0000 0.0000 0.0000 16.8699
#
#
#
# Elastic Compliance Matrix: (Units=1/GPa)
#
#
# Indices 1 2 3 4 5 6 
#
# 1 0.017565 -0.005218 -0.004097 0.000000 0.000000 0.000000
# 2 -0.005218 0.012343 -0.002707 0.000000 0.000000 0.000000
# 3 -0.004097 -0.002707 0.011497 0.000000 0.000000 0.000000
# 4 0.000000 0.000000 0.000000 0.030094 0.000000 0.000000
# 5 0.000000 0.000000 0.000000 0.000000 0.042706 0.000000
# 6 0.000000 0.000000 0.000000 0.000000 0.000000 0.059277
#
#
# Mechanical properties :
#
#
# Convention : Reuss Voigt Hill
#
# Bulk Modulus (GPa) = 57.60203 59.07718 58.33961
# Shear Modulus (GPa) = 24.59262 26.45547 25.52404
#
# Velocity S-wave (km/s) = 3.91047 4.05588 3.98384
# Velocity P-wave (km/s) = 7.49709 7.65950 7.57873
#
# Compressibility (1/GPa) = 0.01736050
#
# Stress axis : x y z
#
# Youngs Moduli (GPa) = 56.93297 81.01701 86.97776
#
# Poissons Ratio (x) = 0.42276 0.35639
# Poissons Ratio (y) = 0.29708 0.23541
# Poissons Ratio (z) = 0.23328 0.21928
#
# Static dielectric constant tensor:
#      x y z
#    x 5.063920 0.000000 0.000000 
#    y 0.000000 2.975850 0.000000 
#    z 0.000000 0.000000 3.390840 
# 
# 
# High freq. dielectric constant tensor:
#      x y z
#    x 1.583870 0.000000 0.000000 
#    y 0.000000 1.600540 0.000000 
#    z 0.000000 0.000000 1.644460 
# 
# From -- ./inp_files/38944.got.cif
#   From: 2010.03.12/outbox.cif.g09.slc.cpg/sg65_20_cif.got.tgz:38944.got - 2010.04.10 20:52:16.
