data_PCOD8270478
_publ_section_title
;
Structure prediction by ZEFSAII (Michael W. Deem and Ramdas Pophale) SiO2 
 PCOD8270478
Probable space group: C M M M
;
_chemical_formula_sum "Si O2"
_cell_formula_units_Z 80
_cell_length_a 8.579402
_cell_length_b 27.356821
_cell_length_c 18.632973
_cell_angle_alpha 90.000000
_cell_angle_beta 90.000000
_cell_angle_gamma 90.000000
_cell_volume 4373.254999
_symmetry_space_group_name_H-M "C M M M"
_symmetry_group_IT_number 65
_symmetry_cell_setting 'orthorhombic'
loop_
_space_group_symop_operation_xyz
x,y,z
-x,-y,z
x,-y,-z
-x,y,-z
-x,-y,-z
x,y,-z
-x,y,z
x,-y,z
1/2+x,1/2+y,z
1/2-x,1/2-y,z
1/2+x,1/2-y,-z
1/2-x,1/2+y,-z
1/2-x,1/2-y,-z
1/2+x,1/2+y,-z
1/2-x,1/2+y,z
1/2+x,1/2-y,z
loop_
_atom_site_type_symbol
_atom_site_label
_atom_site_fract_x
_atom_site_fract_y
_atom_site_fract_z
Si Si1 0.816607 0.802708 0.285327
Si Si2 0.318039 0.894930 0.213836
Si Si3 0.817996 0.646220 0.581524
Si Si4 0.182107 0.055693 0.346943
Si Si5 0.818949 0.056087 0.081789
O O1 0.750000 0.750000 0.266742
O O2 0.740558 0.840299 0.229381
O O3 0.776430 0.817394 0.367070
O O4 0.000000 0.802950 0.274871
O O5 0.500000 0.897874 0.229824
O O6 0.230176 0.933277 0.265194
O O7 0.282788 0.908764 0.131888
O O8 0.771804 0.658450 0.500000
O O9 0.775827 0.590024 0.598320
O O10 0.000000 0.654258 0.595337
O O11 0.000000 0.066500 0.355638
O O12 0.223078 0.000000 0.365912
O O13 0.000000 0.063345 0.099700
O O14 0.770256 0.000000 0.094767
O O15 0.783637 0.071120 0.000000
#
# Coordination Sequence:
#
# PCOD8270478 Si02
#       5
#    16  16  16  16  16
#     4  11  22  38  59  79 101 130 168 213 260 310
#     4  11  21  33  52  78 107 137 172 214 258 305
#     4  10  21  36  53  75 103 133 168 211 259 310
#     4  10  20  33  50  72 100 137 178 215 254 304
#     4   9  18  33  53  78 110 147 182 213 249 296
#
# _framework density 18.293011
#
# number of rings (size 3 to 8) (size 9 to 14) (size 15 to 20)
#    0.000    1.800    0.000    8.400    0.000    7.200 
#    0.000    3.000    0.000    0.600    0.000    0.000 
#    0.000    0.000    0.000    0.000    0.000    0.000 
#
# Total GULP energy -496138.494717 kJ/mol
# GULP energy per Si atom -12403.462368 kJ/mol
# Density = 1.825138 g / cm^3
# Si number density = 18.293011 Si / 1000 Ang^3
#
#
#
# Elastic Constant Matrix: (Units=GPa)
#
#
# Indices 1 2 3 4 5 6 
#
# 1 34.1871 22.8928 13.0305 0.0000 0.0000 0.0000
# 2 22.8928 90.4082 33.6491 0.0000 0.0000 0.0000
# 3 13.0305 33.6491 89.3832 0.0000 0.0000 0.0000
# 4 0.0000 0.0000 0.0000 17.7306 0.0000 0.0000
# 5 0.0000 0.0000 0.0000 0.0000 30.6774 0.0000
# 6 0.0000 0.0000 0.0000 0.0000 0.0000 31.4165
#
#
#
# Elastic Compliance Matrix: (Units=1/GPa)
#
#
# Indices 1 2 3 4 5 6 
#
# 1 0.035555 -0.008227 -0.002086 0.000000 0.000000 0.000000
# 2 -0.008227 0.014767 -0.004360 0.000000 0.000000 0.000000
# 3 -0.002086 -0.004360 0.013133 0.000000 0.000000 0.000000
# 4 0.000000 0.000000 0.000000 0.056400 0.000000 0.000000
# 5 0.000000 0.000000 0.000000 0.000000 0.032597 0.000000
# 6 0.000000 0.000000 0.000000 0.000000 0.000000 0.031830
#
#
# Mechanical properties :
#
#
# Convention : Reuss Voigt Hill
#
# Bulk Modulus (GPa) = 29.31737 39.23591 34.27664
# Shear Modulus (GPa) = 22.22250 25.59196 23.90723
#
# Velocity S-wave (km/s) = 3.48919 3.74438 3.61904
# Velocity P-wave (km/s) = 5.68278 6.33948 6.02009
#
# Compressibility (1/GPa) = 0.03410947
#
# Stress axis : x y z
#
# Youngs Moduli (GPa) = 28.12559 67.71990 76.14296
#
# Poissons Ratio (x) = 0.55710 0.15886
# Poissons Ratio (y) = 0.23138 0.33197
# Poissons Ratio (z) = 0.05868 0.29524
#
# Static dielectric constant tensor:
#      x y z
#    x 3.413070 0.000000 0.000000 
#    y 0.000000 3.289590 0.000000 
#    z 0.000000 0.000000 3.288410 
# 
# 
# High freq. dielectric constant tensor:
#      x y z
#    x 1.722250 0.000000 0.000000 
#    y 0.000000 1.701180 0.000000 
#    z 0.000000 0.000000 1.699620 
# 
# From -- ./inp_files/49884.got.cif
#   From: 2010.03.12/outbox.cif.g09.slc.cpg/sg65_25_cif.got.tgz:49884.got - 2010.04.10 20:52:16.
