data_PCOD8270148
_publ_section_title
;
Structure prediction by ZEFSAII (Michael W. Deem and Ramdas Pophale) SiO2 
 PCOD8270148
Probable space group: C M M M
;
_chemical_formula_sum "Si O2"
_cell_formula_units_Z 104
_cell_length_a 9.136243
_cell_length_b 19.539173
_cell_length_c 33.045834
_cell_angle_alpha 90.000000
_cell_angle_beta 90.000000
_cell_angle_gamma 90.000000
_cell_volume 5899.164914
_symmetry_space_group_name_H-M "C M M M"
_symmetry_group_IT_number 65
_symmetry_cell_setting 'orthorhombic'
loop_
_space_group_symop_operation_xyz
x,y,z
-x,-y,z
x,-y,-z
-x,y,-z
-x,-y,-z
x,y,-z
-x,y,z
x,-y,z
1/2+x,1/2+y,z
1/2-x,1/2-y,z
1/2+x,1/2-y,-z
1/2-x,1/2+y,-z
1/2-x,1/2-y,-z
1/2+x,1/2+y,-z
1/2-x,1/2+y,z
1/2+x,1/2-y,z
loop_
_atom_site_type_symbol
_atom_site_label
_atom_site_fract_x
_atom_site_fract_y
_atom_site_fract_z
Si Si1 0.829129 0.078358 0.657678
Si Si2 0.834676 0.418484 0.578350
Si Si3 0.164134 0.081228 0.955464
Si Si4 0.668784 0.919079 0.877474
Si Si5 0.172895 0.819949 0.818325
Si Si6 0.170115 0.817708 0.274296
Si Si7 0.665521 0.418323 0.500000
O O1 0.742321 0.108064 0.619174
O O2 0.781054 0.119458 0.697548
O O3 0.000000 0.086298 0.648084
O O4 0.786902 0.000000 0.666189
O O5 0.831695 0.500000 0.577484
O O6 0.747794 0.389582 0.539606
O O7 0.000000 0.390534 0.576932
O O8 0.275474 0.107762 0.921241
O O9 0.000000 0.107558 0.945620
O O10 0.164609 0.000000 0.955967
O O11 0.213394 0.108192 0.000000
O O12 0.500000 0.898362 0.872990
O O13 0.763968 0.883519 0.842995
O O14 0.692154 0.000000 0.872896
O O15 0.250000 0.750000 0.832774
O O16 0.212730 0.835360 0.771725
O O17 0.000000 0.813533 0.825484
O O18 0.250000 0.750000 0.289776
O O19 0.000000 0.802835 0.278189
O O20 0.666908 0.500000 0.500000
O O21 0.500000 0.390505 0.500000
#
# Coordination Sequence:
#
# PCOD8270148 Si02
#       7
#    16  16  16  16  16  16   8
#     4   9  17  30  47  68  95 124 155 192 234 279
#     4   9  16  25  38  60  90 121 153 190 232 275
#     4   8  14  26  45  69  97 129 164 200 238 282
#     4  10  20  32  48  74 105 133 164 203 244 287
#     4  10  20  35  54  73  96 128 165 204 247 295
#     4   9  19  34  52  72  93 122 159 198 238 284
#     4   9  15  23  37  57  84 121 158 189 226 273
#
# _framework density 17.629614
#
# number of rings (size 3 to 8) (size 9 to 14) (size 15 to 20)
#    0.000    2.846    0.000    2.077    0.000    5.846 
#    0.000    3.077    0.000    2.308    0.000    0.538 
#    0.000    0.000    0.000    0.000    0.000    0.000 
#
# Total GULP energy -644728.798007 kJ/mol
# GULP energy per Si atom -12398.630731 kJ/mol
# Density = 1.758949 g / cm^3
# Si number density = 17.629614 Si / 1000 Ang^3
#
#
#
# Elastic Constant Matrix: (Units=GPa)
#
#
# Indices 1 2 3 4 5 6 
#
# 1 103.9214 36.9465 66.3335 0.0000 0.0000 0.0000
# 2 36.9465 47.6822 49.5027 0.0000 0.0000 0.0000
# 3 66.3335 49.5027 130.1257 0.0000 0.0000 0.0000
# 4 0.0000 0.0000 0.0000 3.5526 0.0000 0.0000
# 5 0.0000 0.0000 0.0000 0.0000 29.7180 0.0000
# 6 0.0000 0.0000 0.0000 0.0000 0.0000 22.2746
#
#
#
# Elastic Compliance Matrix: (Units=1/GPa)
#
#
# Indices 1 2 3 4 5 6 
#
# 1 0.015302 -0.006212 -0.005437 0.000000 0.000000 0.000000
# 2 -0.006212 0.037183 -0.010979 0.000000 0.000000 0.000000
# 3 -0.005437 -0.010979 0.014633 0.000000 0.000000 0.000000
# 4 0.000000 0.000000 0.000000 0.281482 0.000000 0.000000
# 5 0.000000 0.000000 0.000000 0.000000 0.033650 0.000000
# 6 0.000000 0.000000 0.000000 0.000000 0.000000 0.044894
#
#
# Mechanical properties :
#
#
# Convention : Reuss Voigt Hill
#
# Bulk Modulus (GPa) = 45.74004 65.25498 55.49751
# Shear Modulus (GPa) = 10.42346 19.70548 15.06447
#
# Velocity S-wave (km/s) = 2.43420 3.34690 2.92635
# Velocity P-wave (km/s) = 5.82252 7.21321 6.55485
#
# Compressibility (1/GPa) = 0.02186268
#
# Stress axis : x y z
#
# Youngs Moduli (GPa) = 65.35254 26.89372 68.33787
#
# Poissons Ratio (x) = 0.16706 0.37156
# Poissons Ratio (y) = 0.40595 0.75027
# Poissons Ratio (z) = 0.35533 0.29526
#
# Static dielectric constant tensor:
#      x y z
#    x 3.386080 0.000000 0.000000 
#    y 0.000000 2.864210 0.000000 
#    z 0.000000 0.000000 3.546610 
# 
# 
# High freq. dielectric constant tensor:
#      x y z
#    x 1.689410 0.000000 0.000000 
#    y 0.000000 1.630070 0.000000 
#    z 0.000000 0.000000 1.693720 
# 
# From -- ./inp_files/75770.got.cif
#   From: 2010.03.12/outbox.cif.g09.slc.cpg/sg65_38_cif.got.tgz:75770.got - 2010.04.10 20:52:16.
