data_PCOD8270096
_publ_section_title
;
Structure prediction by ZEFSAII (Michael W. Deem and Ramdas Pophale) SiO2 
 PCOD8270096
Probable space group: C M M M
;
_chemical_formula_sum "Si O2"
_cell_formula_units_Z 128
_cell_length_a 17.954702
_cell_length_b 21.620374
_cell_length_c 17.777859
_cell_angle_alpha 90.000000
_cell_angle_beta 90.000000
_cell_angle_gamma 90.000000
_cell_volume 6901.140370
_symmetry_space_group_name_H-M "C M M M"
_symmetry_group_IT_number 65
_symmetry_cell_setting 'orthorhombic'
loop_
_space_group_symop_operation_xyz
x,y,z
-x,-y,z
x,-y,-z
-x,y,-z
-x,-y,-z
x,y,-z
-x,y,z
x,-y,z
1/2+x,1/2+y,z
1/2-x,1/2-y,z
1/2+x,1/2-y,-z
1/2-x,1/2+y,-z
1/2-x,1/2-y,-z
1/2+x,1/2+y,-z
1/2-x,1/2+y,z
1/2+x,1/2-y,z
loop_
_atom_site_type_symbol
_atom_site_label
_atom_site_fract_x
_atom_site_fract_y
_atom_site_fract_z
Si Si1 0.417852 0.428096 0.276288
Si Si2 0.643819 0.067889 0.273220
Si Si3 0.785445 0.316441 0.087290
Si Si4 0.358290 0.637668 0.413168
Si Si5 0.916864 0.682886 0.201412
Si Si6 0.785828 0.071762 0.171089
Si Si7 0.085177 0.735879 0.356236
Si Si8 0.813678 0.632863 0.583560
O O1 0.500000 0.396709 0.266912
O O2 0.426843 0.500000 0.266579
O O3 0.383880 0.417915 0.359412
O O4 0.362853 0.405584 0.209588
O O5 0.584540 0.114820 0.238476
O O6 0.723594 0.074722 0.234610
O O7 0.657235 0.079951 0.361170
O O8 0.609888 0.000000 0.262583
O O9 0.750000 0.250000 0.105818
O O10 0.863264 0.315520 0.130525
O O11 0.734032 0.375938 0.108847
O O12 0.803678 0.323105 0.000000
O O13 0.376984 0.621854 0.500000
O O14 0.406494 0.694939 0.384290
O O15 0.271514 0.651601 0.401302
O O16 0.892491 0.730674 0.267543
O O17 0.000000 0.696927 0.172435
O O18 0.790526 0.000000 0.139360
O O19 0.138408 0.694689 0.407532
O O20 0.000000 0.713805 0.366227
O O21 0.823272 0.606127 0.500000
#
# Coordination Sequence:
#
# PCOD8270096 Si02
#       8
#    16  16  16  16  16  16  16  16
#     4  10  21  36  54  78 107 142 186 232 278 329
#     4   9  17  32  53  75 102 138 182 227 269 319
#     4  10  22  38  59  90 121 147 177 221 279 337
#     4  11  22  34  50  75 106 142 185 235 287 336
#     4   9  20  36  56  82 109 144 181 219 272 329
#     4   9  18  36  59  80 107 147 190 227 265 323
#     4  10  21  35  51  73 102 140 187 232 275 329
#     4  10  20  32  48  71 102 141 184 232 284 333
#
# _framework density 18.547658999999999
#
# number of rings (size 3 to 8) (size 9 to 14) (size 15 to 20)
#    0.000    2.250    1.250    1.125    1.750    4.000 
#    0.000    1.875    0.000    1.125    0.000    8.750 
#    0.000    0.000    0.000    0.000    0.000    0.000 
#
# Total GULP energy -793308.383872 kJ/mol
# GULP energy per Si atom -12395.443498 kJ/mol
# Density = 1.850544 g / cm^3
# Si number density = 18.547659 Si / 1000 Ang^3
#
#
#
# Elastic Constant Matrix: (Units=GPa)
#
#
# Indices 1 2 3 4 5 6 
#
# 1 91.9178 12.3950 44.5615 0.0000 0.0000 0.0000
# 2 12.3950 58.3841 33.5282 0.0000 0.0000 0.0000
# 3 44.5615 33.5282 105.9835 0.0000 0.0000 0.0000
# 4 0.0000 0.0000 0.0000 23.3351 0.0000 0.0000
# 5 0.0000 0.0000 0.0000 0.0000 17.4357 0.0000
# 6 0.0000 0.0000 0.0000 0.0000 0.0000 16.7095
#
#
#
# Elastic Compliance Matrix: (Units=1/GPa)
#
#
# Indices 1 2 3 4 5 6 
#
# 1 0.013676 0.000487 -0.005904 0.000000 0.000000 0.000000
# 2 0.000487 0.020948 -0.006832 0.000000 0.000000 0.000000
# 3 -0.005904 -0.006832 0.014079 0.000000 0.000000 0.000000
# 4 0.000000 0.000000 0.000000 0.042854 0.000000 0.000000
# 5 0.000000 0.000000 0.000000 0.000000 0.057354 0.000000
# 6 0.000000 0.000000 0.000000 0.000000 0.000000 0.059846
#
#
# Mechanical properties :
#
#
# Convention : Reuss Voigt Hill
#
# Bulk Modulus (GPa) = 41.31328 48.58388 44.94858
# Shear Modulus (GPa) = 20.71914 22.54944 21.63429
#
# Velocity S-wave (km/s) = 3.34589 3.49055 3.41899
# Velocity P-wave (km/s) = 6.10321 6.51891 6.31448
#
# Compressibility (1/GPa) = 0.02420529
#
# Stress axis : x y z
#
# Youngs Moduli (GPa) = 73.12097 47.73778 71.02683
#
# Poissons Ratio (x) = -0.02326 0.41936
# Poissons Ratio (y) = -0.03563 0.48524
# Poissons Ratio (z) = 0.43173 0.32613
#
# Static dielectric constant tensor:
#      x y z
#    x 3.651200 0.000000 0.000000 
#    y 0.000000 3.477630 0.000000 
#    z 0.000000 0.000000 3.300470 
# 
# 
# High freq. dielectric constant tensor:
#      x y z
#    x 1.723300 0.000000 0.000000 
#    y 0.000000 1.716330 0.000000 
#    z 0.000000 0.000000 1.703820 
# 
# From -- ./inp_files/55095.got.cif
#   From: 2010.03.12/outbox.cif.g09.slc.cpg/sg65_28_cif.got.tgz:55095.got - 2010.04.10 20:52:16.
