data_PCOD8270601
_publ_section_title
;
Structure prediction by ZEFSAII (Michael W. Deem and Ramdas Pophale) SiO2 
 PCOD8270601
Probable space group: C M M M
;
_chemical_formula_sum "Si O2"
_cell_formula_units_Z 96
_cell_length_a 18.124187
_cell_length_b 23.686012
_cell_length_c 12.703740
_cell_angle_alpha 90.000000
_cell_angle_beta 90.000000
_cell_angle_gamma 90.000000
_cell_volume 5453.584870
_symmetry_space_group_name_H-M "C M M M"
_symmetry_group_IT_number 65
_symmetry_cell_setting 'orthorhombic'
loop_
_space_group_symop_operation_xyz
x,y,z
-x,-y,z
x,-y,-z
-x,y,-z
-x,-y,-z
x,y,-z
-x,y,z
x,-y,z
1/2+x,1/2+y,z
1/2-x,1/2-y,z
1/2+x,1/2-y,-z
1/2-x,1/2+y,-z
1/2-x,1/2-y,-z
1/2+x,1/2+y,-z
1/2-x,1/2+y,z
1/2+x,1/2-y,z
loop_
_atom_site_type_symbol
_atom_site_label
_atom_site_fract_x
_atom_site_fract_y
_atom_site_fract_z
Si Si1 0.916824 0.255253 0.377716
Si Si2 0.199196 0.434997 0.120490
Si Si3 0.500000 0.432751 0.883952
Si Si4 0.350789 0.864310 0.688752
Si Si5 0.147092 0.935373 0.224440
Si Si6 0.190012 0.843251 0.376658
Si Si7 0.414762 0.066863 0.500000
O O1 0.900639 0.269939 0.500000
O O2 0.908553 0.312763 0.310113
O O3 0.860040 0.208342 0.334910
O O4 0.000000 0.232506 0.363121
O O5 0.175860 0.500000 0.139881
O O6 0.151989 0.394758 0.197626
O O7 0.286158 0.427478 0.142212
O O8 0.183272 0.417281 0.000000
O O9 0.500000 0.500000 0.889578
O O10 0.426955 0.410575 0.826626
O O11 0.500000 0.406543 0.000000
O O12 0.273895 0.834238 0.658464
O O13 0.373459 0.910965 0.603412
O O14 0.161348 0.902157 0.331315
O O15 0.137346 0.000000 0.257505
O O16 0.182297 0.847861 0.500000
O O17 0.500000 0.086864 0.500000
O O18 0.408428 0.000000 0.500000
#
# Coordination Sequence:
#
# PCOD8270601 Si02
#       7
#    16  16   8  16  16  16   8
#     4  10  20  34  54  76 103 139 181 221 263 315
#     4   9  18  33  53  79 108 138 176 218 262 318
#     4   9  16  28  47  67  91 131 180 224 261 306
#     4  11  19  34  56  80 105 140 178 220 266 317
#     4   9  18  30  48  74 104 139 177 218 267 316
#     4  10  20  33  50  78 108 141 176 219 259 322
#     4  11  22  34  53  84 117 139 167 218 274 320
#
# _framework density 17.603100000000001
#
# number of rings (size 3 to 8) (size 9 to 14) (size 15 to 20)
#    0.000    2.167    1.667    2.000    1.167    4.333 
#    0.000    0.000    0.000   12.500    0.000    5.833 
#    0.000    0.000    0.000    0.000    0.000    0.000 
#
# Total GULP energy -595207.527200 kJ/mol
# GULP energy per Si atom -12400.156817 kJ/mol
# Density = 1.756303 g / cm^3
# Si number density = 17.603100 Si / 1000 Ang^3
#
#
#
# Elastic Constant Matrix: (Units=GPa)
#
#
# Indices 1 2 3 4 5 6 
#
# 1 76.9699 32.4936 25.1920 0.0000 0.0000 0.0000
# 2 32.4936 80.8682 43.6804 0.0000 0.0000 0.0000
# 3 25.1920 43.6804 92.8165 0.0000 0.0000 0.0000
# 4 0.0000 0.0000 0.0000 20.6479 0.0000 0.0000
# 5 0.0000 0.0000 0.0000 0.0000 19.1374 0.0000
# 6 0.0000 0.0000 0.0000 0.0000 0.0000 28.5857
#
#
#
# Elastic Compliance Matrix: (Units=1/GPa)
#
#
# Indices 1 2 3 4 5 6 
#
# 1 0.015855 -0.005426 -0.001750 0.000000 0.000000 0.000000
# 2 -0.005426 0.018437 -0.007204 0.000000 0.000000 0.000000
# 3 -0.001750 -0.007204 0.014639 0.000000 0.000000 0.000000
# 4 0.000000 0.000000 0.000000 0.048431 0.000000 0.000000
# 5 0.000000 0.000000 0.000000 0.000000 0.052254 0.000000
# 6 0.000000 0.000000 0.000000 0.000000 0.000000 0.034983
#
#
# Mechanical properties :
#
#
# Convention : Reuss Voigt Hill
#
# Bulk Modulus (GPa) = 49.57306 50.37628 49.97467
# Shear Modulus (GPa) = 22.71875 23.62677 23.17276
#
# Velocity S-wave (km/s) = 3.59640 3.66757 3.63216
# Velocity P-wave (km/s) = 6.74301 6.82750 6.78539
#
# Compressibility (1/GPa) = 0.02017225
#
# Stress axis : x y z
#
# Youngs Moduli (GPa) = 63.07030 54.23861 68.30947
#
# Poissons Ratio (x) = 0.29427 0.11955
# Poissons Ratio (y) = 0.34219 0.49211
# Poissons Ratio (z) = 0.11038 0.39074
#
# Static dielectric constant tensor:
#      x y z
#    x 3.414530 0.000000 0.000000 
#    y 0.000000 3.211220 0.000000 
#    z 0.000000 0.000000 3.111810 
# 
# 
# High freq. dielectric constant tensor:
#      x y z
#    x 1.685490 0.000000 0.000000 
#    y 0.000000 1.673650 0.000000 
#    z 0.000000 0.000000 1.659490 
# 
# From -- ./inp_files/27149.got.cif
#   From: 2010.03.12/outbox.cif.g09.slc.cpg/sg65_14_cif.got.tgz:27149.got - 2010.04.10 20:52:16.
