data_PCOD8270164
_publ_section_title
;
Structure prediction by ZEFSAII (Michael W. Deem and Ramdas Pophale) SiO2 
 PCOD8270164
Probable space group: C M M M
;
_chemical_formula_sum "Si O2"
_cell_formula_units_Z 104
_cell_length_a 21.390469
_cell_length_b 26.164882
_cell_length_c 9.425293
_cell_angle_alpha 90.000000
_cell_angle_beta 90.000000
_cell_angle_gamma 90.000000
_cell_volume 5275.139478
_symmetry_space_group_name_H-M "C M M M"
_symmetry_group_IT_number 65
_symmetry_cell_setting 'orthorhombic'
loop_
_space_group_symop_operation_xyz
x,y,z
-x,-y,z
x,-y,-z
-x,y,-z
-x,-y,-z
x,y,-z
-x,y,z
x,-y,z
1/2+x,1/2+y,z
1/2-x,1/2-y,z
1/2+x,1/2-y,-z
1/2-x,1/2+y,-z
1/2-x,1/2-y,-z
1/2+x,1/2+y,-z
1/2-x,1/2+y,z
1/2+x,1/2-y,z
loop_
_atom_site_type_symbol
_atom_site_label
_atom_site_fract_x
_atom_site_fract_y
_atom_site_fract_z
Si Si1 0.150128 0.943107 0.659226
Si Si2 0.745224 0.140379 0.339654
Si Si3 0.573393 0.625435 0.841701
Si Si4 0.571110 0.000000 0.832055
Si Si5 0.125414 0.391558 0.831164
Si Si6 0.930619 0.693510 0.338872
Si Si7 0.142485 0.792656 0.335879
O O1 0.123177 0.940023 0.500000
O O2 0.209866 0.907679 0.675681
O O3 0.096007 0.926227 0.766150
O O4 0.171636 0.000000 0.698791
O O5 0.718406 0.145030 0.500000
O O6 0.690247 0.129789 0.230222
O O7 0.785111 0.192065 0.301648
O O8 0.500000 0.624947 0.846081
O O9 0.595522 0.674877 0.757751
O O10 0.601515 0.627455 0.000000
O O11 0.609051 0.050529 0.781739
O O12 0.500000 0.000000 0.770078
O O13 0.566462 0.000000 0.000000
O O14 0.072753 0.354181 0.768080
O O15 0.126853 0.387383 0.000000
O O16 0.922329 0.673953 0.500000
O O17 0.874518 0.733634 0.304566
O O18 0.000000 0.718163 0.319903
O O19 0.129108 0.806150 0.500000
#
# Coordination Sequence:
#
# PCOD8270164 Si02
#       7
#    16  16  16   8  16  16  16
#     4   9  19  35  54  75 101 141 190 237 285 339
#     4   9  19  36  57  82 112 145 185 234 282 330
#     4  10  20  32  48  75 110 145 183 231 287 340
#     4   9  20  40  61  81 111 151 192 231 276 335
#     4  11  23  38  59  86 115 151 190 231 283 343
#     4  10  21  38  61  88 115 145 187 237 286 336
#     4   9  19  37  60  82 109 149 191 231 278 336
#
# _framework density 19.715119000000001
#
# number of rings (size 3 to 8) (size 9 to 14) (size 15 to 20)
#    0.000    2.385    0.000    2.769    1.077    7.077 
#    0.000    5.769    0.000    2.769    0.000    0.000 
#    0.000    0.000    0.000    0.000    0.000    0.000 
#
# Total GULP energy -644549.369456 kJ/mol
# GULP energy per Si atom -12395.180182 kJ/mol
# Density = 1.967025 g / cm^3
# Si number density = 19.715119 Si / 1000 Ang^3
#
#
#
# Elastic Constant Matrix: (Units=GPa)
#
#
# Indices 1 2 3 4 5 6 
#
# 1 100.2009 46.0364 44.9892 0.0000 0.0000 0.0000
# 2 46.0364 126.7452 48.0523 0.0000 0.0000 0.0000
# 3 44.9892 48.0523 90.4151 0.0000 0.0000 0.0000
# 4 0.0000 0.0000 0.0000 -61.3474 0.0000 0.0000
# 5 0.0000 0.0000 0.0000 0.0000 33.6050 0.0000
# 6 0.0000 0.0000 0.0000 0.0000 0.0000 20.8170
#
#
#
# Elastic Compliance Matrix: (Units=1/GPa)
#
#
# Indices 1 2 3 4 5 6 
#
# 1 0.013703 -0.002996 -0.005226 0.000000 0.000000 0.000000
# 2 -0.002996 0.010536 -0.004109 0.000000 0.000000 0.000000
# 3 -0.005226 -0.004109 0.015844 0.000000 0.000000 0.000000
# 4 0.000000 0.000000 0.000000 -0.016301 0.000000 0.000000
# 5 0.000000 0.000000 0.000000 0.000000 0.029757 0.000000
# 6 0.000000 0.000000 0.000000 0.000000 0.000000 0.048038
#
#
# Mechanical properties :
#
#
# Convention : Reuss Voigt Hill
#
# Bulk Modulus (GPa) = 64.84481 66.16856 65.50668
# Shear Modulus (GPa) = 38.05787 10.50048 24.27917
#
# Velocity S-wave (km/s) = 4.39839 2.31034 3.51308
# Velocity P-wave (km/s) = 7.66529 6.38374 7.05368
#
# Compressibility (1/GPa) = 0.01542143
#
# Stress axis : x y z
#
# Youngs Moduli (GPa) = 72.97761 94.91570 63.11466
#
# Poissons Ratio (x) = 0.28435 0.32985
# Poissons Ratio (y) = 0.21862 0.25932
# Poissons Ratio (z) = 0.38139 0.38998
#
# Static dielectric constant tensor:
#      x y z
#    x 3.571860 0.000000 0.000000 
#    y 0.000000 3.919940 0.000000 
#    z 0.000000 0.000000 3.685300 
# 
# 
# High freq. dielectric constant tensor:
#      x y z
#    x 1.768820 0.000000 0.000000 
#    y 0.000000 1.772230 0.000000 
#    z 0.000000 0.000000 1.757890 
# 
# From -- ./inp_files/12407.got.cif
#   From: 2010.03.12/outbox.cif.g09.slc.cpg/sg65_7_cif.got.tgz:12407.got - 2010.04.10 20:52:16.
