data_PCOD8270913
_publ_section_title
;
Structure prediction by ZEFSAII (Michael W. Deem and Ramdas Pophale) SiO2 
 PCOD8270913
Probable space group: C M M M
;
_chemical_formula_sum "Si O2"
_cell_formula_units_Z 88
_cell_length_a 29.278295
_cell_length_b 17.893438
_cell_length_c 9.024564
_cell_angle_alpha 90.000000
_cell_angle_beta 90.000000
_cell_angle_gamma 90.000000
_cell_volume 4727.873025
_symmetry_space_group_name_H-M "C M M M"
_symmetry_group_IT_number 65
_symmetry_cell_setting 'orthorhombic'
loop_
_space_group_symop_operation_xyz
x,y,z
-x,-y,z
x,-y,-z
-x,y,-z
-x,-y,-z
x,y,-z
-x,y,z
x,-y,z
1/2+x,1/2+y,z
1/2-x,1/2-y,z
1/2+x,1/2-y,-z
1/2-x,1/2+y,-z
1/2-x,1/2-y,-z
1/2+x,1/2+y,-z
1/2-x,1/2+y,z
1/2+x,1/2-y,z
loop_
_atom_site_type_symbol
_atom_site_label
_atom_site_fract_x
_atom_site_fract_y
_atom_site_fract_z
Si Si1 0.255173 0.586070 0.164126
Si Si2 0.111994 0.227940 0.323567
Si Si3 0.945636 0.500000 0.668535
Si Si4 0.945820 0.649458 0.169655
Si Si5 0.141458 0.084815 0.175170
Si Si6 0.793013 0.703949 0.674478
O O1 0.243433 0.500000 0.157516
O O2 0.306326 0.598268 0.228258
O O3 0.215727 0.620688 0.266965
O O4 0.252291 0.621078 0.000000
O O5 0.107218 0.226861 0.500000
O O6 0.071823 0.277393 0.254737
O O7 0.109046 0.143111 0.261956
O O8 0.159565 0.263320 0.266299
O O9 0.927141 0.500000 0.500000
O O10 0.927235 0.425877 0.751382
O O11 0.000000 0.500000 0.670661
O O12 0.000000 0.652165 0.177662
O O13 0.928746 0.649451 0.000000
O O14 0.126422 0.000000 0.215473
O O15 0.137129 0.097451 0.000000
O O16 0.793684 0.703923 0.500000
O O17 0.750000 0.750000 0.738245
#
# Coordination Sequence:
#
# PCOD8270913 Si02
#       6
#    16  16   8  16  16  16
#     4   9  18  32  50  72  98 134 180 223 261 305
#     4  11  22  35  54  80 109 142 180 222 270 321
#     4   9  17  33  59  87 113 141 175 217 265 317
#     4  10  21  38  60  84 110 141 179 222 267 318
#     4   9  18  33  53  77 105 138 179 224 268 319
#     4  10  20  34  49  72 106 141 176 215 260 311
#
# _framework density 18.613022000000001
#
# number of rings (size 3 to 8) (size 9 to 14) (size 15 to 20)
#    0.000    2.273    1.818    2.455    0.000    4.727 
#    1.636    1.818    0.000    0.545    0.000    3.818 
#    0.000    0.000    0.000    0.000    0.000    0.000 
#
# Total GULP energy -545533.817747 kJ/mol
# GULP energy per Si atom -12398.495858 kJ/mol
# Density = 1.857066 g / cm^3
# Si number density = 18.613022 Si / 1000 Ang^3
#
#
#
# Elastic Constant Matrix: (Units=GPa)
#
#
# Indices 1 2 3 4 5 6 
#
# 1 29.1143 28.2392 24.8323 0.0000 0.0000 0.0000
# 2 28.2392 128.6062 55.7218 0.0000 0.0000 0.0000
# 3 24.8323 55.7218 77.7998 0.0000 0.0000 0.0000
# 4 0.0000 0.0000 0.0000 34.7276 0.0000 0.0000
# 5 0.0000 0.0000 0.0000 0.0000 24.7667 0.0000
# 6 0.0000 0.0000 0.0000 0.0000 0.0000 32.0328
#
#
#
# Elastic Compliance Matrix: (Units=1/GPa)
#
#
# Indices 1 2 3 4 5 6 
#
# 1 0.050110 -0.005906 -0.011764 0.000000 0.000000 0.000000
# 2 -0.005906 0.011970 -0.006688 0.000000 0.000000 0.000000
# 3 -0.011764 -0.006688 0.021399 0.000000 0.000000 0.000000
# 4 0.000000 0.000000 0.000000 0.028796 0.000000 0.000000
# 5 0.000000 0.000000 0.000000 0.000000 0.040377 0.000000
# 6 0.000000 0.000000 0.000000 0.000000 0.000000 0.031218
#
#
# Mechanical properties :
#
#
# Convention : Reuss Voigt Hill
#
# Bulk Modulus (GPa) = 28.76705 50.34519 39.55612
# Shear Modulus (GPa) = 20.47722 26.75387 23.61555
#
# Velocity S-wave (km/s) = 3.32046 3.79538 3.56584
# Velocity P-wave (km/s) = 5.49449 6.80542 6.18479
#
# Compressibility (1/GPa) = 0.03476199
#
# Stress axis : x y z
#
# Youngs Moduli (GPa) = 19.95616 83.53944 46.73166
#
# Poissons Ratio (x) = 0.49338 0.54976
# Poissons Ratio (y) = 0.11786 0.31256
# Poissons Ratio (z) = 0.23477 0.55874
#
# Static dielectric constant tensor:
#      x y z
#    x 3.138150 0.000000 0.000000 
#    y 0.000000 3.524880 0.000000 
#    z 0.000000 0.000000 3.386950 
# 
# 
# High freq. dielectric constant tensor:
#      x y z
#    x 1.683250 0.000000 0.000000 
#    y 0.000000 1.731730 0.000000 
#    z 0.000000 0.000000 1.724680 
# 
# From -- ./inp_files/18295.got.cif
#   From: 2010.03.12/outbox.cif.g09.slc.cpg/sg65_10_cif.got.tgz:18295.got - 2010.04.10 20:52:16.
