data_PCOD8270036
_publ_section_title
;
Structure prediction by ZEFSAII (Michael W. Deem and Ramdas Pophale) SiO2 
 PCOD8270036
Probable space group: C M M M
;
_chemical_formula_sum "Si O2"
_cell_formula_units_Z 80
_cell_length_a 27.258704
_cell_length_b 8.610087
_cell_length_c 18.697270
_cell_angle_alpha 90.000000
_cell_angle_beta 90.000000
_cell_angle_gamma 90.000000
_cell_volume 4388.245772
_symmetry_space_group_name_H-M "C M M M"
_symmetry_group_IT_number 65
_symmetry_cell_setting 'orthorhombic'
loop_
_space_group_symop_operation_xyz
x,y,z
-x,-y,z
x,-y,-z
-x,y,-z
-x,-y,-z
x,y,-z
-x,y,z
x,-y,z
1/2+x,1/2+y,z
1/2-x,1/2-y,z
1/2+x,1/2-y,-z
1/2-x,1/2+y,-z
1/2-x,1/2-y,-z
1/2+x,1/2+y,-z
1/2-x,1/2+y,z
1/2+x,1/2-y,z
loop_
_atom_site_type_symbol
_atom_site_label
_atom_site_fract_x
_atom_site_fract_y
_atom_site_fract_z
Si Si1 0.348739 0.184569 0.147945
Si Si2 0.303909 0.183544 0.000000
Si Si3 0.302344 0.316143 0.287141
Si Si4 0.105079 0.683882 0.359795
Si Si5 0.444057 0.683712 0.500000
Si Si6 0.553470 0.183516 0.783630
O O1 0.332826 0.242967 0.069807
O O2 0.313943 0.262396 0.206491
O O3 0.405204 0.238964 0.159915
O O4 0.343670 0.000000 0.156971
O O5 0.250000 0.250000 0.000000
O O6 0.300606 0.000000 0.000000
O O7 0.301947 0.500000 0.290306
O O8 0.250000 0.250000 0.310455
O O9 0.341129 0.250637 0.344118
O O10 0.108816 0.500000 0.366390
O O11 0.084166 0.754246 0.431597
O O12 0.068998 0.735579 0.295773
O O13 0.442871 0.500000 0.500000
O O14 0.500000 0.745754 0.500000
O O15 0.500000 0.256910 0.802056
O O16 0.549554 0.000000 0.786517
#
# Coordination Sequence:
#
# PCOD8270036 Si02
#       6
#    16   8  16  16   8  16
#     4   9  18  32  49  73 103 134 172 215 258 309
#     4  10  20  32  47  69  99 133 170 216 265 312
#     4  11  21  35  55  78 104 135 172 215 264 315
#     4  10  20  35  55  79 106 138 178 218 257 307
#     4  11  23  37  54  81 116 147 175 213 261 309
#     4   8  14  27  49  74  99 129 166 208 252 299
#
# _framework density 18.230521
#
# number of rings (size 3 to 8) (size 9 to 14) (size 15 to 20)
#    0.000    2.300    0.000    5.100    0.000    4.000 
#    0.000    1.000    0.000    8.400    0.000    0.000 
#    0.000    7.200    0.000    0.000    0.000    0.000 
#
# Total GULP energy -495945.697785 kJ/mol
# GULP energy per Si atom -12398.642445 kJ/mol
# Density = 1.818903 g / cm^3
# Si number density = 18.230521 Si / 1000 Ang^3
#
#
#
# Elastic Constant Matrix: (Units=GPa)
#
#
# Indices 1 2 3 4 5 6 
#
# 1 183.2839 37.5821 91.1276 0.0000 0.0000 0.0000
# 2 37.5821 61.7390 35.8147 0.0000 0.0000 0.0000
# 3 91.1276 35.8147 152.5879 0.0000 0.0000 0.0000
# 4 0.0000 0.0000 0.0000 22.9642 0.0000 0.0000
# 5 0.0000 0.0000 0.0000 0.0000 37.8729 0.0000
# 6 0.0000 0.0000 0.0000 0.0000 0.0000 23.2355
#
#
#
# Elastic Compliance Matrix: (Units=1/GPa)
#
#
# Indices 1 2 3 4 5 6 
#
# 1 0.008068 -0.002450 -0.004243 0.000000 0.000000 0.000000
# 2 -0.002450 0.019494 -0.003113 0.000000 0.000000 0.000000
# 3 -0.004243 -0.003113 0.009818 0.000000 0.000000 0.000000
# 4 0.000000 0.000000 0.000000 0.043546 0.000000 0.000000
# 5 0.000000 0.000000 0.000000 0.000000 0.026404 0.000000
# 6 0.000000 0.000000 0.000000 0.000000 0.000000 0.043038
#
#
# Mechanical properties :
#
#
# Convention : Reuss Voigt Hill
#
# Bulk Modulus (GPa) = 56.27714 80.73995 68.50855
# Shear Modulus (GPa) = 28.42484 32.35362 30.38923
#
# Velocity S-wave (km/s) = 3.95294 4.21728 4.08725
# Velocity P-wave (km/s) = 7.19521 8.25218 7.74176
#
# Compressibility (1/GPa) = 0.01776920
#
# Stress axis : x y z
#
# Youngs Moduli (GPa) = 123.94460 51.29793 101.84965
#
# Poissons Ratio (x) = 0.12566 0.43219
# Poissons Ratio (y) = 0.30362 0.31701
# Poissons Ratio (z) = 0.52595 0.15967
#
# Static dielectric constant tensor:
#      x y z
#    x 3.716470 0.000000 0.000000 
#    y 0.000000 3.224970 0.000000 
#    z 0.000000 0.000000 3.412060 
# 
# 
# High freq. dielectric constant tensor:
#      x y z
#    x 1.721450 0.000000 0.000000 
#    y 0.000000 1.693510 0.000000 
#    z 0.000000 0.000000 1.696460 
# 
# From -- ./inp_files/49958.got.cif
#   From: 2010.03.12/outbox.cif.g09.slc.cpg/sg65_25_cif.got.tgz:49958.got - 2010.04.10 20:52:16.
