data_PCOD8270970
_publ_section_title
;
Structure prediction by ZEFSAII (Michael W. Deem and Ramdas Pophale) SiO2 
 PCOD8270970
Probable space group: C M M M
;
_chemical_formula_sum "Si O2"
_cell_formula_units_Z 72
_cell_length_a 18.296663
_cell_length_b 17.246375
_cell_length_c 13.736527
_cell_angle_alpha 90.000000
_cell_angle_beta 90.000000
_cell_angle_gamma 90.000000
_cell_volume 4334.576361
_symmetry_space_group_name_H-M "C M M M"
_symmetry_group_IT_number 65
_symmetry_cell_setting 'orthorhombic'
loop_
_space_group_symop_operation_xyz
x,y,z
-x,-y,z
x,-y,-z
-x,y,-z
-x,-y,-z
x,y,-z
-x,y,z
x,-y,z
1/2+x,1/2+y,z
1/2-x,1/2-y,z
1/2+x,1/2-y,-z
1/2-x,1/2+y,-z
1/2-x,1/2-y,-z
1/2+x,1/2+y,-z
1/2-x,1/2+y,z
1/2+x,1/2-y,z
loop_
_atom_site_type_symbol
_atom_site_label
_atom_site_fract_x
_atom_site_fract_y
_atom_site_fract_z
Si Si1 0.916968 0.289893 0.887995
Si Si2 0.079961 0.000000 0.114132
Si Si3 0.083515 0.090836 0.610745
Si Si4 0.702107 0.089666 0.112220
Si Si5 0.842578 0.144866 0.794644
O O1 0.878064 0.373159 0.874884
O O2 0.872741 0.227325 0.826731
O O3 0.000000 0.297187 0.849845
O O4 0.915848 0.263456 0.000000
O O5 0.120199 0.923057 0.145187
O O6 0.000000 0.000000 0.163065
O O7 0.073738 0.000000 0.000000
O O8 0.105100 0.110369 0.500000
O O9 0.139770 0.136264 0.680115
O O10 0.000000 0.116783 0.631229
O O11 0.091647 0.000000 0.631744
O O12 0.756506 0.137434 0.182874
O O13 0.698214 0.000000 0.143916
O O14 0.728485 0.097311 0.000000
#
# Coordination Sequence:
#
# PCOD8270970 Si02
#       5
#    16   8  16  16  16
#     4  10  21  34  49  71  99 132 168 204 240 285
#     4  11  20  26  39  67 102 134 157 180 221 287
#     4   9  17  29  45  67  97 133 169 200 237 291
#     4  10  20  34  51  71  97 132 169 202 241 289
#     4  12  19  30  49  72 100 128 160 199 248 293
#
# _framework density 16.610620000000001
#
# number of rings (size 3 to 8) (size 9 to 14) (size 15 to 20)
#    0.000    1.667    2.222    5.333    0.000    4.000 
#    0.000    2.222    0.000    2.667    0.000    0.000 
#    0.000    0.000    0.000    9.333    0.000    0.444 
#
# Total GULP energy -446409.586201 kJ/mol
# GULP energy per Si atom -12400.266283 kJ/mol
# Density = 1.657281 g / cm^3
# Si number density = 16.610620 Si / 1000 Ang^3
#
#
#
# Elastic Constant Matrix: (Units=GPa)
#
#
# Indices 1 2 3 4 5 6 
#
# 1 90.5253 50.7463 29.7011 0.0000 0.0000 0.0000
# 2 50.7463 70.7409 33.5862 0.0000 0.0000 0.0000
# 3 29.7011 33.5862 76.5600 0.0000 0.0000 0.0000
# 4 0.0000 0.0000 0.0000 17.6897 0.0000 0.0000
# 5 0.0000 0.0000 0.0000 0.0000 14.4155 0.0000
# 6 0.0000 0.0000 0.0000 0.0000 0.0000 27.0117
#
#
#
# Elastic Compliance Matrix: (Units=1/GPa)
#
#
# Indices 1 2 3 4 5 6 
#
# 1 0.018656 -0.012563 -0.001726 0.000000 0.000000 0.000000
# 2 -0.012563 0.026315 -0.006670 0.000000 0.000000 0.000000
# 3 -0.001726 -0.006670 0.016658 0.000000 0.000000 0.000000
# 4 0.000000 0.000000 0.000000 0.056530 0.000000 0.000000
# 5 0.000000 0.000000 0.000000 0.000000 0.069370 0.000000
# 6 0.000000 0.000000 0.000000 0.000000 0.000000 0.037021
#
#
# Mechanical properties :
#
#
# Convention : Reuss Voigt Hill
#
# Bulk Modulus (GPa) = 50.73793 51.76594 51.25194
# Shear Modulus (GPa) = 18.31245 20.07622 19.19434
#
# Velocity S-wave (km/s) = 3.32392 3.48032 3.40302
# Velocity P-wave (km/s) = 6.73373 6.88347 6.80901
#
# Compressibility (1/GPa) = 0.01970912
#
# Stress axis : x y z
#
# Youngs Moduli (GPa) = 53.60335 38.00063 60.03299
#
# Poissons Ratio (x) = 0.47741 0.10361
# Poissons Ratio (y) = 0.67343 0.40045
# Poissons Ratio (z) = 0.09252 0.25348
#
# Static dielectric constant tensor:
#      x y z
#    x 3.223090 0.000000 0.000000 
#    y 0.000000 2.820630 0.000000 
#    z 0.000000 0.000000 3.049610 
# 
# 
# High freq. dielectric constant tensor:
#      x y z
#    x 1.637280 0.000000 0.000000 
#    y 0.000000 1.629700 0.000000 
#    z 0.000000 0.000000 1.617270 
# 
# From -- ./inp_files/42155.got.cif
#   From: 2010.03.12/outbox.cif.g09.slc.cpg/sg65_22_cif.got.tgz:42155.got - 2010.04.10 20:52:16.
