data_PCOD8270680
_publ_section_title
;
Structure prediction by ZEFSAII (Michael W. Deem and Ramdas Pophale) SiO2 
 PCOD8270680
Probable space group: C M M M
;
_chemical_formula_sum "Si O2"
_cell_formula_units_Z 80
_cell_length_a 19.186857
_cell_length_b 9.034896
_cell_length_c 24.974529
_cell_angle_alpha 90.000000
_cell_angle_beta 90.000000
_cell_angle_gamma 90.000000
_cell_volume 4329.366009
_symmetry_space_group_name_H-M "C M M M"
_symmetry_group_IT_number 65
_symmetry_cell_setting 'orthorhombic'
loop_
_space_group_symop_operation_xyz
x,y,z
-x,-y,z
x,-y,-z
-x,y,-z
-x,-y,-z
x,y,-z
-x,y,z
x,-y,z
1/2+x,1/2+y,z
1/2-x,1/2-y,z
1/2+x,1/2-y,-z
1/2-x,1/2+y,-z
1/2-x,1/2-y,-z
1/2+x,1/2+y,-z
1/2-x,1/2+y,z
1/2+x,1/2-y,z
loop_
_atom_site_type_symbol
_atom_site_label
_atom_site_fract_x
_atom_site_fract_y
_atom_site_fract_z
Si Si1 0.678865 0.825854 0.091789
Si Si2 0.674315 0.823924 0.500000
Si Si3 0.081213 0.166121 0.708988
Si Si4 0.820570 0.672809 0.786924
Si Si5 0.419636 0.327931 0.585995
Si Si6 0.422509 0.824172 0.000000
O O1 0.750000 0.750000 0.073013
O O2 0.659746 0.779970 0.152497
O O3 0.689775 0.000000 0.086142
O O4 0.617259 0.768950 0.053250
O O5 0.750000 0.750000 0.500000
O O6 0.631633 0.774250 0.552142
O O7 0.682912 0.000000 0.500000
O O8 0.117845 0.281574 0.747739
O O9 0.097310 0.206484 0.647649
O O10 0.000000 0.178339 0.720405
O O11 0.107568 0.000000 0.721279
O O12 0.808460 0.500000 0.782683
O O13 0.750000 0.750000 0.767745
O O14 0.500000 0.288797 0.572770
O O15 0.405971 0.500000 0.572666
O O16 0.500000 0.755013 0.000000
O O17 0.426961 0.000000 0.000000
#
# Coordination Sequence:
#
# PCOD8270680 Si02
#       6
#    16   8  16  16  16   8
#     4   9  18  32  51  73  97 131 171 209 252 303
#     4  12  25  38  55  81 111 141 175 216 261 306
#     4   9  19  36  57  80 106 138 174 211 256 309
#     4  10  20  33  51  76 105 137 174 216 260 307
#     4   9  19  38  61  81 105 139 175 211 256 311
#     4   9  17  30  49  73 100 129 164 208 256 305
#
# _framework density 18.478455
#
# number of rings (size 3 to 8) (size 9 to 14) (size 15 to 20)
#    0.000    2.500    0.000    3.300    0.000    5.200 
#    0.000    4.000    0.000    1.200    0.000    0.000 
#    0.000    0.000    0.000    0.000    0.000    0.000 
#
# Total GULP energy -496033.626088 kJ/mol
# GULP energy per Si atom -12400.840652 kJ/mol
# Density = 1.843640 g / cm^3
# Si number density = 18.478455 Si / 1000 Ang^3
#
#
#
# Elastic Constant Matrix: (Units=GPa)
#
#
# Indices 1 2 3 4 5 6 
#
# 1 126.4812 51.2457 78.0728 0.0000 0.0000 0.0000
# 2 51.2457 71.2719 44.0886 0.0000 0.0000 0.0000
# 3 78.0728 44.0886 110.5951 0.0000 0.0000 0.0000
# 4 0.0000 0.0000 0.0000 22.0920 0.0000 0.0000
# 5 0.0000 0.0000 0.0000 0.0000 33.2334 0.0000
# 6 0.0000 0.0000 0.0000 0.0000 0.0000 33.0300
#
#
#
# Elastic Compliance Matrix: (Units=1/GPa)
#
#
# Indices 1 2 3 4 5 6 
#
# 1 0.015667 -0.005871 -0.008720 0.000000 0.000000 0.000000
# 2 -0.005871 0.020824 -0.004157 0.000000 0.000000 0.000000
# 3 -0.008720 -0.004157 0.016854 0.000000 0.000000 0.000000
# 4 0.000000 0.000000 0.000000 0.045265 0.000000 0.000000
# 5 0.000000 0.000000 0.000000 0.000000 0.030090 0.000000
# 6 0.000000 0.000000 0.000000 0.000000 0.000000 0.030275
#
#
# Mechanical properties :
#
#
# Convention : Reuss Voigt Hill
#
# Bulk Modulus (GPa) = 63.08906 72.79584 67.94245
# Shear Modulus (GPa) = 24.78254 26.66715 25.72484
#
# Velocity S-wave (km/s) = 3.66616 3.80300 3.73521
# Velocity P-wave (km/s) = 7.22060 7.66578 7.44652
#
# Compressibility (1/GPa) = 0.01585061
#
# Stress axis : x y z
#
# Youngs Moduli (GPa) = 63.82644 48.02261 59.33136
#
# Poissons Ratio (x) = 0.28195 0.51735
# Poissons Ratio (y) = 0.37474 0.24661
# Poissons Ratio (z) = 0.55654 0.19961
#
# Static dielectric constant tensor:
#      x y z
#    x 3.443900 0.000000 0.000000 
#    y 0.000000 3.259890 0.000000 
#    z 0.000000 0.000000 3.521920 
# 
# 
# High freq. dielectric constant tensor:
#      x y z
#    x 1.715290 0.000000 0.000000 
#    y 0.000000 1.702920 0.000000 
#    z 0.000000 0.000000 1.727240 
# 
# From -- ./inp_files/67402.got.cif
#   From: 2010.03.12/outbox.cif.g09.slc.cpg/sg65_34_cif.got.tgz:67402.got - 2010.04.10 20:52:16.
