data_PCOD8270408
_publ_section_title
;
Structure prediction by ZEFSAII (Michael W. Deem and Ramdas Pophale) SiO2 
 PCOD8270408
Probable space group: C M M M
;
_chemical_formula_sum "Si O2"
_cell_formula_units_Z 120
_cell_length_a 27.929813
_cell_length_b 27.747054
_cell_length_c 9.056066
_cell_angle_alpha 90.000000
_cell_angle_beta 90.000000
_cell_angle_gamma 90.000000
_cell_volume 7018.179735
_symmetry_space_group_name_H-M "C M M M"
_symmetry_group_IT_number 65
_symmetry_cell_setting 'orthorhombic'
loop_
_space_group_symop_operation_xyz
x,y,z
-x,-y,z
x,-y,-z
-x,y,-z
-x,-y,-z
x,y,-z
-x,y,z
x,-y,z
1/2+x,1/2+y,z
1/2-x,1/2-y,z
1/2+x,1/2-y,-z
1/2-x,1/2+y,-z
1/2-x,1/2-y,-z
1/2+x,1/2+y,-z
1/2-x,1/2+y,z
1/2+x,1/2-y,z
loop_
_atom_site_type_symbol
_atom_site_label
_atom_site_fract_x
_atom_site_fract_y
_atom_site_fract_z
Si Si1 0.702975 0.191862 0.828250
Si Si2 0.500000 0.942386 0.666100
Si Si3 0.055579 0.945045 0.172523
Si Si4 0.312642 0.699500 0.828414
Si Si5 0.776242 0.053588 0.324736
Si Si6 0.635033 0.383644 0.675473
Si Si7 0.091559 0.443487 0.836097
Si Si8 0.178442 0.399735 0.325458
O O1 0.679621 0.243889 0.797802
O O2 0.758390 0.188140 0.777545
O O3 0.672155 0.154624 0.732200
O O4 0.699246 0.178970 0.000000
O O5 0.500000 0.921944 0.500000
O O6 0.546143 0.921410 0.750680
O O7 0.500000 0.000000 0.663527
O O8 0.085772 0.905391 0.262102
O O9 0.000000 0.935282 0.207760
O O10 0.068859 0.000000 0.220363
O O11 0.065937 0.938279 0.000000
O O12 0.352207 0.669534 0.736727
O O13 0.319530 0.687383 0.000000
O O14 0.775720 0.051621 0.500000
O O15 0.822703 0.081601 0.268014
O O16 0.729063 0.080291 0.266916
O O17 0.777742 0.000000 0.257413
O O18 0.631152 0.380717 0.500000
O O19 0.084605 0.500000 0.850226
O O20 0.138537 0.433695 0.742357
O O21 0.095008 0.420485 0.000000
O O22 0.173978 0.401309 0.500000
#
# Coordination Sequence:
#
# PCOD8270408 Si02
#       8
#    16   8  16  16  16  16  16  16
#     4   9  18  33  51  71  98 132 169 210 250 295
#     4   9  17  31  51  73  95 123 163 207 249 289
#     4   9  19  36  55  75 102 137 176 216 258 308
#     4   9  18  33  52  72  98 132 168 207 251 298
#     4   9  18  30  42  63 100 139 168 197 238 290
#     4  11  20  31  50  77 105 134 169 212 258 304
#     4  10  20  33  49  71 100 133 169 208 246 290
#     4  11  20  31  48  71 101 136 169 205 250 298
#
# _framework density 17.098451000000001
#
# number of rings (size 3 to 8) (size 9 to 14) (size 15 to 20)
#    0.000    2.333    1.333    3.400    0.000    3.733 
#    0.000    2.000    0.000    3.200    1.733    0.000 
#    0.000    0.000    0.000    0.000    0.000    0.000 
#
# Total GULP energy -743949.126492 kJ/mol
# GULP energy per Si atom -12399.152108 kJ/mol
# Density = 1.705953 g / cm^3
# Si number density = 17.098451 Si / 1000 Ang^3
#
#
#
# Elastic Constant Matrix: (Units=GPa)
#
#
# Indices 1 2 3 4 5 6 
#
# 1 94.2643 32.9725 43.2369 0.0000 0.0000 0.0000
# 2 32.9725 72.2353 34.0257 0.0000 0.0000 0.0000
# 3 43.2369 34.0257 82.5185 0.0000 0.0000 0.0000
# 4 0.0000 0.0000 0.0000 26.4758 0.0000 0.0000
# 5 0.0000 0.0000 0.0000 0.0000 28.4968 0.0000
# 6 0.0000 0.0000 0.0000 0.0000 0.0000 21.9606
#
#
#
# Elastic Compliance Matrix: (Units=1/GPa)
#
#
# Indices 1 2 3 4 5 6 
#
# 1 0.014778 -0.003845 -0.006158 0.000000 0.000000 0.000000
# 2 -0.003845 0.018181 -0.005482 0.000000 0.000000 0.000000
# 3 -0.006158 -0.005482 0.017605 0.000000 0.000000 0.000000
# 4 0.000000 0.000000 0.000000 0.037770 0.000000 0.000000
# 5 0.000000 0.000000 0.000000 0.000000 0.035092 0.000000
# 6 0.000000 0.000000 0.000000 0.000000 0.000000 0.045536
#
#
# Mechanical properties :
#
#
# Convention : Reuss Voigt Hill
#
# Bulk Modulus (GPa) = 51.03414 52.16538 51.59976
# Shear Modulus (GPa) = 24.21739 24.63884 24.42812
#
# Velocity S-wave (km/s) = 3.76753 3.80017 3.78388
# Velocity P-wave (km/s) = 6.98840 7.05904 7.02381
#
# Compressibility (1/GPa) = 0.01959473
#
# Stress axis : x y z
#
# Youngs Moduli (GPa) = 67.66928 55.00241 56.80088
#
# Poissons Ratio (x) = 0.21148 0.34976
# Poissons Ratio (y) = 0.26019 0.31139
# Poissons Ratio (z) = 0.41668 0.30153
#
# Static dielectric constant tensor:
#      x y z
#    x 3.102110 0.000000 0.000000 
#    y 0.000000 3.103890 0.000000 
#    z 0.000000 0.000000 3.117890 
# 
# 
# High freq. dielectric constant tensor:
#      x y z
#    x 1.646170 0.000000 0.000000 
#    y 0.000000 1.644470 0.000000 
#    z 0.000000 0.000000 1.657960 
# 
# From -- ./inp_files/17062.got.cif
#   From: 2010.03.12/outbox.cif.g09.slc.cpg/sg65_9_cif.got.tgz:17062.got - 2010.04.10 20:52:16.
