data_PCOD8270877
_publ_section_title
;
Structure prediction by ZEFSAII (Michael W. Deem and Ramdas Pophale) SiO2 
 PCOD8270877
Probable space group: C M M M
;
_chemical_formula_sum "Si O2"
_cell_formula_units_Z 64
_cell_length_a 9.886023
_cell_length_b 20.028888
_cell_length_c 16.681320
_cell_angle_alpha 90.000000
_cell_angle_beta 90.000000
_cell_angle_gamma 90.000000
_cell_volume 3303.002239
_symmetry_space_group_name_H-M "C M M M"
_symmetry_group_IT_number 65
_symmetry_cell_setting 'orthorhombic'
loop_
_space_group_symop_operation_xyz
x,y,z
-x,-y,z
x,-y,-z
-x,y,-z
-x,-y,-z
x,y,-z
-x,y,z
x,-y,z
1/2+x,1/2+y,z
1/2-x,1/2-y,z
1/2+x,1/2-y,-z
1/2-x,1/2+y,-z
1/2-x,1/2-y,-z
1/2+x,1/2+y,-z
1/2-x,1/2+y,z
1/2+x,1/2-y,z
loop_
_atom_site_type_symbol
_atom_site_label
_atom_site_fract_x
_atom_site_fract_y
_atom_site_fract_z
Si Si1 0.347000 0.577738 0.140925
Si Si2 0.844210 0.420269 0.000000
Si Si3 0.853253 0.802322 0.410006
Si Si4 0.770955 0.077141 0.320898
Si Si5 0.000000 0.421792 0.410162
O O1 0.500000 0.609133 0.135346
O O2 0.363162 0.500000 0.124170
O O3 0.278049 0.590522 0.226500
O O4 0.240876 0.607354 0.076371
O O5 0.851096 0.500000 0.000000
O O6 0.000000 0.392732 0.000000
O O7 0.802950 0.818665 0.500000
O O8 0.750000 0.750000 0.368681
O O9 0.872817 0.872120 0.363307
O O10 0.000000 0.767524 0.410583
O O11 0.627185 0.099377 0.356788
O O12 0.808356 0.000000 0.340447
O O13 0.000000 0.500000 0.422239
O O14 0.000000 0.388950 0.500000
#
# Coordination Sequence:
#
# PCOD8270877 Si02
#       5
#    16   8  16  16   8
#     4   9  17  29  46  70 102 137 172 215 268 322
#     4   9  17  27  43  67 102 141 174 207 255 322
#     4  10  22  38  55  76 105 142 181 222 270 324
#     4  10  20  33  54  80 107 138 181 229 274 320
#     4   9  18  30  46  73 107 139 170 215 275 325
#
# _framework density 19.37631
#
# number of rings (size 3 to 8) (size 9 to 14) (size 15 to 20)
#    0.000    2.500    0.000    1.875    3.500    4.500 
#    0.000    1.250    0.000    0.000    0.000    0.875 
#    0.000    0.000    0.000    0.000    0.000    0.000 
#
# Total GULP energy -396468.888962 kJ/mol
# GULP energy per Si atom -12389.652780 kJ/mol
# Density = 1.933221 g / cm^3
# Si number density = 19.376310 Si / 1000 Ang^3
#
#
#
# Elastic Constant Matrix: (Units=GPa)
#
#
# Indices 1 2 3 4 5 6 
#
# 1 157.4651 22.7885 75.6415 0.0000 0.0000 0.0000
# 2 22.7885 59.8997 31.1065 0.0000 0.0000 0.0000
# 3 75.6415 31.1065 134.9076 0.0000 0.0000 0.0000
# 4 0.0000 0.0000 0.0000 10.0505 0.0000 0.0000
# 5 0.0000 0.0000 0.0000 0.0000 28.8353 0.0000
# 6 0.0000 0.0000 0.0000 0.0000 0.0000 15.5773
#
#
#
# Elastic Compliance Matrix: (Units=1/GPa)
#
#
# Indices 1 2 3 4 5 6 
#
# 1 0.008733 -0.000886 -0.004692 0.000000 0.000000 0.000000
# 2 -0.000886 0.019055 -0.003897 0.000000 0.000000 0.000000
# 3 -0.004692 -0.003897 0.010942 0.000000 0.000000 0.000000
# 4 0.000000 0.000000 0.000000 0.099498 0.000000 0.000000
# 5 0.000000 0.000000 0.000000 0.000000 0.034680 0.000000
# 6 0.000000 0.000000 0.000000 0.000000 0.000000 0.064196
#
#
# Mechanical properties :
#
#
# Convention : Reuss Voigt Hill
#
# Bulk Modulus (GPa) = 50.55582 67.92727 59.24155
# Shear Modulus (GPa) = 19.03696 25.74167 22.38931
#
# Velocity S-wave (km/s) = 3.13786 3.64883 3.40295
# Velocity P-wave (km/s) = 6.26709 7.27220 6.78828
#
# Compressibility (1/GPa) = 0.01978012
#
# Stress axis : x y z
#
# Youngs Moduli (GPa) = 114.51131 52.47876 91.39154
#
# Poissons Ratio (x) = 0.04648 0.42883
# Poissons Ratio (y) = 0.10141 0.35617
# Poissons Ratio (z) = 0.53731 0.20452
#
# Static dielectric constant tensor:
#      x y z
#    x 3.890990 0.000000 0.000000 
#    y 0.000000 2.994890 0.000000 
#    z 0.000000 0.000000 3.579560 
# 
# 
# High freq. dielectric constant tensor:
#      x y z
#    x 1.773810 0.000000 0.000000 
#    y 0.000000 1.694740 0.000000 
#    z 0.000000 0.000000 1.748790 
# 
# From -- ./inp_files/49130.got.cif
#   From: 2010.03.12/outbox.cif.g09.slc.cpg/sg65_25_cif.got.tgz:49130.got - 2010.04.10 20:52:16.
