data_PCOD8270888
_publ_section_title
;
Structure prediction by ZEFSAII (Michael W. Deem and Ramdas Pophale) SiO2 
 PCOD8270888
Probable space group: C M M M
;
_chemical_formula_sum "Si O2"
_cell_formula_units_Z 104
_cell_length_a 20.378364
_cell_length_b 16.367792
_cell_length_c 16.946959
_cell_angle_alpha 90.000000
_cell_angle_beta 90.000000
_cell_angle_gamma 90.000000
_cell_volume 5652.638232
_symmetry_space_group_name_H-M "C M M M"
_symmetry_group_IT_number 65
_symmetry_cell_setting 'orthorhombic'
loop_
_space_group_symop_operation_xyz
x,y,z
-x,-y,z
x,-y,-z
-x,y,-z
-x,-y,-z
x,y,-z
-x,y,z
x,-y,z
1/2+x,1/2+y,z
1/2-x,1/2-y,z
1/2+x,1/2-y,-z
1/2-x,1/2+y,-z
1/2-x,1/2-y,-z
1/2+x,1/2+y,-z
1/2-x,1/2+y,z
1/2+x,1/2-y,z
loop_
_atom_site_type_symbol
_atom_site_label
_atom_site_fract_x
_atom_site_fract_y
_atom_site_fract_z
Si Si1 0.074207 0.209358 0.911403
Si Si2 0.743450 0.591052 0.265100
Si Si3 0.897834 0.091332 0.788164
Si Si4 0.427752 0.260907 0.677561
Si Si5 0.127949 0.655700 0.191190
Si Si6 0.077890 0.500000 0.093326
Si Si7 0.193920 0.815372 0.586523
O O1 0.076848 0.119029 0.873918
O O2 0.126021 0.268309 0.868400
O O3 0.000000 0.245206 0.905359
O O4 0.097970 0.201461 0.000000
O O5 0.772569 0.500000 0.273362
O O6 0.681039 0.593564 0.208117
O O7 0.798758 0.647542 0.225889
O O8 0.717876 0.617622 0.351207
O O9 0.927345 0.154255 0.725433
O O10 0.923210 0.000000 0.768893
O O11 0.500000 0.250766 0.639232
O O12 0.416772 0.181526 0.733851
O O13 0.372514 0.267606 0.610779
O O14 0.104154 0.577507 0.141953
O O15 0.000000 0.500000 0.095418
O O16 0.100806 0.500000 0.000000
O O17 0.182494 0.855945 0.500000
O O18 0.250000 0.750000 0.579642
#
# Coordination Sequence:
#
# PCOD8270888 Si02
#       7
#    16  16  16  16  16   8  16
#     4  10  21  35  51  73 103 138 178 227 279 331
#     4  10  20  36  56  80 106 142 182 226 266 325
#     4   9  19  34  54  76 104 139 183 227 274 327
#     4  10  20  33  55  85 113 143 182 229 274 325
#     4  11  19  34  54  77 107 144 184 226 278 324
#     4  11  22  34  52  78 109 147 190 237 285 331
#     4  10  20  36  58  82 109 145 181 218 270 330
#
# _framework density 18.398489999999999
#
# number of rings (size 3 to 8) (size 9 to 14) (size 15 to 20)
#    0.000    1.923    2.308    3.231    0.000    3.385 
#    0.000    3.077    0.000    0.000    0.000    4.308 
#    0.000    4.923    0.000    0.000    0.000    0.000 
#
# Total GULP energy -644393.379854 kJ/mol
# GULP energy per Si atom -12392.180382 kJ/mol
# Density = 1.835661 g / cm^3
# Si number density = 18.398490 Si / 1000 Ang^3
#
#
#
# Elastic Constant Matrix: (Units=GPa)
#
#
# Indices 1 2 3 4 5 6 
#
# 1 113.1948 25.0942 49.4083 0.0000 0.0000 0.0000
# 2 25.0942 81.3061 29.9797 0.0000 0.0000 0.0000
# 3 49.4083 29.9797 118.6841 0.0000 0.0000 0.0000
# 4 0.0000 0.0000 0.0000 17.2718 0.0000 0.0000
# 5 0.0000 0.0000 0.0000 0.0000 31.2961 0.0000
# 6 0.0000 0.0000 0.0000 0.0000 0.0000 20.5106
#
#
#
# Elastic Compliance Matrix: (Units=1/GPa)
#
#
# Indices 1 2 3 4 5 6 
#
# 1 0.011054 -0.001891 -0.004124 0.000000 0.000000 0.000000
# 2 -0.001891 0.013886 -0.002720 0.000000 0.000000 0.000000
# 3 -0.004124 -0.002720 0.010830 0.000000 0.000000 0.000000
# 4 0.000000 0.000000 0.000000 0.057898 0.000000 0.000000
# 5 0.000000 0.000000 0.000000 0.000000 0.031953 0.000000
# 6 0.000000 0.000000 0.000000 0.000000 0.000000 0.048755
#
#
# Mechanical properties :
#
#
# Convention : Reuss Voigt Hill
#
# Bulk Modulus (GPa) = 54.64897 58.01660 56.33278
# Shear Modulus (GPa) = 25.25950 27.72922 26.49436
#
# Velocity S-wave (km/s) = 3.70930 3.88641 3.79889
# Velocity P-wave (km/s) = 6.93633 7.19310 7.06588
#
# Compressibility (1/GPa) = 0.01829861
#
# Stress axis : x y z
#
# Youngs Moduli (GPa) = 90.46830 72.01546 92.33850
#
# Poissons Ratio (x) = 0.13618 0.38080
# Poissons Ratio (y) = 0.17107 0.25120
# Poissons Ratio (z) = 0.37309 0.19591
#
# Static dielectric constant tensor:
#      x y z
#    x 3.451150 0.000000 0.000000 
#    y 0.000000 3.519520 0.000000 
#    z 0.000000 0.000000 3.639460 
# 
# 
# High freq. dielectric constant tensor:
#      x y z
#    x 1.718180 0.000000 0.000000 
#    y 0.000000 1.709200 0.000000 
#    z 0.000000 0.000000 1.701380 
# 
# From -- ./inp_files/55843.got.cif
#   From: 2010.03.12/outbox.cif.g09.slc.cpg/sg65_28_cif.got.tgz:55843.got - 2010.04.10 20:52:16.
