data_PCOD8270014
_publ_section_title
;
Structure prediction by ZEFSAII (Michael W. Deem and Ramdas Pophale) SiO2 
 PCOD8270014
Probable space group: C M M M
;
_chemical_formula_sum "Si O2"
_cell_formula_units_Z 88
_cell_length_a 9.424677
_cell_length_b 18.566957
_cell_length_c 28.666143
_cell_angle_alpha 90.000000
_cell_angle_beta 90.000000
_cell_angle_gamma 90.000000
_cell_volume 5016.218779
_symmetry_space_group_name_H-M "C M M M"
_symmetry_group_IT_number 65
_symmetry_cell_setting 'orthorhombic'
loop_
_space_group_symop_operation_xyz
x,y,z
-x,-y,z
x,-y,-z
-x,y,-z
-x,-y,-z
x,y,-z
-x,y,z
x,-y,z
1/2+x,1/2+y,z
1/2-x,1/2-y,z
1/2+x,1/2-y,-z
1/2-x,1/2+y,-z
1/2-x,1/2-y,-z
1/2+x,1/2+y,-z
1/2-x,1/2+y,z
1/2+x,1/2-y,z
loop_
_atom_site_type_symbol
_atom_site_label
_atom_site_fract_x
_atom_site_fract_y
_atom_site_fract_z
Si Si1 0.831681 0.921165 0.500000
Si Si2 0.163226 0.083136 0.774249
Si Si3 0.340178 0.413673 0.600089
Si Si4 0.168345 0.080369 0.051890
Si Si5 0.339924 0.914198 0.313798
Si Si6 0.666677 0.323243 0.135874
O O1 0.788862 0.882572 0.549103
O O2 0.000000 0.930008 0.500000
O O3 0.760017 0.000000 0.500000
O O4 0.258227 0.113497 0.732011
O O5 0.201681 0.126969 0.820222
O O6 0.000000 0.093018 0.759611
O O7 0.197377 0.000000 0.784921
O O8 0.500000 0.387871 0.611583
O O9 0.336383 0.500000 0.598135
O O10 0.236493 0.383195 0.639995
O O11 0.226926 0.136410 0.089908
O O12 0.000000 0.077342 0.055659
O O13 0.228166 0.000000 0.061863
O O14 0.215115 0.105646 0.000000
O O15 0.500000 0.884601 0.312508
O O16 0.336036 0.000000 0.315006
O O17 0.500000 0.307077 0.131731
O O18 0.750000 0.250000 0.142095
#
# Coordination Sequence:
#
# PCOD8270014 Si02
#       6
#     8  16  16  16  16  16
#     4   7  10  16  27  43  63  93 134 173 206 247
#     4   9  17  30  47  63  80 109 151 191 221 256
#     4   8  12  19  31  46  67  98 136 174 211 255
#     4   8  14  27  49  74  96 120 154 192 222 252
#     4   9  16  24  35  54  78 102 133 177 226 269
#     4  10  20  32  47  69  95 121 149 183 225 270
#
# _framework density 17.543095999999998
#
# number of rings (size 3 to 8) (size 9 to 14) (size 15 to 20)
#    0.000    3.364    0.000    2.727    0.000    5.455 
#    0.000    0.455    0.000    4.364    0.000    1.273 
#    0.000    0.000    0.000    0.818    0.000   10.545 
#
# Total GULP energy -545219.630157 kJ/mol
# GULP energy per Si atom -12391.355231 kJ/mol
# Density = 1.750317 g / cm^3
# Si number density = 17.543096 Si / 1000 Ang^3
#
#
#
# Elastic Constant Matrix: (Units=GPa)
#
#
# Indices 1 2 3 4 5 6 
#
# 1 74.6745 29.9649 74.0852 0.0000 0.0000 0.0000
# 2 29.9649 50.3199 51.1604 0.0000 0.0000 0.0000
# 3 74.0852 51.1604 183.9095 0.0000 0.0000 0.0000
# 4 0.0000 0.0000 0.0000 0.7060 0.0000 0.0000
# 5 0.0000 0.0000 0.0000 0.0000 13.2210 0.0000
# 6 0.0000 0.0000 0.0000 0.0000 0.0000 15.2724
#
#
#
# Elastic Compliance Matrix: (Units=1/GPa)
#
#
# Indices 1 2 3 4 5 6 
#
# 1 0.023582 -0.006114 -0.007799 0.000000 0.000000 0.000000
# 2 -0.006114 0.029295 -0.005687 0.000000 0.000000 0.000000
# 3 -0.007799 -0.005687 0.010161 0.000000 0.000000 0.000000
# 4 0.000000 0.000000 0.000000 1.416334 0.000000 0.000000
# 5 0.000000 0.000000 0.000000 0.000000 0.075637 0.000000
# 6 0.000000 0.000000 0.000000 0.000000 0.000000 0.065477
#
#
# Mechanical properties :
#
#
# Convention : Reuss Voigt Hill
#
# Bulk Modulus (GPa) = 41.94662 68.81390 55.38026
# Shear Modulus (GPa) = 2.99826 16.08613 9.54220
#
# Velocity S-wave (km/s) = 1.30874 3.03140 2.33476
# Velocity P-wave (km/s) = 5.12311 7.18076 6.23737
#
# Compressibility (1/GPa) = 0.02383982
#
# Stress axis : x y z
#
# Youngs Moduli (GPa) = 42.40494 34.13551 98.41465
#
# Poissons Ratio (x) = 0.20869 0.76754
# Poissons Ratio (y) = 0.25925 0.55964
# Poissons Ratio (z) = 0.33072 0.19411
#
# Static dielectric constant tensor:
#      x y z
#    x 3.042390 0.000000 0.000000 
#    y 0.000000 2.759390 0.000000 
#    z 0.000000 0.000000 3.735730 
# 
# 
# High freq. dielectric constant tensor:
#      x y z
#    x 1.646230 0.000000 0.000000 
#    y 0.000000 1.617080 0.000000 
#    z 0.000000 0.000000 1.703660 
# 
# From -- ./inp_files/76669.got.cif
#   From: 2010.03.12/outbox.cif.g09.slc.cpg/sg65_39_cif.got.tgz:76669.got - 2010.04.10 20:52:16.
