data_PCOD8270692
_publ_section_title
;
Structure prediction by ZEFSAII (Michael W. Deem and Ramdas Pophale) SiO2 
 PCOD8270692
Probable space group: C M M M
;
_chemical_formula_sum "Si O2"
_cell_formula_units_Z 80
_cell_length_a 25.649999
_cell_length_b 19.145854
_cell_length_c 9.239729
_cell_angle_alpha 90.000000
_cell_angle_beta 90.000000
_cell_angle_gamma 90.000000
_cell_volume 4537.549011
_symmetry_space_group_name_H-M "C M M M"
_symmetry_group_IT_number 65
_symmetry_cell_setting 'orthorhombic'
loop_
_space_group_symop_operation_xyz
x,y,z
-x,-y,z
x,-y,-z
-x,y,-z
-x,-y,-z
x,y,-z
-x,y,z
x,-y,z
1/2+x,1/2+y,z
1/2-x,1/2-y,z
1/2+x,1/2-y,-z
1/2-x,1/2+y,-z
1/2-x,1/2-y,-z
1/2+x,1/2+y,-z
1/2-x,1/2+y,z
1/2+x,1/2-y,z
loop_
_atom_site_type_symbol
_atom_site_label
_atom_site_fract_x
_atom_site_fract_y
_atom_site_fract_z
Si Si1 0.193426 0.329066 0.831415
Si Si2 0.602507 0.417833 0.331208
Si Si3 0.611728 0.916910 0.664252
Si Si4 0.000000 0.082929 0.164267
Si Si5 0.312405 0.329238 0.830030
Si Si6 0.500000 0.076649 0.328091
O O1 0.157258 0.385671 0.758383
O O2 0.252801 0.343880 0.785231
O O3 0.175128 0.251041 0.790461
O O4 0.188225 0.339845 0.000000
O O5 0.596545 0.399755 0.500000
O O6 0.610413 0.500000 0.306917
O O7 0.551086 0.390133 0.248557
O O8 0.652304 0.379380 0.265901
O O9 0.622155 0.894307 0.500000
O O10 0.554757 0.886501 0.716945
O O11 0.611868 0.000000 0.680258
O O12 0.000000 0.000000 0.163128
O O13 0.000000 0.112328 0.000000
O O14 0.321795 0.343829 0.000000
O O15 0.500000 0.068317 0.500000
O O16 0.500000 0.000000 0.256896
#
# Coordination Sequence:
#
# PCOD8270692 Si02
#       6
#    16  16  16   8  16   8
#     4   9  19  35  52  70  95 128 166 207 247 289
#     4  10  20  33  51  77 105 129 160 206 251 291
#     4   9  17  30  50  74  98 126 161 198 238 290
#     4   9  17  31  52  75 100 133 167 197 240 297
#     4   9  19  36  53  68  93 132 171 202 241 297
#     4   7  12  26  46  67  94 127 157 185 224 279
#
# _framework density 17.630662000000001
#
# number of rings (size 3 to 8) (size 9 to 14) (size 15 to 20)
#    0.000    3.000    0.000    3.300    0.000    5.200 
#    0.000    7.500    0.000    6.600    0.000    0.000 
#    0.000    0.000    0.000    0.000    0.000    0.000 
#
# Total GULP energy -495727.654167 kJ/mol
# GULP energy per Si atom -12393.191354 kJ/mol
# Density = 1.759053 g / cm^3
# Si number density = 17.630662 Si / 1000 Ang^3
#
#
#
# Elastic Constant Matrix: (Units=GPa)
#
#
# Indices 1 2 3 4 5 6 
#
# 1 132.5612 46.2326 64.5328 0.0000 0.0000 0.0000
# 2 46.2326 38.7242 33.6605 0.0000 0.0000 0.0000
# 3 64.5328 33.6605 76.8601 0.0000 0.0000 0.0000
# 4 0.0000 0.0000 0.0000 24.0020 0.0000 0.0000
# 5 0.0000 0.0000 0.0000 0.0000 32.0984 0.0000
# 6 0.0000 0.0000 0.0000 0.0000 0.0000 -1.4417
#
#
#
# Elastic Compliance Matrix: (Units=1/GPa)
#
#
# Indices 1 2 3 4 5 6 
#
# 1 0.015405 -0.011544 -0.007879 0.000000 0.000000 0.000000
# 2 -0.011544 0.050347 -0.012357 0.000000 0.000000 0.000000
# 3 -0.007879 -0.012357 0.025038 0.000000 0.000000 0.000000
# 4 0.000000 0.000000 0.000000 0.041663 0.000000 0.000000
# 5 0.000000 0.000000 0.000000 0.000000 0.031154 0.000000
# 6 0.000000 0.000000 0.000000 0.000000 0.000000 -0.693645
#
#
# Mechanical properties :
#
#
# Convention : Reuss Voigt Hill
#
# Bulk Modulus (GPa) = 36.72352 59.66637 48.19495
# Shear Modulus (GPa) = -10.93130 17.84637 3.45754
#
# Velocity S-wave (km/s) = -2.49271 3.18502 1.40191
# Velocity P-wave (km/s) = 3.54820 6.88779 5.47866
#
# Compressibility (1/GPa) = 0.02723051
#
# Stress axis : x y z
#
# Youngs Moduli (GPa) = 64.91255 19.86232 39.93983
#
# Poissons Ratio (x) = 0.22928 0.31469
# Poissons Ratio (y) = 0.74932 0.49353
# Poissons Ratio (z) = 0.51145 0.24544
#
# Static dielectric constant tensor:
#      x y z
#    x 3.538040 0.000000 0.000000 
#    y 0.000000 3.012560 0.000000 
#    z 0.000000 0.000000 3.167500 
# 
# 
# High freq. dielectric constant tensor:
#      x y z
#    x 1.699350 0.000000 0.000000 
#    y 0.000000 1.652800 0.000000 
#    z 0.000000 0.000000 1.672860 
# 
# From -- ./inp_files/12113.got.cif
#   From: 2010.03.12/outbox.cif.g09.slc.cpg/sg65_7_cif.got.tgz:12113.got - 2010.04.10 20:52:16.
