data_PCOD8270869
_publ_section_title
;
Structure prediction by ZEFSAII (Michael W. Deem and Ramdas Pophale) SiO2 
 PCOD8270869
Probable space group: C M M M
;
_chemical_formula_sum "Si O2"
_cell_formula_units_Z 120
_cell_length_a 27.222968
_cell_length_b 26.886785
_cell_length_c 9.101229
_cell_angle_alpha 90.000000
_cell_angle_beta 90.000000
_cell_angle_gamma 90.000000
_cell_volume 6661.536150
_symmetry_space_group_name_H-M "C M M M"
_symmetry_group_IT_number 65
_symmetry_cell_setting 'orthorhombic'
loop_
_space_group_symop_operation_xyz
x,y,z
-x,-y,z
x,-y,-z
-x,y,-z
-x,-y,-z
x,y,-z
-x,y,z
x,-y,z
1/2+x,1/2+y,z
1/2-x,1/2-y,z
1/2+x,1/2-y,-z
1/2-x,1/2+y,-z
1/2-x,1/2-y,-z
1/2+x,1/2+y,-z
1/2-x,1/2+y,z
1/2+x,1/2-y,z
loop_
_atom_site_type_symbol
_atom_site_label
_atom_site_fract_x
_atom_site_fract_y
_atom_site_fract_z
Si Si1 0.884642 0.094485 0.825515
Si Si2 0.556718 0.207200 0.331200
Si Si3 0.363045 0.145454 0.170627
Si Si4 0.316831 0.943444 0.328531
Si Si5 0.443608 0.321383 0.328970
Si Si6 0.554579 0.500000 0.825654
Si Si7 0.214871 0.894349 0.671966
Si Si8 0.260677 0.193709 0.169814
O O1 0.907459 0.145889 0.769005
O O2 0.831518 0.084000 0.757531
O O3 0.918278 0.049277 0.769546
O O4 0.880293 0.096768 0.000000
O O5 0.571140 0.198603 0.500000
O O6 0.500000 0.194122 0.304354
O O7 0.588188 0.170505 0.232086
O O8 0.566950 0.264260 0.287373
O O9 0.354725 0.091688 0.243402
O O10 0.317331 0.181689 0.204247
O O11 0.370494 0.136221 0.000000
O O12 0.326414 0.935869 0.500000
O O13 0.260739 0.929667 0.289639
O O14 0.326365 0.000000 0.279270
O O15 0.432733 0.330948 0.500000
O O16 0.500000 0.334860 0.292273
O O17 0.500000 0.500000 0.758126
O O18 0.552599 0.500000 0.000000
O O19 0.203379 0.892666 0.500000
O O20 0.225367 0.838799 0.728227
O O21 0.250000 0.250000 0.213064
O O22 0.248001 0.182763 0.000000
#
# Coordination Sequence:
#
# PCOD8270869 Si02
#       8
#    16  16  16  16  16   8  16  16
#     4  11  22  35  54  77 103 138 179 225 277 329
#     4   9  19  36  57  80 110 147 181 216 260 315
#     4  10  20  33  53  83 113 143 177 220 270 317
#     4   9  19  37  59  79 104 142 182 221 265 322
#     4   9  19  36  55  77 105 137 177 224 271 318
#     4   9  20  38  55  73  99 135 181 229 278 333
#     4  10  21  35  52  78 107 138 178 221 266 314
#     4   9  19  35  52  74 109 145 177 216 262 315
#
# _framework density 18.013863000000001
#
# number of rings (size 3 to 8) (size 9 to 14) (size 15 to 20)
#    0.000    2.467    0.000    2.400    2.800    3.200 
#    0.000    2.333    0.000    2.800    0.000    2.800 
#    0.000    0.000    0.000    0.000    0.000    0.000 
#
# Total GULP energy -744181.138461 kJ/mol
# GULP energy per Si atom -12403.018974 kJ/mol
# Density = 1.797286 g / cm^3
# Si number density = 18.013863 Si / 1000 Ang^3
#
#
#
# Elastic Constant Matrix: (Units=GPa)
#
#
# Indices 1 2 3 4 5 6 
#
# 1 87.0598 54.9797 41.7358 0.0000 0.0000 0.0000
# 2 54.9797 127.8509 50.4266 0.0000 0.0000 0.0000
# 3 41.7358 50.4266 70.5088 0.0000 0.0000 0.0000
# 4 0.0000 0.0000 0.0000 26.6576 0.0000 0.0000
# 5 0.0000 0.0000 0.0000 0.0000 31.7965 0.0000
# 6 0.0000 0.0000 0.0000 0.0000 0.0000 26.5038
#
#
#
# Elastic Compliance Matrix: (Units=1/GPa)
#
#
# Indices 1 2 3 4 5 6 
#
# 1 0.018026 -0.004936 -0.007140 0.000000 0.000000 0.000000
# 2 -0.004936 0.012246 -0.005837 0.000000 0.000000 0.000000
# 3 -0.007140 -0.005837 0.022583 0.000000 0.000000 0.000000
# 4 0.000000 0.000000 0.000000 0.037513 0.000000 0.000000
# 5 0.000000 0.000000 0.000000 0.000000 0.031450 0.000000
# 6 0.000000 0.000000 0.000000 0.000000 0.000000 0.037730
#
#
# Mechanical properties :
#
#
# Convention : Reuss Voigt Hill
#
# Bulk Modulus (GPa) = 58.71782 64.41153 61.56468
# Shear Modulus (GPa) = 24.86927 26.21008 25.53968
#
# Velocity S-wave (km/s) = 3.71962 3.81858 3.76943
# Velocity P-wave (km/s) = 7.14942 7.43480 7.29351
#
# Compressibility (1/GPa) = 0.01703060
#
# Stress axis : x y z
#
# Youngs Moduli (GPa) = 55.47457 81.65828 44.28012
#
# Poissons Ratio (x) = 0.40303 0.31618
# Poissons Ratio (y) = 0.27380 0.25845
# Poissons Ratio (z) = 0.39611 0.47662
#
# Static dielectric constant tensor:
#      x y z
#    x 3.281070 0.000000 0.000000 
#    y 0.000000 3.320070 0.000000 
#    z 0.000000 0.000000 3.248440 
# 
# 
# High freq. dielectric constant tensor:
#      x y z
#    x 1.693320 0.000000 0.000000 
#    y 0.000000 1.696390 0.000000 
#    z 0.000000 0.000000 1.695200 
# 
# From -- ./inp_files/17053.got.cif
#   From: 2010.03.12/outbox.cif.g09.slc.cpg/sg65_9_cif.got.tgz:17053.got - 2010.04.10 20:52:16.
