data_PCOD8270100
_publ_section_title
;
Structure prediction by ZEFSAII (Michael W. Deem and Ramdas Pophale) SiO2 
 PCOD8270100
Probable space group: C M M M
;
_chemical_formula_sum "Si O2"
_cell_formula_units_Z 72
_cell_length_a 9.880998
_cell_length_b 18.516494
_cell_length_c 21.860895
_cell_angle_alpha 90.000000
_cell_angle_beta 90.000000
_cell_angle_gamma 90.000000
_cell_volume 3999.700833
_symmetry_space_group_name_H-M "C M M M"
_symmetry_group_IT_number 65
_symmetry_cell_setting 'orthorhombic'
loop_
_space_group_symop_operation_xyz
x,y,z
-x,-y,z
x,-y,-z
-x,y,-z
-x,-y,-z
x,y,-z
-x,y,z
x,-y,z
1/2+x,1/2+y,z
1/2-x,1/2-y,z
1/2+x,1/2-y,-z
1/2-x,1/2+y,-z
1/2-x,1/2-y,-z
1/2+x,1/2+y,-z
1/2-x,1/2+y,z
1/2+x,1/2-y,z
loop_
_atom_site_type_symbol
_atom_site_label
_atom_site_fract_x
_atom_site_fract_y
_atom_site_fract_z
Si Si1 0.654835 0.085875 0.000000
Si Si2 0.500000 0.840267 0.429748
Si Si3 0.745825 0.663983 0.355810
Si Si4 0.340743 0.319661 0.774153
Si Si5 0.500000 0.667711 0.567663
Si Si6 0.346639 0.415960 0.891756
O O1 0.737591 0.113597 0.059192
O O2 0.500000 0.116098 0.000000
O O3 0.652968 0.000000 0.000000
O O4 0.500000 0.870507 0.500000
O O5 0.623582 0.869179 0.388789
O O6 0.500000 0.754207 0.433264
O O7 0.750000 0.750000 0.354988
O O8 0.719737 0.639848 0.285834
O O9 0.627201 0.635033 0.398056
O O10 0.500000 0.298626 0.764214
O O11 0.250000 0.250000 0.789332
O O12 0.322182 0.374996 0.828923
O O13 0.500000 0.636244 0.500000
O O14 0.500000 0.402785 0.916135
O O15 0.322504 0.500000 0.878962
#
# Coordination Sequence:
#
# PCOD8270100 Si02
#       6
#     8   8  16  16   8  16
#     4   9  17  31  52  79 104 125 155 199 246 283
#     4   9  16  24  36  56  83 118 159 196 236 285
#     4   9  16  25  37  57  86 121 156 192 237 284
#     4  10  20  32  48  71  99 133 165 195 239 291
#     4   9  14  22  36  54  81 116 153 192 236 281
#     4   9  18  34  55  76  99 128 163 199 237 283
#
# _framework density 18.001345000000001
#
# number of rings (size 3 to 8) (size 9 to 14) (size 15 to 20)
#    0.000    2.778    1.111    1.000    4.667    4.889 
#    0.000    0.556    0.000    0.000    0.000    0.000 
#    0.000    5.333    0.000    0.000    0.000    0.000 
#
# Total GULP energy -446080.992156 kJ/mol
# GULP energy per Si atom -12391.138671 kJ/mol
# Density = 1.796037 g / cm^3
# Si number density = 18.001345 Si / 1000 Ang^3
#
#
#
# Elastic Constant Matrix: (Units=GPa)
#
#
# Indices 1 2 3 4 5 6 
#
# 1 172.1726 25.2716 99.7561 0.0000 0.0000 0.0000
# 2 25.2716 21.3364 31.4344 0.0000 0.0000 0.0000
# 3 99.7561 31.4344 172.8706 0.0000 0.0000 0.0000
# 4 0.0000 0.0000 0.0000 -6.0466 0.0000 0.0000
# 5 0.0000 0.0000 0.0000 0.0000 40.8514 0.0000
# 6 0.0000 0.0000 0.0000 0.0000 0.0000 13.6077
#
#
#
# Elastic Compliance Matrix: (Units=1/GPa)
#
#
# Indices 1 2 3 4 5 6 
#
# 1 0.008981 -0.004100 -0.004437 0.000000 0.000000 0.000000
# 2 -0.004100 0.065891 -0.009615 0.000000 0.000000 0.000000
# 3 -0.004437 -0.009615 0.010093 0.000000 0.000000 0.000000
# 4 0.000000 0.000000 0.000000 -0.165381 0.000000 0.000000
# 5 0.000000 0.000000 0.000000 0.000000 0.024479 0.000000
# 6 0.000000 0.000000 0.000000 0.000000 0.000000 0.073488
#
#
# Mechanical properties :
#
#
# Convention : Reuss Voigt Hill
#
# Bulk Modulus (GPa) = 20.55080 75.47821 48.01450
# Shear Modulus (GPa) = 71.35243 23.67700 47.51472
#
# Velocity S-wave (km/s) = 6.30264 3.63063 5.14319
# Velocity P-wave (km/s) = 8.02530 7.71981 7.87404
#
# Compressibility (1/GPa) = 0.04865991
#
# Stress axis : x y z
#
# Youngs Moduli (GPa) = 111.35112 15.17663 99.07561
#
# Poissons Ratio (x) = 0.06223 0.43957
# Poissons Ratio (y) = 0.45659 0.95263
# Poissons Ratio (z) = 0.49403 0.14593
#
# Static dielectric constant tensor:
#      x y z
#    x 3.690380 0.000000 0.000000 
#    y 0.000000 2.617640 0.000000 
#    z 0.000000 0.000000 3.568460 
# 
# 
# High freq. dielectric constant tensor:
#      x y z
#    x 1.715130 0.000000 0.000000 
#    y 0.000000 1.617950 0.000000 
#    z 0.000000 0.000000 1.716510 
# 
# From -- ./inp_files/65005.got.cif
#   From: 2010.03.12/outbox.cif.g09.slc.cpg/sg65_33_cif.got.tgz:65005.got - 2010.04.10 20:52:16.
