data_PCOD8270352
_publ_section_title
;
Structure prediction by ZEFSAII (Michael W. Deem and Ramdas Pophale) SiO2 
 PCOD8270352
Probable space group: C M M M
;
_chemical_formula_sum "Si O2"
_cell_formula_units_Z 104
_cell_length_a 8.987654
_cell_length_b 26.957148
_cell_length_c 27.026519
_cell_angle_alpha 90.000000
_cell_angle_beta 90.000000
_cell_angle_gamma 90.000000
_cell_volume 6548.026078
_symmetry_space_group_name_H-M "C M M M"
_symmetry_group_IT_number 65
_symmetry_cell_setting 'orthorhombic'
loop_
_space_group_symop_operation_xyz
x,y,z
-x,-y,z
x,-y,-z
-x,y,-z
-x,-y,-z
x,y,-z
-x,y,z
x,-y,z
1/2+x,1/2+y,z
1/2-x,1/2-y,z
1/2+x,1/2-y,-z
1/2-x,1/2+y,-z
1/2-x,1/2-y,-z
1/2+x,1/2+y,-z
1/2-x,1/2+y,z
1/2+x,1/2-y,z
loop_
_atom_site_type_symbol
_atom_site_label
_atom_site_fract_x
_atom_site_fract_y
_atom_site_fract_z
Si Si1 0.174951 0.802936 0.841369
Si Si2 0.825760 0.197269 0.052272
Si Si3 0.673556 0.099702 0.404322
Si Si4 0.170084 0.944881 0.685866
Si Si5 0.173259 0.151497 0.740883
Si Si6 0.825799 0.300082 0.349992
Si Si7 0.323624 0.442899 0.500000
O O1 0.250000 0.750000 0.834317
O O2 0.218939 0.828182 0.894999
O O3 0.227085 0.839014 0.797103
O O4 0.000000 0.794118 0.838325
O O5 0.750000 0.250000 0.051500
O O6 0.000000 0.206610 0.052617
O O7 0.782204 0.168917 0.000000
O O8 0.500000 0.092011 0.414561
O O9 0.722834 0.063069 0.360641
O O10 0.710479 0.156253 0.388899
O O11 0.764254 0.086377 0.452836
O O12 0.207846 0.906110 0.729368
O O13 0.000000 0.937970 0.667701
O O14 0.196719 0.000000 0.707157
O O15 0.262855 0.186961 0.704048
O O16 0.000000 0.163872 0.733847
O O17 0.750000 0.250000 0.370199
O O18 0.000000 0.291358 0.344703
O O19 0.267591 0.500000 0.500000
O O20 0.500000 0.440955 0.500000
#
# Coordination Sequence:
#
# PCOD8270352 Si02
#       7
#    16  16  16  16  16  16   8
#     4   9  16  24  35  53  77 105 136 169 205 244
#     4   8  13  21  32  46  67  97 132 167 202 241
#     4  10  21  35  51  72  94 115 142 174 207 246
#     4   9  17  30  47  65  86 112 140 170 208 253
#     4   9  17  28  42  61  85 111 140 175 211 249
#     4  10  20  33  49  68  90 117 147 175 205 244
#     4  11  23  37  54  75  96 117 142 173 210 251
#
# _framework density 15.882649000000001
#
# number of rings (size 3 to 8) (size 9 to 14) (size 15 to 20)
#    0.000    2.692    0.000    2.077    0.000    6.462 
#    0.000    0.385    0.000    0.000    0.000    0.000 
#    0.000    0.615    0.000    8.615    0.000    0.000 
#
# Total GULP energy -644295.852288 kJ/mol
# GULP energy per Si atom -12390.304852 kJ/mol
# Density = 1.584650 g / cm^3
# Si number density = 15.882649 Si / 1000 Ang^3
#
#
#
# Elastic Constant Matrix: (Units=GPa)
#
#
# Indices 1 2 3 4 5 6 
#
# 1 45.3089 30.9610 38.1090 0.0000 0.0000 0.0000
# 2 30.9610 91.1789 57.4341 0.0000 0.0000 0.0000
# 3 38.1090 57.4341 155.3618 0.0000 0.0000 0.0000
# 4 0.0000 0.0000 0.0000 16.7258 0.0000 0.0000
# 5 0.0000 0.0000 0.0000 0.0000 16.0081 0.0000
# 6 0.0000 0.0000 0.0000 0.0000 0.0000 19.7012
#
#
#
# Elastic Compliance Matrix: (Units=1/GPa)
#
#
# Indices 1 2 3 4 5 6 
#
# 1 0.031357 -0.007564 -0.004895 0.000000 0.000000 0.000000
# 2 -0.007564 0.016121 -0.004104 0.000000 0.000000 0.000000
# 3 -0.004895 -0.004104 0.009155 0.000000 0.000000 0.000000
# 4 0.000000 0.000000 0.000000 0.059788 0.000000 0.000000
# 5 0.000000 0.000000 0.000000 0.000000 0.062469 0.000000
# 6 0.000000 0.000000 0.000000 0.000000 0.000000 0.050758
#
#
# Mechanical properties :
#
#
# Convention : Reuss Voigt Hill
#
# Bulk Modulus (GPa) = 42.54334 60.53974 51.54154
# Shear Modulus (GPa) = 18.47677 21.51004 19.99340
#
# Velocity S-wave (km/s) = 3.41446 3.68409 3.55184
# Velocity P-wave (km/s) = 6.51068 7.50309 7.02443
#
# Compressibility (1/GPa) = 0.02350544
#
# Stress axis : x y z
#
# Youngs Moduli (GPa) = 31.89095 62.03003 109.23415
#
# Poissons Ratio (x) = 0.46920 0.53474
# Poissons Ratio (y) = 0.24122 0.44833
# Poissons Ratio (z) = 0.15612 0.25459
#
# Static dielectric constant tensor:
#      x y z
#    x 2.776250 0.000000 0.000000 
#    y 0.000000 2.904520 0.000000 
#    z 0.000000 0.000000 3.539570 
# 
# 
# High freq. dielectric constant tensor:
#      x y z
#    x 1.615970 0.000000 0.000000 
#    y 0.000000 1.577980 0.000000 
#    z 0.000000 0.000000 1.614380 
# 
# From -- ./inp_files/73763.got.cif
#   From: 2010.03.12/outbox.cif.g09.slc.cpg/sg65_37_cif.got.tgz:73763.got - 2010.04.10 20:52:16.
