data_PCOD8270574
_publ_section_title
;
Structure prediction by ZEFSAII (Michael W. Deem and Ramdas Pophale) SiO2 
 PCOD8270574
Probable space group: C M M M
;
_chemical_formula_sum "Si O2"
_cell_formula_units_Z 104
_cell_length_a 26.465605
_cell_length_b 8.919917
_cell_length_c 23.660976
_cell_angle_alpha 90.000000
_cell_angle_beta 90.000000
_cell_angle_gamma 90.000000
_cell_volume 5585.670264
_symmetry_space_group_name_H-M "C M M M"
_symmetry_group_IT_number 65
_symmetry_cell_setting 'orthorhombic'
loop_
_space_group_symop_operation_xyz
x,y,z
-x,-y,z
x,-y,-z
-x,y,-z
-x,-y,-z
x,y,-z
-x,y,z
x,-y,z
1/2+x,1/2+y,z
1/2-x,1/2-y,z
1/2+x,1/2-y,-z
1/2-x,1/2+y,-z
1/2-x,1/2-y,-z
1/2+x,1/2+y,-z
1/2-x,1/2+y,z
1/2+x,1/2-y,z
loop_
_atom_site_type_symbol
_atom_site_label
_atom_site_fract_x
_atom_site_fract_y
_atom_site_fract_z
Si Si1 0.804476 0.824133 0.317868
Si Si2 0.940367 0.831583 0.387264
Si Si3 0.196189 0.825762 0.440532
Si Si4 0.059722 0.166605 0.828976
Si Si5 0.060640 0.671156 0.500000
Si Si6 0.439916 0.831471 0.937901
Si Si7 0.101626 0.323179 0.722102
O O1 0.750000 0.750000 0.311948
O O2 0.830610 0.790470 0.380274
O O3 0.842212 0.746896 0.273959
O O4 0.799428 0.000000 0.305652
O O5 0.917727 0.753110 0.443665
O O6 0.929123 0.740634 0.330741
O O7 0.000000 0.841301 0.393953
O O8 0.917219 0.000000 0.383420
O O9 0.168296 0.775372 0.500000
O O10 0.250000 0.750000 0.437688
O O11 0.207516 0.000000 0.442880
O O12 0.082429 0.226114 0.888505
O O13 0.073667 0.280003 0.779385
O O14 0.000000 0.159896 0.833206
O O15 0.081521 0.000000 0.817200
O O16 0.079956 0.500000 0.500000
O O17 0.000000 0.675715 0.500000
O O18 0.500000 0.832321 0.934963
O O19 0.419613 0.000000 0.928477
O O20 0.422525 0.772591 0.000000
O O21 0.104808 0.500000 0.716428
#
# Coordination Sequence:
#
# PCOD8270574 Si02
#       7
#    16  16  16  16   8  16  16
#     4  10  20  36  55  73  97 125 160 204 253 309
#     4  10  20  35  54  74  97 127 163 205 254 304
#     4   8  14  26  46  69  89 111 139 176 228 290
#     4  10  20  33  50  74 105 139 175 215 256 298
#     4   9  17  31  51  73  96 123 158 201 249 301
#     4   8  14  26  45  70 102 140 177 208 241 286
#     4  12  24  36  51  72  99 132 171 211 256 306
#
# _framework density 18.619073
#
# number of rings (size 3 to 8) (size 9 to 14) (size 15 to 20)
#    0.000    2.385    0.000    3.923    0.000    5.538 
#    1.385    1.538    0.000    0.000    0.000    0.000 
#    0.000    0.615    0.000    2.308    0.000    3.538 
#
# Total GULP energy -644435.313037 kJ/mol
# GULP energy per Si atom -12392.986789 kJ/mol
# Density = 1.857670 g / cm^3
# Si number density = 18.619073 Si / 1000 Ang^3
#
#
#
# Elastic Constant Matrix: (Units=GPa)
#
#
# Indices 1 2 3 4 5 6 
#
# 1 14.4408 17.8896 18.8521 0.0000 0.0000 0.0000
# 2 17.8896 133.7725 57.1478 0.0000 0.0000 0.0000
# 3 18.8521 57.1478 128.7000 0.0000 0.0000 0.0000
# 4 0.0000 0.0000 0.0000 31.5369 0.0000 0.0000
# 5 0.0000 0.0000 0.0000 0.0000 9.8063 0.0000
# 6 0.0000 0.0000 0.0000 0.0000 0.0000 21.0618
#
#
#
# Elastic Compliance Matrix: (Units=1/GPa)
#
#
# Indices 1 2 3 4 5 6 
#
# 1 0.092221 -0.008098 -0.009913 0.000000 0.000000 0.000000
# 2 -0.008098 0.009936 -0.003226 0.000000 0.000000 0.000000
# 3 -0.009913 -0.003226 0.010654 0.000000 0.000000 0.000000
# 4 0.000000 0.000000 0.000000 0.031709 0.000000 0.000000
# 5 0.000000 0.000000 0.000000 0.000000 0.101975 0.000000
# 6 0.000000 0.000000 0.000000 0.000000 0.000000 0.047479
#
#
# Mechanical properties :
#
#
# Convention : Reuss Voigt Hill
#
# Bulk Modulus (GPa) = 14.21701 51.63246 32.92474
# Shear Modulus (GPa) = 13.89294 24.68260 19.28777
#
# Velocity S-wave (km/s) = 2.73457 3.64491 3.22205
# Velocity P-wave (km/s) = 4.19795 6.74574 5.61818
#
# Compressibility (1/GPa) = 0.07033827
#
# Stress axis : x y z
#
# Youngs Moduli (GPa) = 10.84353 100.63921 93.85721
#
# Poissons Ratio (x) = 0.81499 0.93038
# Poissons Ratio (y) = 0.08781 0.30278
# Poissons Ratio (z) = 0.10749 0.32466
#
# Static dielectric constant tensor:
#      x y z
#    x 3.070500 0.000000 0.000000 
#    y 0.000000 3.627170 0.000000 
#    z 0.000000 0.000000 3.674550 
# 
# 
# High freq. dielectric constant tensor:
#      x y z
#    x 1.687470 0.000000 0.000000 
#    y 0.000000 1.733730 0.000000 
#    z 0.000000 0.000000 1.717540 
# 
# From -- ./inp_files/65895.got.cif
#   From: 2010.03.12/outbox.cif.g09.slc.cpg/sg65_33_cif.got.tgz:65895.got - 2010.04.10 20:52:16.
