data_PCOD8270971
_publ_section_title
;
Structure prediction by ZEFSAII (Michael W. Deem and Ramdas Pophale) SiO2 
 PCOD8270971
Probable space group: C M M M
;
_chemical_formula_sum "Si O2"
_cell_formula_units_Z 104
_cell_length_a 8.873975
_cell_length_b 20.219409
_cell_length_c 32.568787
_cell_angle_alpha 90.000000
_cell_angle_beta 90.000000
_cell_angle_gamma 90.000000
_cell_volume 5843.704437
_symmetry_space_group_name_H-M "C M M M"
_symmetry_group_IT_number 65
_symmetry_cell_setting 'orthorhombic'
loop_
_space_group_symop_operation_xyz
x,y,z
-x,-y,z
x,-y,-z
-x,y,-z
-x,-y,-z
x,y,-z
-x,y,z
x,-y,z
1/2+x,1/2+y,z
1/2-x,1/2-y,z
1/2+x,1/2-y,-z
1/2-x,1/2+y,-z
1/2-x,1/2-y,-z
1/2+x,1/2+y,-z
1/2-x,1/2+y,z
1/2+x,1/2-y,z
loop_
_atom_site_type_symbol
_atom_site_label
_atom_site_fract_x
_atom_site_fract_y
_atom_site_fract_z
Si Si1 0.669389 0.921625 0.500000
Si Si2 0.822869 0.317563 0.737166
Si Si3 0.822769 0.077100 0.416607
Si Si4 0.179153 0.426530 0.798931
Si Si5 0.178044 0.318552 0.953373
Si Si6 0.820895 0.573605 0.890533
Si Si7 0.322255 0.181054 0.642777
O O1 0.500000 0.892358 0.500000
O O2 0.757468 0.896855 0.540165
O O3 0.664818 0.000000 0.500000
O O4 0.750000 0.250000 0.752858
O O5 0.754856 0.376094 0.765268
O O6 0.779741 0.331646 0.690108
O O7 0.000000 0.311171 0.742822
O O8 0.745850 0.118990 0.380963
O O9 0.000000 0.089357 0.416577
O O10 0.783694 0.000000 0.409368
O O11 0.240442 0.500000 0.788776
O O12 0.231330 0.405327 0.844718
O O13 0.000000 0.426998 0.796734
O O14 0.250000 0.250000 0.939022
O O15 0.245035 0.375509 0.923916
O O16 0.000000 0.312247 0.948930
O O17 0.224847 0.335854 0.000000
O O18 0.760231 0.500000 0.900714
O O19 0.000000 0.573334 0.892826
O O20 0.500000 0.184614 0.635425
O O21 0.250000 0.250000 0.627405
#
# Coordination Sequence:
#
# PCOD8270971 Si02
#       7
#     8  16  16  16  16  16  16
#     4   9  17  31  52  77 104 133 166 203 241 283
#     4   9  18  31  48  69  92 120 153 190 231 277
#     4  10  20  34  53  77 104 133 165 201 242 287
#     4   8  14  26  44  66  91 117 148 188 231 273
#     4   9  17  28  42  62  88 116 147 185 228 273
#     4   8  14  25  42  64  88 114 147 188 230 270
#     4  10  20  34  51  71  98 130 163 200 242 287
#
# _framework density 17.79693
#
# number of rings (size 3 to 8) (size 9 to 14) (size 15 to 20)
#    0.000    3.000    0.000    2.077    0.000    4.000 
#    0.000    3.462    0.000    0.923    0.000    4.308 
#    0.000    0.000    0.000    0.000    0.000    0.000 
#
# Total GULP energy -644665.674536 kJ/mol
# GULP energy per Si atom -12397.416818 kJ/mol
# Density = 1.775642 g / cm^3
# Si number density = 17.796930 Si / 1000 Ang^3
#
#
#
# Elastic Constant Matrix: (Units=GPa)
#
#
# Indices 1 2 3 4 5 6 
#
# 1 46.4519 37.4065 33.7234 0.0000 0.0000 0.0000
# 2 37.4065 133.3376 96.3211 0.0000 0.0000 0.0000
# 3 33.7234 96.3211 122.6654 0.0000 0.0000 0.0000
# 4 0.0000 0.0000 0.0000 28.6703 0.0000 0.0000
# 5 0.0000 0.0000 0.0000 0.0000 14.7888 0.0000
# 6 0.0000 0.0000 0.0000 0.0000 0.0000 26.6656
#
#
#
# Elastic Compliance Matrix: (Units=1/GPa)
#
#
# Indices 1 2 3 4 5 6 
#
# 1 0.028480 -0.005393 -0.003595 0.000000 0.000000 0.000000
# 2 -0.005393 0.018351 -0.012927 0.000000 0.000000 0.000000
# 3 -0.003595 -0.012927 0.019292 0.000000 0.000000 0.000000
# 4 0.000000 0.000000 0.000000 0.034879 0.000000 0.000000
# 5 0.000000 0.000000 0.000000 0.000000 0.067619 0.000000
# 6 0.000000 0.000000 0.000000 0.000000 0.000000 0.037501
#
#
# Mechanical properties :
#
#
# Convention : Reuss Voigt Hill
#
# Bulk Modulus (GPa) = 44.85829 70.81741 57.83785
# Shear Modulus (GPa) = 19.42620 23.02521 21.22571
#
# Velocity S-wave (km/s) = 3.30744 3.60081 3.45724
# Velocity P-wave (km/s) = 6.31236 7.56083 6.96463
#
# Compressibility (1/GPa) = 0.02229242
#
# Stress axis : x y z
#
# Youngs Moduli (GPa) = 35.11195 54.49242 51.83558
#
# Poissons Ratio (x) = 0.29386 0.18637
# Poissons Ratio (y) = 0.18934 0.67010
# Poissons Ratio (z) = 0.12624 0.70445
#
# Static dielectric constant tensor:
#      x y z
#    x 3.028020 0.000000 0.000000 
#    y 0.000000 3.456700 0.000000 
#    z 0.000000 0.000000 3.513140 
# 
# 
# High freq. dielectric constant tensor:
#      x y z
#    x 1.660790 0.000000 0.000000 
#    y 0.000000 1.685070 0.000000 
#    z 0.000000 0.000000 1.693650 
# 
# From -- ./inp_files/76837.got.cif
#   From: 2010.03.12/outbox.cif.g09.slc.cpg/sg65_39_cif.got.tgz:76837.got - 2010.04.10 20:52:16.
