data_PCOD8270609
_publ_section_title
;
Structure prediction by ZEFSAII (Michael W. Deem and Ramdas Pophale) SiO2 
 PCOD8270609
Probable space group: C M M M
;
_chemical_formula_sum "Si O2"
_cell_formula_units_Z 72
_cell_length_a 13.548384
_cell_length_b 28.939208
_cell_length_c 9.867326
_cell_angle_alpha 90.000000
_cell_angle_beta 90.000000
_cell_angle_gamma 90.000000
_cell_volume 3868.776270
_symmetry_space_group_name_H-M "C M M M"
_symmetry_group_IT_number 65
_symmetry_cell_setting 'orthorhombic'
loop_
_space_group_symop_operation_xyz
x,y,z
-x,-y,z
x,-y,-z
-x,y,-z
-x,-y,-z
x,y,-z
-x,y,z
x,-y,z
1/2+x,1/2+y,z
1/2-x,1/2-y,z
1/2+x,1/2-y,-z
1/2-x,1/2+y,-z
1/2-x,1/2-y,-z
1/2+x,1/2+y,-z
1/2-x,1/2+y,z
1/2+x,1/2-y,z
loop_
_atom_site_type_symbol
_atom_site_label
_atom_site_fract_x
_atom_site_fract_y
_atom_site_fract_z
Si Si1 0.612001 0.500000 0.160950
Si Si2 0.388875 0.853395 0.845600
Si Si3 0.799161 0.904982 0.156151
Si Si4 0.616257 0.773542 0.346791
Si Si5 0.883455 0.171278 0.349562
O O1 0.500000 0.500000 0.216963
O O2 0.669491 0.545182 0.215242
O O3 0.612312 0.500000 0.000000
O O4 0.500000 0.867344 0.801167
O O5 0.319094 0.898423 0.828870
O O6 0.341748 0.812661 0.754033
O O7 0.387531 0.835597 0.000000
O O8 0.854223 0.865248 0.237296
O O9 0.832561 0.900428 0.000000
O O10 0.640233 0.788973 0.500000
O O11 0.500000 0.771009 0.321281
O O12 0.662591 0.722486 0.318441
O O13 0.848621 0.155359 0.500000
O O14 0.000000 0.176781 0.348852
#
# Coordination Sequence:
#
# PCOD8270609 Si02
#       5
#     8  16  16  16  16
#     4   9  18  34  54  74  96 121 153 197 246 295
#     4   9  18  32  48  69  99 130 161 201 242 278
#     4  10  20  33  51  73  95 125 165 202 241 291
#     4   8  15  29  48  69  96 132 167 195 232 285
#     4   9  18  32  49  72 102 131 161 200 242 285
#
# _framework density 18.610536
#
# number of rings (size 3 to 8) (size 9 to 14) (size 15 to 20)
#    0.000    3.000    0.000    2.000    0.000    4.000 
#    0.000    7.778    0.000    5.333    0.000    0.000 
#    0.000    5.333    0.000    0.000    0.000    0.000 
#
# Total GULP energy -446224.348315 kJ/mol
# GULP energy per Si atom -12395.120787 kJ/mol
# Density = 1.856818 g / cm^3
# Si number density = 18.610536 Si / 1000 Ang^3
#
#
#
# Elastic Constant Matrix: (Units=GPa)
#
#
# Indices 1 2 3 4 5 6 
#
# 1 50.0977 59.7814 26.8280 0.0000 0.0000 0.0000
# 2 59.7814 149.4301 59.2898 0.0000 0.0000 0.0000
# 3 26.8280 59.2898 65.6190 0.0000 0.0000 0.0000
# 4 0.0000 0.0000 0.0000 5.3343 0.0000 0.0000
# 5 0.0000 0.0000 0.0000 0.0000 17.3678 0.0000
# 6 0.0000 0.0000 0.0000 0.0000 0.0000 31.6886
#
#
#
# Elastic Compliance Matrix: (Units=1/GPa)
#
#
# Indices 1 2 3 4 5 6 
#
# 1 0.038533 -0.014287 -0.002845 0.000000 0.000000 0.000000
# 2 -0.014287 0.015729 -0.008371 0.000000 0.000000 0.000000
# 3 -0.002845 -0.008371 0.023966 0.000000 0.000000 0.000000
# 4 0.000000 0.000000 0.000000 0.187467 0.000000 0.000000
# 5 0.000000 0.000000 0.000000 0.000000 0.057578 0.000000
# 6 0.000000 0.000000 0.000000 0.000000 0.000000 0.031557
#
#
# Mechanical properties :
#
#
# Convention : Reuss Voigt Hill
#
# Bulk Modulus (GPa) = 36.73431 61.88281 49.30856
# Shear Modulus (GPa) = 12.05082 18.82797 15.43939
#
# Velocity S-wave (km/s) = 2.54742 3.18415 2.88341
# Velocity P-wave (km/s) = 5.33233 6.84413 6.13497
#
# Compressibility (1/GPa) = 0.02722251
#
# Stress axis : x y z
#
# Youngs Moduli (GPa) = 25.95183 63.57692 41.72534
#
# Poissons Ratio (x) = 0.90830 0.11872
# Poissons Ratio (y) = 0.37076 0.34928
# Poissons Ratio (z) = 0.07384 0.53219
#
# Static dielectric constant tensor:
#      x y z
#    x 3.566480 0.000000 0.000000 
#    y 0.000000 3.537880 0.000000 
#    z 0.000000 0.000000 3.352640 
# 
# 
# High freq. dielectric constant tensor:
#      x y z
#    x 1.736120 0.000000 0.000000 
#    y 0.000000 1.701880 0.000000 
#    z 0.000000 0.000000 1.705770 
# 
# From -- ./inp_files/7208.got.cif
#   From: 2010.03.12/outbox.cif.g09.slc.cpg/sg65_4_cif.got.tgz:7208.got - 2010.04.10 20:52:16.
