data_PCOD8270420
_publ_section_title
;
Structure prediction by ZEFSAII (Michael W. Deem and Ramdas Pophale) SiO2 
 PCOD8270420
Probable space group: C M M M
;
_chemical_formula_sum "Si O2"
_cell_formula_units_Z 88
_cell_length_a 20.024674
_cell_length_b 8.303281
_cell_length_c 29.768025
_cell_angle_alpha 90.000000
_cell_angle_beta 90.000000
_cell_angle_gamma 90.000000
_cell_volume 4949.544257
_symmetry_space_group_name_H-M "C M M M"
_symmetry_group_IT_number 65
_symmetry_cell_setting 'orthorhombic'
loop_
_space_group_symop_operation_xyz
x,y,z
-x,-y,z
x,-y,-z
-x,y,-z
-x,-y,-z
x,y,-z
-x,y,z
x,-y,z
1/2+x,1/2+y,z
1/2-x,1/2-y,z
1/2+x,1/2-y,-z
1/2-x,1/2+y,-z
1/2-x,1/2-y,-z
1/2+x,1/2+y,-z
1/2-x,1/2+y,z
1/2+x,1/2-y,z
loop_
_atom_site_type_symbol
_atom_site_label
_atom_site_fract_x
_atom_site_fract_y
_atom_site_fract_z
Si Si1 0.180267 0.812429 0.549835
Si Si2 0.920651 0.819296 0.287191
Si Si3 0.079325 0.500000 0.948620
Si Si4 0.579317 0.319769 0.897716
Si Si5 0.579364 0.179908 0.194869
Si Si6 0.424328 0.187078 0.619134
O O1 0.168539 0.736365 0.500000
O O2 0.250000 0.750000 0.570589
O O3 0.119051 0.773320 0.581819
O O4 0.186024 0.000000 0.545248
O O5 0.889952 0.742527 0.241871
O O6 0.896140 0.722161 0.330960
O O7 0.000000 0.813850 0.283879
O O8 0.893819 0.000000 0.291618
O O9 0.107439 0.667369 0.926672
O O10 0.000000 0.500000 0.943350
O O11 0.102537 0.500000 0.000000
O O12 0.500000 0.318133 0.901635
O O13 0.604982 0.500000 0.913034
O O14 0.602286 0.293722 0.846140
O O15 0.500000 0.179452 0.197911
O O16 0.605874 0.000000 0.185713
O O17 0.500000 0.253140 0.614982
O O18 0.421380 0.000000 0.609685
#
# Coordination Sequence:
#
# PCOD8270420 Si02
#       6
#    16  16   8  16  16  16
#     4  10  21  37  56  75  95 122 157 195 233 277
#     4   9  16  25  38  58  83 110 138 169 211 265
#     4   9  16  24  30  38  54  76 108 154 205 253
#     4   9  15  22  31  42  56  78 111 151 198 253
#     4   9  14  21  33  48  68  93 122 157 199 253
#     4  10  20  33  49  71  99 127 154 188 233 283
#
# _framework density 17.779415
#
# number of rings (size 3 to 8) (size 9 to 14) (size 15 to 20)
#    0.000    2.636    0.909    2.182    0.000    7.273 
#    0.000    3.636    0.000    0.000    0.000    0.000 
#    0.000    0.000    0.000    0.000    0.000    0.000 
#
# Total GULP energy -545256.943066 kJ/mol
# GULP energy per Si atom -12392.203251 kJ/mol
# Density = 1.773895 g / cm^3
# Si number density = 17.779415 Si / 1000 Ang^3
#
#
#
# Elastic Constant Matrix: (Units=GPa)
#
#
# Indices 1 2 3 4 5 6 
#
# 1 27.3107 18.4107 29.2134 0.0000 0.0000 0.0000
# 2 18.4107 115.3069 49.8977 0.0000 0.0000 0.0000
# 3 29.2134 49.8977 122.8681 0.0000 0.0000 0.0000
# 4 0.0000 0.0000 0.0000 32.0418 0.0000 0.0000
# 5 0.0000 0.0000 0.0000 0.0000 -0.0487 0.0000
# 6 0.0000 0.0000 0.0000 0.0000 0.0000 13.3329
#
#
#
# Elastic Compliance Matrix: (Units=1/GPa)
#
#
# Indices 1 2 3 4 5 6 
#
# 1 0.050216 -0.003459 -0.010535 0.000000 0.000000 0.000000
# 2 -0.003459 0.010760 -0.003547 0.000000 0.000000 0.000000
# 3 -0.010535 -0.003547 0.012084 0.000000 0.000000 0.000000
# 4 0.000000 0.000000 0.000000 0.031209 0.000000 0.000000
# 5 0.000000 0.000000 0.000000 0.000000-20.529094 0.000000
# 6 0.000000 0.000000 0.000000 0.000000 0.000000 0.075002
#
#
# Mechanical properties :
#
#
# Convention : Reuss Voigt Hill
#
# Bulk Modulus (GPa) = 26.33094 51.16990 38.75042
# Shear Modulus (GPa) = -0.24628 20.26280 10.00826
#
# Velocity S-wave (km/s) = -0.37259 3.37957 2.37515
# Velocity P-wave (km/s) = 3.82843 6.63864 5.41888
#
# Compressibility (1/GPa) = 0.03797814
#
# Stress axis : x y z
#
# Youngs Moduli (GPa) = 19.91383 92.93841 82.75307
#
# Poissons Ratio (x) = 0.32148 0.87179
# Poissons Ratio (y) = 0.06888 0.29354
# Poissons Ratio (z) = 0.20979 0.32967
#
# Static dielectric constant tensor:
#      x y z
#    x 2.963750 0.000000 0.000000 
#    y 0.000000 3.585510 0.000000 
#    z 0.000000 0.000000 3.566620 
# 
# 
# High freq. dielectric constant tensor:
#      x y z
#    x 1.591510 0.000000 0.000000 
#    y 0.000000 1.708450 0.000000 
#    z 0.000000 0.000000 1.698300 
# 
# From -- ./inp_files/76531.got.cif
#   From: 2010.03.12/outbox.cif.g09.slc.cpg/sg65_39_cif.got.tgz:76531.got - 2010.04.10 20:52:16.
