data_PCOD8270156
_publ_section_title
;
Structure prediction by ZEFSAII (Michael W. Deem and Ramdas Pophale) SiO2 
 PCOD8270156
Probable space group: C M M M
;
_chemical_formula_sum "Si O2"
_cell_formula_units_Z 88
_cell_length_a 19.254023
_cell_length_b 23.916207
_cell_length_c 9.459640
_cell_angle_alpha 90.000000
_cell_angle_beta 90.000000
_cell_angle_gamma 90.000000
_cell_volume 4356.005295
_symmetry_space_group_name_H-M "C M M M"
_symmetry_group_IT_number 65
_symmetry_cell_setting 'orthorhombic'
loop_
_space_group_symop_operation_xyz
x,y,z
-x,-y,z
x,-y,-z
-x,y,-z
-x,-y,-z
x,y,-z
-x,y,z
x,-y,z
1/2+x,1/2+y,z
1/2-x,1/2-y,z
1/2+x,1/2-y,-z
1/2-x,1/2+y,-z
1/2-x,1/2-y,-z
1/2+x,1/2+y,-z
1/2-x,1/2+y,z
1/2+x,1/2-y,z
loop_
_atom_site_type_symbol
_atom_site_label
_atom_site_fract_x
_atom_site_fract_y
_atom_site_fract_z
Si Si1 0.420245 0.343939 0.152068
Si Si2 0.000000 0.434189 0.661787
Si Si3 0.138486 0.434150 0.167939
Si Si4 0.718496 0.155821 0.337854
Si Si5 0.148843 0.230805 0.659623
Si Si6 0.417678 0.438836 0.343904
O O1 0.500000 0.358584 0.131113
O O2 0.413613 0.285761 0.236104
O O3 0.383437 0.393846 0.239882
O O4 0.383297 0.339733 0.000000
O O5 0.068206 0.415721 0.749944
O O6 0.000000 0.500000 0.649102
O O7 0.000000 0.409132 0.500000
O O8 0.154926 0.500000 0.193125
O O9 0.200776 0.396198 0.234121
O O10 0.130709 0.422231 0.000000
O O11 0.721711 0.134144 0.500000
O O12 0.787743 0.189820 0.295429
O O13 0.659773 0.203430 0.322544
O O14 0.127619 0.216957 0.500000
O O15 0.385934 0.429811 0.500000
O O16 0.500000 0.431774 0.352741
O O17 0.397793 0.500000 0.286238
#
# Coordination Sequence:
#
# PCOD8270156 Si02
#       6
#    16   8  16  16  16  16
#     4  10  20  32  48  74 106 136 168 211 263 317
#     4   9  17  31  53  79 109 147 185 219 260 313
#     4  10  20  34  54  83 117 148 178 217 270 328
#     4   9  19  37  59  80 101 133 180 226 265 313
#     4   9  19  37  58  77 100 134 179 225 267 315
#     4   8  14  26  45  67  91 124 165 204 246 298
#
# _framework density 20.201996000000001
#
# number of rings (size 3 to 8) (size 9 to 14) (size 15 to 20)
#    0.000    2.818    0.000    3.000    0.000    5.091 
#    1.636    4.545    0.000    1.091    0.000    0.000 
#    0.000    0.000    0.000    0.000    0.000    0.000 
#
# Total GULP energy -545107.145676 kJ/mol
# GULP energy per Si atom -12388.798765 kJ/mol
# Density = 2.015602 g / cm^3
# Si number density = 20.201996 Si / 1000 Ang^3
#
#
#
# Elastic Constant Matrix: (Units=GPa)
#
#
# Indices 1 2 3 4 5 6 
#
# 1 15.0960 13.2557 15.4558 0.0000 0.0000 0.0000
# 2 13.2557 86.7253 54.2589 0.0000 0.0000 0.0000
# 3 15.4558 54.2589 135.8054 0.0000 0.0000 0.0000
# 4 0.0000 0.0000 0.0000 9.8009 0.0000 0.0000
# 5 0.0000 0.0000 0.0000 0.0000 23.6744 0.0000
# 6 0.0000 0.0000 0.0000 0.0000 0.0000 30.9455
#
#
#
# Elastic Compliance Matrix: (Units=1/GPa)
#
#
# Indices 1 2 3 4 5 6 
#
# 1 0.079578 -0.008662 -0.005596 0.000000 0.000000 0.000000
# 2 -0.008662 0.016316 -0.005533 0.000000 0.000000 0.000000
# 3 -0.005596 -0.005533 0.010211 0.000000 0.000000 0.000000
# 4 0.000000 0.000000 0.000000 0.102032 0.000000 0.000000
# 5 0.000000 0.000000 0.000000 0.000000 0.042240 0.000000
# 6 0.000000 0.000000 0.000000 0.000000 0.000000 0.032315
#
#
# Mechanical properties :
#
#
# Convention : Reuss Voigt Hill
#
# Bulk Modulus (GPa) = 15.03232 44.84084 29.93658
# Shear Modulus (GPa) = 14.51594 23.19458 18.85526
#
# Velocity S-wave (km/s) = 2.68347 3.39209 3.05837
# Velocity P-wave (km/s) = 4.13019 6.13075 5.22707
#
# Compressibility (1/GPa) = 0.06652335
#
# Stress axis : x y z
#
# Youngs Moduli (GPa) = 12.56622 61.28801 97.93358
#
# Poissons Ratio (x) = 0.53089 0.54802
# Poissons Ratio (y) = 0.10885 0.54188
# Poissons Ratio (z) = 0.07032 0.33911
#
# Static dielectric constant tensor:
#      x y z
#    x 3.342340 0.000000 0.000000 
#    y 0.000000 3.703270 0.000000 
#    z 0.000000 0.000000 4.048420 
# 
# 
# High freq. dielectric constant tensor:
#      x y z
#    x 1.754530 0.000000 0.000000 
#    y 0.000000 1.783840 0.000000 
#    z 0.000000 0.000000 1.793370 
# 
# From -- ./inp_files/11733.got.cif
#   From: 2010.03.12/outbox.cif.g09.slc.cpg/sg65_6_cif.got.tgz:11733.got - 2010.04.10 20:52:16.
