data_PCOD8270398
_publ_section_title
;
Structure prediction by ZEFSAII (Michael W. Deem and Ramdas Pophale) SiO2 
 PCOD8270398
Probable space group: C M M M
;
_chemical_formula_sum "Si O2"
_cell_formula_units_Z 120
_cell_length_a 9.147491
_cell_length_b 26.872510
_cell_length_c 27.439771
_cell_angle_alpha 90.000000
_cell_angle_beta 90.000000
_cell_angle_gamma 90.000000
_cell_volume 6745.135938
_symmetry_space_group_name_H-M "C M M M"
_symmetry_group_IT_number 65
_symmetry_cell_setting 'orthorhombic'
loop_
_space_group_symop_operation_xyz
x,y,z
-x,-y,z
x,-y,-z
-x,y,-z
-x,-y,-z
x,y,-z
-x,y,z
x,-y,z
1/2+x,1/2+y,z
1/2-x,1/2-y,z
1/2+x,1/2-y,-z
1/2-x,1/2+y,-z
1/2-x,1/2-y,-z
1/2+x,1/2+y,-z
1/2-x,1/2+y,z
1/2+x,1/2-y,z
loop_
_atom_site_type_symbol
_atom_site_label
_atom_site_fract_x
_atom_site_fract_y
_atom_site_fract_z
Si Si1 0.830145 0.361227 0.134084
Si Si2 0.325857 0.500000 0.555599
Si Si3 0.170391 0.800034 0.556877
Si Si4 0.672196 0.599319 0.606644
Si Si5 0.668318 0.615662 0.283815
Si Si6 0.832388 0.057084 0.811365
Si Si7 0.669087 0.699278 0.056586
Si Si8 0.169481 0.698765 0.769407
O O1 0.772110 0.414598 0.151129
O O2 0.741480 0.345491 0.086253
O O3 0.799416 0.321792 0.176701
O O4 0.000000 0.365394 0.120978
O O5 0.500000 0.500000 0.559901
O O6 0.273385 0.500000 0.500000
O O7 0.261700 0.449922 0.580803
O O8 0.201030 0.808202 0.500000
O O9 0.250000 0.750000 0.575902
O O10 0.234346 0.848988 0.584222
O O11 0.000000 0.792995 0.568142
O O12 0.500000 0.599645 0.597895
O O13 0.713345 0.595135 0.663459
O O14 0.500000 0.633140 0.283194
O O15 0.697014 0.572426 0.244503
O O16 0.768726 0.662511 0.271750
O O17 0.000000 0.068202 0.825508
O O18 0.791685 0.000000 0.816609
O O19 0.500000 0.705213 0.071018
O O20 0.750000 0.750000 0.070691
O O21 0.688636 0.686471 0.000000
O O22 0.250000 0.750000 0.763684
O O23 0.000000 0.706491 0.759597
#
# Coordination Sequence:
#
# PCOD8270398 Si02
#       8
#    16   8  16  16  16  16  16  16
#     4  10  20  33  51  75 101 133 172 212 254 299
#     4   9  16  26  44  72 103 131 157 197 252 301
#     4   9  17  30  47  67  92 123 159 198 240 288
#     4   9  17  28  45  70  99 127 158 198 246 299
#     4   9  18  31  47  70  98 127 161 200 246 296
#     4   9  18  32  51  72  96 128 166 209 255 304
#     4  10  20  33  51  77 109 142 173 207 249 297
#     4  10  20  33  49  70  98 132 168 204 245 294
#
# _framework density 17.790597999999999
#
# number of rings (size 3 to 8) (size 9 to 14) (size 15 to 20)
#    0.000    2.600    0.000    2.000    0.933    5.867 
#    0.000    2.000    0.000    0.400    0.000    4.200 
#    0.000    4.267    0.000    0.000    0.000    0.000 
#
# Total GULP energy -744062.608550 kJ/mol
# GULP energy per Si atom -12401.043476 kJ/mol
# Density = 1.775011 g / cm^3
# Si number density = 17.790598 Si / 1000 Ang^3
#
#
#
# Elastic Constant Matrix: (Units=GPa)
#
#
# Indices 1 2 3 4 5 6 
#
# 1 74.9866 54.0792 49.6313 0.0000 0.0000 0.0000
# 2 54.0792 142.6440 67.3472 0.0000 0.0000 0.0000
# 3 49.6313 67.3472 97.4395 0.0000 0.0000 0.0000
# 4 0.0000 0.0000 0.0000 42.8436 0.0000 0.0000
# 5 0.0000 0.0000 0.0000 0.0000 18.4869 0.0000
# 6 0.0000 0.0000 0.0000 0.0000 0.0000 27.1810
#
#
#
# Elastic Compliance Matrix: (Units=1/GPa)
#
#
# Indices 1 2 3 4 5 6 
#
# 1 0.021912 -0.004509 -0.008044 0.000000 0.000000 0.000000
# 2 -0.004509 0.011334 -0.005537 0.000000 0.000000 0.000000
# 3 -0.008044 -0.005537 0.018187 0.000000 0.000000 0.000000
# 4 0.000000 0.000000 0.000000 0.023341 0.000000 0.000000
# 5 0.000000 0.000000 0.000000 0.000000 0.054092 0.000000
# 6 0.000000 0.000000 0.000000 0.000000 0.000000 0.036790
#
#
# Mechanical properties :
#
#
# Convention : Reuss Voigt Hill
#
# Bulk Modulus (GPa) = 65.56436 73.02060 69.29248
# Shear Modulus (GPa) = 24.16367 27.30315 25.73341
#
# Velocity S-wave (km/s) = 3.68941 3.92177 3.80736
# Velocity P-wave (km/s) = 7.42175 7.85115 7.63947
#
# Compressibility (1/GPa) = 0.01525219
#
# Stress axis : x y z
#
# Youngs Moduli (GPa) = 45.63709 88.22810 54.98364
#
# Poissons Ratio (x) = 0.39785 0.44231
# Poissons Ratio (y) = 0.20579 0.30445
# Poissons Ratio (z) = 0.36712 0.48852
#
# Static dielectric constant tensor:
#      x y z
#    x 3.167300 0.000000 0.000000 
#    y 0.000000 3.130750 0.000000 
#    z 0.000000 0.000000 3.268790 
# 
# 
# High freq. dielectric constant tensor:
#      x y z
#    x 1.668850 0.000000 0.000000 
#    y 0.000000 1.688990 0.000000 
#    z 0.000000 0.000000 1.684470 
# 
# From -- ./inp_files/73982.got.cif
#   From: 2010.03.12/outbox.cif.g09.slc.cpg/sg65_37_cif.got.tgz:73982.got - 2010.04.10 20:52:16.
