data_PCOD8270471
_publ_section_title
;
Structure prediction by ZEFSAII (Michael W. Deem and Ramdas Pophale) SiO2 
 PCOD8270471
Probable space group: C M M M
;
_chemical_formula_sum "Si O2"
_cell_formula_units_Z 80
_cell_length_a 27.641931
_cell_length_b 17.836255
_cell_length_c 9.019498
_cell_angle_alpha 90.000000
_cell_angle_beta 90.000000
_cell_angle_gamma 90.000000
_cell_volume 4446.869840
_symmetry_space_group_name_H-M "C M M M"
_symmetry_group_IT_number 65
_symmetry_cell_setting 'orthorhombic'
loop_
_space_group_symop_operation_xyz
x,y,z
-x,-y,z
x,-y,-z
-x,y,-z
-x,-y,-z
x,y,-z
-x,y,z
x,-y,z
1/2+x,1/2+y,z
1/2-x,1/2-y,z
1/2+x,1/2-y,-z
1/2-x,1/2+y,-z
1/2-x,1/2-y,-z
1/2+x,1/2+y,-z
1/2-x,1/2+y,z
1/2+x,1/2-y,z
loop_
_atom_site_type_symbol
_atom_site_label
_atom_site_fract_x
_atom_site_fract_y
_atom_site_fract_z
Si Si1 0.442745 0.582097 0.334320
Si Si2 0.444083 0.729006 0.826854
Si Si3 0.357924 0.206301 0.325087
Si Si4 0.709049 0.311861 0.837255
Si Si5 0.208334 0.585784 0.825111
O O1 0.424227 0.602513 0.500000
O O2 0.500000 0.577618 0.335226
O O3 0.422193 0.500000 0.286242
O O4 0.425917 0.645838 0.220000
O O5 0.500000 0.741835 0.783106
O O6 0.412371 0.790530 0.739519
O O7 0.435570 0.738948 0.000000
O O8 0.359365 0.200053 0.500000
O O9 0.331051 0.283803 0.278584
O O10 0.332017 0.133046 0.260817
O O11 0.750000 0.250000 0.851767
O O12 0.737015 0.387065 0.783211
O O13 0.684875 0.323612 0.000000
O O14 0.202984 0.500000 0.775866
O O15 0.199803 0.597012 0.000000
#
# Coordination Sequence:
#
# PCOD8270471 Si02
#       5
#    16  16  16  16  16
#     4   8  14  26  44  65  90 119 151 193 247 299
#     4  10  20  33  50  71  96 132 179 223 257 295
#     4  11  21  32  50  75 104 137 169 206 254 303
#     4   8  15  30  51  73  98 128 161 197 239 292
#     4   9  18  34  56  79 103 132 165 204 251 301
#
# _framework density 17.990182000000001
#
# number of rings (size 3 to 8) (size 9 to 14) (size 15 to 20)
#    0.000    2.800    0.000    4.200    0.000    5.600 
#    0.000    3.000    0.000    4.200    0.000    4.200 
#    0.000    0.000    0.000    0.000    0.000    0.000 
#
# Total GULP energy -495723.069495 kJ/mol
# GULP energy per Si atom -12393.076737 kJ/mol
# Density = 1.794924 g / cm^3
# Si number density = 17.990182 Si / 1000 Ang^3
#
#
#
# Elastic Constant Matrix: (Units=GPa)
#
#
# Indices 1 2 3 4 5 6 
#
# 1 78.8471 51.5721 47.9349 0.0000 0.0000 0.0000
# 2 51.5721 108.7424 53.4412 0.0000 0.0000 0.0000
# 3 47.9349 53.4412 101.1065 0.0000 0.0000 0.0000
# 4 0.0000 0.0000 0.0000 22.2056 0.0000 0.0000
# 5 0.0000 0.0000 0.0000 0.0000 22.8004 0.0000
# 6 0.0000 0.0000 0.0000 0.0000 0.0000 21.4374
#
#
#
# Elastic Compliance Matrix: (Units=1/GPa)
#
#
# Indices 1 2 3 4 5 6 
#
# 1 0.021022 -0.006851 -0.006345 0.000000 0.000000 0.000000
# 2 -0.006851 0.014656 -0.004498 0.000000 0.000000 0.000000
# 3 -0.006345 -0.004498 0.015276 0.000000 0.000000 0.000000
# 4 0.000000 0.000000 0.000000 0.045034 0.000000 0.000000
# 5 0.000000 0.000000 0.000000 0.000000 0.043859 0.000000
# 6 0.000000 0.000000 0.000000 0.000000 0.000000 0.046647
#
#
# Mechanical properties :
#
#
# Convention : Reuss Voigt Hill
#
# Bulk Modulus (GPa) = 64.24883 66.06581 65.15732
# Shear Modulus (GPa) = 22.01947 22.33854 22.17900
#
# Velocity S-wave (km/s) = 3.50233 3.52761 3.51499
# Velocity P-wave (km/s) = 7.22121 7.30719 7.26433
#
# Compressibility (1/GPa) = 0.01556449
#
# Stress axis : x y z
#
# Youngs Moduli (GPa) = 47.57032 68.23076 65.46037
#
# Poissons Ratio (x) = 0.46748 0.41534
# Poissons Ratio (y) = 0.32592 0.29447
# Poissons Ratio (z) = 0.30183 0.30693
#
# Static dielectric constant tensor:
#      x y z
#    x 3.309150 0.000000 0.000000 
#    y 0.000000 3.489350 0.000000 
#    z 0.000000 0.000000 3.257020 
# 
# 
# High freq. dielectric constant tensor:
#      x y z
#    x 1.679410 0.000000 0.000000 
#    y 0.000000 1.677990 0.000000 
#    z 0.000000 0.000000 1.692750 
# 
# From -- ./inp_files/9672.got.cif
#   From: 2010.03.12/outbox.cif.g09.slc.cpg/sg65_5_cif.got.tgz:9672.got - 2010.04.10 20:52:16.
