data_PCOD8270314
_publ_section_title
;
Structure prediction by ZEFSAII (Michael W. Deem and Ramdas Pophale) SiO2 
 PCOD8270314
Probable space group: C M M M
;
_chemical_formula_sum "Si O2"
_cell_formula_units_Z 104
_cell_length_a 16.514448
_cell_length_b 9.899356
_cell_length_c 34.861717
_cell_angle_alpha 90.000000
_cell_angle_beta 90.000000
_cell_angle_gamma 90.000000
_cell_volume 5699.277160
_symmetry_space_group_name_H-M "C M M M"
_symmetry_group_IT_number 65
_symmetry_cell_setting 'orthorhombic'
loop_
_space_group_symop_operation_xyz
x,y,z
-x,-y,z
x,-y,-z
-x,y,-z
-x,-y,-z
x,y,-z
-x,y,z
x,-y,z
1/2+x,1/2+y,z
1/2-x,1/2-y,z
1/2+x,1/2-y,-z
1/2-x,1/2+y,-z
1/2-x,1/2-y,-z
1/2+x,1/2+y,-z
1/2-x,1/2+y,z
1/2+x,1/2-y,z
loop_
_atom_site_type_symbol
_atom_site_label
_atom_site_fract_x
_atom_site_fract_y
_atom_site_fract_z
Si Si1 0.903617 0.349364 0.042510
Si Si2 0.500000 0.340620 0.456174
Si Si3 0.322489 0.656758 0.818125
Si Si4 0.405242 0.352327 0.895117
Si Si5 0.587089 0.658447 0.744655
Si Si6 0.330513 0.340980 0.582232
Si Si7 0.178446 0.153176 0.329957
O O1 0.870310 0.500000 0.049820
O O2 0.864949 0.253256 0.075196
O O3 0.000000 0.350301 0.045349
O O4 0.877471 0.299012 0.000000
O O5 0.500000 0.500000 0.451508
O O6 0.500000 0.292557 0.500000
O O7 0.586080 0.288816 0.438190
O O8 0.296298 0.500000 0.815187
O O9 0.250000 0.750000 0.831543
O O10 0.390075 0.681115 0.850513
O O11 0.352271 0.714719 0.776883
O O12 0.500000 0.352038 0.901687
O O13 0.368892 0.500000 0.904753
O O14 0.500000 0.727071 0.751055
O O15 0.580794 0.500000 0.751827
O O16 0.609486 0.688656 0.700567
O O17 0.312377 0.500000 0.572542
O O18 0.250000 0.250000 0.571121
O O19 0.351737 0.321335 0.626877
O O20 0.250000 0.250000 0.318617
O O21 0.209002 0.000000 0.325260
#
# Coordination Sequence:
#
# PCOD8270314 Si02
#       7
#    16   8  16  16  16  16  16
#     4   8  14  25  42  66  94 119 143 176 222 272
#     4   9  18  32  51  75 103 137 177 221 267 315
#     4  10  20  33  48  66  90 121 153 187 226 272
#     4   9  17  29  46  67  90 116 148 185 222 262
#     4   9  17  29  48  72  94 119 155 196 234 274
#     4   9  18  32  51  75 103 135 173 217 263 314
#     4   9  17  29  48  72  97 126 160 199 243 291
#
# _framework density 18.247928000000002
#
# number of rings (size 3 to 8) (size 9 to 14) (size 15 to 20)
#    0.000    3.000    0.000    1.385    1.077    3.077 
#    0.000    1.923    0.000    3.692    0.000    0.000 
#    0.000    0.000    0.000    0.000    0.000    0.000 
#
# Total GULP energy -644195.515542 kJ/mol
# GULP energy per Si atom -12388.375299 kJ/mol
# Density = 1.820639 g / cm^3
# Si number density = 18.247928 Si / 1000 Ang^3
#
#
#
# Elastic Constant Matrix: (Units=GPa)
#
#
# Indices 1 2 3 4 5 6 
#
# 1 78.0175 38.2522 40.9304 0.0000 0.0000 0.0000
# 2 38.2522 58.7149 47.0027 0.0000 0.0000 0.0000
# 3 40.9304 47.0027 117.6311 0.0000 0.0000 0.0000
# 4 0.0000 0.0000 0.0000 18.2487 0.0000 0.0000
# 5 0.0000 0.0000 0.0000 0.0000 -1.5965 0.0000
# 6 0.0000 0.0000 0.0000 0.0000 0.0000 20.3944
#
#
#
# Elastic Compliance Matrix: (Units=1/GPa)
#
#
# Indices 1 2 3 4 5 6 
#
# 1 0.019317 -0.010592 -0.002489 0.000000 0.000000 0.000000
# 2 -0.010592 0.030850 -0.008641 0.000000 0.000000 0.000000
# 3 -0.002489 -0.008641 0.012820 0.000000 0.000000 0.000000
# 4 0.000000 0.000000 0.000000 0.054798 0.000000 0.000000
# 5 0.000000 0.000000 0.000000 0.000000 -0.626383 0.000000
# 6 0.000000 0.000000 0.000000 0.000000 0.000000 0.049033
#
#
# Mechanical properties :
#
#
# Convention : Reuss Voigt Hill
#
# Bulk Modulus (GPa) = 51.17261 56.30380 53.73820
# Shear Modulus (GPa) = -12.20686 15.95454 1.87384
#
# Velocity S-wave (km/s) = -2.58920 2.96010 1.01445
# Velocity P-wave (km/s) = 4.37781 6.52723 5.55743
#
# Compressibility (1/GPa) = 0.01954170
#
# Stress axis : x y z
#
# Youngs Moduli (GPa) = 51.76821 32.41515 78.00285
#
# Poissons Ratio (x) = 0.34335 0.19415
# Poissons Ratio (y) = 0.54834 0.67404
# Poissons Ratio (z) = 0.12885 0.28011
#
# Static dielectric constant tensor:
#      x y z
#    x 3.833010 0.000000 0.000000 
#    y 0.000000 3.419010 0.000000 
#    z 0.000000 0.000000 3.525910 
# 
# 
# High freq. dielectric constant tensor:
#      x y z
#    x 1.685760 0.000000 0.000000 
#    y 0.000000 1.679850 0.000000 
#    z 0.000000 0.000000 1.719940 
# 
# From -- ./inp_files/77690.got.cif
#   From: 2010.03.12/outbox.cif.g09.slc.cpg/sg65_39_cif.got.tgz:77690.got - 2010.04.10 20:52:16.
