data_PCOD8270119
_publ_section_title
;
Structure prediction by ZEFSAII (Michael W. Deem and Ramdas Pophale) SiO2 
 PCOD8270119
Probable space group: C M M M
;
_chemical_formula_sum "Si O2"
_cell_formula_units_Z 104
_cell_length_a 24.370903
_cell_length_b 26.585388
_cell_length_c 8.650707
_cell_angle_alpha 90.000000
_cell_angle_beta 90.000000
_cell_angle_gamma 90.000000
_cell_volume 5604.878813
_symmetry_space_group_name_H-M "C M M M"
_symmetry_group_IT_number 65
_symmetry_cell_setting 'orthorhombic'
loop_
_space_group_symop_operation_xyz
x,y,z
-x,-y,z
x,-y,-z
-x,y,-z
-x,-y,-z
x,y,-z
-x,y,z
x,-y,z
1/2+x,1/2+y,z
1/2-x,1/2-y,z
1/2+x,1/2-y,-z
1/2-x,1/2+y,-z
1/2-x,1/2-y,-z
1/2+x,1/2+y,-z
1/2-x,1/2+y,z
1/2+x,1/2-y,z
loop_
_atom_site_type_symbol
_atom_site_label
_atom_site_fract_x
_atom_site_fract_y
_atom_site_fract_z
Si Si1 0.355672 0.788086 0.181289
Si Si2 0.840889 0.174405 0.817160
Si Si3 0.437883 0.136915 0.316496
Si Si4 0.851441 0.556031 0.318145
Si Si5 0.064905 0.000000 0.168035
Si Si6 0.560657 0.393037 0.815489
Si Si7 0.769102 0.639809 0.319095
O O1 0.344767 0.731626 0.240236
O O2 0.409709 0.811512 0.260293
O O3 0.301280 0.818282 0.223309
O O4 0.366028 0.788724 0.000000
O O5 0.897704 0.149702 0.762594
O O6 0.793730 0.143019 0.730959
O O7 0.830924 0.170717 0.000000
O O8 0.437669 0.137427 0.500000
O O9 0.500000 0.133343 0.252006
O O10 0.402838 0.088974 0.254271
O O11 0.858164 0.550461 0.500000
O O12 0.851130 0.500000 0.242545
O O13 0.794511 0.584881 0.278586
O O14 0.080397 0.947554 0.254231
O O15 0.000000 0.000000 0.145187
O O16 0.093956 0.000000 0.000000
O O17 0.500000 0.378531 0.753768
O O18 0.559206 0.398061 0.000000
O O19 0.776418 0.651072 0.500000
#
# Coordination Sequence:
#
# PCOD8270119 Si02
#       7
#    16  16  16  16   8  16  16
#     4  10  20  33  50  70  97 133 167 204 248 292
#     4  10  20  32  48  73 100 125 160 205 248 293
#     4   9  18  32  51  77 105 133 168 207 246 293
#     4   8  15  30  51  73  98 129 165 204 245 292
#     4   7  10  20  40  62  85 117 151 181 218 265
#     4   8  14  26  44  66  93 123 155 191 231 279
#     4  10  20  34  52  72  95 127 165 204 246 296
#
# _framework density 18.555263
#
# number of rings (size 3 to 8) (size 9 to 14) (size 15 to 20)
#    0.000    3.000    0.000    3.231    0.000    4.308 
#    1.385    3.077    0.000   11.538    0.000    4.308 
#    0.000    1.846    0.000    0.000    0.000    0.000 
#
# Total GULP energy -644394.576009 kJ/mol
# GULP energy per Si atom -12392.203385 kJ/mol
# Density = 1.851303 g / cm^3
# Si number density = 18.555263 Si / 1000 Ang^3
#
#
#
# Elastic Constant Matrix: (Units=GPa)
#
#
# Indices 1 2 3 4 5 6 
#
# 1 132.1901 65.3004 11.5446 0.0000 0.0000 0.0000
# 2 65.3004 115.0765 13.6043 0.0000 0.0000 0.0000
# 3 11.5446 13.6043 14.2659 0.0000 0.0000 0.0000
# 4 0.0000 0.0000 0.0000 13.8291 0.0000 0.0000
# 5 0.0000 0.0000 0.0000 0.0000 23.5084 0.0000
# 6 0.0000 0.0000 0.0000 0.0000 0.0000 20.1007
#
#
#
# Elastic Compliance Matrix: (Units=1/GPa)
#
#
# Indices 1 2 3 4 5 6 
#
# 1 0.010641 -0.005658 -0.003215 0.000000 0.000000 0.000000
# 2 -0.005658 0.012802 -0.007630 0.000000 0.000000 0.000000
# 3 -0.003215 -0.007630 0.079975 0.000000 0.000000 0.000000
# 4 0.000000 0.000000 0.000000 0.072311 0.000000 0.000000
# 5 0.000000 0.000000 0.000000 0.000000 0.042538 0.000000
# 6 0.000000 0.000000 0.000000 0.000000 0.000000 0.049750
#
#
# Mechanical properties :
#
#
# Convention : Reuss Voigt Hill
#
# Bulk Modulus (GPa) = 14.20216 49.15901 31.68059
# Shear Modulus (GPa) = 15.40859 22.89321 19.15090
#
# Velocity S-wave (km/s) = 2.88482 3.51634 3.21612
# Velocity P-wave (km/s) = 4.33207 6.56026 5.55895
#
# Compressibility (1/GPa) = 0.07041181
#
# Stress axis : x y z
#
# Youngs Moduli (GPa) = 93.97955 78.10976 12.50384
#
# Poissons Ratio (x) = 0.44194 0.04020
# Poissons Ratio (y) = 0.53173 0.09541
# Poissons Ratio (z) = 0.30217 0.59599
#
# Static dielectric constant tensor:
#      x y z
#    x 3.480760 0.000000 0.000000 
#    y 0.000000 3.796740 0.000000 
#    z 0.000000 0.000000 2.985270 
# 
# 
# High freq. dielectric constant tensor:
#      x y z
#    x 1.715220 0.000000 0.000000 
#    y 0.000000 1.728730 0.000000 
#    z 0.000000 0.000000 1.676960 
# 
# From -- ./inp_files/14808.got.cif
#   From: 2010.03.12/outbox.cif.g09.slc.cpg/sg65_8_cif.got.tgz:14808.got - 2010.04.10 20:52:16.
