data_PCOD8270303
_publ_section_title
;
Structure prediction by ZEFSAII (Michael W. Deem and Ramdas Pophale) SiO2 
 PCOD8270303
Probable space group: C M M M
;
_chemical_formula_sum "Si O2"
_cell_formula_units_Z 52
_cell_length_a 14.081863
_cell_length_b 32.462112
_cell_length_c 7.344321
_cell_angle_alpha 90.000000
_cell_angle_beta 90.000000
_cell_angle_gamma 90.000000
_cell_volume 3357.287528
_symmetry_space_group_name_H-M "C M M M"
_symmetry_group_IT_number 65
_symmetry_cell_setting 'orthorhombic'
loop_
_space_group_symop_operation_xyz
x,y,z
-x,-y,z
x,-y,-z
-x,y,-z
-x,-y,-z
x,y,-z
-x,y,z
x,-y,z
1/2+x,1/2+y,z
1/2-x,1/2-y,z
1/2+x,1/2-y,-z
1/2-x,1/2+y,-z
1/2-x,1/2-y,-z
1/2+x,1/2+y,-z
1/2-x,1/2+y,z
1/2+x,1/2-y,z
loop_
_atom_site_type_symbol
_atom_site_label
_atom_site_fract_x
_atom_site_fract_y
_atom_site_fract_z
Si Si1 0.306444 0.153729 0.500000
Si Si2 0.000000 0.767978 0.793014
Si Si3 0.706461 0.293701 0.789423
Si Si4 0.887286 0.565785 0.500000
Si Si5 0.111630 0.500000 0.796070
Si Si6 0.000000 0.699809 0.500000
O O1 0.251054 0.168711 0.320860
O O2 0.317444 0.104783 0.500000
O O3 0.410814 0.170962 0.500000
O O4 0.093612 0.794660 0.750486
O O5 0.000000 0.726556 0.680510
O O6 0.000000 0.752754 0.000000
O O7 0.750000 0.250000 0.722915
O O8 0.730816 0.300784 0.000000
O O9 0.859248 0.540431 0.681591
O O10 0.000000 0.576541 0.500000
O O11 0.000000 0.500000 0.817768
O O12 0.158113 0.500000 0.000000
#
# Coordination Sequence:
#
# PCOD8270303 Si02
#       6
#     8   8  16   8   8   4
#     4  12  21  30  45  70  97 122 156 200 237 268
#     4  10  20  34  48  62  85 124 170 204 233 274
#     4  10  20  33  47  64  89 124 163 201 238 276
#     4   9  18  30  45  68  95 120 151 188 223 270
#     4   8  15  31  50  65  87 122 153 176 219 281
#     4  12  20  28  46  65  90 126 158 197 242 266
#
# _framework density 15.488694000000001
#
# number of rings (size 3 to 8) (size 9 to 14) (size 15 to 20)
#    0.000    2.000    3.846    2.308    0.000    1.231 
#    0.000    0.000    0.000    0.000    0.000    0.000 
#    0.000    9.846    0.000   27.692    0.000    0.000 
#
# Total GULP energy -322340.589280 kJ/mol
# GULP energy per Si atom -12397.714972 kJ/mol
# Density = 1.545344 g / cm^3
# Si number density = 15.488694 Si / 1000 Ang^3
#
#
#
# Elastic Constant Matrix: (Units=GPa)
#
#
# Indices 1 2 3 4 5 6 
#
# 1 94.6147 42.9672 37.3553 0.0000 0.0000 0.0000
# 2 42.9672 118.0585 60.8357 0.0000 0.0000 0.0000
# 3 37.3553 60.8357 111.5427 0.0000 0.0000 0.0000
# 4 0.0000 0.0000 0.0000 14.7770 0.0000 0.0000
# 5 0.0000 0.0000 0.0000 0.0000 26.4130 0.0000
# 6 0.0000 0.0000 0.0000 0.0000 0.0000 26.2269
#
#
#
# Elastic Compliance Matrix: (Units=1/GPa)
#
#
# Indices 1 2 3 4 5 6 
#
# 1 0.013142 -0.003498 -0.002493 0.000000 0.000000 0.000000
# 2 -0.003498 0.012713 -0.005762 0.000000 0.000000 0.000000
# 3 -0.002493 -0.005762 0.012943 0.000000 0.000000 0.000000
# 4 0.000000 0.000000 0.000000 0.067673 0.000000 0.000000
# 5 0.000000 0.000000 0.000000 0.000000 0.037860 0.000000
# 6 0.000000 0.000000 0.000000 0.000000 0.000000 0.038129
#
#
# Mechanical properties :
#
#
# Convention : Reuss Voigt Hill
#
# Bulk Modulus (GPa) = 65.39981 67.39249 66.39615
# Shear Modulus (GPa) = 23.68954 25.68722 24.68838
#
# Velocity S-wave (km/s) = 3.91509 4.07682 3.99678
# Velocity P-wave (km/s) = 7.92169 8.10962 8.01620
#
# Compressibility (1/GPa) = 0.01529056
#
# Stress axis : x y z
#
# Youngs Moduli (GPa) = 76.09039 78.66123 77.26311
#
# Poissons Ratio (x) = 0.27518 0.19264
# Poissons Ratio (y) = 0.26619 0.44519
# Poissons Ratio (z) = 0.18972 0.45325
#
# Static dielectric constant tensor:
#      x y z
#    x 2.991680 0.000000 0.000000 
#    y 0.000000 2.720790 0.000000 
#    z 0.000000 0.000000 3.336380 
# 
# 
# High freq. dielectric constant tensor:
#      x y z
#    x 1.578630 0.000000 0.000000 
#    y 0.000000 1.561580 0.000000 
#    z 0.000000 0.000000 1.613100 
# 
# From -- ./inp_files/4692.got.cif
#   From: 2010.03.12/outbox.cif.g09.slc.cpg/sg65_3_cif.got.tgz:4692.got - 2010.04.10 20:52:16.
