data_PCOD8270389
_publ_section_title
;
Structure prediction by ZEFSAII (Michael W. Deem and Ramdas Pophale) SiO2 
 PCOD8270389
Probable space group: C M M M
;
_chemical_formula_sum "Si O2"
_cell_formula_units_Z 88
_cell_length_a 9.135238
_cell_length_b 30.091594
_cell_length_c 18.010155
_cell_angle_alpha 90.000000
_cell_angle_beta 90.000000
_cell_angle_gamma 90.000000
_cell_volume 4950.881261
_symmetry_space_group_name_H-M "C M M M"
_symmetry_group_IT_number 65
_symmetry_cell_setting 'orthorhombic'
loop_
_space_group_symop_operation_xyz
x,y,z
-x,-y,z
x,-y,-z
-x,y,-z
-x,-y,-z
x,y,-z
-x,y,z
x,-y,z
1/2+x,1/2+y,z
1/2-x,1/2-y,z
1/2+x,1/2-y,-z
1/2-x,1/2+y,-z
1/2-x,1/2-y,-z
1/2+x,1/2+y,-z
1/2-x,1/2+y,z
1/2+x,1/2-y,z
loop_
_atom_site_type_symbol
_atom_site_label
_atom_site_fract_x
_atom_site_fract_y
_atom_site_fract_z
Si Si1 0.673032 0.450538 0.417596
Si Si2 0.169874 0.113021 0.713044
Si Si3 0.168745 0.207281 0.772522
Si Si4 0.327459 0.500000 0.082123
Si Si5 0.167516 0.324720 0.083815
Si Si6 0.833750 0.418645 0.853218
O O1 0.736957 0.440820 0.500000
O O2 0.500000 0.451360 0.421740
O O3 0.726480 0.500000 0.390642
O O4 0.721066 0.410175 0.363660
O O5 0.190136 0.166547 0.714535
O O6 0.282856 0.094512 0.771935
O O7 0.000000 0.101294 0.731639
O O8 0.250000 0.250000 0.737816
O O9 0.230289 0.198230 0.855244
O O10 0.000000 0.218811 0.782798
O O11 0.500000 0.500000 0.081834
O O12 0.274519 0.456670 0.122935
O O13 0.260885 0.500000 0.000000
O O14 0.181808 0.377829 0.090192
O O15 0.000000 0.310265 0.098762
O O16 0.216054 0.311256 0.000000
O O17 0.000000 0.436005 0.850080
#
# Coordination Sequence:
#
# PCOD8270389 Si02
#       6
#    16  16  16   8  16  16
#     4   8  14  26  48  79 109 134 161 196 241 293
#     4   9  18  32  51  76 102 130 165 205 246 294
#     4  10  20  33  49  70  96 127 166 208 251 297
#     4  11  23  35  47  65  92 129 172 215 253 288
#     4   9  18  33  51  69  92 123 159 203 255 305
#     4  10  20  33  49  70  96 129 167 205 248 301
#
# _framework density 17.774614
#
# number of rings (size 3 to 8) (size 9 to 14) (size 15 to 20)
#    0.000    2.636    0.000    2.455    1.273    3.636 
#    0.000    0.000    0.000    1.091    0.000    1.273 
#    0.000    0.000    0.000    0.000    0.000    0.545 
#
# Total GULP energy -545324.733260 kJ/mol
# GULP energy per Si atom -12393.743938 kJ/mol
# Density = 1.773416 g / cm^3
# Si number density = 17.774614 Si / 1000 Ang^3
#
#
#
# Elastic Constant Matrix: (Units=GPa)
#
#
# Indices 1 2 3 4 5 6 
#
# 1 63.3813 38.8466 23.6344 0.0000 0.0000 0.0000
# 2 38.8466 113.0143 52.4481 0.0000 0.0000 0.0000
# 3 23.6344 52.4481 87.2782 0.0000 0.0000 0.0000
# 4 0.0000 0.0000 0.0000 12.2412 0.0000 0.0000
# 5 0.0000 0.0000 0.0000 0.0000 14.2913 0.0000
# 6 0.0000 0.0000 0.0000 0.0000 0.0000 31.9119
#
#
#
# Elastic Compliance Matrix: (Units=1/GPa)
#
#
# Indices 1 2 3 4 5 6 
#
# 1 0.020190 -0.006105 -0.001798 0.000000 0.000000 0.000000
# 2 -0.006105 0.014117 -0.006830 0.000000 0.000000 0.000000
# 3 -0.001798 -0.006830 0.016049 0.000000 0.000000 0.000000
# 4 0.000000 0.000000 0.000000 0.081691 0.000000 0.000000
# 5 0.000000 0.000000 0.000000 0.000000 0.069973 0.000000
# 6 0.000000 0.000000 0.000000 0.000000 0.000000 0.031336
#
#
# Mechanical properties :
#
#
# Convention : Reuss Voigt Hill
#
# Bulk Modulus (GPa) = 47.87354 54.83690 51.35522
# Shear Modulus (GPa) = 18.53321 21.60520 20.06921
#
# Velocity S-wave (km/s) = 3.23256 3.49020 3.36384
# Velocity P-wave (km/s) = 6.39724 6.86733 6.63645
#
# Compressibility (1/GPa) = 0.02088836
#
# Stress axis : x y z
#
# Youngs Moduli (GPa) = 49.52915 70.83831 62.30960
#
# Poissons Ratio (x) = 0.43249 0.11206
# Poissons Ratio (y) = 0.30239 0.42556
# Poissons Ratio (z) = 0.08908 0.48381
#
# Static dielectric constant tensor:
#      x y z
#    x 3.183030 0.000000 0.000000 
#    y 0.000000 3.490810 0.000000 
#    z 0.000000 0.000000 3.323940 
# 
# 
# High freq. dielectric constant tensor:
#      x y z
#    x 1.676190 0.000000 0.000000 
#    y 0.000000 1.692720 0.000000 
#    z 0.000000 0.000000 1.664850 
# 
# From -- ./inp_files/50308.got.cif
#   From: 2010.03.12/outbox.cif.g09.slc.cpg/sg65_26_cif.got.tgz:50308.got - 2010.04.10 20:52:16.
