data_PCOD8271690
_publ_section_title
;
Structure prediction by ZEFSAII (Michael W. Deem and Ramdas Pophale) SiO2 
 PCOD8271690
Probable space group: C M M M
;
_chemical_formula_sum "Si O2"
_cell_formula_units_Z 72
_cell_length_a 18.097126
_cell_length_b 10.481539
_cell_length_c 20.471617
_cell_angle_alpha 90.000000
_cell_angle_beta 90.000000
_cell_angle_gamma 90.000000
_cell_volume 3883.173655
_symmetry_space_group_name_H-M "C M M M"
_symmetry_group_IT_number 65
_symmetry_cell_setting 'orthorhombic'
loop_
_space_group_symop_operation_xyz
x,y,z
-x,-y,z
x,-y,-z
-x,y,-z
-x,-y,-z
x,y,-z
-x,y,z
x,-y,z
1/2+x,1/2+y,z
1/2-x,1/2-y,z
1/2+x,1/2-y,-z
1/2-x,1/2+y,-z
1/2-x,1/2-y,-z
1/2+x,1/2+y,-z
1/2-x,1/2+y,z
1/2+x,1/2-y,z
loop_
_atom_site_type_symbol
_atom_site_label
_atom_site_fract_x
_atom_site_fract_y
_atom_site_fract_z
Si Si1 0.417578 0.500000 0.422824
Si Si2 0.419067 0.856013 0.309490
Si Si3 0.081894 0.650784 0.927776
Si Si4 0.837002 0.253458 0.424616
Si Si5 0.181974 0.654007 0.192024
O O1 0.500000 0.500000 0.392265
O O2 0.423327 0.500000 0.500000
O O3 0.371223 0.621000 0.399488
O O4 0.500000 0.787638 0.314627
O O5 0.375754 0.856692 0.378700
O O6 0.369388 0.798996 0.251805
O O7 0.433834 0.000000 0.289923
O O8 0.077165 0.500000 0.927740
O O9 0.141115 0.694280 0.874560
O O10 0.000000 0.704927 0.910729
O O11 0.106244 0.699548 0.000000
O O12 0.855880 0.284338 0.500000
O O13 0.750000 0.250000 0.413360
O O14 0.201318 0.500000 0.194866
O O15 0.250000 0.750000 0.196603
#
# Coordination Sequence:
#
# PCOD8271690 Si02
#       5
#     8  16  16  16  16
#     4   9  18  34  54  74 101 137 172 206 257 324
#     4  10  21  36  54  75 100 133 173 216 264 315
#     4   8  14  27  51  81 108 138 179 220 256 302
#     4  10  21  35  54  78 105 134 169 215 265 318
#     4  10  20  35  54  77 108 141 174 217 266 315
#
# _framework density 18.541535
#
# number of rings (size 3 to 8) (size 9 to 14) (size 15 to 20)
#    0.000    2.556    0.000    2.667    1.556    4.889 
#    2.000    1.111    0.000    2.000    0.000    1.556 
#    0.000    0.000    0.000    0.000    0.000    0.000 
#
# Total GULP energy -446039.032196 kJ/mol
# GULP energy per Si atom -12389.973117 kJ/mol
# Density = 1.849933 g / cm^3
# Si number density = 18.541535 Si / 1000 Ang^3
#
#
#
# Elastic Constant Matrix: (Units=GPa)
#
#
# Indices 1 2 3 4 5 6 
#
# 1 161.2228 40.5716 83.2158 0.0000 0.0000 0.0000
# 2 40.5716 44.5274 21.8528 0.0000 0.0000 0.0000
# 3 83.2158 21.8528 131.4202 0.0000 0.0000 0.0000
# 4 0.0000 0.0000 0.0000 16.2370 0.0000 0.0000
# 5 0.0000 0.0000 0.0000 0.0000 49.3534 0.0000
# 6 0.0000 0.0000 0.0000 0.0000 0.0000 30.1745
#
#
#
# Elastic Compliance Matrix: (Units=1/GPa)
#
#
# Indices 1 2 3 4 5 6 
#
# 1 0.010983 -0.007180 -0.005760 0.000000 0.000000 0.000000
# 2 -0.007180 0.029148 -0.000300 0.000000 0.000000 0.000000
# 3 -0.005760 -0.000300 0.011307 0.000000 0.000000 0.000000
# 4 0.000000 0.000000 0.000000 0.061588 0.000000 0.000000
# 5 0.000000 0.000000 0.000000 0.000000 0.020262 0.000000
# 6 0.000000 0.000000 0.000000 0.000000 0.000000 0.033141
#
#
# Mechanical properties :
#
#
# Convention : Reuss Voigt Hill
#
# Bulk Modulus (GPa) = 40.07130 69.82786 54.94958
# Shear Modulus (GPa) = 24.84756 31.92166 28.38461
#
# Velocity S-wave (km/s) = 3.66471 4.15375 3.91687
# Velocity P-wave (km/s) = 6.29010 7.79403 7.08210
#
# Compressibility (1/GPa) = 0.02495552
#
# Stress axis : x y z
#
# Youngs Moduli (GPa) = 91.05270 34.30820 88.44383
#
# Poissons Ratio (x) = 0.24633 0.50947
# Poissons Ratio (y) = 0.65375 0.02657
# Poissons Ratio (z) = 0.52450 0.01030
#
# Static dielectric constant tensor:
#      x y z
#    x 3.704510 0.000000 0.000000 
#    y 0.000000 3.130250 0.000000 
#    z 0.000000 0.000000 3.613630 
# 
# 
# High freq. dielectric constant tensor:
#      x y z
#    x 1.732250 0.000000 0.000000 
#    y 0.000000 1.676470 0.000000 
#    z 0.000000 0.000000 1.723710 
# 
# From -- ./inp_files/51146.got.cif
#   From: 2010.03.12/outbox.cif.g09.slc.cpg/sg65_26_cif.got.tgz:51146.got - 2010.04.10 20:52:16.
