data_PCOD8271607
_publ_section_title
;
Structure prediction by ZEFSAII (Michael W. Deem and Ramdas Pophale) SiO2 
 PCOD8271607
Probable space group: C M M M
;
_chemical_formula_sum "Si O2"
_cell_formula_units_Z 72
_cell_length_a 28.804461
_cell_length_b 8.936346
_cell_length_c 15.274787
_cell_angle_alpha 90.000000
_cell_angle_beta 90.000000
_cell_angle_gamma 90.000000
_cell_volume 3931.831443
_symmetry_space_group_name_H-M "C M M M"
_symmetry_group_IT_number 65
_symmetry_cell_setting 'orthorhombic'
loop_
_space_group_symop_operation_xyz
x,y,z
-x,-y,z
x,-y,-z
-x,y,-z
-x,-y,-z
x,y,-z
-x,y,z
x,-y,z
1/2+x,1/2+y,z
1/2-x,1/2-y,z
1/2+x,1/2-y,-z
1/2-x,1/2+y,-z
1/2-x,1/2-y,-z
1/2+x,1/2+y,-z
1/2-x,1/2+y,z
1/2+x,1/2-y,z
loop_
_atom_site_type_symbol
_atom_site_label
_atom_site_fract_x
_atom_site_fract_y
_atom_site_fract_z
Si Si1 0.800285 0.823707 0.809838
Si Si2 0.946745 0.171769 0.601427
Si Si3 0.052180 0.677798 0.903321
Si Si4 0.298242 0.671991 0.000000
Si Si5 0.613148 0.176827 0.743476
O O1 0.750000 0.750000 0.796902
O O2 0.836111 0.752474 0.741136
O O3 0.795622 0.000000 0.793160
O O4 0.822358 0.786797 0.907231
O O5 0.935546 0.198165 0.500000
O O6 0.913683 0.280610 0.655567
O O7 0.000000 0.213770 0.621504
O O8 0.937174 0.000000 0.627301
O O9 0.051751 0.500000 0.899069
O O10 0.085001 0.741784 0.827197
O O11 0.000000 0.738510 0.887698
O O12 0.069784 0.730131 0.000000
O O13 0.250000 0.750000 0.000000
O O14 0.285984 0.500000 0.000000
O O15 0.619220 0.000000 0.748162
#
# Coordination Sequence:
#
# PCOD8271607 Si02
#       5
#    16  16  16   8  16
#     4  10  20  35  52  73 103 140 181 227 271 315
#     4   9  19  37  59  81 107 140 176 217 268 321
#     4   8  15  28  44  66 101 141 176 209 248 300
#     4   8  16  30  48  68  93 130 175 222 266 305
#     4  11  21  31  51  81 108 140 178 219 266 319
#
# _framework density 18.312076999999999
#
# number of rings (size 3 to 8) (size 9 to 14) (size 15 to 20)
#    0.000    2.667    0.000    3.333    1.556    2.667 
#    0.000    1.111    0.000    0.667    0.000    4.667 
#    0.000    0.000    0.000    0.000    0.000    0.000 
#
# Total GULP energy -446137.678960 kJ/mol
# GULP energy per Si atom -12392.713304 kJ/mol
# Density = 1.827040 g / cm^3
# Si number density = 18.312077 Si / 1000 Ang^3
#
#
#
# Elastic Constant Matrix: (Units=GPa)
#
#
# Indices 1 2 3 4 5 6 
#
# 1 102.6685 43.6739 55.9694 0.0000 0.0000 0.0000
# 2 43.6739 64.7532 35.5759 0.0000 0.0000 0.0000
# 3 55.9694 35.5759 81.6612 0.0000 0.0000 0.0000
# 4 0.0000 0.0000 0.0000 26.4924 0.0000 0.0000
# 5 0.0000 0.0000 0.0000 0.0000 23.6908 0.0000
# 6 0.0000 0.0000 0.0000 0.0000 0.0000 25.9537
#
#
#
# Elastic Compliance Matrix: (Units=1/GPa)
#
#
# Indices 1 2 3 4 5 6 
#
# 1 0.017620 -0.006901 -0.009070 0.000000 0.000000 0.000000
# 2 -0.006901 0.023006 -0.005293 0.000000 0.000000 0.000000
# 3 -0.009070 -0.005293 0.020768 0.000000 0.000000 0.000000
# 4 0.000000 0.000000 0.000000 0.037747 0.000000 0.000000
# 5 0.000000 0.000000 0.000000 0.000000 0.042211 0.000000
# 6 0.000000 0.000000 0.000000 0.000000 0.000000 0.038530
#
#
# Mechanical properties :
#
#
# Convention : Reuss Voigt Hill
#
# Bulk Modulus (GPa) = 53.00479 57.72460 55.36469
# Shear Modulus (GPa) = 21.86291 22.81828 22.34060
#
# Velocity S-wave (km/s) = 3.45904 3.53381 3.49663
# Velocity P-wave (km/s) = 6.70533 6.94562 6.82653
#
# Compressibility (1/GPa) = 0.01886622
#
# Stress axis : x y z
#
# Youngs Moduli (GPa) = 56.75257 43.46775 48.15089
#
# Poissons Ratio (x) = 0.29997 0.43674
# Poissons Ratio (y) = 0.39165 0.25484
# Poissons Ratio (z) = 0.51476 0.23005
#
# Static dielectric constant tensor:
#      x y z
#    x 3.242860 0.000000 0.000000 
#    y 0.000000 3.060660 0.000000 
#    z 0.000000 0.000000 3.303120 
# 
# 
# High freq. dielectric constant tensor:
#      x y z
#    x 1.701900 0.000000 0.000000 
#    y 0.000000 1.695830 0.000000 
#    z 0.000000 0.000000 1.697330 
# 
# From -- ./inp_files/36556.got.cif
#   From: 2010.03.12/outbox.cif.g09.slc.cpg/sg65_19_cif.got.tgz:36556.got - 2010.04.10 20:52:16.
