data_PCOD8271815
_publ_section_title
;
Structure prediction by ZEFSAII (Michael W. Deem and Ramdas Pophale) SiO2 
 PCOD8271815
Probable space group: C M M M
;
_chemical_formula_sum "Si O2"
_cell_formula_units_Z 80
_cell_length_a 9.273768
_cell_length_b 28.700942
_cell_length_c 16.276427
_cell_angle_alpha 90.000000
_cell_angle_beta 90.000000
_cell_angle_gamma 90.000000
_cell_volume 4332.229475
_symmetry_space_group_name_H-M "C M M M"
_symmetry_group_IT_number 65
_symmetry_cell_setting 'orthorhombic'
loop_
_space_group_symop_operation_xyz
x,y,z
-x,-y,z
x,-y,-z
-x,y,-z
-x,-y,-z
x,y,-z
-x,y,z
x,-y,z
1/2+x,1/2+y,z
1/2-x,1/2-y,z
1/2+x,1/2-y,-z
1/2-x,1/2+y,-z
1/2-x,1/2-y,-z
1/2+x,1/2+y,-z
1/2-x,1/2+y,z
1/2+x,1/2-y,z
loop_
_atom_site_type_symbol
_atom_site_label
_atom_site_fract_x
_atom_site_fract_y
_atom_site_fract_z
Si Si1 0.838406 0.289280 0.841840
Si Si2 0.333078 0.553323 0.178265
Si Si3 0.667819 0.202596 0.594988
Si Si4 0.336456 0.312677 0.000000
Si Si5 0.337913 0.577611 0.000000
Si Si6 0.338468 0.127256 0.276922
O O1 0.750000 0.250000 0.788873
O O2 0.746726 0.292795 0.923437
O O3 0.841610 0.338937 0.800216
O O4 0.000000 0.271792 0.859092
O O5 0.500000 0.568831 0.175909
O O6 0.314153 0.500000 0.205081
O O7 0.265127 0.559951 0.085895
O O8 0.257786 0.583351 0.250304
O O9 0.691780 0.190365 0.500000
O O10 0.500000 0.210838 0.617084
O O11 0.750000 0.250000 0.618823
O O12 0.724318 0.157472 0.646176
O O13 0.500000 0.294565 0.000000
O O14 0.331825 0.367693 0.000000
O O15 0.500000 0.557515 0.000000
O O16 0.500000 0.109322 0.297548
#
# Coordination Sequence:
#
# PCOD8271815 Si02
#       6
#    16  16  16   8   8  16
#     4  11  22  34  48  69  99 134 171 209 251 299
#     4  10  20  35  56  79 102 132 173 219 263 308
#     4   9  18  34  56  82 110 139 171 207 250 303
#     4  11  20  33  51  68  93 134 174 209 253 299
#     4   9  17  32  53  74  97 129 171 217 263 305
#     4  10  21  35  52  76 106 135 166 210 258 306
#
# _framework density 18.466242000000001
#
# number of rings (size 3 to 8) (size 9 to 14) (size 15 to 20)
#    0.000    2.000    2.000    2.100    0.000    3.200 
#    0.000    0.500    0.000    1.800    0.000    4.200 
#    0.000    0.000    0.000    0.000    0.000    0.000 
#
# Total GULP energy -495660.917215 kJ/mol
# GULP energy per Si atom -12391.522930 kJ/mol
# Density = 1.842421 g / cm^3
# Si number density = 18.466242 Si / 1000 Ang^3
#
#
#
# Elastic Constant Matrix: (Units=GPa)
#
#
# Indices 1 2 3 4 5 6 
#
# 1 94.0084 46.5949 36.3728 0.0000 0.0000 0.0000
# 2 46.5949 106.9830 46.8897 0.0000 0.0000 0.0000
# 3 36.3728 46.8897 103.0082 0.0000 0.0000 0.0000
# 4 0.0000 0.0000 0.0000 33.6373 0.0000 0.0000
# 5 0.0000 0.0000 0.0000 0.0000 21.9990 0.0000
# 6 0.0000 0.0000 0.0000 0.0000 0.0000 31.0196
#
#
#
# Elastic Compliance Matrix: (Units=1/GPa)
#
#
# Indices 1 2 3 4 5 6 
#
# 1 0.014158 -0.004966 -0.002739 0.000000 0.000000 0.000000
# 2 -0.004966 0.013419 -0.004355 0.000000 0.000000 0.000000
# 3 -0.002739 -0.004355 0.012657 0.000000 0.000000 0.000000
# 4 0.000000 0.000000 0.000000 0.029729 0.000000 0.000000
# 5 0.000000 0.000000 0.000000 0.000000 0.045457 0.000000
# 6 0.000000 0.000000 0.000000 0.000000 0.000000 0.032238
#
#
# Mechanical properties :
#
#
# Convention : Reuss Voigt Hill
#
# Bulk Modulus (GPa) = 62.05292 62.63494 62.34393
# Shear Modulus (GPa) = 28.22483 28.94066 28.58275
#
# Velocity S-wave (km/s) = 3.91379 3.96311 3.93853
# Velocity P-wave (km/s) = 7.35527 7.41174 7.38356
#
# Compressibility (1/GPa) = 0.01611528
#
# Stress axis : x y z
#
# Youngs Moduli (GPa) = 70.62906 74.52210 79.00540
#
# Poissons Ratio (x) = 0.37008 0.21638
# Poissons Ratio (y) = 0.35075 0.34405
# Poissons Ratio (z) = 0.19344 0.32452
#
# Static dielectric constant tensor:
#      x y z
#    x 3.496490 0.000000 0.000000 
#    y 0.000000 3.559590 0.000000 
#    z 0.000000 0.000000 3.515240 
# 
# 
# High freq. dielectric constant tensor:
#      x y z
#    x 1.702950 0.000000 0.000000 
#    y 0.000000 1.715190 0.000000 
#    z 0.000000 0.000000 1.705640 
# 
# From -- ./inp_files/49943.got.cif
#   From: 2010.03.12/outbox.cif.g09.slc.cpg/sg65_25_cif.got.tgz:49943.got - 2010.04.10 20:52:16.
