data_PCOD8271051
_publ_section_title
;
Structure prediction by ZEFSAII (Michael W. Deem and Ramdas Pophale) SiO2 
 PCOD8271051
Probable space group: C M M M
;
_chemical_formula_sum "Si O2"
_cell_formula_units_Z 88
_cell_length_a 9.334583
_cell_length_b 18.455376
_cell_length_c 27.956675
_cell_angle_alpha 90.000000
_cell_angle_beta 90.000000
_cell_angle_gamma 90.000000
_cell_volume 4816.186956
_symmetry_space_group_name_H-M "C M M M"
_symmetry_group_IT_number 65
_symmetry_cell_setting 'orthorhombic'
loop_
_space_group_symop_operation_xyz
x,y,z
-x,-y,z
x,-y,-z
-x,y,-z
-x,-y,-z
x,y,-z
-x,y,z
x,-y,z
1/2+x,1/2+y,z
1/2-x,1/2-y,z
1/2+x,1/2-y,-z
1/2-x,1/2+y,-z
1/2-x,1/2-y,-z
1/2+x,1/2+y,-z
1/2-x,1/2+y,z
1/2+x,1/2-y,z
loop_
_atom_site_type_symbol
_atom_site_label
_atom_site_fract_x
_atom_site_fract_y
_atom_site_fract_z
Si Si1 0.164050 0.916047 0.625565
Si Si2 0.670553 0.419253 0.193905
Si Si3 0.160603 0.413431 0.000000
Si Si4 0.840555 0.086243 0.911316
Si Si5 0.334117 0.821784 0.555859
Si Si6 0.332374 0.324066 0.718858
O O1 0.267988 0.889801 0.583425
O O2 0.201353 0.875140 0.674231
O O3 0.000000 0.902168 0.610016
O O4 0.193717 0.000000 0.634804
O O5 0.500000 0.423681 0.196024
O O6 0.732780 0.500000 0.203615
O O7 0.717982 0.390907 0.141228
O O8 0.728306 0.363995 0.233828
O O9 0.237884 0.382611 0.952578
O O10 0.163599 0.500000 0.000000
O O11 0.000000 0.383336 0.000000
O O12 0.000000 0.117481 0.920007
O O13 0.846452 0.000000 0.913531
O O14 0.313734 0.837049 0.500000
O O15 0.500000 0.811750 0.569522
O O16 0.250000 0.750000 0.572097
O O17 0.500000 0.307471 0.723651
O O18 0.250000 0.250000 0.711167
#
# Coordination Sequence:
#
# PCOD8271051 Si02
#       6
#    16  16   8  16  16  16
#     4  10  21  36  55  79 106 137 172 211 255 302
#     4   8  14  27  48  70  91 120 160 202 239 279
#     4   9  15  21  31  53  88 123 148 177 227 285
#     4   8  13  22  38  59  82 112 152 193 229 270
#     4  10  21  37  57  80 107 140 176 213 253 298
#     4  10  20  34  52  74 100 129 163 202 246 297
#
# _framework density 18.271716999999999
#
# number of rings (size 3 to 8) (size 9 to 14) (size 15 to 20)
#    0.000    2.818    0.000    3.000    0.000    7.273 
#    0.000    2.727    0.000    2.727    0.000    0.636 
#    0.000    0.000    0.000    0.000    0.000    0.000 
#
# Total GULP energy -545538.385884 kJ/mol
# GULP energy per Si atom -12398.599679 kJ/mol
# Density = 1.823013 g / cm^3
# Si number density = 18.271717 Si / 1000 Ang^3
#
#
#
# Elastic Constant Matrix: (Units=GPa)
#
#
# Indices 1 2 3 4 5 6 
#
# 1 90.9632 49.6765 66.9735 0.0000 0.0000 0.0000
# 2 49.6765 96.7977 61.5166 0.0000 0.0000 0.0000
# 3 66.9735 61.5166 123.3220 0.0000 0.0000 0.0000
# 4 0.0000 0.0000 0.0000 10.7288 0.0000 0.0000
# 5 0.0000 0.0000 0.0000 0.0000 12.7188 0.0000
# 6 0.0000 0.0000 0.0000 0.0000 0.0000 22.1247
#
#
#
# Elastic Compliance Matrix: (Units=1/GPa)
#
#
# Indices 1 2 3 4 5 6 
#
# 1 0.019767 -0.004864 -0.008309 0.000000 0.000000 0.000000
# 2 -0.004864 0.016323 -0.005501 0.000000 0.000000 0.000000
# 3 -0.008309 -0.005501 0.015365 0.000000 0.000000 0.000000
# 4 0.000000 0.000000 0.000000 0.093207 0.000000 0.000000
# 5 0.000000 0.000000 0.000000 0.000000 0.078624 0.000000
# 6 0.000000 0.000000 0.000000 0.000000 0.000000 0.045198
#
#
# Mechanical properties :
#
#
# Convention : Reuss Voigt Hill
#
# Bulk Modulus (GPa) = 70.88205 74.15736 72.51971
# Shear Modulus (GPa) = 16.10123 17.97553 17.03838
#
# Velocity S-wave (km/s) = 2.97174 3.13995 3.05700
# Velocity P-wave (km/s) = 7.11706 7.33619 7.22745
#
# Compressibility (1/GPa) = 0.01410794
#
# Stress axis : x y z
#
# Youngs Moduli (GPa) = 50.58813 61.26353 65.08241
#
# Poissons Ratio (x) = 0.29800 0.54076
# Poissons Ratio (y) = 0.24607 0.35800
# Poissons Ratio (z) = 0.42033 0.33699
#
# Static dielectric constant tensor:
#      x y z
#    x 3.254790 0.000000 0.000000 
#    y 0.000000 3.089590 0.000000 
#    z 0.000000 0.000000 3.677470 
# 
# 
# High freq. dielectric constant tensor:
#      x y z
#    x 1.686990 0.000000 0.000000 
#    y 0.000000 1.674750 0.000000 
#    z 0.000000 0.000000 1.724990 
# 
# From -- ./inp_files/76517.got.cif
#   From: 2010.03.12/outbox.cif.g09.slc.cpg/sg65_39_cif.got.tgz:76517.got - 2010.04.10 20:52:16.
