data_PCOD8271354
_publ_section_title
;
Structure prediction by ZEFSAII (Michael W. Deem and Ramdas Pophale) SiO2 
 PCOD8271354
Probable space group: C M M M
;
_chemical_formula_sum "Si O2"
_cell_formula_units_Z 88
_cell_length_a 18.092906
_cell_length_b 8.981664
_cell_length_c 28.310245
_cell_angle_alpha 90.000000
_cell_angle_beta 90.000000
_cell_angle_gamma 90.000000
_cell_volume 4600.539448
_symmetry_space_group_name_H-M "C M M M"
_symmetry_group_IT_number 65
_symmetry_cell_setting 'orthorhombic'
loop_
_space_group_symop_operation_xyz
x,y,z
-x,-y,z
x,-y,-z
-x,y,-z
-x,-y,-z
x,y,-z
-x,y,z
x,-y,z
1/2+x,1/2+y,z
1/2-x,1/2-y,z
1/2+x,1/2-y,-z
1/2-x,1/2+y,-z
1/2-x,1/2-y,-z
1/2+x,1/2+y,-z
1/2-x,1/2+y,z
1/2+x,1/2-y,z
loop_
_atom_site_type_symbol
_atom_site_label
_atom_site_fract_x
_atom_site_fract_y
_atom_site_fract_z
Si Si1 0.670991 0.323744 0.231514
Si Si2 0.583224 0.177289 0.500000
Si Si3 0.413564 0.171604 0.685908
Si Si4 0.826862 0.174958 0.947145
Si Si5 0.582086 0.323184 0.859013
Si Si6 0.328999 0.824924 0.408876
O O1 0.680803 0.500000 0.231856
O O2 0.750000 0.250000 0.238860
O O3 0.616668 0.277136 0.273262
O O4 0.635379 0.265632 0.182560
O O5 0.500000 0.242090 0.500000
O O6 0.626086 0.236487 0.453919
O O7 0.579832 0.000000 0.500000
O O8 0.500000 0.200354 0.679854
O O9 0.374877 0.218366 0.637376
O O10 0.396774 0.000000 0.698622
O O11 0.750000 0.250000 0.934142
O O12 0.887351 0.231733 0.909667
O O13 0.814718 0.000000 0.942788
O O14 0.853238 0.219178 0.000000
O O15 0.500000 0.255724 0.852307
O O16 0.578059 0.500000 0.857485
O O17 0.250000 0.750000 0.406320
O O18 0.317204 0.000000 0.412995
#
# Coordination Sequence:
#
# PCOD8271354 Si02
#       6
#    16   8  16  16  16  16
#     4  11  22  36  55  77 103 137 175 214 258 307
#     4   9  17  32  55  79 102 133 174 214 254 303
#     4  10  21  37  56  79 107 137 172 215 260 307
#     4   9  17  30  50  74  99 129 164 203 248 298
#     4   9  18  32  50  74 102 130 165 210 255 300
#     4  10  20  34  54  79 106 137 172 211 255 304
#
# _framework density 19.128191999999999
#
# number of rings (size 3 to 8) (size 9 to 14) (size 15 to 20)
#    0.000    2.273    0.000    3.000    0.000    5.818 
#    0.000    2.727    0.000    4.909    0.000    2.545 
#    0.000    0.000    0.000    0.000    0.000    0.000 
#
# Total GULP energy -545667.227383 kJ/mol
# GULP energy per Si atom -12401.527895 kJ/mol
# Density = 1.908466 g / cm^3
# Si number density = 19.128192 Si / 1000 Ang^3
#
#
#
# Elastic Constant Matrix: (Units=GPa)
#
#
# Indices 1 2 3 4 5 6 
#
# 1 150.1693 32.0509 74.7351 0.0000 0.0000 0.0000
# 2 32.0509 32.1296 32.2868 0.0000 0.0000 0.0000
# 3 74.7351 32.2868 150.1385 0.0000 0.0000 0.0000
# 4 0.0000 0.0000 0.0000 20.7276 0.0000 0.0000
# 5 0.0000 0.0000 0.0000 0.0000 38.7560 0.0000
# 6 0.0000 0.0000 0.0000 0.0000 0.0000 26.8919
#
#
#
# Elastic Compliance Matrix: (Units=1/GPa)
#
#
# Indices 1 2 3 4 5 6 
#
# 1 0.009725 -0.006170 -0.003514 0.000000 0.000000 0.000000
# 2 -0.006170 0.043618 -0.006309 0.000000 0.000000 0.000000
# 3 -0.003514 -0.006309 0.009766 0.000000 0.000000 0.000000
# 4 0.000000 0.000000 0.000000 0.048245 0.000000 0.000000
# 5 0.000000 0.000000 0.000000 0.000000 0.025802 0.000000
# 6 0.000000 0.000000 0.000000 0.000000 0.000000 0.037186
#
#
# Mechanical properties :
#
#
# Convention : Reuss Voigt Hill
#
# Bulk Modulus (GPa) = 32.12924 67.84257 49.98590
# Shear Modulus (GPa) = 23.07311 30.16607 26.61959
#
# Velocity S-wave (km/s) = 3.47686 3.97551 3.73452
# Velocity P-wave (km/s) = 5.74032 7.52444 6.69211
#
# Compressibility (1/GPa) = 0.03112430
#
# Stress axis : x y z
#
# Youngs Moduli (GPa) = 102.83002 22.92615 102.39222
#
# Poissons Ratio (x) = 0.14145 0.35980
# Poissons Ratio (y) = 0.63444 0.64597
# Poissons Ratio (z) = 0.36134 0.14464
#
# Static dielectric constant tensor:
#      x y z
#    x 3.717760 0.000000 0.000000 
#    y 0.000000 3.225040 0.000000 
#    z 0.000000 0.000000 3.797160 
# 
# 
# High freq. dielectric constant tensor:
#      x y z
#    x 1.755850 0.000000 0.000000 
#    y 0.000000 1.708950 0.000000 
#    z 0.000000 0.000000 1.763050 
# 
# From -- ./inp_files/77944.got.cif
#   From: 2010.03.12/outbox.cif.g09.slc.cpg/sg65_39_cif.got.tgz:77944.got - 2010.04.10 20:52:16.
