data_PCOD8271810
_publ_section_title
;
Structure prediction by ZEFSAII (Michael W. Deem and Ramdas Pophale) SiO2 
 PCOD8271810
Probable space group: C M M M
;
_chemical_formula_sum "Si O2"
_cell_formula_units_Z 112
_cell_length_a 13.761499
_cell_length_b 18.171075
_cell_length_c 23.711656
_cell_angle_alpha 90.000000
_cell_angle_beta 90.000000
_cell_angle_gamma 90.000000
_cell_volume 5929.365875
_symmetry_space_group_name_H-M "C M M M"
_symmetry_group_IT_number 65
_symmetry_cell_setting 'orthorhombic'
loop_
_space_group_symop_operation_xyz
x,y,z
-x,-y,z
x,-y,-z
-x,y,-z
-x,-y,-z
x,y,-z
-x,y,z
x,-y,z
1/2+x,1/2+y,z
1/2-x,1/2-y,z
1/2+x,1/2-y,-z
1/2-x,1/2+y,-z
1/2-x,1/2-y,-z
1/2+x,1/2+y,-z
1/2-x,1/2+y,z
1/2+x,1/2-y,z
loop_
_atom_site_type_symbol
_atom_site_label
_atom_site_fract_x
_atom_site_fract_y
_atom_site_fract_z
Si Si1 0.609037 0.162082 0.634990
Si Si2 0.609120 0.912823 0.061980
Si Si3 0.219030 0.583883 0.170394
Si Si4 0.885435 0.866197 0.766630
Si Si5 0.893024 0.700646 0.760551
Si Si6 0.615107 0.298363 0.563402
Si Si7 0.300843 0.584768 0.646841
O O1 0.500000 0.132981 0.619655
O O2 0.605609 0.206078 0.693343
O O3 0.650899 0.220509 0.589510
O O4 0.684117 0.094794 0.640932
O O5 0.500000 0.885969 0.077781
O O6 0.686284 0.885510 0.108990
O O7 0.610700 0.000000 0.059149
O O8 0.638507 0.881530 0.000000
O O9 0.182456 0.500000 0.177966
O O10 0.335064 0.588678 0.181568
O O11 0.174956 0.635087 0.218926
O O12 0.859554 0.781317 0.780114
O O13 0.840063 0.891023 0.707559
O O14 0.000000 0.881989 0.766734
O O15 0.000000 0.683234 0.784410
O O16 0.655846 0.304737 0.500000
O O17 0.500000 0.297063 0.564636
O O18 0.648052 0.368685 0.598462
O O19 0.326171 0.500000 0.636880
#
# Coordination Sequence:
#
# PCOD8271810 Si02
#       7
#    16  16  16  16  16  16  16
#     4  10  21  38  59  82 110 145 183 224 274 337
#     4   8  15  30  52  80 117 153 182 222 278 334
#     4  11  21  32  54  88 115 142 182 232 280 325
#     4  11  23  38  53  74 110 156 195 225 271 336
#     4  10  20  35  56  78 107 147 184 224 273 329
#     4  10  22  41  64  86 108 143 191 235 273 324
#     4  12  24  37  57  84 113 146 182 230 290 338
#
# _framework density 18.889035
#
# number of rings (size 3 to 8) (size 9 to 14) (size 15 to 20)
#    0.000    1.714    2.857    2.571    0.000    4.571 
#    0.000    2.143    0.000    2.143    0.000    7.000 
#    0.000    0.000    0.000    0.000    0.000    0.000 
#
# Total GULP energy -694139.530830 kJ/mol
# GULP energy per Si atom -12395.348765 kJ/mol
# Density = 1.884604 g / cm^3
# Si number density = 18.889035 Si / 1000 Ang^3
#
#
#
# Elastic Constant Matrix: (Units=GPa)
#
#
# Indices 1 2 3 4 5 6 
#
# 1 80.4501 38.6566 55.3077 0.0000 0.0000 0.0000
# 2 38.6566 83.1828 34.2735 0.0000 0.0000 0.0000
# 3 55.3077 34.2735 131.0131 0.0000 0.0000 0.0000
# 4 0.0000 0.0000 0.0000 20.1988 0.0000 0.0000
# 5 0.0000 0.0000 0.0000 0.0000 28.9923 0.0000
# 6 0.0000 0.0000 0.0000 0.0000 0.0000 26.4185
#
#
#
# Elastic Compliance Matrix: (Units=1/GPa)
#
#
# Indices 1 2 3 4 5 6 
#
# 1 0.020317 -0.006622 -0.006845 0.000000 0.000000 0.000000
# 2 -0.006622 0.015632 -0.001294 0.000000 0.000000 0.000000
# 3 -0.006845 -0.001294 0.010861 0.000000 0.000000 0.000000
# 4 0.000000 0.000000 0.000000 0.049508 0.000000 0.000000
# 5 0.000000 0.000000 0.000000 0.000000 0.034492 0.000000
# 6 0.000000 0.000000 0.000000 0.000000 0.000000 0.037852
#
#
# Mechanical properties :
#
#
# Convention : Reuss Voigt Hill
#
# Bulk Modulus (GPa) = 57.83894 61.23573 59.53734
# Shear Modulus (GPa) = 24.51618 26.21580 25.36599
#
# Velocity S-wave (km/s) = 3.60655 3.72947 3.66853
# Velocity P-wave (km/s) = 6.93036 7.14383 7.03790
#
# Compressibility (1/GPa) = 0.01728939
#
# Stress axis : x y z
#
# Youngs Moduli (GPa) = 49.21867 63.97086 92.07305
#
# Poissons Ratio (x) = 0.42359 0.63023
# Poissons Ratio (y) = 0.32591 0.11915
# Poissons Ratio (z) = 0.33690 0.08278
#
# Static dielectric constant tensor:
#      x y z
#    x 3.779150 0.000000 0.000000 
#    y 0.000000 3.217110 0.000000 
#    z 0.000000 0.000000 3.648060 
# 
# 
# High freq. dielectric constant tensor:
#      x y z
#    x 1.744900 0.000000 0.000000 
#    y 0.000000 1.711270 0.000000 
#    z 0.000000 0.000000 1.720070 
# 
# From -- ./inp_files/69970.got.cif
#   From: 2010.03.12/outbox.cif.g09.slc.cpg/sg65_35_cif.got.tgz:69970.got - 2010.04.10 20:52:16.
