data_PCOD8271048
_publ_section_title
;
Structure prediction by ZEFSAII (Michael W. Deem and Ramdas Pophale) SiO2 
 PCOD8271048
Probable space group: C M M M
;
_chemical_formula_sum "Si O2"
_cell_formula_units_Z 88
_cell_length_a 18.139213
_cell_length_b 30.141600
_cell_length_c 8.821510
_cell_angle_alpha 90.000000
_cell_angle_beta 90.000000
_cell_angle_gamma 90.000000
_cell_volume 4823.115625
_symmetry_space_group_name_H-M "C M M M"
_symmetry_group_IT_number 65
_symmetry_cell_setting 'orthorhombic'
loop_
_space_group_symop_operation_xyz
x,y,z
-x,-y,z
x,-y,-z
-x,y,-z
-x,-y,-z
x,y,-z
-x,y,z
x,-y,z
1/2+x,1/2+y,z
1/2-x,1/2-y,z
1/2+x,1/2-y,-z
1/2-x,1/2+y,-z
1/2-x,1/2-y,-z
1/2+x,1/2+y,-z
1/2-x,1/2+y,z
1/2+x,1/2-y,z
loop_
_atom_site_type_symbol
_atom_site_label
_atom_site_fract_x
_atom_site_fract_y
_atom_site_fract_z
Si Si1 0.500000 0.947398 0.334257
Si Si2 0.584900 0.743047 0.671605
Si Si3 0.158974 0.450186 0.318608
Si Si4 0.796577 0.294455 0.827282
Si Si5 0.775477 0.878584 0.320633
Si Si6 0.916739 0.850998 0.821511
O O1 0.500000 0.924804 0.500000
O O2 0.578018 0.934425 0.253007
O O3 0.500000 0.000000 0.353085
O O4 0.613715 0.736409 0.500000
O O5 0.500000 0.755894 0.673239
O O6 0.624656 0.784368 0.751885
O O7 0.600201 0.698148 0.762886
O O8 0.154477 0.449109 0.500000
O O9 0.177663 0.500000 0.262536
O O10 0.222900 0.417776 0.258012
O O11 0.750000 0.250000 0.816082
O O12 0.756613 0.331945 0.731569
O O13 0.806624 0.310325 0.000000
O O14 0.780857 0.880218 0.500000
O O15 0.858003 0.884805 0.252961
O O16 0.000000 0.865774 0.777561
O O17 0.905046 0.850649 0.000000
#
# Coordination Sequence:
#
# PCOD8271048 Si02
#       6
#     8  16  16  16  16  16
#     4   7  10  22  46  72 101 135 165 195 239 299
#     4  10  20  34  53  75  98 128 171 220 261 299
#     4   8  15  29  50  77 106 134 166 208 259 309
#     4  11  22  35  51  71 102 144 177 207 250 304
#     4  11  21  32  52  80 106 133 170 218 263 303
#     4  10  20  34  52  73  99 134 174 212 255 313
#
# _framework density 18.245467000000001
#
# number of rings (size 3 to 8) (size 9 to 14) (size 15 to 20)
#    0.000    2.273    1.818    3.273    0.000    2.909 
#    1.636    0.000    0.000    2.727    0.000    3.818 
#    0.000    8.727    0.000    0.000    0.000    0.000 
#
# Total GULP energy -545357.977129 kJ/mol
# GULP energy per Si atom -12394.499480 kJ/mol
# Density = 1.820394 g / cm^3
# Si number density = 18.245467 Si / 1000 Ang^3
#
#
#
# Elastic Constant Matrix: (Units=GPa)
#
#
# Indices 1 2 3 4 5 6 
#
# 1 159.5984 61.6316 46.1854 0.0000 0.0000 0.0000
# 2 61.6316 61.9319 24.3673 0.0000 0.0000 0.0000
# 3 46.1854 24.3673 62.0621 0.0000 0.0000 0.0000
# 4 0.0000 0.0000 0.0000 -0.4950 0.0000 0.0000
# 5 0.0000 0.0000 0.0000 0.0000 28.2028 0.0000
# 6 0.0000 0.0000 0.0000 0.0000 0.0000 32.7979
#
#
#
# Elastic Compliance Matrix: (Units=1/GPa)
#
#
# Indices 1 2 3 4 5 6 
#
# 1 0.011224 -0.009323 -0.004692 0.000000 0.000000 0.000000
# 2 -0.009323 0.026842 -0.003600 0.000000 0.000000 0.000000
# 3 -0.004692 -0.003600 0.021018 0.000000 0.000000 0.000000
# 4 0.000000 0.000000 0.000000 -2.020028 0.000000 0.000000
# 5 0.000000 0.000000 0.000000 0.000000 0.035458 0.000000
# 6 0.000000 0.000000 0.000000 0.000000 0.000000 0.030490
#
#
# Mechanical properties :
#
#
# Convention : Reuss Voigt Hill
#
# Bulk Modulus (GPa) = 41.92520 60.88457 51.40489
# Shear Modulus (GPa) = -2.70005 22.19500 9.74747
#
# Velocity S-wave (km/s) = -1.21781 3.49157 2.31387
# Velocity P-wave (km/s) = 4.58812 7.04960 5.94760
#
# Compressibility (1/GPa) = 0.02385200
#
# Stress axis : x y z
#
# Youngs Moduli (GPa) = 89.09564 37.25570 47.57777
#
# Poissons Ratio (x) = 0.34735 0.22323
# Poissons Ratio (y) = 0.83067 0.17130
# Poissons Ratio (z) = 0.41804 0.13414
#
# Static dielectric constant tensor:
#      x y z
#    x 3.901980 0.000000 0.000000 
#    y 0.000000 3.140430 0.000000 
#    z 0.000000 0.000000 3.257140 
# 
# 
# High freq. dielectric constant tensor:
#      x y z
#    x 1.728530 0.000000 0.000000 
#    y 0.000000 1.664710 0.000000 
#    z 0.000000 0.000000 1.690910 
# 
# From -- ./inp_files/10078.got.cif
#   From: 2010.03.12/outbox.cif.g09.slc.cpg/sg65_6_cif.got.tgz:10078.got - 2010.04.10 20:52:16.
