data_PCOD8271276
_publ_section_title
;
Structure prediction by ZEFSAII (Michael W. Deem and Ramdas Pophale) SiO2 
 PCOD8271276
Probable space group: C M M M
;
_chemical_formula_sum "Si O2"
_cell_formula_units_Z 88
_cell_length_a 17.394518
_cell_length_b 17.069818
_cell_length_c 15.914541
_cell_angle_alpha 90.000000
_cell_angle_beta 90.000000
_cell_angle_gamma 90.000000
_cell_volume 4725.365510
_symmetry_space_group_name_H-M "C M M M"
_symmetry_group_IT_number 65
_symmetry_cell_setting 'orthorhombic'
loop_
_space_group_symop_operation_xyz
x,y,z
-x,-y,z
x,-y,-z
-x,y,-z
-x,-y,-z
x,y,-z
-x,y,z
x,-y,z
1/2+x,1/2+y,z
1/2-x,1/2-y,z
1/2+x,1/2-y,-z
1/2-x,1/2+y,-z
1/2-x,1/2-y,-z
1/2+x,1/2+y,-z
1/2-x,1/2+y,z
1/2+x,1/2-y,z
loop_
_atom_site_type_symbol
_atom_site_label
_atom_site_fract_x
_atom_site_fract_y
_atom_site_fract_z
Si Si1 0.680969 0.588302 0.094623
Si Si2 0.592610 0.732016 0.500000
Si Si3 0.669930 0.137380 0.185370
Si Si4 0.085539 0.232333 0.903877
Si Si5 0.790275 0.093099 0.500000
Si Si6 0.192353 0.681025 0.632010
Si Si7 0.910564 0.500000 0.906616
O O1 0.656054 0.500000 0.114757
O O2 0.743680 0.615827 0.161358
O O3 0.604863 0.640494 0.104042
O O4 0.714845 0.596115 0.000000
O O5 0.500000 0.724226 0.500000
O O6 0.631120 0.645002 0.500000
O O7 0.621283 0.781240 0.419185
O O8 0.648441 0.222280 0.150108
O O9 0.660072 0.138139 0.285624
O O10 0.611803 0.075844 0.145624
O O11 0.000000 0.245799 0.868201
O O12 0.090470 0.261045 0.000000
O O13 0.738774 0.115474 0.580280
O O14 0.809792 0.000000 0.500000
O O15 0.250000 0.750000 0.658880
O O16 0.000000 0.500000 0.919105
O O17 0.871677 0.500000 0.000000
#
# Coordination Sequence:
#
# PCOD8271276 Si02
#       7
#    16   8  16  16   8  16   8
#     4  10  20  34  53  79 108 141 185 236 285 333
#     4   9  19  38  60  86 117 147 180 222 274 333
#     4  12  21  35  58  80 107 146 195 235 277 333
#     4  10  21  35  52  76 108 146 185 231 287 341
#     4   9  19  36  62  86 117 147 176 222 274 335
#     4   9  20  37  57  83 111 148 186 222 273 331
#     4  11  24  38  52  77 116 152 187 241 298 338
#
# _framework density 18.622897999999999
#
# number of rings (size 3 to 8) (size 9 to 14) (size 15 to 20)
#    0.000    1.909    0.909    4.909    1.273    4.909 
#    0.000    1.818    0.000    1.091    0.000    5.091 
#    0.000    0.000    0.000    0.000    0.000    0.000 
#
# Total GULP energy -545551.588116 kJ/mol
# GULP energy per Si atom -12398.899730 kJ/mol
# Density = 1.858051 g / cm^3
# Si number density = 18.622898 Si / 1000 Ang^3
#
#
#
# Elastic Constant Matrix: (Units=GPa)
#
#
# Indices 1 2 3 4 5 6 
#
# 1 77.6204 32.7266 36.0801 0.0000 0.0000 0.0000
# 2 32.7266 115.9721 52.7215 0.0000 0.0000 0.0000
# 3 36.0801 52.7215 131.0721 0.0000 0.0000 0.0000
# 4 0.0000 0.0000 0.0000 25.3839 0.0000 0.0000
# 5 0.0000 0.0000 0.0000 0.0000 1.4745 0.0000
# 6 0.0000 0.0000 0.0000 0.0000 0.0000 32.1526
#
#
#
# Elastic Compliance Matrix: (Units=1/GPa)
#
#
# Indices 1 2 3 4 5 6 
#
# 1 0.015579 -0.002994 -0.003084 0.000000 0.000000 0.000000
# 2 -0.002994 0.011128 -0.003652 0.000000 0.000000 0.000000
# 3 -0.003084 -0.003652 0.009947 0.000000 0.000000 0.000000
# 4 0.000000 0.000000 0.000000 0.039395 0.000000 0.000000
# 5 0.000000 0.000000 0.000000 0.000000 0.678207 0.000000
# 6 0.000000 0.000000 0.000000 0.000000 0.000000 0.031102
#
#
# Mechanical properties :
#
#
# Convention : Reuss Voigt Hill
#
# Bulk Modulus (GPa) = 58.15981 63.08012 60.61996
# Shear Modulus (GPa) = 6.16866 25.34463 15.75664
#
# Velocity S-wave (km/s) = 1.82198 3.69309 2.91192
# Velocity P-wave (km/s) = 5.97697 7.22019 6.62779
#
# Compressibility (1/GPa) = 0.01719400
#
# Stress axis : x y z
#
# Youngs Moduli (GPa) = 64.18792 89.86474 100.53097
#
# Poissons Ratio (x) = 0.26908 0.31004
# Poissons Ratio (y) = 0.19220 0.36711
# Poissons Ratio (z) = 0.19796 0.32816
#
# Static dielectric constant tensor:
#      x y z
#    x 3.218930 0.000000 0.000000 
#    y 0.000000 3.663290 0.000000 
#    z 0.000000 0.000000 3.370670 
# 
# 
# High freq. dielectric constant tensor:
#      x y z
#    x 1.711240 0.000000 0.000000 
#    y 0.000000 1.729740 0.000000 
#    z 0.000000 0.000000 1.714390 
# 
# From -- ./inp_files/42558.got.cif
#   From: 2010.03.12/outbox.cif.g09.slc.cpg/sg65_22_cif.got.tgz:42558.got - 2010.04.10 20:52:16.
