data_PCOD8271219
_publ_section_title
;
Structure prediction by ZEFSAII (Michael W. Deem and Ramdas Pophale) SiO2 
 PCOD8271219
Probable space group: C M M M
;
_chemical_formula_sum "Si O2"
_cell_formula_units_Z 88
_cell_length_a 21.940329
_cell_length_b 23.487190
_cell_length_c 8.825795
_cell_angle_alpha 90.000000
_cell_angle_beta 90.000000
_cell_angle_gamma 90.000000
_cell_volume 4548.079341
_symmetry_space_group_name_H-M "C M M M"
_symmetry_group_IT_number 65
_symmetry_cell_setting 'orthorhombic'
loop_
_space_group_symop_operation_xyz
x,y,z
-x,-y,z
x,-y,-z
-x,y,-z
-x,-y,-z
x,y,-z
-x,y,z
x,-y,z
1/2+x,1/2+y,z
1/2-x,1/2-y,z
1/2+x,1/2-y,-z
1/2-x,1/2+y,-z
1/2-x,1/2-y,-z
1/2+x,1/2+y,-z
1/2-x,1/2+y,z
1/2+x,1/2-y,z
loop_
_atom_site_type_symbol
_atom_site_label
_atom_site_fract_x
_atom_site_fract_y
_atom_site_fract_z
Si Si1 0.429137 0.329674 0.169760
Si Si2 0.000000 0.432583 0.670948
Si Si3 0.126204 0.434420 0.178812
Si Si4 0.719876 0.163569 0.179700
Si Si5 0.173976 0.222487 0.676126
Si Si6 0.427952 0.438291 0.333305
O O1 0.500000 0.319884 0.194171
O O2 0.396558 0.290022 0.292521
O O3 0.408901 0.394468 0.203271
O O4 0.408667 0.314515 0.000000
O O5 0.937711 0.411610 0.751590
O O6 0.000000 0.500000 0.675268
O O7 0.000000 0.408946 0.500000
O O8 0.140473 0.500000 0.229294
O O9 0.181603 0.392697 0.231354
O O10 0.118112 0.431060 0.000000
O O11 0.785923 0.168668 0.261617
O O12 0.685635 0.220408 0.230780
O O13 0.729018 0.163068 0.000000
O O14 0.187121 0.232544 0.500000
O O15 0.403980 0.418821 0.500000
O O16 0.500000 0.442913 0.340659
O O17 0.400080 0.500000 0.291394
#
# Coordination Sequence:
#
# PCOD8271219 Si02
#       6
#    16   8  16  16  16  16
#     4  10  20  34  53  77 105 137 176 224 272 320
#     4   9  17  29  49  79 115 151 181 215 262 317
#     4   9  18  34  57  84 113 146 182 221 270 326
#     4  10  20  37  60  81 105 140 181 224 267 320
#     4  11  22  37  57  78 105 141 182 225 273 329
#     4   8  14  26  45  69  98 132 167 204 253 312
#
# _framework density 19.348825999999999
#
# number of rings (size 3 to 8) (size 9 to 14) (size 15 to 20)
#    0.000    2.455    0.000    4.636    0.000    4.000 
#    1.636    2.727    0.000    3.273    0.000    0.000 
#    0.000    0.000    0.000    0.000    0.000    0.000 
#
# Total GULP energy -545149.853049 kJ/mol
# GULP energy per Si atom -12389.769387 kJ/mol
# Density = 1.930479 g / cm^3
# Si number density = 19.348826 Si / 1000 Ang^3
#
#
#
# Elastic Constant Matrix: (Units=GPa)
#
#
# Indices 1 2 3 4 5 6 
#
# 1 70.9304 43.2273 32.3545 0.0000 0.0000 0.0000
# 2 43.2273 66.0534 16.6672 0.0000 0.0000 0.0000
# 3 32.3545 16.6672 57.5175 0.0000 0.0000 0.0000
# 4 0.0000 0.0000 0.0000 18.2751 0.0000 0.0000
# 5 0.0000 0.0000 0.0000 0.0000 23.1347 0.0000
# 6 0.0000 0.0000 0.0000 0.0000 0.0000 27.5713
#
#
#
# Elastic Compliance Matrix: (Units=1/GPa)
#
#
# Indices 1 2 3 4 5 6 
#
# 1 0.029400 -0.016256 -0.011828 0.000000 0.000000 0.000000
# 2 -0.016256 0.025322 0.001807 0.000000 0.000000 0.000000
# 3 -0.011828 0.001807 0.023516 0.000000 0.000000 0.000000
# 4 0.000000 0.000000 0.000000 0.054719 0.000000 0.000000
# 5 0.000000 0.000000 0.000000 0.000000 0.043225 0.000000
# 6 0.000000 0.000000 0.000000 0.000000 0.000000 0.036270
#
#
# Mechanical properties :
#
#
# Convention : Reuss Voigt Hill
#
# Bulk Modulus (GPa) = 38.93488 42.11105 40.52296
# Shear Modulus (GPa) = 18.27706 20.61304 19.44505
#
# Velocity S-wave (km/s) = 3.07678 3.26749 3.17357
# Velocity P-wave (km/s) = 5.72612 6.00389 5.86665
#
# Compressibility (1/GPa) = 0.02568391
#
# Stress axis : x y z
#
# Youngs Moduli (GPa) = 34.01326 39.49165 42.52484
#
# Poissons Ratio (x) = 0.64198 0.50296
# Poissons Ratio (y) = 0.55292 -0.07682
# Poissons Ratio (z) = 0.40229 -0.07134
#
# Static dielectric constant tensor:
#      x y z
#    x 3.603680 0.000000 0.000000 
#    y 0.000000 3.682810 0.000000 
#    z 0.000000 0.000000 3.586560 
# 
# 
# High freq. dielectric constant tensor:
#      x y z
#    x 1.741110 0.000000 0.000000 
#    y 0.000000 1.738310 0.000000 
#    z 0.000000 0.000000 1.755260 
# 
# From -- ./inp_files/11734.got.cif
#   From: 2010.03.12/outbox.cif.g09.slc.cpg/sg65_6_cif.got.tgz:11734.got - 2010.04.10 20:52:16.
