data_PCOD8271534
_publ_section_title
;
Structure prediction by ZEFSAII (Michael W. Deem and Ramdas Pophale) SiO2 
 PCOD8271534
Probable space group: C M M M
;
_chemical_formula_sum "Si O2"
_cell_formula_units_Z 104
_cell_length_a 8.184551
_cell_length_b 19.927682
_cell_length_c 33.797553
_cell_angle_alpha 90.000000
_cell_angle_beta 90.000000
_cell_angle_gamma 90.000000
_cell_volume 5512.351478
_symmetry_space_group_name_H-M "C M M M"
_symmetry_group_IT_number 65
_symmetry_cell_setting 'orthorhombic'
loop_
_space_group_symop_operation_xyz
x,y,z
-x,-y,z
x,-y,-z
-x,y,-z
-x,-y,-z
x,y,-z
-x,y,z
x,-y,z
1/2+x,1/2+y,z
1/2-x,1/2-y,z
1/2+x,1/2-y,-z
1/2-x,1/2+y,-z
1/2-x,1/2-y,-z
1/2+x,1/2+y,-z
1/2-x,1/2+y,z
1/2+x,1/2-y,z
loop_
_atom_site_type_symbol
_atom_site_label
_atom_site_fract_x
_atom_site_fract_y
_atom_site_fract_z
Si Si1 0.311144 0.320206 0.543556
Si Si2 0.811677 0.575925 0.394579
Si Si3 0.811349 0.924656 0.311609
Si Si4 0.692116 0.822886 0.157845
Si Si5 0.809290 0.322183 0.249243
Si Si6 0.686440 0.421759 0.094850
Si Si7 0.500000 0.079386 0.955852
O O1 0.229867 0.332876 0.500000
O O2 0.500000 0.313576 0.537375
O O3 0.250000 0.250000 0.562053
O O4 0.279323 0.380607 0.573087
O O5 0.743418 0.500000 0.397109
O O6 0.782827 0.603542 0.350145
O O7 0.000000 0.579011 0.405043
O O8 0.780297 0.879405 0.273619
O O9 0.000000 0.923816 0.322533
O O10 0.751085 0.000000 0.301437
O O11 0.500000 0.831526 0.150309
O O12 0.750000 0.750000 0.142665
O O13 0.739168 0.831786 0.203591
O O14 0.791956 0.880009 0.134960
O O15 0.750000 0.250000 0.264558
O O16 0.000000 0.328946 0.256116
O O17 0.500000 0.410018 0.078254
O O18 0.711402 0.500000 0.104806
O O19 0.830255 0.396908 0.064982
O O20 0.500000 0.000000 0.957907
O O21 0.500000 0.110218 0.000000
#
# Coordination Sequence:
#
# PCOD8271534 Si02
#       7
#    16  16  16  16  16  16   8
#     4  10  21  37  57  81 109 139 173 216 264 315
#     4  10  21  37  57  80 107 139 177 218 262 319
#     4  10  21  37  56  78 107 142 179 222 271 320
#     4  10  20  35  55  80 110 147 186 228 279 332
#     4  10  21  36  55  79 109 142 182 227 269 321
#     4  10  20  34  55  84 114 146 188 233 278 334
#     4   9  18  34  56  82 114 148 185 233 283 333
#
# _framework density 18.866720999999998
#
# number of rings (size 3 to 8) (size 9 to 14) (size 15 to 20)
#    0.000    2.077    0.769    2.308    0.000    6.462 
#    0.000    9.231    0.000    0.462    0.000    0.000 
#    0.000    0.000    0.000    0.000    0.000    0.000 
#
# Total GULP energy -644753.355836 kJ/mol
# GULP energy per Si atom -12399.102997 kJ/mol
# Density = 1.882378 g / cm^3
# Si number density = 18.866721 Si / 1000 Ang^3
#
#
#
# Elastic Constant Matrix: (Units=GPa)
#
#
# Indices 1 2 3 4 5 6 
#
# 1 90.2013 34.6587 38.0599 0.0000 0.0000 0.0000
# 2 34.6587 89.3280 60.2428 0.0000 0.0000 0.0000
# 3 38.0599 60.2428 96.5008 0.0000 0.0000 0.0000
# 4 0.0000 0.0000 0.0000 12.6267 0.0000 0.0000
# 5 0.0000 0.0000 0.0000 0.0000 26.6455 0.0000
# 6 0.0000 0.0000 0.0000 0.0000 0.0000 30.6948
#
#
#
# Elastic Compliance Matrix: (Units=1/GPa)
#
#
# Indices 1 2 3 4 5 6 
#
# 1 0.013719 -0.002891 -0.003606 0.000000 0.000000 0.000000
# 2 -0.002891 0.019944 -0.011310 0.000000 0.000000 0.000000
# 3 -0.003606 -0.011310 0.018846 0.000000 0.000000 0.000000
# 4 0.000000 0.000000 0.000000 0.079197 0.000000 0.000000
# 5 0.000000 0.000000 0.000000 0.000000 0.037530 0.000000
# 6 0.000000 0.000000 0.000000 0.000000 0.000000 0.032579
#
#
# Mechanical properties :
#
#
# Convention : Reuss Voigt Hill
#
# Bulk Modulus (GPa) = 59.19316 60.21701 59.70509
# Shear Modulus (GPa) = 20.57109 23.53131 22.05120
#
# Velocity S-wave (km/s) = 3.30561 3.53546 3.42246
# Velocity P-wave (km/s) = 6.78321 6.97512 6.87983
#
# Compressibility (1/GPa) = 0.01689384
#
# Stress axis : x y z
#
# Youngs Moduli (GPa) = 72.89368 50.14028 53.06302
#
# Poissons Ratio (x) = 0.14495 0.19134
# Poissons Ratio (y) = 0.21073 0.60016
# Poissons Ratio (z) = 0.26285 0.56710
#
# Static dielectric constant tensor:
#      x y z
#    x 3.619300 0.000000 0.000000 
#    y 0.000000 3.689280 0.000000 
#    z 0.000000 0.000000 3.438920 
# 
# 
# High freq. dielectric constant tensor:
#      x y z
#    x 1.748480 0.000000 0.000000 
#    y 0.000000 1.723830 0.000000 
#    z 0.000000 0.000000 1.724230 
# 
# From -- ./inp_files/76877.got.cif
#   From: 2010.03.12/outbox.cif.g09.slc.cpg/sg65_39_cif.got.tgz:76877.got - 2010.04.10 20:52:16.
