data_PCOD8271991
_publ_section_title
;
Structure prediction by ZEFSAII (Michael W. Deem and Ramdas Pophale) SiO2 
 PCOD8271991
Probable space group: C M M M
;
_chemical_formula_sum "Si O2"
_cell_formula_units_Z 72
_cell_length_a 18.228923
_cell_length_b 8.918662
_cell_length_c 22.855661
_cell_angle_alpha 90.000000
_cell_angle_beta 90.000000
_cell_angle_gamma 90.000000
_cell_volume 3715.818577
_symmetry_space_group_name_H-M "C M M M"
_symmetry_group_IT_number 65
_symmetry_cell_setting 'orthorhombic'
loop_
_space_group_symop_operation_xyz
x,y,z
-x,-y,z
x,-y,-z
-x,y,-z
-x,-y,-z
x,y,-z
-x,y,z
x,-y,z
1/2+x,1/2+y,z
1/2-x,1/2-y,z
1/2+x,1/2-y,-z
1/2-x,1/2+y,-z
1/2-x,1/2-y,-z
1/2+x,1/2+y,-z
1/2-x,1/2+y,z
1/2+x,1/2-y,z
loop_
_atom_site_type_symbol
_atom_site_label
_atom_site_fract_x
_atom_site_fract_y
_atom_site_fract_z
Si Si1 0.674737 0.824316 0.566961
Si Si2 0.413051 0.827739 0.117438
Si Si3 0.912787 0.830553 0.000000
Si Si4 0.415883 0.325668 0.662692
Si Si5 0.329156 0.322590 0.222331
O O1 0.658313 0.779652 0.500000
O O2 0.750000 0.750000 0.589090
O O3 0.607600 0.765801 0.605486
O O4 0.683293 0.000000 0.575021
O O5 0.500000 0.813114 0.122357
O O6 0.383872 0.757060 0.056924
O O7 0.378371 0.735125 0.169685
O O8 0.387646 0.000000 0.120193
O O9 0.000000 0.832654 0.000000
O O10 0.881695 0.000000 0.000000
O O11 0.500000 0.288021 0.676829
O O12 0.404424 0.500000 0.649417
O O13 0.367773 0.272896 0.717612
O O14 0.322167 0.500000 0.217555
O O15 0.250000 0.250000 0.219566
#
# Coordination Sequence:
#
# PCOD8271991 Si02
#       5
#    16  16   8  16  16
#     4  10  21  37  58  84 114 149 188 229 275 329
#     4  10  20  35  57  85 115 147 186 230 275 326
#     4   9  17  31  54  83 114 149 186 225 273 327
#     4  10  22  39  59  84 113 146 185 230 279 331
#     4  11  23  39  58  81 111 146 186 230 279 334
#
# _framework density 19.376619000000002
#
# number of rings (size 3 to 8) (size 9 to 14) (size 15 to 20)
#    0.000    1.889    0.000    3.667    0.000    9.333 
#    0.000    2.778    0.000    0.000    0.000    0.000 
#    0.000    0.000    0.000    0.000    0.000    0.000 
#
# Total GULP energy -446583.568884 kJ/mol
# GULP energy per Si atom -12405.099136 kJ/mol
# Density = 1.933252 g / cm^3
# Si number density = 19.376619 Si / 1000 Ang^3
#
#
#
# Elastic Constant Matrix: (Units=GPa)
#
#
# Indices 1 2 3 4 5 6 
#
# 1 41.0583 31.1762 30.7577 0.0000 0.0000 0.0000
# 2 31.1762 89.1308 52.2849 0.0000 0.0000 0.0000
# 3 30.7577 52.2849 123.3506 0.0000 0.0000 0.0000
# 4 0.0000 0.0000 0.0000 35.1683 0.0000 0.0000
# 5 0.0000 0.0000 0.0000 0.0000 -243.6493 0.0000
# 6 0.0000 0.0000 0.0000 0.0000 0.0000 32.3983
#
#
#
# Elastic Compliance Matrix: (Units=1/GPa)
#
#
# Indices 1 2 3 4 5 6 
#
# 1 0.035117 -0.009512 -0.004725 0.000000 0.000000 0.000000
# 2 -0.009512 0.017509 -0.005050 0.000000 0.000000 0.000000
# 3 -0.004725 -0.005050 0.011426 0.000000 0.000000 0.000000
# 4 0.000000 0.000000 0.000000 0.028435 0.000000 0.000000
# 5 0.000000 0.000000 0.000000 0.000000 -0.004104 0.000000
# 6 0.000000 0.000000 0.000000 0.000000 0.000000 0.030866
#
#
# Mechanical properties :
#
#
# Convention : Reuss Voigt Hill
#
# Bulk Modulus (GPa) = 39.24777 53.55302 46.40039
# Shear Modulus (GPa) = 30.06373 -25.92846 2.06764
#
# Velocity S-wave (km/s) = 3.94324 -3.66202 1.03412
# Velocity P-wave (km/s) = 6.40558 3.13328 5.04226
#
# Compressibility (1/GPa) = 0.02547916
#
# Stress axis : x y z
#
# Youngs Moduli (GPa) = 28.47588 57.11461 87.52335
#
# Poissons Ratio (x) = 0.54326 0.41353
# Poissons Ratio (y) = 0.27086 0.44196
# Poissons Ratio (z) = 0.13454 0.28841
#
# Static dielectric constant tensor:
#      x y z
#    x 3.395490 0.000000 0.000000 
#    y 0.000000 3.650970 0.000000 
#    z 0.000000 0.000000 3.692350 
# 
# 
# High freq. dielectric constant tensor:
#      x y z
#    x 1.741440 0.000000 0.000000 
#    y 0.000000 1.765870 0.000000 
#    z 0.000000 0.000000 1.768340 
# 
# From -- ./inp_files/64350.got.cif
#   From: 2010.03.12/outbox.cif.g09.slc.cpg/sg65_33_cif.got.tgz:64350.got - 2010.04.10 20:52:16.
