data_PCOD8271333
_publ_section_title
;
Structure prediction by ZEFSAII (Michael W. Deem and Ramdas Pophale) SiO2 
 PCOD8271333
Probable space group: C M M M
;
_chemical_formula_sum "Si O2"
_cell_formula_units_Z 104
_cell_length_a 20.986540
_cell_length_b 27.917499
_cell_length_c 9.695006
_cell_angle_alpha 90.000000
_cell_angle_beta 90.000000
_cell_angle_gamma 90.000000
_cell_volume 5680.223639
_symmetry_space_group_name_H-M "C M M M"
_symmetry_group_IT_number 65
_symmetry_cell_setting 'orthorhombic'
loop_
_space_group_symop_operation_xyz
x,y,z
-x,-y,z
x,-y,-z
-x,y,-z
-x,-y,-z
x,y,-z
-x,y,z
x,-y,z
1/2+x,1/2+y,z
1/2-x,1/2-y,z
1/2+x,1/2-y,-z
1/2-x,1/2+y,-z
1/2-x,1/2-y,-z
1/2+x,1/2+y,-z
1/2-x,1/2+y,z
1/2+x,1/2-y,z
loop_
_atom_site_type_symbol
_atom_site_label
_atom_site_fract_x
_atom_site_fract_y
_atom_site_fract_z
Si Si1 0.500000 0.446222 0.837672
Si Si2 0.664378 0.946601 0.843436
Si Si3 0.400505 0.632457 0.161994
Si Si4 0.570608 0.721542 0.342739
Si Si5 0.427723 0.897413 0.657933
Si Si6 0.746016 0.639381 0.839774
Si Si7 0.840067 0.692685 0.340535
O O1 0.500000 0.500000 0.770626
O O2 0.436589 0.416551 0.793243
O O3 0.500000 0.452546 0.000000
O O4 0.602558 0.939487 0.748824
O O5 0.719992 0.910282 0.801063
O O6 0.691358 0.000000 0.822321
O O7 0.642716 0.937696 0.000000
O O8 0.430874 0.676037 0.244271
O O9 0.326540 0.629970 0.202065
O O10 0.410613 0.641904 0.000000
O O11 0.584537 0.705632 0.500000
O O12 0.500000 0.745504 0.334454
O O13 0.625471 0.758360 0.293889
O O14 0.422353 0.913387 0.500000
O O15 0.500000 0.889766 0.703985
O O16 0.391594 0.848202 0.686530
O O17 0.777017 0.682794 0.751201
O O18 0.753308 0.652965 0.000000
O O19 0.818953 0.694747 0.500000
#
# Coordination Sequence:
#
# PCOD8271333 Si02
#       7
#     8  16  16  16  16  16  16
#     4   9  18  34  57  83 107 133 171 217 262 311
#     4   9  18  32  48  67  94 128 165 205 251 302
#     4  10  20  35  55  79 106 133 166 210 258 306
#     4  10  20  34  54  78 105 137 172 210 253 303
#     4   9  17  30  48  69  95 127 166 211 251 290
#     4   9  19  34  51  73 102 134 168 210 257 305
#     4   9  18  33  52  74 100 135 175 210 247 297
#
# _framework density 18.309138000000001
#
# number of rings (size 3 to 8) (size 9 to 14) (size 15 to 20)
#    0.000    2.692    0.769    0.462    0.000    5.231 
#    0.000    7.692    0.000    3.692    0.000    2.154 
#    0.000    0.000    0.000    0.000    0.000    0.000 
#
# Total GULP energy -644671.558009 kJ/mol
# GULP energy per Si atom -12397.529962 kJ/mol
# Density = 1.826747 g / cm^3
# Si number density = 18.309138 Si / 1000 Ang^3
#
#
#
# Elastic Constant Matrix: (Units=GPa)
#
#
# Indices 1 2 3 4 5 6 
#
# 1 135.6118 50.4633 45.0434 0.0000 0.0000 0.0000
# 2 50.4633 110.5168 40.7821 0.0000 0.0000 0.0000
# 3 45.0434 40.7821 49.9374 0.0000 0.0000 0.0000
# 4 0.0000 0.0000 0.0000 24.8671 0.0000 0.0000
# 5 0.0000 0.0000 0.0000 0.0000 23.8777 0.0000
# 6 0.0000 0.0000 0.0000 0.0000 0.0000 23.0930
#
#
#
# Elastic Compliance Matrix: (Units=1/GPa)
#
#
# Indices 1 2 3 4 5 6 
#
# 1 0.010804 -0.001914 -0.008182 0.000000 0.000000 0.000000
# 2 -0.001914 0.013290 -0.009128 0.000000 0.000000 0.000000
# 3 -0.008182 -0.009128 0.034859 0.000000 0.000000 0.000000
# 4 0.000000 0.000000 0.000000 0.040214 0.000000 0.000000
# 5 0.000000 0.000000 0.000000 0.000000 0.041880 0.000000
# 6 0.000000 0.000000 0.000000 0.000000 0.000000 0.043303
#
#
# Mechanical properties :
#
#
# Convention : Reuss Voigt Hill
#
# Bulk Modulus (GPa) = 48.76438 63.18261 55.97349
# Shear Modulus (GPa) = 21.77388 25.01938 23.39663
#
# Velocity S-wave (km/s) = 3.45227 3.70063 3.57860
# Velocity P-wave (km/s) = 6.52554 7.26933 6.90745
#
# Compressibility (1/GPa) = 0.02050677
#
# Stress axis : x y z
#
# Youngs Moduli (GPa) = 92.55978 75.24181 28.68675
#
# Poissons Ratio (x) = 0.14401 0.23471
# Poissons Ratio (y) = 0.17715 0.26184
# Poissons Ratio (z) = 0.75732 0.68677
#
# Static dielectric constant tensor:
#      x y z
#    x 3.505750 0.000000 0.000000 
#    y 0.000000 3.409560 0.000000 
#    z 0.000000 0.000000 3.305400 
# 
# 
# High freq. dielectric constant tensor:
#      x y z
#    x 1.715720 0.000000 0.000000 
#    y 0.000000 1.702890 0.000000 
#    z 0.000000 0.000000 1.695780 
# 
# From -- ./inp_files/12454.got.cif
#   From: 2010.03.12/outbox.cif.g09.slc.cpg/sg65_7_cif.got.tgz:12454.got - 2010.04.10 20:52:16.
