data_PCOD8271028
_publ_section_title
;
Structure prediction by ZEFSAII (Michael W. Deem and Ramdas Pophale) SiO2 
 PCOD8271028
Probable space group: C M M M
;
_chemical_formula_sum "Si O2"
_cell_formula_units_Z 96
_cell_length_a 9.220743
_cell_length_b 18.223616
_cell_length_c 30.877320
_cell_angle_alpha 90.000000
_cell_angle_beta 90.000000
_cell_angle_gamma 90.000000
_cell_volume 5188.479102
_symmetry_space_group_name_H-M "C M M M"
_symmetry_group_IT_number 65
_symmetry_cell_setting 'orthorhombic'
loop_
_space_group_symop_operation_xyz
x,y,z
-x,-y,z
x,-y,-z
-x,y,-z
-x,-y,-z
x,y,-z
-x,y,z
x,-y,z
1/2+x,1/2+y,z
1/2-x,1/2-y,z
1/2+x,1/2-y,-z
1/2-x,1/2+y,-z
1/2-x,1/2-y,-z
1/2+x,1/2+y,-z
1/2-x,1/2+y,z
1/2+x,1/2-y,z
loop_
_atom_site_type_symbol
_atom_site_label
_atom_site_fract_x
_atom_site_fract_y
_atom_site_fract_z
Si Si1 0.663705 0.412801 0.547341
Si Si2 0.171764 0.418056 0.203674
Si Si3 0.834171 0.915473 0.050266
Si Si4 0.827903 0.672868 0.713884
Si Si5 0.170186 0.416227 0.629893
Si Si6 0.827851 0.673137 0.120403
O O1 0.718822 0.384717 0.500000
O O2 0.500000 0.385827 0.554923
O O3 0.671759 0.500000 0.547748
O O4 0.760833 0.381401 0.586364
O O5 0.238660 0.500000 0.204000
O O6 0.228595 0.374125 0.245378
O O7 0.222319 0.377496 0.160240
O O8 0.000000 0.423054 0.205519
O O9 0.723944 0.864542 0.076260
O O10 0.000000 0.897796 0.063358
O O11 0.798074 0.000000 0.060276
O O12 0.809753 0.898215 0.000000
O O13 0.750000 0.750000 0.715360
O O14 0.778015 0.630779 0.670746
O O15 0.000000 0.684350 0.715423
O O16 0.221263 0.500000 0.637429
O O17 0.000000 0.412304 0.623849
O O18 0.750000 0.750000 0.126671
O O19 0.000000 0.684528 0.118748
#
# Coordination Sequence:
#
# PCOD8271028 Si02
#       6
#    16  16  16  16  16  16
#     4   8  14  25  42  66  96 127 157 194 244 295
#     4   9  18  34  56  79 102 131 169 211 254 302
#     4   9  19  37  59  81 107 140 177 219 267 314
#     4  10  20  34  52  73 100 132 164 201 246 297
#     4   9  17  29  47  71  96 125 163 203 242 286
#     4  11  22  35  54  80 110 143 178 216 259 308
#
# _framework density 18.502533
#
# number of rings (size 3 to 8) (size 9 to 14) (size 15 to 20)
#    0.000    2.667    0.000    3.000    0.000    4.667 
#    0.000    3.333    0.000    4.000    0.000    0.000 
#    0.000    0.000    0.000    0.000    0.000    0.000 
#
# Total GULP energy -595139.156495 kJ/mol
# GULP energy per Si atom -12398.732427 kJ/mol
# Density = 1.846042 g / cm^3
# Si number density = 18.502533 Si / 1000 Ang^3
#
#
#
# Elastic Constant Matrix: (Units=GPa)
#
#
# Indices 1 2 3 4 5 6 
#
# 1 50.2728 45.0720 49.8033 0.0000 0.0000 0.0000
# 2 45.0720 125.4255 78.0744 0.0000 0.0000 0.0000
# 3 49.8033 78.0744 151.0903 0.0000 0.0000 0.0000
# 4 0.0000 0.0000 0.0000 8.9327 0.0000 0.0000
# 5 0.0000 0.0000 0.0000 0.0000 25.1561 0.0000
# 6 0.0000 0.0000 0.0000 0.0000 0.0000 21.2524
#
#
#
# Elastic Compliance Matrix: (Units=1/GPa)
#
#
# Indices 1 2 3 4 5 6 
#
# 1 0.033942 -0.007714 -0.007202 0.000000 0.000000 0.000000
# 2 -0.007714 0.013507 -0.004437 0.000000 0.000000 0.000000
# 3 -0.007202 -0.004437 0.011285 0.000000 0.000000 0.000000
# 4 0.000000 0.000000 0.000000 0.111949 0.000000 0.000000
# 5 0.000000 0.000000 0.000000 0.000000 0.039752 0.000000
# 6 0.000000 0.000000 0.000000 0.000000 0.000000 0.047054
#
#
# Mechanical properties :
#
#
# Convention : Reuss Voigt Hill
#
# Bulk Modulus (GPa) = 49.92902 74.74310 62.33606
# Shear Modulus (GPa) = 16.50872 21.32415 18.91643
#
# Velocity S-wave (km/s) = 2.99028 3.39853 3.20092
# Velocity P-wave (km/s) = 6.24227 7.47555 6.88657
#
# Compressibility (1/GPa) = 0.02002843
#
# Stress axis : x y z
#
# Youngs Moduli (GPa) = 29.46165 74.03734 88.61211
#
# Poissons Ratio (x) = 0.57114 0.63819
# Poissons Ratio (y) = 0.22727 0.39314
# Poissons Ratio (z) = 0.21218 0.32848
#
# Static dielectric constant tensor:
#      x y z
#    x 3.204080 0.000000 0.000000 
#    y 0.000000 3.308470 0.000000 
#    z 0.000000 0.000000 3.736110 
# 
# 
# High freq. dielectric constant tensor:
#      x y z
#    x 1.695690 0.000000 0.000000 
#    y 0.000000 1.703230 0.000000 
#    z 0.000000 0.000000 1.736230 
# 
# From -- ./inp_files/73169.got.cif
#   From: 2010.03.12/outbox.cif.g09.slc.cpg/sg65_37_cif.got.tgz:73169.got - 2010.04.10 20:52:16.
