data_PCOD8271141
_publ_section_title
;
Structure prediction by ZEFSAII (Michael W. Deem and Ramdas Pophale) SiO2 
 PCOD8271141
Probable space group: C M M M
;
_chemical_formula_sum "Si O2"
_cell_formula_units_Z 104
_cell_length_a 23.965500
_cell_length_b 26.426539
_cell_length_c 9.062042
_cell_angle_alpha 90.000000
_cell_angle_beta 90.000000
_cell_angle_gamma 90.000000
_cell_volume 5739.219747
_symmetry_space_group_name_H-M "C M M M"
_symmetry_group_IT_number 65
_symmetry_cell_setting 'orthorhombic'
loop_
_space_group_symop_operation_xyz
x,y,z
-x,-y,z
x,-y,-z
-x,y,-z
-x,-y,-z
x,y,-z
-x,y,z
x,-y,z
1/2+x,1/2+y,z
1/2-x,1/2-y,z
1/2+x,1/2-y,-z
1/2-x,1/2+y,-z
1/2-x,1/2-y,-z
1/2+x,1/2+y,-z
1/2-x,1/2+y,z
1/2+x,1/2-y,z
loop_
_atom_site_type_symbol
_atom_site_label
_atom_site_fract_x
_atom_site_fract_y
_atom_site_fract_z
Si Si1 0.354854 0.790108 0.174501
Si Si2 0.842809 0.173935 0.829863
Si Si3 0.435774 0.137195 0.325763
Si Si4 0.847289 0.556080 0.326590
Si Si5 0.066483 0.000000 0.334437
Si Si6 0.562681 0.402655 0.830158
Si Si7 0.765392 0.642213 0.325813
O O1 0.351850 0.731501 0.217793
O O2 0.410943 0.813823 0.243716
O O3 0.299916 0.814559 0.243448
O O4 0.355568 0.798616 0.000000
O O5 0.901632 0.147206 0.800579
O O6 0.797680 0.145357 0.729477
O O7 0.823938 0.169820 0.000000
O O8 0.428457 0.145674 0.500000
O O9 0.500000 0.130032 0.280509
O O10 0.401785 0.087350 0.272991
O O11 0.851061 0.549265 0.500000
O O12 0.845967 0.500000 0.252370
O O13 0.791406 0.587304 0.284647
O O14 0.089721 0.949712 0.256795
O O15 0.088942 0.000000 0.500000
O O16 0.000000 0.000000 0.323522
O O17 0.500000 0.390635 0.775238
O O18 0.562811 0.418474 0.000000
O O19 0.768874 0.651886 0.500000
#
# Coordination Sequence:
#
# PCOD8271141 Si02
#       7
#    16  16  16  16   8  16  16
#     4  10  20  34  53  74 101 138 175 213 256 304
#     4  10  21  35  52  76 102 130 171 216 256 305
#     4   9  18  32  51  78 108 137 173 215 259 309
#     4   8  15  30  51  74 102 135 171 210 252 301
#     4   9  17  31  51  73  97 125 159 199 242 289
#     4   9  18  34  54  73  97 131 168 205 249 304
#     4  10  20  34  53  76 102 134 171 212 261 312
#
# _framework density 18.120930999999999
#
# number of rings (size 3 to 8) (size 9 to 14) (size 15 to 20)
#    0.000    2.692    0.000    2.538    0.000    5.846 
#    1.385    3.077    0.000   12.923    0.000    4.308 
#    0.000    0.000    0.000    0.000    0.000    0.000 
#
# Total GULP energy -644741.348119 kJ/mol
# GULP energy per Si atom -12398.872079 kJ/mol
# Density = 1.807969 g / cm^3
# Si number density = 18.120931 Si / 1000 Ang^3
#
#
#
# Elastic Constant Matrix: (Units=GPa)
#
#
# Indices 1 2 3 4 5 6 
#
# 1 110.7159 69.7480 38.1082 0.0000 0.0000 0.0000
# 2 69.7480 131.9581 39.5896 0.0000 0.0000 0.0000
# 3 38.1082 39.5896 56.0335 0.0000 0.0000 0.0000
# 4 0.0000 0.0000 0.0000 21.1864 0.0000 0.0000
# 5 0.0000 0.0000 0.0000 0.0000 27.7093 0.0000
# 6 0.0000 0.0000 0.0000 0.0000 0.0000 16.2272
#
#
#
# Elastic Compliance Matrix: (Units=1/GPa)
#
#
# Indices 1 2 3 4 5 6 
#
# 1 0.014889 -0.006132 -0.005794 0.000000 0.000000 0.000000
# 2 -0.006132 0.012142 -0.004408 0.000000 0.000000 0.000000
# 3 -0.005794 -0.004408 0.024902 0.000000 0.000000 0.000000
# 4 0.000000 0.000000 0.000000 0.047200 0.000000 0.000000
# 5 0.000000 0.000000 0.000000 0.000000 0.036089 0.000000
# 6 0.000000 0.000000 0.000000 0.000000 0.000000 0.061625
#
#
# Mechanical properties :
#
#
# Convention : Reuss Voigt Hill
#
# Bulk Modulus (GPa) = 51.90872 65.95544 58.93208
# Shear Modulus (GPa) = 21.19223 23.10869 22.15046
#
# Velocity S-wave (km/s) = 3.42349 3.57494 3.50003
# Velocity P-wave (km/s) = 6.65845 7.31551 6.99470
#
# Compressibility (1/GPa) = 0.01926459
#
# Stress axis : x y z
#
# Youngs Moduli (GPa) = 67.16339 82.36095 40.15810
#
# Poissons Ratio (x) = 0.50500 0.23267
# Poissons Ratio (y) = 0.41182 0.17704
# Poissons Ratio (z) = 0.38914 0.36309
#
# Static dielectric constant tensor:
#      x y z
#    x 3.324070 0.000000 0.000000 
#    y 0.000000 3.539920 0.000000 
#    z 0.000000 0.000000 3.245920 
# 
# 
# High freq. dielectric constant tensor:
#      x y z
#    x 1.695120 0.000000 0.000000 
#    y 0.000000 1.706360 0.000000 
#    z 0.000000 0.000000 1.688590 
# 
# From -- ./inp_files/14807.got.cif
#   From: 2010.03.12/outbox.cif.g09.slc.cpg/sg65_8_cif.got.tgz:14807.got - 2010.04.10 20:52:16.
