data_PCOD8271687
_publ_section_title
;
Structure prediction by ZEFSAII (Michael W. Deem and Ramdas Pophale) SiO2 
 PCOD8271687
Probable space group: C M M M
;
_chemical_formula_sum "Si O2"
_cell_formula_units_Z 104
_cell_length_a 25.716116
_cell_length_b 8.845225
_cell_length_c 25.911748
_cell_angle_alpha 90.000000
_cell_angle_beta 90.000000
_cell_angle_gamma 90.000000
_cell_volume 5894.011409
_symmetry_space_group_name_H-M "C M M M"
_symmetry_group_IT_number 65
_symmetry_cell_setting 'orthorhombic'
loop_
_space_group_symop_operation_xyz
x,y,z
-x,-y,z
x,-y,-z
-x,y,-z
-x,-y,-z
x,y,-z
-x,y,z
x,-y,z
1/2+x,1/2+y,z
1/2-x,1/2-y,z
1/2+x,1/2-y,-z
1/2-x,1/2+y,-z
1/2-x,1/2-y,-z
1/2+x,1/2+y,-z
1/2-x,1/2+y,z
1/2+x,1/2-y,z
loop_
_atom_site_type_symbol
_atom_site_label
_atom_site_fract_x
_atom_site_fract_y
_atom_site_fract_z
Si Si1 0.403290 0.321617 0.713130
Si Si2 0.197141 0.676231 0.881739
Si Si3 0.058789 0.823912 0.397945
Si Si4 0.438306 0.171658 0.500000
Si Si5 0.000000 0.822450 0.117096
Si Si6 0.594434 0.175139 0.939261
Si Si7 0.500000 0.820379 0.228443
Si Si8 0.695904 0.821073 0.763242
O O1 0.406563 0.500000 0.723490
O O2 0.408397 0.283174 0.652671
O O3 0.448775 0.242826 0.744805
O O4 0.348459 0.255669 0.729719
O O5 0.205335 0.500000 0.887239
O O6 0.250000 0.750000 0.902645
O O7 0.149131 0.731789 0.916228
O O8 0.185877 0.722428 0.822740
O O9 0.084703 0.745662 0.447941
O O10 0.000000 0.765178 0.388747
O O11 0.058661 0.000000 0.409227
O O12 0.500000 0.195596 0.500000
O O13 0.420847 0.000000 0.500000
O O14 0.050278 0.780371 0.084043
O O15 0.000000 0.727880 0.169289
O O16 0.000000 0.000000 0.129378
O O17 0.583766 0.000000 0.924674
O O18 0.595809 0.198474 0.000000
O O19 0.500000 0.000000 0.232136
O O20 0.750000 0.750000 0.744280
O O21 0.696204 0.000000 0.754419
#
# Coordination Sequence:
#
# PCOD8271687 Si02
#       8
#    16  16  16   8   8  16   8  16
#     4  11  21  35  54  80 111 142 179 224 269 318
#     4   9  19  35  55  78 104 133 169 210 258 312
#     4   9  17  31  48  69 103 144 179 214 264 318
#     4   9  17  27  43  69 100 137 182 225 259 302
#     4  12  25  39  56  77 103 137 178 221 260 305
#     4  10  21  38  58  79 106 139 172 209 258 316
#     4  12  24  37  55  79 109 143 176 213 265 327
#     4  10  20  35  54  77 105 142 183 224 268 317
#
# _framework density 17.645028
#
# number of rings (size 3 to 8) (size 9 to 14) (size 15 to 20)
#    0.000    1.923    0.769    3.692    0.000    6.154 
#    0.000    0.000    0.000    0.000    0.000    0.538 
#    0.000    0.000    0.000    0.000    0.000    0.000 
#
# Total GULP energy -644934.656530 kJ/mol
# GULP energy per Si atom -12402.589549 kJ/mol
# Density = 1.760487 g / cm^3
# Si number density = 17.645028 Si / 1000 Ang^3
#
#
#
# Elastic Constant Matrix: (Units=GPa)
#
#
# Indices 1 2 3 4 5 6 
#
# 1 127.0561 53.5630 68.6403 0.0000 0.0000 0.0000
# 2 53.5630 83.5281 55.0919 0.0000 0.0000 0.0000
# 3 68.6403 55.0919 117.9405 0.0000 0.0000 0.0000
# 4 0.0000 0.0000 0.0000 25.8808 0.0000 0.0000
# 5 0.0000 0.0000 0.0000 0.0000 43.7739 0.0000
# 6 0.0000 0.0000 0.0000 0.0000 0.0000 27.7168
#
#
#
# Elastic Compliance Matrix: (Units=1/GPa)
#
#
# Indices 1 2 3 4 5 6 
#
# 1 0.012641 -0.004702 -0.005160 0.000000 0.000000 0.000000
# 2 -0.004702 0.019052 -0.006163 0.000000 0.000000 0.000000
# 3 -0.005160 -0.006163 0.014361 0.000000 0.000000 0.000000
# 4 0.000000 0.000000 0.000000 0.038639 0.000000 0.000000
# 5 0.000000 0.000000 0.000000 0.000000 0.022845 0.000000
# 6 0.000000 0.000000 0.000000 0.000000 0.000000 0.036079
#
#
# Mechanical properties :
#
#
# Convention : Reuss Voigt Hill
#
# Bulk Modulus (GPa) = 71.41429 75.90167 73.65798
# Shear Modulus (GPa) = 27.72621 29.55625 28.64123
#
# Velocity S-wave (km/s) = 3.96830 4.09717 4.03325
# Velocity P-wave (km/s) = 7.84584 8.09270 7.97022
#
# Compressibility (1/GPa) = 0.01400280
#
# Stress axis : x y z
#
# Youngs Moduli (GPa) = 79.10976 52.48720 69.63413
#
# Poissons Ratio (x) = 0.24682 0.35932
# Poissons Ratio (y) = 0.37201 0.42914
# Poissons Ratio (z) = 0.40822 0.32347
#
# Static dielectric constant tensor:
#      x y z
#    x 2.888400 0.000000 0.000000 
#    y 0.000000 3.316880 0.000000 
#    z 0.000000 0.000000 3.405120 
# 
# 
# High freq. dielectric constant tensor:
#      x y z
#    x 1.667550 0.000000 0.000000 
#    y 0.000000 1.688490 0.000000 
#    z 0.000000 0.000000 1.685740 
# 
# From -- ./inp_files/71901.got.cif
#   From: 2010.03.12/outbox.cif.g09.slc.cpg/sg65_36_cif.got.tgz:71901.got - 2010.04.10 20:52:16.
