data_PCOD8271025
_publ_section_title
;
Structure prediction by ZEFSAII (Michael W. Deem and Ramdas Pophale) SiO2 
 PCOD8271025
Probable space group: C M M M
;
_chemical_formula_sum "Si O2"
_cell_formula_units_Z 88
_cell_length_a 17.981429
_cell_length_b 30.383712
_cell_length_c 8.711357
_cell_angle_alpha 90.000000
_cell_angle_beta 90.000000
_cell_angle_gamma 90.000000
_cell_volume 4759.385085
_symmetry_space_group_name_H-M "C M M M"
_symmetry_group_IT_number 65
_symmetry_cell_setting 'orthorhombic'
loop_
_space_group_symop_operation_xyz
x,y,z
-x,-y,z
x,-y,-z
-x,y,-z
-x,-y,-z
x,y,-z
-x,y,z
x,-y,z
1/2+x,1/2+y,z
1/2-x,1/2-y,z
1/2+x,1/2-y,-z
1/2-x,1/2+y,-z
1/2-x,1/2-y,-z
1/2+x,1/2+y,-z
1/2-x,1/2+y,z
1/2+x,1/2-y,z
loop_
_atom_site_type_symbol
_atom_site_label
_atom_site_fract_x
_atom_site_fract_y
_atom_site_fract_z
Si Si1 0.263303 0.699672 0.317794
Si Si2 0.651385 0.420271 0.327568
Si Si3 0.080165 0.000000 0.176714
Si Si4 0.913174 0.449834 0.679132
Si Si5 0.701596 0.116676 0.818299
Si Si6 0.580246 0.330344 0.325554
O O1 0.260506 0.690118 0.500000
O O2 0.250000 0.750000 0.276430
O O3 0.201385 0.668190 0.236572
O O4 0.346380 0.690812 0.248638
O O5 0.659551 0.438383 0.500000
O O6 0.628101 0.458109 0.215042
O O7 0.730544 0.403936 0.272456
O O8 0.588902 0.382814 0.319504
O O9 0.000000 0.000000 0.263501
O O10 0.064197 0.000000 0.000000
O O11 0.896722 0.442882 0.500000
O O12 0.889137 0.500000 0.726599
O O13 0.871008 0.411710 0.773894
O O14 0.000000 0.443614 0.714754
O O15 0.712326 0.114765 0.000000
O O16 0.577038 0.313562 0.500000
O O17 0.500000 0.318171 0.246654
#
# Coordination Sequence:
#
# PCOD8271025 Si02
#       6
#    16  16   8  16  16  16
#     4   9  18  34  55  78 106 140 182 230 277 331
#     4  10  20  34  52  72  98 137 183 224 259 308
#     4  11  23  35  47  71 108 141 172 217 269 311
#     4   9  19  37  60  83 108 142 186 233 278 328
#     4  11  22  35  54  80 111 143 177 222 277 336
#     4   8  14  27  49  74  96 123 168 221 265 305
#
# _framework density 18.489782999999999
#
# number of rings (size 3 to 8) (size 9 to 14) (size 15 to 20)
#    0.000    2.455    0.000    4.636    1.273    2.545 
#    0.000    1.818    0.000    8.182    0.000    0.000 
#    0.000    0.000    0.000    0.000    0.000    0.000 
#
# Total GULP energy -545181.982526 kJ/mol
# GULP energy per Si atom -12390.499603 kJ/mol
# Density = 1.844770 g / cm^3
# Si number density = 18.489783 Si / 1000 Ang^3
#
#
#
# Elastic Constant Matrix: (Units=GPa)
#
#
# Indices 1 2 3 4 5 6 
#
# 1 83.8982 44.8304 18.3859 0.0000 0.0000 0.0000
# 2 44.8304 115.9099 24.9788 0.0000 0.0000 0.0000
# 3 18.3859 24.9788 58.6471 0.0000 0.0000 0.0000
# 4 0.0000 0.0000 0.0000 7.4707 0.0000 0.0000
# 5 0.0000 0.0000 0.0000 0.0000 16.7274 0.0000
# 6 0.0000 0.0000 0.0000 0.0000 0.0000 23.5566
#
#
#
# Elastic Compliance Matrix: (Units=1/GPa)
#
#
# Indices 1 2 3 4 5 6 
#
# 1 0.015354 -0.005396 -0.002515 0.000000 0.000000 0.000000
# 2 -0.005396 0.011396 -0.003162 0.000000 0.000000 0.000000
# 3 -0.002515 -0.003162 0.019186 0.000000 0.000000 0.000000
# 4 0.000000 0.000000 0.000000 0.133856 0.000000 0.000000
# 5 0.000000 0.000000 0.000000 0.000000 0.059782 0.000000
# 6 0.000000 0.000000 0.000000 0.000000 0.000000 0.042451
#
#
# Mechanical properties :
#
#
# Convention : Reuss Voigt Hill
#
# Bulk Modulus (GPa) = 42.03554 48.31616 45.17585
# Shear Modulus (GPa) = 16.02042 20.90163 18.46102
#
# Velocity S-wave (km/s) = 2.94674 3.36585 3.16325
# Velocity P-wave (km/s) = 5.86187 6.42598 6.15040
#
# Compressibility (1/GPa) = 0.02378939
#
# Stress axis : x y z
#
# Youngs Moduli (GPa) = 65.13006 87.75037 52.12041
#
# Poissons Ratio (x) = 0.47354 0.13108
# Poissons Ratio (y) = 0.35147 0.16480
# Poissons Ratio (z) = 0.16380 0.27746
#
# Static dielectric constant tensor:
#      x y z
#    x 3.504370 0.000000 0.000000 
#    y 0.000000 3.518760 0.000000 
#    z 0.000000 0.000000 3.188050 
# 
# 
# High freq. dielectric constant tensor:
#      x y z
#    x 1.719060 0.000000 0.000000 
#    y 0.000000 1.710960 0.000000 
#    z 0.000000 0.000000 1.694330 
# 
# From -- ./inp_files/10039.got.cif
#   From: 2010.03.12/outbox.cif.g09.slc.cpg/sg65_6_cif.got.tgz:10039.got - 2010.04.10 20:52:16.
