data_PCOD8271218
_publ_section_title
;
Structure prediction by ZEFSAII (Michael W. Deem and Ramdas Pophale) SiO2 
 PCOD8271218
Probable space group: C M M M
;
_chemical_formula_sum "Si O2"
_cell_formula_units_Z 80
_cell_length_a 19.726153
_cell_length_b 8.073653
_cell_length_c 26.807324
_cell_angle_alpha 90.000000
_cell_angle_beta 90.000000
_cell_angle_gamma 90.000000
_cell_volume 4269.391100
_symmetry_space_group_name_H-M "C M M M"
_symmetry_group_IT_number 65
_symmetry_cell_setting 'orthorhombic'
loop_
_space_group_symop_operation_xyz
x,y,z
-x,-y,z
x,-y,-z
-x,y,-z
-x,-y,-z
x,y,-z
-x,y,z
x,-y,z
1/2+x,1/2+y,z
1/2-x,1/2-y,z
1/2+x,1/2-y,-z
1/2-x,1/2+y,-z
1/2-x,1/2-y,-z
1/2+x,1/2+y,-z
1/2-x,1/2+y,z
1/2+x,1/2-y,z
loop_
_atom_site_type_symbol
_atom_site_label
_atom_site_fract_x
_atom_site_fract_y
_atom_site_fract_z
Si Si1 0.919748 0.311960 0.000000
Si Si2 0.419686 0.000000 0.555696
Si Si3 0.421008 0.688071 0.379065
Si Si4 0.922984 0.808442 0.104955
Si Si5 0.320617 0.810904 0.184950
Si Si6 0.175829 0.696648 0.295925
O O1 0.891514 0.225162 0.050027
O O2 0.895057 0.500000 0.000000
O O3 0.000000 0.293528 0.000000
O O4 0.394998 0.830117 0.582560
O O5 0.500000 0.000000 0.553078
O O6 0.388688 0.000000 0.500000
O O7 0.500000 0.715400 0.367215
O O8 0.408952 0.500000 0.399964
O O9 0.380642 0.709689 0.327851
O O10 0.881554 0.714876 0.146983
O O11 0.000000 0.741657 0.107265
O O12 0.919206 0.000000 0.117080
O O13 0.250000 0.750000 0.160887
O O14 0.334228 0.732137 0.239460
O O15 0.311165 0.000000 0.196239
O O16 0.165554 0.500000 0.300745
O O17 0.250000 0.750000 0.315400
#
# Coordination Sequence:
#
# PCOD8271218 Si02
#       6
#     8   8  16  16  16  16
#     4   9  17  31  52  75 100 131 172 215 259 319
#     4   9  18  34  56  82 114 148 183 226 274 322
#     4  10  20  34  55  84 114 145 185 229 272 321
#     4  10  20  34  53  77 105 137 173 216 265 315
#     4  10  21  36  54  76 106 140 177 219 265 319
#     4  10  20  35  55  79 107 144 184 223 271 327
#
# _framework density 18.738036000000001
#
# number of rings (size 3 to 8) (size 9 to 14) (size 15 to 20)
#    0.000    2.200    1.000    2.100    0.000    6.000 
#    0.000    6.500    0.000    0.600    0.000    0.000 
#    0.000    0.000    0.000    0.000    0.000    0.000 
#
# Total GULP energy -495870.400411 kJ/mol
# GULP energy per Si atom -12396.760010 kJ/mol
# Density = 1.869539 g / cm^3
# Si number density = 18.738036 Si / 1000 Ang^3
#
#
#
# Elastic Constant Matrix: (Units=GPa)
#
#
# Indices 1 2 3 4 5 6 
#
# 1 65.1732 26.7384 51.6304 0.0000 0.0000 0.0000
# 2 26.7384 94.1558 40.5881 0.0000 0.0000 0.0000
# 3 51.6304 40.5881 118.1741 0.0000 0.0000 0.0000
# 4 0.0000 0.0000 0.0000 24.6985 0.0000 0.0000
# 5 0.0000 0.0000 0.0000 0.0000 4.0469 0.0000
# 6 0.0000 0.0000 0.0000 0.0000 0.0000 27.1750
#
#
#
# Elastic Compliance Matrix: (Units=1/GPa)
#
#
# Indices 1 2 3 4 5 6 
#
# 1 0.024036 -0.002698 -0.009574 0.000000 0.000000 0.000000
# 2 -0.002698 0.012769 -0.003207 0.000000 0.000000 0.000000
# 3 -0.009574 -0.003207 0.013747 0.000000 0.000000 0.000000
# 4 0.000000 0.000000 0.000000 0.040488 0.000000 0.000000
# 5 0.000000 0.000000 0.000000 0.000000 0.247103 0.000000
# 6 0.000000 0.000000 0.000000 0.000000 0.000000 0.036799
#
#
# Mechanical properties :
#
#
# Convention : Reuss Voigt Hill
#
# Bulk Modulus (GPa) = 51.04035 57.26853 54.15444
# Shear Modulus (GPa) = 12.12323 21.75383 16.93853
#
# Velocity S-wave (km/s) = 2.54635 3.41096 3.00986
# Velocity P-wave (km/s) = 5.99527 6.79279 6.40645
#
# Compressibility (1/GPa) = 0.01959234
#
# Stress axis : x y z
#
# Youngs Moduli (GPa) = 41.60480 78.31244 72.74530
#
# Poissons Ratio (x) = 0.21132 0.69649
# Poissons Ratio (y) = 0.11227 0.23328
# Poissons Ratio (z) = 0.39834 0.25114
#
# Static dielectric constant tensor:
#      x y z
#    x 3.175640 0.000000 0.000000 
#    y 0.000000 3.580630 0.000000 
#    z 0.000000 0.000000 3.524600 
# 
# 
# High freq. dielectric constant tensor:
#      x y z
#    x 1.698970 0.000000 0.000000 
#    y 0.000000 1.742080 0.000000 
#    z 0.000000 0.000000 1.723880 
# 
# From -- ./inp_files/72901.got.cif
#   From: 2010.03.12/outbox.cif.g09.slc.cpg/sg65_37_cif.got.tgz:72901.got - 2010.04.10 20:52:16.
