data_PCOD8271375
_publ_section_title
;
Structure prediction by ZEFSAII (Michael W. Deem and Ramdas Pophale) SiO2 
 PCOD8271375
Probable space group: C M M M
;
_chemical_formula_sum "Si O2"
_cell_formula_units_Z 72
_cell_length_a 8.750631
_cell_length_b 29.030281
_cell_length_c 14.460306
_cell_angle_alpha 90.000000
_cell_angle_beta 90.000000
_cell_angle_gamma 90.000000
_cell_volume 3673.398918
_symmetry_space_group_name_H-M "C M M M"
_symmetry_group_IT_number 65
_symmetry_cell_setting 'orthorhombic'
loop_
_space_group_symop_operation_xyz
x,y,z
-x,-y,z
x,-y,-z
-x,y,-z
-x,-y,-z
x,y,-z
-x,y,z
x,-y,z
1/2+x,1/2+y,z
1/2-x,1/2-y,z
1/2+x,1/2-y,-z
1/2-x,1/2+y,-z
1/2-x,1/2-y,-z
1/2+x,1/2+y,-z
1/2-x,1/2+y,z
1/2+x,1/2-y,z
loop_
_atom_site_type_symbol
_atom_site_label
_atom_site_fract_x
_atom_site_fract_y
_atom_site_fract_z
Si Si1 0.181536 0.551646 0.500000
Si Si2 0.820920 0.382830 0.337405
Si Si3 0.819443 0.552183 0.000000
Si Si4 0.179270 0.120581 0.138298
Si Si5 0.321059 0.699151 0.000000
Si Si6 0.668127 0.293460 0.393970
O O1 0.248417 0.500000 0.500000
O O2 0.237274 0.576789 0.406173
O O3 0.000000 0.551942 0.500000
O O4 0.724092 0.382150 0.244458
O O5 0.784870 0.335484 0.388319
O O6 0.000000 0.387270 0.315487
O O7 0.760524 0.577451 0.091161
O O8 0.757605 0.500000 0.000000
O O9 0.000000 0.553104 0.000000
O O10 0.229338 0.169209 0.090547
O O11 0.000000 0.114247 0.125393
O O12 0.250000 0.750000 0.000000
O O13 0.500000 0.707229 0.000000
O O14 0.640253 0.281209 0.500000
O O15 0.500000 0.303028 0.348201
O O16 0.750000 0.250000 0.344110
#
# Coordination Sequence:
#
# PCOD8271375 Si02
#       6
#     8  16   8  16   8  16
#     4   9  20  38  58  81 112 151 196 247 298 345
#     4  11  21  36  59  85 116 154 198 245 294 348
#     4  10  21  39  63  89 114 144 188 240 296 357
#     4  10  22  39  58  86 121 154 192 237 292 354
#     4   9  20  38  60  84 115 152 188 232 281 342
#     4  10  20  34  54  79 110 147 190 237 286 339
#
# _framework density 19.600377000000002
#
# number of rings (size 3 to 8) (size 9 to 14) (size 15 to 20)
#    0.000    2.000    1.111    3.000    0.000    6.222 
#    0.000    4.444    0.000    4.667    0.000    0.000 
#    0.000    0.000    0.000    0.000    0.000    0.000 
#
# Total GULP energy -446260.849938 kJ/mol
# GULP energy per Si atom -12396.134721 kJ/mol
# Density = 1.955577 g / cm^3
# Si number density = 19.600377 Si / 1000 Ang^3
#
#
#
# Elastic Constant Matrix: (Units=GPa)
#
#
# Indices 1 2 3 4 5 6 
#
# 1 59.1098 39.0762 22.7186 0.0000 0.0000 0.0000
# 2 39.0762 182.0588 58.4928 0.0000 0.0000 0.0000
# 3 22.7186 58.4928 112.6740 0.0000 0.0000 0.0000
# 4 0.0000 0.0000 0.0000 1.4154 0.0000 0.0000
# 5 0.0000 0.0000 0.0000 0.0000 31.1643 0.0000
# 6 0.0000 0.0000 0.0000 0.0000 0.0000 28.9155
#
#
#
# Elastic Compliance Matrix: (Units=1/GPa)
#
#
# Indices 1 2 3 4 5 6 
#
# 1 0.020152 -0.003624 -0.002182 0.000000 0.000000 0.000000
# 2 -0.003624 0.007244 -0.003030 0.000000 0.000000 0.000000
# 3 -0.002182 -0.003030 0.010888 0.000000 0.000000 0.000000
# 4 0.000000 0.000000 0.000000 0.706498 0.000000 0.000000
# 5 0.000000 0.000000 0.000000 0.000000 0.032088 0.000000
# 6 0.000000 0.000000 0.000000 0.000000 0.000000 0.034584
#
#
# Mechanical properties :
#
#
# Convention : Reuss Voigt Hill
#
# Bulk Modulus (GPa) = 48.51483 66.04639 57.28061
# Shear Modulus (GPa) = 5.98088 27.86937 16.92512
#
# Velocity S-wave (km/s) = 1.74872 3.77487 2.94174
# Velocity P-wave (km/s) = 5.37430 7.26424 6.38953
#
# Compressibility (1/GPa) = 0.02061225
#
# Stress axis : x y z
#
# Youngs Moduli (GPa) = 49.62226 138.04332 91.84442
#
# Poissons Ratio (x) = 0.50032 0.20038
# Poissons Ratio (y) = 0.17985 0.27828
# Poissons Ratio (z) = 0.10826 0.41825
#
# Static dielectric constant tensor:
#      x y z
#    x 3.629960 0.000000 0.000000 
#    y 0.000000 3.776990 0.000000 
#    z 0.000000 0.000000 3.089990 
# 
# 
# High freq. dielectric constant tensor:
#      x y z
#    x 1.764200 0.000000 0.000000 
#    y 0.000000 1.767720 0.000000 
#    z 0.000000 0.000000 1.755900 
# 
# From -- ./inp_files/36685.got.cif
#   From: 2010.03.12/outbox.cif.g09.slc.cpg/sg65_19_cif.got.tgz:36685.got - 2010.04.10 20:52:16.
