data_PCOD8271005
_publ_section_title
;
Structure prediction by ZEFSAII (Michael W. Deem and Ramdas Pophale) SiO2 
 PCOD8271005
Probable space group: C M M M
;
_chemical_formula_sum "Si O2"
_cell_formula_units_Z 64
_cell_length_a 18.462358
_cell_length_b 20.811337
_cell_length_c 9.077068
_cell_angle_alpha 90.000000
_cell_angle_beta 90.000000
_cell_angle_gamma 90.000000
_cell_volume 3487.648744
_symmetry_space_group_name_H-M "C M M M"
_symmetry_group_IT_number 65
_symmetry_cell_setting 'orthorhombic'
loop_
_space_group_symop_operation_xyz
x,y,z
-x,-y,z
x,-y,-z
-x,y,-z
-x,-y,-z
x,y,-z
-x,y,z
x,-y,z
1/2+x,1/2+y,z
1/2-x,1/2-y,z
1/2+x,1/2-y,-z
1/2-x,1/2+y,-z
1/2-x,1/2-y,-z
1/2+x,1/2+y,-z
1/2-x,1/2+y,z
1/2+x,1/2-y,z
loop_
_atom_site_type_symbol
_atom_site_label
_atom_site_fract_x
_atom_site_fract_y
_atom_site_fract_z
Si Si1 0.080992 0.617510 0.175538
Si Si2 0.839525 0.000000 0.174888
Si Si3 0.825059 0.500000 0.824545
Si Si4 0.914148 0.117309 0.331677
Si Si5 0.413933 0.258385 0.163807
O O1 0.134736 0.563253 0.238489
O O2 0.110338 0.688110 0.223856
O O3 0.000000 0.604809 0.237749
O O4 0.078177 0.615341 0.000000
O O5 0.757036 0.000000 0.231815
O O6 0.878607 0.062825 0.233838
O O7 0.844413 0.000000 0.000000
O O8 0.828137 0.500000 0.000000
O O9 0.889631 0.109342 0.500000
O O10 0.886121 0.186351 0.273588
O O11 0.000000 0.111260 0.315443
O O12 0.500000 0.258461 0.154608
O O13 0.382064 0.271304 0.000000
#
# Coordination Sequence:
#
# PCOD8271005 Si02
#       5
#    16   8   8  16  16
#     4   8  13  24  46  74 101 127 155 191 233 275
#     4  11  22  33  47  69  98 129 158 194 238 281
#     4   9  17  28  43  69 102 131 160 192 230 277
#     4  10  20  34  52  71  91 120 159 200 240 284
#     4   8  14  26  47  75 100 120 149 192 238 279
#
# _framework density 18.350473000000001
#
# number of rings (size 3 to 8) (size 9 to 14) (size 15 to 20)
#    0.000    3.000    0.000    3.375    0.000    4.500 
#    0.000    1.250    0.000   10.500    0.000    0.000 
#    0.000   10.000    0.000    0.000    0.000    0.000 
#
# Total GULP energy -396646.514624 kJ/mol
# GULP energy per Si atom -12395.203582 kJ/mol
# Density = 1.830871 g / cm^3
# Si number density = 18.350473 Si / 1000 Ang^3
#
#
#
# Elastic Constant Matrix: (Units=GPa)
#
#
# Indices 1 2 3 4 5 6 
#
# 1 51.7602 51.0915 29.6604 0.0000 0.0000 0.0000
# 2 51.0915 177.7852 50.4286 0.0000 0.0000 0.0000
# 3 29.6604 50.4286 65.2023 0.0000 0.0000 0.0000
# 4 0.0000 0.0000 0.0000 -1.3303 0.0000 0.0000
# 5 0.0000 0.0000 0.0000 0.0000 9.7226 0.0000
# 6 0.0000 0.0000 0.0000 0.0000 0.0000 -99.0296
#
#
#
# Elastic Compliance Matrix: (Units=1/GPa)
#
#
# Indices 1 2 3 4 5 6 
#
# 1 0.030715 -0.006230 -0.009153 0.000000 0.000000 0.000000
# 2 -0.006230 0.008469 -0.003716 0.000000 0.000000 0.000000
# 3 -0.009153 -0.003716 0.022375 0.000000 0.000000 0.000000
# 4 0.000000 0.000000 0.000000 -0.751736 0.000000 0.000000
# 5 0.000000 0.000000 0.000000 0.000000 0.102853 0.000000
# 6 0.000000 0.000000 0.000000 0.000000 0.000000 -0.010098
#
#
# Mechanical properties :
#
#
# Convention : Reuss Voigt Hill
#
# Bulk Modulus (GPa) = 42.80964 61.90095 52.35530
# Shear Modulus (GPa) = -9.06725 -7.22297 -8.14511
#
# Velocity S-wave (km/s) = -2.22528 -1.98612 -2.10909
# Velocity P-wave (km/s) = 4.09598 5.34287 4.76043
#
# Compressibility (1/GPa) = 0.02335922
#
# Stress axis : x y z
#
# Youngs Moduli (GPa) = 32.55727 118.07311 44.69297
#
# Poissons Ratio (x) = 0.73565 0.40910
# Poissons Ratio (y) = 0.20285 0.16608
# Poissons Ratio (z) = 0.29801 0.43877
#
# Static dielectric constant tensor:
#      x y z
#    x 3.207860 0.000000 0.000000 
#    y 0.000000 3.932340 0.000000 
#    z 0.000000 0.000000 3.083600 
# 
# 
# High freq. dielectric constant tensor:
#      x y z
#    x 1.677310 0.000000 0.000000 
#    y 0.000000 1.734720 0.000000 
#    z 0.000000 0.000000 1.670710 
# 
# From -- ./inp_files/8808.got.cif
#   From: 2010.03.12/outbox.cif.g09.slc.cpg/sg65_5_cif.got.tgz:8808.got - 2010.04.10 20:52:16.
