data_PCOD8271016
_publ_section_title
;
Structure prediction by ZEFSAII (Michael W. Deem and Ramdas Pophale) SiO2 
 PCOD8271016
Probable space group: C M M M
;
_chemical_formula_sum "Si O2"
_cell_formula_units_Z 80
_cell_length_a 18.357918
_cell_length_b 8.980318
_cell_length_c 25.960649
_cell_angle_alpha 90.000000
_cell_angle_beta 90.000000
_cell_angle_gamma 90.000000
_cell_volume 4279.871074
_symmetry_space_group_name_H-M "C M M M"
_symmetry_group_IT_number 65
_symmetry_cell_setting 'orthorhombic'
loop_
_space_group_symop_operation_xyz
x,y,z
-x,-y,z
x,-y,-z
-x,y,-z
-x,-y,-z
x,y,-z
-x,y,z
x,-y,z
1/2+x,1/2+y,z
1/2-x,1/2-y,z
1/2+x,1/2-y,-z
1/2-x,1/2+y,-z
1/2-x,1/2-y,-z
1/2+x,1/2+y,-z
1/2-x,1/2+y,z
1/2+x,1/2-y,z
loop_
_atom_site_type_symbol
_atom_site_label
_atom_site_fract_x
_atom_site_fract_y
_atom_site_fract_z
Si Si1 0.672222 0.176923 0.153091
Si Si2 0.586637 0.332498 0.556584
Si Si3 0.586278 0.670200 0.242425
Si Si4 0.081432 0.676796 0.942983
Si Si5 0.086730 0.333541 0.344382
O O1 0.750000 0.250000 0.160356
O O2 0.620320 0.226009 0.199105
O O3 0.637422 0.237408 0.099652
O O4 0.679749 0.000000 0.153460
O O5 0.611538 0.273604 0.500000
O O6 0.500000 0.332327 0.559515
O O7 0.615457 0.500000 0.565034
O O8 0.618965 0.229056 0.601784
O O9 0.500000 0.683654 0.237596
O O10 0.612362 0.500000 0.236137
O O11 0.613562 0.729481 0.297742
O O12 0.079357 0.500000 0.940885
O O13 0.000000 0.737985 0.931452
O O14 0.106683 0.730224 0.000000
O O15 0.117042 0.500000 0.336191
O O16 0.000000 0.334456 0.346453
#
# Coordination Sequence:
#
# PCOD8271016 Si02
#       5
#    16  16  16  16  16
#     4  11  22  35  52  75 104 136 170 208 251 299
#     4   8  13  21  33  51  80 119 158 195 240 294
#     4  10  20  34  52  72  96 128 167 211 257 305
#     4   8  15  30  53  79 104 132 168 207 246 291
#     4   9  16  25  39  61  88 119 158 202 247 297
#
# _framework density 18.692152
#
# number of rings (size 3 to 8) (size 9 to 14) (size 15 to 20)
#    0.000    2.800    0.000    3.600    0.000    5.200 
#    0.000    2.000    0.000    1.800    0.000    7.000 
#    0.000    0.800    0.000    3.000    0.000    7.000 
#
# Total GULP energy -495824.109301 kJ/mol
# GULP energy per Si atom -12395.602733 kJ/mol
# Density = 1.864961 g / cm^3
# Si number density = 18.692152 Si / 1000 Ang^3
#
#
#
# Elastic Constant Matrix: (Units=GPa)
#
#
# Indices 1 2 3 4 5 6 
#
# 1 28.0840 23.8470 31.3717 0.0000 0.0000 0.0000
# 2 23.8470 85.3753 50.7848 0.0000 0.0000 0.0000
# 3 31.3717 50.7848 154.3399 0.0000 0.0000 0.0000
# 4 0.0000 0.0000 0.0000 24.4321 0.0000 0.0000
# 5 0.0000 0.0000 0.0000 0.0000 0.3781 0.0000
# 6 0.0000 0.0000 0.0000 0.0000 0.0000 14.5848
#
#
#
# Elastic Compliance Matrix: (Units=1/GPa)
#
#
# Indices 1 2 3 4 5 6 
#
# 1 0.052511 -0.010343 -0.007270 0.000000 0.000000 0.000000
# 2 -0.010343 0.016601 -0.003360 0.000000 0.000000 0.000000
# 3 -0.007270 -0.003360 0.009063 0.000000 0.000000 0.000000
# 4 0.000000 0.000000 0.000000 0.040930 0.000000 0.000000
# 5 0.000000 0.000000 0.000000 0.000000 2.644655 0.000000
# 6 0.000000 0.000000 0.000000 0.000000 0.000000 0.068565
#
#
# Mechanical properties :
#
#
# Convention : Reuss Voigt Hill
#
# Bulk Modulus (GPa) = 27.60284 53.31181 40.45733
# Shear Modulus (GPa) = 1.73229 18.66536 10.19883
#
# Velocity S-wave (km/s) = 0.96372 3.16344 2.33839
# Velocity P-wave (km/s) = 4.00468 6.47503 5.38347
#
# Compressibility (1/GPa) = 0.03622816
#
# Stress axis : x y z
#
# Youngs Moduli (GPa) = 19.04352 60.23867 110.34325
#
# Poissons Ratio (x) = 0.62303 0.80224
# Poissons Ratio (y) = 0.19696 0.37076
# Poissons Ratio (z) = 0.13845 0.20241
#
# Static dielectric constant tensor:
#      x y z
#    x 2.966910 0.000000 0.000000 
#    y 0.000000 3.389200 0.000000 
#    z 0.000000 0.000000 3.867080 
# 
# 
# High freq. dielectric constant tensor:
#      x y z
#    x 1.669380 0.000000 0.000000 
#    y 0.000000 1.713840 0.000000 
#    z 0.000000 0.000000 1.747460 
# 
# From -- ./inp_files/72738.got.cif
#   From: 2010.03.12/outbox.cif.g09.slc.cpg/sg65_37_cif.got.tgz:72738.got - 2010.04.10 20:52:16.
