data_PCOD8271533
_publ_section_title
;
Structure prediction by ZEFSAII (Michael W. Deem and Ramdas Pophale) SiO2 
 PCOD8271533
Probable space group: C M M M
;
_chemical_formula_sum "Si O2"
_cell_formula_units_Z 104
_cell_length_a 8.731139
_cell_length_b 28.283652
_cell_length_c 22.853227
_cell_angle_alpha 90.000000
_cell_angle_beta 90.000000
_cell_angle_gamma 90.000000
_cell_volume 5643.570060
_symmetry_space_group_name_H-M "C M M M"
_symmetry_group_IT_number 65
_symmetry_cell_setting 'orthorhombic'
loop_
_space_group_symop_operation_xyz
x,y,z
-x,-y,z
x,-y,-z
-x,y,-z
-x,-y,-z
x,y,-z
-x,y,z
x,-y,z
1/2+x,1/2+y,z
1/2-x,1/2-y,z
1/2+x,1/2-y,-z
1/2-x,1/2+y,-z
1/2-x,1/2-y,-z
1/2+x,1/2+y,-z
1/2-x,1/2+y,z
1/2+x,1/2-y,z
loop_
_atom_site_type_symbol
_atom_site_label
_atom_site_fract_x
_atom_site_fract_y
_atom_site_fract_z
Si Si1 0.318937 0.800841 0.778028
Si Si2 0.677881 0.053202 0.852137
Si Si3 0.320172 0.355542 0.884798
Si Si4 0.820209 0.299806 0.432853
Si Si5 0.821053 0.852692 0.331008
Si Si6 0.674967 0.447470 0.729292
Si Si7 0.180793 0.198525 0.000000
O O1 0.500000 0.796938 0.776096
O O2 0.250000 0.750000 0.792618
O O3 0.269151 0.836362 0.828796
O O4 0.259587 0.819329 0.716157
O O5 0.500000 0.063646 0.862002
O O6 0.777426 0.089146 0.891326
O O7 0.714295 0.060567 0.783881
O O8 0.721004 0.000000 0.871652
O O9 0.500000 0.348920 0.875129
O O10 0.261815 0.329058 0.942709
O O11 0.778343 0.310603 0.500000
O O12 0.750000 0.250000 0.412682
O O13 0.746666 0.341514 0.394664
O O14 0.000000 0.297791 0.422319
O O15 0.786645 0.908082 0.319260
O O16 0.000000 0.841463 0.329465
O O17 0.500000 0.441452 0.751368
O O18 0.700165 0.500000 0.702253
O O19 0.250000 0.250000 0.000000
O O20 0.000000 0.202567 0.000000
#
# Coordination Sequence:
#
# PCOD8271533 Si02
#       7
#    16  16  16  16  16  16   8
#     4  12  24  37  54  79 112 145 180 226 277 331
#     4  10  20  34  55  84 114 145 182 225 276 331
#     4  11  22  39  59  82 110 144 185 228 278 333
#     4  10  21  37  56  78 108 147 189 231 276 328
#     4  11  21  34  55  83 113 144 182 227 276 331
#     4   9  18  33  54  80 111 146 182 223 273 329
#     4  10  24  42  61  82 107 143 188 231 275 334
#
# _framework density 18.428051
#
# number of rings (size 3 to 8) (size 9 to 14) (size 15 to 20)
#    0.000    1.538    1.538    4.154    0.000    4.923 
#    0.000    0.385    0.000    2.769    0.000    3.231 
#    0.000    0.000    0.000    0.000    0.000    0.000 
#
# Total GULP energy -644990.752153 kJ/mol
# GULP energy per Si atom -12403.668311 kJ/mol
# Density = 1.838611 g / cm^3
# Si number density = 18.428051 Si / 1000 Ang^3
#
#
#
# Elastic Constant Matrix: (Units=GPa)
#
#
# Indices 1 2 3 4 5 6 
#
# 1 88.3875 41.2534 35.7592 0.0000 0.0000 0.0000
# 2 41.2534 133.8895 53.1213 0.0000 0.0000 0.0000
# 3 35.7592 53.1213 89.3069 0.0000 0.0000 0.0000
# 4 0.0000 0.0000 0.0000 32.3629 0.0000 0.0000
# 5 0.0000 0.0000 0.0000 0.0000 19.9621 0.0000
# 6 0.0000 0.0000 0.0000 0.0000 0.0000 30.8441
#
#
#
# Elastic Compliance Matrix: (Units=1/GPa)
#
#
# Indices 1 2 3 4 5 6 
#
# 1 0.014252 -0.002784 -0.004051 0.000000 0.000000 0.000000
# 2 -0.002784 0.010320 -0.005024 0.000000 0.000000 0.000000
# 3 -0.004051 -0.005024 0.015807 0.000000 0.000000 0.000000
# 4 0.000000 0.000000 0.000000 0.030900 0.000000 0.000000
# 5 0.000000 0.000000 0.000000 0.000000 0.050095 0.000000
# 6 0.000000 0.000000 0.000000 0.000000 0.000000 0.032421
#
#
# Mechanical properties :
#
#
# Convention : Reuss Voigt Hill
#
# Bulk Modulus (GPa) = 60.01493 63.53910 61.77702
# Shear Modulus (GPa) = 27.31259 28.73047 28.02153
#
# Velocity S-wave (km/s) = 3.85401 3.95278 3.90371
# Velocity P-wave (km/s) = 7.24171 7.44225 7.34266
#
# Compressibility (1/GPa) = 0.01666252
#
# Stress axis : x y z
#
# Youngs Moduli (GPa) = 70.16541 96.90076 63.26176
#
# Poissons Ratio (x) = 0.26979 0.25624
# Poissons Ratio (y) = 0.19535 0.31780
# Poissons Ratio (z) = 0.28421 0.48679
#
# Static dielectric constant tensor:
#      x y z
#    x 3.457180 0.000000 0.000000 
#    y 0.000000 3.645860 0.000000 
#    z 0.000000 0.000000 3.278220 
# 
# 
# High freq. dielectric constant tensor:
#      x y z
#    x 1.726440 0.000000 0.000000 
#    y 0.000000 1.726310 0.000000 
#    z 0.000000 0.000000 1.691940 
# 
# From -- ./inp_files/60851.got.cif
#   From: 2010.03.12/outbox.cif.g09.slc.cpg/sg65_31_cif.got.tgz:60851.got - 2010.04.10 20:52:16.
