data_PCOD8271966
_publ_section_title
;
Structure prediction by ZEFSAII (Michael W. Deem and Ramdas Pophale) SiO2 
 PCOD8271966
Probable space group: C M M M
;
_chemical_formula_sum "Si O2"
_cell_formula_units_Z 80
_cell_length_a 17.909004
_cell_length_b 8.987601
_cell_length_c 26.260485
_cell_angle_alpha 90.000000
_cell_angle_beta 90.000000
_cell_angle_gamma 90.000000
_cell_volume 4226.860939
_symmetry_space_group_name_H-M "C M M M"
_symmetry_group_IT_number 65
_symmetry_cell_setting 'orthorhombic'
loop_
_space_group_symop_operation_xyz
x,y,z
-x,-y,z
x,-y,-z
-x,y,-z
-x,-y,-z
x,y,-z
-x,y,z
x,-y,z
1/2+x,1/2+y,z
1/2-x,1/2-y,z
1/2+x,1/2-y,-z
1/2-x,1/2+y,-z
1/2-x,1/2-y,-z
1/2+x,1/2+y,-z
1/2-x,1/2+y,z
1/2+x,1/2-y,z
loop_
_atom_site_type_symbol
_atom_site_label
_atom_site_fract_x
_atom_site_fract_y
_atom_site_fract_z
Si Si1 0.170198 0.176950 0.691910
Si Si2 0.582268 0.822603 0.000000
Si Si3 0.088924 0.168676 0.500000
Si Si4 0.915747 0.824642 0.791517
Si Si5 0.411342 0.830871 0.398960
Si Si6 0.089242 0.667059 0.891258
O O1 0.250000 0.250000 0.684725
O O2 0.135595 0.231597 0.745407
O O3 0.116175 0.233181 0.647875
O O4 0.176597 0.000000 0.689066
O O5 0.622023 0.775160 0.946373
O O6 0.500000 0.750621 0.000000
O O7 0.575226 0.000000 0.000000
O O8 0.119258 0.255688 0.549393
O O9 0.000000 0.166992 0.500000
O O10 0.120029 0.000000 0.500000
O O11 0.881115 0.766860 0.844740
O O12 0.000000 0.762638 0.783605
O O13 0.917108 0.000000 0.793641
O O14 0.500000 0.829427 0.398293
O O15 0.381066 0.000000 0.395671
O O16 0.116734 0.500000 0.880409
O O17 0.000000 0.673353 0.894838
#
# Coordination Sequence:
#
# PCOD8271966 Si02
#       6
#    16   8   8  16  16  16
#     4  11  23  38  54  73 101 136 173 213 259 307
#     4   7  10  18  33  57  90 123 152 187 235 287
#     4   9  17  31  54  83 112 141 172 205 245 293
#     4   9  18  32  49  70  97 128 162 202 249 300
#     4  10  20  35  57  84 111 138 171 210 249 294
#     4   8  13  22  39  63  91 123 158 195 236 287
#
# _framework density 18.926576000000001
#
# number of rings (size 3 to 8) (size 9 to 14) (size 15 to 20)
#    0.000    2.800    0.000    3.300    0.000    4.800 
#    0.000    3.000    0.000    3.000    0.000    0.700 
#    0.000    0.000    0.000    0.000    0.000    0.000 
#
# Total GULP energy -495721.123762 kJ/mol
# GULP energy per Si atom -12393.028094 kJ/mol
# Density = 1.888350 g / cm^3
# Si number density = 18.926576 Si / 1000 Ang^3
#
#
#
# Elastic Constant Matrix: (Units=GPa)
#
#
# Indices 1 2 3 4 5 6 
#
# 1 18.4908 16.8033 17.3096 0.0000 0.0000 0.0000
# 2 16.8033 67.4324 48.8471 0.0000 0.0000 0.0000
# 3 17.3096 48.8471 176.8372 0.0000 0.0000 0.0000
# 4 0.0000 0.0000 0.0000 33.6927 0.0000 0.0000
# 5 0.0000 0.0000 0.0000 0.0000 0.0276 0.0000
# 6 0.0000 0.0000 0.0000 0.0000 0.0000 18.1715
#
#
#
# Elastic Compliance Matrix: (Units=1/GPa)
#
#
# Indices 1 2 3 4 5 6 
#
# 1 0.070837 -0.015788 -0.002573 0.000000 0.000000 0.000000
# 2 -0.015788 0.022058 -0.004548 0.000000 0.000000 0.000000
# 3 -0.002573 -0.004548 0.007163 0.000000 0.000000 0.000000
# 4 0.000000 0.000000 0.000000 0.029680 0.000000 0.000000
# 5 0.000000 0.000000 0.000000 0.000000 36.184602 0.000000
# 6 0.000000 0.000000 0.000000 0.000000 0.000000 0.055031
#
#
# Mechanical properties :
#
#
# Convention : Reuss Voigt Hill
#
# Bulk Modulus (GPa) = 18.43624 47.63115 33.03369
# Shear Modulus (GPa) = 0.13724 22.36506 11.25115
#
# Velocity S-wave (km/s) = 0.26957 3.44128 2.44081
# Velocity P-wave (km/s) = 3.13990 6.40397 5.04330
#
# Compressibility (1/GPa) = 0.05424099
#
# Stress axis : x y z
#
# Youngs Moduli (GPa) = 14.11698 45.33487 139.60781
#
# Poissons Ratio (x) = 0.71575 0.35918
# Poissons Ratio (y) = 0.22288 0.63488
# Poissons Ratio (z) = 0.03632 0.20617
#
# Static dielectric constant tensor:
#      x y z
#    x 2.977050 0.000000 0.000000 
#    y 0.000000 3.455860 0.000000 
#    z 0.000000 0.000000 3.976820 
# 
# 
# High freq. dielectric constant tensor:
#      x y z
#    x 1.676600 0.000000 0.000000 
#    y 0.000000 1.727230 0.000000 
#    z 0.000000 0.000000 1.763210 
# 
# From -- ./inp_files/75098.got.cif
#   From: 2010.03.12/outbox.cif.g09.slc.cpg/sg65_38_cif.got.tgz:75098.got - 2010.04.10 20:52:16.
