data_PCOD8271604
_publ_section_title
;
Structure prediction by ZEFSAII (Michael W. Deem and Ramdas Pophale) SiO2 
 PCOD8271604
Probable space group: C M M M
;
_chemical_formula_sum "Si O2"
_cell_formula_units_Z 72
_cell_length_a 14.547742
_cell_length_b 15.993267
_cell_length_c 15.560930
_cell_angle_alpha 90.000000
_cell_angle_beta 90.000000
_cell_angle_gamma 90.000000
_cell_volume 3620.498126
_symmetry_space_group_name_H-M "C M M M"
_symmetry_group_IT_number 65
_symmetry_cell_setting 'orthorhombic'
loop_
_space_group_symop_operation_xyz
x,y,z
-x,-y,z
x,-y,-z
-x,y,-z
-x,-y,-z
x,y,-z
-x,y,z
x,-y,z
1/2+x,1/2+y,z
1/2-x,1/2-y,z
1/2+x,1/2-y,-z
1/2-x,1/2+y,-z
1/2-x,1/2-y,-z
1/2+x,1/2+y,-z
1/2-x,1/2+y,z
1/2+x,1/2-y,z
loop_
_atom_site_type_symbol
_atom_site_label
_atom_site_fract_x
_atom_site_fract_y
_atom_site_fract_z
Si Si1 0.892166 0.000000 0.091647
Si Si2 0.895865 0.165977 0.188447
Si Si3 0.394621 0.840619 0.099693
Si Si4 0.273041 0.902288 0.251536
Si Si5 0.897800 0.599095 0.405390
O O1 0.862138 0.083393 0.138770
O O2 0.000000 0.000000 0.079830
O O3 0.842250 0.000000 0.000000
O O4 0.886086 0.243194 0.124562
O O5 0.815916 0.160522 0.260215
O O6 0.000000 0.158946 0.225571
O O7 0.500000 0.870570 0.112312
O O8 0.328932 0.893710 0.161731
O O9 0.365167 0.851260 0.000000
O O10 0.334646 0.866458 0.329230
O O11 0.247114 0.000000 0.264342
O O12 0.860884 0.626162 0.500000
O O13 0.902303 0.500000 0.399774
O O14 0.000000 0.636105 0.391249
#
# Coordination Sequence:
#
# PCOD8271604 Si02
#       5
#     8  16  16  16  16
#     4   9  16  28  48  70  90 121 174 228 258 281
#     4  10  20  35  52  72 101 140 181 220 257 298
#     4  10  22  38  53  72 104 145 182 216 258 311
#     4  11  21  33  53  82 108 136 171 216 266 315
#     4   8  15  30  53  79 105 133 169 214 261 311
#
# _framework density 19.886766000000001
#
# number of rings (size 3 to 8) (size 9 to 14) (size 15 to 20)
#    0.000    2.333    1.111    2.667    0.000    7.111 
#    0.000    1.111    0.000    3.333    0.000    6.222 
#    0.000    0.000    0.000    0.000    0.000    0.000 
#
# Total GULP energy -446006.135176 kJ/mol
# GULP energy per Si atom -12389.059310 kJ/mol
# Density = 1.984150 g / cm^3
# Si number density = 19.886766 Si / 1000 Ang^3
#
#
#
# Elastic Constant Matrix: (Units=GPa)
#
#
# Indices 1 2 3 4 5 6 
#
# 1 129.8604 7.4185 74.8894 0.0000 0.0000 0.0000
# 2 7.4185 34.1361 4.8021 0.0000 0.0000 0.0000
# 3 74.8894 4.8021 128.1902 0.0000 0.0000 0.0000
# 4 0.0000 0.0000 0.0000 16.7041 0.0000 0.0000
# 5 0.0000 0.0000 0.0000 0.0000 24.9380 0.0000
# 6 0.0000 0.0000 0.0000 0.0000 0.0000 25.7810
#
#
#
# Elastic Compliance Matrix: (Units=1/GPa)
#
#
# Indices 1 2 3 4 5 6 
#
# 1 0.011698 -0.001589 -0.006775 0.000000 0.000000 0.000000
# 2 -0.001589 0.029666 -0.000183 0.000000 0.000000 0.000000
# 3 -0.006775 -0.000183 0.011766 0.000000 0.000000 0.000000
# 4 0.000000 0.000000 0.000000 0.059865 0.000000 0.000000
# 5 0.000000 0.000000 0.000000 0.000000 0.040099 0.000000
# 6 0.000000 0.000000 0.000000 0.000000 0.000000 0.038788
#
#
# Mechanical properties :
#
#
# Convention : Reuss Voigt Hill
#
# Bulk Modulus (GPa) = 27.75007 51.82294 39.78651
# Shear Modulus (GPa) = 22.62566 27.15641 24.89104
#
# Velocity S-wave (km/s) = 3.37668 3.69935 3.54169
# Velocity P-wave (km/s) = 5.40249 6.66052 6.06421
#
# Compressibility (1/GPa) = 0.03603594
#
# Stress axis : x y z
#
# Youngs Moduli (GPa) = 85.48297 33.70904 84.99398
#
# Poissons Ratio (x) = 0.05357 0.57580
# Poissons Ratio (y) = 0.13585 0.01554
# Poissons Ratio (z) = 0.57912 0.00616
#
# Static dielectric constant tensor:
#      x y z
#    x 3.918520 0.000000 0.000000 
#    y 0.000000 3.330950 0.000000 
#    z 0.000000 0.000000 3.769220 
# 
# 
# High freq. dielectric constant tensor:
#      x y z
#    x 1.787220 0.000000 0.000000 
#    y 0.000000 1.757140 0.000000 
#    z 0.000000 0.000000 1.751240 
# 
# From -- ./inp_files/39780.got.cif
#   From: 2010.03.12/outbox.cif.g09.slc.cpg/sg65_20_cif.got.tgz:39780.got - 2010.04.10 20:52:16.
