data_PCOD8271786
_publ_section_title
;
Structure prediction by ZEFSAII (Michael W. Deem and Ramdas Pophale) SiO2 
 PCOD8271786
Probable space group: C M M M
;
_chemical_formula_sum "Si O2"
_cell_formula_units_Z 104
_cell_length_a 32.514774
_cell_length_b 8.618126
_cell_length_c 20.592536
_cell_angle_alpha 90.000000
_cell_angle_beta 90.000000
_cell_angle_gamma 90.000000
_cell_volume 5770.366700
_symmetry_space_group_name_H-M "C M M M"
_symmetry_group_IT_number 65
_symmetry_cell_setting 'orthorhombic'
loop_
_space_group_symop_operation_xyz
x,y,z
-x,-y,z
x,-y,-z
-x,y,-z
-x,-y,-z
x,y,-z
-x,y,z
x,-y,z
1/2+x,1/2+y,z
1/2-x,1/2-y,z
1/2+x,1/2-y,-z
1/2-x,1/2+y,-z
1/2-x,1/2-y,-z
1/2+x,1/2+y,-z
1/2-x,1/2+y,z
1/2+x,1/2-y,z
loop_
_atom_site_type_symbol
_atom_site_label
_atom_site_fract_x
_atom_site_fract_y
_atom_site_fract_z
Si Si1 0.795607 0.817621 0.000000
Si Si2 0.371958 0.322819 0.324471
Si Si3 0.000000 0.179087 0.644620
Si Si4 0.663113 0.182344 0.125914
Si Si5 0.000000 0.682358 0.214801
Si Si6 0.707216 0.318807 0.247701
Si Si7 0.414501 0.681639 0.810023
Si Si8 0.924605 0.678325 0.425604
O O1 0.750000 0.750000 0.000000
O O2 0.821340 0.765831 0.938038
O O3 0.790998 0.000000 0.000000
O O4 0.378296 0.500000 0.345873
O O5 0.324888 0.290038 0.305704
O O6 0.401412 0.283172 0.263879
O O7 0.383406 0.212039 0.384483
O O8 0.000000 0.282256 0.708859
O O9 0.039553 0.212677 0.601056
O O10 0.000000 0.000000 0.666284
O O11 0.693564 0.227965 0.183829
O O12 0.616468 0.233910 0.140763
O O13 0.664576 0.000000 0.115064
O O14 0.039753 0.754262 0.179418
O O15 0.000000 0.500000 0.204221
O O16 0.710153 0.500000 0.230372
O O17 0.750000 0.250000 0.272697
O O18 0.412592 0.500000 0.824920
O O19 0.915641 0.720520 0.500000
O O20 0.937892 0.500000 0.418005
#
# Coordination Sequence:
#
# PCOD8271786 Si02
#       8
#     8  16   8  16   8  16  16  16
#     4  12  24  40  60  85 118 155 190 228 274 326
#     4   9  19  34  53  75 103 137 176 219 269 326
#     4  12  23  35  52  75 105 143 181 222 269 327
#     4  11  22  37  57  84 116 150 186 224 270 324
#     4  12  22  33  55  83 111 145 183 230 277 320
#     4  10  20  35  55  81 110 139 176 222 272 326
#     4  10  20  36  56  81 111 145 184 228 274 322
#     4  11  23  36  51  74 105 139 178 224 273 328
#
# _framework density 18.023116999999999
#
# number of rings (size 3 to 8) (size 9 to 14) (size 15 to 20)
#    0.000    1.385    1.538    6.462    0.000    5.231 
#    0.000    0.000    0.000    0.923    0.000    3.231 
#    0.000    0.000    0.000    0.000    0.000    0.000 
#
# Total GULP energy -645040.336612 kJ/mol
# GULP energy per Si atom -12404.621858 kJ/mol
# Density = 1.798210 g / cm^3
# Si number density = 18.023117 Si / 1000 Ang^3
#
#
#
# Elastic Constant Matrix: (Units=GPa)
#
#
# Indices 1 2 3 4 5 6 
#
# 1 139.0644 41.6351 45.6129 0.0000 0.0000 0.0000
# 2 41.6351 105.9613 34.0433 0.0000 0.0000 0.0000
# 3 45.6129 34.0433 87.3573 0.0000 0.0000 0.0000
# 4 0.0000 0.0000 0.0000 29.1043 0.0000 0.0000
# 5 0.0000 0.0000 0.0000 0.0000 15.9932 0.0000
# 6 0.0000 0.0000 0.0000 0.0000 0.0000 34.5311
#
#
#
# Elastic Compliance Matrix: (Units=1/GPa)
#
#
# Indices 1 2 3 4 5 6 
#
# 1 0.009165 -0.002359 -0.003866 0.000000 0.000000 0.000000
# 2 -0.002359 0.011395 -0.003209 0.000000 0.000000 0.000000
# 3 -0.003866 -0.003209 0.014717 0.000000 0.000000 0.000000
# 4 0.000000 0.000000 0.000000 0.034359 0.000000 0.000000
# 5 0.000000 0.000000 0.000000 0.000000 0.062527 0.000000
# 6 0.000000 0.000000 0.000000 0.000000 0.000000 0.028959
#
#
# Mechanical properties :
#
#
# Convention : Reuss Voigt Hill
#
# Bulk Modulus (GPa) = 60.94416 63.88507 62.41461
# Shear Modulus (GPa) = 26.95990 29.99850 28.47920
#
# Velocity S-wave (km/s) = 3.87182 4.08419 3.97942
# Velocity P-wave (km/s) = 7.34002 7.60026 7.47127
#
# Compressibility (1/GPa) = 0.01640846
#
# Stress axis : x y z
#
# Youngs Moduli (GPa) = 109.10648 87.75500 67.95089
#
# Poissons Ratio (x) = 0.20703 0.26272
# Poissons Ratio (y) = 0.25740 0.21805
# Poissons Ratio (z) = 0.42183 0.28160
#
# Static dielectric constant tensor:
#      x y z
#    x 3.580100 0.000000 0.000000 
#    y 0.000000 3.425190 0.000000 
#    z 0.000000 0.000000 3.237620 
# 
# 
# High freq. dielectric constant tensor:
#      x y z
#    x 1.703870 0.000000 0.000000 
#    y 0.000000 1.714610 0.000000 
#    z 0.000000 0.000000 1.672520 
# 
# From -- ./inp_files/66435.got.cif
#   From: 2010.03.12/outbox.cif.g09.slc.cpg/sg65_34_cif.got.tgz:66435.got - 2010.04.10 20:52:16.
