data_PCOD8271046
_publ_section_title
;
Structure prediction by ZEFSAII (Michael W. Deem and Ramdas Pophale) SiO2 
 PCOD8271046
Probable space group: C M M M
;
_chemical_formula_sum "Si O2"
_cell_formula_units_Z 88
_cell_length_a 18.595811
_cell_length_b 9.099746
_cell_length_c 28.220962
_cell_angle_alpha 90.000000
_cell_angle_beta 90.000000
_cell_angle_gamma 90.000000
_cell_volume 4775.470951
_symmetry_space_group_name_H-M "C M M M"
_symmetry_group_IT_number 65
_symmetry_cell_setting 'orthorhombic'
loop_
_space_group_symop_operation_xyz
x,y,z
-x,-y,z
x,-y,-z
-x,y,-z
-x,-y,-z
x,y,-z
-x,y,z
x,-y,z
1/2+x,1/2+y,z
1/2-x,1/2-y,z
1/2+x,1/2-y,-z
1/2-x,1/2+y,-z
1/2-x,1/2-y,-z
1/2+x,1/2+y,-z
1/2-x,1/2+y,z
1/2+x,1/2-y,z
loop_
_atom_site_type_symbol
_atom_site_label
_atom_site_fract_x
_atom_site_fract_y
_atom_site_fract_z
Si Si1 0.416763 0.829024 0.181935
Si Si2 0.674778 0.327999 0.257735
Si Si3 0.823239 0.828579 0.634874
Si Si4 0.418501 0.825384 0.000000
Si Si5 0.826945 0.326860 0.910507
Si Si6 0.079816 0.174305 0.551577
O O1 0.500000 0.791295 0.172062
O O2 0.389281 0.734598 0.226051
O O3 0.370237 0.783594 0.136491
O O4 0.406953 0.000000 0.193891
O O5 0.685155 0.500000 0.247897
O O6 0.750000 0.250000 0.245274
O O7 0.650545 0.296215 0.311709
O O8 0.750000 0.750000 0.624108
O O9 0.877397 0.760350 0.596227
O O10 0.811599 0.000000 0.626976
O O11 0.375091 0.769216 0.954157
O O12 0.500000 0.760981 0.000000
O O13 0.423297 0.000000 0.000000
O O14 0.814003 0.500000 0.914152
O O15 0.750000 0.250000 0.910670
O O16 0.113446 0.218044 0.500000
O O17 0.000000 0.239966 0.554779
O O18 0.076927 0.000000 0.555970
#
# Coordination Sequence:
#
# PCOD8271046 Si02
#       6
#    16  16  16   8  16  16
#     4  10  21  36  53  75 103 133 167 208 252 297
#     4  10  20  34  52  73  99 132 168 206 249 297
#     4   9  18  31  48  71  97 124 157 198 241 287
#     4   9  17  32  55  79 102 131 168 206 244 291
#     4  10  20  34  54  78 103 133 168 205 246 294
#     4   8  14  26  45  68  93 122 157 196 237 282
#
# _framework density 18.427502
#
# number of rings (size 3 to 8) (size 9 to 14) (size 15 to 20)
#    0.000    2.636    0.000    2.455    0.000    6.545 
#    0.000    1.818    0.000    2.727    0.000    1.273 
#    0.000    0.000    0.000    0.000    0.000    0.000 
#
# Total GULP energy -545477.202321 kJ/mol
# GULP energy per Si atom -12397.209144 kJ/mol
# Density = 1.838556 g / cm^3
# Si number density = 18.427502 Si / 1000 Ang^3
#
#
#
# Elastic Constant Matrix: (Units=GPa)
#
#
# Indices 1 2 3 4 5 6 
#
# 1 148.1834 43.7136 97.5445 0.0000 0.0000 0.0000
# 2 43.7136 36.1234 41.1998 0.0000 0.0000 0.0000
# 3 97.5445 41.1998 156.6525 0.0000 0.0000 0.0000
# 4 0.0000 0.0000 0.0000 18.1991 0.0000 0.0000
# 5 0.0000 0.0000 0.0000 0.0000 41.4838 0.0000
# 6 0.0000 0.0000 0.0000 0.0000 0.0000 27.9460
#
#
#
# Elastic Compliance Matrix: (Units=1/GPa)
#
#
# Indices 1 2 3 4 5 6 
#
# 1 0.013414 -0.009580 -0.005833 0.000000 0.000000 0.000000
# 2 -0.009580 0.046386 -0.006234 0.000000 0.000000 0.000000
# 3 -0.005833 -0.006234 0.011656 0.000000 0.000000 0.000000
# 4 0.000000 0.000000 0.000000 0.054948 0.000000 0.000000
# 5 0.000000 0.000000 0.000000 0.000000 0.024106 0.000000
# 6 0.000000 0.000000 0.000000 0.000000 0.000000 0.035783
#
#
# Mechanical properties :
#
#
# Convention : Reuss Voigt Hill
#
# Bulk Modulus (GPa) = 35.51035 78.43057 56.97046
# Shear Modulus (GPa) = 20.92270 28.09254 24.50762
#
# Velocity S-wave (km/s) = 3.37323 3.90871 3.65080
# Velocity P-wave (km/s) = 5.87229 7.93881 6.98242
#
# Compressibility (1/GPa) = 0.02816080
#
# Stress axis : x y z
#
# Youngs Moduli (GPa) = 74.54729 21.55816 85.79614
#
# Poissons Ratio (x) = 0.20652 0.50048
# Poissons Ratio (y) = 0.71415 0.53489
# Poissons Ratio (z) = 0.43486 0.13440
#
# Static dielectric constant tensor:
#      x y z
#    x 3.506100 0.000000 0.000000 
#    y 0.000000 3.087070 0.000000 
#    z 0.000000 0.000000 3.720400 
# 
# 
# High freq. dielectric constant tensor:
#      x y z
#    x 1.715820 0.000000 0.000000 
#    y 0.000000 1.680980 0.000000 
#    z 0.000000 0.000000 1.733290 
# 
# From -- ./inp_files/77959.got.cif
#   From: 2010.03.12/outbox.cif.g09.slc.cpg/sg65_39_cif.got.tgz:77959.got - 2010.04.10 20:52:16.
