data_PCOD8271661
_publ_section_title
;
Structure prediction by ZEFSAII (Michael W. Deem and Ramdas Pophale) SiO2 
 PCOD8271661
Probable space group: C M M M
;
_chemical_formula_sum "Si O2"
_cell_formula_units_Z 72
_cell_length_a 15.451736
_cell_length_b 9.509929
_cell_length_c 26.433101
_cell_angle_alpha 90.000000
_cell_angle_beta 90.000000
_cell_angle_gamma 90.000000
_cell_volume 3884.209708
_symmetry_space_group_name_H-M "C M M M"
_symmetry_group_IT_number 65
_symmetry_cell_setting 'orthorhombic'
loop_
_space_group_symop_operation_xyz
x,y,z
-x,-y,z
x,-y,-z
-x,y,-z
-x,-y,-z
x,y,-z
-x,y,z
x,-y,z
1/2+x,1/2+y,z
1/2-x,1/2-y,z
1/2+x,1/2-y,-z
1/2-x,1/2+y,-z
1/2-x,1/2-y,-z
1/2+x,1/2+y,-z
1/2-x,1/2+y,z
1/2+x,1/2-y,z
loop_
_atom_site_type_symbol
_atom_site_label
_atom_site_fract_x
_atom_site_fract_y
_atom_site_fract_z
Si Si1 0.500000 0.836769 0.723420
Si Si2 0.596759 0.831924 0.107856
Si Si3 0.332554 0.336833 0.558460
Si Si4 0.000000 0.165583 0.378813
Si Si5 0.103330 0.344731 0.000000
Si Si6 0.169089 0.335511 0.212540
O O1 0.500000 0.744381 0.673766
O O2 0.415821 0.797929 0.755786
O O3 0.500000 0.000000 0.708341
O O4 0.500000 0.775004 0.117974
O O5 0.631911 0.770854 0.053309
O O6 0.656151 0.784064 0.154513
O O7 0.593575 0.000000 0.104929
O O8 0.352162 0.303703 0.500000
O O9 0.311888 0.500000 0.566919
O O10 0.250000 0.250000 0.578077
O O11 0.415762 0.288082 0.589868
O O12 0.000000 0.000000 0.368839
O O13 0.144104 0.500000 0.000000
O O14 0.000000 0.354493 0.000000
O O15 0.189868 0.500000 0.215561
O O16 0.250000 0.250000 0.235335
#
# Coordination Sequence:
#
# PCOD8271661 Si02
#       6
#     8  16  16   8   8  16
#     4  10  22  39  55  72 100 138 176 217 260 302
#     4   8  12  23  44  68  95 125 160 201 246 299
#     4   9  18  34  56  82 112 144 175 208 250 301
#     4  10  21  36  56  80 107 139 175 215 258 302
#     4   7  10  16  35  68  95 118 153 198 243 291
#     4  10  20  35  54  74  98 131 170 212 258 307
#
# _framework density 18.53659
#
# number of rings (size 3 to 8) (size 9 to 14) (size 15 to 20)
#    0.000    3.000    1.111    1.667    0.000    4.000 
#    0.000    5.000    0.000    3.333    0.000    0.000 
#    0.000    2.667    0.000    0.000    0.000    0.000 
#
# Total GULP energy -446103.917415 kJ/mol
# GULP energy per Si atom -12391.775484 kJ/mol
# Density = 1.849440 g / cm^3
# Si number density = 18.536590 Si / 1000 Ang^3
#
#
#
# Elastic Constant Matrix: (Units=GPa)
#
#
# Indices 1 2 3 4 5 6 
#
# 1 143.7575 54.2364 73.7955 0.0000 0.0000 0.0000
# 2 54.2364 38.3701 47.2567 0.0000 0.0000 0.0000
# 3 73.7955 47.2567 126.7088 0.0000 0.0000 0.0000
# 4 0.0000 0.0000 0.0000 21.5817 0.0000 0.0000
# 5 0.0000 0.0000 0.0000 0.0000 39.4579 0.0000
# 6 0.0000 0.0000 0.0000 0.0000 0.0000 27.6602
#
#
#
# Elastic Compliance Matrix: (Units=1/GPa)
#
#
# Indices 1 2 3 4 5 6 
#
# 1 0.015065 -0.019399 -0.001539 0.000000 0.000000 0.000000
# 2 -0.019399 0.073184 -0.015996 0.000000 0.000000 0.000000
# 3 -0.001539 -0.015996 0.014754 0.000000 0.000000 0.000000
# 4 0.000000 0.000000 0.000000 0.046336 0.000000 0.000000
# 5 0.000000 0.000000 0.000000 0.000000 0.025343 0.000000
# 6 0.000000 0.000000 0.000000 0.000000 0.000000 0.036153
#
#
# Mechanical properties :
#
#
# Convention : Reuss Voigt Hill
#
# Bulk Modulus (GPa) = 34.32342 73.26818 53.79580
# Shear Modulus (GPa) = 16.98281 26.64315 21.81298
#
# Velocity S-wave (km/s) = 3.03013 3.79532 3.43410
# Velocity P-wave (km/s) = 5.54968 7.66929 6.69392
#
# Compressibility (1/GPa) = 0.02913463
#
# Stress axis : x y z
#
# Youngs Moduli (GPa) = 66.37909 13.66418 67.77736
#
# Poissons Ratio (x) = 0.26508 0.10430
# Poissons Ratio (y) = 1.28771 1.08418
# Poissons Ratio (z) = 0.10214 0.21858
#
# Static dielectric constant tensor:
#      x y z
#    x 3.325350 0.000000 0.000000 
#    y 0.000000 2.958330 0.000000 
#    z 0.000000 0.000000 3.650250 
# 
# 
# High freq. dielectric constant tensor:
#      x y z
#    x 1.713480 0.000000 0.000000 
#    y 0.000000 1.672360 0.000000 
#    z 0.000000 0.000000 1.730860 
# 
# From -- ./inp_files/77572.got.cif
#   From: 2010.03.12/outbox.cif.g09.slc.cpg/sg65_39_cif.got.tgz:77572.got - 2010.04.10 20:52:16.
