data_PCOD8271093
_publ_section_title
;
Structure prediction by ZEFSAII (Michael W. Deem and Ramdas Pophale) SiO2 
 PCOD8271093
Probable space group: C M M M
;
_chemical_formula_sum "Si O2"
_cell_formula_units_Z 80
_cell_length_a 28.413794
_cell_length_b 9.066537
_cell_length_c 18.034751
_cell_angle_alpha 90.000000
_cell_angle_beta 90.000000
_cell_angle_gamma 90.000000
_cell_volume 4646.017232
_symmetry_space_group_name_H-M "C M M M"
_symmetry_group_IT_number 65
_symmetry_cell_setting 'orthorhombic'
loop_
_space_group_symop_operation_xyz
x,y,z
-x,-y,z
x,-y,-z
-x,y,-z
-x,-y,-z
x,y,-z
-x,y,z
x,-y,z
1/2+x,1/2+y,z
1/2-x,1/2-y,z
1/2+x,1/2-y,-z
1/2-x,1/2+y,-z
1/2-x,1/2-y,-z
1/2+x,1/2+y,-z
1/2-x,1/2+y,z
1/2+x,1/2-y,z
loop_
_atom_site_type_symbol
_atom_site_label
_atom_site_fract_x
_atom_site_fract_y
_atom_site_fract_z
Si Si1 0.298846 0.671050 0.340002
Si Si2 0.944044 0.166528 0.000000
Si Si3 0.603403 0.327410 0.282759
Si Si4 0.201267 0.171668 0.500000
Si Si5 0.055449 0.331318 0.584341
Si Si6 0.554930 0.827926 0.146628
O O1 0.286099 0.500000 0.340015
O O2 0.250000 0.750000 0.318882
O O3 0.340432 0.705627 0.282021
O O4 0.321586 0.717815 0.420916
O O5 0.925233 0.249079 0.926984
O O6 0.000000 0.170209 0.000000
O O7 0.924662 0.000000 0.000000
O O8 0.593050 0.500000 0.270922
O O9 0.581168 0.280054 0.360737
O O10 0.581780 0.233836 0.216997
O O11 0.250000 0.250000 0.500000
O O12 0.210092 0.000000 0.500000
O O13 0.070507 0.292550 0.500000
O O14 0.069351 0.500000 0.603136
O O15 0.000000 0.310370 0.594006
O O16 0.500000 0.795018 0.157891
O O17 0.565012 0.000000 0.138504
#
# Coordination Sequence:
#
# PCOD8271093 Si02
#       6
#    16   8  16   8  16  16
#     4   9  19  33  49  68  93 124 161 208 258 305
#     4   9  17  31  53  79 106 133 162 201 247 291
#     4  11  22  32  48  74 101 129 165 209 255 297
#     4   8  14  28  46  62  83 112 149 197 250 297
#     4   9  19  35  50  65  91 129 171 210 247 293
#     4  10  20  34  52  75 105 139 171 201 238 291
#
# _framework density 17.219048999999998
#
# number of rings (size 3 to 8) (size 9 to 14) (size 15 to 20)
#    0.000    2.500    0.000    2.700    1.400    7.200 
#    0.000    1.000    0.000    0.000    0.000    0.700 
#    0.000    0.000    0.000    0.000    0.000    0.000 
#
# Total GULP energy -495687.680275 kJ/mol
# GULP energy per Si atom -12392.192007 kJ/mol
# Density = 1.717986 g / cm^3
# Si number density = 17.219049 Si / 1000 Ang^3
#
#
#
# Elastic Constant Matrix: (Units=GPa)
#
#
# Indices 1 2 3 4 5 6 
#
# 1 57.2476 36.4724 45.3345 0.0000 0.0000 0.0000
# 2 36.4724 69.6578 48.5975 0.0000 0.0000 0.0000
# 3 45.3345 48.5975 105.7639 0.0000 0.0000 0.0000
# 4 0.0000 0.0000 0.0000 34.0191 0.0000 0.0000
# 5 0.0000 0.0000 0.0000 0.0000 7.1108 0.0000
# 6 0.0000 0.0000 0.0000 0.0000 0.0000 23.9344
#
#
#
# Elastic Compliance Matrix: (Units=1/GPa)
#
#
# Indices 1 2 3 4 5 6 
#
# 1 0.030632 -0.010124 -0.008478 0.000000 0.000000 0.000000
# 2 -0.010124 0.024475 -0.006907 0.000000 0.000000 0.000000
# 3 -0.008478 -0.006907 0.016263 0.000000 0.000000 0.000000
# 4 0.000000 0.000000 0.000000 0.029395 0.000000 0.000000
# 5 0.000000 0.000000 0.000000 0.000000 0.140631 0.000000
# 6 0.000000 0.000000 0.000000 0.000000 0.000000 0.041781
#
#
# Mechanical properties :
#
#
# Convention : Reuss Voigt Hill
#
# Bulk Modulus (GPa) = 49.13435 54.83090 51.98263
# Shear Modulus (GPa) = 14.66374 19.83053 17.24714
#
# Velocity S-wave (km/s) = 2.92138 3.39730 3.16829
# Velocity P-wave (km/s) = 6.32267 6.87758 6.60595
#
# Compressibility (1/GPa) = 0.02035236
#
# Stress axis : x y z
#
# Youngs Moduli (GPa) = 32.64603 40.85788 61.49054
#
# Poissons Ratio (x) = 0.41363 0.52133
# Poissons Ratio (y) = 0.33050 0.42470
# Poissons Ratio (z) = 0.27678 0.28219
#
# Static dielectric constant tensor:
#      x y z
#    x 2.976660 0.000000 0.000000 
#    y 0.000000 3.275060 0.000000 
#    z 0.000000 0.000000 3.134930 
# 
# 
# High freq. dielectric constant tensor:
#      x y z
#    x 1.637780 0.000000 0.000000 
#    y 0.000000 1.674420 0.000000 
#    z 0.000000 0.000000 1.657550 
# 
# From -- ./inp_files/57892.got.cif
#   From: 2010.03.12/outbox.cif.g09.slc.cpg/sg65_29_cif.got.tgz:57892.got - 2010.04.10 20:52:16.
