data_PCOD8271177
_publ_section_title
;
Structure prediction by ZEFSAII (Michael W. Deem and Ramdas Pophale) SiO2 
 PCOD8271177
Probable space group: C M M M
;
_chemical_formula_sum "Si O2"
_cell_formula_units_Z 88
_cell_length_a 9.368605
_cell_length_b 17.845724
_cell_length_c 28.466010
_cell_angle_alpha 90.000000
_cell_angle_beta 90.000000
_cell_angle_gamma 90.000000
_cell_volume 4759.219092
_symmetry_space_group_name_H-M "C M M M"
_symmetry_group_IT_number 65
_symmetry_cell_setting 'orthorhombic'
loop_
_space_group_symop_operation_xyz
x,y,z
-x,-y,z
x,-y,-z
-x,y,-z
-x,-y,-z
x,y,-z
-x,y,z
x,-y,z
1/2+x,1/2+y,z
1/2-x,1/2-y,z
1/2+x,1/2-y,-z
1/2-x,1/2+y,-z
1/2-x,1/2-y,-z
1/2+x,1/2+y,-z
1/2-x,1/2+y,z
1/2+x,1/2-y,z
loop_
_atom_site_type_symbol
_atom_site_label
_atom_site_fract_x
_atom_site_fract_y
_atom_site_fract_z
Si Si1 0.835160 0.175801 0.827228
Si Si2 0.662428 0.412181 0.079074
Si Si3 0.658329 0.589367 0.636607
Si Si4 0.670388 0.416462 0.260599
Si Si5 0.671727 0.829049 0.000000
Si Si6 0.840065 0.589073 0.551415
O O1 0.750000 0.250000 0.840309
O O2 0.813541 0.115528 0.868145
O O3 0.772716 0.139840 0.779292
O O4 0.000000 0.197593 0.821293
O O5 0.500000 0.393965 0.062443
O O6 0.691126 0.500000 0.077746
O O7 0.778262 0.373345 0.045983
O O8 0.500000 0.622177 0.630588
O O9 0.654668 0.500000 0.633880
O O10 0.721482 0.612259 0.687839
O O11 0.749921 0.624531 0.594083
O O12 0.500000 0.420018 0.259741
O O13 0.730733 0.500000 0.250741
O O14 0.750000 0.750000 0.000000
O O15 0.500000 0.820039 0.000000
O O16 0.777966 0.612452 0.500000
O O17 0.839351 0.500000 0.555503
O O18 0.000000 0.619826 0.556351
#
# Coordination Sequence:
#
# PCOD8271177 Si02
#       6
#    16  16  16  16   8  16
#     4  10  20  34  53  76 102 132 165 203 247 295
#     4  10  21  38  60  84 109 139 176 215 255 302
#     4   8  13  21  35  55  77 104 143 189 229 268
#     4   8  14  27  47  68  90 120 159 198 237 285
#     4  12  25  40  59  83 113 147 179 214 257 300
#     4   8  13  20  29  44  72 110 145 176 218 275
#
# _framework density 18.490428000000001
#
# number of rings (size 3 to 8) (size 9 to 14) (size 15 to 20)
#    0.000    2.909    0.000    3.818    0.000    6.182 
#    0.000    2.727    0.000    2.727    0.000    0.000 
#    0.000    0.727    0.000    1.636    0.000    4.364 
#
# Total GULP energy -545330.589109 kJ/mol
# GULP energy per Si atom -12393.877025 kJ/mol
# Density = 1.844834 g / cm^3
# Si number density = 18.490428 Si / 1000 Ang^3
#
#
#
# Elastic Constant Matrix: (Units=GPa)
#
#
# Indices 1 2 3 4 5 6 
#
# 1 80.4326 36.6453 60.0079 0.0000 0.0000 0.0000
# 2 36.6453 69.8896 40.5073 0.0000 0.0000 0.0000
# 3 60.0079 40.5073 148.3279 0.0000 0.0000 0.0000
# 4 0.0000 0.0000 0.0000 4.7735 0.0000 0.0000
# 5 0.0000 0.0000 0.0000 0.0000 -2.2015 0.0000
# 6 0.0000 0.0000 0.0000 0.0000 0.0000 17.3662
#
#
#
# Elastic Compliance Matrix: (Units=1/GPa)
#
#
# Indices 1 2 3 4 5 6 
#
# 1 0.020334 -0.007002 -0.006314 0.000000 0.000000 0.000000
# 2 -0.007002 0.019410 -0.002468 0.000000 0.000000 0.000000
# 3 -0.006314 -0.002468 0.009970 0.000000 0.000000 0.000000
# 4 0.000000 0.000000 0.000000 0.209489 0.000000 0.000000
# 5 0.000000 0.000000 0.000000 0.000000 -0.454243 0.000000
# 6 0.000000 0.000000 0.000000 0.000000 0.000000 0.057583
#
#
# Mechanical properties :
#
#
# Convention : Reuss Voigt Hill
#
# Bulk Modulus (GPa) = 55.10902 63.66345 59.38623
# Shear Modulus (GPa) = -50.07986 14.75363 -17.66312
#
# Velocity S-wave (km/s) = -5.20990 2.82779 -3.09408
# Velocity P-wave (km/s) = 2.51434 6.72065 4.40711
#
# Compressibility (1/GPa) = 0.01814585
#
# Stress axis : x y z
#
# Youngs Moduli (GPa) = 49.17991 51.51968 100.29880
#
# Poissons Ratio (x) = 0.36074 0.63328
# Poissons Ratio (y) = 0.34436 0.24754
# Poissons Ratio (z) = 0.31052 0.12715
#
# Static dielectric constant tensor:
#      x y z
#    x 3.301110 0.000000 0.000000 
#    y 0.000000 3.044190 0.000000 
#    z 0.000000 0.000000 3.845910 
# 
# 
# High freq. dielectric constant tensor:
#      x y z
#    x 1.688420 0.000000 0.000000 
#    y 0.000000 1.676340 0.000000 
#    z 0.000000 0.000000 1.740360 
# 
# From -- ./inp_files/76646.got.cif
#   From: 2010.03.12/outbox.cif.g09.slc.cpg/sg65_39_cif.got.tgz:76646.got - 2010.04.10 20:52:16.
