data_PCOD8271541
_publ_section_title
;
Structure prediction by ZEFSAII (Michael W. Deem and Ramdas Pophale) SiO2 
 PCOD8271541
Probable space group: C M M M
;
_chemical_formula_sum "Si O2"
_cell_formula_units_Z 88
_cell_length_a 19.226236
_cell_length_b 8.855372
_cell_length_c 24.800120
_cell_angle_alpha 90.000000
_cell_angle_beta 90.000000
_cell_angle_gamma 90.000000
_cell_volume 4222.356135
_symmetry_space_group_name_H-M "C M M M"
_symmetry_group_IT_number 65
_symmetry_cell_setting 'orthorhombic'
loop_
_space_group_symop_operation_xyz
x,y,z
-x,-y,z
x,-y,-z
-x,y,-z
-x,-y,-z
x,y,-z
-x,y,z
x,-y,z
1/2+x,1/2+y,z
1/2-x,1/2-y,z
1/2+x,1/2-y,-z
1/2-x,1/2+y,-z
1/2-x,1/2-y,-z
1/2+x,1/2+y,-z
1/2-x,1/2+y,z
1/2+x,1/2-y,z
loop_
_atom_site_type_symbol
_atom_site_label
_atom_site_fract_x
_atom_site_fract_y
_atom_site_fract_z
Si Si1 0.682850 0.177558 0.666766
Si Si2 0.577765 0.679468 0.939713
Si Si3 0.080079 0.177705 0.744071
Si Si4 0.825809 0.821155 0.155357
Si Si5 0.149414 0.180855 0.561043
Si Si6 0.000000 0.160732 0.562355
O O1 0.750000 0.250000 0.697531
O O2 0.611513 0.241045 0.691546
O O3 0.693908 0.228277 0.604440
O O4 0.685610 0.000000 0.672663
O O5 0.500000 0.738452 0.924745
O O6 0.576604 0.500000 0.936729
O O7 0.635499 0.741703 0.898260
O O8 0.597873 0.733812 0.000000
O O9 0.125207 0.229520 0.795329
O O10 0.000000 0.228551 0.751740
O O11 0.084896 0.000000 0.735159
O O12 0.750000 0.750000 0.160546
O O13 0.817203 0.000000 0.153528
O O14 0.172572 0.223539 0.500000
O O15 0.071749 0.246499 0.574367
O O16 0.153220 0.000000 0.569232
O O17 0.000000 0.119392 0.500000
O O18 0.000000 0.000000 0.594202
#
# Coordination Sequence:
#
# PCOD8271541 Si02
#       6
#    16  16  16  16  16   8
#     4  12  26  42  60  84 117 152 190 235 286 342
#     4   8  14  27  50  80 113 150 195 244 286 329
#     4  10  22  41  64  86 110 145 190 239 291 348
#     4  10  20  34  55  84 116 151 191 235 286 343
#     4   9  18  35  60  88 117 151 189 228 276 336
#     4   7  12  26  51  81 109 139 175 213 256 313
#
# _framework density 20.841443000000002
#
# number of rings (size 3 to 8) (size 9 to 14) (size 15 to 20)
#    0.000    2.455    0.000    4.364    1.273    5.818 
#    0.000    0.000    0.000    3.273    0.000    1.273 
#    0.000    0.000    0.000    0.000    0.000    0.000 
#
# Total GULP energy -545174.060178 kJ/mol
# GULP energy per Si atom -12390.319550 kJ/mol
# Density = 2.079401 g / cm^3
# Si number density = 20.841443 Si / 1000 Ang^3
#
#
#
# Elastic Constant Matrix: (Units=GPa)
#
#
# Indices 1 2 3 4 5 6 
#
# 1 168.8288 45.3433 67.9528 0.0000 0.0000 0.0000
# 2 45.3433 49.4687 35.5925 0.0000 0.0000 0.0000
# 3 67.9528 35.5925 128.3390 0.0000 0.0000 0.0000
# 4 0.0000 0.0000 0.0000 13.2452 0.0000 0.0000
# 5 0.0000 0.0000 0.0000 0.0000 28.8308 0.0000
# 6 0.0000 0.0000 0.0000 0.0000 0.0000 30.5049
#
#
#
# Elastic Compliance Matrix: (Units=1/GPa)
#
#
# Indices 1 2 3 4 5 6 
#
# 1 0.008687 -0.005813 -0.002987 0.000000 0.000000 0.000000
# 2 -0.005813 0.029144 -0.005005 0.000000 0.000000 0.000000
# 3 -0.002987 -0.005005 0.010762 0.000000 0.000000 0.000000
# 4 0.000000 0.000000 0.000000 0.075499 0.000000 0.000000
# 5 0.000000 0.000000 0.000000 0.000000 0.034685 0.000000
# 6 0.000000 0.000000 0.000000 0.000000 0.000000 0.032782
#
#
# Mechanical properties :
#
#
# Convention : Reuss Voigt Hill
#
# Bulk Modulus (GPa) = 47.65946 71.60153 59.63049
# Shear Modulus (GPa) = 22.10806 27.69939 24.90373
#
# Velocity S-wave (km/s) = 3.26049 3.64957 3.46050
# Velocity P-wave (km/s) = 6.09029 7.22420 6.68135
#
# Compressibility (1/GPa) = 0.02098219
#
# Stress axis : x y z
#
# Youngs Moduli (GPa) = 115.11761 34.31257 92.92333
#
# Poissons Ratio (x) = 0.19946 0.27759
# Poissons Ratio (y) = 0.66917 0.46505
# Poissons Ratio (z) = 0.34390 0.17172
#
# Static dielectric constant tensor:
#      x y z
#    x 4.441120 0.000000 0.000000 
#    y 0.000000 3.168330 0.000000 
#    z 0.000000 0.000000 3.934650 
# 
# 
# High freq. dielectric constant tensor:
#      x y z
#    x 1.837570 0.000000 0.000000 
#    y 0.000000 1.761720 0.000000 
#    z 0.000000 0.000000 1.817420 
# 
# From -- ./inp_files/71004.got.cif
#   From: 2010.03.12/outbox.cif.g09.slc.cpg/sg65_36_cif.got.tgz:71004.got - 2010.04.10 20:52:16.
