data_PCOD8271042
_publ_section_title
;
Structure prediction by ZEFSAII (Michael W. Deem and Ramdas Pophale) SiO2 
 PCOD8271042
Probable space group: C M M M
;
_chemical_formula_sum "Si O2"
_cell_formula_units_Z 104
_cell_length_a 29.415741
_cell_length_b 8.720036
_cell_length_c 21.478714
_cell_angle_alpha 90.000000
_cell_angle_beta 90.000000
_cell_angle_gamma 90.000000
_cell_volume 5509.425897
_symmetry_space_group_name_H-M "C M M M"
_symmetry_group_IT_number 65
_symmetry_cell_setting 'orthorhombic'
loop_
_space_group_symop_operation_xyz
x,y,z
-x,-y,z
x,-y,-z
-x,y,-z
-x,-y,-z
x,y,-z
-x,y,z
x,-y,z
1/2+x,1/2+y,z
1/2-x,1/2-y,z
1/2+x,1/2-y,-z
1/2-x,1/2+y,-z
1/2-x,1/2-y,-z
1/2+x,1/2+y,-z
1/2-x,1/2+y,z
1/2+x,1/2-y,z
loop_
_atom_site_type_symbol
_atom_site_label
_atom_site_fract_x
_atom_site_fract_y
_atom_site_fract_z
Si Si1 0.553741 0.829381 0.500000
Si Si2 0.170636 0.820819 0.930468
Si Si3 0.703679 0.817356 0.195399
Si Si4 0.885745 0.324479 0.731471
Si Si5 0.926809 0.325676 0.069003
Si Si6 0.450535 0.670255 0.816670
Si Si7 0.948101 0.180588 0.627526
O O1 0.500000 0.835365 0.500000
O O2 0.570250 0.742397 0.438314
O O3 0.574665 0.000000 0.500000
O O4 0.200672 0.758208 0.873405
O O5 0.125229 0.723260 0.927820
O O6 0.160436 0.000000 0.919440
O O7 0.192943 0.797373 0.000000
O O8 0.750000 0.750000 0.225013
O O9 0.664031 0.769895 0.244876
O O10 0.704976 0.000000 0.187964
O O11 0.884715 0.500000 0.710010
O O12 0.918062 0.301789 0.790652
O O13 0.909400 0.226405 0.677081
O O14 0.931025 0.500000 0.092622
O O15 0.956521 0.211417 0.111004
O O16 0.946535 0.309891 0.000000
O O17 0.500000 0.674418 0.784090
O O18 0.429597 0.500000 0.807530
O O19 0.000000 0.241905 0.642234
O O20 0.949980 0.000000 0.624373
#
# Coordination Sequence:
#
# PCOD8271042 Si02
#       7
#     8  16  16  16  16  16  16
#     4   9  17  31  53  83 120 159 196 233 269 307
#     4  10  20  35  57  81 104 133 170 219 281 344
#     4  11  24  40  59  82 107 139 180 228 283 341
#     4  11  23  38  56  80 109 144 184 226 273 326
#     4  10  20  34  52  73  98 131 172 218 269 325
#     4  11  23  36  52  75 103 138 179 221 268 323
#     4  10  20  34  55  85 121 159 195 229 268 315
#
# _framework density 18.876739000000001
#
# number of rings (size 3 to 8) (size 9 to 14) (size 15 to 20)
#    0.000    1.615    1.538    3.462    0.000    9.231 
#    0.000    1.538    0.000    0.000    0.000    0.538 
#    0.000    0.000    0.000    0.000    0.000    0.000 
#
# Total GULP energy -644348.077319 kJ/mol
# GULP energy per Si atom -12391.309179 kJ/mol
# Density = 1.883378 g / cm^3
# Si number density = 18.876739 Si / 1000 Ang^3
#
#
#
# Elastic Constant Matrix: (Units=GPa)
#
#
# Indices 1 2 3 4 5 6 
#
# 1 97.1896 28.1556 45.7109 0.0000 0.0000 0.0000
# 2 28.1556 69.3497 38.9691 0.0000 0.0000 0.0000
# 3 45.7109 38.9691 110.7711 0.0000 0.0000 0.0000
# 4 0.0000 0.0000 0.0000 32.6568 0.0000 0.0000
# 5 0.0000 0.0000 0.0000 0.0000 19.9076 0.0000
# 6 0.0000 0.0000 0.0000 0.0000 0.0000 22.9289
#
#
#
# Elastic Compliance Matrix: (Units=1/GPa)
#
#
# Indices 1 2 3 4 5 6 
#
# 1 0.013209 -0.002866 -0.004442 0.000000 0.000000 0.000000
# 2 -0.002866 0.018595 -0.005359 0.000000 0.000000 0.000000
# 3 -0.004442 -0.005359 0.012746 0.000000 0.000000 0.000000
# 4 0.000000 0.000000 0.000000 0.030621 0.000000 0.000000
# 5 0.000000 0.000000 0.000000 0.000000 0.050232 0.000000
# 6 0.000000 0.000000 0.000000 0.000000 0.000000 0.043613
#
#
# Mechanical properties :
#
#
# Convention : Reuss Voigt Hill
#
# Bulk Modulus (GPa) = 52.04413 55.88685 53.96549
# Shear Modulus (GPa) = 24.90584 26.06365 25.48475
#
# Velocity S-wave (km/s) = 3.63629 3.71985 3.67830
# Velocity P-wave (km/s) = 6.72759 6.93687 6.83303
#
# Compressibility (1/GPa) = 0.01921446
#
# Stress axis : x y z
#
# Youngs Moduli (GPa) = 75.70615 53.77898 78.45593
#
# Poissons Ratio (x) = 0.15416 0.34853
# Poissons Ratio (y) = 0.21701 0.42042
# Poissons Ratio (z) = 0.33632 0.28818
#
# Static dielectric constant tensor:
#      x y z
#    x 3.334900 0.000000 0.000000 
#    y 0.000000 3.515840 0.000000 
#    z 0.000000 0.000000 3.621330 
# 
# 
# High freq. dielectric constant tensor:
#      x y z
#    x 1.707150 0.000000 0.000000 
#    y 0.000000 1.746450 0.000000 
#    z 0.000000 0.000000 1.721390 
# 
# From -- ./inp_files/66335.got.cif
#   From: 2010.03.12/outbox.cif.g09.slc.cpg/sg65_34_cif.got.tgz:66335.got - 2010.04.10 20:52:16.
