data_PCOD8271122
_publ_section_title
;
Structure prediction by ZEFSAII (Michael W. Deem and Ramdas Pophale) SiO2 
 PCOD8271122
Probable space group: C M M M
;
_chemical_formula_sum "Si O2"
_cell_formula_units_Z 104
_cell_length_a 8.070674
_cell_length_b 25.907320
_cell_length_c 27.178954
_cell_angle_alpha 90.000000
_cell_angle_beta 90.000000
_cell_angle_gamma 90.000000
_cell_volume 5682.834825
_symmetry_space_group_name_H-M "C M M M"
_symmetry_group_IT_number 65
_symmetry_cell_setting 'orthorhombic'
loop_
_space_group_symop_operation_xyz
x,y,z
-x,-y,z
x,-y,-z
-x,y,-z
-x,-y,-z
x,y,-z
-x,y,z
x,-y,z
1/2+x,1/2+y,z
1/2-x,1/2-y,z
1/2+x,1/2-y,-z
1/2-x,1/2+y,-z
1/2-x,1/2-y,-z
1/2+x,1/2+y,-z
1/2-x,1/2+y,z
1/2+x,1/2-y,z
loop_
_atom_site_type_symbol
_atom_site_label
_atom_site_fract_x
_atom_site_fract_y
_atom_site_fract_z
Si Si1 0.810702 0.500000 0.202919
Si Si2 0.809475 0.600900 0.152389
Si Si3 0.694848 0.694356 0.319701
Si Si4 0.500000 0.059896 0.442197
Si Si5 0.804900 0.058864 0.944951
Si Si6 0.690492 0.695901 0.210943
Si Si7 0.304481 0.595220 0.620004
Si Si8 0.313034 0.500000 0.308959
O O1 0.727288 0.551334 0.179782
O O2 0.803422 0.500000 0.261615
O O3 0.000000 0.500000 0.185500
O O4 0.785783 0.596002 0.093761
O O5 0.721361 0.651845 0.171411
O O6 0.000000 0.606393 0.166284
O O7 0.500000 0.691338 0.317023
O O8 0.750000 0.750000 0.340962
O O9 0.773745 0.685860 0.264885
O O10 0.753428 0.649195 0.356140
O O11 0.500000 0.067932 0.500000
O O12 0.327579 0.085390 0.423414
O O13 0.500000 0.000000 0.427043
O O14 0.000000 0.063757 0.937989
O O15 0.747711 0.000000 0.935810
O O16 0.753386 0.076099 0.000000
O O17 0.500000 0.700504 0.221592
O O18 0.750000 0.750000 0.188044
O O19 0.500000 0.595293 0.602304
O O20 0.277070 0.550846 0.659974
O O21 0.500000 0.500000 0.289183
#
# Coordination Sequence:
#
# PCOD8271122 Si02
#       8
#     8  16  16   8  16  16  16   8
#     4  10  22  32  45  75 113 148 177 213 263 326
#     4  11  21  34  49  75 109 144 180 219 273 327
#     4   9  19  34  55  84 112 146 187 227 273 330
#     4  11  24  40  62  90 114 150 196 233 285 341
#     4   9  18  33  53  75  99 133 180 228 276 330
#     4  10  20  36  54  77 109 144 185 225 267 323
#     4  10  21  38  57  85 117 147 188 234 283 335
#     4  10  20  34  52  76 109 145 183 222 270 326
#
# _framework density 18.300726000000001
#
# number of rings (size 3 to 8) (size 9 to 14) (size 15 to 20)
#    0.000    2.077    1.538    2.308    2.154    3.692 
#    0.000    1.538    0.000    0.923    0.000    0.000 
#    0.000    0.000    0.000    0.000    0.000    0.000 
#
# Total GULP energy -644624.668879 kJ/mol
# GULP energy per Si atom -12396.628248 kJ/mol
# Density = 1.825907 g / cm^3
# Si number density = 18.300726 Si / 1000 Ang^3
#
#
#
# Elastic Constant Matrix: (Units=GPa)
#
#
# Indices 1 2 3 4 5 6 
#
# 1 51.2508 27.8442 32.5562 0.0000 0.0000 0.0000
# 2 27.8442 142.7212 60.4625 0.0000 0.0000 0.0000
# 3 32.5562 60.4625 97.8136 0.0000 0.0000 0.0000
# 4 0.0000 0.0000 0.0000 32.8922 0.0000 0.0000
# 5 0.0000 0.0000 0.0000 0.0000 27.7328 0.0000
# 6 0.0000 0.0000 0.0000 0.0000 0.0000 25.5016
#
#
#
# Elastic Compliance Matrix: (Units=1/GPa)
#
#
# Indices 1 2 3 4 5 6 
#
# 1 0.025095 -0.001839 -0.007216 0.000000 0.000000 0.000000
# 2 -0.001839 0.009627 -0.005339 0.000000 0.000000 0.000000
# 3 -0.007216 -0.005339 0.015925 0.000000 0.000000 0.000000
# 4 0.000000 0.000000 0.000000 0.030402 0.000000 0.000000
# 5 0.000000 0.000000 0.000000 0.000000 0.036058 0.000000
# 6 0.000000 0.000000 0.000000 0.000000 0.000000 0.039213
#
#
# Mechanical properties :
#
#
# Convention : Reuss Voigt Hill
#
# Bulk Modulus (GPa) = 45.74552 59.27904 52.51228
# Shear Modulus (GPa) = 25.98820 28.62018 27.30419
#
# Velocity S-wave (km/s) = 3.77246 3.95888 3.86680
# Velocity P-wave (km/s) = 6.63522 7.30472 6.97800
#
# Compressibility (1/GPa) = 0.02186006
#
# Stress axis : x y z
#
# Youngs Moduli (GPa) = 39.84916 103.87229 62.79286
#
# Poissons Ratio (x) = 0.19102 0.45310
# Poissons Ratio (y) = 0.07328 0.33524
# Poissons Ratio (z) = 0.28754 0.55456
#
# Static dielectric constant tensor:
#      x y z
#    x 3.338410 0.000000 0.000000 
#    y 0.000000 2.487440 0.000000 
#    z 0.000000 0.000000 3.224470 
# 
# 
# High freq. dielectric constant tensor:
#      x y z
#    x 1.709780 0.000000 0.000000 
#    y 0.000000 1.704360 0.000000 
#    z 0.000000 0.000000 1.691060 
# 
# From -- ./inp_files/68312.got.cif
#   From: 2010.03.12/outbox.cif.g09.slc.cpg/sg65_35_cif.got.tgz:68312.got - 2010.04.10 20:52:16.
