data_PCOD8271992
_publ_section_title
;
Structure prediction by ZEFSAII (Michael W. Deem and Ramdas Pophale) SiO2 
 PCOD8271992
Probable space group: C M M M
;
_chemical_formula_sum "Si O2"
_cell_formula_units_Z 88
_cell_length_a 8.847756
_cell_length_b 18.177048
_cell_length_c 28.296745
_cell_angle_alpha 90.000000
_cell_angle_beta 90.000000
_cell_angle_gamma 90.000000
_cell_volume 4550.854731
_symmetry_space_group_name_H-M "C M M M"
_symmetry_group_IT_number 65
_symmetry_cell_setting 'orthorhombic'
loop_
_space_group_symop_operation_xyz
x,y,z
-x,-y,z
x,-y,-z
-x,y,-z
-x,-y,-z
x,y,-z
-x,y,z
x,-y,z
1/2+x,1/2+y,z
1/2-x,1/2-y,z
1/2+x,1/2-y,-z
1/2-x,1/2+y,-z
1/2-x,1/2-y,-z
1/2+x,1/2+y,-z
1/2-x,1/2+y,z
1/2+x,1/2-y,z
loop_
_atom_site_type_symbol
_atom_site_label
_atom_site_fract_x
_atom_site_fract_y
_atom_site_fract_z
Si Si1 0.177636 0.171059 0.681816
Si Si2 0.326165 0.414256 0.776409
Si Si3 0.321781 0.828498 0.859086
Si Si4 0.320410 0.917612 0.052279
Si Si5 0.829810 0.912672 0.500000
Si Si6 0.822483 0.414489 0.404147
O O1 0.250000 0.250000 0.689404
O O2 0.218834 0.122871 0.727272
O O3 0.245766 0.131929 0.636548
O O4 0.000000 0.179392 0.674609
O O5 0.500000 0.397970 0.789504
O O6 0.293829 0.500000 0.770973
O O7 0.219648 0.383341 0.817159
O O8 0.500000 0.819210 0.861173
O O9 0.250000 0.750000 0.849319
O O10 0.256913 0.861847 0.908284
O O11 0.500000 0.919395 0.054614
O O12 0.258636 0.000000 0.062340
O O13 0.267026 0.891550 0.000000
O O14 0.742297 0.884501 0.546289
O O15 0.000000 0.881072 0.500000
O O16 0.831231 0.000000 0.500000
O O17 0.782054 0.500000 0.396689
O O18 0.000000 0.400848 0.403663
#
# Coordination Sequence:
#
# PCOD8271992 Si02
#       6
#    16  16  16  16   8  16
#     4  11  23  39  58  81 111 146 183 223 273 330
#     4  10  22  40  61  84 110 141 179 226 277 329
#     4  11  22  35  54  81 112 147 185 225 273 328
#     4   8  15  30  52  77 105 139 182 230 276 324
#     4   9  17  31  54  83 114 149 188 229 273 323
#     4  10  20  35  57  85 115 147 186 231 276 323
#
# _framework density 19.337026000000002
#
# number of rings (size 3 to 8) (size 9 to 14) (size 15 to 20)
#    0.000    2.091    0.000    4.091    0.000    7.273 
#    0.000    0.455    0.000    1.636    0.000    6.364 
#    0.000    0.000    0.000    0.000    0.000    0.000 
#
# Total GULP energy -545686.915771 kJ/mol
# GULP energy per Si atom -12401.975358 kJ/mol
# Density = 1.929301 g / cm^3
# Si number density = 19.337026 Si / 1000 Ang^3
#
#
#
# Elastic Constant Matrix: (Units=GPa)
#
#
# Indices 1 2 3 4 5 6 
#
# 1 74.1176 46.8876 50.4782 0.0000 0.0000 0.0000
# 2 46.8876 112.1899 74.9247 0.0000 0.0000 0.0000
# 3 50.4782 74.9247 152.9005 0.0000 0.0000 0.0000
# 4 0.0000 0.0000 0.0000 -3.7889 0.0000 0.0000
# 5 0.0000 0.0000 0.0000 0.0000 37.0149 0.0000
# 6 0.0000 0.0000 0.0000 0.0000 0.0000 23.2732
#
#
#
# Elastic Compliance Matrix: (Units=1/GPa)
#
#
# Indices 1 2 3 4 5 6 
#
# 1 0.019627 -0.005760 -0.003657 0.000000 0.000000 0.000000
# 2 -0.005760 0.014940 -0.005419 0.000000 0.000000 0.000000
# 3 -0.003657 -0.005419 0.010403 0.000000 0.000000 0.000000
# 4 0.000000 0.000000 0.000000 -0.263927 0.000000 0.000000
# 5 0.000000 0.000000 0.000000 0.000000 0.027016 0.000000
# 6 0.000000 0.000000 0.000000 0.000000 0.000000 0.042968
#
#
# Mechanical properties :
#
#
# Convention : Reuss Voigt Hill
#
# Bulk Modulus (GPa) = 65.37296 75.97654 70.67475
# Shear Modulus (GPa) = -43.78215 22.42768 -10.67724
#
# Velocity S-wave (km/s) = -4.76348 3.40932 -2.35237
# Velocity P-wave (km/s) = 1.90425 7.40770 5.40833
#
# Compressibility (1/GPa) = 0.01529684
#
# Stress axis : x y z
#
# Youngs Moduli (GPa) = 50.95116 66.93390 96.12629
#
# Poissons Ratio (x) = 0.38557 0.35151
# Poissons Ratio (y) = 0.29350 0.52093
# Poissons Ratio (z) = 0.18631 0.36273
#
# Static dielectric constant tensor:
#      x y z
#    x 3.446330 0.000000 0.000000 
#    y 0.000000 3.484220 0.000000 
#    z 0.000000 0.000000 3.856980 
# 
# 
# High freq. dielectric constant tensor:
#      x y z
#    x 1.743010 0.000000 0.000000 
#    y 0.000000 1.747130 0.000000 
#    z 0.000000 0.000000 1.771220 
# 
# From -- ./inp_files/67579.got.cif
#   From: 2010.03.12/outbox.cif.g09.slc.cpg/sg65_34_cif.got.tgz:67579.got - 2010.04.10 20:52:16.
