data_PCOD8271673
_publ_section_title
;
Structure prediction by ZEFSAII (Michael W. Deem and Ramdas Pophale) SiO2 
 PCOD8271673
Probable space group: C M M M
;
_chemical_formula_sum "Si O2"
_cell_formula_units_Z 88
_cell_length_a 8.598833
_cell_length_b 27.503026
_cell_length_c 21.406755
_cell_angle_alpha 90.000000
_cell_angle_beta 90.000000
_cell_angle_gamma 90.000000
_cell_volume 5062.567566
_symmetry_space_group_name_H-M "C M M M"
_symmetry_group_IT_number 65
_symmetry_cell_setting 'orthorhombic'
loop_
_space_group_symop_operation_xyz
x,y,z
-x,-y,z
x,-y,-z
-x,y,-z
-x,-y,-z
x,y,-z
-x,y,z
x,-y,z
1/2+x,1/2+y,z
1/2-x,1/2-y,z
1/2+x,1/2-y,-z
1/2-x,1/2+y,-z
1/2-x,1/2-y,-z
1/2+x,1/2+y,-z
1/2-x,1/2+y,z
1/2+x,1/2-y,z
loop_
_atom_site_type_symbol
_atom_site_label
_atom_site_fract_x
_atom_site_fract_y
_atom_site_fract_z
Si Si1 0.683648 0.052863 0.745068
Si Si2 0.816484 0.697893 0.068842
Si Si3 0.316008 0.444314 0.500000
Si Si4 0.184677 0.351921 0.807527
Si Si5 0.815930 0.606479 0.621340
Si Si6 0.684183 0.697463 0.687838
O O1 0.500000 0.048519 0.748167
O O2 0.740480 0.092649 0.795541
O O3 0.734330 0.069912 0.676416
O O4 0.759261 0.000000 0.759372
O O5 0.750000 0.750000 0.086383
O O6 0.760549 0.660592 0.122204
O O7 0.000000 0.702135 0.068874
O O8 0.757367 0.680808 0.000000
O O9 0.252679 0.500000 0.500000
O O10 0.500000 0.444389 0.500000
O O11 0.255640 0.415039 0.559158
O O12 0.263067 0.316029 0.757935
O O13 0.000000 0.346645 0.798577
O O14 0.748938 0.659696 0.636640
O O15 0.000000 0.610747 0.614704
O O16 0.500000 0.698163 0.684733
O O17 0.750000 0.750000 0.669868
#
# Coordination Sequence:
#
# PCOD8271673 Si02
#       6
#    16  16   8  16  16  16
#     4   8  14  26  46  70  93 119 155 197 237 280
#     4   9  17  28  42  62  90 123 158 198 243 290
#     4  11  23  37  54  79 110 139 167 203 247 291
#     4   9  17  29  46  69  95 125 162 201 242 290
#     4  10  20  35  54  76 100 130 169 206 244 290
#     4  11  21  34  52  74 101 130 161 200 247 296
#
# _framework density 17.382484999999999
#
# number of rings (size 3 to 8) (size 9 to 14) (size 15 to 20)
#    0.000    2.455    0.000    4.636    0.000    3.636 
#    0.000    0.455    0.000    5.455    0.000    3.818 
#    0.000    0.000    0.000   11.091    0.000   12.000 
#
# Total GULP energy -545423.984962 kJ/mol
# GULP energy per Si atom -12395.999658 kJ/mol
# Density = 1.734292 g / cm^3
# Si number density = 17.382485 Si / 1000 Ang^3
#
#
#
# Elastic Constant Matrix: (Units=GPa)
#
#
# Indices 1 2 3 4 5 6 
#
# 1 58.0502 35.8157 34.0410 0.0000 0.0000 0.0000
# 2 35.8157 164.3532 92.4045 0.0000 0.0000 0.0000
# 3 34.0410 92.4045 151.9446 0.0000 0.0000 0.0000
# 4 0.0000 0.0000 0.0000 -43.3874 0.0000 0.0000
# 5 0.0000 0.0000 0.0000 0.0000 20.6077 0.0000
# 6 0.0000 0.0000 0.0000 0.0000 0.0000 19.9660
#
#
#
# Elastic Compliance Matrix: (Units=1/GPa)
#
#
# Indices 1 2 3 4 5 6 
#
# 1 0.020699 -0.002892 -0.002878 0.000000 0.000000 0.000000
# 2 -0.002892 0.009650 -0.005221 0.000000 0.000000 0.000000
# 3 -0.002878 -0.005221 0.010401 0.000000 0.000000 0.000000
# 4 0.000000 0.000000 0.000000 -0.023048 0.000000 0.000000
# 5 0.000000 0.000000 0.000000 0.000000 0.048525 0.000000
# 6 0.000000 0.000000 0.000000 0.000000 0.000000 0.050085
#
#
# Mechanical properties :
#
#
# Convention : Reuss Voigt Hill
#
# Bulk Modulus (GPa) = 53.28407 77.65228 65.46818
# Shear Modulus (GPa) = 34.58995 13.57638 24.08316
#
# Velocity S-wave (km/s) = 4.46570 2.79774 3.72625
# Velocity P-wave (km/s) = 7.57037 7.43008 7.50055
#
# Compressibility (1/GPa) = 0.01876733
#
# Stress axis : x y z
#
# Youngs Moduli (GPa) = 48.31181 103.62762 96.14415
#
# Poissons Ratio (x) = 0.29974 0.27673
# Poissons Ratio (y) = 0.13974 0.50193
# Poissons Ratio (z) = 0.13905 0.54099
#
# Static dielectric constant tensor:
#      x y z
#    x 3.127250 0.000000 0.000000 
#    y 0.000000 3.637000 0.000000 
#    z 0.000000 0.000000 3.392430 
# 
# 
# High freq. dielectric constant tensor:
#      x y z
#    x 1.661090 0.000000 0.000000 
#    y 0.000000 1.673720 0.000000 
#    z 0.000000 0.000000 1.664740 
# 
# From -- ./inp_files/60682.got.cif
#   From: 2010.03.12/outbox.cif.g09.slc.cpg/sg65_31_cif.got.tgz:60682.got - 2010.04.10 20:52:16.
