data_PCOD8271643
_publ_section_title
;
Structure prediction by ZEFSAII (Michael W. Deem and Ramdas Pophale) SiO2 
 PCOD8271643
Probable space group: C M M M
;
_chemical_formula_sum "Si O2"
_cell_formula_units_Z 104
_cell_length_a 28.139826
_cell_length_b 24.023965
_cell_length_c 8.961979
_cell_angle_alpha 90.000000
_cell_angle_beta 90.000000
_cell_angle_gamma 90.000000
_cell_volume 6058.568410
_symmetry_space_group_name_H-M "C M M M"
_symmetry_group_IT_number 65
_symmetry_cell_setting 'orthorhombic'
loop_
_space_group_symop_operation_xyz
x,y,z
-x,-y,z
x,-y,-z
-x,y,-z
-x,-y,-z
x,y,-z
-x,y,z
x,-y,z
1/2+x,1/2+y,z
1/2-x,1/2-y,z
1/2+x,1/2-y,-z
1/2-x,1/2+y,-z
1/2-x,1/2-y,-z
1/2+x,1/2+y,-z
1/2-x,1/2+y,z
1/2+x,1/2-y,z
loop_
_atom_site_type_symbol
_atom_site_label
_atom_site_fract_x
_atom_site_fract_y
_atom_site_fract_z
Si Si1 0.444496 0.732877 0.327347
Si Si2 0.912564 0.124849 0.176530
Si Si3 0.870882 0.562401 0.175851
Si Si4 0.778071 0.566048 0.335365
Si Si5 0.054414 0.652550 0.174022
Si Si6 0.500000 0.565924 0.329476
Si Si7 0.827440 0.064792 0.674804
O O1 0.430339 0.729527 0.500000
O O2 0.500000 0.720493 0.302466
O O3 0.414974 0.687852 0.234844
O O4 0.430705 0.793302 0.266225
O O5 0.953274 0.087572 0.249155
O O6 0.861951 0.100399 0.222279
O O7 0.918667 0.123986 0.000000
O O8 0.879211 0.500000 0.240396
O O9 0.820110 0.587223 0.228058
O O10 0.913349 0.601702 0.232596
O O11 0.870226 0.560425 0.000000
O O12 0.788537 0.589915 0.500000
O O13 0.776943 0.500000 0.340411
O O14 0.725793 0.585398 0.282105
O O15 0.000000 0.635842 0.205420
O O16 0.062859 0.664982 0.000000
O O17 0.500000 0.500000 0.323071
O O18 0.500000 0.587641 0.500000
O O19 0.837688 0.075403 0.500000
O O20 0.834672 0.000000 0.712368
#
# Coordination Sequence:
#
# PCOD8271643 Si02
#       7
#    16  16  16  16  16   8  16
#     4  10  20  35  54  71  92 127 172 212 249 297
#     4  12  23  33  50  74 100 129 164 209 256 300
#     4   9  17  29  48  76 107 137 165 197 244 297
#     4   8  15  29  49  71  96 130 169 205 241 289
#     4   9  18  32  50  73 103 135 168 206 244 289
#     4  11  23  37  51  69  99 137 170 203 248 299
#     4   9  18  33  51  71  98 132 168 205 249 300
#
# _framework density 17.165772
#
# number of rings (size 3 to 8) (size 9 to 14) (size 15 to 20)
#    0.000    2.385    0.769    3.462    0.000    4.923 
#    0.000    3.077    0.000    0.923    0.000   10.769 
#    0.000    0.000    0.000    0.000    0.000    0.000 
#
# Total GULP energy -644761.663503 kJ/mol
# GULP energy per Si atom -12399.262760 kJ/mol
# Density = 1.712670 g / cm^3
# Si number density = 17.165772 Si / 1000 Ang^3
#
#
#
# Elastic Constant Matrix: (Units=GPa)
#
#
# Indices 1 2 3 4 5 6 
#
# 1 118.2724 64.0340 50.6381 0.0000 0.0000 0.0000
# 2 64.0340 89.9922 52.1476 0.0000 0.0000 0.0000
# 3 50.6381 52.1476 87.4899 0.0000 0.0000 0.0000
# 4 0.0000 0.0000 0.0000 23.9785 0.0000 0.0000
# 5 0.0000 0.0000 0.0000 0.0000 29.0174 0.0000
# 6 0.0000 0.0000 0.0000 0.0000 0.0000 7.5777
#
#
#
# Elastic Compliance Matrix: (Units=1/GPa)
#
#
# Indices 1 2 3 4 5 6 
#
# 1 0.014386 -0.008267 -0.003399 0.000000 0.000000 0.000000
# 2 -0.008267 0.021725 -0.008165 0.000000 0.000000 0.000000
# 3 -0.003399 -0.008165 0.018264 0.000000 0.000000 0.000000
# 4 0.000000 0.000000 0.000000 0.041704 0.000000 0.000000
# 5 0.000000 0.000000 0.000000 0.000000 0.034462 0.000000
# 6 0.000000 0.000000 0.000000 0.000000 0.000000 0.131967
#
#
# Mechanical properties :
#
#
# Convention : Reuss Voigt Hill
#
# Bulk Modulus (GPa) = 67.96124 69.93263 68.94693
# Shear Modulus (GPa) = 16.28275 20.71038 18.49657
#
# Velocity S-wave (km/s) = 3.08321 3.47723 3.28613
# Velocity P-wave (km/s) = 7.23547 7.54649 7.39261
#
# Compressibility (1/GPa) = 0.01471427
#
# Stress axis : x y z
#
# Youngs Moduli (GPa) = 69.51152 46.02918 54.75345
#
# Poissons Ratio (x) = 0.38051 0.18612
# Poissons Ratio (y) = 0.57463 0.44704
# Poissons Ratio (z) = 0.23628 0.37581
#
# Static dielectric constant tensor:
#      x y z
#    x 3.357390 0.000000 0.000000 
#    y 0.000000 3.157040 0.000000 
#    z 0.000000 0.000000 3.234290 
# 
# 
# High freq. dielectric constant tensor:
#      x y z
#    x 1.661110 0.000000 0.000000 
#    y 0.000000 1.642910 0.000000 
#    z 0.000000 0.000000 1.662570 
# 
# From -- ./inp_files/14817.got.cif
#   From: 2010.03.12/outbox.cif.g09.slc.cpg/sg65_8_cif.got.tgz:14817.got - 2010.04.10 20:52:16.
