data_PCOD8271156
_publ_section_title
;
Structure prediction by ZEFSAII (Michael W. Deem and Ramdas Pophale) SiO2 
 PCOD8271156
Probable space group: C M M M
;
_chemical_formula_sum "Si O2"
_cell_formula_units_Z 96
_cell_length_a 18.335941
_cell_length_b 14.562477
_cell_length_c 20.601063
_cell_angle_alpha 90.000000
_cell_angle_beta 90.000000
_cell_angle_gamma 90.000000
_cell_volume 5500.828252
_symmetry_space_group_name_H-M "C M M M"
_symmetry_group_IT_number 65
_symmetry_cell_setting 'orthorhombic'
loop_
_space_group_symop_operation_xyz
x,y,z
-x,-y,z
x,-y,-z
-x,y,-z
-x,-y,-z
x,y,-z
-x,y,z
x,-y,z
1/2+x,1/2+y,z
1/2-x,1/2-y,z
1/2+x,1/2-y,-z
1/2-x,1/2+y,-z
1/2-x,1/2-y,-z
1/2+x,1/2+y,-z
1/2-x,1/2+y,z
1/2+x,1/2-y,z
loop_
_atom_site_type_symbol
_atom_site_label
_atom_site_fract_x
_atom_site_fract_y
_atom_site_fract_z
Si Si1 0.830311 0.772462 0.072888
Si Si2 0.413247 0.396708 0.571473
Si Si3 0.414870 0.102560 0.888867
Si Si4 0.585370 0.392264 0.175913
Si Si5 0.586780 0.710279 0.693973
Si Si6 0.086665 0.400663 0.259013
O O1 0.750000 0.750000 0.100129
O O2 0.873755 0.676940 0.068371
O O3 0.869478 0.847021 0.117905
O O4 0.826115 0.813403 0.000000
O O5 0.388479 0.361293 0.500000
O O6 0.500000 0.396492 0.575628
O O7 0.384519 0.500000 0.582640
O O8 0.379938 0.332387 0.627919
O O9 0.500000 0.122523 0.894583
O O10 0.388191 0.113752 0.814813
O O11 0.396672 0.000000 0.914138
O O12 0.500000 0.372318 0.164126
O O13 0.602043 0.500000 0.177703
O O14 0.611746 0.349091 0.244051
O O15 0.500000 0.709846 0.690699
O O16 0.616771 0.815044 0.699069
O O17 0.115793 0.500000 0.285111
O O18 0.000000 0.401670 0.260908
#
# Coordination Sequence:
#
# PCOD8271156 Si02
#       6
#    16  16  16  16  16  16
#     4  11  24  38  50  67  96 131 160 190 238 299
#     4   8  13  20  31  53  88 126 158 186 224 279
#     4   9  17  32  54  75  91 111 150 203 248 281
#     4  10  20  34  53  75  96 123 163 205 242 285
#     4   9  14  23  42  65  90 120 154 193 235 280
#     4   8  13  22  40  65  87 107 138 187 241 280
#
# _framework density 17.451917999999999
#
# number of rings (size 3 to 8) (size 9 to 14) (size 15 to 20)
#    0.000    2.833    1.667    2.500    0.000    4.667 
#    0.000    3.333    0.000    0.500    0.000    3.500 
#    0.000    0.667    0.000    0.000    0.000    0.000 
#
# Total GULP energy -594855.705491 kJ/mol
# GULP energy per Si atom -12392.827198 kJ/mol
# Density = 1.741220 g / cm^3
# Si number density = 17.451918 Si / 1000 Ang^3
#
#
#
# Elastic Constant Matrix: (Units=GPa)
#
#
# Indices 1 2 3 4 5 6 
#
# 1 33.4815 30.2274 23.6846 0.0000 0.0000 0.0000
# 2 30.2274 137.5466 69.5313 0.0000 0.0000 0.0000
# 3 23.6846 69.5313 117.4679 0.0000 0.0000 0.0000
# 4 0.0000 0.0000 0.0000 30.2841 0.0000 0.0000
# 5 0.0000 0.0000 0.0000 0.0000 9.9305 0.0000
# 6 0.0000 0.0000 0.0000 0.0000 0.0000 9.1692
#
#
#
# Elastic Compliance Matrix: (Units=1/GPa)
#
#
# Indices 1 2 3 4 5 6 
#
# 1 0.038490 -0.006472 -0.003930 0.000000 0.000000 0.000000
# 2 -0.006472 0.011463 -0.005480 0.000000 0.000000 0.000000
# 3 -0.003930 -0.005480 0.012549 0.000000 0.000000 0.000000
# 4 0.000000 0.000000 0.000000 0.033021 0.000000 0.000000
# 5 0.000000 0.000000 0.000000 0.000000 0.100700 0.000000
# 6 0.000000 0.000000 0.000000 0.000000 0.000000 0.109061
#
#
# Mechanical properties :
#
#
# Convention : Reuss Voigt Hill
#
# Bulk Modulus (GPa) = 32.53274 59.48695 46.00985
# Shear Modulus (GPa) = 14.39705 20.88027 17.63866
#
# Velocity S-wave (km/s) = 2.87532 3.46272 3.18260
# Velocity P-wave (km/s) = 5.45024 7.08149 6.31872
#
# Compressibility (1/GPa) = 0.03073827
#
# Stress axis : x y z
#
# Youngs Moduli (GPa) = 25.98065 87.23838 79.68728
#
# Poissons Ratio (x) = 0.56462 0.31314
# Poissons Ratio (y) = 0.16815 0.43669
# Poissons Ratio (z) = 0.10209 0.47808
#
# Static dielectric constant tensor:
#      x y z
#    x 2.697930 0.000000 0.000000 
#    y 0.000000 3.615720 0.000000 
#    z 0.000000 0.000000 3.342530 
# 
# 
# High freq. dielectric constant tensor:
#      x y z
#    x 1.612060 0.000000 0.000000 
#    y 0.000000 1.687140 0.000000 
#    z 0.000000 0.000000 1.663820 
# 
# From -- ./inp_files/62644.got.cif
#   From: 2010.03.12/outbox.cif.g09.slc.cpg/sg65_32_cif.got.tgz:62644.got - 2010.04.10 20:52:16.
