data_PCOD8271584
_publ_section_title
;
Structure prediction by ZEFSAII (Michael W. Deem and Ramdas Pophale) SiO2 
 PCOD8271584
Probable space group: C M M M
;
_chemical_formula_sum "Si O2"
_cell_formula_units_Z 88
_cell_length_a 14.212895
_cell_length_b 14.270215
_cell_length_c 21.362929
_cell_angle_alpha 90.000000
_cell_angle_beta 90.000000
_cell_angle_gamma 90.000000
_cell_volume 4332.852063
_symmetry_space_group_name_H-M "C M M M"
_symmetry_group_IT_number 65
_symmetry_cell_setting 'orthorhombic'
loop_
_space_group_symop_operation_xyz
x,y,z
-x,-y,z
x,-y,-z
-x,y,-z
-x,-y,-z
x,y,-z
-x,y,z
x,-y,z
1/2+x,1/2+y,z
1/2-x,1/2-y,z
1/2+x,1/2-y,-z
1/2-x,1/2+y,-z
1/2-x,1/2-y,-z
1/2+x,1/2+y,-z
1/2-x,1/2+y,z
1/2+x,1/2-y,z
loop_
_atom_site_type_symbol
_atom_site_label
_atom_site_fract_x
_atom_site_fract_y
_atom_site_fract_z
Si Si1 0.212292 0.104528 0.265940
Si Si2 0.727466 0.389036 0.876817
Si Si3 0.892261 0.729308 0.927242
Si Si4 0.388025 0.606561 0.500000
Si Si5 0.892028 0.202503 0.623636
Si Si6 0.104437 0.398385 0.335123
O O1 0.197459 0.133340 0.194444
O O2 0.159273 0.173969 0.312575
O O3 0.323946 0.109337 0.277687
O O4 0.173290 0.000000 0.278383
O O5 0.724889 0.500000 0.891536
O O6 0.831685 0.348610 0.890132
O O7 0.650917 0.333605 0.918205
O O8 0.000000 0.727120 0.903167
O O9 0.887368 0.703905 0.000000
O O10 0.354920 0.500000 0.500000
O O11 0.500000 0.617856 0.500000
O O12 0.346212 0.654561 0.562538
O O13 0.879432 0.314623 0.615097
O O14 0.000000 0.171814 0.630109
O O15 0.116413 0.500000 0.369195
O O16 0.000000 0.388864 0.306007
#
# Coordination Sequence:
#
# PCOD8271584 Si02
#       6
#    16  16  16   8  16  16
#     4  10  21  36  55  83 115 145 185 235 287 343
#     4  10  22  39  61  89 122 159 201 250 302 359
#     4  10  23  41  61  89 124 160 202 249 295 352
#     4   9  18  34  54  79 112 148 191 238 286 347
#     4  10  20  34  57  83 110 148 188 234 293 347
#     4   9  19  35  53  76 109 147 186 228 278 340
#
# _framework density 20.309947999999999
#
# number of rings (size 3 to 8) (size 9 to 14) (size 15 to 20)
#    0.000    2.273    0.000    2.182    5.091    4.727 
#    0.000    7.727    0.000    4.909    0.000    0.000 
#    0.000    0.000    0.000    0.000    0.000    0.000 
#
# Total GULP energy -545382.619030 kJ/mol
# GULP energy per Si atom -12395.059523 kJ/mol
# Density = 2.026372 g / cm^3
# Si number density = 20.309948 Si / 1000 Ang^3
#
#
#
# Elastic Constant Matrix: (Units=GPa)
#
#
# Indices 1 2 3 4 5 6 
#
# 1 94.3932 34.5337 29.0368 0.0000 0.0000 0.0000
# 2 34.5337 137.4251 45.8075 0.0000 0.0000 0.0000
# 3 29.0368 45.8075 93.1845 0.0000 0.0000 0.0000
# 4 0.0000 0.0000 0.0000 29.6306 0.0000 0.0000
# 5 0.0000 0.0000 0.0000 0.0000 22.0075 0.0000
# 6 0.0000 0.0000 0.0000 0.0000 0.0000 22.6927
#
#
#
# Elastic Compliance Matrix: (Units=1/GPa)
#
#
# Indices 1 2 3 4 5 6 
#
# 1 0.012229 -0.002156 -0.002751 0.000000 0.000000 0.000000
# 2 -0.002156 0.009083 -0.003793 0.000000 0.000000 0.000000
# 3 -0.002751 -0.003793 0.013453 0.000000 0.000000 0.000000
# 4 0.000000 0.000000 0.000000 0.033749 0.000000 0.000000
# 5 0.000000 0.000000 0.000000 0.000000 0.045439 0.000000
# 6 0.000000 0.000000 0.000000 0.000000 0.000000 0.044067
#
#
# Mechanical properties :
#
#
# Convention : Reuss Voigt Hill
#
# Bulk Modulus (GPa) = 57.58675 60.41766 59.00220
# Shear Modulus (GPa) = 27.59256 29.24113 28.41684
#
# Velocity S-wave (km/s) = 3.68988 3.79851 3.74459
# Velocity P-wave (km/s) = 6.82416 7.00362 6.91447
#
# Compressibility (1/GPa) = 0.01736511
#
# Stress axis : x y z
#
# Youngs Moduli (GPa) = 81.77309 110.09774 74.33222
#
# Poissons Ratio (x) = 0.23739 0.20447
# Poissons Ratio (y) = 0.17631 0.28195
# Poissons Ratio (z) = 0.22493 0.41761
#
# Static dielectric constant tensor:
#      x y z
#    x 3.724100 0.000000 0.000000 
#    y 0.000000 3.942650 0.000000 
#    z 0.000000 0.000000 3.484070 
# 
# 
# High freq. dielectric constant tensor:
#      x y z
#    x 1.789170 0.000000 0.000000 
#    y 0.000000 1.810010 0.000000 
#    z 0.000000 0.000000 1.772360 
# 
# From -- ./inp_files/62468.got.cif
#   From: 2010.03.12/outbox.cif.g09.slc.cpg/sg65_32_cif.got.tgz:62468.got - 2010.04.10 20:52:16.
