data_PCOD8271921
_publ_section_title
;
Structure prediction by ZEFSAII (Michael W. Deem and Ramdas Pophale) SiO2 
 PCOD8271921
Probable space group: C M M M
;
_chemical_formula_sum "Si O2"
_cell_formula_units_Z 104
_cell_length_a 25.740771
_cell_length_b 21.554972
_cell_length_c 9.514163
_cell_angle_alpha 90.000000
_cell_angle_beta 90.000000
_cell_angle_gamma 90.000000
_cell_volume 5278.853404
_symmetry_space_group_name_H-M "C M M M"
_symmetry_group_IT_number 65
_symmetry_cell_setting 'orthorhombic'
loop_
_space_group_symop_operation_xyz
x,y,z
-x,-y,z
x,-y,-z
-x,y,-z
-x,-y,-z
x,y,-z
-x,y,z
x,-y,z
1/2+x,1/2+y,z
1/2-x,1/2-y,z
1/2+x,1/2-y,-z
1/2-x,1/2+y,-z
1/2-x,1/2-y,-z
1/2+x,1/2+y,-z
1/2-x,1/2+y,z
1/2+x,1/2-y,z
loop_
_atom_site_type_symbol
_atom_site_label
_atom_site_fract_x
_atom_site_fract_y
_atom_site_fract_z
Si Si1 0.766671 0.818779 0.663330
Si Si2 0.612897 0.336428 0.338367
Si Si3 0.288723 0.071189 0.834790
Si Si4 0.942229 0.071994 0.841668
Si Si5 0.000000 0.570769 0.652133
Si Si6 0.941015 0.737278 0.155610
Si Si7 0.595666 0.105306 0.157917
O O1 0.751237 0.827573 0.500000
O O2 0.750000 0.750000 0.716655
O O3 0.827820 0.819975 0.686885
O O4 0.742425 0.876244 0.749333
O O5 0.598516 0.341762 0.500000
O O6 0.600118 0.401284 0.264683
O O7 0.575322 0.285611 0.272149
O O8 0.349212 0.077775 0.795010
O O9 0.271432 0.000000 0.796530
O O10 0.279912 0.083685 0.000000
O O11 0.000000 0.100652 0.817611
O O12 0.944822 0.000000 0.811737
O O13 0.923716 0.085735 0.000000
O O14 0.948062 0.584043 0.736554
O O15 0.000000 0.500000 0.615864
O O16 0.000000 0.606350 0.500000
O O17 0.901697 0.679736 0.163070
O O18 0.000000 0.714143 0.185215
O O19 0.937563 0.767826 0.000000
O O20 0.581855 0.082633 0.000000
#
# Coordination Sequence:
#
# PCOD8271921 Si02
#       7
#    16  16  16  16   8  16  16
#     4  10  23  43  62  82 114 156 201 246 297 356
#     4  11  23  36  55  84 113 146 189 236 290 347
#     4  10  22  39  62  92 120 150 196 250 301 354
#     4   9  19  37  59  82 111 149 188 226 277 343
#     4  11  23  35  51  81 117 151 190 231 272 327
#     4  10  20  35  56  84 116 151 192 233 281 343
#     4  10  20  38  60  83 114 153 193 235 284 335
#
# _framework density 19.701249000000001
#
# number of rings (size 3 to 8) (size 9 to 14) (size 15 to 20)
#    0.000    1.923    0.769    3.000    0.000    7.692 
#    0.000    3.846    0.000    0.000    0.000    0.000 
#    0.000    0.000    0.000    0.000    0.000    0.000 
#
# Total GULP energy -644637.043650 kJ/mol
# GULP energy per Si atom -12396.866224 kJ/mol
# Density = 1.965641 g / cm^3
# Si number density = 19.701249 Si / 1000 Ang^3
#
#
#
# Elastic Constant Matrix: (Units=GPa)
#
#
# Indices 1 2 3 4 5 6 
#
# 1 65.8415 44.4750 53.5801 0.0000 0.0000 0.0000
# 2 44.4750 117.8178 58.7327 0.0000 0.0000 0.0000
# 3 53.5801 58.7327 112.2636 0.0000 0.0000 0.0000
# 4 0.0000 0.0000 0.0000 47.6688 0.0000 0.0000
# 5 0.0000 0.0000 0.0000 0.0000 29.5631 0.0000
# 6 0.0000 0.0000 0.0000 0.0000 0.0000 33.2893
#
#
#
# Elastic Compliance Matrix: (Units=1/GPa)
#
#
# Indices 1 2 3 4 5 6 
#
# 1 0.026907 -0.005080 -0.010184 0.000000 0.000000 0.000000
# 2 -0.005080 0.012441 -0.004084 0.000000 0.000000 0.000000
# 3 -0.010184 -0.004084 0.015905 0.000000 0.000000 0.000000
# 4 0.000000 0.000000 0.000000 0.020978 0.000000 0.000000
# 5 0.000000 0.000000 0.000000 0.000000 0.033826 0.000000
# 6 0.000000 0.000000 0.000000 0.000000 0.000000 0.030040
#
#
# Mechanical properties :
#
#
# Convention : Reuss Voigt Hill
#
# Bulk Modulus (GPa) = 60.40061 67.72208 64.06135
# Shear Modulus (GPa) = 27.12764 31.37993 29.25378
#
# Velocity S-wave (km/s) = 3.71475 3.99531 3.85758
# Velocity P-wave (km/s) = 7.00885 7.46542 7.24073
#
# Compressibility (1/GPa) = 0.01655612
#
# Stress axis : x y z
#
# Youngs Moduli (GPa) = 37.16458 80.37616 62.87336
#
# Poissons Ratio (x) = 0.40834 0.64031
# Poissons Ratio (y) = 0.18881 0.25679
# Poissons Ratio (z) = 0.37849 0.32828
#
# Static dielectric constant tensor:
#      x y z
#    x 3.139870 0.000000 0.000000 
#    y 0.000000 3.705370 0.000000 
#    z 0.000000 0.000000 3.720230 
# 
# 
# High freq. dielectric constant tensor:
#      x y z
#    x 1.763850 0.000000 0.000000 
#    y 0.000000 1.777660 0.000000 
#    z 0.000000 0.000000 1.765910 
# 
# From -- ./inp_files/16492.got.cif
#   From: 2010.03.12/outbox.cif.g09.slc.cpg/sg65_9_cif.got.tgz:16492.got - 2010.04.10 20:52:16.
