data_PCOD8271289
_publ_section_title
;
Structure prediction by ZEFSAII (Michael W. Deem and Ramdas Pophale) SiO2 
 PCOD8271289
Probable space group: C M M M
;
_chemical_formula_sum "Si O2"
_cell_formula_units_Z 104
_cell_length_a 17.744886
_cell_length_b 19.296793
_cell_length_c 15.855486
_cell_angle_alpha 90.000000
_cell_angle_beta 90.000000
_cell_angle_gamma 90.000000
_cell_volume 5429.225875
_symmetry_space_group_name_H-M "C M M M"
_symmetry_group_IT_number 65
_symmetry_cell_setting 'orthorhombic'
loop_
_space_group_symop_operation_xyz
x,y,z
-x,-y,z
x,-y,-z
-x,y,-z
-x,-y,-z
x,y,-z
-x,y,z
x,-y,z
1/2+x,1/2+y,z
1/2-x,1/2-y,z
1/2+x,1/2-y,-z
1/2-x,1/2+y,-z
1/2-x,1/2-y,-z
1/2+x,1/2+y,-z
1/2-x,1/2+y,z
1/2+x,1/2-y,z
loop_
_atom_site_type_symbol
_atom_site_label
_atom_site_fract_x
_atom_site_fract_y
_atom_site_fract_z
Si Si1 0.850880 0.312235 0.500000
Si Si2 0.084048 0.000000 0.901132
Si Si3 0.823737 0.845963 0.500000
Si Si4 0.683272 0.632078 0.099308
Si Si5 0.914896 0.803007 0.224340
Si Si6 0.352513 0.579289 0.670185
Si Si7 0.794610 0.578884 0.776788
Si Si8 0.912378 0.665418 0.680552
O O1 0.861637 0.229552 0.500000
O O2 0.765430 0.336804 0.500000
O O3 0.890125 0.343438 0.417030
O O4 0.131588 0.933344 0.873648
O O5 0.000000 0.000000 0.860330
O O6 0.074538 0.000000 0.000000
O O7 0.852951 0.890670 0.422772
O O8 0.641266 0.697410 0.143078
O O9 0.765900 0.619521 0.139162
O O10 0.690742 0.644456 0.000000
O O11 0.909125 0.875369 0.273878
O O12 0.890121 0.742108 0.287706
O O13 0.000000 0.792620 0.191644
O O14 0.381057 0.500000 0.671604
O O15 0.267888 0.585589 0.704582
O O16 0.811315 0.500000 0.802101
O O17 0.870834 0.611126 0.740913
O O18 0.000000 0.650085 0.690783
#
# Coordination Sequence:
#
# PCOD8271289 Si02
#       8
#     8   8   8  16  16  16  16  16
#     4  11  21  36  62  85 110 152 198 251 291 349
#     4   9  16  28  50  84 119 150 185 222 273 338
#     4  11  19  32  58  83 112 150 194 241 290 348
#     4  10  20  35  59  87 117 154 190 233 286 342
#     4  10  22  37  55  82 119 158 196 237 285 349
#     4  10  20  34  53  80 116 155 191 236 290 342
#     4  10  21  38  60  85 115 146 190 248 302 357
#     4  11  23  41  61  83 114 153 196 247 305 352
#
# _framework density 19.155586
#
# number of rings (size 3 to 8) (size 9 to 14) (size 15 to 20)
#    0.000    1.769    3.846    0.923    1.077    4.000 
#    0.000    2.308    0.000    3.231    0.000    1.077 
#    0.000    0.000    0.000    0.000    0.000    0.000 
#
# Total GULP energy -644802.315561 kJ/mol
# GULP energy per Si atom -12400.044530 kJ/mol
# Density = 1.911199 g / cm^3
# Si number density = 19.155586 Si / 1000 Ang^3
#
#
#
# Elastic Constant Matrix: (Units=GPa)
#
#
# Indices 1 2 3 4 5 6 
#
# 1 83.0367 24.3486 40.0288 0.0000 0.0000 0.0000
# 2 24.3486 54.8482 28.3212 0.0000 0.0000 0.0000
# 3 40.0288 28.3212 140.5732 0.0000 0.0000 0.0000
# 4 0.0000 0.0000 0.0000 23.1950 0.0000 0.0000
# 5 0.0000 0.0000 0.0000 0.0000 14.5548 0.0000
# 6 0.0000 0.0000 0.0000 0.0000 0.0000 28.9089
#
#
#
# Elastic Compliance Matrix: (Units=1/GPa)
#
#
# Indices 1 2 3 4 5 6 
#
# 1 0.015096 -0.005002 -0.003291 0.000000 0.000000 0.000000
# 2 -0.005002 0.022007 -0.003009 0.000000 0.000000 0.000000
# 3 -0.003291 -0.003009 0.008657 0.000000 0.000000 0.000000
# 4 0.000000 0.000000 0.000000 0.043113 0.000000 0.000000
# 5 0.000000 0.000000 0.000000 0.000000 0.068706 0.000000
# 6 0.000000 0.000000 0.000000 0.000000 0.000000 0.034591
#
#
# Mechanical properties :
#
#
# Convention : Reuss Voigt Hill
#
# Bulk Modulus (GPa) = 43.18722 51.53948 47.36335
# Shear Modulus (GPa) = 22.47263 25.71570 24.09417
#
# Velocity S-wave (km/s) = 3.42886 3.66794 3.55042
# Velocity P-wave (km/s) = 6.18632 6.70093 6.44876
#
# Compressibility (1/GPa) = 0.02315500
#
# Stress axis : x y z
#
# Youngs Moduli (GPa) = 66.24243 45.44089 115.51232
#
# Poissons Ratio (x) = 0.22731 0.38014
# Poissons Ratio (y) = 0.33136 0.34760
# Poissons Ratio (z) = 0.21799 0.13674
#
# Static dielectric constant tensor:
#      x y z
#    x 3.335310 0.000000 0.000000 
#    y 0.000000 3.609690 0.000000 
#    z 0.000000 0.000000 3.539210 
# 
# 
# High freq. dielectric constant tensor:
#      x y z
#    x 1.730050 0.000000 0.000000 
#    y 0.000000 1.734400 0.000000 
#    z 0.000000 0.000000 1.750920 
# 
# From -- ./inp_files/42919.got.cif
#   From: 2010.03.12/outbox.cif.g09.slc.cpg/sg65_22_cif.got.tgz:42919.got - 2010.04.10 20:52:16.
