data_PCOD8271231
_publ_section_title
;
Structure prediction by ZEFSAII (Michael W. Deem and Ramdas Pophale) SiO2 
 PCOD8271231
Probable space group: C M M M
;
_chemical_formula_sum "Si O2"
_cell_formula_units_Z 104
_cell_length_a 29.241109
_cell_length_b 20.933326
_cell_length_c 8.843265
_cell_angle_alpha 90.000000
_cell_angle_beta 90.000000
_cell_angle_gamma 90.000000
_cell_volume 5413.083370
_symmetry_space_group_name_H-M "C M M M"
_symmetry_group_IT_number 65
_symmetry_cell_setting 'orthorhombic'
loop_
_space_group_symop_operation_xyz
x,y,z
-x,-y,z
x,-y,-z
-x,y,-z
-x,-y,-z
x,y,-z
-x,y,z
x,-y,z
1/2+x,1/2+y,z
1/2-x,1/2-y,z
1/2+x,1/2-y,-z
1/2-x,1/2+y,-z
1/2-x,1/2-y,-z
1/2+x,1/2+y,-z
1/2-x,1/2+y,z
1/2+x,1/2-y,z
loop_
_atom_site_type_symbol
_atom_site_label
_atom_site_fract_x
_atom_site_fract_y
_atom_site_fract_z
Si Si1 0.550852 0.323894 0.668640
Si Si2 0.052297 0.370881 0.678390
Si Si3 0.709200 0.296992 0.178402
Si Si4 0.553965 0.000000 0.832399
Si Si5 0.410449 0.428037 0.168283
Si Si6 0.385830 0.234317 0.826075
Si Si7 0.187194 0.927491 0.678858
O O1 0.571099 0.313717 0.500000
O O2 0.500000 0.295599 0.671640
O O3 0.551832 0.397476 0.719461
O O4 0.581183 0.293828 0.800357
O O5 0.051615 0.374828 0.500000
O O6 0.070226 0.437755 0.743152
O O7 0.091214 0.321246 0.727034
O O8 0.000000 0.354614 0.735315
O O9 0.750000 0.250000 0.226425
O O10 0.663945 0.257628 0.229678
O O11 0.716375 0.366752 0.258227
O O12 0.708289 0.310029 0.000000
O O13 0.500000 0.000000 0.843691
O O14 0.575838 0.000000 0.000000
O O15 0.425895 0.500000 0.155438
O O16 0.361236 0.419584 0.242858
O O17 0.409111 0.397472 0.000000
O O18 0.384969 0.212716 0.000000
O O19 0.182377 0.919927 0.500000
O O20 0.206814 0.000000 0.716196
#
# Coordination Sequence:
#
# PCOD8271231 Si02
#       7
#    16  16  16   8  16  16  16
#     4  11  23  36  51  75 110 149 187 230 279 328
#     4  10  20  34  54  81 114 151 189 230 279 335
#     4  10  22  40  62  88 116 147 189 236 287 346
#     4   9  17  31  53  81 111 145 189 235 275 327
#     4  10  20  34  53  77 106 144 189 233 277 325
#     4  11  22  36  56  81 110 146 187 232 278 330
#     4  10  20  35  59  89 117 147 187 234 284 341
#
# _framework density 19.212710000000001
#
# number of rings (size 3 to 8) (size 9 to 14) (size 15 to 20)
#    0.000    1.769    1.538    3.000    0.000    8.000 
#    0.000    1.538    1.692    0.000    0.000    0.000 
#    0.000    0.000    0.000    0.000    0.000    0.000 
#
# Total GULP energy -644249.225393 kJ/mol
# GULP energy per Si atom -12389.408181 kJ/mol
# Density = 1.916898 g / cm^3
# Si number density = 19.212710 Si / 1000 Ang^3
#
#
#
# Elastic Constant Matrix: (Units=GPa)
#
#
# Indices 1 2 3 4 5 6 
#
# 1 78.8924 51.5043 28.7606 0.0000 0.0000 0.0000
# 2 51.5043 127.8221 49.4827 0.0000 0.0000 0.0000
# 3 28.7606 49.4827 83.0804 0.0000 0.0000 0.0000
# 4 0.0000 0.0000 0.0000 36.2837 0.0000 0.0000
# 5 0.0000 0.0000 0.0000 0.0000 22.2749 0.0000
# 6 0.0000 0.0000 0.0000 0.0000 0.0000 29.5832
#
#
#
# Elastic Compliance Matrix: (Units=1/GPa)
#
#
# Indices 1 2 3 4 5 6 
#
# 1 0.017568 -0.006140 -0.002425 0.000000 0.000000 0.000000
# 2 -0.006140 0.012314 -0.005209 0.000000 0.000000 0.000000
# 3 -0.002425 -0.005209 0.015978 0.000000 0.000000 0.000000
# 4 0.000000 0.000000 0.000000 0.027561 0.000000 0.000000
# 5 0.000000 0.000000 0.000000 0.000000 0.044894 0.000000
# 6 0.000000 0.000000 0.000000 0.000000 0.000000 0.033803
#
#
# Mechanical properties :
#
#
# Convention : Reuss Voigt Hill
#
# Bulk Modulus (GPa) = 54.60505 61.03225 57.81865
# Shear Modulus (GPa) = 26.91532 28.29818 27.60675
#
# Velocity S-wave (km/s) = 3.74694 3.84199 3.79476
# Velocity P-wave (km/s) = 6.87040 7.17751 7.02564
#
# Compressibility (1/GPa) = 0.01831332
#
# Stress axis : x y z
#
# Youngs Moduli (GPa) = 56.92186 81.20957 62.58590
#
# Poissons Ratio (x) = 0.49864 0.15174
# Poissons Ratio (y) = 0.34951 0.32598
# Poissons Ratio (z) = 0.13801 0.42298
#
# Static dielectric constant tensor:
#      x y z
#    x 3.273270 0.000000 0.000000 
#    y 0.000000 4.148090 0.000000 
#    z 0.000000 0.000000 3.640320 
# 
# 
# High freq. dielectric constant tensor:
#      x y z
#    x 1.705240 0.000000 0.000000 
#    y 0.000000 1.763060 0.000000 
#    z 0.000000 0.000000 1.758510 
# 
# From -- ./inp_files/16498.got.cif
#   From: 2010.03.12/outbox.cif.g09.slc.cpg/sg65_9_cif.got.tgz:16498.got - 2010.04.10 20:52:16.
