data_PCOD8271552
_publ_section_title
;
Structure prediction by ZEFSAII (Michael W. Deem and Ramdas Pophale) SiO2 
 PCOD8271552
Probable space group: C M M M
;
_chemical_formula_sum "Si O2"
_cell_formula_units_Z 104
_cell_length_a 28.698423
_cell_length_b 9.033336
_cell_length_c 20.298755
_cell_angle_alpha 90.000000
_cell_angle_beta 90.000000
_cell_angle_gamma 90.000000
_cell_volume 5262.299945
_symmetry_space_group_name_H-M "C M M M"
_symmetry_group_IT_number 65
_symmetry_cell_setting 'orthorhombic'
loop_
_space_group_symop_operation_xyz
x,y,z
-x,-y,z
x,-y,-z
-x,y,-z
-x,-y,-z
x,y,-z
-x,y,z
x,-y,z
1/2+x,1/2+y,z
1/2-x,1/2-y,z
1/2+x,1/2-y,-z
1/2-x,1/2+y,-z
1/2-x,1/2-y,-z
1/2+x,1/2+y,-z
1/2-x,1/2+y,z
1/2+x,1/2-y,z
loop_
_atom_site_type_symbol
_atom_site_label
_atom_site_fract_x
_atom_site_fract_y
_atom_site_fract_z
Si Si1 0.447286 0.824218 0.572145
Si Si2 0.610850 0.827479 0.923019
Si Si3 0.704514 0.667167 0.921617
Si Si4 0.798361 0.671798 0.500000
Si Si5 0.798705 0.327995 0.642608
Si Si6 0.553703 0.326320 0.182424
Si Si7 0.893649 0.325091 0.300700
O O1 0.428508 0.770268 0.500000
O O2 0.500000 0.767712 0.581975
O O3 0.416742 0.762511 0.632186
O O4 0.445567 0.000000 0.573242
O O5 0.658822 0.754320 0.897835
O O6 0.567805 0.751891 0.885799
O O7 0.613196 0.000000 0.905836
O O8 0.602829 0.799620 0.000000
O O9 0.703143 0.500000 0.893903
O O10 0.750000 0.750000 0.892994
O O11 0.706762 0.665627 0.000000
O O12 0.788958 0.500000 0.500000
O O13 0.750000 0.750000 0.500000
O O14 0.821615 0.714981 0.429615
O O15 0.787070 0.500000 0.644167
O O16 0.750000 0.250000 0.659379
O O17 0.838368 0.289260 0.696082
O O18 0.500000 0.289554 0.197324
O O19 0.562387 0.500000 0.175520
O O20 0.585394 0.262403 0.240056
O O21 0.902897 0.500000 0.291859
#
# Coordination Sequence:
#
# PCOD8271552 Si02
#       7
#    16  16  16   8  16  16  16
#     4   8  14  25  45  76 108 135 171 225 283 330
#     4  10  21  38  62  91 119 147 186 237 289 343
#     4   9  16  28  50  82 121 160 193 226 268 321
#     4   8  14  26  44  70 105 142 181 225 274 325
#     4   9  18  31  50  77 110 148 187 231 280 331
#     4  11  25  43  61  82 111 148 187 229 285 353
#     4  10  20  34  56  82 109 144 188 235 281 332
#
# _framework density 19.763221999999999
#
# number of rings (size 3 to 8) (size 9 to 14) (size 15 to 20)
#    0.000    2.615    0.000    2.308    1.077    5.538 
#    0.000    2.308    0.000    2.308    0.000    2.154 
#    0.000    0.000    0.000    0.000    0.000    0.000 
#
# Total GULP energy -644434.038427 kJ/mol
# GULP energy per Si atom -12392.962277 kJ/mol
# Density = 1.971824 g / cm^3
# Si number density = 19.763222 Si / 1000 Ang^3
#
#
#
# Elastic Constant Matrix: (Units=GPa)
#
#
# Indices 1 2 3 4 5 6 
#
# 1 113.8281 57.7477 58.9119 0.0000 0.0000 0.0000
# 2 57.7477 91.8551 45.7887 0.0000 0.0000 0.0000
# 3 58.9119 45.7887 84.1304 0.0000 0.0000 0.0000
# 4 0.0000 0.0000 0.0000 21.3800 0.0000 0.0000
# 5 0.0000 0.0000 0.0000 0.0000 29.4624 0.0000
# 6 0.0000 0.0000 0.0000 0.0000 0.0000 30.8546
#
#
#
# Elastic Compliance Matrix: (Units=1/GPa)
#
#
# Indices 1 2 3 4 5 6 
#
# 1 0.015944 -0.006118 -0.007835 0.000000 0.000000 0.000000
# 2 -0.006118 0.017288 -0.005125 0.000000 0.000000 0.000000
# 3 -0.007835 -0.005125 0.020162 0.000000 0.000000 0.000000
# 4 0.000000 0.000000 0.000000 0.046773 0.000000 0.000000
# 5 0.000000 0.000000 0.000000 0.000000 0.033942 0.000000
# 6 0.000000 0.000000 0.000000 0.000000 0.000000 0.032410
#
#
# Mechanical properties :
#
#
# Convention : Reuss Voigt Hill
#
# Bulk Modulus (GPa) = 65.62546 68.30112 66.96329
# Shear Modulus (GPa) = 23.83759 24.83041 24.33400
#
# Velocity S-wave (km/s) = 3.47675 3.54841 3.51276
# Velocity P-wave (km/s) = 7.02816 7.17099 7.09993
#
# Compressibility (1/GPa) = 0.01523799
#
# Stress axis : x y z
#
# Youngs Moduli (GPa) = 62.71969 57.84454 49.59862
#
# Poissons Ratio (x) = 0.35390 0.38860
# Poissons Ratio (y) = 0.38373 0.25418
# Poissons Ratio (z) = 0.49140 0.29644
#
# Static dielectric constant tensor:
#      x y z
#    x 3.647530 0.000000 0.000000 
#    y 0.000000 3.431960 0.000000 
#    z 0.000000 0.000000 3.474280 
# 
# 
# High freq. dielectric constant tensor:
#      x y z
#    x 1.773050 0.000000 0.000000 
#    y 0.000000 1.749990 0.000000 
#    z 0.000000 0.000000 1.759980 
# 
# From -- ./inp_files/65903.got.cif
#   From: 2010.03.12/outbox.cif.g09.slc.cpg/sg65_33_cif.got.tgz:65903.got - 2010.04.10 20:52:16.
