data_PCOD8271797
_publ_section_title
;
Structure prediction by ZEFSAII (Michael W. Deem and Ramdas Pophale) SiO2 
 PCOD8271797
Probable space group: C M M M
;
_chemical_formula_sum "Si O2"
_cell_formula_units_Z 88
_cell_length_a 22.312367
_cell_length_b 22.651491
_cell_length_c 8.631715
_cell_angle_alpha 90.000000
_cell_angle_beta 90.000000
_cell_angle_gamma 90.000000
_cell_volume 4362.541097
_symmetry_space_group_name_H-M "C M M M"
_symmetry_group_IT_number 65
_symmetry_cell_setting 'orthorhombic'
loop_
_space_group_symop_operation_xyz
x,y,z
-x,-y,z
x,-y,-z
-x,y,-z
-x,-y,-z
x,y,-z
-x,y,z
x,-y,z
1/2+x,1/2+y,z
1/2-x,1/2-y,z
1/2+x,1/2-y,-z
1/2-x,1/2+y,-z
1/2-x,1/2-y,-z
1/2+x,1/2+y,-z
1/2-x,1/2+y,z
1/2+x,1/2-y,z
loop_
_atom_site_type_symbol
_atom_site_label
_atom_site_fract_x
_atom_site_fract_y
_atom_site_fract_z
Si Si1 0.157144 0.626570 0.682836
Si Si2 0.212930 0.128266 0.823989
Si Si3 0.567121 0.784548 0.823828
Si Si4 0.500000 0.433579 0.317157
Si Si5 0.646988 0.000000 0.325654
Si Si6 0.593944 0.337272 0.319017
Si Si7 0.234087 0.000000 0.828569
O O1 0.168856 0.620872 0.500000
O O2 0.220067 0.640900 0.764622
O O3 0.110885 0.678377 0.714691
O O4 0.128456 0.563820 0.747872
O O5 0.164564 0.161173 0.718599
O O6 0.194930 0.059019 0.813608
O O7 0.208357 0.151461 0.000000
O O8 0.500000 0.810088 0.807762
O O9 0.565560 0.716885 0.772787
O O10 0.589832 0.789537 0.000000
O O11 0.500000 0.500000 0.243017
O O12 0.500000 0.440431 0.500000
O O13 0.559236 0.396831 0.265520
O O14 0.624014 0.000000 0.500000
O O15 0.719032 0.000000 0.312191
O O16 0.584687 0.326039 0.500000
O O17 0.265968 0.000000 0.000000
#
# Coordination Sequence:
#
# PCOD8271797 Si02
#       7
#    16  16  16   8   8  16   8
#     4  10  20  37  62  90 119 151 192 237 287 344
#     4  10  20  35  55  85 121 155 192 237 292 345
#     4  11  24  42  62  83 113 153 195 238 292 350
#     4   9  20  38  59  87 121 156 197 246 293 337
#     4   8  16  32  55  85 117 146 180 229 281 332
#     4  11  22  38  61  86 116 154 199 244 290 342
#     4   8  16  30  50  76 114 156 189 223 275 343
#
# _framework density 20.171728999999999
#
# number of rings (size 3 to 8) (size 9 to 14) (size 15 to 20)
#    0.000    2.091    0.909    2.182    1.273    3.273 
#    0.000    4.091    0.000    4.909    0.000    0.000 
#    0.000    0.000    0.000    0.000    0.000    0.000 
#
# Total GULP energy -545216.618605 kJ/mol
# GULP energy per Si atom -12391.286786 kJ/mol
# Density = 2.012582 g / cm^3
# Si number density = 20.171729 Si / 1000 Ang^3
#
#
#
# Elastic Constant Matrix: (Units=GPa)
#
#
# Indices 1 2 3 4 5 6 
#
# 1 94.4550 42.4244 21.6803 0.0000 0.0000 0.0000
# 2 42.4244 99.5592 13.0466 0.0000 0.0000 0.0000
# 3 21.6803 13.0466 54.2967 0.0000 0.0000 0.0000
# 4 0.0000 0.0000 0.0000 24.8145 0.0000 0.0000
# 5 0.0000 0.0000 0.0000 0.0000 24.2039 0.0000
# 6 0.0000 0.0000 0.0000 0.0000 0.0000 29.7927
#
#
#
# Elastic Compliance Matrix: (Units=1/GPa)
#
#
# Indices 1 2 3 4 5 6 
#
# 1 0.013999 -0.005403 -0.004291 0.000000 0.000000 0.000000
# 2 -0.005403 0.012456 -0.000836 0.000000 0.000000 0.000000
# 3 -0.004291 -0.000836 0.020332 0.000000 0.000000 0.000000
# 4 0.000000 0.000000 0.000000 0.040299 0.000000 0.000000
# 5 0.000000 0.000000 0.000000 0.000000 0.041316 0.000000
# 6 0.000000 0.000000 0.000000 0.000000 0.000000 0.033565
#
#
# Mechanical properties :
#
#
# Convention : Reuss Voigt Hill
#
# Bulk Modulus (GPa) = 38.87017 44.73483 41.80250
# Shear Modulus (GPa) = 26.09579 27.17285 26.63432
#
# Velocity S-wave (km/s) = 3.60068 3.67423 3.63764
# Velocity P-wave (km/s) = 6.04963 6.34233 6.19771
#
# Compressibility (1/GPa) = 0.02572667
#
# Stress axis : x y z
#
# Youngs Moduli (GPa) = 71.43511 80.28226 49.18440
#
# Poissons Ratio (x) = 0.43375 0.21107
# Poissons Ratio (y) = 0.38595 0.04110
# Poissons Ratio (z) = 0.30656 0.06709
#
# Static dielectric constant tensor:
#      x y z
#    x 3.371810 0.000000 0.000000 
#    y 0.000000 3.907520 0.000000 
#    z 0.000000 0.000000 3.572440 
# 
# 
# High freq. dielectric constant tensor:
#      x y z
#    x 1.764850 0.000000 0.000000 
#    y 0.000000 1.795900 0.000000 
#    z 0.000000 0.000000 1.781500 
# 
# From -- ./inp_files/14031.got.cif
#   From: 2010.03.12/outbox.cif.g09.slc.cpg/sg65_8_cif.got.tgz:14031.got - 2010.04.10 20:52:16.
