data_PCOD8271654
_publ_section_title
;
Structure prediction by ZEFSAII (Michael W. Deem and Ramdas Pophale) SiO2 
 PCOD8271654
Probable space group: C M M M
;
_chemical_formula_sum "Si O2"
_cell_formula_units_Z 104
_cell_length_a 32.670111
_cell_length_b 18.992540
_cell_length_c 9.122741
_cell_angle_alpha 90.000000
_cell_angle_beta 90.000000
_cell_angle_gamma 90.000000
_cell_volume 5660.554875
_symmetry_space_group_name_H-M "C M M M"
_symmetry_group_IT_number 65
_symmetry_cell_setting 'orthorhombic'
loop_
_space_group_symop_operation_xyz
x,y,z
-x,-y,z
x,-y,-z
-x,y,-z
-x,-y,-z
x,y,-z
-x,y,z
x,-y,z
1/2+x,1/2+y,z
1/2-x,1/2-y,z
1/2+x,1/2-y,-z
1/2-x,1/2+y,-z
1/2-x,1/2-y,-z
1/2+x,1/2+y,-z
1/2-x,1/2+y,z
1/2+x,1/2-y,z
loop_
_atom_site_type_symbol
_atom_site_label
_atom_site_fract_x
_atom_site_fract_y
_atom_site_fract_z
Si Si1 0.182017 0.416204 0.665233
Si Si2 0.239143 0.916231 0.834860
Si Si3 0.500000 0.420637 0.675212
Si Si4 0.047609 0.688786 0.669710
Si Si5 0.100810 0.581788 0.170966
Si Si6 0.657870 0.418353 0.671817
Si Si7 0.078038 0.838846 0.673429
O O1 0.181370 0.386354 0.500000
O O2 0.183777 0.500000 0.664456
O O3 0.221694 0.385518 0.748405
O O4 0.141459 0.390277 0.748270
O O5 0.198026 0.890870 0.754969
O O6 0.241193 0.000000 0.835047
O O7 0.239735 0.886602 0.000000
O O8 0.500000 0.500000 0.733023
O O9 0.500000 0.417377 0.500000
O O10 0.540121 0.382504 0.739770
O O11 0.055321 0.670485 0.500000
O O12 0.061780 0.623346 0.767648
O O13 0.073521 0.757307 0.718311
O O14 0.000000 0.703872 0.698826
O O15 0.092968 0.500000 0.203822
O O16 0.106341 0.596192 0.000000
O O17 0.665346 0.407228 0.500000
O O18 0.648422 0.500000 0.706377
O O19 0.620382 0.371463 0.732673
O O20 0.076855 0.847030 0.500000
#
# Coordination Sequence:
#
# PCOD8271654 Si02
#       7
#    16  16   8  16  16  16  16
#     4   9  16  28  49  76 103 129 160 200 247 300
#     4   9  16  26  42  67 101 138 171 204 246 294
#     4   9  14  22  42  72 102 131 166 212 261 299
#     4  10  20  35  54  74 100 134 170 208 253 306
#     4  10  21  36  54  77 103 129 161 204 252 303
#     4   9  16  26  43  70 102 135 173 214 252 291
#     4   9  16  28  45  69 101 134 169 211 256 299
#
# _framework density 18.372758000000001
#
# number of rings (size 3 to 8) (size 9 to 14) (size 15 to 20)
#    0.000    2.692    0.769    1.846    0.000    7.077 
#    0.000    2.308    0.000    0.923    0.000    6.462 
#    0.000    3.692    0.000    0.000    0.000    0.000 
#
# Total GULP energy -644790.917774 kJ/mol
# GULP energy per Si atom -12399.825342 kJ/mol
# Density = 1.833094 g / cm^3
# Si number density = 18.372758 Si / 1000 Ang^3
#
#
#
# Elastic Constant Matrix: (Units=GPa)
#
#
# Indices 1 2 3 4 5 6 
#
# 1 105.9274 43.6253 49.7914 0.0000 0.0000 0.0000
# 2 43.6253 61.9639 35.3176 0.0000 0.0000 0.0000
# 3 49.7914 35.3176 88.2327 0.0000 0.0000 0.0000
# 4 0.0000 0.0000 0.0000 11.0293 0.0000 0.0000
# 5 0.0000 0.0000 0.0000 0.0000 10.7689 0.0000
# 6 0.0000 0.0000 0.0000 0.0000 0.0000 14.4725
#
#
#
# Elastic Compliance Matrix: (Units=1/GPa)
#
#
# Indices 1 2 3 4 5 6 
#
# 1 0.015131 -0.007496 -0.005538 0.000000 0.000000 0.000000
# 2 -0.007496 0.024623 -0.005626 0.000000 0.000000 0.000000
# 3 -0.005538 -0.005626 0.016711 0.000000 0.000000 0.000000
# 4 0.000000 0.000000 0.000000 0.090668 0.000000 0.000000
# 5 0.000000 0.000000 0.000000 0.000000 0.092860 0.000000
# 6 0.000000 0.000000 0.000000 0.000000 0.000000 0.069097
#
#
# Mechanical properties :
#
#
# Convention : Reuss Voigt Hill
#
# Bulk Modulus (GPa) = 52.23483 57.06587 54.65035
# Shear Modulus (GPa) = 14.17276 15.74679 14.95977
#
# Velocity S-wave (km/s) = 2.78042 2.93076 2.85658
# Velocity P-wave (km/s) = 6.22896 6.52533 6.37887
#
# Compressibility (1/GPa) = 0.01914431
#
# Stress axis : x y z
#
# Youngs Moduli (GPa) = 66.08998 40.61319 59.84198
#
# Poissons Ratio (x) = 0.30445 0.33141
# Poissons Ratio (y) = 0.49543 0.33664
# Poissons Ratio (z) = 0.36601 0.22847
#
# Static dielectric constant tensor:
#      x y z
#    x 3.555120 0.000000 0.000000 
#    y 0.000000 3.053660 0.000000 
#    z 0.000000 0.000000 3.211570 
# 
# 
# High freq. dielectric constant tensor:
#      x y z
#    x 1.725710 0.000000 0.000000 
#    y 0.000000 1.675560 0.000000 
#    z 0.000000 0.000000 1.689440 
# 
# From -- ./inp_files/18661.got.cif
#   From: 2010.03.12/outbox.cif.g09.slc.cpg/sg65_10_cif.got.tgz:18661.got - 2010.04.10 20:52:16.
