data_PCOD8271596
_publ_section_title
;
Structure prediction by ZEFSAII (Michael W. Deem and Ramdas Pophale) SiO2 
 PCOD8271596
Probable space group: C M M M
;
_chemical_formula_sum "Si O2"
_cell_formula_units_Z 64
_cell_length_a 22.461549
_cell_length_b 22.625106
_cell_length_c 7.477343
_cell_angle_alpha 90.000000
_cell_angle_beta 90.000000
_cell_angle_gamma 90.000000
_cell_volume 3799.947780
_symmetry_space_group_name_H-M "C M M M"
_symmetry_group_IT_number 65
_symmetry_cell_setting 'orthorhombic'
loop_
_space_group_symop_operation_xyz
x,y,z
-x,-y,z
x,-y,-z
-x,y,-z
-x,-y,-z
x,y,-z
-x,y,z
x,-y,z
1/2+x,1/2+y,z
1/2-x,1/2-y,z
1/2+x,1/2-y,-z
1/2-x,1/2+y,-z
1/2-x,1/2-y,-z
1/2+x,1/2+y,-z
1/2-x,1/2+y,z
1/2+x,1/2-y,z
loop_
_atom_site_type_symbol
_atom_site_label
_atom_site_fract_x
_atom_site_fract_y
_atom_site_fract_z
Si Si1 0.755717 0.933003 0.205543
Si Si2 0.932789 0.187534 0.791661
Si Si3 0.729875 0.154103 0.500000
Si Si4 0.847116 0.232177 0.500000
Si Si5 0.892078 0.936827 0.210865
O O1 0.719681 0.886683 0.325795
O O2 0.823905 0.928500 0.268320
O O3 0.732452 0.000000 0.235193
O O4 0.747861 0.914054 0.000000
O O5 0.887364 0.226425 0.677335
O O6 0.929743 0.119336 0.722357
O O7 0.000000 0.210149 0.761402
O O8 0.914315 0.192233 0.000000
O O9 0.794569 0.184446 0.500000
O O10 0.678089 0.202061 0.500000
O O11 0.915766 0.000000 0.289839
O O12 0.896168 0.940832 0.000000
#
# Coordination Sequence:
#
# PCOD8271596 Si02
#       5
#    16  16   8   8  16
#     4   9  17  31  51  73  99 129 161 201 246 291
#     4  10  20  35  52  67  93 132 171 214 252 281
#     4  11  21  32  50  71  98 135 165 202 247 290
#     4  11  23  34  46  70  99 130 174 210 237 286
#     4   8  14  26  45  68  93 123 162 205 243 277
#
# _framework density 16.842338000000002
#
# number of rings (size 3 to 8) (size 9 to 14) (size 15 to 20)
#    0.000    2.500    2.500    2.250    0.000    1.500 
#    0.000    5.625    0.000    1.500    0.000    0.000 
#    0.000    8.000    0.000   22.000    0.000    0.000 
#
# Total GULP energy -396581.740437 kJ/mol
# GULP energy per Si atom -12393.179389 kJ/mol
# Density = 1.680400 g / cm^3
# Si number density = 16.842338 Si / 1000 Ang^3
#
#
#
# Elastic Constant Matrix: (Units=GPa)
#
#
# Indices 1 2 3 4 5 6 
#
# 1 69.6221 50.4492 43.6757 0.0000 0.0000 0.0000
# 2 50.4492 100.4383 57.0314 0.0000 0.0000 0.0000
# 3 43.6757 57.0314 96.8123 0.0000 0.0000 0.0000
# 4 0.0000 0.0000 0.0000 26.0936 0.0000 0.0000
# 5 0.0000 0.0000 0.0000 0.0000 20.0348 0.0000
# 6 0.0000 0.0000 0.0000 0.0000 0.0000 25.0974
#
#
#
# Elastic Compliance Matrix: (Units=1/GPa)
#
#
# Indices 1 2 3 4 5 6 
#
# 1 0.024524 -0.009070 -0.005721 0.000000 0.000000 0.000000
# 2 -0.009070 0.018315 -0.006698 0.000000 0.000000 0.000000
# 3 -0.005721 -0.006698 0.016856 0.000000 0.000000 0.000000
# 4 0.000000 0.000000 0.000000 0.038324 0.000000 0.000000
# 5 0.000000 0.000000 0.000000 0.000000 0.049913 0.000000
# 6 0.000000 0.000000 0.000000 0.000000 0.000000 0.039845
#
#
# Mechanical properties :
#
#
# Convention : Reuss Voigt Hill
#
# Bulk Modulus (GPa) = 59.81392 63.24279 61.52835
# Shear Modulus (GPa) = 21.15724 21.95959 21.55842
#
# Velocity S-wave (km/s) = 3.54813 3.61478 3.58161
# Velocity P-wave (km/s) = 7.23718 7.41981 7.32906
#
# Compressibility (1/GPa) = 0.01671852
#
# Stress axis : x y z
#
# Youngs Moduli (GPa) = 40.77601 54.59981 59.32748
#
# Poissons Ratio (x) = 0.49521 0.33940
# Poissons Ratio (y) = 0.36983 0.39735
# Poissons Ratio (z) = 0.23327 0.36568
#
# Static dielectric constant tensor:
#      x y z
#    x 2.805910 0.000000 0.000000 
#    y 0.000000 2.971330 0.000000 
#    z 0.000000 0.000000 3.151860 
# 
# 
# High freq. dielectric constant tensor:
#      x y z
#    x 1.600360 0.000000 0.000000 
#    y 0.000000 1.636230 0.000000 
#    z 0.000000 0.000000 1.655590 
# 
# From -- ./inp_files/11125.got.cif
#   From: 2010.03.12/outbox.cif.g09.slc.cpg/sg65_6_cif.got.tgz:11125.got - 2010.04.10 20:52:16.
