data_PCOD8271065
_publ_section_title
;
Structure prediction by ZEFSAII (Michael W. Deem and Ramdas Pophale) SiO2 
 PCOD8271065
Probable space group: C M M M
;
_chemical_formula_sum "Si O2"
_cell_formula_units_Z 104
_cell_length_a 32.501955
_cell_length_b 20.198143
_cell_length_c 8.688678
_cell_angle_alpha 90.000000
_cell_angle_beta 90.000000
_cell_angle_gamma 90.000000
_cell_volume 5703.935817
_symmetry_space_group_name_H-M "C M M M"
_symmetry_group_IT_number 65
_symmetry_cell_setting 'orthorhombic'
loop_
_space_group_symop_operation_xyz
x,y,z
-x,-y,z
x,-y,-z
-x,y,-z
-x,-y,-z
x,y,-z
-x,y,z
x,-y,z
1/2+x,1/2+y,z
1/2-x,1/2-y,z
1/2+x,1/2-y,-z
1/2-x,1/2+y,-z
1/2-x,1/2-y,-z
1/2+x,1/2+y,-z
1/2-x,1/2+y,z
1/2+x,1/2-y,z
loop_
_atom_site_type_symbol
_atom_site_label
_atom_site_fract_x
_atom_site_fract_y
_atom_site_fract_z
Si Si1 0.816171 0.576244 0.821952
Si Si2 0.229121 0.074780 0.317051
Si Si3 0.665786 0.319236 0.672181
Si Si4 0.425317 0.362720 0.325675
Si Si5 0.046135 0.000000 0.682477
Si Si6 0.046565 0.267497 0.179705
Si Si7 0.129009 0.315053 0.316659
O O1 0.827881 0.500000 0.796370
O O2 0.774796 0.595104 0.732189
O O3 0.853774 0.617653 0.753227
O O4 0.809733 0.593109 0.000000
O O5 0.225580 0.074478 0.500000
O O6 0.198864 0.131622 0.245549
O O7 0.218665 0.000000 0.255428
O O8 0.681987 0.306467 0.500000
O O9 0.623317 0.357627 0.672309
O O10 0.656856 0.246843 0.748434
O O11 0.442805 0.356056 0.500000
O O12 0.433321 0.434082 0.250409
O O13 0.448185 0.309374 0.220875
O O14 0.051070 0.000000 0.500000
O O15 0.000000 0.000000 0.739062
O O16 0.081030 0.309553 0.270089
O O17 0.000000 0.290217 0.224437
O O18 0.054175 0.277686 0.000000
O O19 0.130828 0.315310 0.500000
#
# Coordination Sequence:
#
# PCOD8271065 Si02
#       7
#    16  16  16  16   8  16  16
#     4  10  21  37  55  76 104 135 167 204 251 307
#     4   9  17  30  50  73 100 137 179 216 253 299
#     4   8  16  29  46  73 101 130 170 218 262 296
#     4   9  17  29  46  68  97 133 175 221 266 307
#     4   9  16  24  39  65  93 125 171 225 271 307
#     4  10  20  34  52  74 102 135 169 206 252 307
#     4  10  20  35  56  80 105 132 168 212 256 305
#
# _framework density 18.233024
#
# number of rings (size 3 to 8) (size 9 to 14) (size 15 to 20)
#    0.000    2.692    0.000    2.769    1.077    3.385 
#    0.000    7.308    0.000    1.846    0.000    3.231 
#    0.000    0.000    0.000    0.000    0.000    0.000 
#
# Total GULP energy -644411.203814 kJ/mol
# GULP energy per Si atom -12392.523150 kJ/mol
# Density = 1.819152 g / cm^3
# Si number density = 18.233024 Si / 1000 Ang^3
#
#
#
# Elastic Constant Matrix: (Units=GPa)
#
#
# Indices 1 2 3 4 5 6 
#
# 1 91.4426 61.7678 18.0628 0.0000 0.0000 0.0000
# 2 61.7678 94.4345 24.9283 0.0000 0.0000 0.0000
# 3 18.0628 24.9283 29.9851 0.0000 0.0000 0.0000
# 4 0.0000 0.0000 0.0000 19.8800 0.0000 0.0000
# 5 0.0000 0.0000 0.0000 0.0000 19.3355 0.0000
# 6 0.0000 0.0000 0.0000 0.0000 0.0000 23.8905
#
#
#
# Elastic Compliance Matrix: (Units=1/GPa)
#
#
# Indices 1 2 3 4 5 6 
#
# 1 0.019643 -0.012459 -0.001475 0.000000 0.000000 0.000000
# 2 -0.012459 0.021469 -0.010343 0.000000 0.000000 0.000000
# 3 -0.001475 -0.010343 0.042837 0.000000 0.000000 0.000000
# 4 0.000000 0.000000 0.000000 0.050302 0.000000 0.000000
# 5 0.000000 0.000000 0.000000 0.000000 0.051718 0.000000
# 6 0.000000 0.000000 0.000000 0.000000 0.000000 0.041858
#
#
# Mechanical properties :
#
#
# Convention : Reuss Voigt Hill
#
# Bulk Modulus (GPa) = 28.25252 47.26443 37.75847
# Shear Modulus (GPa) = 17.35036 20.02808 18.68922
#
# Velocity S-wave (km/s) = 3.08813 3.31788 3.20507
# Velocity P-wave (km/s) = 5.31454 6.37625 5.86945
#
# Compressibility (1/GPa) = 0.03539507
#
# Stress axis : x y z
#
# Youngs Moduli (GPa) = 50.90943 46.57967 23.34411
#
# Poissons Ratio (x) = 0.58032 0.03443
# Poissons Ratio (y) = 0.63426 0.24145
# Poissons Ratio (z) = 0.07510 0.48178
#
# Static dielectric constant tensor:
#      x y z
#    x 3.369250 0.000000 0.000000 
#    y 0.000000 3.483350 0.000000 
#    z 0.000000 0.000000 3.133960 
# 
# 
# High freq. dielectric constant tensor:
#      x y z
#    x 1.705550 0.000000 0.000000 
#    y 0.000000 1.701060 0.000000 
#    z 0.000000 0.000000 1.679420 
# 
# From -- ./inp_files/18704.got.cif
#   From: 2010.03.12/outbox.cif.g09.slc.cpg/sg65_10_cif.got.tgz:18704.got - 2010.04.10 20:52:16.
