data_PCOD8271144
_publ_section_title
;
Structure prediction by ZEFSAII (Michael W. Deem and Ramdas Pophale) SiO2 
 PCOD8271144
Probable space group: C M M M
;
_chemical_formula_sum "Si O2"
_cell_formula_units_Z 120
_cell_length_a 27.271057
_cell_length_b 8.126650
_cell_length_c 27.850117
_cell_angle_alpha 90.000000
_cell_angle_beta 90.000000
_cell_angle_gamma 90.000000
_cell_volume 6172.207970
_symmetry_space_group_name_H-M "C M M M"
_symmetry_group_IT_number 65
_symmetry_cell_setting 'orthorhombic'
loop_
_space_group_symop_operation_xyz
x,y,z
-x,-y,z
x,-y,-z
-x,y,-z
-x,-y,-z
x,y,-z
-x,y,z
x,-y,z
1/2+x,1/2+y,z
1/2-x,1/2-y,z
1/2+x,1/2-y,-z
1/2-x,1/2+y,-z
1/2-x,1/2-y,-z
1/2+x,1/2+y,-z
1/2-x,1/2+y,z
1/2+x,1/2-y,z
loop_
_atom_site_type_symbol
_atom_site_label
_atom_site_fract_x
_atom_site_fract_y
_atom_site_fract_z
Si Si1 0.944924 0.692213 0.293697
Si Si2 0.554339 0.692354 0.107253
Si Si3 0.600173 0.193059 0.605029
Si Si4 0.602507 0.190511 0.801645
Si Si5 0.802929 0.307286 0.146028
Si Si6 0.943204 0.000000 0.552052
Si Si7 0.350959 0.694391 0.053003
Si Si8 0.801955 0.308326 0.446630
O O1 0.951382 0.500000 0.284748
O O2 0.909981 0.725178 0.339074
O O3 0.917493 0.773062 0.247616
O O4 0.000000 0.767760 0.300730
O O5 0.500000 0.733223 0.087387
O O6 0.560767 0.500000 0.117422
O O7 0.561660 0.785587 0.157512
O O8 0.594613 0.753679 0.068872
O O9 0.568062 0.326958 0.577612
O O10 0.656209 0.238419 0.591761
O O11 0.587737 0.000000 0.591472
O O12 0.654181 0.270594 0.820113
O O13 0.611572 0.000000 0.791776
O O14 0.806399 0.500000 0.149430
O O15 0.750000 0.250000 0.164580
O O16 0.810423 0.255798 0.090616
O O17 0.916809 0.000000 0.500000
O O18 0.000000 0.000000 0.544615
O O19 0.348763 0.500000 0.050966
O O20 0.340045 0.768056 0.000000
O O21 0.811460 0.229761 0.500000
O O22 0.800296 0.500000 0.453297
O O23 0.750000 0.250000 0.425329
#
# Coordination Sequence:
#
# PCOD8271144 Si02
#       8
#    16  16  16  16  16   8  16  16
#     4   9  17  32  56  80 104 139 177 214 260 316
#     4   9  17  29  46  71 102 132 164 206 256 307
#     4  10  21  38  58  82 116 152 190 237 286 337
#     4   9  18  33  53  76  99 128 172 215 256 309
#     4  10  20  34  53  74  99 131 167 215 265 316
#     4  11  24  38  56  84 116 154 196 236 282 338
#     4   9  18  32  49  70  98 132 170 211 255 308
#     4   9  18  32  53  80 107 141 184 229 278 327
#
# _framework density 19.441987999999998
#
# number of rings (size 3 to 8) (size 9 to 14) (size 15 to 20)
#    0.000    2.600    0.000    1.600    0.933    3.733 
#    1.200    2.667    0.000    0.000    0.000    3.733 
#    0.000    0.000    0.000    0.000    0.000    0.000 
#
# Total GULP energy -743487.684531 kJ/mol
# GULP energy per Si atom -12391.461409 kJ/mol
# Density = 1.939774 g / cm^3
# Si number density = 19.441988 Si / 1000 Ang^3
#
#
#
# Elastic Constant Matrix: (Units=GPa)
#
#
# Indices 1 2 3 4 5 6 
#
# 1 131.4441 11.8374 57.5127 0.0000 0.0000 0.0000
# 2 11.8374 35.3366 24.5808 0.0000 0.0000 0.0000
# 3 57.5127 24.5808 126.6699 0.0000 0.0000 0.0000
# 4 0.0000 0.0000 0.0000 34.7145 0.0000 0.0000
# 5 0.0000 0.0000 0.0000 0.0000 20.7243 0.0000
# 6 0.0000 0.0000 0.0000 0.0000 0.0000 23.2180
#
#
#
# Elastic Compliance Matrix: (Units=1/GPa)
#
#
# Indices 1 2 3 4 5 6 
#
# 1 0.009495 -0.000210 -0.004270 0.000000 0.000000 0.000000
# 2 -0.000210 0.032720 -0.006254 0.000000 0.000000 0.000000
# 3 -0.004270 -0.006254 0.011047 0.000000 0.000000 0.000000
# 4 0.000000 0.000000 0.000000 0.028806 0.000000 0.000000
# 5 0.000000 0.000000 0.000000 0.000000 0.048252 0.000000
# 6 0.000000 0.000000 0.000000 0.000000 0.000000 0.043070
#
#
# Mechanical properties :
#
#
# Convention : Reuss Voigt Hill
#
# Bulk Modulus (GPa) = 31.45334 53.47915 42.46625
# Shear Modulus (GPa) = 24.33584 29.03267 26.68425
#
# Velocity S-wave (km/s) = 3.54180 3.86851 3.70875
# Velocity P-wave (km/s) = 5.73925 6.89352 6.34269
#
# Compressibility (1/GPa) = 0.03179313
#
# Stress axis : x y z
#
# Youngs Moduli (GPa) = 105.31624 30.56225 90.52184
#
# Poissons Ratio (x) = 0.00643 0.38656
# Poissons Ratio (y) = 0.02214 0.56612
# Poissons Ratio (z) = 0.44974 0.19114
#
# Static dielectric constant tensor:
#      x y z
#    x 3.424880 0.000000 0.000000 
#    y 0.000000 3.438540 0.000000 
#    z 0.000000 0.000000 4.343500 
# 
# 
# High freq. dielectric constant tensor:
#      x y z
#    x 1.760040 0.000000 0.000000 
#    y 0.000000 1.738890 0.000000 
#    z 0.000000 0.000000 1.745310 
# 
# From -- ./inp_files/76170.got.cif
#   From: 2010.03.12/outbox.cif.g09.slc.cpg/sg65_39_cif.got.tgz:76170.got - 2010.04.10 20:52:16.
