data_PCOD8271830
_publ_section_title
;
Structure prediction by ZEFSAII (Michael W. Deem and Ramdas Pophale) SiO2 
 PCOD8271830
Probable space group: C M M M
;
_chemical_formula_sum "Si O2"
_cell_formula_units_Z 104
_cell_length_a 27.372410
_cell_length_b 8.791981
_cell_length_c 22.278031
_cell_angle_alpha 90.000000
_cell_angle_beta 90.000000
_cell_angle_gamma 90.000000
_cell_volume 5361.379894
_symmetry_space_group_name_H-M "C M M M"
_symmetry_group_IT_number 65
_symmetry_cell_setting 'orthorhombic'
loop_
_space_group_symop_operation_xyz
x,y,z
-x,-y,z
x,-y,-z
-x,y,-z
-x,-y,-z
x,y,-z
-x,y,z
x,-y,z
1/2+x,1/2+y,z
1/2-x,1/2-y,z
1/2+x,1/2-y,-z
1/2-x,1/2+y,-z
1/2-x,1/2-y,-z
1/2+x,1/2+y,-z
1/2-x,1/2+y,z
1/2+x,1/2-y,z
loop_
_atom_site_type_symbol
_atom_site_label
_atom_site_fract_x
_atom_site_fract_y
_atom_site_fract_z
Si Si1 0.698239 0.819043 0.431580
Si Si2 0.942639 0.670606 0.000000
Si Si3 0.603100 0.319752 0.885691
Si Si4 0.443316 0.819147 0.768775
Si Si5 0.301683 0.178079 0.930590
Si Si6 0.614510 0.173891 0.345220
Si Si7 0.443113 0.334020 0.565137
O O1 0.683648 0.770156 0.500000
O O2 0.750000 0.750000 0.414041
O O3 0.661213 0.752456 0.380165
O O4 0.700232 0.000000 0.427575
O O5 0.926758 0.763656 0.057510
O O6 0.918977 0.500000 0.000000
O O7 0.000000 0.654229 0.000000
O O8 0.606756 0.500000 0.885410
O O9 0.573196 0.263243 0.828724
O O10 0.657673 0.251184 0.887506
O O11 0.500000 0.775993 0.754011
O O12 0.405180 0.757346 0.717796
O O13 0.438916 0.000000 0.776480
O O14 0.250000 0.250000 0.913094
O O15 0.298804 0.000000 0.918325
O O16 0.314952 0.214030 0.000000
O O17 0.570106 0.196771 0.391043
O O18 0.625858 0.000000 0.333795
O O19 0.419152 0.303284 0.500000
O O20 0.500000 0.336268 0.557600
O O21 0.425217 0.500000 0.589453
#
# Coordination Sequence:
#
# PCOD8271830 Si02
#       7
#    16   8  16  16  16  16  16
#     4   9  18  33  54  82 114 145 182 232 287 342
#     4  11  23  39  60  85 114 149 189 239 301 359
#     4  12  24  38  59  87 118 152 194 241 291 349
#     4  10  22  40  59  79 110 153 196 238 291 353
#     4  10  20  36  61  90 122 154 186 228 282 340
#     4  10  20  35  56  80 105 141 189 238 285 335
#     4   9  18  31  47  72 107 142 175 217 273 335
#
# _framework density 19.397991999999999
#
# number of rings (size 3 to 8) (size 9 to 14) (size 15 to 20)
#    0.000    1.923    0.769    3.923    0.000    6.462 
#    0.000    3.077    0.000    1.846    0.000    0.000 
#    0.000    0.000    0.000    0.000    0.000    0.000 
#
# Total GULP energy -644349.344845 kJ/mol
# GULP energy per Si atom -12391.333555 kJ/mol
# Density = 1.935384 g / cm^3
# Si number density = 19.397992 Si / 1000 Ang^3
#
#
#
# Elastic Constant Matrix: (Units=GPa)
#
#
# Indices 1 2 3 4 5 6 
#
# 1 118.7917 48.9388 67.7365 0.0000 0.0000 0.0000
# 2 48.9388 54.8575 36.5451 0.0000 0.0000 0.0000
# 3 67.7365 36.5451 131.6508 0.0000 0.0000 0.0000
# 4 0.0000 0.0000 0.0000 1.9986 0.0000 0.0000
# 5 0.0000 0.0000 0.0000 0.0000 150.8123 0.0000
# 6 0.0000 0.0000 0.0000 0.0000 0.0000 32.8690
#
#
#
# Elastic Compliance Matrix: (Units=1/GPa)
#
#
# Indices 1 2 3 4 5 6 
#
# 1 0.015716 -0.010592 -0.005146 0.000000 0.000000 0.000000
# 2 -0.010592 0.029504 -0.002740 0.000000 0.000000 0.000000
# 3 -0.005146 -0.002740 0.011004 0.000000 0.000000 0.000000
# 4 0.000000 0.000000 0.000000 0.500362 0.000000 0.000000
# 5 0.000000 0.000000 0.000000 0.000000 0.006631 0.000000
# 6 0.000000 0.000000 0.000000 0.000000 0.000000 0.030424
#
#
# Mechanical properties :
#
#
# Convention : Reuss Voigt Hill
#
# Bulk Modulus (GPa) = 51.90071 67.97122 59.93596
# Shear Modulus (GPa) = 7.84904 47.27461 27.56183
#
# Velocity S-wave (km/s) = 2.01373 4.94204 3.77352
# Velocity P-wave (km/s) = 5.67632 8.22687 7.06760
#
# Compressibility (1/GPa) = 0.01926756
#
# Stress axis : x y z
#
# Youngs Moduli (GPa) = 63.62913 33.89369 90.87531
#
# Poissons Ratio (x) = 0.35901 0.46763
# Poissons Ratio (y) = 0.67398 0.24901
# Poissons Ratio (z) = 0.32742 0.09287
#
# Static dielectric constant tensor:
#      x y z
#    x 3.705470 0.000000 0.000000 
#    y 0.000000 3.624880 0.000000 
#    z 0.000000 0.000000 3.599400 
# 
# 
# High freq. dielectric constant tensor:
#      x y z
#    x 1.762210 0.000000 0.000000 
#    y 0.000000 1.748260 0.000000 
#    z 0.000000 0.000000 1.745480 
# 
# From -- ./inp_files/65891.got.cif
#   From: 2010.03.12/outbox.cif.g09.slc.cpg/sg65_33_cif.got.tgz:65891.got - 2010.04.10 20:52:16.
