data_PCOD8271899
_publ_section_title
;
Structure prediction by ZEFSAII (Michael W. Deem and Ramdas Pophale) SiO2 
 PCOD8271899
Probable space group: C M M M
;
_chemical_formula_sum "Si O2"
_cell_formula_units_Z 104
_cell_length_a 21.328015
_cell_length_b 9.051523
_cell_length_c 27.030565
_cell_angle_alpha 90.000000
_cell_angle_beta 90.000000
_cell_angle_gamma 90.000000
_cell_volume 5218.278099
_symmetry_space_group_name_H-M "C M M M"
_symmetry_group_IT_number 65
_symmetry_cell_setting 'orthorhombic'
loop_
_space_group_symop_operation_xyz
x,y,z
-x,-y,z
x,-y,-z
-x,y,-z
-x,-y,-z
x,y,-z
-x,y,z
x,-y,z
1/2+x,1/2+y,z
1/2-x,1/2-y,z
1/2+x,1/2-y,-z
1/2-x,1/2+y,-z
1/2-x,1/2-y,-z
1/2+x,1/2+y,-z
1/2-x,1/2+y,z
1/2+x,1/2-y,z
loop_
_atom_site_type_symbol
_atom_site_label
_atom_site_fract_x
_atom_site_fract_y
_atom_site_fract_z
Si Si1 0.312678 0.166818 0.735741
Si Si2 0.886647 0.669819 0.360425
Si Si3 0.632300 0.328961 0.823252
Si Si4 0.000000 0.830872 0.801942
Si Si5 0.184613 0.175295 0.925841
Si Si6 0.000000 0.175960 0.308002
Si Si7 0.684630 0.670519 0.556998
Si Si8 0.925358 0.825886 0.000000
O O1 0.250000 0.250000 0.746994
O O2 0.329512 0.178842 0.678225
O O3 0.362120 0.240269 0.772390
O O4 0.304326 0.000000 0.752716
O O5 0.906668 0.500000 0.369706
O O6 0.941197 0.764335 0.337427
O O7 0.867943 0.744990 0.411906
O O8 0.645387 0.500000 0.812382
O O9 0.559625 0.297019 0.836626
O O10 0.675311 0.275722 0.868718
O O11 0.000000 0.754125 0.747480
O O12 0.000000 0.000000 0.786014
O O13 0.250000 0.250000 0.944990
O O14 0.119959 0.223991 0.953985
O O15 0.192984 0.000000 0.932013
O O16 0.000000 0.000000 0.310112
O O17 0.664505 0.682790 0.500000
O O18 0.690428 0.500000 0.573617
O O19 0.750000 0.750000 0.566898
O O20 0.000000 0.763855 0.000000
O O21 0.933203 0.000000 0.000000
#
# Coordination Sequence:
#
# PCOD8271899 Si02
#       8
#    16  16  16   8  16   8  16   8
#     4  11  23  36  53  79 112 148 186 231 280 337
#     4  11  23  38  57  83 114 149 189 234 283 341
#     4  10  20  35  56  83 113 148 191 235 285 342
#     4   9  18  33  55  81 110 148 191 235 281 334
#     4  10  21  36  59  86 117 154 193 243 296 353
#     4  11  21  37  60  82 110 151 191 233 284 339
#     4  10  21  38  61  88 116 147 186 233 286 342
#     4   9  19  36  59  89 116 147 196 250 298 345
#
# _framework density 19.929946999999999
#
# number of rings (size 3 to 8) (size 9 to 14) (size 15 to 20)
#    0.000    1.769    1.538    2.769    1.077    5.846 
#    0.000    0.769    0.000    3.231    0.000    0.000 
#    0.000    0.000    0.000    0.000    0.000    0.000 
#
# Total GULP energy -644290.318166 kJ/mol
# GULP energy per Si atom -12390.198426 kJ/mol
# Density = 1.988459 g / cm^3
# Si number density = 19.929947 Si / 1000 Ang^3
#
#
#
# Elastic Constant Matrix: (Units=GPa)
#
#
# Indices 1 2 3 4 5 6 
#
# 1 119.9242 36.4727 32.7978 0.0000 0.0000 0.0000
# 2 36.4727 96.1862 36.9919 0.0000 0.0000 0.0000
# 3 32.7978 36.9919 88.7846 0.0000 0.0000 0.0000
# 4 0.0000 0.0000 0.0000 19.8302 0.0000 0.0000
# 5 0.0000 0.0000 0.0000 0.0000 37.6715 0.0000
# 6 0.0000 0.0000 0.0000 0.0000 0.0000 30.8095
#
#
#
# Elastic Compliance Matrix: (Units=1/GPa)
#
#
# Indices 1 2 3 4 5 6 
#
# 1 0.009865 -0.002786 -0.002484 0.000000 0.000000 0.000000
# 2 -0.002786 0.013167 -0.004457 0.000000 0.000000 0.000000
# 3 -0.002484 -0.004457 0.014038 0.000000 0.000000 0.000000
# 4 0.000000 0.000000 0.000000 0.050428 0.000000 0.000000
# 5 0.000000 0.000000 0.000000 0.000000 0.026545 0.000000
# 6 0.000000 0.000000 0.000000 0.000000 0.000000 0.032458
#
#
# Mechanical properties :
#
#
# Convention : Reuss Voigt Hill
#
# Bulk Modulus (GPa) = 56.76237 57.49109 57.12673
# Shear Modulus (GPa) = 29.09935 30.90441 30.00188
#
# Velocity S-wave (km/s) = 3.82525 3.94210 3.88411
# Velocity P-wave (km/s) = 6.93201 7.04482 6.98864
#
# Compressibility (1/GPa) = 0.01761730
#
# Stress axis : x y z
#
# Youngs Moduli (GPa) = 101.36846 75.94855 71.23697
#
# Poissons Ratio (x) = 0.21156 0.17693
# Poissons Ratio (y) = 0.28236 0.31750
# Poissons Ratio (z) = 0.25176 0.33850
#
# Static dielectric constant tensor:
#      x y z
#    x 3.682940 0.000000 0.000000 
#    y 0.000000 3.552310 0.000000 
#    z 0.000000 0.000000 3.629630 
# 
# 
# High freq. dielectric constant tensor:
#      x y z
#    x 1.783730 0.000000 0.000000 
#    y 0.000000 1.761400 0.000000 
#    z 0.000000 0.000000 1.779280 
# 
# From -- ./inp_files/75577.got.cif
#   From: 2010.03.12/outbox.cif.g09.slc.cpg/sg65_38_cif.got.tgz:75577.got - 2010.04.10 20:52:16.
