data_PCOD8271695
_publ_section_title
;
Structure prediction by ZEFSAII (Michael W. Deem and Ramdas Pophale) SiO2 
 PCOD8271695
Probable space group: C M M M
;
_chemical_formula_sum "Si O2"
_cell_formula_units_Z 88
_cell_length_a 7.943315
_cell_length_b 23.960949
_cell_length_c 24.859251
_cell_angle_alpha 90.000000
_cell_angle_beta 90.000000
_cell_angle_gamma 90.000000
_cell_volume 4731.445472
_symmetry_space_group_name_H-M "C M M M"
_symmetry_group_IT_number 65
_symmetry_cell_setting 'orthorhombic'
loop_
_space_group_symop_operation_xyz
x,y,z
-x,-y,z
x,-y,-z
-x,y,-z
-x,-y,-z
x,y,-z
-x,y,z
x,-y,z
1/2+x,1/2+y,z
1/2-x,1/2-y,z
1/2+x,1/2-y,-z
1/2-x,1/2+y,-z
1/2-x,1/2-y,-z
1/2+x,1/2+y,-z
1/2-x,1/2+y,z
1/2+x,1/2-y,z
loop_
_atom_site_type_symbol
_atom_site_label
_atom_site_fract_x
_atom_site_fract_y
_atom_site_fract_z
Si Si1 0.197390 0.434325 0.864269
Si Si2 0.500000 0.565843 0.059686
Si Si3 0.193368 0.114487 0.440985
Si Si4 0.808648 0.611086 0.247136
Si Si5 0.197681 0.686441 0.340024
Si Si6 0.312997 0.000000 0.406324
Si Si7 0.810963 0.000000 0.705405
O O1 0.218993 0.500000 0.850267
O O2 0.325691 0.415689 0.911301
O O3 0.261860 0.397226 0.813382
O O4 0.000000 0.422730 0.879531
O O5 0.500000 0.500000 0.055278
O O6 0.500000 0.592671 0.000000
O O7 0.226503 0.141899 0.500000
O O8 0.245917 0.157290 0.394779
O O9 0.000000 0.099975 0.432735
O O10 0.292064 0.056046 0.440847
O O11 0.720931 0.657611 0.286013
O O12 0.794677 0.552984 0.277241
O O13 0.000000 0.628269 0.239753
O O14 0.250000 0.750000 0.341675
O O15 0.000000 0.679906 0.336103
O O16 0.176753 0.000000 0.358791
O O17 0.500000 0.000000 0.381609
O O18 0.000000 0.000000 0.729613
#
# Coordination Sequence:
#
# PCOD8271695 Si02
#       7
#    16   8  16  16  16   8   8
#     4   9  17  29  48  74 107 145 185 225 268 317
#     4   9  18  30  44  70 112 154 193 223 253 310
#     4  11  24  41  60  82 107 136 178 227 272 328
#     4  10  20  35  54  78 109 142 177 225 275 328
#     4  11  24  41  60  79 106 141 178 223 278 334
#     4  12  23  37  56  83 114 140 173 215 275 334
#     4  12  22  29  53  84 108 140 175 216 272 331
#
# _framework density 18.598966999999998
#
# number of rings (size 3 to 8) (size 9 to 14) (size 15 to 20)
#    0.000    1.545    2.727    3.000    1.273    4.000 
#    0.000    1.818    0.000    0.000    0.000    0.000 
#    0.000    0.727    0.364    0.000    0.000    0.000 
#
# Total GULP energy -545188.375185 kJ/mol
# GULP energy per Si atom -12390.644891 kJ/mol
# Density = 1.855664 g / cm^3
# Si number density = 18.598967 Si / 1000 Ang^3
#
#
#
# Elastic Constant Matrix: (Units=GPa)
#
#
# Indices 1 2 3 4 5 6 
#
# 1 76.5257 18.5747 53.3010 0.0000 0.0000 0.0000
# 2 18.5747 101.8304 57.2651 0.0000 0.0000 0.0000
# 3 53.3010 57.2651 167.1876 0.0000 0.0000 0.0000
# 4 0.0000 0.0000 0.0000 11.5456 0.0000 0.0000
# 5 0.0000 0.0000 0.0000 0.0000 27.5268 0.0000
# 6 0.0000 0.0000 0.0000 0.0000 0.0000 17.5917
#
#
#
# Elastic Compliance Matrix: (Units=1/GPa)
#
#
# Indices 1 2 3 4 5 6 
#
# 1 0.016798 -0.000065 -0.005333 0.000000 0.000000 0.000000
# 2 -0.000065 0.012163 -0.004145 0.000000 0.000000 0.000000
# 3 -0.005333 -0.004145 0.009101 0.000000 0.000000 0.000000
# 4 0.000000 0.000000 0.000000 0.086613 0.000000 0.000000
# 5 0.000000 0.000000 0.000000 0.000000 0.036328 0.000000
# 6 0.000000 0.000000 0.000000 0.000000 0.000000 0.056845
#
#
# Mechanical properties :
#
#
# Convention : Reuss Voigt Hill
#
# Bulk Modulus (GPa) = 52.69929 67.09171 59.89550
# Shear Modulus (GPa) = 20.55407 25.75968 23.15688
#
# Velocity S-wave (km/s) = 3.32794 3.72560 3.53237
# Velocity P-wave (km/s) = 6.56985 7.39310 6.99360
#
# Compressibility (1/GPa) = 0.01897559
#
# Stress axis : x y z
#
# Youngs Moduli (GPa) = 59.53156 82.21424 109.87271
#
# Poissons Ratio (x) = 0.00534 0.58596
# Poissons Ratio (y) = 0.00387 0.45547
# Poissons Ratio (z) = 0.31748 0.34082
#
# Static dielectric constant tensor:
#      x y z
#    x 3.486560 0.000000 0.000000 
#    y 0.000000 3.202140 0.000000 
#    z 0.000000 0.000000 3.757870 
# 
# 
# High freq. dielectric constant tensor:
#      x y z
#    x 1.729460 0.000000 0.000000 
#    y 0.000000 1.678620 0.000000 
#    z 0.000000 0.000000 1.721260 
# 
# From -- ./inp_files/67620.got.cif
#   From: 2010.03.12/outbox.cif.g09.slc.cpg/sg65_34_cif.got.tgz:67620.got - 2010.04.10 20:52:16.
