data_PCOD8271884
_publ_section_title
;
Structure prediction by ZEFSAII (Michael W. Deem and Ramdas Pophale) SiO2 
 PCOD8271884
Probable space group: C M M M
;
_chemical_formula_sum "Si O2"
_cell_formula_units_Z 88
_cell_length_a 17.849443
_cell_length_b 28.668475
_cell_length_c 8.993678
_cell_angle_alpha 90.000000
_cell_angle_beta 90.000000
_cell_angle_gamma 90.000000
_cell_volume 4602.211723
_symmetry_space_group_name_H-M "C M M M"
_symmetry_group_IT_number 65
_symmetry_cell_setting 'orthorhombic'
loop_
_space_group_symop_operation_xyz
x,y,z
-x,-y,z
x,-y,-z
-x,y,-z
-x,-y,-z
x,y,-z
-x,y,z
x,-y,z
1/2+x,1/2+y,z
1/2-x,1/2-y,z
1/2+x,1/2-y,-z
1/2-x,1/2+y,-z
1/2-x,1/2-y,-z
1/2+x,1/2+y,-z
1/2-x,1/2+y,z
1/2+x,1/2-y,z
loop_
_atom_site_type_symbol
_atom_site_label
_atom_site_fract_x
_atom_site_fract_y
_atom_site_fract_z
Si Si1 0.337701 0.702451 0.675690
Si Si2 0.135760 0.397119 0.824190
Si Si3 0.211442 0.946271 0.173675
Si Si4 0.915467 0.110621 0.676551
Si Si5 0.500000 0.945047 0.667188
Si Si6 0.668034 0.804986 0.324002
O O1 0.335453 0.701369 0.500000
O O2 0.391976 0.661997 0.737555
O O3 0.365414 0.754265 0.723188
O O4 0.253767 0.692941 0.732050
O O5 0.216570 0.416792 0.773873
O O6 0.073458 0.429612 0.753961
O O7 0.123372 0.344837 0.763375
O O8 0.126479 0.397865 0.000000
O O9 0.137854 0.928985 0.258458
O O10 0.225491 0.000000 0.215093
O O11 0.197116 0.939677 0.000000
O O12 0.908995 0.109215 0.500000
O O13 0.000000 0.100588 0.729601
O O14 0.500000 0.924290 0.500000
O O15 0.500000 0.000000 0.661832
O O16 0.660786 0.813524 0.500000
#
# Coordination Sequence:
#
# PCOD8271884 Si02
#       6
#    16  16  16  16   8  16
#     4   8  15  30  53  81 112 147 188 233 280 328
#     4  11  22  38  60  86 117 149 184 232 289 344
#     4  10  22  39  58  80 108 147 190 229 281 345
#     4  10  20  35  56  82 113 148 190 238 285 332
#     4  11  25  43  63  87 113 147 191 235 284 345
#     4   9  16  31  57  83 110 148 192 233 275 332
#
# _framework density 19.121241000000001
#
# number of rings (size 3 to 8) (size 9 to 14) (size 15 to 20)
#    0.000    2.273    1.818    2.455    0.000    3.273 
#    1.636    4.545    0.000    0.000    0.000    0.000 
#    0.000    0.000    0.000    0.000    0.000    0.000 
#
# Total GULP energy -545540.103379 kJ/mol
# GULP energy per Si atom -12398.638713 kJ/mol
# Density = 1.907772 g / cm^3
# Si number density = 19.121241 Si / 1000 Ang^3
#
#
#
# Elastic Constant Matrix: (Units=GPa)
#
#
# Indices 1 2 3 4 5 6 
#
# 1 90.4430 28.7242 34.3722 0.0000 0.0000 0.0000
# 2 28.7242 104.6739 33.1565 0.0000 0.0000 0.0000
# 3 34.3722 33.1565 55.5915 0.0000 0.0000 0.0000
# 4 0.0000 0.0000 0.0000 21.0268 0.0000 0.0000
# 5 0.0000 0.0000 0.0000 0.0000 31.2579 0.0000
# 6 0.0000 0.0000 0.0000 0.0000 0.0000 32.2481
#
#
#
# Elastic Compliance Matrix: (Units=1/GPa)
#
#
# Indices 1 2 3 4 5 6 
#
# 1 0.014621 -0.001416 -0.008196 0.000000 0.000000 0.000000
# 2 -0.001416 0.011916 -0.006231 0.000000 0.000000 0.000000
# 3 -0.008196 -0.006231 0.026772 0.000000 0.000000 0.000000
# 4 0.000000 0.000000 0.000000 0.047558 0.000000 0.000000
# 5 0.000000 0.000000 0.000000 0.000000 0.031992 0.000000
# 6 0.000000 0.000000 0.000000 0.000000 0.000000 0.031010
#
#
# Mechanical properties :
#
#
# Convention : Reuss Voigt Hill
#
# Bulk Modulus (GPa) = 46.24708 49.24604 47.74656
# Shear Modulus (GPa) = 24.65930 27.20359 25.93145
#
# Velocity S-wave (km/s) = 3.59504 3.77595 3.68660
# Velocity P-wave (km/s) = 6.43981 6.69484 6.56856
#
# Compressibility (1/GPa) = 0.02162299
#
# Stress axis : x y z
#
# Youngs Moduli (GPa) = 68.39420 83.92089 37.35213
#
# Poissons Ratio (x) = 0.11885 0.30612
# Poissons Ratio (y) = 0.09686 0.23276
# Poissons Ratio (z) = 0.56053 0.52294
#
# Static dielectric constant tensor:
#      x y z
#    x 3.525870 0.000000 0.000000 
#    y 0.000000 3.774150 0.000000 
#    z 0.000000 0.000000 3.247630 
# 
# 
# High freq. dielectric constant tensor:
#      x y z
#    x 1.732080 0.000000 0.000000 
#    y 0.000000 1.760360 0.000000 
#    z 0.000000 0.000000 1.718490 
# 
# From -- ./inp_files/10123.got.cif
#   From: 2010.03.12/outbox.cif.g09.slc.cpg/sg65_6_cif.got.tgz:10123.got - 2010.04.10 20:52:16.
