data_PCOD8271699
_publ_section_title
;
Structure prediction by ZEFSAII (Michael W. Deem and Ramdas Pophale) SiO2 
 PCOD8271699
Probable space group: C M M M
;
_chemical_formula_sum "Si O2"
_cell_formula_units_Z 80
_cell_length_a 8.969319
_cell_length_b 28.082786
_cell_length_c 20.733965
_cell_angle_alpha 90.000000
_cell_angle_beta 90.000000
_cell_angle_gamma 90.000000
_cell_volume 5222.542969
_symmetry_space_group_name_H-M "C M M M"
_symmetry_group_IT_number 65
_symmetry_cell_setting 'orthorhombic'
loop_
_space_group_symop_operation_xyz
x,y,z
-x,-y,z
x,-y,-z
-x,y,-z
-x,-y,-z
x,y,-z
-x,y,z
x,-y,z
1/2+x,1/2+y,z
1/2-x,1/2-y,z
1/2+x,1/2-y,-z
1/2-x,1/2+y,-z
1/2-x,1/2-y,-z
1/2+x,1/2+y,-z
1/2-x,1/2+y,z
1/2+x,1/2-y,z
loop_
_atom_site_type_symbol
_atom_site_label
_atom_site_fract_x
_atom_site_fract_y
_atom_site_fract_z
Si Si1 0.835630 0.943529 0.123233
Si Si2 0.170533 0.943577 0.500000
Si Si3 0.325500 0.444483 0.266878
Si Si4 0.176942 0.392705 0.618182
Si Si5 0.672943 0.299419 0.575291
Si Si6 0.665368 0.056899 0.000000
O O1 0.775103 0.930164 0.194274
O O2 0.000000 0.922066 0.114560
O O3 0.842266 0.000000 0.117678
O O4 0.738171 0.922129 0.065162
O O5 0.253019 0.925472 0.436813
O O6 0.000000 0.924631 0.500000
O O7 0.174273 0.000000 0.500000
O O8 0.500000 0.432856 0.278166
O O9 0.296560 0.500000 0.279884
O O10 0.220697 0.414174 0.313122
O O11 0.242805 0.339790 0.615271
O O12 0.000000 0.391192 0.609889
O O13 0.692532 0.311155 0.500000
O O14 0.500000 0.297322 0.594905
O O15 0.750000 0.250000 0.593562
O O16 0.500000 0.076570 0.000000
O O17 0.672738 0.000000 0.000000
#
# Coordination Sequence:
#
# PCOD8271699 Si02
#       6
#    16   8  16  16  16   8
#     4   8  14  25  40  56  76 108 149 186 218 258
#     4  11  23  37  50  63  84 117 155 191 225 261
#     4   9  18  32  47  62  85 120 158 191 225 266
#     4  12  23  33  48  69  92 116 146 184 227 272
#     4  10  20  35  55  73  91 112 139 178 225 273
#     4   9  15  21  33  55  81 107 138 181 226 261
#
# _framework density 15.318208
#
# number of rings (size 3 to 8) (size 9 to 14) (size 15 to 20)
#    0.000    2.200    1.000    4.800    0.000    6.400 
#    0.000    2.000    0.000    0.000    0.000    0.000 
#    0.000    0.000    0.000    0.900    0.000   11.900 
#
# Total GULP energy -495931.734367 kJ/mol
# GULP energy per Si atom -12398.293359 kJ/mol
# Density = 1.528334 g / cm^3
# Si number density = 15.318208 Si / 1000 Ang^3
#
#
#
# Elastic Constant Matrix: (Units=GPa)
#
#
# Indices 1 2 3 4 5 6 
#
# 1 128.7746 46.3481 65.3303 0.0000 0.0000 0.0000
# 2 46.3481 61.8579 39.3008 0.0000 0.0000 0.0000
# 3 65.3303 39.3008 119.7785 0.0000 0.0000 0.0000
# 4 0.0000 0.0000 0.0000 7.0388 0.0000 0.0000
# 5 0.0000 0.0000 0.0000 0.0000 15.3508 0.0000
# 6 0.0000 0.0000 0.0000 0.0000 0.0000 22.1559
#
#
#
# Elastic Compliance Matrix: (Units=1/GPa)
#
#
# Indices 1 2 3 4 5 6 
#
# 1 0.012428 -0.006323 -0.004704 0.000000 0.000000 0.000000
# 2 -0.006323 0.023641 -0.004308 0.000000 0.000000 0.000000
# 3 -0.004704 -0.004308 0.012328 0.000000 0.000000 0.000000
# 4 0.000000 0.000000 0.000000 0.142070 0.000000 0.000000
# 5 0.000000 0.000000 0.000000 0.000000 0.065143 0.000000
# 6 0.000000 0.000000 0.000000 0.000000 0.000000 0.045135
#
#
# Mechanical properties :
#
#
# Convention : Reuss Voigt Hill
#
# Bulk Modulus (GPa) = 56.41254 68.04105 62.22679
# Shear Modulus (GPa) = 14.82261 19.53788 17.18025
#
# Velocity S-wave (km/s) = 3.11408 3.57524 3.35260
# Velocity P-wave (km/s) = 7.05953 7.84589 7.46308
#
# Compressibility (1/GPa) = 0.01772655
#
# Stress axis : x y z
#
# Youngs Moduli (GPa) = 80.46628 42.29950 81.11792
#
# Poissons Ratio (x) = 0.26747 0.38155
# Poissons Ratio (y) = 0.50880 0.34946
# Poissons Ratio (z) = 0.37848 0.18223
#
# Static dielectric constant tensor:
#      x y z
#    x 3.089900 0.000000 0.000000 
#    y 0.000000 2.629360 0.000000 
#    z 0.000000 0.000000 3.055260 
# 
# 
# High freq. dielectric constant tensor:
#      x y z
#    x 1.598350 0.000000 0.000000 
#    y 0.000000 1.541280 0.000000 
#    z 0.000000 0.000000 1.585280 
# 
# From -- ./inp_files/60072.got.cif
#   From: 2010.03.12/outbox.cif.g09.slc.cpg/sg65_31_cif.got.tgz:60072.got - 2010.04.10 20:52:16.
