data_PCOD8271446
_publ_section_title
;
Structure prediction by ZEFSAII (Michael W. Deem and Ramdas Pophale) SiO2 
 PCOD8271446
Probable space group: C M M M
;
_chemical_formula_sum "Si O2"
_cell_formula_units_Z 72
_cell_length_a 17.842680
_cell_length_b 8.900328
_cell_length_c 23.192162
_cell_angle_alpha 90.000000
_cell_angle_beta 90.000000
_cell_angle_gamma 90.000000
_cell_volume 3683.047623
_symmetry_space_group_name_H-M "C M M M"
_symmetry_group_IT_number 65
_symmetry_cell_setting 'orthorhombic'
loop_
_space_group_symop_operation_xyz
x,y,z
-x,-y,z
x,-y,-z
-x,y,-z
-x,-y,-z
x,y,-z
-x,y,z
x,-y,z
1/2+x,1/2+y,z
1/2-x,1/2-y,z
1/2+x,1/2-y,-z
1/2-x,1/2+y,-z
1/2-x,1/2-y,-z
1/2+x,1/2+y,-z
1/2-x,1/2+y,z
1/2+x,1/2-y,z
loop_
_atom_site_type_symbol
_atom_site_label
_atom_site_fract_x
_atom_site_fract_y
_atom_site_fract_z
Si Si1 0.412077 0.673942 0.822974
Si Si2 0.912216 0.172913 0.615221
Si Si3 0.169753 0.677180 0.718406
Si Si4 0.330312 0.677151 0.500000
Si Si5 0.411111 0.168495 0.063173
O O1 0.500000 0.709062 0.814874
O O2 0.394705 0.500000 0.812524
O O3 0.365052 0.771379 0.778577
O O4 0.383581 0.718733 0.886975
O O5 0.885415 0.275552 0.667410
O O6 0.874424 0.230960 0.556552
O O7 0.000000 0.192929 0.607473
O O8 0.891218 0.000000 0.628491
O O9 0.179188 0.500000 0.719044
O O10 0.250000 0.750000 0.707626
O O11 0.321706 0.500000 0.500000
O O12 0.250000 0.750000 0.500000
O O13 0.500000 0.168094 0.061775
O O14 0.382020 0.000000 0.076468
O O15 0.381213 0.221540 0.000000
#
# Coordination Sequence:
#
# PCOD8271446 Si02
#       5
#    16  16  16   8  16
#     4  10  20  34  54  81 112 145 183 228 277 330
#     4  10  21  39  62  87 116 149 187 230 276 327
#     4  12  25  40  58  80 109 145 186 231 281 336
#     4  10  21  37  59  87 119 156 191 226 272 324
#     4   8  14  26  46  74 108 144 182 225 272 322
#
# _framework density 19.549026999999999
#
# number of rings (size 3 to 8) (size 9 to 14) (size 15 to 20)
#    0.000    2.000    0.000    5.000    0.000    8.889 
#    0.000    2.222    0.000    2.667    0.000    0.000 
#    0.000    0.000    0.000    0.000    0.000    0.000 
#
# Total GULP energy -446432.419967 kJ/mol
# GULP energy per Si atom -12400.900555 kJ/mol
# Density = 1.950453 g / cm^3
# Si number density = 19.549027 Si / 1000 Ang^3
#
#
#
# Elastic Constant Matrix: (Units=GPa)
#
#
# Indices 1 2 3 4 5 6 
#
# 1 72.7139 33.6856 39.4258 0.0000 0.0000 0.0000
# 2 33.6856 93.5690 44.9684 0.0000 0.0000 0.0000
# 3 39.4258 44.9684 139.7888 0.0000 0.0000 0.0000
# 4 0.0000 0.0000 0.0000-7833.2027 0.0000 0.0000
# 5 0.0000 0.0000 0.0000 0.0000 -2.9299 0.0000
# 6 0.0000 0.0000 0.0000 0.0000 0.0000 28.8257
#
#
#
# Elastic Compliance Matrix: (Units=1/GPa)
#
#
# Indices 1 2 3 4 5 6 
#
# 1 0.017851 -0.004740 -0.003510 0.000000 0.000000 0.000000
# 2 -0.004740 0.013900 -0.003135 0.000000 0.000000 0.000000
# 3 -0.003510 -0.003135 0.009152 0.000000 0.000000 0.000000
# 4 0.000000 0.000000 0.000000 -0.000128 0.000000 0.000000
# 5 0.000000 0.000000 0.000000 0.000000 -0.341303 0.000000
# 6 0.000000 0.000000 0.000000 0.000000 0.000000 0.034691
#
#
# Mechanical properties :
#
#
# Convention : Reuss Voigt Hill
#
# Bulk Modulus (GPa) = 55.14339 60.24793 57.69566
# Shear Modulus (GPa) = -21.09509 -1548.92860 -785.01185
#
# Velocity S-wave (km/s) = -3.28851 -28.17890 -20.06072
# Velocity P-wave (km/s) = 3.72155 32.06007 22.51664
#
# Compressibility (1/GPa) = 0.01813454
#
# Stress axis : x y z
#
# Youngs Moduli (GPa) = 56.01779 71.94148 109.26538
#
# Poissons Ratio (x) = 0.34099 0.38353
# Poissons Ratio (y) = 0.26551 0.34252
# Poissons Ratio (z) = 0.19663 0.22552
#
# Static dielectric constant tensor:
#      x y z
#    x 3.365710 0.000000 0.000000 
#    y 0.000000 3.582790 0.000000 
#    z 0.000000 0.000000 3.996610 
# 
# 
# High freq. dielectric constant tensor:
#      x y z
#    x 1.740260 0.000000 0.000000 
#    y 0.000000 1.757550 0.000000 
#    z 0.000000 0.000000 1.782960 
# 
# From -- ./inp_files/64374.got.cif
#   From: 2010.03.12/outbox.cif.g09.slc.cpg/sg65_33_cif.got.tgz:64374.got - 2010.04.10 20:52:16.
