data_PCOD8271236
_publ_section_title
;
Structure prediction by ZEFSAII (Michael W. Deem and Ramdas Pophale) SiO2 
 PCOD8271236
Probable space group: C M M M
;
_chemical_formula_sum "Si O2"
_cell_formula_units_Z 104
_cell_length_a 29.220226
_cell_length_b 8.872626
_cell_length_c 22.839633
_cell_angle_alpha 90.000000
_cell_angle_beta 90.000000
_cell_angle_gamma 90.000000
_cell_volume 5921.406379
_symmetry_space_group_name_H-M "C M M M"
_symmetry_group_IT_number 65
_symmetry_cell_setting 'orthorhombic'
loop_
_space_group_symop_operation_xyz
x,y,z
-x,-y,z
x,-y,-z
-x,y,-z
-x,-y,-z
x,y,-z
-x,y,z
x,-y,z
1/2+x,1/2+y,z
1/2-x,1/2-y,z
1/2+x,1/2-y,-z
1/2-x,1/2+y,-z
1/2-x,1/2-y,-z
1/2+x,1/2+y,-z
1/2-x,1/2+y,z
1/2+x,1/2-y,z
loop_
_atom_site_type_symbol
_atom_site_label
_atom_site_fract_x
_atom_site_fract_y
_atom_site_fract_z
Si Si1 0.293967 0.667334 0.569518
Si Si2 0.447036 0.323741 0.209786
Si Si3 0.614036 0.177932 0.434712
Si Si4 0.297778 0.322548 0.067934
Si Si5 0.889216 0.321121 0.109469
Si Si6 0.446983 0.828962 0.329342
Si Si7 0.948423 0.321113 0.000000
O O1 0.289843 0.661813 0.500000
O O2 0.296624 0.500000 0.595913
O O3 0.250000 0.750000 0.596848
O O4 0.338318 0.758631 0.588986
O O5 0.500000 0.280587 0.196918
O O6 0.438486 0.500000 0.200378
O O7 0.413829 0.228693 0.168635
O O8 0.433769 0.279283 0.275814
O O9 0.602227 0.240349 0.500000
O O10 0.576206 0.231946 0.388613
O O11 0.617929 0.000000 0.437227
O O12 0.295460 0.500000 0.078860
O O13 0.250000 0.250000 0.089238
O O14 0.339187 0.252974 0.105329
O O15 0.306244 0.282809 0.000000
O O16 0.883371 0.500000 0.108084
O O17 0.921251 0.262506 0.056649
O O18 0.500000 0.822205 0.342960
O O19 0.431525 0.000000 0.314467
O O20 0.951007 0.500000 0.000000
O O21 0.000000 0.253559 0.000000
#
# Coordination Sequence:
#
# PCOD8271236 Si02
#       7
#    16  16  16  16  16  16   8
#     4   9  16  26  42  65  94 127 161 196 237 289
#     4  10  21  36  53  74 101 135 175 216 258 306
#     4   9  17  29  47  73 103 131 162 205 255 304
#     4  10  20  34  53  77 108 141 177 216 257 304
#     4  11  20  33  54  78 106 137 173 213 259 308
#     4   9  18  33  52  73  98 132 173 211 250 301
#     4   9  18  30  46  73 106 135 164 203 250 299
#
# _framework density 17.563396000000001
#
# number of rings (size 3 to 8) (size 9 to 14) (size 15 to 20)
#    0.000    2.385    0.769    2.308    0.000    4.923 
#    0.000    1.538    0.000    2.769    0.000    6.462 
#    0.000    0.000    0.000    0.000    0.000    0.000 
#
# Total GULP energy -644805.013056 kJ/mol
# GULP energy per Si atom -12400.096405 kJ/mol
# Density = 1.752342 g / cm^3
# Si number density = 17.563396 Si / 1000 Ang^3
#
#
#
# Elastic Constant Matrix: (Units=GPa)
#
#
# Indices 1 2 3 4 5 6 
#
# 1 118.6652 39.3941 61.4644 0.0000 0.0000 0.0000
# 2 39.3941 50.9986 32.4478 0.0000 0.0000 0.0000
# 3 61.4644 32.4478 83.6103 0.0000 0.0000 0.0000
# 4 0.0000 0.0000 0.0000 19.6611 0.0000 0.0000
# 5 0.0000 0.0000 0.0000 0.0000 14.4619 0.0000
# 6 0.0000 0.0000 0.0000 0.0000 0.0000 30.2799
#
#
#
# Elastic Compliance Matrix: (Units=1/GPa)
#
#
# Indices 1 2 3 4 5 6 
#
# 1 0.014883 -0.006022 -0.008604 0.000000 0.000000 0.000000
# 2 -0.006022 0.028474 -0.006623 0.000000 0.000000 0.000000
# 3 -0.008604 -0.006623 0.020855 0.000000 0.000000 0.000000
# 4 0.000000 0.000000 0.000000 0.050862 0.000000 0.000000
# 5 0.000000 0.000000 0.000000 0.000000 0.069147 0.000000
# 6 0.000000 0.000000 0.000000 0.000000 0.000000 0.033025
#
#
# Mechanical properties :
#
#
# Convention : Reuss Voigt Hill
#
# Bulk Modulus (GPa) = 46.05282 57.76521 51.90901
# Shear Modulus (GPa) = 18.72778 20.87843 19.80310
#
# Velocity S-wave (km/s) = 3.26896 3.45156 3.36150
# Velocity P-wave (km/s) = 6.36600 6.98894 6.68473
#
# Compressibility (1/GPa) = 0.02171420
#
# Stress axis : x y z
#
# Youngs Moduli (GPa) = 67.19243 35.11936 47.94921
#
# Poissons Ratio (x) = 0.21149 0.41253
# Poissons Ratio (y) = 0.40464 0.31759
# Poissons Ratio (z) = 0.57809 0.23261
#
# Static dielectric constant tensor:
#      x y z
#    x 3.344400 0.000000 0.000000 
#    y 0.000000 3.244740 0.000000 
#    z 0.000000 0.000000 3.114960 
# 
# 
# High freq. dielectric constant tensor:
#      x y z
#    x 1.683180 0.000000 0.000000 
#    y 0.000000 1.679530 0.000000 
#    z 0.000000 0.000000 1.650110 
# 
# From -- ./inp_files/76003.got.cif
#   From: 2010.03.12/outbox.cif.g09.slc.cpg/sg65_39_cif.got.tgz:76003.got - 2010.04.10 20:52:16.
