data_PCOD8271182
_publ_section_title
;
Structure prediction by ZEFSAII (Michael W. Deem and Ramdas Pophale) SiO2 
 PCOD8271182
Probable space group: C M M M
;
_chemical_formula_sum "Si O2"
_cell_formula_units_Z 72
_cell_length_a 9.244386
_cell_length_b 19.813315
_cell_length_c 22.266713
_cell_angle_alpha 90.000000
_cell_angle_beta 90.000000
_cell_angle_gamma 90.000000
_cell_volume 4078.414168
_symmetry_space_group_name_H-M "C M M M"
_symmetry_group_IT_number 65
_symmetry_cell_setting 'orthorhombic'
loop_
_space_group_symop_operation_xyz
x,y,z
-x,-y,z
x,-y,-z
-x,y,-z
-x,-y,-z
x,y,-z
-x,y,z
x,-y,z
1/2+x,1/2+y,z
1/2-x,1/2-y,z
1/2+x,1/2-y,-z
1/2-x,1/2+y,-z
1/2-x,1/2-y,-z
1/2+x,1/2+y,-z
1/2-x,1/2+y,z
1/2+x,1/2-y,z
loop_
_atom_site_type_symbol
_atom_site_label
_atom_site_fract_x
_atom_site_fract_y
_atom_site_fract_z
Si Si1 0.830103 0.682437 0.147814
Si Si2 0.168756 0.422630 0.616256
Si Si3 0.832047 0.683832 0.285368
Si Si4 0.664805 0.421688 0.930722
Si Si5 0.163285 0.919762 0.500000
O O1 0.750000 0.750000 0.125854
O O2 0.790755 0.666789 0.216899
O O3 0.776216 0.619819 0.109133
O O4 0.000000 0.692238 0.137948
O O5 0.210611 0.500000 0.629967
O O6 0.214238 0.379907 0.674496
O O7 0.255485 0.393286 0.559292
O O8 0.000000 0.415712 0.601345
O O9 0.750000 0.750000 0.308558
O O10 0.000000 0.699701 0.291873
O O11 0.500000 0.404074 0.912742
O O12 0.696385 0.500000 0.919074
O O13 0.691508 0.403463 0.000000
O O14 0.000000 0.891849 0.500000
O O15 0.167471 0.000000 0.500000
#
# Coordination Sequence:
#
# PCOD8271182 Si02
#       5
#    16  16  16  16   8
#     4  10  20  34  53  76 102 133 169 208 249 295
#     4   9  17  31  51  72  95 126 162 197 238 289
#     4   9  19  34  51  72  99 130 162 200 244 289
#     4   9  19  36  55  75 102 134 166 204 251 299
#     4   9  17  29  46  71 100 125 155 199 244 283
#
# _framework density 17.653921
#
# number of rings (size 3 to 8) (size 9 to 14) (size 15 to 20)
#    0.000    2.778    0.000    1.667    0.000    5.333 
#    0.000    3.889    0.000    2.667    0.000    0.000 
#    0.000    0.000    0.000    0.000    0.000    0.000 
#
# Total GULP energy -446461.580403 kJ/mol
# GULP energy per Si atom -12401.710567 kJ/mol
# Density = 1.761374 g / cm^3
# Si number density = 17.653921 Si / 1000 Ang^3
#
#
#
# Elastic Constant Matrix: (Units=GPa)
#
#
# Indices 1 2 3 4 5 6 
#
# 1 81.2880 52.2820 54.4203 0.0000 0.0000 0.0000
# 2 52.2820 92.8118 66.0235 0.0000 0.0000 0.0000
# 3 54.4203 66.0235 96.8850 0.0000 0.0000 0.0000
# 4 0.0000 0.0000 0.0000 14.0196 0.0000 0.0000
# 5 0.0000 0.0000 0.0000 0.0000 26.6351 0.0000
# 6 0.0000 0.0000 0.0000 0.0000 0.0000 31.5525
#
#
#
# Elastic Compliance Matrix: (Units=1/GPa)
#
#
# Indices 1 2 3 4 5 6 
#
# 1 0.021791 -0.006925 -0.007521 0.000000 0.000000 0.000000
# 2 -0.006925 0.023113 -0.011861 0.000000 0.000000 0.000000
# 3 -0.007521 -0.011861 0.022629 0.000000 0.000000 0.000000
# 4 0.000000 0.000000 0.000000 0.071329 0.000000 0.000000
# 5 0.000000 0.000000 0.000000 0.000000 0.037544 0.000000
# 6 0.000000 0.000000 0.000000 0.000000 0.000000 0.031693
#
#
# Mechanical properties :
#
#
# Convention : Reuss Voigt Hill
#
# Bulk Modulus (GPa) = 67.02774 68.49294 67.76034
# Shear Modulus (GPa) = 18.81930 20.99204 19.90567
#
# Velocity S-wave (km/s) = 3.26853 3.45205 3.36154
# Velocity P-wave (km/s) = 7.23149 7.40072 7.31659
#
# Compressibility (1/GPa) = 0.01491920
#
# Stress axis : x y z
#
# Youngs Moduli (GPa) = 45.89078 43.26613 44.19187
#
# Poissons Ratio (x) = 0.29962 0.33236
# Poissons Ratio (y) = 0.31779 0.52415
# Poissons Ratio (z) = 0.34514 0.51317
#
# Static dielectric constant tensor:
#      x y z
#    x 3.281450 0.000000 0.000000 
#    y 0.000000 3.168830 0.000000 
#    z 0.000000 0.000000 3.326020 
# 
# 
# High freq. dielectric constant tensor:
#      x y z
#    x 1.684920 0.000000 0.000000 
#    y 0.000000 1.670260 0.000000 
#    z 0.000000 0.000000 1.683900 
# 
# From -- ./inp_files/49529.got.cif
#   From: 2010.03.12/outbox.cif.g09.slc.cpg/sg65_25_cif.got.tgz:49529.got - 2010.04.10 20:52:16.
