data_PCOD8271863
_publ_section_title
;
Structure prediction by ZEFSAII (Michael W. Deem and Ramdas Pophale) SiO2 
 PCOD8271863
Probable space group: C M M M
;
_chemical_formula_sum "Si O2"
_cell_formula_units_Z 104
_cell_length_a 8.745198
_cell_length_b 31.292983
_cell_length_c 19.209944
_cell_angle_alpha 90.000000
_cell_angle_beta 90.000000
_cell_angle_gamma 90.000000
_cell_volume 5257.057289
_symmetry_space_group_name_H-M "C M M M"
_symmetry_group_IT_number 65
_symmetry_cell_setting 'orthorhombic'
loop_
_space_group_symop_operation_xyz
x,y,z
-x,-y,z
x,-y,-z
-x,y,-z
-x,-y,-z
x,y,-z
-x,y,z
x,-y,z
1/2+x,1/2+y,z
1/2-x,1/2-y,z
1/2+x,1/2-y,-z
1/2-x,1/2+y,-z
1/2-x,1/2-y,-z
1/2+x,1/2+y,-z
1/2-x,1/2+y,z
1/2+x,1/2-y,z
loop_
_atom_site_type_symbol
_atom_site_label
_atom_site_fract_x
_atom_site_fract_y
_atom_site_fract_z
Si Si1 0.181394 0.206790 0.292470
Si Si2 0.323129 0.047780 0.288287
Si Si3 0.679182 0.375541 0.794506
Si Si4 0.178355 0.923114 0.578727
Si Si5 0.180351 0.412655 0.921404
Si Si6 0.171785 0.000000 0.917291
Si Si7 0.322961 0.831938 0.578638
O O1 0.250000 0.250000 0.258524
O O2 0.234240 0.166848 0.245359
O O3 0.256457 0.203143 0.368904
O O4 0.000000 0.209620 0.298662
O O5 0.500000 0.060361 0.280619
O O6 0.222721 0.082236 0.247981
O O7 0.275320 0.047450 0.369435
O O8 0.293270 0.000000 0.258691
O O9 0.500000 0.374933 0.806238
O O10 0.758460 0.375676 0.870532
O O11 0.214933 0.937784 0.500000
O O12 0.224346 0.874239 0.590493
O O13 0.000000 0.927812 0.595930
O O14 0.241572 0.457717 0.891262
O O15 0.000000 0.414371 0.919258
O O16 0.239117 0.403754 0.000000
O O17 0.000000 0.000000 0.887336
O O18 0.172171 0.000000 0.000000
O O19 0.302865 0.814731 0.500000
O O20 0.500000 0.841786 0.594948
#
# Coordination Sequence:
#
# PCOD8271863 Si02
#       7
#    16  16  16  16  16   8  16
#     4  11  24  41  63  90 118 152 194 241 297 356
#     4  11  24  39  57  83 116 157 203 247 295 350
#     4  11  24  41  62  88 119 155 195 241 294 351
#     4  10  20  35  56  81 112 152 198 248 299 350
#     4  10  21  37  59  87 120 158 197 239 289 346
#     4   9  17  31  53  83 119 157 196 237 280 331
#     4  10  20  35  58  86 116 152 192 239 296 353
#
# _framework density 19.782931999999999
#
# number of rings (size 3 to 8) (size 9 to 14) (size 15 to 20)
#    0.000    1.615    1.538    3.000    1.077    7.385 
#    0.000    1.538    0.000    0.462    0.000    0.000 
#    0.000    0.000    0.000    0.000    0.000    0.000 
#
# Total GULP energy -644934.870376 kJ/mol
# GULP energy per Si atom -12402.593661 kJ/mol
# Density = 1.973790 g / cm^3
# Si number density = 19.782932 Si / 1000 Ang^3
#
#
#
# Elastic Constant Matrix: (Units=GPa)
#
#
# Indices 1 2 3 4 5 6 
#
# 1 62.8544 30.3018 29.0578 0.0000 0.0000 0.0000
# 2 30.3018 104.7014 52.1532 0.0000 0.0000 0.0000
# 3 29.0578 52.1532 100.2811 0.0000 0.0000 0.0000
# 4 0.0000 0.0000 0.0000 19.8256 0.0000 0.0000
# 5 0.0000 0.0000 0.0000 0.0000 32.8548 0.0000
# 6 0.0000 0.0000 0.0000 0.0000 0.0000 31.6446
#
#
#
# Elastic Compliance Matrix: (Units=1/GPa)
#
#
# Indices 1 2 3 4 5 6 
#
# 1 0.019432 -0.003805 -0.003652 0.000000 0.000000 0.000000
# 2 -0.003805 0.013635 -0.005989 0.000000 0.000000 0.000000
# 3 -0.003652 -0.005989 0.014145 0.000000 0.000000 0.000000
# 4 0.000000 0.000000 0.000000 0.050440 0.000000 0.000000
# 5 0.000000 0.000000 0.000000 0.000000 0.030437 0.000000
# 6 0.000000 0.000000 0.000000 0.000000 0.000000 0.031601
#
#
# Mechanical properties :
#
#
# Convention : Reuss Voigt Hill
#
# Bulk Modulus (GPa) = 49.20982 54.54029 51.87506
# Shear Modulus (GPa) = 25.85916 27.28662 26.57289
#
# Velocity S-wave (km/s) = 3.61937 3.71792 3.66898
# Velocity P-wave (km/s) = 6.51117 6.78674 6.65038
#
# Compressibility (1/GPa) = 0.02032115
#
# Stress axis : x y z
#
# Youngs Moduli (GPa) = 51.46041 73.33946 70.69755
#
# Poissons Ratio (x) = 0.27905 0.25819
# Poissons Ratio (y) = 0.19580 0.42339
# Poissons Ratio (z) = 0.18793 0.43921
#
# Static dielectric constant tensor:
#      x y z
#    x 3.625620 0.000000 0.000000 
#    y 0.000000 3.482920 0.000000 
#    z 0.000000 0.000000 3.817090 
# 
# 
# High freq. dielectric constant tensor:
#      x y z
#    x 1.783970 0.000000 0.000000 
#    y 0.000000 1.749660 0.000000 
#    z 0.000000 0.000000 1.771180 
# 
# From -- ./inp_files/60381.got.cif
#   From: 2010.03.12/outbox.cif.g09.slc.cpg/sg65_31_cif.got.tgz:60381.got - 2010.04.10 20:52:16.
