data_PCOD8271117
_publ_section_title
;
Structure prediction by ZEFSAII (Michael W. Deem and Ramdas Pophale) SiO2 
 PCOD8271117
Probable space group: C M M M
;
_chemical_formula_sum "Si O2"
_cell_formula_units_Z 104
_cell_length_a 17.420860
_cell_length_b 18.537685
_cell_length_c 17.189314
_cell_angle_alpha 90.000000
_cell_angle_beta 90.000000
_cell_angle_gamma 90.000000
_cell_volume 5551.158577
_symmetry_space_group_name_H-M "C M M M"
_symmetry_group_IT_number 65
_symmetry_cell_setting 'orthorhombic'
loop_
_space_group_symop_operation_xyz
x,y,z
-x,-y,z
x,-y,-z
-x,y,-z
-x,-y,-z
x,y,-z
-x,y,z
x,-y,z
1/2+x,1/2+y,z
1/2-x,1/2-y,z
1/2+x,1/2-y,-z
1/2-x,1/2+y,-z
1/2-x,1/2-y,-z
1/2+x,1/2+y,-z
1/2-x,1/2+y,z
1/2+x,1/2-y,z
loop_
_atom_site_type_symbol
_atom_site_label
_atom_site_fract_x
_atom_site_fract_y
_atom_site_fract_z
Si Si1 0.650208 0.080063 0.808043
Si Si2 0.266200 0.166962 0.410286
Si Si3 0.911268 0.151573 0.845102
Si Si4 0.587306 0.584552 0.000000
Si Si5 0.691363 0.582604 0.722054
Si Si6 0.912497 0.583982 0.354977
Si Si7 0.411913 0.197042 0.912103
O O1 0.735277 0.089907 0.776475
O O2 0.591288 0.096721 0.737767
O O3 0.639129 0.131916 0.881031
O O4 0.636820 0.000000 0.840195
O O5 0.245239 0.156312 0.500000
O O6 0.250000 0.250000 0.385632
O O7 0.207751 0.117830 0.361466
O O8 0.354230 0.139773 0.396833
O O9 0.872998 0.112923 0.920822
O O10 0.876213 0.125348 0.764345
O O11 0.897638 0.236441 0.854430
O O12 0.000000 0.130700 0.840821
O O13 0.591077 0.500000 0.000000
O O14 0.500000 0.614916 0.000000
O O15 0.667184 0.500000 0.708936
O O16 0.889445 0.500000 0.373326
O O17 0.000000 0.599357 0.382791
O O18 0.500000 0.172904 0.910780
O O19 0.386758 0.217052 0.000000
#
# Coordination Sequence:
#
# PCOD8271117 Si02
#       7
#    16  16  16   8  16  16  16
#     4   9  19  35  52  76 112 148 184 225 273 330
#     4  10  22  39  58  84 119 153 182 220 277 343
#     4  10  20  35  55  82 109 138 185 238 281 325
#     4   9  16  30  52  73 101 137 172 229 295 325
#     4  10  22  38  58  83 108 143 187 226 273 335
#     4   9  18  34  60  90 114 144 190 240 285 328
#     4  10  20  34  52  76 107 145 187 227 275 334
#
# _framework density 18.734828
#
# number of rings (size 3 to 8) (size 9 to 14) (size 15 to 20)
#    0.000    2.385    0.769    2.308    4.308    3.692 
#    1.385    2.308    0.000    1.385    0.000    1.077 
#    0.000    0.000    0.000    0.000    0.000    0.000 
#
# Total GULP energy -644693.380677 kJ/mol
# GULP energy per Si atom -12397.949628 kJ/mol
# Density = 1.869219 g / cm^3
# Si number density = 18.734828 Si / 1000 Ang^3
#
#
#
# Elastic Constant Matrix: (Units=GPa)
#
#
# Indices 1 2 3 4 5 6 
#
# 1 58.3461 49.2943 38.7443 0.0000 0.0000 0.0000
# 2 49.2943 114.5050 55.1142 0.0000 0.0000 0.0000
# 3 38.7443 55.1142 93.6530 0.0000 0.0000 0.0000
# 4 0.0000 0.0000 0.0000 34.4322 0.0000 0.0000
# 5 0.0000 0.0000 0.0000 0.0000 21.0680 0.0000
# 6 0.0000 0.0000 0.0000 0.0000 0.0000 30.2250
#
#
#
# Elastic Compliance Matrix: (Units=1/GPa)
#
#
# Indices 1 2 3 4 5 6 
#
# 1 0.029616 -0.009561 -0.006626 0.000000 0.000000 0.000000
# 2 -0.009561 0.015271 -0.005032 0.000000 0.000000 0.000000
# 3 -0.006626 -0.005032 0.016380 0.000000 0.000000 0.000000
# 4 0.000000 0.000000 0.000000 0.029043 0.000000 0.000000
# 5 0.000000 0.000000 0.000000 0.000000 0.047465 0.000000
# 6 0.000000 0.000000 0.000000 0.000000 0.000000 0.033085
#
#
# Mechanical properties :
#
#
# Convention : Reuss Voigt Hill
#
# Bulk Modulus (GPa) = 53.10418 61.42331 57.26375
# Shear Modulus (GPa) = 22.77139 25.36845 24.06992
#
# Velocity S-wave (km/s) = 3.49012 3.68377 3.58826
# Velocity P-wave (km/s) = 6.68191 7.13795 6.91370
#
# Compressibility (1/GPa) = 0.01883091
#
# Stress axis : x y z
#
# Youngs Moduli (GPa) = 33.76508 65.48397 61.05019
#
# Poissons Ratio (x) = 0.62607 0.40452
# Poissons Ratio (y) = 0.32281 0.30718
# Poissons Ratio (z) = 0.22373 0.32949
#
# Static dielectric constant tensor:
#      x y z
#    x 3.264880 0.000000 0.000000 
#    y 0.000000 3.490540 0.000000 
#    z 0.000000 0.000000 3.365750 
# 
# 
# High freq. dielectric constant tensor:
#      x y z
#    x 1.704730 0.000000 0.000000 
#    y 0.000000 1.734990 0.000000 
#    z 0.000000 0.000000 1.718880 
# 
# From -- ./inp_files/54626.got.cif
#   From: 2010.03.12/outbox.cif.g09.slc.cpg/sg65_28_cif.got.tgz:54626.got - 2010.04.10 20:52:16.
