data_PCOD8271403
_publ_section_title
;
Structure prediction by ZEFSAII (Michael W. Deem and Ramdas Pophale) SiO2 
 PCOD8271403
Probable space group: C M M M
;
_chemical_formula_sum "Si O2"
_cell_formula_units_Z 80
_cell_length_a 9.013256
_cell_length_b 18.555821
_cell_length_c 25.086139
_cell_angle_alpha 90.000000
_cell_angle_beta 90.000000
_cell_angle_gamma 90.000000
_cell_volume 4195.615731
_symmetry_space_group_name_H-M "C M M M"
_symmetry_group_IT_number 65
_symmetry_cell_setting 'orthorhombic'
loop_
_space_group_symop_operation_xyz
x,y,z
-x,-y,z
x,-y,-z
-x,y,-z
-x,-y,-z
x,y,-z
-x,y,z
x,-y,z
1/2+x,1/2+y,z
1/2-x,1/2-y,z
1/2+x,1/2-y,-z
1/2-x,1/2+y,-z
1/2-x,1/2-y,-z
1/2+x,1/2+y,-z
1/2-x,1/2+y,z
1/2+x,1/2-y,z
loop_
_atom_site_type_symbol
_atom_site_label
_atom_site_fract_x
_atom_site_fract_y
_atom_site_fract_z
Si Si1 0.668344 0.914568 0.394848
Si Si2 0.673368 0.916893 0.102559
Si Si3 0.174883 0.327145 0.000000
Si Si4 0.327022 0.323649 0.186669
Si Si5 0.826488 0.823645 0.310019
Si Si6 0.167867 0.914126 0.500000
O O1 0.500000 0.885737 0.393831
O O2 0.756474 0.888633 0.343063
O O3 0.747662 0.884438 0.447946
O O4 0.671942 0.000000 0.394228
O O5 0.500000 0.905997 0.113533
O O6 0.762519 0.890619 0.154135
O O7 0.711734 0.000000 0.091925
O O8 0.726795 0.871621 0.051570
O O9 0.250000 0.250000 0.000000
O O10 0.000000 0.316241 0.000000
O O11 0.500000 0.315381 0.175275
O O12 0.250000 0.250000 0.167473
O O13 0.292862 0.339311 0.248308
O O14 0.750000 0.750000 0.328679
O O15 0.000000 0.818213 0.321666
O O16 0.000000 0.884421 0.500000
O O17 0.168614 0.000000 0.500000
#
# Coordination Sequence:
#
# PCOD8271403 Si02
#       6
#    16  16   8  16  16   8
#     4  10  20  34  54  80 109 141 179 222 267 319
#     4  10  21  37  57  81 111 145 180 222 271 320
#     4  10  21  37  57  81 109 144 185 224 266 320
#     4  10  21  37  57  80 107 141 181 223 267 321
#     4  10  21  37  56  78 107 142 179 221 270 322
#     4   9  17  31  52  77 106 141 180 221 267 319
#
# _framework density 19.067525
#
# number of rings (size 3 to 8) (size 9 to 14) (size 15 to 20)
#    0.000    2.100    0.000    3.000    0.000    9.600 
#    0.000    4.500    0.000    1.800    0.000    0.000 
#    0.000    0.000    0.000    0.000    0.000    0.000 
#
# Total GULP energy -496192.232690 kJ/mol
# GULP energy per Si atom -12404.805817 kJ/mol
# Density = 1.902413 g / cm^3
# Si number density = 19.067525 Si / 1000 Ang^3
#
#
#
# Elastic Constant Matrix: (Units=GPa)
#
#
# Indices 1 2 3 4 5 6 
#
# 1 113.7300 47.2059 64.4582 0.0000 0.0000 0.0000
# 2 47.2059 87.5767 56.3582 0.0000 0.0000 0.0000
# 3 64.4582 56.3582 111.7600 0.0000 0.0000 0.0000
# 4 0.0000 0.0000 0.0000 29.1316 0.0000 0.0000
# 5 0.0000 0.0000 0.0000 0.0000 33.5918 0.0000
# 6 0.0000 0.0000 0.0000 0.0000 0.0000 34.4694
#
#
#
# Elastic Compliance Matrix: (Units=1/GPa)
#
#
# Indices 1 2 3 4 5 6 
#
# 1 0.013717 -0.003409 -0.006193 0.000000 0.000000 0.000000
# 2 -0.003409 0.017751 -0.006986 0.000000 0.000000 0.000000
# 3 -0.006193 -0.006986 0.016042 0.000000 0.000000 0.000000
# 4 0.000000 0.000000 0.000000 0.034327 0.000000 0.000000
# 5 0.000000 0.000000 0.000000 0.000000 0.029769 0.000000
# 6 0.000000 0.000000 0.000000 0.000000 0.000000 0.029011
#
#
# Mechanical properties :
#
#
# Convention : Reuss Voigt Hill
#
# Bulk Modulus (GPa) = 69.75055 72.12349 70.93702
# Shear Modulus (GPa) = 28.00001 29.10818 28.55410
#
# Velocity S-wave (km/s) = 3.83621 3.91139 3.87399
# Velocity P-wave (km/s) = 7.50215 7.63584 7.56929
#
# Compressibility (1/GPa) = 0.01433680
#
# Stress axis : x y z
#
# Youngs Moduli (GPa) = 72.89998 56.33337 62.33631
#
# Poissons Ratio (x) = 0.19204 0.38602
# Poissons Ratio (y) = 0.24851 0.43545
# Poissons Ratio (z) = 0.45144 0.39352
#
# Static dielectric constant tensor:
#      x y z
#    x 3.604270 0.000000 0.000000 
#    y 0.000000 3.296660 0.000000 
#    z 0.000000 0.000000 3.572710 
# 
# 
# High freq. dielectric constant tensor:
#      x y z
#    x 1.751090 0.000000 0.000000 
#    y 0.000000 1.727140 0.000000 
#    z 0.000000 0.000000 1.751000 
# 
# From -- ./inp_files/72912.got.cif
#   From: 2010.03.12/outbox.cif.g09.slc.cpg/sg65_37_cif.got.tgz:72912.got - 2010.04.10 20:52:16.
