data_PCOD8271582
_publ_section_title
;
Structure prediction by ZEFSAII (Michael W. Deem and Ramdas Pophale) SiO2 
 PCOD8271582
Probable space group: C M M M
;
_chemical_formula_sum "Si O2"
_cell_formula_units_Z 72
_cell_length_a 18.216166
_cell_length_b 24.653753
_cell_length_c 7.494448
_cell_angle_alpha 90.000000
_cell_angle_beta 90.000000
_cell_angle_gamma 90.000000
_cell_volume 3365.733043
_symmetry_space_group_name_H-M "C M M M"
_symmetry_group_IT_number 65
_symmetry_cell_setting 'orthorhombic'
loop_
_space_group_symop_operation_xyz
x,y,z
-x,-y,z
x,-y,-z
-x,y,-z
-x,-y,-z
x,y,-z
-x,y,z
x,-y,z
1/2+x,1/2+y,z
1/2-x,1/2-y,z
1/2+x,1/2-y,-z
1/2-x,1/2+y,-z
1/2-x,1/2-y,-z
1/2+x,1/2+y,-z
1/2-x,1/2+y,z
1/2+x,1/2-y,z
loop_
_atom_site_type_symbol
_atom_site_label
_atom_site_fract_x
_atom_site_fract_y
_atom_site_fract_z
Si Si1 0.316631 0.656501 0.199227
Si Si2 0.918366 0.750655 0.210950
Si Si3 0.586447 0.063030 0.500000
Si Si4 0.654832 0.862223 0.788321
Si Si5 0.083006 0.061288 0.709691
O O1 0.364060 0.703809 0.296160
O O2 0.237387 0.646758 0.287438
O O3 0.361663 0.600780 0.190897
O O4 0.299859 0.676722 0.000000
O O5 0.890689 0.691233 0.261170
O O6 0.000000 0.758516 0.291580
O O7 0.921159 0.758690 0.000000
O O8 0.500000 0.072709 0.500000
O O9 0.619906 0.088213 0.319491
O O10 0.607050 0.000000 0.500000
O O11 0.652293 0.875555 0.000000
O O12 0.092692 0.068583 0.500000
O O13 0.000000 0.075541 0.767288
O O14 0.101933 0.000000 0.767221
#
# Coordination Sequence:
#
# PCOD8271582 Si02
#       5
#    16  16   8  16  16
#     4  10  20  34  56  88 120 152 197 247 295 355
#     4   9  17  33  59  87 120 161 198 240 296 356
#     4  11  26  46  67  92 119 153 203 256 302 358
#     4  10  22  41  64  91 125 161 196 245 309 364
#     4   9  19  35  52  73 109 157 202 244 293 349
#
# _framework density 21.392071000000001
#
# number of rings (size 3 to 8) (size 9 to 14) (size 15 to 20)
#    0.000    2.333    0.000    2.667    1.556    7.111 
#    2.000    5.556    0.000    0.000    0.000    0.000 
#    0.000    0.000    0.000    0.000    0.000    0.000 
#
# Total GULP energy -446341.593132 kJ/mol
# GULP energy per Si atom -12398.377587 kJ/mol
# Density = 2.134338 g / cm^3
# Si number density = 21.392071 Si / 1000 Ang^3
#
#
#
# Elastic Constant Matrix: (Units=GPa)
#
#
# Indices 1 2 3 4 5 6 
#
# 1 176.1917 92.4810 31.7941 0.0000 0.0000 0.0000
# 2 92.4810 151.3774 35.5851 0.0000 0.0000 0.0000
# 3 31.7941 35.5851 60.4103 0.0000 0.0000 0.0000
# 4 0.0000 0.0000 0.0000 -19.2518 0.0000 0.0000
# 5 0.0000 0.0000 0.0000 0.0000 20.2005 0.0000
# 6 0.0000 0.0000 0.0000 0.0000 0.0000 26.3497
#
#
#
# Elastic Compliance Matrix: (Units=1/GPa)
#
#
# Indices 1 2 3 4 5 6 
#
# 1 0.008493 -0.004803 -0.001641 0.000000 0.000000 0.000000
# 2 -0.004803 0.010384 -0.003589 0.000000 0.000000 0.000000
# 3 -0.001641 -0.003589 0.019531 0.000000 0.000000 0.000000
# 4 0.000000 0.000000 0.000000 -0.051943 0.000000 0.000000
# 5 0.000000 0.000000 0.000000 0.000000 0.049504 0.000000
# 6 0.000000 0.000000 0.000000 0.000000 0.000000 0.037951
#
#
# Mechanical properties :
#
#
# Convention : Reuss Voigt Hill
#
# Bulk Modulus (GPa) = 54.51714 78.63330 66.57522
# Shear Modulus (GPa) = 49.95112 20.66762 35.30937
#
# Velocity S-wave (km/s) = 4.83746 3.11164 4.06714
# Velocity P-wave (km/s) = 7.53269 7.05321 7.29689
#
# Compressibility (1/GPa) = 0.01834285
#
# Stress axis : x y z
#
# Youngs Moduli (GPa) = 117.75001 96.30390 51.20059
#
# Poissons Ratio (x) = 0.46252 0.08400
# Poissons Ratio (y) = 0.56552 0.18376
# Poissons Ratio (z) = 0.19318 0.34563
#
# Static dielectric constant tensor:
#      x y z
#    x 4.135420 0.000000 0.000000 
#    y 0.000000 3.833240 0.000000 
#    z 0.000000 0.000000 3.488530 
# 
# 
# High freq. dielectric constant tensor:
#      x y z
#    x 1.852200 0.000000 0.000000 
#    y 0.000000 1.838580 0.000000 
#    z 0.000000 0.000000 1.819370 
# 
# From -- ./inp_files/9277.got.cif
#   From: 2010.03.12/outbox.cif.g09.slc.cpg/sg65_5_cif.got.tgz:9277.got - 2010.04.10 20:52:16.
