data_PCOD8271975
_publ_section_title
;
Structure prediction by ZEFSAII (Michael W. Deem and Ramdas Pophale) SiO2 
 PCOD8271975
Probable space group: C M M M
;
_chemical_formula_sum "Si O2"
_cell_formula_units_Z 72
_cell_length_a 26.136699
_cell_length_b 9.333848
_cell_length_c 15.731792
_cell_angle_alpha 90.000000
_cell_angle_beta 90.000000
_cell_angle_gamma 90.000000
_cell_volume 3837.864667
_symmetry_space_group_name_H-M "C M M M"
_symmetry_group_IT_number 65
_symmetry_cell_setting 'orthorhombic'
loop_
_space_group_symop_operation_xyz
x,y,z
-x,-y,z
x,-y,-z
-x,y,-z
-x,-y,-z
x,y,-z
-x,y,z
x,-y,z
1/2+x,1/2+y,z
1/2-x,1/2-y,z
1/2+x,1/2-y,-z
1/2-x,1/2+y,-z
1/2-x,1/2-y,-z
1/2+x,1/2+y,-z
1/2-x,1/2+y,z
1/2+x,1/2-y,z
loop_
_atom_site_type_symbol
_atom_site_label
_atom_site_fract_x
_atom_site_fract_y
_atom_site_fract_z
Si Si1 0.385815 0.165304 0.631420
Si Si2 0.298344 0.661840 0.100142
Si Si3 0.058874 0.155593 0.500000
Si Si4 0.607738 0.831068 0.172702
Si Si5 0.000000 0.669565 0.095863
Si Si6 0.300530 0.162130 0.500000
O O1 0.428632 0.258514 0.585567
O O2 0.383047 0.208261 0.729376
O O3 0.332182 0.198187 0.585187
O O4 0.401327 0.000000 0.620265
O O5 0.298795 0.500000 0.138448
O O6 0.250000 0.750000 0.138671
O O7 0.350885 0.743559 0.119549
O O8 0.292298 0.652089 0.000000
O O9 0.000000 0.127153 0.500000
O O10 0.086980 0.000000 0.500000
O O11 0.551036 0.778833 0.145041
O O12 0.615089 0.000000 0.155041
O O13 0.000000 0.500000 0.092377
O O14 0.000000 0.732537 0.000000
O O15 0.250000 0.250000 0.500000
O O16 0.283047 0.000000 0.500000
#
# Coordination Sequence:
#
# PCOD8271975 Si02
#       6
#    16  16   8  16   8   8
#     4   9  20  36  54  79 107 139 183 225 267 327
#     4  10  21  37  57  81 110 147 189 234 287 342
#     4  10  21  35  53  77 106 140 178 222 272 317
#     4  10  20  35  57  84 113 146 188 236 283 336
#     4   9  18  32  53  82 113 146 184 227 279 337
#     4   9  18  34  52  74 103 138 176 218 267 324
#
# _framework density 18.760431000000001
#
# number of rings (size 3 to 8) (size 9 to 14) (size 15 to 20)
#    0.000    2.444    0.000    2.333    1.556    6.667 
#    0.000    2.778    0.000    2.000    0.000    0.000 
#    0.000    0.000    0.000    0.000    0.000    0.000 
#
# Total GULP energy -446342.524258 kJ/mol
# GULP energy per Si atom -12398.403452 kJ/mol
# Density = 1.871773 g / cm^3
# Si number density = 18.760431 Si / 1000 Ang^3
#
#
#
# Elastic Constant Matrix: (Units=GPa)
#
#
# Indices 1 2 3 4 5 6 
#
# 1 146.8657 56.7383 40.4142 0.0000 0.0000 0.0000
# 2 56.7383 83.0968 26.9608 0.0000 0.0000 0.0000
# 3 40.4142 26.9608 87.2591 0.0000 0.0000 0.0000
# 4 0.0000 0.0000 0.0000 9.3301 0.0000 0.0000
# 5 0.0000 0.0000 0.0000 0.0000 14.4080 0.0000
# 6 0.0000 0.0000 0.0000 0.0000 0.0000 32.2396
#
#
#
# Elastic Compliance Matrix: (Units=1/GPa)
#
#
# Indices 1 2 3 4 5 6 
#
# 1 0.009808 -0.005805 -0.002749 0.000000 0.000000 0.000000
# 2 -0.005805 0.016811 -0.002505 0.000000 0.000000 0.000000
# 3 -0.002749 -0.002505 0.013507 0.000000 0.000000 0.000000
# 4 0.000000 0.000000 0.000000 0.107180 0.000000 0.000000
# 5 0.000000 0.000000 0.000000 0.000000 0.069406 0.000000
# 6 0.000000 0.000000 0.000000 0.000000 0.000000 0.031018
#
#
# Mechanical properties :
#
#
# Convention : Reuss Voigt Hill
#
# Bulk Modulus (GPa) = 55.53326 62.82758 59.18042
# Shear Modulus (GPa) = 18.12571 24.06943 21.09757
#
# Velocity S-wave (km/s) = 3.11170 3.58577 3.35711
# Velocity P-wave (km/s) = 6.52501 7.12080 6.82940
#
# Compressibility (1/GPa) = 0.01800723
#
# Stress axis : x y z
#
# Youngs Moduli (GPa) = 101.95712 59.48597 74.03318
#
# Poissons Ratio (x) = 0.34532 0.20352
# Poissons Ratio (y) = 0.59186 0.18549
# Poissons Ratio (z) = 0.28028 0.14904
#
# Static dielectric constant tensor:
#      x y z
#    x 3.418060 0.000000 0.000000 
#    y 0.000000 3.658430 0.000000 
#    z 0.000000 0.000000 2.941350 
# 
# 
# High freq. dielectric constant tensor:
#      x y z
#    x 1.731470 0.000000 0.000000 
#    y 0.000000 1.721150 0.000000 
#    z 0.000000 0.000000 1.724240 
# 
# From -- ./inp_files/46580.got.cif
#   From: 2010.03.12/outbox.cif.g09.slc.cpg/sg65_24_cif.got.tgz:46580.got - 2010.04.10 20:52:16.
