data_PCOD8271338
_publ_section_title
;
Structure prediction by ZEFSAII (Michael W. Deem and Ramdas Pophale) SiO2 
 PCOD8271338
Probable space group: C M M M
;
_chemical_formula_sum "Si O2"
_cell_formula_units_Z 88
_cell_length_a 9.070324
_cell_length_b 16.248995
_cell_length_c 29.524930
_cell_angle_alpha 90.000000
_cell_angle_beta 90.000000
_cell_angle_gamma 90.000000
_cell_volume 4351.491929
_symmetry_space_group_name_H-M "C M M M"
_symmetry_group_IT_number 65
_symmetry_cell_setting 'orthorhombic'
loop_
_space_group_symop_operation_xyz
x,y,z
-x,-y,z
x,-y,-z
-x,y,-z
-x,-y,-z
x,y,-z
-x,y,z
x,-y,z
1/2+x,1/2+y,z
1/2-x,1/2-y,z
1/2+x,1/2-y,-z
1/2-x,1/2+y,-z
1/2-x,1/2-y,-z
1/2+x,1/2+y,-z
1/2-x,1/2+y,z
1/2+x,1/2-y,z
loop_
_atom_site_type_symbol
_atom_site_label
_atom_site_fract_x
_atom_site_fract_y
_atom_site_fract_z
Si Si1 0.674970 0.500000 0.551655
Si Si2 0.162223 0.405568 0.215730
Si Si3 0.327214 0.664673 0.398688
Si Si4 0.172785 0.166254 0.705712
Si Si5 0.662401 0.594822 0.868064
Si Si6 0.171593 0.663768 0.051122
O O1 0.500000 0.500000 0.556124
O O2 0.728786 0.500000 0.500000
O O3 0.734772 0.584547 0.574548
O O4 0.139491 0.500000 0.203562
O O5 0.255054 0.402023 0.262286
O O6 0.250216 0.362776 0.173962
O O7 0.000000 0.364164 0.221039
O O8 0.500000 0.676931 0.407576
O O9 0.250000 0.750000 0.414575
O O10 0.292206 0.645792 0.346395
O O11 0.250000 0.250000 0.720684
O O12 0.000000 0.171442 0.714521
O O13 0.500000 0.636091 0.872863
O O14 0.640683 0.500000 0.856678
O O15 0.754392 0.600614 0.914395
O O16 0.250000 0.750000 0.058552
O O17 0.000000 0.673139 0.062200
O O18 0.196098 0.631150 0.000000
#
# Coordination Sequence:
#
# PCOD8271338 Si02
#       6
#     8  16  16  16  16  16
#     4   9  18  34  57  85 115 153 199 239 286 351
#     4  10  21  36  54  78 108 140 176 219 269 322
#     4   9  19  35  56  82 114 151 192 241 291 343
#     4  10  20  34  54  78 108 141 182 227 273 329
#     4  10  21  37  56  79 108 141 178 219 266 321
#     4  10  21  37  57  80 106 137 175 220 269 321
#
# _framework density 20.222950000000001
#
# number of rings (size 3 to 8) (size 9 to 14) (size 15 to 20)
#    0.000    2.273    0.000    2.182    1.273    5.455 
#    0.000    5.909    0.000    0.545    0.000    0.000 
#    0.000    0.000    0.000    0.000    0.000    0.000 
#
# Total GULP energy -545466.989376 kJ/mol
# GULP energy per Si atom -12396.977031 kJ/mol
# Density = 2.017692 g / cm^3
# Si number density = 20.222950 Si / 1000 Ang^3
#
#
#
# Elastic Constant Matrix: (Units=GPa)
#
#
# Indices 1 2 3 4 5 6 
#
# 1 134.1779 37.3866 67.0807 0.0000 0.0000 0.0000
# 2 37.3866 77.1746 49.5515 0.0000 0.0000 0.0000
# 3 67.0807 49.5515 129.0819 0.0000 0.0000 0.0000
# 4 0.0000 0.0000 0.0000 16.0864 0.0000 0.0000
# 5 0.0000 0.0000 0.0000 0.0000 26.1631 0.0000
# 6 0.0000 0.0000 0.0000 0.0000 0.0000 28.9954
#
#
#
# Elastic Compliance Matrix: (Units=1/GPa)
#
#
# Indices 1 2 3 4 5 6 
#
# 1 0.010310 -0.002063 -0.004566 0.000000 0.000000 0.000000
# 2 -0.002063 0.017609 -0.005688 0.000000 0.000000 0.000000
# 3 -0.004566 -0.005688 0.012303 0.000000 0.000000 0.000000
# 4 0.000000 0.000000 0.000000 0.062164 0.000000 0.000000
# 5 0.000000 0.000000 0.000000 0.000000 0.038222 0.000000
# 6 0.000000 0.000000 0.000000 0.000000 0.000000 0.034488
#
#
# Mechanical properties :
#
#
# Convention : Reuss Voigt Hill
#
# Bulk Modulus (GPa) = 64.14720 72.05245 68.09983
# Shear Modulus (GPa) = 24.39899 26.67669 25.53784
#
# Velocity S-wave (km/s) = 3.47724 3.63592 3.55747
# Velocity P-wave (km/s) = 6.92174 7.30294 7.11489
#
# Compressibility (1/GPa) = 0.01558914
#
# Stress axis : x y z
#
# Youngs Moduli (GPa) = 96.98949 56.78966 81.27950
#
# Poissons Ratio (x) = 0.11716 0.37113
# Poissons Ratio (y) = 0.20009 0.46228
# Poissons Ratio (z) = 0.44286 0.32299
#
# Static dielectric constant tensor:
#      x y z
#    x 3.915550 0.000000 0.000000 
#    y 0.000000 3.451000 0.000000 
#    z 0.000000 0.000000 3.670800 
# 
# 
# High freq. dielectric constant tensor:
#      x y z
#    x 1.793550 0.000000 0.000000 
#    y 0.000000 1.769750 0.000000 
#    z 0.000000 0.000000 1.792680 
# 
# From -- ./inp_files/76528.got.cif
#   From: 2010.03.12/outbox.cif.g09.slc.cpg/sg65_39_cif.got.tgz:76528.got - 2010.04.10 20:52:16.
