data_PCOD8271080
_publ_section_title
;
Structure prediction by ZEFSAII (Michael W. Deem and Ramdas Pophale) SiO2 
 PCOD8271080
Probable space group: C M M M
;
_chemical_formula_sum "Si O2"
_cell_formula_units_Z 88
_cell_length_a 8.859223
_cell_length_b 18.319726
_cell_length_c 29.040188
_cell_angle_alpha 90.000000
_cell_angle_beta 90.000000
_cell_angle_gamma 90.000000
_cell_volume 4713.180054
_symmetry_space_group_name_H-M "C M M M"
_symmetry_group_IT_number 65
_symmetry_cell_setting 'orthorhombic'
loop_
_space_group_symop_operation_xyz
x,y,z
-x,-y,z
x,-y,-z
-x,y,-z
-x,-y,-z
x,y,-z
-x,y,z
x,-y,z
1/2+x,1/2+y,z
1/2-x,1/2-y,z
1/2+x,1/2-y,-z
1/2-x,1/2+y,-z
1/2-x,1/2-y,-z
1/2+x,1/2+y,-z
1/2-x,1/2+y,z
1/2+x,1/2-y,z
loop_
_atom_site_type_symbol
_atom_site_label
_atom_site_fract_x
_atom_site_fract_y
_atom_site_fract_z
Si Si1 0.321360 0.328529 0.765622
Si Si2 0.829570 0.412888 0.500000
Si Si3 0.319372 0.582206 0.852666
Si Si4 0.669175 0.413269 0.048728
Si Si5 0.172599 0.586440 0.315782
Si Si6 0.330027 0.586869 0.408396
O O1 0.500000 0.321577 0.766455
O O2 0.250000 0.250000 0.759509
O O3 0.259378 0.364652 0.812794
O O4 0.274603 0.379299 0.723596
O O5 0.827875 0.500000 0.500000
O O6 0.745546 0.382179 0.454841
O O7 0.000000 0.383333 0.500000
O O8 0.500000 0.581555 0.854456
O O9 0.260690 0.500000 0.842554
O O10 0.255495 0.611751 0.902592
O O11 0.500000 0.381910 0.046714
O O12 0.663169 0.500000 0.050982
O O13 0.751005 0.389075 0.000000
O O14 0.187796 0.500000 0.311936
O O15 0.233848 0.614573 0.364873
O O16 0.000000 0.612064 0.310512
O O17 0.500000 0.617297 0.404637
O O18 0.330852 0.500000 0.409861
#
# Coordination Sequence:
#
# PCOD8271080 Si02
#       6
#    16   8  16  16  16  16
#     4  11  22  35  50  68  94 128 165 205 249 296
#     4   9  15  23  37  61  96 133 164 197 240 285
#     4   8  14  25  43  67  92 120 156 197 241 289
#     4   7   9  15  31  58  90 118 145 184 234 283
#     4  10  20  34  52  74  99 126 160 203 249 297
#     4   9  16  26  42  66  96 129 163 198 239 288
#
# _framework density 18.671046
#
# number of rings (size 3 to 8) (size 9 to 14) (size 15 to 20)
#    0.000    3.000    0.000    4.091    0.000    5.091 
#    0.000    0.000    0.000    0.545    0.000    0.636 
#    0.000    2.182    0.000   20.545    0.000   16.909 
#
# Total GULP energy -545130.433829 kJ/mol
# GULP energy per Si atom -12389.328042 kJ/mol
# Density = 1.862855 g / cm^3
# Si number density = 18.671046 Si / 1000 Ang^3
#
#
#
# Elastic Constant Matrix: (Units=GPa)
#
#
# Indices 1 2 3 4 5 6 
#
# 1 70.1652 19.2264 39.5102 0.0000 0.0000 0.0000
# 2 19.2264 22.3076 28.8437 0.0000 0.0000 0.0000
# 3 39.5102 28.8437 183.7573 0.0000 0.0000 0.0000
# 4 0.0000 0.0000 0.0000 -0.1737 0.0000 0.0000
# 5 0.0000 0.0000 0.0000 0.0000 7.6501 0.0000
# 6 0.0000 0.0000 0.0000 0.0000 0.0000 12.2726
#
#
#
# Elastic Compliance Matrix: (Units=1/GPa)
#
#
# Indices 1 2 3 4 5 6 
#
# 1 0.019183 -0.014052 -0.001919 0.000000 0.000000 0.000000
# 2 -0.014052 0.066536 -0.007423 0.000000 0.000000 0.000000
# 3 -0.001919 -0.007423 0.007020 0.000000 0.000000 0.000000
# 4 0.000000 0.000000 0.000000 -5.757947 0.000000 0.000000
# 5 0.000000 0.000000 0.000000 0.000000 0.130717 0.000000
# 6 0.000000 0.000000 0.000000 0.000000 0.000000 0.081482
#
#
# Mechanical properties :
#
#
# Convention : Reuss Voigt Hill
#
# Bulk Modulus (GPa) = 21.76201 50.15453 35.95827
# Shear Modulus (GPa) = -0.92749 16.52646 7.79948
#
# Velocity S-wave (km/s) = -0.70557 2.97835 2.04607
# Velocity P-wave (km/s) = 3.31919 6.22479 4.98824
#
# Compressibility (1/GPa) = 0.04595164
#
# Stress axis : x y z
#
# Youngs Moduli (GPa) = 52.12907 15.02937 142.45750
#
# Poissons Ratio (x) = 0.21120 0.27336
# Poissons Ratio (y) = 0.73254 1.05740
# Poissons Ratio (z) = 0.10003 0.11156
#
# Static dielectric constant tensor:
#      x y z
#    x 3.192690 0.000000 0.000000 
#    y 0.000000 2.888750 0.000000 
#    z 0.000000 0.000000 4.071270 
# 
# 
# High freq. dielectric constant tensor:
#      x y z
#    x 1.694480 0.000000 0.000000 
#    y 0.000000 1.661030 0.000000 
#    z 0.000000 0.000000 1.758200 
# 
# From -- ./inp_files/76537.got.cif
#   From: 2010.03.12/outbox.cif.g09.slc.cpg/sg65_39_cif.got.tgz:76537.got - 2010.04.10 20:52:16.
