data_PCOD8271898
_publ_section_title
;
Structure prediction by ZEFSAII (Michael W. Deem and Ramdas Pophale) SiO2 
 PCOD8271898
Probable space group: C M M M
;
_chemical_formula_sum "Si O2"
_cell_formula_units_Z 104
_cell_length_a 9.943422
_cell_length_b 15.697767
_cell_length_c 34.849951
_cell_angle_alpha 90.000000
_cell_angle_beta 90.000000
_cell_angle_gamma 90.000000
_cell_volume 5439.712184
_symmetry_space_group_name_H-M "C M M M"
_symmetry_group_IT_number 65
_symmetry_cell_setting 'orthorhombic'
loop_
_space_group_symop_operation_xyz
x,y,z
-x,-y,z
x,-y,-z
-x,y,-z
-x,-y,-z
x,y,-z
-x,y,z
x,-y,z
1/2+x,1/2+y,z
1/2-x,1/2-y,z
1/2+x,1/2-y,-z
1/2-x,1/2+y,-z
1/2-x,1/2-y,-z
1/2+x,1/2+y,-z
1/2-x,1/2+y,z
1/2+x,1/2-y,z
loop_
_atom_site_type_symbol
_atom_site_label
_atom_site_fract_x
_atom_site_fract_y
_atom_site_fract_z
Si Si1 0.840622 0.000000 0.043478
Si Si2 0.350303 0.398648 0.457397
Si Si3 0.842683 0.829780 0.913649
Si Si4 0.650215 0.100573 0.765558
Si Si5 0.844052 0.328626 0.684019
Si Si6 0.646691 0.098710 0.604025
Si Si7 0.847293 0.098710 0.169066
O O1 0.789599 0.913687 0.063978
O O2 0.000000 0.000000 0.045705
O O3 0.787046 0.000000 0.000000
O O4 0.300119 0.372052 0.500000
O O5 0.500000 0.362835 0.450079
O O6 0.353233 0.500000 0.454045
O O7 0.253024 0.357787 0.425039
O O8 0.750000 0.750000 0.926293
O O9 0.822286 0.846017 0.868673
O O10 0.000000 0.810781 0.923027
O O11 0.500000 0.135275 0.774127
O O12 0.700607 0.127896 0.723677
O O13 0.751040 0.136468 0.797815
O O14 0.651635 0.000000 0.766828
O O15 0.750000 0.250000 0.676119
O O16 0.814608 0.391752 0.648695
O O17 0.000000 0.301322 0.685809
O O18 0.500000 0.140245 0.596470
O O19 0.640758 0.000000 0.594388
O O20 0.000000 0.108299 0.183571
O O21 0.815453 0.000000 0.159655
#
# Coordination Sequence:
#
# PCOD8271898 Si02
#       7
#     8  16  16  16  16  16  16
#     4   9  18  36  61  83 109 151 195 231 277 341
#     4   8  14  25  42  67  97 122 145 182 234 286
#     4  10  20  35  56  83 113 147 187 231 279 332
#     4   9  18  33  53  75  99 130 169 211 255 301
#     4  10  21  35  49  67  95 128 161 200 245 292
#     4   9  17  30  49  70  91 119 155 193 234 282
#     4   9  17  32  53  75 103 138 175 214 259 313
#
# _framework density 19.118656999999999
#
# number of rings (size 3 to 8) (size 9 to 14) (size 15 to 20)
#    0.000    2.846    0.769    0.923    0.000    4.923 
#    0.000    5.000    0.000    5.538    0.000    0.000 
#    0.000    0.000    0.000    0.000    0.000    0.000 
#
# Total GULP energy -644553.613532 kJ/mol
# GULP energy per Si atom -12395.261799 kJ/mol
# Density = 1.907514 g / cm^3
# Si number density = 19.118657 Si / 1000 Ang^3
#
#
#
# Elastic Constant Matrix: (Units=GPa)
#
#
# Indices 1 2 3 4 5 6 
#
# 1 82.4632 38.9626 64.5835 0.0000 0.0000 0.0000
# 2 38.9626 57.3031 34.8532 0.0000 0.0000 0.0000
# 3 64.5835 34.8532 130.3360 0.0000 0.0000 0.0000
# 4 0.0000 0.0000 0.0000 6.4158 0.0000 0.0000
# 5 0.0000 0.0000 0.0000 0.0000 30.3387 0.0000
# 6 0.0000 0.0000 0.0000 0.0000 0.0000 24.4757
#
#
#
# Elastic Compliance Matrix: (Units=1/GPa)
#
#
# Indices 1 2 3 4 5 6 
#
# 1 0.024598 -0.011120 -0.009215 0.000000 0.000000 0.000000
# 2 -0.011120 0.025868 -0.001407 0.000000 0.000000 0.000000
# 3 -0.009215 -0.001407 0.012615 0.000000 0.000000 0.000000
# 4 0.000000 0.000000 0.000000 0.155866 0.000000 0.000000
# 5 0.000000 0.000000 0.000000 0.000000 0.032961 0.000000
# 6 0.000000 0.000000 0.000000 0.000000 0.000000 0.040857
#
#
# Mechanical properties :
#
#
# Convention : Reuss Voigt Hill
#
# Bulk Modulus (GPa) = 51.03057 60.76679 55.89868
# Shear Modulus (GPa) = 14.58657 21.02622 17.80640
#
# Velocity S-wave (km/s) = 2.76515 3.31988 3.05513
# Velocity P-wave (km/s) = 6.07817 6.82265 6.46114
#
# Compressibility (1/GPa) = 0.01959610
#
# Stress axis : x y z
#
# Youngs Moduli (GPa) = 40.65439 38.65792 79.27155
#
# Poissons Ratio (x) = 0.42988 0.73048
# Poissons Ratio (y) = 0.45208 0.11155
# Poissons Ratio (z) = 0.37462 0.05440
#
# Static dielectric constant tensor:
#      x y z
#    x 3.223720 0.000000 0.000000 
#    y 0.000000 3.169060 0.000000 
#    z 0.000000 0.000000 3.715340 
# 
# 
# High freq. dielectric constant tensor:
#      x y z
#    x 1.733240 0.000000 0.000000 
#    y 0.000000 1.717170 0.000000 
#    z 0.000000 0.000000 1.749780 
# 
# From -- ./inp_files/77430.got.cif
#   From: 2010.03.12/outbox.cif.g09.slc.cpg/sg65_39_cif.got.tgz:77430.got - 2010.04.10 20:52:16.
