data_PCOD8271570
_publ_section_title
;
Structure prediction by ZEFSAII (Michael W. Deem and Ramdas Pophale) SiO2 
 PCOD8271570
Probable space group: C M M M
;
_chemical_formula_sum "Si O2"
_cell_formula_units_Z 90
_cell_length_a 18.242179
_cell_length_b 21.864328
_cell_length_c 11.428267
_cell_angle_alpha 90.000000
_cell_angle_beta 90.000000
_cell_angle_gamma 90.000000
_cell_volume 4558.198407
_symmetry_space_group_name_H-M "C M M M"
_symmetry_group_IT_number 65
_symmetry_cell_setting 'orthorhombic'
loop_
_space_group_symop_operation_xyz
x,y,z
-x,-y,z
x,-y,-z
-x,y,-z
-x,-y,-z
x,y,-z
-x,y,z
x,-y,z
1/2+x,1/2+y,z
1/2-x,1/2-y,z
1/2+x,1/2-y,-z
1/2-x,1/2+y,-z
1/2-x,1/2-y,-z
1/2+x,1/2+y,-z
1/2-x,1/2+y,z
1/2+x,1/2-y,z
loop_
_atom_site_type_symbol
_atom_site_label
_atom_site_fract_x
_atom_site_fract_y
_atom_site_fract_z
Si Si1 0.673125 0.876507 0.746361
Si Si2 0.352713 0.000000 0.124648
Si Si3 0.369368 0.568916 0.500000
Si Si4 0.915888 0.929412 0.252633
Si Si5 0.816921 0.837086 0.864867
Si Si6 0.000000 0.500000 0.000000
Si Si7 0.195743 0.429138 0.500000
Si Si8 0.583585 0.221919 0.135512
O O1 0.675477 0.941296 0.808084
O O2 0.746011 0.838910 0.781852
O O3 0.666649 0.890115 0.609257
O O4 0.603114 0.837205 0.786899
O O5 0.440519 0.000000 0.105982
O O6 0.311037 0.000000 0.000000
O O7 0.399888 0.500000 0.500000
O O8 0.400403 0.600001 0.618484
O O9 0.282651 0.571100 0.500000
O O10 0.867891 0.895845 0.155242
O O11 0.000000 0.921121 0.218123
O O12 0.891439 0.000000 0.252079
O O13 0.863442 0.777406 0.830871
O O14 0.791947 0.834875 0.000000
O O15 0.167339 0.500000 0.500000
O O16 0.500000 0.241090 0.162456
O O17 0.592406 0.202980 0.000000
#
# Coordination Sequence:
#
# PCOD8271570 Si02
#       8
#    16   8   8  16  16   2   8  16
#     4  12  23  40  66  93 127 166 213 263 318 382
#     4  10  22  37  65  99 128 159 202 265 315 380
#     4   9  17  34  56  79 112 158 208 256 298 368
#     4  10  20  34  56  85 120 166 213 260 314 375
#     4  11  23  39  60  93 129 161 209 264 324 384
#     4   8  24  40  60 102 140 156 206 264 328 380
#     4  11  22  41  61  92 132 170 207 259 327 375
#     4  10  23  43  68  90 122 170 213 262 322 388
#
# _framework density 19.744643
#
# number of rings (size 3 to 8) (size 9 to 14) (size 15 to 20)
#    0.267    1.244    2.667    2.933    2.489    3.911 
#    0.000    4.000    0.000    1.067    0.000    0.000 
#    0.000    0.000    0.000    0.000    0.000    0.000 
#
# Total GULP energy -557525.685755 kJ/mol
# GULP energy per Si atom -12389.459683 kJ/mol
# Density = 1.969970 g / cm^3
# Si number density = 19.744643 Si / 1000 Ang^3
#
#
#
# Elastic Constant Matrix: (Units=GPa)
#
#
# Indices 1 2 3 4 5 6 
#
# 1 80.0054 33.8970 30.5205 0.0000 0.0000 0.0000
# 2 33.8970 91.2934 46.8544 0.0000 0.0000 0.0000
# 3 30.5205 46.8544 117.5139 0.0000 0.0000 0.0000
# 4 0.0000 0.0000 0.0000 -15.5104 0.0000 0.0000
# 5 0.0000 0.0000 0.0000 0.0000 28.3410 0.0000
# 6 0.0000 0.0000 0.0000 0.0000 0.0000 30.8773
#
#
#
# Elastic Compliance Matrix: (Units=1/GPa)
#
#
# Indices 1 2 3 4 5 6 
#
# 1 0.015249 -0.004563 -0.002141 0.000000 0.000000 0.000000
# 2 -0.004563 0.015137 -0.004850 0.000000 0.000000 0.000000
# 3 -0.002141 -0.004850 0.011000 0.000000 0.000000 0.000000
# 4 0.000000 0.000000 0.000000 -0.064473 0.000000 0.000000
# 5 0.000000 0.000000 0.000000 0.000000 0.035285 0.000000
# 6 0.000000 0.000000 0.000000 0.000000 0.000000 0.032386
#
#
# Mechanical properties :
#
#
# Convention : Reuss Voigt Hill
#
# Bulk Modulus (GPa) = 54.71350 56.81740 55.76545
# Shear Modulus (GPa) = 67.76384 20.57763 44.17074
#
# Velocity S-wave (km/s) = 5.86469 3.23180 4.73493
# Velocity P-wave (km/s) = 8.58080 6.53946 7.62872
#
# Compressibility (1/GPa) = 0.01827702
#
# Stress axis : x y z
#
# Youngs Moduli (GPa) = 65.57683 66.06204 90.91229
#
# Poissons Ratio (x) = 0.30145 0.19466
# Poissons Ratio (y) = 0.29924 0.44095
# Poissons Ratio (z) = 0.14041 0.32042
#
# Static dielectric constant tensor:
#      x y z
#    x 3.532230 0.000000 0.000000 
#    y 0.000000 3.668450 0.000000 
#    z 0.000000 0.000000 3.726960 
# 
# 
# High freq. dielectric constant tensor:
#      x y z
#    x 1.773320 0.000000 0.000000 
#    y 0.000000 1.755380 0.000000 
#    z 0.000000 0.000000 1.765730 
# 
# From -- ./inp_files/26884.got.cif
#   From: 2010.03.12/outbox.cif.g09.slc.cpg/sg65_14_cif.got.tgz:26884.got - 2010.04.10 20:52:16.
