data_PCOD8271513
_publ_section_title
;
Structure prediction by ZEFSAII (Michael W. Deem and Ramdas Pophale) SiO2 
 PCOD8271513
Probable space group: C M M M
;
_chemical_formula_sum "Si O2"
_cell_formula_units_Z 72
_cell_length_a 26.277845
_cell_length_b 9.285701
_cell_length_c 15.898689
_cell_angle_alpha 90.000000
_cell_angle_beta 90.000000
_cell_angle_gamma 90.000000
_cell_volume 3879.410670
_symmetry_space_group_name_H-M "C M M M"
_symmetry_group_IT_number 65
_symmetry_cell_setting 'orthorhombic'
loop_
_space_group_symop_operation_xyz
x,y,z
-x,-y,z
x,-y,-z
-x,y,-z
-x,-y,-z
x,y,-z
-x,y,z
x,-y,z
1/2+x,1/2+y,z
1/2-x,1/2-y,z
1/2+x,1/2-y,-z
1/2-x,1/2+y,-z
1/2-x,1/2-y,-z
1/2+x,1/2+y,-z
1/2-x,1/2+y,z
1/2+x,1/2-y,z
loop_
_atom_site_type_symbol
_atom_site_label
_atom_site_fract_x
_atom_site_fract_y
_atom_site_fract_z
Si Si1 0.613698 0.830221 0.866971
Si Si2 0.797208 0.165620 0.403918
Si Si3 0.398760 0.668840 0.694342
Si Si4 0.198317 0.335142 0.000000
Si Si5 0.000000 0.170483 0.404309
Si Si6 0.558253 0.342331 0.000000
O O1 0.612859 0.765001 0.774818
O O2 0.569608 0.750392 0.917495
O O3 0.602633 0.000000 0.864011
O O4 0.666476 0.797601 0.915820
O O5 0.802075 0.213875 0.500000
O O6 0.750000 0.250000 0.360694
O O7 0.851341 0.202290 0.364828
O O8 0.783647 0.000000 0.393358
O O9 0.402680 0.500000 0.718431
O O10 0.449886 0.721452 0.646648
O O11 0.250000 0.250000 0.000000
O O12 0.213800 0.500000 0.000000
O O13 0.000000 0.234062 0.500000
O O14 0.000000 0.000000 0.411302
O O15 0.586433 0.500000 0.000000
O O16 0.500000 0.376810 0.000000
#
# Coordination Sequence:
#
# PCOD8271513 Si02
#       6
#    16  16  16   8   8   8
#     4  10  22  38  54  80 114 145 178 218 273 331
#     4   9  18  33  53  77 106 142 184 231 284 337
#     4  10  20  34  55  82 111 143 187 236 279 330
#     4   9  20  38  58  78 105 144 184 222 269 328
#     4   9  18  34  57  82 109 144 187 237 286 329
#     4  10  21  37  59  81 104 136 178 222 262 309
#
# _framework density 18.559519000000002
#
# number of rings (size 3 to 8) (size 9 to 14) (size 15 to 20)
#    0.000    2.444    0.000    2.333    1.556    8.000 
#    0.000    4.444    0.000    2.667    0.000    0.000 
#    0.000    0.000    0.000    0.000    0.000    0.000 
#
# Total GULP energy -446255.797764 kJ/mol
# GULP energy per Si atom -12395.994382 kJ/mol
# Density = 1.851728 g / cm^3
# Si number density = 18.559519 Si / 1000 Ang^3
#
#
#
# Elastic Constant Matrix: (Units=GPa)
#
#
# Indices 1 2 3 4 5 6 
#
# 1 154.4734 66.3828 66.6983 0.0000 0.0000 0.0000
# 2 66.3828 91.7765 64.3011 0.0000 0.0000 0.0000
# 3 66.6983 64.3011 122.8120 0.0000 0.0000 0.0000
# 4 0.0000 0.0000 0.0000 27.1597 0.0000 0.0000
# 5 0.0000 0.0000 0.0000 0.0000 13.2183 0.0000
# 6 0.0000 0.0000 0.0000 0.0000 0.0000 27.6896
#
#
#
# Elastic Compliance Matrix: (Units=1/GPa)
#
#
# Indices 1 2 3 4 5 6 
#
# 1 0.009880 -0.005349 -0.002565 0.000000 0.000000 0.000000
# 2 -0.005349 0.020105 -0.007621 0.000000 0.000000 0.000000
# 3 -0.002565 -0.007621 0.013526 0.000000 0.000000 0.000000
# 4 0.000000 0.000000 0.000000 0.036819 0.000000 0.000000
# 5 0.000000 0.000000 0.000000 0.000000 0.075653 0.000000
# 6 0.000000 0.000000 0.000000 0.000000 0.000000 0.036115
#
#
# Mechanical properties :
#
#
# Convention : Reuss Voigt Hill
#
# Bulk Modulus (GPa) = 80.38769 84.86957 82.62863
# Shear Modulus (GPa) = 21.99596 25.05881 23.52739
#
# Velocity S-wave (km/s) = 3.44635 3.67847 3.56430
# Velocity P-wave (km/s) = 7.69701 7.99182 7.84580
#
# Compressibility (1/GPa) = 0.01243972
#
# Stress axis : x y z
#
# Youngs Moduli (GPa) = 101.21657 49.73963 73.93231
#
# Poissons Ratio (x) = 0.26606 0.18964
# Poissons Ratio (y) = 0.54141 0.56346
# Poissons Ratio (z) = 0.25963 0.37908
#
# Static dielectric constant tensor:
#      x y z
#    x 3.525820 0.000000 0.000000 
#    y 0.000000 3.381100 0.000000 
#    z 0.000000 0.000000 3.607640 
# 
# 
# High freq. dielectric constant tensor:
#      x y z
#    x 1.726750 0.000000 0.000000 
#    y 0.000000 1.712050 0.000000 
#    z 0.000000 0.000000 1.720590 
# 
# From -- ./inp_files/46542.got.cif
#   From: 2010.03.12/outbox.cif.g09.slc.cpg/sg65_24_cif.got.tgz:46542.got - 2010.04.10 20:52:16.
