data_PCOD8271124
_publ_section_title
;
Structure prediction by ZEFSAII (Michael W. Deem and Ramdas Pophale) SiO2 
 PCOD8271124
Probable space group: C M M M
;
_chemical_formula_sum "Si O2"
_cell_formula_units_Z 80
_cell_length_a 11.649244
_cell_length_b 29.910516
_cell_length_c 12.732703
_cell_angle_alpha 90.000000
_cell_angle_beta 90.000000
_cell_angle_gamma 90.000000
_cell_volume 4436.518084
_symmetry_space_group_name_H-M "C M M M"
_symmetry_group_IT_number 65
_symmetry_cell_setting 'orthorhombic'
loop_
_space_group_symop_operation_xyz
x,y,z
-x,-y,z
x,-y,-z
-x,y,-z
-x,-y,-z
x,y,-z
-x,y,z
x,-y,z
1/2+x,1/2+y,z
1/2-x,1/2-y,z
1/2+x,1/2-y,-z
1/2-x,1/2+y,-z
1/2-x,1/2-y,-z
1/2+x,1/2+y,-z
1/2-x,1/2+y,z
1/2+x,1/2-y,z
loop_
_atom_site_type_symbol
_atom_site_label
_atom_site_fract_x
_atom_site_fract_y
_atom_site_fract_z
Si Si1 0.500000 0.052144 0.124569
Si Si2 0.208259 0.397129 0.766158
Si Si3 0.631596 0.177566 0.384637
Si Si4 0.250000 0.750000 0.244559
Si Si5 0.628016 0.447276 0.383855
Si Si6 0.368911 0.673442 0.123151
O O1 0.613833 0.076195 0.167505
O O2 0.500000 0.000000 0.158534
O O3 0.500000 0.057007 0.000000
O O4 0.147331 0.368591 0.676330
O O5 0.289705 0.432032 0.708636
O O6 0.284495 0.366055 0.841391
O O7 0.691386 0.174789 0.500000
O O8 0.500000 0.187094 0.401429
O O9 0.678216 0.218403 0.318915
O O10 0.335395 0.720903 0.173364
O O11 0.669872 0.431291 0.500000
O O12 0.500000 0.428148 0.363548
O O13 0.624843 0.500000 0.380907
O O14 0.500000 0.661842 0.155035
O O15 0.355979 0.679100 0.000000
#
# Coordination Sequence:
#
# PCOD8271124 Si02
#       6
#     8  16  16   8  16  16
#     4  11  24  40  57  79 109 145 192 242 289 345
#     4  11  20  36  56  79 106 146 182 225 283 331
#     4  10  20  34  52  77 108 139 175 217 262 319
#     4  10  20  34  56  76 108 144 180 216 276 326
#     4   9  18  33  54  81 111 141 176 220 271 333
#     4  10  21  36  55  80 108 140 185 235 277 326
#
# _framework density 18.032157999999999
#
# number of rings (size 3 to 8) (size 9 to 14) (size 15 to 20)
#    0.000    1.900    1.000    4.200    0.000    0.000 
#    0.000    0.000    0.000   12.000    0.000    8.400 
#    0.000    0.000    0.000    0.000    0.000    0.000 
#
# Total GULP energy -495912.608546 kJ/mol
# GULP energy per Si atom -12397.815214 kJ/mol
# Density = 1.799112 g / cm^3
# Si number density = 18.032158 Si / 1000 Ang^3
#
#
#
# Elastic Constant Matrix: (Units=GPa)
#
#
# Indices 1 2 3 4 5 6 
#
# 1 111.7317 53.7248 64.2641 0.0000 0.0000 0.0000
# 2 53.7248 100.4768 55.8642 0.0000 0.0000 0.0000
# 3 64.2641 55.8642 125.7911 0.0000 0.0000 0.0000
# 4 0.0000 0.0000 0.0000 20.5820 0.0000 0.0000
# 5 0.0000 0.0000 0.0000 0.0000 59.2043 0.0000
# 6 0.0000 0.0000 0.0000 0.0000 0.0000 18.6076
#
#
#
# Elastic Compliance Matrix: (Units=1/GPa)
#
#
# Indices 1 2 3 4 5 6 
#
# 1 0.014181 -0.004720 -0.005149 0.000000 0.000000 0.000000
# 2 -0.004720 0.014787 -0.004156 0.000000 0.000000 0.000000
# 3 -0.005149 -0.004156 0.012425 0.000000 0.000000 0.000000
# 4 0.000000 0.000000 0.000000 0.048586 0.000000 0.000000
# 5 0.000000 0.000000 0.000000 0.000000 0.016891 0.000000
# 6 0.000000 0.000000 0.000000 0.000000 0.000000 0.053741
#
#
# Mechanical properties :
#
#
# Convention : Reuss Voigt Hill
#
# Bulk Modulus (GPa) = 74.93438 76.18951 75.56194
# Shear Modulus (GPa) = 25.89231 30.62187 28.25709
#
# Velocity S-wave (km/s) = 3.79343 4.12537 3.96288
# Velocity P-wave (km/s) = 7.79955 8.06445 7.93311
#
# Compressibility (1/GPa) = 0.01334501
#
# Stress axis : x y z
#
# Youngs Moduli (GPa) = 70.51797 67.62831 80.47996
#
# Poissons Ratio (x) = 0.31920 0.41435
# Poissons Ratio (y) = 0.33284 0.33444
# Poissons Ratio (z) = 0.36307 0.28103
#
# Static dielectric constant tensor:
#      x y z
#    x 3.472410 0.000000 0.000000 
#    y 0.000000 3.060270 0.000000 
#    z 0.000000 0.000000 3.834550 
# 
# 
# High freq. dielectric constant tensor:
#      x y z
#    x 1.704140 0.000000 0.000000 
#    y 0.000000 1.700890 0.000000 
#    z 0.000000 0.000000 1.712530 
# 
# From -- ./inp_files/22889.got.cif
#   From: 2010.03.12/outbox.cif.g09.slc.cpg/sg65_12_cif.got.tgz:22889.got - 2010.04.10 20:52:16.
