data_PCOD8271015
_publ_section_title
;
Structure prediction by ZEFSAII (Michael W. Deem and Ramdas Pophale) SiO2 
 PCOD8271015
Probable space group: C M M M
;
_chemical_formula_sum "Si O2"
_cell_formula_units_Z 104
_cell_length_a 27.525393
_cell_length_b 8.980462
_cell_length_c 23.547441
_cell_angle_alpha 90.000000
_cell_angle_beta 90.000000
_cell_angle_gamma 90.000000
_cell_volume 5820.709504
_symmetry_space_group_name_H-M "C M M M"
_symmetry_group_IT_number 65
_symmetry_cell_setting 'orthorhombic'
loop_
_space_group_symop_operation_xyz
x,y,z
-x,-y,z
x,-y,-z
-x,y,-z
-x,-y,-z
x,y,-z
-x,y,z
x,-y,z
1/2+x,1/2+y,z
1/2-x,1/2-y,z
1/2+x,1/2-y,-z
1/2-x,1/2+y,-z
1/2-x,1/2-y,-z
1/2+x,1/2+y,-z
1/2-x,1/2+y,z
1/2+x,1/2-y,z
loop_
_atom_site_type_symbol
_atom_site_label
_atom_site_fract_x
_atom_site_fract_y
_atom_site_fract_z
Si Si1 0.053296 0.674729 0.000000
Si Si2 0.133170 0.675823 0.912605
Si Si3 0.801535 0.177483 0.315796
Si Si4 0.300788 0.324758 0.000000
Si Si5 0.143450 0.328762 0.783150
Si Si6 0.946087 0.667408 0.291664
Si Si7 0.393909 0.674728 0.613734
Si Si8 0.056389 0.822175 0.500000
O O1 0.081987 0.720775 0.057670
O O2 0.046328 0.500000 0.000000
O O3 0.000000 0.752033 0.000000
O O4 0.142317 0.500000 0.920267
O O5 0.138237 0.725725 0.847541
O O6 0.173953 0.770041 0.943098
O O7 0.750000 0.250000 0.332023
O O8 0.818425 0.231484 0.253244
O O9 0.841061 0.231957 0.363490
O O10 0.796516 0.000000 0.314925
O O11 0.250000 0.250000 0.000000
O O12 0.296612 0.500000 0.000000
O O13 0.160598 0.500000 0.779090
O O14 0.089288 0.305321 0.760598
O O15 0.939996 0.500000 0.315706
O O16 0.935321 0.781339 0.341946
O O17 0.000000 0.696521 0.268535
O O18 0.391085 0.500000 0.609272
O O19 0.412173 0.739505 0.553397
O O20 0.000000 0.763314 0.500000
O O21 0.054587 0.000000 0.500000
#
# Coordination Sequence:
#
# PCOD8271015 Si02
#       8
#     8  16  16   8  16  16  16   8
#     4   8  14  26  47  73  98 126 160 196 232 273
#     4   9  18  33  51  73 100 127 160 200 238 281
#     4  10  20  34  52  72  96 127 163 203 248 297
#     4  11  22  36  54  72  93 122 154 192 241 292
#     4   9  18  32  50  72  99 129 161 199 240 284
#     4   9  17  29  46  71 103 134 161 194 239 286
#     4   9  18  32  50  72  97 128 167 206 242 285
#     4   9  16  28  50  77 101 127 163 205 242 279
#
# _framework density 17.867238
#
# number of rings (size 3 to 8) (size 9 to 14) (size 15 to 20)
#    0.000    2.769    0.000    2.077    0.000    3.385 
#    0.000    3.846    0.000    5.077    0.000    6.462 
#    0.000    0.000    0.000    0.000    0.000    0.000 
#
# Total GULP energy -644416.935528 kJ/mol
# GULP energy per Si atom -12392.633376 kJ/mol
# Density = 1.782657 g / cm^3
# Si number density = 17.867238 Si / 1000 Ang^3
#
#
#
# Elastic Constant Matrix: (Units=GPa)
#
#
# Indices 1 2 3 4 5 6 
#
# 1 147.9353 41.0420 69.3892 0.0000 0.0000 0.0000
# 2 41.0420 38.4207 33.3860 0.0000 0.0000 0.0000
# 3 69.3892 33.3860 147.9132 0.0000 0.0000 0.0000
# 4 0.0000 0.0000 0.0000 21.2431 0.0000 0.0000
# 5 0.0000 0.0000 0.0000 0.0000 24.7786 0.0000
# 6 0.0000 0.0000 0.0000 0.0000 0.0000 21.9745
#
#
#
# Elastic Compliance Matrix: (Units=1/GPa)
#
#
# Indices 1 2 3 4 5 6 
#
# 1 0.010579 -0.008693 -0.003001 0.000000 0.000000 0.000000
# 2 -0.008693 0.039522 -0.004842 0.000000 0.000000 0.000000
# 3 -0.003001 -0.004842 0.009261 0.000000 0.000000 0.000000
# 4 0.000000 0.000000 0.000000 0.047074 0.000000 0.000000
# 5 0.000000 0.000000 0.000000 0.000000 0.040357 0.000000
# 6 0.000000 0.000000 0.000000 0.000000 0.000000 0.045507
#
#
# Mechanical properties :
#
#
# Convention : Reuss Voigt Hill
#
# Bulk Modulus (GPa) = 38.03789 69.10041 53.56915
# Shear Modulus (GPa) = 21.35500 26.29602 23.82551
#
# Velocity S-wave (km/s) = 3.46092 3.84049 3.65564
# Velocity P-wave (km/s) = 6.10787 7.64357 6.91846
#
# Compressibility (1/GPa) = 0.02628958
#
# Stress axis : x y z
#
# Youngs Moduli (GPa) = 94.52729 25.30239 107.97539
#
# Poissons Ratio (x) = 0.21996 0.32399
# Poissons Ratio (y) = 0.82176 0.52286
# Poissons Ratio (z) = 0.28364 0.12252
#
# Static dielectric constant tensor:
#      x y z
#    x 3.494380 0.000000 0.000000 
#    y 0.000000 3.139500 0.000000 
#    z 0.000000 0.000000 3.453820 
# 
# 
# High freq. dielectric constant tensor:
#      x y z
#    x 1.697730 0.000000 0.000000 
#    y 0.000000 1.670490 0.000000 
#    z 0.000000 0.000000 1.687900 
# 
# From -- ./inp_files/71949.got.cif
#   From: 2010.03.12/outbox.cif.g09.slc.cpg/sg65_36_cif.got.tgz:71949.got - 2010.04.10 20:52:16.
