data_PCOD8271933
_publ_section_title
;
Structure prediction by ZEFSAII (Michael W. Deem and Ramdas Pophale) SiO2 
 PCOD8271933
Probable space group: C M M M
;
_chemical_formula_sum "Si O2"
_cell_formula_units_Z 88
_cell_length_a 8.906553
_cell_length_b 29.426053
_cell_length_c 17.381269
_cell_angle_alpha 90.000000
_cell_angle_beta 90.000000
_cell_angle_gamma 90.000000
_cell_volume 4555.364682
_symmetry_space_group_name_H-M "C M M M"
_symmetry_group_IT_number 65
_symmetry_cell_setting 'orthorhombic'
loop_
_space_group_symop_operation_xyz
x,y,z
-x,-y,z
x,-y,-z
-x,y,-z
-x,-y,-z
x,y,-z
-x,y,z
x,-y,z
1/2+x,1/2+y,z
1/2-x,1/2-y,z
1/2+x,1/2-y,-z
1/2-x,1/2+y,-z
1/2-x,1/2-y,-z
1/2+x,1/2+y,-z
1/2-x,1/2+y,z
1/2+x,1/2-y,z
loop_
_atom_site_type_symbol
_atom_site_label
_atom_site_fract_x
_atom_site_fract_y
_atom_site_fract_z
Si Si1 0.823148 0.448576 0.000000
Si Si2 0.671345 0.795593 0.191507
Si Si3 0.829822 0.669885 0.354182
Si Si4 0.821007 0.397314 0.846239
Si Si5 0.823656 0.000000 0.586655
Si Si6 0.677926 0.581152 0.302469
Si Si7 0.826936 0.202645 0.500000
O O1 0.771913 0.419165 0.926761
O O2 0.753819 0.500000 0.000000
O O3 0.000000 0.453594 0.000000
O O4 0.500000 0.791038 0.166983
O O5 0.750000 0.750000 0.158151
O O6 0.690984 0.794640 0.284384
O O7 0.731678 0.843864 0.157153
O O8 0.789317 0.621493 0.321680
O O9 0.715808 0.676514 0.423441
O O10 0.000000 0.671257 0.385199
O O11 0.727984 0.428694 0.785290
O O12 0.000000 0.400461 0.830845
O O13 0.774045 0.957043 0.636777
O O14 0.751405 0.000000 0.500000
O O15 0.000000 0.000000 0.576528
O O16 0.500000 0.591936 0.307308
O O17 0.750000 0.250000 0.500000
O O18 0.000000 0.211378 0.500000
#
# Coordination Sequence:
#
# PCOD8271933 Si02
#       7
#     8  16  16  16   8  16   8
#     4   9  18  34  60  87 109 145 191 231 280 343
#     4   9  18  32  52  76 106 142 177 221 271 324
#     4  10  21  37  54  76 107 141 184 238 286 329
#     4   9  19  36  56  83 115 143 182 235 283 330
#     4   9  20  36  53  76 109 146 187 230 274 336
#     4  10  20  35  57  81 108 147 187 226 281 344
#     4  12  24  36  52  77 108 145 186 232 285 340
#
# _framework density 19.317883999999999
#
# number of rings (size 3 to 8) (size 9 to 14) (size 15 to 20)
#    0.000    2.364    0.000    3.545    2.545    5.091 
#    0.000    2.273    0.000    2.727    0.000    0.000 
#    0.000    0.000    0.000    0.000    0.000    0.000 
#
# Total GULP energy -545182.294784 kJ/mol
# GULP energy per Si atom -12390.506700 kJ/mol
# Density = 1.927392 g / cm^3
# Si number density = 19.317884 Si / 1000 Ang^3
#
#
#
# Elastic Constant Matrix: (Units=GPa)
#
#
# Indices 1 2 3 4 5 6 
#
# 1 64.8879 30.0797 29.7820 0.0000 0.0000 0.0000
# 2 30.0797 106.5450 58.0010 0.0000 0.0000 0.0000
# 3 29.7820 58.0010 133.1466 0.0000 0.0000 0.0000
# 4 0.0000 0.0000 0.0000 19.4769 0.0000 0.0000
# 5 0.0000 0.0000 0.0000 0.0000 23.2107 0.0000
# 6 0.0000 0.0000 0.0000 0.0000 0.0000 24.7366
#
#
#
# Elastic Compliance Matrix: (Units=1/GPa)
#
#
# Indices 1 2 3 4 5 6 
#
# 1 0.018306 -0.003853 -0.002416 0.000000 0.000000 0.000000
# 2 -0.003853 0.013114 -0.004851 0.000000 0.000000 0.000000
# 3 -0.002416 -0.004851 0.010164 0.000000 0.000000 0.000000
# 4 0.000000 0.000000 0.000000 0.051343 0.000000 0.000000
# 5 0.000000 0.000000 0.000000 0.000000 0.043084 0.000000
# 6 0.000000 0.000000 0.000000 0.000000 0.000000 0.040426
#
#
# Mechanical properties :
#
#
# Convention : Reuss Voigt Hill
#
# Bulk Modulus (GPa) = 51.69467 60.03388 55.86427
# Shear Modulus (GPa) = 24.37533 25.93262 25.15398
#
# Velocity S-wave (km/s) = 3.55604 3.66787 3.61239
# Velocity P-wave (km/s) = 6.60898 7.00586 6.81031
#
# Compressibility (1/GPa) = 0.01934435
#
# Stress axis : x y z
#
# Youngs Moduli (GPa) = 54.62613 76.25315 98.38457
#
# Poissons Ratio (x) = 0.29379 0.23773
# Poissons Ratio (y) = 0.21046 0.47726
# Poissons Ratio (z) = 0.13200 0.36990
#
# Static dielectric constant tensor:
#      x y z
#    x 3.226190 0.000000 0.000000 
#    y 0.000000 3.532500 0.000000 
#    z 0.000000 0.000000 3.647550 
# 
# 
# High freq. dielectric constant tensor:
#      x y z
#    x 1.732740 0.000000 0.000000 
#    y 0.000000 1.753700 0.000000 
#    z 0.000000 0.000000 1.749190 
# 
# From -- ./inp_files/50551.got.cif
#   From: 2010.03.12/outbox.cif.g09.slc.cpg/sg65_26_cif.got.tgz:50551.got - 2010.04.10 20:52:16.
