data_PCOD8271630
_publ_section_title
;
Structure prediction by ZEFSAII (Michael W. Deem and Ramdas Pophale) SiO2 
 PCOD8271630
Probable space group: C M M M
;
_chemical_formula_sum "Si O2"
_cell_formula_units_Z 88
_cell_length_a 8.621905
_cell_length_b 24.578386
_cell_length_c 22.788744
_cell_angle_alpha 90.000000
_cell_angle_beta 90.000000
_cell_angle_gamma 90.000000
_cell_volume 4829.219921
_symmetry_space_group_name_H-M "C M M M"
_symmetry_group_IT_number 65
_symmetry_cell_setting 'orthorhombic'
loop_
_space_group_symop_operation_xyz
x,y,z
-x,-y,z
x,-y,-z
-x,y,-z
-x,-y,-z
x,y,-z
-x,y,z
x,-y,z
1/2+x,1/2+y,z
1/2-x,1/2-y,z
1/2+x,1/2-y,-z
1/2-x,1/2+y,-z
1/2-x,1/2-y,-z
1/2+x,1/2+y,-z
1/2-x,1/2+y,z
1/2+x,1/2-y,z
loop_
_atom_site_type_symbol
_atom_site_label
_atom_site_fract_x
_atom_site_fract_y
_atom_site_fract_z
Si Si1 0.813626 0.615372 0.065428
Si Si2 0.316223 0.000000 0.567640
Si Si3 0.666616 0.000000 0.068442
Si Si4 0.682780 0.193322 0.835211
Si Si5 0.316987 0.689423 0.500000
Si Si6 0.683920 0.614412 0.393174
Si Si7 0.683757 0.191258 0.297864
O O1 0.743335 0.555925 0.082795
O O2 0.745824 0.653072 0.116441
O O3 0.000000 0.612914 0.066213
O O4 0.758341 0.633767 0.000000
O O5 0.253146 0.054091 0.599348
O O6 0.500000 0.000000 0.572284
O O7 0.260115 0.000000 0.500000
O O8 0.500000 0.000000 0.101843
O O9 0.631388 0.000000 0.000000
O O10 0.500000 0.194836 0.839323
O O11 0.750000 0.250000 0.854964
O O12 0.733936 0.178824 0.769077
O O13 0.500000 0.695184 0.500000
O O14 0.250000 0.750000 0.500000
O O15 0.258277 0.655138 0.555813
O O16 0.500000 0.608917 0.392890
O O17 0.743225 0.641259 0.333282
O O18 0.500000 0.192659 0.306691
O O19 0.750000 0.250000 0.318273
#
# Coordination Sequence:
#
# PCOD8271630 Si02
#       7
#    16   8   8  16   8  16  16
#     4   8  13  23  41  66  95 127 165 210 260 310
#     4  11  23  39  60  85 112 146 178 211 256 309
#     4   7  10  18  35  60  88 116 149 192 243 294
#     4   9  18  31  47  69  99 133 168 209 256 309
#     4  10  22  35  52  79 107 132 164 210 259 304
#     4  11  22  38  58  80 107 141 177 216 261 310
#     4  10  20  35  53  75 103 137 178 221 269 322
#
# _framework density 18.222405999999999
#
# number of rings (size 3 to 8) (size 9 to 14) (size 15 to 20)
#    0.000    2.545    0.909    3.000    0.000    4.364 
#    0.000    0.909    0.000    3.273    0.000    0.636 
#    0.000    2.182    0.000    0.000    0.000    0.000 
#
# Total GULP energy -545228.612472 kJ/mol
# GULP energy per Si atom -12391.559374 kJ/mol
# Density = 1.818093 g / cm^3
# Si number density = 18.222406 Si / 1000 Ang^3
#
#
#
# Elastic Constant Matrix: (Units=GPa)
#
#
# Indices 1 2 3 4 5 6 
#
# 1 36.2543 32.9627 22.1311 0.0000 0.0000 0.0000
# 2 32.9627 182.8876 96.3844 0.0000 0.0000 0.0000
# 3 22.1311 96.3844 113.6134 0.0000 0.0000 0.0000
# 4 0.0000 0.0000 0.0000 26.6705 0.0000 0.0000
# 5 0.0000 0.0000 0.0000 0.0000 12.7784 0.0000
# 6 0.0000 0.0000 0.0000 0.0000 0.0000 41.6964
#
#
#
# Elastic Compliance Matrix: (Units=1/GPa)
#
#
# Indices 1 2 3 4 5 6 
#
# 1 0.033386 -0.004684 -0.002529 0.000000 0.000000 0.000000
# 2 -0.004684 0.010547 -0.008035 0.000000 0.000000 0.000000
# 3 -0.002529 -0.008035 0.016111 0.000000 0.000000 0.000000
# 4 0.000000 0.000000 0.000000 0.037495 0.000000 0.000000
# 5 0.000000 0.000000 0.000000 0.000000 0.078257 0.000000
# 6 0.000000 0.000000 0.000000 0.000000 0.000000 0.023983
#
#
# Mechanical properties :
#
#
# Convention : Reuss Voigt Hill
#
# Bulk Modulus (GPa) = 33.84501 70.63463 52.23982
# Shear Modulus (GPa) = 20.82259 28.31418 24.56838
#
# Velocity S-wave (km/s) = 3.38404 3.94612 3.67584
# Velocity P-wave (km/s) = 5.82087 7.72069 6.83709
#
# Compressibility (1/GPa) = 0.02954645
#
# Stress axis : x y z
#
# Youngs Moduli (GPa) = 29.95265 94.81798 62.07016
#
# Poissons Ratio (x) = 0.44415 0.15700
# Poissons Ratio (y) = 0.14031 0.49872
# Poissons Ratio (z) = 0.07576 0.76184
#
# Static dielectric constant tensor:
#      x y z
#    x 3.076490 0.000000 0.000000 
#    y 0.000000 3.822690 0.000000 
#    z 0.000000 0.000000 3.515550 
# 
# 
# High freq. dielectric constant tensor:
#      x y z
#    x 1.680900 0.000000 0.000000 
#    y 0.000000 1.716330 0.000000 
#    z 0.000000 0.000000 1.700270 
# 
# From -- ./inp_files/67670.got.cif
#   From: 2010.03.12/outbox.cif.g09.slc.cpg/sg65_34_cif.got.tgz:67670.got - 2010.04.10 20:52:16.
