data_PCOD8271067
_publ_section_title
;
Structure prediction by ZEFSAII (Michael W. Deem and Ramdas Pophale) SiO2 
 PCOD8271067
Probable space group: C M M M
;
_chemical_formula_sum "Si O2"
_cell_formula_units_Z 72
_cell_length_a 18.923062
_cell_length_b 9.036220
_cell_length_c 22.914396
_cell_angle_alpha 90.000000
_cell_angle_beta 90.000000
_cell_angle_gamma 90.000000
_cell_volume 3918.200199
_symmetry_space_group_name_H-M "C M M M"
_symmetry_group_IT_number 65
_symmetry_cell_setting 'orthorhombic'
loop_
_space_group_symop_operation_xyz
x,y,z
-x,-y,z
x,-y,-z
-x,y,-z
-x,-y,-z
x,y,-z
-x,y,z
x,-y,z
1/2+x,1/2+y,z
1/2-x,1/2-y,z
1/2+x,1/2-y,-z
1/2-x,1/2+y,-z
1/2-x,1/2-y,-z
1/2+x,1/2+y,-z
1/2-x,1/2+y,z
1/2+x,1/2-y,z
loop_
_atom_site_type_symbol
_atom_site_label
_atom_site_fract_x
_atom_site_fract_y
_atom_site_fract_z
Si Si1 0.081978 0.326356 0.388782
Si Si2 0.321867 0.673265 0.836361
Si Si3 0.673845 0.826169 0.500000
Si Si4 0.676075 0.673877 0.703406
Si Si5 0.578473 0.324395 0.936228
O O1 0.089908 0.500000 0.376759
O O2 0.128075 0.276893 0.444316
O O3 0.111339 0.237402 0.333605
O O4 0.000000 0.284292 0.399264
O O5 0.311944 0.500000 0.844866
O O6 0.250000 0.750000 0.853221
O O7 0.344231 0.710307 0.770188
O O8 0.377617 0.740976 0.882162
O O9 0.750000 0.750000 0.500000
O O10 0.687207 0.000000 0.500000
O O11 0.684543 0.500000 0.692100
O O12 0.750000 0.750000 0.685422
O O13 0.500000 0.258713 0.930655
O O14 0.575849 0.500000 0.931203
O O15 0.610150 0.279390 0.000000
#
# Coordination Sequence:
#
# PCOD8271067 Si02
#       5
#    16  16   8  16  16
#     4  10  21  37  56  78 105 135 167 205 249 296
#     4   9  18  31  48  71  98 127 160 201 246 290
#     4  10  21  37  57  79 103 134 169 204 246 294
#     4  10  20  34  52  74 102 135 170 208 250 298
#     4   8  14  26  45  68  93 123 161 202 242 287
#
# _framework density 18.375785
#
# number of rings (size 3 to 8) (size 9 to 14) (size 15 to 20)
#    0.000    2.667    0.000    2.333    0.000    6.667 
#    0.000    2.222    0.000    2.667    0.000    1.556 
#    0.000    0.000    0.000    0.000    0.000    0.000 
#
# Total GULP energy -446297.043688 kJ/mol
# GULP energy per Si atom -12397.140102 kJ/mol
# Density = 1.833396 g / cm^3
# Si number density = 18.375785 Si / 1000 Ang^3
#
#
#
# Elastic Constant Matrix: (Units=GPa)
#
#
# Indices 1 2 3 4 5 6 
#
# 1 146.8591 42.9557 96.6961 0.0000 0.0000 0.0000
# 2 42.9557 35.5626 37.5614 0.0000 0.0000 0.0000
# 3 96.6961 37.5614 140.3404 0.0000 0.0000 0.0000
# 4 0.0000 0.0000 0.0000 17.8055 0.0000 0.0000
# 5 0.0000 0.0000 0.0000 0.0000 41.4188 0.0000
# 6 0.0000 0.0000 0.0000 0.0000 0.0000 28.3526
#
#
#
# Elastic Compliance Matrix: (Units=1/GPa)
#
#
# Indices 1 2 3 4 5 6 
#
# 1 0.014534 -0.009729 -0.007410 0.000000 0.000000 0.000000
# 2 -0.009729 0.045713 -0.005532 0.000000 0.000000 0.000000
# 3 -0.007410 -0.005532 0.013712 0.000000 0.000000 0.000000
# 4 0.000000 0.000000 0.000000 0.056162 0.000000 0.000000
# 5 0.000000 0.000000 0.000000 0.000000 0.024144 0.000000
# 6 0.000000 0.000000 0.000000 0.000000 0.000000 0.035270
#
#
# Mechanical properties :
#
#
# Convention : Reuss Voigt Hill
#
# Bulk Modulus (GPa) = 34.94336 75.24315 55.09325
# Shear Modulus (GPa) = 20.45693 27.21863 23.83778
#
# Velocity S-wave (km/s) = 3.34017 3.85284 3.60563
# Velocity P-wave (km/s) = 5.82519 7.79925 6.88336
#
# Compressibility (1/GPa) = 0.02861774
#
# Stress axis : x y z
#
# Youngs Moduli (GPa) = 68.80448 21.87544 72.92993
#
# Poissons Ratio (x) = 0.21282 0.54043
# Poissons Ratio (y) = 0.66938 0.40343
# Poissons Ratio (z) = 0.50985 0.12101
#
# Static dielectric constant tensor:
#      x y z
#    x 3.528850 0.000000 0.000000 
#    y 0.000000 3.115690 0.000000 
#    z 0.000000 0.000000 3.682940 
# 
# 
# High freq. dielectric constant tensor:
#      x y z
#    x 1.712080 0.000000 0.000000 
#    y 0.000000 1.685180 0.000000 
#    z 0.000000 0.000000 1.728120 
# 
# From -- ./inp_files/59252.got.cif
#   From: 2010.03.12/outbox.cif.g09.slc.cpg/sg65_30_cif.got.tgz:59252.got - 2010.04.10 20:52:16.
