data_PCOD8271656
_publ_section_title
;
Structure prediction by ZEFSAII (Michael W. Deem and Ramdas Pophale) SiO2 
 PCOD8271656
Probable space group: C M M M
;
_chemical_formula_sum "Si O2"
_cell_formula_units_Z 88
_cell_length_a 9.223598
_cell_length_b 28.300842
_cell_length_c 19.394677
_cell_angle_alpha 90.000000
_cell_angle_beta 90.000000
_cell_angle_gamma 90.000000
_cell_volume 5062.700947
_symmetry_space_group_name_H-M "C M M M"
_symmetry_group_IT_number 65
_symmetry_cell_setting 'orthorhombic'
loop_
_space_group_symop_operation_xyz
x,y,z
-x,-y,z
x,-y,-z
-x,y,-z
-x,-y,-z
x,y,-z
-x,y,z
x,-y,z
1/2+x,1/2+y,z
1/2-x,1/2-y,z
1/2+x,1/2-y,-z
1/2-x,1/2+y,-z
1/2-x,1/2-y,-z
1/2+x,1/2+y,-z
1/2-x,1/2+y,z
1/2+x,1/2-y,z
loop_
_atom_site_type_symbol
_atom_site_label
_atom_site_fract_x
_atom_site_fract_y
_atom_site_fract_z
Si Si1 0.667158 0.591485 0.576544
Si Si2 0.166456 0.124187 0.719176
Si Si3 0.828837 0.200544 0.172171
Si Si4 0.667750 0.870244 0.079356
Si Si5 0.169282 0.553495 0.810025
Si Si6 0.840404 0.500000 0.418950
O O1 0.718209 0.609256 0.500000
O O2 0.500000 0.576610 0.572538
O O3 0.692134 0.630831 0.636339
O O4 0.754495 0.546334 0.603529
O O5 0.211619 0.172224 0.757842
O O6 0.255951 0.079437 0.746058
O O7 0.000000 0.112772 0.735464
O O8 0.750000 0.250000 0.178021
O O9 0.767688 0.172238 0.106583
O O10 0.000000 0.208013 0.163012
O O11 0.500000 0.855852 0.089915
O O12 0.704511 0.918694 0.119282
O O13 0.705235 0.879198 0.000000
O O14 0.228472 0.500000 0.816980
O O15 0.000000 0.553346 0.794538
O O16 0.856920 0.500000 0.500000
O O17 0.000000 0.500000 0.383996
#
# Coordination Sequence:
#
# PCOD8271656 Si02
#       6
#    16  16  16  16  16   8
#     4   9  17  30  47  66  91 125 163 200 237 278
#     4   9  19  33  49  70  94 124 162 201 239 283
#     4  10  20  35  54  74  96 122 155 196 243 292
#     4   9  18  33  52  74 100 128 159 195 234 279
#     4   9  18  31  47  70  99 131 165 197 232 275
#     4   9  17  27  39  61  93 125 156 191 232 275
#
# _framework density 17.382024999999999
#
# number of rings (size 3 to 8) (size 9 to 14) (size 15 to 20)
#    0.000    2.818    0.000    0.818    1.273    4.000 
#    0.000    1.818    0.000    0.545    0.000    5.091 
#    0.000    0.000    0.000    0.000    0.000    0.545 
#
# Total GULP energy -545383.187255 kJ/mol
# GULP energy per Si atom -12395.072438 kJ/mol
# Density = 1.734246 g / cm^3
# Si number density = 17.382025 Si / 1000 Ang^3
#
#
#
# Elastic Constant Matrix: (Units=GPa)
#
#
# Indices 1 2 3 4 5 6 
#
# 1 58.4517 42.5095 36.0356 0.0000 0.0000 0.0000
# 2 42.5095 116.1931 53.5435 0.0000 0.0000 0.0000
# 3 36.0356 53.5435 131.0790 0.0000 0.0000 0.0000
# 4 0.0000 0.0000 0.0000 15.2124 0.0000 0.0000
# 5 0.0000 0.0000 0.0000 0.0000 20.9088 0.0000
# 6 0.0000 0.0000 0.0000 0.0000 0.0000 20.6173
#
#
#
# Elastic Compliance Matrix: (Units=1/GPa)
#
#
# Indices 1 2 3 4 5 6 
#
# 1 0.024779 -0.007300 -0.003830 0.000000 0.000000 0.000000
# 2 -0.007300 0.012753 -0.003202 0.000000 0.000000 0.000000
# 3 -0.003830 -0.003202 0.009990 0.000000 0.000000 0.000000
# 4 0.000000 0.000000 0.000000 0.065736 0.000000 0.000000
# 5 0.000000 0.000000 0.000000 0.000000 0.047827 0.000000
# 6 0.000000 0.000000 0.000000 0.000000 0.000000 0.048503
#
#
# Mechanical properties :
#
#
# Convention : Reuss Voigt Hill
#
# Bulk Modulus (GPa) = 53.03314 63.32233 58.17773
# Shear Modulus (GPa) = 20.44674 22.92338 21.68506
#
# Velocity S-wave (km/s) = 3.43347 3.63547 3.53591
# Velocity P-wave (km/s) = 6.80403 7.35738 7.08611
#
# Compressibility (1/GPa) = 0.01885613
#
# Stress axis : x y z
#
# Youngs Moduli (GPa) = 40.35742 78.41332 100.10020
#
# Poissons Ratio (x) = 0.57245 0.38337
# Poissons Ratio (y) = 0.29463 0.32056
# Poissons Ratio (z) = 0.15457 0.25111
#
# Static dielectric constant tensor:
#      x y z
#    x 3.339170 0.000000 0.000000 
#    y 0.000000 3.122800 0.000000 
#    z 0.000000 0.000000 3.404190 
# 
# 
# High freq. dielectric constant tensor:
#      x y z
#    x 1.673350 0.000000 0.000000 
#    y 0.000000 1.645260 0.000000 
#    z 0.000000 0.000000 1.677930 
# 
# From -- ./inp_files/50334.got.cif
#   From: 2010.03.12/outbox.cif.g09.slc.cpg/sg65_26_cif.got.tgz:50334.got - 2010.04.10 20:52:16.
