data_PCOD8271424
_publ_section_title
;
Structure prediction by ZEFSAII (Michael W. Deem and Ramdas Pophale) SiO2 
 PCOD8271424
Probable space group: C M M M
;
_chemical_formula_sum "Si O2"
_cell_formula_units_Z 80
_cell_length_a 20.285236
_cell_length_b 18.261215
_cell_length_c 11.287417
_cell_angle_alpha 90.000000
_cell_angle_beta 90.000000
_cell_angle_gamma 90.000000
_cell_volume 4181.232373
_symmetry_space_group_name_H-M "C M M M"
_symmetry_group_IT_number 65
_symmetry_cell_setting 'orthorhombic'
loop_
_space_group_symop_operation_xyz
x,y,z
-x,-y,z
x,-y,-z
-x,y,-z
-x,-y,-z
x,y,-z
-x,y,z
x,-y,z
1/2+x,1/2+y,z
1/2-x,1/2-y,z
1/2+x,1/2-y,-z
1/2-x,1/2+y,-z
1/2-x,1/2-y,-z
1/2+x,1/2+y,-z
1/2-x,1/2+y,z
1/2+x,1/2-y,z
loop_
_atom_site_type_symbol
_atom_site_label
_atom_site_fract_x
_atom_site_fract_y
_atom_site_fract_z
Si Si1 0.574707 0.809961 0.236850
Si Si2 0.828145 0.413521 0.636601
Si Si3 0.925970 0.164259 0.364577
Si Si4 0.922069 0.229019 0.000000
Si Si5 0.806321 0.917052 0.744163
Si Si6 0.158337 0.082197 0.000000
O O1 0.500000 0.837868 0.218412
O O2 0.617934 0.878632 0.276901
O O3 0.578581 0.750634 0.341461
O O4 0.602025 0.773806 0.115459
O O5 0.841006 0.392578 0.500000
O O6 0.831985 0.500000 0.656960
O O7 0.756250 0.382947 0.675458
O O8 0.908537 0.148447 0.500000
O O9 0.874322 0.123062 0.283216
O O10 0.000000 0.136674 0.333262
O O11 0.895643 0.146199 0.000000
O O12 0.000000 0.220649 0.000000
O O13 0.815013 0.000000 0.701522
O O14 0.794679 0.910430 0.885175
O O15 0.125305 0.000000 0.000000
#
# Coordination Sequence:
#
# PCOD8271424 Si02
#       6
#    16  16  16   8  16   8
#     4  10  21  38  59  85 115 146 189 242 292 342
#     4  10  22  40  61  84 113 152 194 239 292 346
#     4  10  20  34  54  80 113 152 189 232 287 343
#     4  10  20  38  60  85 119 155 189 236 290 340
#     4  10  21  37  56  83 117 150 191 239 283 337
#     4  10  20  36  59  84 115 157 197 236 281 330
#
# _framework density 19.133116000000001
#
# number of rings (size 3 to 8) (size 9 to 14) (size 15 to 20)
#    0.000    2.000    2.000    1.200    0.000    5.000 
#    0.000    8.500    0.000    1.800    0.000    0.000 
#    0.000    0.000    0.000    0.000    0.000    0.000 
#
# Total GULP energy -495947.377241 kJ/mol
# GULP energy per Si atom -12398.684431 kJ/mol
# Density = 1.908957 g / cm^3
# Si number density = 19.133116 Si / 1000 Ang^3
#
#
#
# Elastic Constant Matrix: (Units=GPa)
#
#
# Indices 1 2 3 4 5 6 
#
# 1 95.2206 47.9807 47.4456 0.0000 0.0000 0.0000
# 2 47.9807 69.3158 47.3780 0.0000 0.0000 0.0000
# 3 47.4456 47.3780 114.1036 0.0000 0.0000 0.0000
# 4 0.0000 0.0000 0.0000 31.5724 0.0000 0.0000
# 5 0.0000 0.0000 0.0000 0.0000 29.9702 0.0000
# 6 0.0000 0.0000 0.0000 0.0000 0.0000 27.5906
#
#
#
# Elastic Compliance Matrix: (Units=1/GPa)
#
#
# Indices 1 2 3 4 5 6 
#
# 1 0.016840 -0.009593 -0.003019 0.000000 0.000000 0.000000
# 2 -0.009593 0.025609 -0.006644 0.000000 0.000000 0.000000
# 3 -0.003019 -0.006644 0.012778 0.000000 0.000000 0.000000
# 4 0.000000 0.000000 0.000000 0.031673 0.000000 0.000000
# 5 0.000000 0.000000 0.000000 0.000000 0.033366 0.000000
# 6 0.000000 0.000000 0.000000 0.000000 0.000000 0.036244
#
#
# Mechanical properties :
#
#
# Convention : Reuss Voigt Hill
#
# Bulk Modulus (GPa) = 59.83053 62.69430 61.26241
# Shear Modulus (GPa) = 24.92582 26.88235 25.90408
#
# Velocity S-wave (km/s) = 3.61329 3.75242 3.68351
# Velocity P-wave (km/s) = 6.98186 7.18420 7.08375
#
# Compressibility (1/GPa) = 0.01671388
#
# Stress axis : x y z
#
# Youngs Moduli (GPa) = 59.38173 39.04933 78.25891
#
# Poissons Ratio (x) = 0.37461 0.23626
# Poissons Ratio (y) = 0.56967 0.51997
# Poissons Ratio (z) = 0.17927 0.25945
#
# Static dielectric constant tensor:
#      x y z
#    x 3.406590 0.000000 0.000000 
#    y 0.000000 3.313080 0.000000 
#    z 0.000000 0.000000 3.741370 
# 
# 
# High freq. dielectric constant tensor:
#      x y z
#    x 1.732140 0.000000 0.000000 
#    y 0.000000 1.730380 0.000000 
#    z 0.000000 0.000000 1.761700 
# 
# From -- ./inp_files/28575.got.cif
#   From: 2010.03.12/outbox.cif.g09.slc.cpg/sg65_15_cif.got.tgz:28575.got - 2010.04.10 20:52:16.
