data_PCOD8271812
_publ_section_title
;
Structure prediction by ZEFSAII (Michael W. Deem and Ramdas Pophale) SiO2 
 PCOD8271812
Probable space group: C M M M
;
_chemical_formula_sum "Si O2"
_cell_formula_units_Z 88
_cell_length_a 8.910200
_cell_length_b 19.018246
_cell_length_c 28.509363
_cell_angle_alpha 90.000000
_cell_angle_beta 90.000000
_cell_angle_gamma 90.000000
_cell_volume 4831.093322
_symmetry_space_group_name_H-M "C M M M"
_symmetry_group_IT_number 65
_symmetry_cell_setting 'orthorhombic'
loop_
_space_group_symop_operation_xyz
x,y,z
-x,-y,z
x,-y,-z
-x,y,-z
-x,-y,-z
x,y,-z
-x,y,z
x,-y,z
1/2+x,1/2+y,z
1/2-x,1/2-y,z
1/2+x,1/2-y,-z
1/2-x,1/2+y,-z
1/2-x,1/2-y,-z
1/2+x,1/2+y,-z
1/2-x,1/2+y,z
1/2+x,1/2-y,z
loop_
_atom_site_type_symbol
_atom_site_label
_atom_site_fract_x
_atom_site_fract_y
_atom_site_fract_z
Si Si1 0.322506 0.823666 0.923717
Si Si2 0.821423 0.578419 0.264977
Si Si3 0.175290 0.082666 0.000000
Si Si4 0.675650 0.822076 0.816653
Si Si5 0.675446 0.824933 0.450500
Si Si6 0.322543 0.173926 0.650982
O O1 0.500000 0.819553 0.932040
O O2 0.250000 0.750000 0.939571
O O3 0.280477 0.840769 0.869941
O O4 0.252399 0.886024 0.953837
O O5 0.753245 0.500000 0.265871
O O6 0.766880 0.615750 0.217094
O O7 0.759010 0.620958 0.309858
O O8 0.000000 0.575076 0.266719
O O9 0.000000 0.101192 0.000000
O O10 0.204466 0.000000 0.000000
O O11 0.500000 0.810917 0.811469
O O12 0.750000 0.750000 0.799903
O O13 0.719116 0.865496 0.500000
O O14 0.500000 0.811943 0.449893
O O15 0.750000 0.750000 0.451857
O O16 0.719963 0.860193 0.400477
O O17 0.500000 0.183239 0.656642
O O18 0.250000 0.250000 0.658054
#
# Coordination Sequence:
#
# PCOD8271812 Si02
#       6
#    16  16   8  16  16  16
#     4  10  20  35  56  79 102 129 162 199 239 284
#     4   9  17  29  45  66  92 121 153 187 225 272
#     4  11  24  39  54  75 105 137 166 199 238 277
#     4   9  18  32  52  75  96 121 153 192 233 273
#     4   8  13  21  34  55  82 108 138 179 224 267
#     4   9  16  26  43  64  85 114 149 186 227 269
#
# _framework density 18.215339
#
# number of rings (size 3 to 8) (size 9 to 14) (size 15 to 20)
#    0.000    2.818    0.000    1.636    0.000    2.182 
#    0.000    1.818    0.000    2.727    0.000    3.818 
#    0.000    0.000    0.000   29.455    0.000   13.818 
#
# Total GULP energy -545141.472895 kJ/mol
# GULP energy per Si atom -12389.578929 kJ/mol
# Density = 1.817388 g / cm^3
# Si number density = 18.215339 Si / 1000 Ang^3
#
#
#
# Elastic Constant Matrix: (Units=GPa)
#
#
# Indices 1 2 3 4 5 6 
#
# 1 36.6658 30.5654 31.0209 0.0000 0.0000 0.0000
# 2 30.5654 121.2118 86.3057 0.0000 0.0000 0.0000
# 3 31.0209 86.3057 162.1414 0.0000 0.0000 0.0000
# 4 0.0000 0.0000 0.0000 10.4942 0.0000 0.0000
# 5 0.0000 0.0000 0.0000 0.0000 16.4484 0.0000
# 6 0.0000 0.0000 0.0000 0.0000 0.0000 20.5607
#
#
#
# Elastic Compliance Matrix: (Units=1/GPa)
#
#
# Indices 1 2 3 4 5 6 
#
# 1 0.035578 -0.006642 -0.003271 0.000000 0.000000 0.000000
# 2 -0.006642 0.014525 -0.006461 0.000000 0.000000 0.000000
# 3 -0.003271 -0.006461 0.010232 0.000000 0.000000 0.000000
# 4 0.000000 0.000000 0.000000 0.095290 0.000000 0.000000
# 5 0.000000 0.000000 0.000000 0.000000 0.060796 0.000000
# 6 0.000000 0.000000 0.000000 0.000000 0.000000 0.048636
#
#
# Mechanical properties :
#
#
# Convention : Reuss Voigt Hill
#
# Bulk Modulus (GPa) = 36.24898 68.42256 52.33577
# Shear Modulus (GPa) = 16.28650 20.97582 18.63116
#
# Velocity S-wave (km/s) = 2.99341 3.39713 3.20164
# Velocity P-wave (km/s) = 5.64719 7.28231 6.51624
#
# Compressibility (1/GPa) = 0.02758698
#
# Stress axis : x y z
#
# Youngs Moduli (GPa) = 28.10711 68.84572 97.73022
#
# Poissons Ratio (x) = 0.45731 0.31969
# Poissons Ratio (y) = 0.18670 0.63141
# Poissons Ratio (z) = 0.09194 0.44479
#
# Static dielectric constant tensor:
#      x y z
#    x 3.097910 0.000000 0.000000 
#    y 0.000000 3.204330 0.000000 
#    z 0.000000 0.000000 4.088610 
# 
# 
# High freq. dielectric constant tensor:
#      x y z
#    x 1.686110 0.000000 0.000000 
#    y 0.000000 1.670720 0.000000 
#    z 0.000000 0.000000 1.736420 
# 
# From -- ./inp_files/76624.got.cif
#   From: 2010.03.12/outbox.cif.g09.slc.cpg/sg65_39_cif.got.tgz:76624.got - 2010.04.10 20:52:16.
