data_PCOD8271850
_publ_section_title
;
Structure prediction by ZEFSAII (Michael W. Deem and Ramdas Pophale) SiO2 
 PCOD8271850
Probable space group: C M M M
;
_chemical_formula_sum "Si O2"
_cell_formula_units_Z 80
_cell_length_a 24.422113
_cell_length_b 23.455465
_cell_length_c 7.750694
_cell_angle_alpha 90.000000
_cell_angle_beta 90.000000
_cell_angle_gamma 90.000000
_cell_volume 4439.845675
_symmetry_space_group_name_H-M "C M M M"
_symmetry_group_IT_number 65
_symmetry_cell_setting 'orthorhombic'
loop_
_space_group_symop_operation_xyz
x,y,z
-x,-y,z
x,-y,-z
-x,y,-z
-x,-y,-z
x,y,-z
-x,y,z
x,-y,z
1/2+x,1/2+y,z
1/2-x,1/2-y,z
1/2+x,1/2-y,-z
1/2-x,1/2+y,-z
1/2-x,1/2-y,-z
1/2+x,1/2+y,-z
1/2-x,1/2+y,z
1/2+x,1/2-y,z
loop_
_atom_site_type_symbol
_atom_site_label
_atom_site_fract_x
_atom_site_fract_y
_atom_site_fract_z
Si Si1 0.936036 0.839605 0.699184
Si Si2 0.145055 0.936752 0.701921
Si Si3 0.935027 0.370961 0.000000
Si Si4 0.123474 0.433191 0.306877
Si Si5 0.261197 0.934838 0.801176
Si Si6 0.064564 0.756853 0.000000
O O1 0.922419 0.823256 0.500000
O O2 0.904172 0.896082 0.761850
O O3 0.000000 0.852824 0.722265
O O4 0.916456 0.788709 0.824802
O O5 0.143144 0.943787 0.500000
O O6 0.202792 0.906402 0.754772
O O7 0.138142 0.000000 0.787625
O O8 0.915328 0.401564 0.173227
O O9 0.910933 0.306766 0.000000
O O10 0.000000 0.372196 0.000000
O O11 0.100970 0.422500 0.500000
O O12 0.123366 0.500000 0.259112
O O13 0.186072 0.409367 0.297808
O O14 0.253887 0.000000 0.744000
O O15 0.275130 0.927383 0.000000
O O16 0.000000 0.752546 0.000000
#
# Coordination Sequence:
#
# PCOD8271850 Si02
#       6
#    16  16   8  16  16   8
#     4   9  18  33  52  73 101 138 176 216 261 304
#     4   9  17  28  46  76 108 137 172 213 257 304
#     4  11  23  38  56  79 105 132 166 209 252 300
#     4  10  20  35  56  81 109 138 164 196 246 305
#     4   9  16  28  48  74 105 139 172 204 241 294
#     4   9  20  37  54  71  94 131 179 219 250 292
#
# _framework density 18.018644999999999
#
# number of rings (size 3 to 8) (size 9 to 14) (size 15 to 20)
#    0.000    2.600    1.000    0.900    1.400    4.800 
#    0.000    5.000    0.000    4.200    0.000    4.200 
#    0.000    0.000    0.000    0.000    0.000    0.000 
#
# Total GULP energy -495754.891584 kJ/mol
# GULP energy per Si atom -12393.872290 kJ/mol
# Density = 1.797763 g / cm^3
# Si number density = 18.018645 Si / 1000 Ang^3
#
#
#
# Elastic Constant Matrix: (Units=GPa)
#
#
# Indices 1 2 3 4 5 6 
#
# 1 90.5627 49.7426 45.6101 0.0000 0.0000 0.0000
# 2 49.7426 93.5456 55.6367 0.0000 0.0000 0.0000
# 3 45.6101 55.6367 91.0304 0.0000 0.0000 0.0000
# 4 0.0000 0.0000 0.0000 17.6930 0.0000 0.0000
# 5 0.0000 0.0000 0.0000 0.0000 27.8022 0.0000
# 6 0.0000 0.0000 0.0000 0.0000 0.0000 -2.1164
#
#
#
# Elastic Compliance Matrix: (Units=1/GPa)
#
#
# Indices 1 2 3 4 5 6 
#
# 1 0.016756 -0.006154 -0.004635 0.000000 0.000000 0.000000
# 2 -0.006154 0.019055 -0.008563 0.000000 0.000000 0.000000
# 3 -0.004635 -0.008563 0.018541 0.000000 0.000000 0.000000
# 4 0.000000 0.000000 0.000000 0.056520 0.000000 0.000000
# 5 0.000000 0.000000 0.000000 0.000000 0.035968 0.000000
# 6 0.000000 0.000000 0.000000 0.000000 0.000000 -0.472506
#
#
# Mechanical properties :
#
#
# Convention : Reuss Voigt Hill
#
# Bulk Modulus (GPa) = 63.89802 64.12418 64.01110
# Shear Modulus (GPa) = -17.74639 16.95238 -0.39701
#
# Velocity S-wave (km/s) = -3.14170 3.07061 -0.46990
# Velocity P-wave (km/s) = 4.73062 6.94525 5.94202
#
# Compressibility (1/GPa) = 0.01564994
#
# Stress axis : x y z
#
# Youngs Moduli (GPa) = 59.67977 52.47964 53.93446
#
# Poissons Ratio (x) = 0.32294 0.24996
# Poissons Ratio (y) = 0.36725 0.46184
# Poissons Ratio (z) = 0.27659 0.44938
#
# Static dielectric constant tensor:
#      x y z
#    x 3.384540 0.000000 0.000000 
#    y 0.000000 3.534280 0.000000 
#    z 0.000000 0.000000 3.381330 
# 
# 
# High freq. dielectric constant tensor:
#      x y z
#    x 1.695410 0.000000 0.000000 
#    y 0.000000 1.654700 0.000000 
#    z 0.000000 0.000000 1.709180 
# 
# From -- ./inp_files/13855.got.cif
#   From: 2010.03.12/outbox.cif.g09.slc.cpg/sg65_7_cif.got.tgz:13855.got - 2010.04.10 20:52:16.
