data_PCOD8271021
_publ_section_title
;
Structure prediction by ZEFSAII (Michael W. Deem and Ramdas Pophale) SiO2 
 PCOD8271021
Probable space group: C M M M
;
_chemical_formula_sum "Si O2"
_cell_formula_units_Z 104
_cell_length_a 19.807361
_cell_length_b 32.284637
_cell_length_c 9.083466
_cell_angle_alpha 90.000000
_cell_angle_beta 90.000000
_cell_angle_gamma 90.000000
_cell_volume 5808.635430
_symmetry_space_group_name_H-M "C M M M"
_symmetry_group_IT_number 65
_symmetry_cell_setting 'orthorhombic'
loop_
_space_group_symop_operation_xyz
x,y,z
-x,-y,z
x,-y,-z
-x,y,-z
-x,-y,-z
x,y,-z
-x,y,z
x,-y,z
1/2+x,1/2+y,z
1/2-x,1/2-y,z
1/2+x,1/2-y,-z
1/2-x,1/2+y,-z
1/2-x,1/2-y,-z
1/2+x,1/2+y,-z
1/2-x,1/2+y,z
1/2+x,1/2-y,z
loop_
_atom_site_type_symbol
_atom_site_label
_atom_site_fract_x
_atom_site_fract_y
_atom_site_fract_z
Si Si1 0.422919 0.822410 0.167375
Si Si2 0.311348 0.127754 0.330156
Si Si3 0.832678 0.837994 0.327924
Si Si4 0.733310 0.046688 0.830659
Si Si5 0.377184 0.582561 0.832195
Si Si6 0.922760 0.773736 0.171546
Si Si7 0.500000 0.454746 0.673055
O O1 0.500000 0.836403 0.189758
O O2 0.377705 0.850145 0.272193
O O3 0.414908 0.774454 0.208118
O O4 0.399862 0.829939 0.000000
O O5 0.320715 0.118525 0.500000
O O6 0.248085 0.158823 0.302522
O O7 0.304934 0.082356 0.258116
O O8 0.849770 0.845586 0.500000
O O9 0.864012 0.871222 0.219083
O O10 0.866393 0.795222 0.274648
O O11 0.813261 0.052823 0.812479
O O12 0.715539 0.000000 0.774260
O O13 0.711944 0.051422 0.000000
O O14 0.433895 0.567791 0.724029
O O15 0.402524 0.583188 0.000000
O O16 0.000000 0.787957 0.208623
O O17 0.907603 0.782546 0.000000
O O18 0.500000 0.500000 0.744318
O O19 0.500000 0.456297 0.500000
#
# Coordination Sequence:
#
# PCOD8271021 Si02
#       7
#    16  16  16  16  16  16   8
#     4   9  19  37  59  81 105 136 174 217 263 314
#     4  10  21  35  53  80 111 141 173 211 260 319
#     4  10  21  35  50  74 108 142 177 217 265 315
#     4   9  18  34  56  79 102 132 173 217 259 308
#     4  10  20  34  52  72  97 133 177 223 265 308
#     4   9  19  35  54  76 103 138 183 226 265 311
#     4  11  23  35  47  67  97 133 173 219 273 325
#
# _framework density 17.904375999999999
#
# number of rings (size 3 to 8) (size 9 to 14) (size 15 to 20)
#    0.000    2.385    0.000    3.000    1.077    5.846 
#    0.000    4.615    0.000    0.462    0.000    3.231 
#    0.000    0.000    0.000    0.000    0.000    0.000 
#
# Total GULP energy -644632.948310 kJ/mol
# GULP energy per Si atom -12396.787468 kJ/mol
# Density = 1.786363 g / cm^3
# Si number density = 17.904376 Si / 1000 Ang^3
#
#
#
# Elastic Constant Matrix: (Units=GPa)
#
#
# Indices 1 2 3 4 5 6 
#
# 1 75.8138 52.0995 40.1391 0.0000 0.0000 0.0000
# 2 52.0995 93.5788 45.6082 0.0000 0.0000 0.0000
# 3 40.1391 45.6082 76.4660 0.0000 0.0000 0.0000
# 4 0.0000 0.0000 0.0000 15.9950 0.0000 0.0000
# 5 0.0000 0.0000 0.0000 0.0000 31.6834 0.0000
# 6 0.0000 0.0000 0.0000 0.0000 0.0000 12.9580
#
#
#
# Elastic Compliance Matrix: (Units=1/GPa)
#
#
# Indices 1 2 3 4 5 6 
#
# 1 0.023366 -0.009912 -0.006353 0.000000 0.000000 0.000000
# 2 -0.009912 0.019271 -0.006291 0.000000 0.000000 0.000000
# 3 -0.006353 -0.006291 0.020165 0.000000 0.000000 0.000000
# 4 0.000000 0.000000 0.000000 0.062519 0.000000 0.000000
# 5 0.000000 0.000000 0.000000 0.000000 0.031562 0.000000
# 6 0.000000 0.000000 0.000000 0.000000 0.000000 0.077172
#
#
# Mechanical properties :
#
#
# Convention : Reuss Voigt Hill
#
# Bulk Modulus (GPa) = 56.53302 57.95023 57.24162
# Shear Modulus (GPa) = 17.53994 19.32808 18.43401
#
# Velocity S-wave (km/s) = 3.13332 3.28916 3.21219
# Velocity P-wave (km/s) = 6.68833 6.84555 6.76740
#
# Compressibility (1/GPa) = 0.01768878
#
# Stress axis : x y z
#
# Youngs Moduli (GPa) = 42.79804 51.89190 49.59144
#
# Poissons Ratio (x) = 0.51437 0.31506
# Poissons Ratio (y) = 0.42423 0.31197
# Poissons Ratio (z) = 0.27190 0.32644
#
# Static dielectric constant tensor:
#      x y z
#    x 3.237300 0.000000 0.000000 
#    y 0.000000 3.303620 0.000000 
#    z 0.000000 0.000000 3.313970 
# 
# 
# High freq. dielectric constant tensor:
#      x y z
#    x 1.679320 0.000000 0.000000 
#    y 0.000000 1.692020 0.000000 
#    z 0.000000 0.000000 1.698550 
# 
# From -- ./inp_files/12734.got.cif
#   From: 2010.03.12/outbox.cif.g09.slc.cpg/sg65_7_cif.got.tgz:12734.got - 2010.04.10 20:52:16.
