data_PCOD8271270
_publ_section_title
;
Structure prediction by ZEFSAII (Michael W. Deem and Ramdas Pophale) SiO2 
 PCOD8271270
Probable space group: C M M M
;
_chemical_formula_sum "Si O2"
_cell_formula_units_Z 104
_cell_length_a 22.196701
_cell_length_b 27.235863
_cell_length_c 9.201422
_cell_angle_alpha 90.000000
_cell_angle_beta 90.000000
_cell_angle_gamma 90.000000
_cell_volume 5562.685694
_symmetry_space_group_name_H-M "C M M M"
_symmetry_group_IT_number 65
_symmetry_cell_setting 'orthorhombic'
loop_
_space_group_symop_operation_xyz
x,y,z
-x,-y,z
x,-y,-z
-x,y,-z
-x,-y,-z
x,y,-z
-x,y,z
x,-y,z
1/2+x,1/2+y,z
1/2-x,1/2-y,z
1/2+x,1/2-y,-z
1/2-x,1/2+y,-z
1/2-x,1/2-y,-z
1/2+x,1/2+y,-z
1/2-x,1/2+y,z
1/2+x,1/2-y,z
loop_
_atom_site_type_symbol
_atom_site_label
_atom_site_fract_x
_atom_site_fract_y
_atom_site_fract_z
Si Si1 0.758674 0.305385 0.334348
Si Si2 0.928045 0.000000 0.336781
Si Si3 0.862616 0.360505 0.166855
Si Si4 0.571022 0.407417 0.838203
Si Si5 0.123685 0.819706 0.664748
Si Si6 0.568771 0.056650 0.330533
Si Si7 0.431295 0.764273 0.165398
O O1 0.783073 0.302730 0.500000
O O2 0.750000 0.250000 0.273160
O O3 0.802855 0.337924 0.238057
O O4 0.694159 0.332212 0.327975
O O5 0.902155 0.952323 0.254895
O O6 0.902336 0.000000 0.500000
O O7 0.000000 0.000000 0.338597
O O8 0.883766 0.410397 0.243241
O O9 0.916671 0.321626 0.180999
O O10 0.847529 0.372404 0.000000
O O11 0.500000 0.412786 0.848253
O O12 0.586134 0.356652 0.762386
O O13 0.599011 0.408797 0.000000
O O14 0.099919 0.822596 0.500000
O O15 0.112006 0.765236 0.726236
O O16 0.576309 0.068293 0.500000
O O17 0.500000 0.067722 0.281869
O O18 0.584382 0.000000 0.298056
O O19 0.500000 0.755680 0.211804
O O20 0.420180 0.746561 0.000000
#
# Coordination Sequence:
#
# PCOD8271270 Si02
#       7
#    16   8  16  16  16  16  16
#     4  10  21  39  58  77 106 145 189 232 273 322
#     4   9  17  31  53  79 105 135 175 217 254 307
#     4  11  22  35  57  85 114 148 188 233 280 335
#     4  10  20  34  53  78 110 144 174 213 272 331
#     4  11  22  35  54  78 104 139 184 231 272 319
#     4   9  19  37  61  88 118 153 191 232 284 345
#     4  10  21  35  50  75 113 148 176 214 270 332
#
# _framework density 18.696005
#
# number of rings (size 3 to 8) (size 9 to 14) (size 15 to 20)
#    0.000    1.923    1.538    3.000    0.000    7.385 
#    0.000    0.769    1.692    0.000    0.000    0.000 
#    0.000    0.000    0.000    0.000    0.000    0.000 
#
# Total GULP energy -644910.836292 kJ/mol
# GULP energy per Si atom -12402.131467 kJ/mol
# Density = 1.865345 g / cm^3
# Si number density = 18.696005 Si / 1000 Ang^3
#
#
#
# Elastic Constant Matrix: (Units=GPa)
#
#
# Indices 1 2 3 4 5 6 
#
# 1 69.7449 29.7417 44.6604 0.0000 0.0000 0.0000
# 2 29.7417 103.3855 62.3229 0.0000 0.0000 0.0000
# 3 44.6604 62.3229 137.8903 0.0000 0.0000 0.0000
# 4 0.0000 0.0000 0.0000 34.8490 0.0000 0.0000
# 5 0.0000 0.0000 0.0000 0.0000 24.5202 0.0000
# 6 0.0000 0.0000 0.0000 0.0000 0.0000 26.1884
#
#
#
# Elastic Compliance Matrix: (Units=1/GPa)
#
#
# Indices 1 2 3 4 5 6 
#
# 1 0.018496 -0.002350 -0.004928 0.000000 0.000000 0.000000
# 2 -0.002350 0.013593 -0.005383 0.000000 0.000000 0.000000
# 3 -0.004928 -0.005383 0.011281 0.000000 0.000000 0.000000
# 4 0.000000 0.000000 0.000000 0.028695 0.000000 0.000000
# 5 0.000000 0.000000 0.000000 0.000000 0.040783 0.000000
# 6 0.000000 0.000000 0.000000 0.000000 0.000000 0.038185
#
#
# Mechanical properties :
#
#
# Convention : Reuss Voigt Hill
#
# Bulk Modulus (GPa) = 55.40667 64.94116 60.17391
# Shear Modulus (GPa) = 27.41656 28.73125 28.07390
#
# Velocity S-wave (km/s) = 3.83357 3.92440 3.87925
# Velocity P-wave (km/s) = 7.02103 7.43944 7.23326
#
# Compressibility (1/GPa) = 0.01804837
#
# Stress axis : x y z
#
# Youngs Moduli (GPa) = 54.06599 73.56514 88.64262
#
# Poissons Ratio (x) = 0.17287 0.43687
# Poissons Ratio (y) = 0.12705 0.47714
# Poissons Ratio (z) = 0.26646 0.39598
#
# Static dielectric constant tensor:
#      x y z
#    x 3.184200 0.000000 0.000000 
#    y 0.000000 3.368000 0.000000 
#    z 0.000000 0.000000 3.573790 
# 
# 
# High freq. dielectric constant tensor:
#      x y z
#    x 1.703450 0.000000 0.000000 
#    y 0.000000 1.723840 0.000000 
#    z 0.000000 0.000000 1.735410 
# 
# From -- ./inp_files/12453.got.cif
#   From: 2010.03.12/outbox.cif.g09.slc.cpg/sg65_7_cif.got.tgz:12453.got - 2010.04.10 20:52:16.
