data_PCOD8271283
_publ_section_title
;
Structure prediction by ZEFSAII (Michael W. Deem and Ramdas Pophale) SiO2 
 PCOD8271283
Probable space group: C M M M
;
_chemical_formula_sum "Si O2"
_cell_formula_units_Z 56
_cell_length_a 8.759992
_cell_length_b 28.423241
_cell_length_c 10.715173
_cell_angle_alpha 90.000000
_cell_angle_beta 90.000000
_cell_angle_gamma 90.000000
_cell_volume 2667.942678
_symmetry_space_group_name_H-M "C M M M"
_symmetry_group_IT_number 65
_symmetry_cell_setting 'orthorhombic'
loop_
_space_group_symop_operation_xyz
x,y,z
-x,-y,z
x,-y,-z
-x,y,-z
-x,-y,-z
x,y,-z
-x,y,z
x,-y,z
1/2+x,1/2+y,z
1/2-x,1/2-y,z
1/2+x,1/2-y,-z
1/2-x,1/2+y,-z
1/2-x,1/2-y,-z
1/2+x,1/2+y,-z
1/2-x,1/2+y,z
1/2+x,1/2-y,z
loop_
_atom_site_type_symbol
_atom_site_label
_atom_site_fract_x
_atom_site_fract_y
_atom_site_fract_z
Si Si1 0.823667 0.945372 0.858344
Si Si2 0.681041 0.696951 0.500000
Si Si3 0.832956 0.206173 0.142659
Si Si4 0.177356 0.634641 0.280555
O O1 0.732574 0.918482 0.747576
O O2 0.000000 0.930425 0.850287
O O3 0.802157 0.000000 0.827919
O O4 0.764441 0.934894 0.000000
O O5 0.500000 0.702303 0.500000
O O6 0.750000 0.750000 0.500000
O O7 0.732472 0.665056 0.616984
O O8 0.750000 0.250000 0.211410
O O9 0.721589 0.161237 0.152475
O O10 0.000000 0.197962 0.204933
O O11 0.858213 0.218680 0.000000
O O12 0.000000 0.634309 0.313946
#
# Coordination Sequence:
#
# PCOD8271283 Si02
#       4
#    16   8  16  16
#     4   9  19  38  64  93 125 161 201 245 296 355
#     4  12  26  46  67  86 115 156 204 253 301 355
#     4  10  20  34  53  79 112 149 190 236 289 350
#     4  12  24  38  58  86 119 154 196 244 297 355
#
# _framework density 20.989957
#
# number of rings (size 3 to 8) (size 9 to 14) (size 15 to 20)
#    0.000    1.429    0.000    7.286    0.000    6.286 
#    0.000    2.143    0.000    4.286    0.000    0.000 
#    0.000    0.000    0.000    0.000    0.000    0.000 
#
# Total GULP energy -346875.497794 kJ/mol
# GULP energy per Si atom -12388.410636 kJ/mol
# Density = 2.094218 g / cm^3
# Si number density = 20.989957 Si / 1000 Ang^3
#
#
#
# Elastic Constant Matrix: (Units=GPa)
#
#
# Indices 1 2 3 4 5 6 
#
# 1 152.8104 60.8256 45.3422 0.0000 0.0000 0.0000
# 2 60.8256 122.1908 51.4019 0.0000 0.0000 0.0000
# 3 45.3422 51.4019 75.2816 0.0000 0.0000 0.0000
# 4 0.0000 0.0000 0.0000 34.4221 0.0000 0.0000
# 5 0.0000 0.0000 0.0000 0.0000 22.8288 0.0000
# 6 0.0000 0.0000 0.0000 0.0000 0.0000 40.4621
#
#
#
# Elastic Compliance Matrix: (Units=1/GPa)
#
#
# Indices 1 2 3 4 5 6 
#
# 1 0.008676 -0.002975 -0.003194 0.000000 0.000000 0.000000
# 2 -0.002975 0.012502 -0.006744 0.000000 0.000000 0.000000
# 3 -0.003194 -0.006744 0.019812 0.000000 0.000000 0.000000
# 4 0.000000 0.000000 0.000000 0.029051 0.000000 0.000000
# 5 0.000000 0.000000 0.000000 0.000000 0.043804 0.000000
# 6 0.000000 0.000000 0.000000 0.000000 0.000000 0.024715
#
#
# Mechanical properties :
#
#
# Convention : Reuss Voigt Hill
#
# Bulk Modulus (GPa) = 65.95002 73.93581 69.94291
# Shear Modulus (GPa) = 29.50853 32.39013 30.94933
#
# Velocity S-wave (km/s) = 3.75352 3.93252 3.84407
# Velocity P-wave (km/s) = 7.09036 7.47800 7.28676
#
# Compressibility (1/GPa) = 0.01516300
#
# Stress axis : x y z
#
# Youngs Moduli (GPa) = 115.25905 79.98644 50.47354
#
# Poissons Ratio (x) = 0.23798 0.16122
# Poissons Ratio (y) = 0.34292 0.34041
# Poissons Ratio (z) = 0.36816 0.53946
#
# Static dielectric constant tensor:
#      x y z
#    x 4.111370 0.000000 0.000000 
#    y 0.000000 3.878580 0.000000 
#    z 0.000000 0.000000 3.808300 
# 
# 
# High freq. dielectric constant tensor:
#      x y z
#    x 1.825970 0.000000 0.000000 
#    y 0.000000 1.829320 0.000000 
#    z 0.000000 0.000000 1.807690 
# 
# From -- ./inp_files/20461.got.cif
#   From: 2010.03.12/outbox.cif.g09.slc.cpg/sg65_11_cif.got.tgz:20461.got - 2010.04.10 20:52:16.
