data_PCOD8271556
_publ_section_title
;
Structure prediction by ZEFSAII (Michael W. Deem and Ramdas Pophale) SiO2 
 PCOD8271556
Probable space group: C M M M
;
_chemical_formula_sum "Si O2"
_cell_formula_units_Z 88
_cell_length_a 14.953066
_cell_length_b 10.691702
_cell_length_c 29.302293
_cell_angle_alpha 90.000000
_cell_angle_beta 90.000000
_cell_angle_gamma 90.000000
_cell_volume 4684.666752
_symmetry_space_group_name_H-M "C M M M"
_symmetry_group_IT_number 65
_symmetry_cell_setting 'orthorhombic'
loop_
_space_group_symop_operation_xyz
x,y,z
-x,-y,z
x,-y,-z
-x,y,-z
-x,-y,-z
x,y,-z
-x,y,z
x,-y,z
1/2+x,1/2+y,z
1/2-x,1/2-y,z
1/2+x,1/2-y,-z
1/2-x,1/2+y,-z
1/2-x,1/2-y,-z
1/2+x,1/2+y,-z
1/2-x,1/2+y,z
1/2+x,1/2-y,z
loop_
_atom_site_type_symbol
_atom_site_label
_atom_site_fract_x
_atom_site_fract_y
_atom_site_fract_z
Si Si1 0.310491 0.366701 0.719386
Si Si2 0.500000 0.285463 0.251907
Si Si3 0.599083 0.646641 0.000000
Si Si4 0.000000 0.356313 0.341153
Si Si5 0.822883 0.852722 0.903867
Si Si6 0.158837 0.800554 0.619901
Si Si7 0.398590 0.500000 0.549368
Si Si8 0.500000 0.356605 0.154633
O O1 0.268827 0.500000 0.736452
O O2 0.250000 0.250000 0.736492
O O3 0.410668 0.363062 0.738196
O O4 0.314045 0.377483 0.664817
O O5 0.500000 0.166479 0.286158
O O6 0.500000 0.259760 0.197513
O O7 0.654952 0.685922 0.955665
O O8 0.583927 0.500000 0.000000
O O9 0.500000 0.709862 0.000000
O O10 0.911414 0.303970 0.364739
O O11 0.000000 0.500000 0.351028
O O12 0.750000 0.750000 0.886553
O O13 0.912120 0.831432 0.874851
O O14 0.791324 0.000000 0.899979
O O15 0.250000 0.750000 0.598330
O O16 0.118673 0.879268 0.579368
O O17 0.500000 0.500000 0.536011
O O18 0.346648 0.500000 0.500000
O O19 0.500000 0.500000 0.172407
#
# Coordination Sequence:
#
# PCOD8271556 Si02
#       8
#    16   8   8   8  16  16   8   8
#     4  10  20  34  56  83 108 139 183 234 278 329
#     4  10  22  36  57  81 110 146 188 235 284 341
#     4   9  15  30  57  86 109 146 197 249 284 338
#     4  10  22  39  59  88 115 143 184 240 291 337
#     4  10  20  35  58  83 114 151 198 241 290 343
#     4  10  21  35  60  84 112 148 187 227 278 334
#     4  11  22  38  60  85 117 151 193 234 274 331
#     4  10  20  37  56  78 110 154 195 229 276 355
#
# _framework density 18.784687000000002
#
# number of rings (size 3 to 8) (size 9 to 14) (size 15 to 20)
#    0.000    2.000    2.727    1.091    1.273    5.455 
#    0.000    1.364    0.000    1.091    0.000    0.000 
#    0.000    0.000    0.000    0.000    0.000    0.000 
#
# Total GULP energy -545083.452439 kJ/mol
# GULP energy per Si atom -12388.260283 kJ/mol
# Density = 1.874193 g / cm^3
# Si number density = 18.784687 Si / 1000 Ang^3
#
#
#
# Elastic Constant Matrix: (Units=GPa)
#
#
# Indices 1 2 3 4 5 6 
#
# 1 124.8238 66.9152 35.1161 0.0000 0.0000 0.0000
# 2 66.9152 133.0475 35.7217 0.0000 0.0000 0.0000
# 3 35.1161 35.7217 110.5115 0.0000 0.0000 0.0000
# 4 0.0000 0.0000 0.0000 10.5236 0.0000 0.0000
# 5 0.0000 0.0000 0.0000 0.0000 16.3013 0.0000
# 6 0.0000 0.0000 0.0000 0.0000 0.0000 21.9879
#
#
#
# Elastic Compliance Matrix: (Units=1/GPa)
#
#
# Indices 1 2 3 4 5 6 
#
# 1 0.011331 -0.005182 -0.001926 0.000000 0.000000 0.000000
# 2 -0.005182 0.010600 -0.001780 0.000000 0.000000 0.000000
# 3 -0.001926 -0.001780 0.010236 0.000000 0.000000 0.000000
# 4 0.000000 0.000000 0.000000 0.095024 0.000000 0.000000
# 5 0.000000 0.000000 0.000000 0.000000 0.061345 0.000000
# 6 0.000000 0.000000 0.000000 0.000000 0.000000 0.045479
#
#
# Mechanical properties :
#
#
# Convention : Reuss Voigt Hill
#
# Bulk Modulus (GPa) = 69.47967 71.54319 70.51143
# Shear Modulus (GPa) = 19.48655 25.13790 22.31223
#
# Velocity S-wave (km/s) = 3.22431 3.66213 3.45017
# Velocity P-wave (km/s) = 7.13647 7.48667 7.31367
#
# Compressibility (1/GPa) = 0.01439270
#
# Stress axis : x y z
#
# Youngs Moduli (GPa) = 88.25489 94.33872 97.69446
#
# Poissons Ratio (x) = 0.48884 0.18811
# Poissons Ratio (y) = 0.45732 0.17388
# Poissons Ratio (z) = 0.16994 0.16791
#
# Static dielectric constant tensor:
#      x y z
#    x 4.737820 0.000000 0.000000 
#    y 0.000000 3.201690 0.000000 
#    z 0.000000 0.000000 3.456550 
# 
# 
# High freq. dielectric constant tensor:
#      x y z
#    x 1.737240 0.000000 0.000000 
#    y 0.000000 1.707360 0.000000 
#    z 0.000000 0.000000 1.723100 
# 
# From -- ./inp_files/74832.got.cif
#   From: 2010.03.12/outbox.cif.g09.slc.cpg/sg65_38_cif.got.tgz:74832.got - 2010.04.10 20:52:16.
