data_PCOD8271312
_publ_section_title
;
Structure prediction by ZEFSAII (Michael W. Deem and Ramdas Pophale) SiO2 
 PCOD8271312
Probable space group: C M M M
;
_chemical_formula_sum "Si O2"
_cell_formula_units_Z 112
_cell_length_a 14.247398
_cell_length_b 18.271087
_cell_length_c 23.704639
_cell_angle_alpha 90.000000
_cell_angle_beta 90.000000
_cell_angle_gamma 90.000000
_cell_volume 6170.683730
_symmetry_space_group_name_H-M "C M M M"
_symmetry_group_IT_number 65
_symmetry_cell_setting 'orthorhombic'
loop_
_space_group_symop_operation_xyz
x,y,z
-x,-y,z
x,-y,-z
-x,y,-z
-x,-y,-z
x,y,-z
-x,y,z
x,-y,z
1/2+x,1/2+y,z
1/2-x,1/2-y,z
1/2+x,1/2-y,-z
1/2-x,1/2+y,-z
1/2-x,1/2-y,-z
1/2+x,1/2+y,-z
1/2-x,1/2+y,z
1/2+x,1/2-y,z
loop_
_atom_site_type_symbol
_atom_site_label
_atom_site_fract_x
_atom_site_fract_y
_atom_site_fract_z
Si Si1 0.890361 0.672141 0.267180
Si Si2 0.607797 0.698698 0.349322
Si Si3 0.727722 0.086572 0.647480
Si Si4 0.241556 0.417422 0.936538
Si Si5 0.609879 0.164430 0.138103
Si Si6 0.608835 0.175422 0.435078
Si Si7 0.106817 0.199609 0.064550
O O1 0.868427 0.751156 0.294850
O O2 0.833014 0.607873 0.297734
O O3 0.858495 0.674095 0.202485
O O4 0.000000 0.653630 0.274023
O O5 0.500000 0.672402 0.348279
O O6 0.671758 0.626851 0.349781
O O7 0.629530 0.747424 0.404587
O O8 0.671366 0.110944 0.591578
O O9 0.745342 0.000000 0.646070
O O10 0.275259 0.500000 0.931441
O O11 0.159561 0.404391 0.891189
O O12 0.332891 0.371037 0.920976
O O13 0.205257 0.399813 0.000000
O O14 0.500000 0.151118 0.132968
O O15 0.643391 0.235393 0.103845
O O16 0.636380 0.184594 0.500000
O O17 0.500000 0.153782 0.427022
O O18 0.000000 0.179223 0.078645
O O19 0.118812 0.225165 0.000000
#
# Coordination Sequence:
#
# PCOD8271312 Si02
#       7
#    16  16  16  16  16  16  16
#     4   9  19  36  56  75  96 127 168 211 252 296
#     4   9  19  36  55  75 101 134 173 212 247 290
#     4  11  22  33  50  78 109 138 166 203 252 301
#     4  10  21  34  48  71 103 135 164 196 241 300
#     4  10  20  34  54  77  98 125 164 208 252 297
#     4   9  18  34  57  81 103 133 174 215 252 291
#     4   9  18  33  53  75  97 124 163 210 252 289
#
# _framework density 18.150338999999999
#
# number of rings (size 3 to 8) (size 9 to 14) (size 15 to 20)
#    0.000    2.429    0.000    3.857    0.000    8.286 
#    0.000    4.286    0.000    0.000    0.000    9.000 
#    0.000    0.000    0.000    0.000    0.000    0.000 
#
# Total GULP energy -694479.077304 kJ/mol
# GULP energy per Si atom -12401.412095 kJ/mol
# Density = 1.810903 g / cm^3
# Si number density = 18.150339 Si / 1000 Ang^3
#
#
#
# Elastic Constant Matrix: (Units=GPa)
#
#
# Indices 1 2 3 4 5 6 
#
# 1 78.1923 57.6644 44.9674 0.0000 0.0000 0.0000
# 2 57.6644 119.9473 44.7629 0.0000 0.0000 0.0000
# 3 44.9674 44.7629 126.0243 0.0000 0.0000 0.0000
# 4 0.0000 0.0000 0.0000 4.9317 0.0000 0.0000
# 5 0.0000 0.0000 0.0000 0.0000 19.7313 0.0000
# 6 0.0000 0.0000 0.0000 0.0000 0.0000 17.5714
#
#
#
# Elastic Compliance Matrix: (Units=1/GPa)
#
#
# Indices 1 2 3 4 5 6 
#
# 1 0.022007 -0.008818 -0.004720 0.000000 0.000000 0.000000
# 2 -0.008818 0.013144 -0.001522 0.000000 0.000000 0.000000
# 3 -0.004720 -0.001522 0.010160 0.000000 0.000000 0.000000
# 4 0.000000 0.000000 0.000000 0.202771 0.000000 0.000000
# 5 0.000000 0.000000 0.000000 0.000000 0.050681 0.000000
# 6 0.000000 0.000000 0.000000 0.000000 0.000000 0.056911
#
#
# Mechanical properties :
#
#
# Convention : Reuss Voigt Hill
#
# Bulk Modulus (GPa) = 65.83426 68.77260 67.30343
# Shear Modulus (GPa) = 12.79236 20.23148 16.51192
#
# Velocity S-wave (km/s) = 2.65769 3.34228 3.01945
# Velocity P-wave (km/s) = 6.76521 7.27098 7.02265
#
# Compressibility (1/GPa) = 0.01518966
#
# Stress axis : x y z
#
# Youngs Moduli (GPa) = 45.44099 76.07805 98.42582
#
# Poissons Ratio (x) = 0.67086 0.46459
# Poissons Ratio (y) = 0.40070 0.14984
# Poissons Ratio (z) = 0.21449 0.11582
#
# Static dielectric constant tensor:
#      x y z
#    x 3.400380 0.000000 0.000000 
#    y 0.000000 3.106330 0.000000 
#    z 0.000000 0.000000 3.541250 
# 
# 
# High freq. dielectric constant tensor:
#      x y z
#    x 1.711170 0.000000 0.000000 
#    y 0.000000 1.680050 0.000000 
#    z 0.000000 0.000000 1.706580 
# 
# From -- ./inp_files/69987.got.cif
#   From: 2010.03.12/outbox.cif.g09.slc.cpg/sg65_35_cif.got.tgz:69987.got - 2010.04.10 20:52:16.
