data_PCOD8271925
_publ_section_title
;
Structure prediction by ZEFSAII (Michael W. Deem and Ramdas Pophale) SiO2 
 PCOD8271925
Probable space group: C M M M
;
_chemical_formula_sum "Si O2"
_cell_formula_units_Z 112
_cell_length_a 14.478776
_cell_length_b 27.797934
_cell_length_c 13.578998
_cell_angle_alpha 90.000000
_cell_angle_beta 90.000000
_cell_angle_gamma 90.000000
_cell_volume 5465.275925
_symmetry_space_group_name_H-M "C M M M"
_symmetry_group_IT_number 65
_symmetry_cell_setting 'orthorhombic'
loop_
_space_group_symop_operation_xyz
x,y,z
-x,-y,z
x,-y,-z
-x,y,-z
-x,-y,-z
x,y,-z
-x,y,z
x,-y,z
1/2+x,1/2+y,z
1/2-x,1/2-y,z
1/2+x,1/2-y,-z
1/2-x,1/2+y,-z
1/2-x,1/2-y,-z
1/2+x,1/2+y,-z
1/2-x,1/2+y,z
1/2+x,1/2-y,z
loop_
_atom_site_type_symbol
_atom_site_label
_atom_site_fract_x
_atom_site_fract_y
_atom_site_fract_z
Si Si1 0.900355 0.081150 0.189936
Si Si2 0.738972 0.850009 0.610585
Si Si3 0.708996 0.054403 0.888033
Si Si4 0.393342 0.685644 0.254529
Si Si5 0.392512 0.861507 0.780438
Si Si6 0.892034 0.266248 0.891543
Si Si7 0.336556 0.553585 0.607615
O O1 0.819021 0.055760 0.130422
O O2 0.884721 0.138415 0.186671
O O3 0.906933 0.063756 0.303775
O O4 0.000000 0.068283 0.142127
O O5 0.718183 0.831890 0.500000
O O6 0.828773 0.820782 0.649567
O O7 0.649954 0.841343 0.678725
O O8 0.754885 0.907474 0.613262
O O9 0.655423 0.089272 0.814356
O O10 0.675004 0.000000 0.868800
O O11 0.688154 0.069582 0.000000
O O12 0.500000 0.694398 0.287941
O O13 0.351289 0.729102 0.188807
O O14 0.500000 0.871202 0.763797
O O15 0.373211 0.821261 0.862393
O O16 0.000000 0.255628 0.895793
O O17 0.848373 0.257537 0.000000
O O18 0.386283 0.558150 0.500000
O O19 0.293770 0.500000 0.619630
#
# Coordination Sequence:
#
# PCOD8271925 Si02
#       7
#    16  16  16  16  16  16  16
#     4  10  20  35  56  84 123 162 193 230 285 357
#     4  10  21  38  58  87 123 158 196 241 295 356
#     4  11  24  41  60  85 119 157 199 245 298 361
#     4   9  18  36  60  89 123 157 193 234 288 354
#     4  11  23  42  64  86 115 151 201 258 308 353
#     4   9  19  37  62  90 119 152 195 250 303 350
#     4   9  17  31  54  82 113 151 195 242 288 334
#
# _framework density 20.493019
#
# number of rings (size 3 to 8) (size 9 to 14) (size 15 to 20)
#    0.000    2.143    2.857    0.857    0.000    4.571 
#    0.000    8.571    0.000    2.571    0.000    3.000 
#    0.000    0.000    0.000    0.000    0.000    0.000 
#
# Total GULP energy -694106.674712 kJ/mol
# GULP energy per Si atom -12394.762048 kJ/mol
# Density = 2.044638 g / cm^3
# Si number density = 20.493019 Si / 1000 Ang^3
#
#
#
# Elastic Constant Matrix: (Units=GPa)
#
#
# Indices 1 2 3 4 5 6 
#
# 1 97.4441 25.3564 48.4153 0.0000 0.0000 0.0000
# 2 25.3564 87.6604 41.5218 0.0000 0.0000 0.0000
# 3 48.4153 41.5218 128.0507 0.0000 0.0000 0.0000
# 4 0.0000 0.0000 0.0000 25.9953 0.0000 0.0000
# 5 0.0000 0.0000 0.0000 0.0000 13.6357 0.0000
# 6 0.0000 0.0000 0.0000 0.0000 0.0000 18.4467
#
#
#
# Elastic Compliance Matrix: (Units=1/GPa)
#
#
# Indices 1 2 3 4 5 6 
#
# 1 0.012840 -0.001671 -0.004313 0.000000 0.000000 0.000000
# 2 -0.001671 0.013695 -0.003809 0.000000 0.000000 0.000000
# 3 -0.004313 -0.003809 0.010675 0.000000 0.000000 0.000000
# 4 0.000000 0.000000 0.000000 0.038468 0.000000 0.000000
# 5 0.000000 0.000000 0.000000 0.000000 0.073337 0.000000
# 6 0.000000 0.000000 0.000000 0.000000 0.000000 0.054210
#
#
# Mechanical properties :
#
#
# Convention : Reuss Voigt Hill
#
# Bulk Modulus (GPa) = 56.73948 60.41579 58.57763
# Shear Modulus (GPa) = 21.86396 24.80632 23.33514
#
# Velocity S-wave (km/s) = 3.26988 3.48296 3.37810
# Velocity P-wave (km/s) = 6.48101 6.76165 6.62282
#
# Compressibility (1/GPa) = 0.01762441
#
# Stress axis : x y z
#
# Youngs Moduli (GPa) = 77.88160 73.01801 93.67544
#
# Poissons Ratio (x) = 0.12203 0.40401
# Poissons Ratio (y) = 0.13016 0.35680
# Poissons Ratio (z) = 0.33589 0.27812
#
# Static dielectric constant tensor:
#      x y z
#    x 3.503760 0.000000 0.000000 
#    y 0.000000 3.773100 0.000000 
#    z 0.000000 0.000000 3.831070 
# 
# 
# High freq. dielectric constant tensor:
#      x y z
#    x 1.776920 0.000000 0.000000 
#    y 0.000000 1.806420 0.000000 
#    z 0.000000 0.000000 1.796550 
# 
# From -- ./inp_files/41099.got.cif
#   From: 2010.03.12/outbox.cif.g09.slc.cpg/sg65_21_cif.got.tgz:41099.got - 2010.04.10 20:52:16.
