data_PCOD8271985
_publ_section_title
;
Structure prediction by ZEFSAII (Michael W. Deem and Ramdas Pophale) SiO2 
 PCOD8271985
Probable space group: C M M M
;
_chemical_formula_sum "Si O2"
_cell_formula_units_Z 80
_cell_length_a 8.578209
_cell_length_b 21.903632
_cell_length_c 21.922721
_cell_angle_alpha 90.000000
_cell_angle_beta 90.000000
_cell_angle_gamma 90.000000
_cell_volume 4119.146274
_symmetry_space_group_name_H-M "C M M M"
_symmetry_group_IT_number 65
_symmetry_cell_setting 'orthorhombic'
loop_
_space_group_symop_operation_xyz
x,y,z
-x,-y,z
x,-y,-z
-x,y,-z
-x,-y,-z
x,y,-z
-x,y,z
x,-y,z
1/2+x,1/2+y,z
1/2-x,1/2-y,z
1/2+x,1/2-y,-z
1/2-x,1/2+y,-z
1/2-x,1/2-y,-z
1/2+x,1/2+y,-z
1/2-x,1/2+y,z
1/2+x,1/2-y,z
loop_
_atom_site_type_symbol
_atom_site_label
_atom_site_fract_x
_atom_site_fract_y
_atom_site_fract_z
Si Si1 0.178990 0.569717 0.769843
Si Si2 0.173546 0.500000 0.070045
Si Si3 0.182435 0.069193 0.360488
Si Si4 0.183260 0.315014 0.000000
Si Si5 0.818800 0.118240 0.886157
Si Si6 0.183180 0.685837 0.430062
O O1 0.202297 0.500000 0.794655
O O2 0.282387 0.580011 0.710340
O O3 0.234348 0.619115 0.820081
O O4 0.000000 0.582099 0.752699
O O5 0.288714 0.446500 0.085341
O O6 0.000000 0.500000 0.103399
O O7 0.131466 0.500000 0.000000
O O8 0.261235 0.123702 0.397911
O O9 0.000000 0.073666 0.371864
O O10 0.240631 0.000000 0.379286
O O11 0.250000 0.250000 0.000000
O O12 0.244643 0.337712 0.064655
O O13 0.000000 0.323050 0.000000
O O14 0.000000 0.132789 0.877352
O O15 0.237329 0.680528 0.500000
O O16 0.250000 0.750000 0.402476
O O17 0.000000 0.689416 0.422792
#
# Coordination Sequence:
#
# PCOD8271985 Si02
#       6
#    16   8  16   8  16  16
#     4  10  20  35  57  84 118 154 190 233 287 344
#     4  11  21  33  53  83 114 142 177 226 281 332
#     4  10  21  37  58  87 124 161 200 245 297 354
#     4  12  26  45  62  79 108 146 190 236 288 348
#     4  12  23  36  58  85 113 145 184 231 284 341
#     4  10  21  38  61  88 119 157 202 249 298 352
#
# _framework density 19.421500000000002
#
# number of rings (size 3 to 8) (size 9 to 14) (size 15 to 20)
#    0.000    1.300    2.000    4.800    0.000    4.000 
#    0.000    3.000    0.000    0.000    0.000    0.000 
#    0.000    0.000    0.000    0.000    0.000    0.000 
#
# Total GULP energy -495587.880946 kJ/mol
# GULP energy per Si atom -12389.697024 kJ/mol
# Density = 1.937730 g / cm^3
# Si number density = 19.421500 Si / 1000 Ang^3
#
#
#
# Elastic Constant Matrix: (Units=GPa)
#
#
# Indices 1 2 3 4 5 6 
#
# 1 89.4288 33.6686 24.3401 0.0000 0.0000 0.0000
# 2 33.6686 139.8744 60.6342 0.0000 0.0000 0.0000
# 3 24.3401 60.6342 89.4025 0.0000 0.0000 0.0000
# 4 0.0000 0.0000 0.0000 -1.1202 0.0000 0.0000
# 5 0.0000 0.0000 0.0000 0.0000 34.9884 0.0000
# 6 0.0000 0.0000 0.0000 0.0000 0.0000 33.0608
#
#
#
# Elastic Compliance Matrix: (Units=1/GPa)
#
#
# Indices 1 2 3 4 5 6 
#
# 1 0.012528 -0.002177 -0.001934 0.000000 0.000000 0.000000
# 2 -0.002177 0.010505 -0.006532 0.000000 0.000000 0.000000
# 3 -0.001934 -0.006532 0.016142 0.000000 0.000000 0.000000
# 4 0.000000 0.000000 0.000000 -0.892702 0.000000 0.000000
# 5 0.000000 0.000000 0.000000 0.000000 0.028581 0.000000
# 6 0.000000 0.000000 0.000000 0.000000 0.000000 0.030247
#
#
# Mechanical properties :
#
#
# Convention : Reuss Voigt Hill
#
# Bulk Modulus (GPa) = 55.90166 61.77682 58.83924
# Shear Modulus (GPa) = -6.51508 26.72332 10.10412
#
# Velocity S-wave (km/s) = -1.83354 3.71343 2.28338
# Velocity P-wave (km/s) = 4.93593 7.08968 6.10848
#
# Compressibility (1/GPa) = 0.01788856
#
# Stress axis : x y z
#
# Youngs Moduli (GPa) = 79.81994 95.19470 61.95037
#
# Poissons Ratio (x) = 0.20725 0.11983
# Poissons Ratio (y) = 0.17378 0.40465
# Poissons Ratio (z) = 0.15439 0.62179
#
# Static dielectric constant tensor:
#      x y z
#    x 3.328280 0.000000 0.000000 
#    y 0.000000 3.614470 0.000000 
#    z 0.000000 0.000000 3.678300 
# 
# 
# High freq. dielectric constant tensor:
#      x y z
#    x 1.771500 0.000000 0.000000 
#    y 0.000000 1.745210 0.000000 
#    z 0.000000 0.000000 1.758650 
# 
# From -- ./inp_files/59616.got.cif
#   From: 2010.03.12/outbox.cif.g09.slc.cpg/sg65_30_cif.got.tgz:59616.got - 2010.04.10 20:52:16.
