data_PCOD8271549
_publ_section_title
;
Structure prediction by ZEFSAII (Michael W. Deem and Ramdas Pophale) SiO2 
 PCOD8271549
Probable space group: C M M M
;
_chemical_formula_sum "Si O2"
_cell_formula_units_Z 68
_cell_length_a 22.701097
_cell_length_b 13.918332
_cell_length_c 12.544635
_cell_angle_alpha 90.000000
_cell_angle_beta 90.000000
_cell_angle_gamma 90.000000
_cell_volume 3963.620497
_symmetry_space_group_name_H-M "C M M M"
_symmetry_group_IT_number 65
_symmetry_cell_setting 'orthorhombic'
loop_
_space_group_symop_operation_xyz
x,y,z
-x,-y,z
x,-y,-z
-x,y,-z
-x,-y,-z
x,y,-z
-x,y,z
x,-y,z
1/2+x,1/2+y,z
1/2-x,1/2-y,z
1/2+x,1/2-y,-z
1/2-x,1/2+y,-z
1/2-x,1/2-y,-z
1/2+x,1/2+y,-z
1/2-x,1/2+y,z
1/2+x,1/2-y,z
loop_
_atom_site_type_symbol
_atom_site_label
_atom_site_fract_x
_atom_site_fract_y
_atom_site_fract_z
Si Si1 0.193968 0.500000 0.193552
Si Si2 0.685672 0.710592 0.376880
Si Si3 0.877227 0.690630 0.192198
Si Si4 0.683391 0.291075 0.000000
Si Si5 0.000000 0.612665 0.127241
Si Si6 0.718721 0.500000 0.000000
Si Si7 0.780129 0.000000 0.378643
O O1 0.154058 0.409393 0.174894
O O2 0.244404 0.500000 0.107141
O O3 0.220558 0.500000 0.311352
O O4 0.673186 0.735119 0.500000
O O5 0.750000 0.750000 0.342472
O O6 0.635622 0.763220 0.307884
O O7 0.681957 0.595895 0.355233
O O8 0.945895 0.670626 0.177967
O O9 0.851799 0.761541 0.104302
O O10 0.750000 0.250000 0.000000
O O11 0.679393 0.405592 0.000000
O O12 0.000000 0.500000 0.160516
O O13 0.000000 0.621756 0.000000
O O14 0.757889 0.000000 0.500000
#
# Coordination Sequence:
#
# PCOD8271549 Si02
#       7
#     8  16  16   8   8   4   8
#     4  12  20  31  55  84 117 146 184 231 274 349
#     4  10  20  35  57  85 117 151 184 229 288 344
#     4  12  22  37  57  83 115 151 191 230 285 337
#     4  12  22  35  55  83 113 149 184 231 291 346
#     4  11  24  40  61  81 110 155 202 239 274 328
#     4  12  24  32  50  88 120 140 176 234 292 346
#     4  10  20  34  55  86 119 152 186 220 282 353
#
# _framework density 17.156032
#
# number of rings (size 3 to 8) (size 9 to 14) (size 15 to 20)
#    0.000    0.824    7.059    2.118    0.000    0.000 
#    0.000    0.588    0.000    4.235    0.000    2.471 
#    0.000    0.000    0.000    0.000    0.000    0.000 
#
# Total GULP energy -421660.895328 kJ/mol
# GULP energy per Si atom -12401.791039 kJ/mol
# Density = 1.711698 g / cm^3
# Si number density = 17.156032 Si / 1000 Ang^3
#
#
#
# Elastic Constant Matrix: (Units=GPa)
#
#
# Indices 1 2 3 4 5 6 
#
# 1 118.7008 57.7125 56.9016 0.0000 0.0000 0.0000
# 2 57.7125 150.2934 49.1253 0.0000 0.0000 0.0000
# 3 56.9016 49.1253 96.9512 0.0000 0.0000 0.0000
# 4 0.0000 0.0000 0.0000 27.2620 0.0000 0.0000
# 5 0.0000 0.0000 0.0000 0.0000 17.3225 0.0000
# 6 0.0000 0.0000 0.0000 0.0000 0.0000 31.0309
#
#
#
# Elastic Compliance Matrix: (Units=1/GPa)
#
#
# Indices 1 2 3 4 5 6 
#
# 1 0.012714 -0.002928 -0.005978 0.000000 0.000000 0.000000
# 2 -0.002928 0.008649 -0.002664 0.000000 0.000000 0.000000
# 3 -0.005978 -0.002664 0.015173 0.000000 0.000000 0.000000
# 4 0.000000 0.000000 0.000000 0.036681 0.000000 0.000000
# 5 0.000000 0.000000 0.000000 0.000000 0.057728 0.000000
# 6 0.000000 0.000000 0.000000 0.000000 0.000000 0.032226
#
#
# Mechanical properties :
#
#
# Convention : Reuss Voigt Hill
#
# Bulk Modulus (GPa) = 74.65308 77.04713 75.85011
# Shear Modulus (GPa) = 26.20868 28.60349 27.40608
#
# Velocity S-wave (km/s) = 3.91278 4.08763 4.00116
# Velocity P-wave (km/s) = 8.00136 8.20277 8.10269
#
# Compressibility (1/GPa) = 0.01339529
#
# Stress axis : x y z
#
# Youngs Moduli (GPa) = 78.65344 115.62400 65.90680
#
# Poissons Ratio (x) = 0.33856 0.39401
# Poissons Ratio (y) = 0.23030 0.17556
# Poissons Ratio (z) = 0.47021 0.30800
#
# Static dielectric constant tensor:
#      x y z
#    x 2.998360 0.000000 0.000000 
#    y 0.000000 3.537620 0.000000 
#    z 0.000000 0.000000 3.327400 
# 
# 
# High freq. dielectric constant tensor:
#      x y z
#    x 1.623090 0.000000 0.000000 
#    y 0.000000 1.682550 0.000000 
#    z 0.000000 0.000000 1.674780 
# 
# From -- ./inp_files/28393.got.cif
#   From: 2010.03.12/outbox.cif.g09.slc.cpg/sg65_15_cif.got.tgz:28393.got - 2010.04.10 20:52:16.
