data_PCOD8271791
_publ_section_title
;
Structure prediction by ZEFSAII (Michael W. Deem and Ramdas Pophale) SiO2 
 PCOD8271791
Probable space group: C M M M
;
_chemical_formula_sum "Si O2"
_cell_formula_units_Z 104
_cell_length_a 7.958040
_cell_length_b 28.251590
_cell_length_c 22.975573
_cell_angle_alpha 90.000000
_cell_angle_beta 90.000000
_cell_angle_gamma 90.000000
_cell_volume 5165.535659
_symmetry_space_group_name_H-M "C M M M"
_symmetry_group_IT_number 65
_symmetry_cell_setting 'orthorhombic'
loop_
_space_group_symop_operation_xyz
x,y,z
-x,-y,z
x,-y,-z
-x,y,-z
-x,-y,-z
x,y,-z
-x,y,z
x,-y,z
1/2+x,1/2+y,z
1/2-x,1/2-y,z
1/2+x,1/2-y,-z
1/2-x,1/2+y,-z
1/2-x,1/2-y,-z
1/2+x,1/2+y,-z
1/2-x,1/2+y,z
1/2+x,1/2-y,z
loop_
_atom_site_type_symbol
_atom_site_label
_atom_site_fract_x
_atom_site_fract_y
_atom_site_fract_z
Si Si1 0.194177 0.884714 0.752009
Si Si2 0.303393 0.698579 0.567089
Si Si3 0.198274 0.303993 0.829858
Si Si4 0.800955 0.946843 0.859642
Si Si5 0.500000 0.555885 0.566749
Si Si6 0.687339 0.106586 0.625171
Si Si7 0.803751 0.635131 0.936004
O O1 0.221162 0.831346 0.775210
O O2 0.260216 0.921699 0.800354
O O3 0.300163 0.894580 0.694588
O O4 0.000000 0.892546 0.736729
O O5 0.250141 0.693151 0.500000
O O6 0.500000 0.690063 0.575968
O O7 0.250000 0.750000 0.590372
O O8 0.203813 0.660536 0.604555
O O9 0.250000 0.250000 0.826557
O O10 0.270938 0.326983 0.889790
O O11 0.000000 0.310060 0.826858
O O12 0.732153 0.918258 0.914986
O O13 0.000000 0.946939 0.862031
O O14 0.728190 0.000000 0.861632
O O15 0.500000 0.500000 0.572255
O O16 0.500000 0.573187 0.500000
O O17 0.329957 0.574417 0.596149
O O18 0.500000 0.088213 0.608185
O O19 0.000000 0.643174 0.941155
O O20 0.721285 0.642767 0.000000
#
# Coordination Sequence:
#
# PCOD8271791 Si02
#       7
#    16  16  16  16   8  16  16
#     4  10  20  38  59  85 117 154 194 244 303 364
#     4  10  20  36  59  90 126 162 201 246 300 365
#     4  10  20  35  55  81 114 155 200 247 301 359
#     4   9  19  35  56  81 109 144 185 236 298 357
#     4  11  26  48  70  94 128 170 215 265 318 372
#     4  12  24  41  66  96 128 166 211 261 316 378
#     4   9  19  35  53  76 110 150 194 243 293 353
#
# _framework density 20.133438999999999
#
# number of rings (size 3 to 8) (size 9 to 14) (size 15 to 20)
#    0.000    1.923    1.538    1.846    0.000    5.846 
#    0.000    5.385    0.000    0.000    0.000    0.000 
#    0.000    0.000    0.000    0.000    0.000    0.000 
#
# Total GULP energy -644866.332050 kJ/mol
# GULP energy per Si atom -12401.275616 kJ/mol
# Density = 2.008761 g / cm^3
# Si number density = 20.133439 Si / 1000 Ang^3
#
#
#
# Elastic Constant Matrix: (Units=GPa)
#
#
# Indices 1 2 3 4 5 6 
#
# 1 85.5112 18.2577 34.3460 0.0000 0.0000 0.0000
# 2 18.2577 106.3944 33.2999 0.0000 0.0000 0.0000
# 3 34.3460 33.2999 116.7589 0.0000 0.0000 0.0000
# 4 0.0000 0.0000 0.0000 -126.5655 0.0000 0.0000
# 5 0.0000 0.0000 0.0000 0.0000 24.4065 0.0000
# 6 0.0000 0.0000 0.0000 0.0000 0.0000 27.7482
#
#
#
# Elastic Compliance Matrix: (Units=1/GPa)
#
#
# Indices 1 2 3 4 5 6 
#
# 1 0.013392 -0.001170 -0.003606 0.000000 0.000000 0.000000
# 2 -0.001170 0.010422 -0.002628 0.000000 0.000000 0.000000
# 3 -0.003606 -0.002628 0.010375 0.000000 0.000000 0.000000
# 4 0.000000 0.000000 0.000000 -0.007901 0.000000 0.000000
# 5 0.000000 0.000000 0.000000 0.000000 0.040973 0.000000
# 6 0.000000 0.000000 0.000000 0.000000 0.000000 0.036038
#
#
# Mechanical properties :
#
#
# Convention : Reuss Voigt Hill
#
# Bulk Modulus (GPa) = 51.59464 53.38575 52.49019
# Shear Modulus (GPa) = 40.13853 -0.03145 20.05354
#
# Velocity S-wave (km/s) = 4.46985 -0.12512 3.15942
# Velocity P-wave (km/s) = 7.23335 5.15293 6.27989
#
# Compressibility (1/GPa) = 0.01938186
#
# Stress axis : x y z
#
# Youngs Moduli (GPa) = 74.66887 95.94763 96.38517
#
# Poissons Ratio (x) = 0.11222 0.34756
# Poissons Ratio (y) = 0.08733 0.25334
# Poissons Ratio (z) = 0.26926 0.25219
#
# Static dielectric constant tensor:
#      x y z
#    x 3.611740 0.000000 0.000000 
#    y 0.000000 3.540910 0.000000 
#    z 0.000000 0.000000 3.850750 
# 
# 
# High freq. dielectric constant tensor:
#      x y z
#    x 1.785880 0.000000 0.000000 
#    y 0.000000 1.783590 0.000000 
#    z 0.000000 0.000000 1.787520 
# 
# From -- ./inp_files/60924.got.cif
#   From: 2010.03.12/outbox.cif.g09.slc.cpg/sg65_31_cif.got.tgz:60924.got - 2010.04.10 20:52:16.
