data_PCOD8271870
_publ_section_title
;
Structure prediction by ZEFSAII (Michael W. Deem and Ramdas Pophale) SiO2 
 PCOD8271870
Probable space group: C M M M
;
_chemical_formula_sum "Si O2"
_cell_formula_units_Z 104
_cell_length_a 29.434516
_cell_length_b 9.526072
_cell_length_c 20.012221
_cell_angle_alpha 90.000000
_cell_angle_beta 90.000000
_cell_angle_gamma 90.000000
_cell_volume 5611.333085
_symmetry_space_group_name_H-M "C M M M"
_symmetry_group_IT_number 65
_symmetry_cell_setting 'orthorhombic'
loop_
_space_group_symop_operation_xyz
x,y,z
-x,-y,z
x,-y,-z
-x,y,-z
-x,-y,-z
x,y,-z
-x,y,z
x,-y,z
1/2+x,1/2+y,z
1/2-x,1/2-y,z
1/2+x,1/2-y,-z
1/2-x,1/2+y,-z
1/2-x,1/2-y,-z
1/2+x,1/2+y,-z
1/2-x,1/2+y,z
1/2+x,1/2-y,z
loop_
_atom_site_type_symbol
_atom_site_label
_atom_site_fract_x
_atom_site_fract_y
_atom_site_fract_z
Si Si1 0.792237 0.841786 0.708662
Si Si2 0.633774 0.336702 0.814187
Si Si3 0.579525 0.839562 0.623853
Si Si4 0.000000 0.848660 0.575681
Si Si5 0.706486 0.662515 0.076332
Si Si6 0.447724 0.159737 0.223708
Si Si7 0.160697 0.158082 0.576198
O O1 0.750000 0.750000 0.732487
O O2 0.837990 0.793409 0.747479
O O3 0.797675 0.831487 0.628327
O O4 0.781099 0.000000 0.731106
O O5 0.621188 0.500000 0.812295
O O6 0.663276 0.296680 0.878989
O O7 0.586082 0.253841 0.820618
O O8 0.543497 0.743143 0.588642
O O9 0.571578 0.829668 0.702140
O O10 0.627271 0.779348 0.600100
O O11 0.575299 0.000000 0.599321
O O12 0.000000 0.891062 0.500000
O O13 0.000000 0.000000 0.615155
O O14 0.719031 0.500000 0.085435
O O15 0.750000 0.750000 0.100606
O O16 0.693919 0.698993 0.000000
O O17 0.500000 0.214754 0.220467
O O18 0.445845 0.000000 0.197948
O O19 0.177170 0.186283 0.500000
O O20 0.139342 0.000000 0.581351
#
# Coordination Sequence:
#
# PCOD8271870 Si02
#       7
#    16  16  16   8  16  16  16
#     4  10  21  35  52  76 103 135 177 221 264 317
#     4  10  20  35  56  82 110 143 181 219 263 314
#     4  11  21  35  53  74  99 129 170 222 276 327
#     4  11  23  35  49  71  99 133 170 213 272 337
#     4   9  18  33  55  86 122 153 182 217 259 311
#     4  10  21  37  55  78 107 138 175 222 274 321
#     4  10  21  37  53  70  98 135 174 219 270 324
#
# _framework density 18.533920999999999
#
# number of rings (size 3 to 8) (size 9 to 14) (size 15 to 20)
#    0.000    1.923    2.308    1.615    0.000    5.846 
#    0.000    0.000    0.000    0.462    0.000    3.231 
#    0.000    0.000    0.000    0.000    0.000    0.000 
#
# Total GULP energy -644588.101805 kJ/mol
# GULP energy per Si atom -12395.925035 kJ/mol
# Density = 1.849174 g / cm^3
# Si number density = 18.533921 Si / 1000 Ang^3
#
#
#
# Elastic Constant Matrix: (Units=GPa)
#
#
# Indices 1 2 3 4 5 6 
#
# 1 96.4990 58.4904 34.0159 0.0000 0.0000 0.0000
# 2 58.4904 101.7494 29.0004 0.0000 0.0000 0.0000
# 3 34.0159 29.0004 80.5670 0.0000 0.0000 0.0000
# 4 0.0000 0.0000 0.0000 18.9569 0.0000 0.0000
# 5 0.0000 0.0000 0.0000 0.0000 27.7757 0.0000
# 6 0.0000 0.0000 0.0000 0.0000 0.0000 40.1401
#
#
#
# Elastic Compliance Matrix: (Units=1/GPa)
#
#
# Indices 1 2 3 4 5 6 
#
# 1 0.017031 -0.008626 -0.004086 0.000000 0.000000 0.000000
# 2 -0.008626 0.015320 -0.001873 0.000000 0.000000 0.000000
# 3 -0.004086 -0.001873 0.014811 0.000000 0.000000 0.000000
# 4 0.000000 0.000000 0.000000 0.052751 0.000000 0.000000
# 5 0.000000 0.000000 0.000000 0.000000 0.036003 0.000000
# 6 0.000000 0.000000 0.000000 0.000000 0.000000 0.024913
#
#
# Mechanical properties :
#
#
# Convention : Reuss Voigt Hill
#
# Bulk Modulus (GPa) = 55.57390 57.98098 56.77744
# Shear Modulus (GPa) = 25.51063 27.86179 26.68621
#
# Velocity S-wave (km/s) = 3.71405 3.88143 3.79866
# Velocity P-wave (km/s) = 6.96005 7.17210 7.06687
#
# Compressibility (1/GPa) = 0.01799406
#
# Stress axis : x y z
#
# Youngs Moduli (GPa) = 58.71484 65.27230 67.51650
#
# Poissons Ratio (x) = 0.56304 0.27586
# Poissons Ratio (y) = 0.50647 0.12644
# Poissons Ratio (z) = 0.23990 0.12224
#
# Static dielectric constant tensor:
#      x y z
#    x 3.355970 0.000000 0.000000 
#    y 0.000000 3.507570 0.000000 
#    z 0.000000 0.000000 3.363020 
# 
# 
# High freq. dielectric constant tensor:
#      x y z
#    x 1.706430 0.000000 0.000000 
#    y 0.000000 1.725490 0.000000 
#    z 0.000000 0.000000 1.704260 
# 
# From -- ./inp_files/66399.got.cif
#   From: 2010.03.12/outbox.cif.g09.slc.cpg/sg65_34_cif.got.tgz:66399.got - 2010.04.10 20:52:16.
