data_PCOD8271435
_publ_section_title
;
Structure prediction by ZEFSAII (Michael W. Deem and Ramdas Pophale) SiO2 
 PCOD8271435
Probable space group: C M M M
;
_chemical_formula_sum "Si O2"
_cell_formula_units_Z 104
_cell_length_a 28.947048
_cell_length_b 8.877034
_cell_length_c 20.535202
_cell_angle_alpha 90.000000
_cell_angle_beta 90.000000
_cell_angle_gamma 90.000000
_cell_volume 5276.806195
_symmetry_space_group_name_H-M "C M M M"
_symmetry_group_IT_number 65
_symmetry_cell_setting 'orthorhombic'
loop_
_space_group_symop_operation_xyz
x,y,z
-x,-y,z
x,-y,-z
-x,y,-z
-x,-y,-z
x,y,-z
-x,y,z
x,-y,z
1/2+x,1/2+y,z
1/2-x,1/2-y,z
1/2+x,1/2-y,-z
1/2-x,1/2+y,-z
1/2-x,1/2-y,-z
1/2+x,1/2+y,-z
1/2-x,1/2+y,z
1/2+x,1/2-y,z
loop_
_atom_site_type_symbol
_atom_site_label
_atom_site_fract_x
_atom_site_fract_y
_atom_site_fract_z
Si Si1 0.702188 0.823710 0.319371
Si Si2 0.446681 0.827617 0.231695
Si Si3 0.111279 0.177481 0.876681
Si Si4 0.700980 0.822440 0.829150
Si Si5 0.631688 0.825614 0.427758
Si Si6 0.447816 0.671955 0.366564
Si Si7 0.552652 0.678973 0.000000
O O1 0.750000 0.750000 0.338816
O O2 0.687666 0.780931 0.245589
O O3 0.665353 0.762593 0.371543
O O4 0.708578 0.000000 0.326779
O O5 0.500000 0.809152 0.211837
O O6 0.416641 0.718306 0.187680
O O7 0.438307 0.779272 0.305372
O O8 0.429919 0.000000 0.223375
O O9 0.161415 0.256526 0.876202
O O10 0.119252 0.000000 0.880538
O O11 0.080983 0.237116 0.937381
O O12 0.750000 0.750000 0.848278
O O13 0.704733 0.000000 0.839487
O O14 0.653127 0.801968 0.500000
O O15 0.584815 0.728997 0.424411
O O16 0.620184 0.000000 0.415567
O O17 0.500000 0.688984 0.391547
O O18 0.437101 0.500000 0.347141
O O19 0.549849 0.500000 0.000000
O O20 0.500000 0.744411 0.000000
#
# Coordination Sequence:
#
# PCOD8271435 Si02
#       7
#    16  16  16  16  16  16   8
#     4   9  19  35  55  79 107 138 174 220 271 324
#     4  10  20  34  54  81 111 142 179 226 280 335
#     4  11  21  35  58  85 114 150 190 229 274 327
#     4  10  20  36  58  84 113 144 184 234 285 333
#     4  10  21  36  53  75 106 144 182 219 268 333
#     4  10  21  36  54  77 104 136 179 231 282 330
#     4   9  20  38  58  83 118 157 192 227 270 323
#
# _framework density 19.70889
#
# number of rings (size 3 to 8) (size 9 to 14) (size 15 to 20)
#    0.000    2.077    0.000    3.231    0.000    5.846 
#    0.000    3.462    0.000    2.769    0.000    0.000 
#    0.000    0.000    0.000    0.000    0.000    0.000 
#
# Total GULP energy -644887.465551 kJ/mol
# GULP energy per Si atom -12401.682030 kJ/mol
# Density = 1.966403 g / cm^3
# Si number density = 19.708890 Si / 1000 Ang^3
#
#
#
# Elastic Constant Matrix: (Units=GPa)
#
#
# Indices 1 2 3 4 5 6 
#
# 1 138.3136 49.4258 68.9383 0.0000 0.0000 0.0000
# 2 49.4258 64.5661 25.9629 0.0000 0.0000 0.0000
# 3 68.9383 25.9629 72.4903 0.0000 0.0000 0.0000
# 4 0.0000 0.0000 0.0000 19.0436 0.0000 0.0000
# 5 0.0000 0.0000 0.0000 0.0000 29.4875 0.0000
# 6 0.0000 0.0000 0.0000 0.0000 0.0000 37.9038
#
#
#
# Elastic Compliance Matrix: (Units=1/GPa)
#
#
# Indices 1 2 3 4 5 6 
#
# 1 0.016212 -0.007256 -0.012819 0.000000 0.000000 0.000000
# 2 -0.007256 0.021341 -0.000743 0.000000 0.000000 0.000000
# 3 -0.012819 -0.000743 0.026252 0.000000 0.000000 0.000000
# 4 0.000000 0.000000 0.000000 0.052511 0.000000 0.000000
# 5 0.000000 0.000000 0.000000 0.000000 0.033913 0.000000
# 6 0.000000 0.000000 0.000000 0.000000 0.000000 0.026383
#
#
# Mechanical properties :
#
#
# Convention : Reuss Voigt Hill
#
# Bulk Modulus (GPa) = 45.10747 62.66932 53.88840
# Shear Modulus (GPa) = 22.15948 26.02316 24.09132
#
# Velocity S-wave (km/s) = 3.35675 3.63764 3.50002
# Velocity P-wave (km/s) = 6.16119 7.03632 6.61325
#
# Compressibility (1/GPa) = 0.02216928
#
# Stress axis : x y z
#
# Youngs Moduli (GPa) = 61.68300 46.85769 38.09244
#
# Poissons Ratio (x) = 0.33999 0.48830
# Poissons Ratio (y) = 0.44755 0.02831
# Poissons Ratio (z) = 0.79071 0.03483
#
# Static dielectric constant tensor:
#      x y z
#    x 3.733850 0.000000 0.000000 
#    y 0.000000 3.478740 0.000000 
#    z 0.000000 0.000000 3.519530 
# 
# 
# High freq. dielectric constant tensor:
#      x y z
#    x 1.776030 0.000000 0.000000 
#    y 0.000000 1.764320 0.000000 
#    z 0.000000 0.000000 1.754080 
# 
# From -- ./inp_files/66313.got.cif
#   From: 2010.03.12/outbox.cif.g09.slc.cpg/sg65_34_cif.got.tgz:66313.got - 2010.04.10 20:52:16.
