data_PCOD8271824
_publ_section_title
;
Structure prediction by ZEFSAII (Michael W. Deem and Ramdas Pophale) SiO2 
 PCOD8271824
Probable space group: C M M M
;
_chemical_formula_sum "Si O2"
_cell_formula_units_Z 56
_cell_length_a 28.423120
_cell_length_b 8.810194
_cell_length_c 12.594080
_cell_angle_alpha 90.000000
_cell_angle_beta 90.000000
_cell_angle_gamma 90.000000
_cell_volume 3153.723890
_symmetry_space_group_name_H-M "C M M M"
_symmetry_group_IT_number 65
_symmetry_cell_setting 'orthorhombic'
loop_
_space_group_symop_operation_xyz
x,y,z
-x,-y,z
x,-y,-z
-x,y,-z
-x,-y,-z
x,y,-z
-x,y,z
x,-y,z
1/2+x,1/2+y,z
1/2-x,1/2-y,z
1/2+x,1/2-y,-z
1/2-x,1/2+y,-z
1/2-x,1/2-y,-z
1/2+x,1/2+y,-z
1/2-x,1/2+y,z
1/2+x,1/2-y,z
loop_
_atom_site_type_symbol
_atom_site_label
_atom_site_fract_x
_atom_site_fract_y
_atom_site_fract_z
Si Si1 0.554266 0.174077 0.877855
Si Si2 0.391952 0.678061 0.694507
Si Si3 0.555675 0.825921 0.500000
Si Si4 0.701024 0.822957 0.623361
O O1 0.500000 0.216945 0.859597
O O2 0.586284 0.285091 0.808828
O O3 0.562958 0.000000 0.843572
O O4 0.568294 0.198146 0.000000
O O5 0.388686 0.500000 0.676924
O O6 0.425009 0.747566 0.604721
O O7 0.339934 0.747308 0.691636
O O8 0.500000 0.811607 0.500000
O O9 0.572558 0.000000 0.500000
O O10 0.690775 0.789319 0.500000
O O11 0.750000 0.750000 0.659408
O O12 0.703054 0.000000 0.647781
#
# Coordination Sequence:
#
# PCOD8271824 Si02
#       4
#    16  16   8  16
#     4   9  19  37  59  80 105 143 189 230 269 319
#     4  12  23  34  53  81 113 144 178 222 273 326
#     4  11  23  37  52  73 106 147 185 221 267 323
#     4  10  20  35  56  79 108 143 181 223 268 321
#
# _framework density 17.756784
#
# number of rings (size 3 to 8) (size 9 to 14) (size 15 to 20)
#    0.000    1.571    1.429    5.571    0.000    6.857 
#    0.000    1.429    0.000    0.857    0.000    0.000 
#    0.000    0.000    0.000    0.000    0.000    0.000 
#
# Total GULP energy -347360.430008 kJ/mol
# GULP energy per Si atom -12405.729643 kJ/mol
# Density = 1.771637 g / cm^3
# Si number density = 17.756784 Si / 1000 Ang^3
#
#
#
# Elastic Constant Matrix: (Units=GPa)
#
#
# Indices 1 2 3 4 5 6 
#
# 1 112.6913 63.5608 51.1420 0.0000 0.0000 0.0000
# 2 63.5608 124.6466 42.4728 0.0000 0.0000 0.0000
# 3 51.1420 42.4728 80.2181 0.0000 0.0000 0.0000
# 4 0.0000 0.0000 0.0000 22.3564 0.0000 0.0000
# 5 0.0000 0.0000 0.0000 0.0000 22.1860 0.0000
# 6 0.0000 0.0000 0.0000 0.0000 0.0000 34.1724
#
#
#
# Elastic Compliance Matrix: (Units=1/GPa)
#
#
# Indices 1 2 3 4 5 6 
#
# 1 0.014913 -0.005326 -0.006688 0.000000 0.000000 0.000000
# 2 -0.005326 0.011691 -0.002795 0.000000 0.000000 0.000000
# 3 -0.006688 -0.002795 0.018209 0.000000 0.000000 0.000000
# 4 0.000000 0.000000 0.000000 0.044730 0.000000 0.000000
# 5 0.000000 0.000000 0.000000 0.000000 0.045074 0.000000
# 6 0.000000 0.000000 0.000000 0.000000 0.000000 0.029263
#
#
# Mechanical properties :
#
#
# Convention : Reuss Voigt Hill
#
# Bulk Modulus (GPa) = 65.80259 70.21191 68.00725
# Shear Modulus (GPa) = 25.18129 26.43498 25.80813
#
# Velocity S-wave (km/s) = 3.76988 3.86259 3.81652
# Velocity P-wave (km/s) = 7.48916 7.71489 7.60286
#
# Compressibility (1/GPa) = 0.01519697
#
# Stress axis : x y z
#
# Youngs Moduli (GPa) = 67.05766 85.53914 54.91729
#
# Poissons Ratio (x) = 0.45554 0.36726
# Poissons Ratio (y) = 0.35712 0.15347
# Poissons Ratio (z) = 0.44845 0.23904
#
# Static dielectric constant tensor:
#      x y z
#    x 3.341100 0.000000 0.000000 
#    y 0.000000 3.364660 0.000000 
#    z 0.000000 0.000000 3.168530 
# 
# 
# High freq. dielectric constant tensor:
#      x y z
#    x 1.692640 0.000000 0.000000 
#    y 0.000000 1.697420 0.000000 
#    z 0.000000 0.000000 1.668800 
# 
# From -- ./inp_files/20466.got.cif
#   From: 2010.03.12/outbox.cif.g09.slc.cpg/sg65_11_cif.got.tgz:20466.got - 2010.04.10 20:52:16.
