data_PCOD8271594
_publ_section_title
;
Structure prediction by ZEFSAII (Michael W. Deem and Ramdas Pophale) SiO2 
 PCOD8271594
Probable space group: C M M M
;
_chemical_formula_sum "Si O2"
_cell_formula_units_Z 104
_cell_length_a 25.295359
_cell_length_b 9.391040
_cell_length_c 24.257585
_cell_angle_alpha 90.000000
_cell_angle_beta 90.000000
_cell_angle_gamma 90.000000
_cell_volume 5762.382723
_symmetry_space_group_name_H-M "C M M M"
_symmetry_group_IT_number 65
_symmetry_cell_setting 'orthorhombic'
loop_
_space_group_symop_operation_xyz
x,y,z
-x,-y,z
x,-y,-z
-x,y,-z
-x,-y,-z
x,y,-z
-x,y,z
x,-y,z
1/2+x,1/2+y,z
1/2-x,1/2-y,z
1/2+x,1/2-y,-z
1/2-x,1/2+y,-z
1/2-x,1/2-y,-z
1/2+x,1/2+y,-z
1/2-x,1/2+y,z
1/2+x,1/2-y,z
loop_
_atom_site_type_symbol
_atom_site_label
_atom_site_fract_x
_atom_site_fract_y
_atom_site_fract_z
Si Si1 0.884274 0.331316 0.402011
Si Si2 0.500000 0.168920 0.563308
Si Si3 0.900750 0.164963 0.884058
Si Si4 0.939788 0.831026 0.000000
Si Si5 0.200584 0.167477 0.188190
Si Si6 0.693343 0.830392 0.500000
Si Si7 0.557402 0.155796 0.794334
Si Si8 0.649844 0.167401 0.717377
O O1 0.889405 0.500000 0.402629
O O2 0.842555 0.281866 0.448277
O O3 0.857311 0.279313 0.345128
O O4 0.944681 0.271041 0.410012
O O5 0.500000 0.217217 0.500000
O O6 0.500000 0.000000 0.568355
O O7 0.844173 0.199357 0.857156
O O8 0.944128 0.240462 0.846445
O O9 0.913877 0.000000 0.882452
O O10 0.907011 0.222940 0.946505
O O11 0.000000 0.770731 0.000000
O O12 0.942145 0.000000 0.000000
O O13 0.250000 0.250000 0.162120
O O14 0.191545 0.237389 0.248737
O O15 0.210669 0.000000 0.195796
O O16 0.750000 0.750000 0.500000
O O17 0.704082 0.000000 0.500000
O O18 0.500000 0.152382 0.767173
O O19 0.594311 0.205123 0.745153
O O20 0.574936 0.000000 0.815848
O O21 0.665141 0.000000 0.720712
#
# Coordination Sequence:
#
# PCOD8271594 Si02
#       8
#    16   8  16   8  16   8  16  16
#     4   9  17  29  48  75 104 130 165 208 254 301
#     4   9  14  24  46  76 106 134 162 207 256 299
#     4   9  18  32  50  72  96 126 165 204 239 283
#     4   9  16  28  50  77 101 127 161 199 236 281
#     4  10  20  35  54  73  96 129 167 207 252 296
#     4  10  20  35  51  71  97 128 165 208 254 300
#     4   9  17  28  43  67 100 132 159 192 237 285
#     4   9  18  31  48  73 102 129 160 200 242 293
#
# _framework density 18.048089000000001
#
# number of rings (size 3 to 8) (size 9 to 14) (size 15 to 20)
#    0.000    2.769    0.769    0.923    1.077    2.154 
#    0.000    3.077    0.000    1.385    0.000    2.154 
#    0.000    0.000    0.000    0.000    0.000    0.000 
#
# Total GULP energy -644237.028040 kJ/mol
# GULP energy per Si atom -12389.173616 kJ/mol
# Density = 1.800701 g / cm^3
# Si number density = 18.048089 Si / 1000 Ang^3
#
#
#
# Elastic Constant Matrix: (Units=GPa)
#
#
# Indices 1 2 3 4 5 6 
#
# 1 108.1697 33.0475 49.8334 0.0000 0.0000 0.0000
# 2 33.0475 41.0512 32.0565 0.0000 0.0000 0.0000
# 3 49.8334 32.0565 142.4268 0.0000 0.0000 0.0000
# 4 0.0000 0.0000 0.0000 18.9768 0.0000 0.0000
# 5 0.0000 0.0000 0.0000 0.0000 13.8917 0.0000
# 6 0.0000 0.0000 0.0000 0.0000 0.0000 21.0332
#
#
#
# Elastic Compliance Matrix: (Units=1/GPa)
#
#
# Indices 1 2 3 4 5 6 
#
# 1 0.013047 -0.008418 -0.002670 0.000000 0.000000 0.000000
# 2 -0.008418 0.034985 -0.004929 0.000000 0.000000 0.000000
# 3 -0.002670 -0.004929 0.009065 0.000000 0.000000 0.000000
# 4 0.000000 0.000000 0.000000 0.052696 0.000000 0.000000
# 5 0.000000 0.000000 0.000000 0.000000 0.071986 0.000000
# 6 0.000000 0.000000 0.000000 0.000000 0.000000 0.047544
#
#
# Mechanical properties :
#
#
# Convention : Reuss Voigt Hill
#
# Bulk Modulus (GPa) = 39.89978 57.94694 48.92336
# Shear Modulus (GPa) = 18.53839 22.56103 20.54971
#
# Velocity S-wave (km/s) = 3.20842 3.53944 3.37799
# Velocity P-wave (km/s) = 5.99006 6.99144 6.51003
#
# Compressibility (1/GPa) = 0.02506280
#
# Stress axis : x y z
#
# Youngs Moduli (GPa) = 76.64787 28.58337 110.31651
#
# Poissons Ratio (x) = 0.24061 0.29457
# Poissons Ratio (y) = 0.64521 0.54375
# Poissons Ratio (z) = 0.20467 0.14089
#
# Static dielectric constant tensor:
#      x y z
#    x 3.447510 0.000000 0.000000 
#    y 0.000000 3.063040 0.000000 
#    z 0.000000 0.000000 3.569270 
# 
# 
# High freq. dielectric constant tensor:
#      x y z
#    x 1.705860 0.000000 0.000000 
#    y 0.000000 1.660380 0.000000 
#    z 0.000000 0.000000 1.698150 
# 
# From -- ./inp_files/71931.got.cif
#   From: 2010.03.12/outbox.cif.g09.slc.cpg/sg65_36_cif.got.tgz:71931.got - 2010.04.10 20:52:16.
