data_PCOD8271956
_publ_section_title
;
Structure prediction by ZEFSAII (Michael W. Deem and Ramdas Pophale) SiO2 
 PCOD8271956
Probable space group: C M M M
;
_chemical_formula_sum "Si O2"
_cell_formula_units_Z 88
_cell_length_a 17.013412
_cell_length_b 28.872752
_cell_length_c 8.258259
_cell_angle_alpha 90.000000
_cell_angle_beta 90.000000
_cell_angle_gamma 90.000000
_cell_volume 4056.655228
_symmetry_space_group_name_H-M "C M M M"
_symmetry_group_IT_number 65
_symmetry_cell_setting 'orthorhombic'
loop_
_space_group_symop_operation_xyz
x,y,z
-x,-y,z
x,-y,-z
-x,y,-z
-x,-y,-z
x,y,-z
-x,y,z
x,-y,z
1/2+x,1/2+y,z
1/2-x,1/2-y,z
1/2+x,1/2-y,-z
1/2-x,1/2+y,-z
1/2-x,1/2-y,-z
1/2+x,1/2+y,-z
1/2-x,1/2+y,z
1/2+x,1/2-y,z
loop_
_atom_site_type_symbol
_atom_site_label
_atom_site_fract_x
_atom_site_fract_y
_atom_site_fract_z
Si Si1 0.588774 0.767103 0.687954
Si Si2 0.665428 0.680332 0.187609
Si Si3 0.409283 0.402062 0.676969
Si Si4 0.592788 0.447054 0.000000
Si Si5 0.410965 0.051175 0.807664
Si Si6 0.334982 0.855340 0.808441
O O1 0.603799 0.759877 0.500000
O O2 0.500000 0.753642 0.737106
O O3 0.651261 0.734788 0.783299
O O4 0.601522 0.820365 0.734734
O O5 0.601107 0.652779 0.294167
O O6 0.749763 0.662184 0.249650
O O7 0.653724 0.668619 0.000000
O O8 0.373414 0.416369 0.500000
O O9 0.500000 0.415463 0.672917
O O10 0.368856 0.426919 0.833514
O O11 0.614560 0.500000 0.000000
O O12 0.500000 0.436876 0.000000
O O13 0.500000 0.060163 0.746481
O O14 0.354304 0.092606 0.743315
O O15 0.382444 0.000000 0.746346
O O16 0.409943 0.051487 0.000000
O O17 0.342004 0.853432 0.000000
#
# Coordination Sequence:
#
# PCOD8271956 Si02
#       6
#    16  16  16   8  16  16
#     4  11  24  39  56  81 111 149 198 246 297 358
#     4  11  22  36  55  81 117 154 196 242 295 357
#     4  10  20  35  57  83 112 151 199 250 304 362
#     4   9  18  34  56  82 111 144 189 249 309 362
#     4   8  14  28  54  85 113 144 185 231 280 339
#     4  10  21  36  56  84 119 150 189 238 295 357
#
# _framework density 21.692748999999999
#
# number of rings (size 3 to 8) (size 9 to 14) (size 15 to 20)
#    0.000    2.091    0.909    3.273    0.000    8.364 
#    0.000    2.727    0.000    0.545    0.000    2.545 
#    0.000    0.000    0.000    0.000    0.000    0.000 
#
# Total GULP energy -545327.628136 kJ/mol
# GULP energy per Si atom -12393.809730 kJ/mol
# Density = 2.164338 g / cm^3
# Si number density = 21.692749 Si / 1000 Ang^3
#
#
#
# Elastic Constant Matrix: (Units=GPa)
#
#
# Indices 1 2 3 4 5 6 
#
# 1 76.8085 56.7832 26.0483 0.0000 0.0000 0.0000
# 2 56.7832 165.8019 44.0577 0.0000 0.0000 0.0000
# 3 26.0483 44.0577 106.2008 0.0000 0.0000 0.0000
# 4 0.0000 0.0000 0.0000 9.0971 0.0000 0.0000
# 5 0.0000 0.0000 0.0000 0.0000 16.3820 0.0000
# 6 0.0000 0.0000 0.0000 0.0000 0.0000 28.1841
#
#
#
# Elastic Compliance Matrix: (Units=1/GPa)
#
#
# Indices 1 2 3 4 5 6 
#
# 1 0.017828 -0.005556 -0.002068 0.000000 0.000000 0.000000
# 2 -0.005556 0.008510 -0.002168 0.000000 0.000000 0.000000
# 3 -0.002068 -0.002168 0.010823 0.000000 0.000000 0.000000
# 4 0.000000 0.000000 0.000000 0.109925 0.000000 0.000000
# 5 0.000000 0.000000 0.000000 0.000000 0.061042 0.000000
# 6 0.000000 0.000000 0.000000 0.000000 0.000000 0.035481
#
#
# Mechanical properties :
#
#
# Convention : Reuss Voigt Hill
#
# Bulk Modulus (GPa) = 56.89062 66.95438 61.92250
# Shear Modulus (GPa) = 18.58378 25.52745 22.05562
#
# Velocity S-wave (km/s) = 2.93009 3.43413 3.19208
# Velocity P-wave (km/s) = 6.14246 6.83054 6.49562
#
# Compressibility (1/GPa) = 0.01757759
#
# Stress axis : x y z
#
# Youngs Moduli (GPa) = 56.09047 117.50608 92.39959
#
# Poissons Ratio (x) = 0.65290 0.19106
# Poissons Ratio (y) = 0.31166 0.20029
# Poissons Ratio (z) = 0.11598 0.25471
#
# Static dielectric constant tensor:
#      x y z
#    x 3.711050 0.000000 0.000000 
#    y 0.000000 4.117300 0.000000 
#    z 0.000000 0.000000 3.918590 
# 
# 
# High freq. dielectric constant tensor:
#      x y z
#    x 1.824850 0.000000 0.000000 
#    y 0.000000 1.858170 0.000000 
#    z 0.000000 0.000000 1.838910 
# 
# From -- ./inp_files/10046.got.cif
#   From: 2010.03.12/outbox.cif.g09.slc.cpg/sg65_6_cif.got.tgz:10046.got - 2010.04.10 20:52:16.
