data_PCOD8271554
_publ_section_title
;
Structure prediction by ZEFSAII (Michael W. Deem and Ramdas Pophale) SiO2 
 PCOD8271554
Probable space group: C M M M
;
_chemical_formula_sum "Si O2"
_cell_formula_units_Z 96
_cell_length_a 19.427208
_cell_length_b 17.011828
_cell_length_c 15.767873
_cell_angle_alpha 90.000000
_cell_angle_beta 90.000000
_cell_angle_gamma 90.000000
_cell_volume 5211.160945
_symmetry_space_group_name_H-M "C M M M"
_symmetry_group_IT_number 65
_symmetry_cell_setting 'orthorhombic'
loop_
_space_group_symop_operation_xyz
x,y,z
-x,-y,z
x,-y,-z
-x,y,-z
-x,-y,-z
x,y,-z
-x,y,z
x,-y,z
1/2+x,1/2+y,z
1/2-x,1/2-y,z
1/2+x,1/2-y,-z
1/2-x,1/2+y,-z
1/2-x,1/2-y,-z
1/2+x,1/2+y,-z
1/2-x,1/2+y,z
1/2+x,1/2-y,z
loop_
_atom_site_type_symbol
_atom_site_label
_atom_site_fract_x
_atom_site_fract_y
_atom_site_fract_z
Si Si1 0.080134 0.802017 0.267480
Si Si2 0.769358 0.158353 0.000000
Si Si3 0.171326 0.274141 0.403733
Si Si4 0.076566 0.360104 0.177964
Si Si5 0.679554 0.406552 0.173172
Si Si6 0.692540 0.086471 0.285913
Si Si7 0.879543 0.407883 0.000000
O O1 0.121726 0.786699 0.354741
O O2 0.092781 0.728676 0.205711
O O3 0.109686 0.878448 0.219284
O O4 0.000000 0.816131 0.288569
O O5 0.750000 0.250000 0.000000
O O6 0.813613 0.137002 0.916928
O O7 0.702068 0.104115 0.000000
O O8 0.144739 0.277642 0.500000
O O9 0.250000 0.250000 0.398383
O O10 0.168210 0.360792 0.364114
O O11 0.129379 0.420322 0.220538
O O12 0.000000 0.384504 0.205905
O O13 0.084700 0.364728 0.077892
O O14 0.677757 0.500000 0.159745
O O15 0.742299 0.379719 0.234171
O O16 0.709727 0.000000 0.321490
O O17 0.896344 0.500000 0.000000
#
# Coordination Sequence:
#
# PCOD8271554 Si02
#       7
#    16   8  16  16  16  16   8
#     4  10  22  40  61  84 112 150 198 243 291 350
#     4  12  24  35  58  85 116 156 199 254 294 339
#     4  10  20  36  61  88 116 147 186 236 292 353
#     4  10  21  34  51  78 113 152 191 235 286 342
#     4  11  22  38  58  85 117 154 199 246 297 348
#     4  10  20  34  56  82 116 153 189 234 286 354
#     4  12  21  32  50  77 113 149 190 236 285 340
#
# _framework density 18.421997999999999
#
# number of rings (size 3 to 8) (size 9 to 14) (size 15 to 20)
#    0.000    1.500    3.333    2.500    2.333    2.667 
#    0.000    1.250    0.000    1.500    0.000    5.833 
#    0.000    0.000    0.000    0.000    0.000    0.000 
#
# Total GULP energy -595271.630868 kJ/mol
# GULP energy per Si atom -12401.492310 kJ/mol
# Density = 1.838007 g / cm^3
# Si number density = 18.421998 Si / 1000 Ang^3
#
#
#
# Elastic Constant Matrix: (Units=GPa)
#
#
# Indices 1 2 3 4 5 6 
#
# 1 109.5453 24.8452 45.4489 0.0000 0.0000 0.0000
# 2 24.8452 73.4633 49.9201 0.0000 0.0000 0.0000
# 3 45.4489 49.9201 132.3890 0.0000 0.0000 0.0000
# 4 0.0000 0.0000 0.0000 16.0062 0.0000 0.0000
# 5 0.0000 0.0000 0.0000 0.0000 7.3739 0.0000
# 6 0.0000 0.0000 0.0000 0.0000 0.0000 20.8294
#
#
#
# Elastic Compliance Matrix: (Units=1/GPa)
#
#
# Indices 1 2 3 4 5 6 
#
# 1 0.010769 -0.001519 -0.003124 0.000000 0.000000 0.000000
# 2 -0.001519 0.018516 -0.006460 0.000000 0.000000 0.000000
# 3 -0.003124 -0.006460 0.011062 0.000000 0.000000 0.000000
# 4 0.000000 0.000000 0.000000 0.062476 0.000000 0.000000
# 5 0.000000 0.000000 0.000000 0.000000 0.135614 0.000000
# 6 0.000000 0.000000 0.000000 0.000000 0.000000 0.048009
#
#
# Mechanical properties :
#
#
# Convention : Reuss Voigt Hill
#
# Bulk Modulus (GPa) = 55.12707 61.75841 58.44274
# Shear Modulus (GPa) = 15.88812 21.85411 18.87111
#
# Velocity S-wave (km/s) = 2.93994 3.44801 3.20406
# Velocity P-wave (km/s) = 6.44313 7.03198 6.74399
#
# Compressibility (1/GPa) = 0.01813991
#
# Stress axis : x y z
#
# Youngs Moduli (GPa) = 92.85550 54.00746 90.39911
#
# Poissons Ratio (x) = 0.08205 0.28243
# Poissons Ratio (y) = 0.14106 0.58401
# Poissons Ratio (z) = 0.29011 0.34890
#
# Static dielectric constant tensor:
#      x y z
#    x 3.421650 0.000000 0.000000 
#    y 0.000000 3.240530 0.000000 
#    z 0.000000 0.000000 3.433330 
# 
# 
# High freq. dielectric constant tensor:
#      x y z
#    x 1.713810 0.000000 0.000000 
#    y 0.000000 1.709910 0.000000 
#    z 0.000000 0.000000 1.709750 
# 
# From -- ./inp_files/44151.got.cif
#   From: 2010.03.12/outbox.cif.g09.slc.cpg/sg65_23_cif.got.tgz:44151.got - 2010.04.10 20:52:16.
