data_PCOD8271351
_publ_section_title
;
Structure prediction by ZEFSAII (Michael W. Deem and Ramdas Pophale) SiO2 
 PCOD8271351
Probable space group: C M M M
;
_chemical_formula_sum "Si O2"
_cell_formula_units_Z 80
_cell_length_a 19.636020
_cell_length_b 9.037050
_cell_length_c 25.114415
_cell_angle_alpha 90.000000
_cell_angle_beta 90.000000
_cell_angle_gamma 90.000000
_cell_volume 4456.595499
_symmetry_space_group_name_H-M "C M M M"
_symmetry_group_IT_number 65
_symmetry_cell_setting 'orthorhombic'
loop_
_space_group_symop_operation_xyz
x,y,z
-x,-y,z
x,-y,-z
-x,y,-z
-x,-y,-z
x,y,-z
-x,y,z
x,-y,z
1/2+x,1/2+y,z
1/2-x,1/2-y,z
1/2+x,1/2-y,-z
1/2-x,1/2+y,-z
1/2-x,1/2-y,-z
1/2+x,1/2+y,-z
1/2-x,1/2+y,z
1/2+x,1/2-y,z
loop_
_atom_site_type_symbol
_atom_site_label
_atom_site_fract_x
_atom_site_fract_y
_atom_site_fract_z
Si Si1 0.580058 0.172273 0.138885
Si Si2 0.681055 0.173697 0.560100
Si Si3 0.580948 0.666932 0.244710
Si Si4 0.180892 0.171617 0.062443
Si Si5 0.078076 0.326799 0.349963
O O1 0.500000 0.199953 0.131830
O O2 0.607487 0.240836 0.194151
O O3 0.616620 0.253272 0.090322
O O4 0.598222 0.000000 0.138475
O O5 0.662530 0.223626 0.500000
O O6 0.750000 0.250000 0.579921
O O7 0.619836 0.224156 0.598263
O O8 0.692816 0.000000 0.563190
O O9 0.500000 0.669849 0.245380
O O10 0.609089 0.500000 0.241018
O O11 0.608120 0.741893 0.298750
O O12 0.250000 0.250000 0.081916
O O13 0.184896 0.000000 0.078037
O O14 0.170111 0.194707 0.000000
O O15 0.085686 0.500000 0.338462
O O16 0.000000 0.283514 0.360993
#
# Coordination Sequence:
#
# PCOD8271351 Si02
#       5
#    16  16  16  16  16
#     4  10  20  34  54  79 106 136 171 211 253 299
#     4   9  18  32  49  69  95 128 162 197 241 291
#     4   9  17  30  49  73 101 131 163 202 250 300
#     4  10  21  37  56  77 104 138 173 210 254 303
#     4   9  17  30  49  72  97 125 160 202 245 291
#
# _framework density 17.950923
#
# number of rings (size 3 to 8) (size 9 to 14) (size 15 to 20)
#    0.000    2.600    0.000    1.800    0.000    6.400 
#    0.000    5.000    0.000    2.400    0.000    5.600 
#    0.000    0.000    0.000    0.000    0.000    0.000 
#
# Total GULP energy -496071.192112 kJ/mol
# GULP energy per Si atom -12401.779803 kJ/mol
# Density = 1.791007 g / cm^3
# Si number density = 17.950923 Si / 1000 Ang^3
#
#
#
# Elastic Constant Matrix: (Units=GPa)
#
#
# Indices 1 2 3 4 5 6 
#
# 1 72.7184 50.2872 59.3648 0.0000 0.0000 0.0000
# 2 50.2872 108.7674 64.6637 0.0000 0.0000 0.0000
# 3 59.3648 64.6637 105.2630 0.0000 0.0000 0.0000
# 4 0.0000 0.0000 0.0000 32.2316 0.0000 0.0000
# 5 0.0000 0.0000 0.0000 0.0000 11.7645 0.0000
# 6 0.0000 0.0000 0.0000 0.0000 0.0000 28.6163
#
#
#
# Elastic Compliance Matrix: (Units=1/GPa)
#
#
# Indices 1 2 3 4 5 6 
#
# 1 0.027418 -0.005488 -0.012092 0.000000 0.000000 0.000000
# 2 -0.005488 0.015582 -0.006477 0.000000 0.000000 0.000000
# 3 -0.012092 -0.006477 0.020298 0.000000 0.000000 0.000000
# 4 0.000000 0.000000 0.000000 0.031025 0.000000 0.000000
# 5 0.000000 0.000000 0.000000 0.000000 0.085001 0.000000
# 6 0.000000 0.000000 0.000000 0.000000 0.000000 0.034945
#
#
# Mechanical properties :
#
#
# Convention : Reuss Voigt Hill
#
# Bulk Modulus (GPa) = 65.85448 70.59781 68.22614
# Shear Modulus (GPa) = 18.69550 22.01802 20.35676
#
# Velocity S-wave (km/s) = 3.23070 3.50604 3.37118
# Velocity P-wave (km/s) = 7.11913 7.47016 7.29676
#
# Compressibility (1/GPa) = 0.01518500
#
# Stress axis : x y z
#
# Youngs Moduli (GPa) = 36.47277 64.17734 49.26535
#
# Poissons Ratio (x) = 0.35218 0.59570
# Poissons Ratio (y) = 0.20015 0.31910
# Poissons Ratio (z) = 0.44101 0.41569
#
# Static dielectric constant tensor:
#      x y z
#    x 3.147530 0.000000 0.000000 
#    y 0.000000 3.429460 0.000000 
#    z 0.000000 0.000000 3.457700 
# 
# 
# High freq. dielectric constant tensor:
#      x y z
#    x 1.669630 0.000000 0.000000 
#    y 0.000000 1.703170 0.000000 
#    z 0.000000 0.000000 1.701680 
# 
# From -- ./inp_files/72718.got.cif
#   From: 2010.03.12/outbox.cif.g09.slc.cpg/sg65_37_cif.got.tgz:72718.got - 2010.04.10 20:52:16.
