data_PCOD8271682
_publ_section_title
;
Structure prediction by ZEFSAII (Michael W. Deem and Ramdas Pophale) SiO2 
 PCOD8271682
Probable space group: C M M M
;
_chemical_formula_sum "Si O2"
_cell_formula_units_Z 104
_cell_length_a 8.678528
_cell_length_b 27.258627
_cell_length_c 26.775955
_cell_angle_alpha 90.000000
_cell_angle_beta 90.000000
_cell_angle_gamma 90.000000
_cell_volume 6334.247306
_symmetry_space_group_name_H-M "C M M M"
_symmetry_group_IT_number 65
_symmetry_cell_setting 'orthorhombic'
loop_
_space_group_symop_operation_xyz
x,y,z
-x,-y,z
x,-y,-z
-x,y,-z
-x,-y,-z
x,y,-z
-x,y,z
x,-y,z
1/2+x,1/2+y,z
1/2-x,1/2-y,z
1/2+x,1/2-y,-z
1/2-x,1/2+y,-z
1/2-x,1/2-y,-z
1/2+x,1/2+y,-z
1/2-x,1/2+y,z
1/2+x,1/2-y,z
loop_
_atom_site_type_symbol
_atom_site_label
_atom_site_fract_x
_atom_site_fract_y
_atom_site_fract_z
Si Si1 0.817649 0.801413 0.805048
Si Si2 0.818256 0.804076 0.000000
Si Si3 0.182318 0.609651 0.751796
Si Si4 0.183289 0.349477 0.098354
Si Si5 0.818716 0.555023 0.345830
Si Si6 0.318537 0.053678 0.150215
Si Si7 0.175095 0.941806 0.554160
O O1 0.750000 0.750000 0.786410
O O2 0.773454 0.840416 0.762460
O O3 0.737398 0.813998 0.857524
O O4 0.000000 0.799019 0.812345
O O5 0.750000 0.750000 0.000000
O O6 0.763847 0.834187 0.047690
O O7 0.000000 0.799339 0.000000
O O8 0.242689 0.588964 0.698970
O O9 0.226437 0.569795 0.793862
O O10 0.000000 0.620491 0.752298
O O11 0.237554 0.405266 0.110709
O O12 0.000000 0.345223 0.093093
O O13 0.749026 0.500000 0.340421
O O14 0.771973 0.579072 0.399098
O O15 0.000000 0.551976 0.342369
O O16 0.500000 0.049369 0.146112
O O17 0.244146 0.000000 0.138877
O O18 0.236408 0.922211 0.500000
O O19 0.000000 0.924848 0.561419
O O20 0.188500 0.000000 0.553774
#
# Coordination Sequence:
#
# PCOD8271682 Si02
#       7
#    16   8  16  16  16  16  16
#     4  11  21  34  51  70  93 120 150 183 225 272
#     4  12  24  38  55  74  97 121 150 189 233 276
#     4   9  17  29  45  67  94 121 152 188 225 267
#     4  10  20  35  54  76  99 122 152 186 222 266
#     4   9  16  25  40  63  90 120 154 192 229 265
#     4   8  14  27  49  72  93 121 155 186 214 253
#     4   8  14  24  36  51  77 116 157 193 230 271
#
# _framework density 16.418683000000001
#
# number of rings (size 3 to 8) (size 9 to 14) (size 15 to 20)
#    0.000    2.615    0.000    4.846    0.000    2.769 
#    0.000    1.923    0.000   17.538    0.000    0.000 
#    0.000    0.615    0.000    2.000    0.000    2.923 
#
# Total GULP energy -644526.430942 kJ/mol
# GULP energy per Si atom -12394.739057 kJ/mol
# Density = 1.638131 g / cm^3
# Si number density = 16.418683 Si / 1000 Ang^3
#
#
#
# Elastic Constant Matrix: (Units=GPa)
#
#
# Indices 1 2 3 4 5 6 
#
# 1 62.2008 28.4967 33.9059 0.0000 0.0000 0.0000
# 2 28.4967 106.5789 58.8843 0.0000 0.0000 0.0000
# 3 33.9059 58.8843 146.9567 0.0000 0.0000 0.0000
# 4 0.0000 0.0000 0.0000 39.3724 0.0000 0.0000
# 5 0.0000 0.0000 0.0000 0.0000 26.7420 0.0000
# 6 0.0000 0.0000 0.0000 0.0000 0.0000 18.7675
#
#
#
# Elastic Compliance Matrix: (Units=1/GPa)
#
#
# Indices 1 2 3 4 5 6 
#
# 1 0.019343 -0.003476 -0.003070 0.000000 0.000000 0.000000
# 2 -0.003476 0.012675 -0.004277 0.000000 0.000000 0.000000
# 3 -0.003070 -0.004277 0.009227 0.000000 0.000000 0.000000
# 4 0.000000 0.000000 0.000000 0.025398 0.000000 0.000000
# 5 0.000000 0.000000 0.000000 0.000000 0.037394 0.000000
# 6 0.000000 0.000000 0.000000 0.000000 0.000000 0.053284
#
#
# Mechanical properties :
#
#
# Convention : Reuss Voigt Hill
#
# Bulk Modulus (GPa) = 51.02206 62.03448 56.52827
# Shear Modulus (GPa) = 26.95429 29.93969 28.44699
#
# Velocity S-wave (km/s) = 4.05617 4.27489 4.16697
# Velocity P-wave (km/s) = 7.28558 7.88867 7.59312
#
# Compressibility (1/GPa) = 0.01959936
#
# Stress axis : x y z
#
# Youngs Moduli (GPa) = 51.69880 78.89574 108.38021
#
# Poissons Ratio (x) = 0.27421 0.33274
# Poissons Ratio (y) = 0.17968 0.46353
# Poissons Ratio (z) = 0.15872 0.33743
#
# Static dielectric constant tensor:
#      x y z
#    x 2.982680 0.000000 0.000000 
#    y 0.000000 3.357400 0.000000 
#    z 0.000000 0.000000 3.419040 
# 
# 
# High freq. dielectric constant tensor:
#      x y z
#    x 1.621090 0.000000 0.000000 
#    y 0.000000 1.607400 0.000000 
#    z 0.000000 0.000000 1.631150 
# 
# From -- ./inp_files/73796.got.cif
#   From: 2010.03.12/outbox.cif.g09.slc.cpg/sg65_37_cif.got.tgz:73796.got - 2010.04.10 20:52:16.
