data_PCOD8271787
_publ_section_title
;
Structure prediction by ZEFSAII (Michael W. Deem and Ramdas Pophale) SiO2 
 PCOD8271787
Probable space group: C M M M
;
_chemical_formula_sum "Si O2"
_cell_formula_units_Z 80
_cell_length_a 8.546007
_cell_length_b 27.174301
_cell_length_c 18.643904
_cell_angle_alpha 90.000000
_cell_angle_beta 90.000000
_cell_angle_gamma 90.000000
_cell_volume 4329.706762
_symmetry_space_group_name_H-M "C M M M"
_symmetry_group_IT_number 65
_symmetry_cell_setting 'orthorhombic'
loop_
_space_group_symop_operation_xyz
x,y,z
-x,-y,z
x,-y,-z
-x,y,-z
-x,-y,-z
x,y,-z
-x,y,z
x,-y,z
1/2+x,1/2+y,z
1/2-x,1/2-y,z
1/2+x,1/2-y,-z
1/2-x,1/2+y,-z
1/2-x,1/2-y,-z
1/2+x,1/2+y,-z
1/2-x,1/2+y,z
1/2+x,1/2-y,z
loop_
_atom_site_type_symbol
_atom_site_label
_atom_site_fract_x
_atom_site_fract_y
_atom_site_fract_z
Si Si1 0.314950 0.697800 0.783866
Si Si2 0.685241 0.106024 0.141606
Si Si3 0.316786 0.304259 0.500000
Si Si4 0.814565 0.650949 0.357246
Si Si5 0.814928 0.943185 0.000000
Si Si6 0.685059 0.946288 0.284499
O O1 0.500000 0.699050 0.775637
O O2 0.250000 0.750000 0.810345
O O3 0.265025 0.658609 0.844180
O O4 0.239247 0.686143 0.706822
O O5 0.500000 0.113602 0.140028
O O6 0.744616 0.083745 0.068212
O O7 0.737478 0.068903 0.204648
O O8 0.500000 0.299511 0.500000
O O9 0.250000 0.250000 0.500000
O O10 0.263291 0.333872 0.430836
O O11 0.758439 0.594930 0.340991
O O12 0.000000 0.654963 0.364121
O O13 0.000000 0.938091 0.000000
O O14 0.761862 0.000000 0.000000
O O15 0.500000 0.949392 0.287157
O O16 0.757937 0.000000 0.303068
#
# Coordination Sequence:
#
# PCOD8271787 Si02
#       6
#    16  16   8  16   8  16
#     4  11  21  36  57  81 110 143 180 222 270 322
#     4  10  20  35  56  82 110 143 185 227 269 320
#     4  12  24  38  55  76 105 139 176 221 275 326
#     4  10  20  35  55  81 110 140 179 222 265 318
#     4  11  23  37  54  81 116 149 181 223 275 323
#     4   8  15  30  54  81 106 135 175 220 260 304
#
# _framework density 18.477001999999999
#
# number of rings (size 3 to 8) (size 9 to 14) (size 15 to 20)
#    0.000    1.900    0.000    6.600    0.000    1.600 
#    0.000    1.000    0.000   15.000    0.000    0.000 
#    0.000    0.000    0.000    0.000    0.000    0.000 
#
# Total GULP energy -496008.982252 kJ/mol
# GULP energy per Si atom -12400.224556 kJ/mol
# Density = 1.843495 g / cm^3
# Si number density = 18.477002 Si / 1000 Ang^3
#
#
#
# Elastic Constant Matrix: (Units=GPa)
#
#
# Indices 1 2 3 4 5 6 
#
# 1 101.0253 43.5050 40.5243 0.0000 0.0000 0.0000
# 2 43.5050 171.1594 77.2235 0.0000 0.0000 0.0000
# 3 40.5243 77.2235 137.7034 0.0000 0.0000 0.0000
# 4 0.0000 0.0000 0.0000 16.8417 0.0000 0.0000
# 5 0.0000 0.0000 0.0000 0.0000 31.8616 0.0000
# 6 0.0000 0.0000 0.0000 0.0000 0.0000 24.5848
#
#
#
# Elastic Compliance Matrix: (Units=1/GPa)
#
#
# Indices 1 2 3 4 5 6 
#
# 1 0.011666 -0.001896 -0.002370 0.000000 0.000000 0.000000
# 2 -0.001896 0.008130 -0.004001 0.000000 0.000000 0.000000
# 3 -0.002370 -0.004001 0.010203 0.000000 0.000000 0.000000
# 4 0.000000 0.000000 0.000000 0.059376 0.000000 0.000000
# 5 0.000000 0.000000 0.000000 0.000000 0.031386 0.000000
# 6 0.000000 0.000000 0.000000 0.000000 0.000000 0.040676
#
#
# Mechanical properties :
#
#
# Convention : Reuss Voigt Hill
#
# Bulk Modulus (GPa) = 74.26825 81.37709 77.82267
# Shear Modulus (GPa) = 27.40357 31.23331 29.31844
#
# Velocity S-wave (km/s) = 3.85530 4.11589 3.98773
# Velocity P-wave (km/s) = 7.75242 8.16856 7.96321
#
# Compressibility (1/GPa) = 0.01346470
#
# Stress axis : x y z
#
# Youngs Moduli (GPa) = 85.72242 123.00680 98.00853
#
# Poissons Ratio (x) = 0.23321 0.23226
# Poissons Ratio (y) = 0.16252 0.39214
# Poissons Ratio (z) = 0.20314 0.49216
#
# Static dielectric constant tensor:
#      x y z
#    x 3.405060 0.000000 0.000000 
#    y 0.000000 3.876200 0.000000 
#    z 0.000000 0.000000 3.285450 
# 
# 
# High freq. dielectric constant tensor:
#      x y z
#    x 1.717510 0.000000 0.000000 
#    y 0.000000 1.731550 0.000000 
#    z 0.000000 0.000000 1.706810 
# 
# From -- ./inp_files/49906.got.cif
#   From: 2010.03.12/outbox.cif.g09.slc.cpg/sg65_25_cif.got.tgz:49906.got - 2010.04.10 20:52:16.
