data_PCOD8271335
_publ_section_title
;
Structure prediction by ZEFSAII (Michael W. Deem and Ramdas Pophale) SiO2 
 PCOD8271335
Probable space group: C M M M
;
_chemical_formula_sum "Si O2"
_cell_formula_units_Z 104
_cell_length_a 8.980836
_cell_length_b 27.953330
_cell_length_c 21.247248
_cell_angle_alpha 90.000000
_cell_angle_beta 90.000000
_cell_angle_gamma 90.000000
_cell_volume 5333.999914
_symmetry_space_group_name_H-M "C M M M"
_symmetry_group_IT_number 65
_symmetry_cell_setting 'orthorhombic'
loop_
_space_group_symop_operation_xyz
x,y,z
-x,-y,z
x,-y,-z
-x,y,-z
-x,-y,-z
x,y,-z
-x,y,z
x,-y,z
1/2+x,1/2+y,z
1/2-x,1/2-y,z
1/2+x,1/2-y,-z
1/2-x,1/2+y,-z
1/2-x,1/2-y,-z
1/2+x,1/2+y,-z
1/2-x,1/2+y,z
1/2+x,1/2-y,z
loop_
_atom_site_type_symbol
_atom_site_label
_atom_site_fract_x
_atom_site_fract_y
_atom_site_fract_z
Si Si1 0.171214 0.857432 0.072440
Si Si2 0.175870 0.110924 0.620808
Si Si3 0.829368 0.393473 0.745482
Si Si4 0.826632 0.701026 0.572404
Si Si5 0.675302 0.200044 0.178592
Si Si6 0.173046 0.554610 0.127212
Si Si7 0.177027 0.946812 0.500000
O O1 0.261488 0.818216 0.112049
O O2 0.233042 0.911098 0.081934
O O3 0.000000 0.856476 0.094002
O O4 0.188950 0.843072 0.000000
O O5 0.225543 0.089544 0.687758
O O6 0.253525 0.162081 0.616930
O O7 0.235635 0.078773 0.563128
O O8 0.000000 0.116571 0.617534
O O9 0.788798 0.339824 0.768573
O O10 0.797908 0.431292 0.800509
O O11 0.000000 0.395596 0.723388
O O12 0.793944 0.687871 0.500000
O O13 0.750000 0.750000 0.591340
O O14 0.000000 0.705069 0.586741
O O15 0.500000 0.207602 0.170807
O O16 0.750000 0.250000 0.198749
O O17 0.223858 0.500000 0.116437
O O18 0.000000 0.561653 0.110639
O O19 0.000000 0.947664 0.500000
O O20 0.243417 0.000000 0.500000
#
# Coordination Sequence:
#
# PCOD8271335 Si02
#       7
#    16  16  16  16  16  16   8
#     4  10  21  36  55  83 118 152 188 231 276 325
#     4  11  21  35  57  81 109 144 182 225 275 329
#     4   9  20  37  55  79 111 144 183 229 276 328
#     4  10  20  34  54  78 106 137 171 213 263 321
#     4  10  21  38  60  83 112 150 189 232 276 325
#     4   9  19  37  59  81 109 147 187 231 283 335
#     4   9  20  38  56  77 108 143 180 223 270 325
#
# _framework density 19.497564000000001
#
# number of rings (size 3 to 8) (size 9 to 14) (size 15 to 20)
#    0.000    2.231    0.769    2.769    0.000    7.077 
#    0.000    3.077    0.000    3.231    0.000    0.000 
#    0.000    0.000    0.000    0.000    0.000    0.000 
#
# Total GULP energy -644923.462783 kJ/mol
# GULP energy per Si atom -12402.374284 kJ/mol
# Density = 1.945319 g / cm^3
# Si number density = 19.497564 Si / 1000 Ang^3
#
#
#
# Elastic Constant Matrix: (Units=GPa)
#
#
# Indices 1 2 3 4 5 6 
#
# 1 77.4952 28.6651 31.6435 0.0000 0.0000 0.0000
# 2 28.6651 76.3274 16.4028 0.0000 0.0000 0.0000
# 3 31.6435 16.4028 82.1955 0.0000 0.0000 0.0000
# 4 0.0000 0.0000 0.0000 15.4033 0.0000 0.0000
# 5 0.0000 0.0000 0.0000 0.0000 34.5258 0.0000
# 6 0.0000 0.0000 0.0000 0.0000 0.0000 26.8880
#
#
#
# Elastic Compliance Matrix: (Units=1/GPa)
#
#
# Indices 1 2 3 4 5 6 
#
# 1 0.017101 -0.005232 -0.005540 0.000000 0.000000 0.000000
# 2 -0.005232 0.015289 -0.001037 0.000000 0.000000 0.000000
# 3 -0.005540 -0.001037 0.014506 0.000000 0.000000 0.000000
# 4 0.000000 0.000000 0.000000 0.064921 0.000000 0.000000
# 5 0.000000 0.000000 0.000000 0.000000 0.028964 0.000000
# 6 0.000000 0.000000 0.000000 0.000000 0.000000 0.037191
#
#
# Mechanical properties :
#
#
# Convention : Reuss Voigt Hill
#
# Bulk Modulus (GPa) = 42.95670 43.27121 43.11395
# Shear Modulus (GPa) = 23.88356 25.98386 24.93371
#
# Velocity S-wave (km/s) = 3.50373 3.65454 3.57993
# Velocity P-wave (km/s) = 6.20063 6.32842 6.26485
#
# Compressibility (1/GPa) = 0.02327926
#
# Stress axis : x y z
#
# Youngs Moduli (GPa) = 58.47522 65.40576 68.93871
#
# Poissons Ratio (x) = 0.34220 0.38189
# Poissons Ratio (y) = 0.30594 0.07148
# Poissons Ratio (z) = 0.32392 0.06782
#
# Static dielectric constant tensor:
#      x y z
#    x 3.497650 0.000000 0.000000 
#    y 0.000000 3.578140 0.000000 
#    z 0.000000 0.000000 3.471950 
# 
# 
# High freq. dielectric constant tensor:
#      x y z
#    x 1.757210 0.000000 0.000000 
#    y 0.000000 1.757100 0.000000 
#    z 0.000000 0.000000 1.757280 
# 
# From -- ./inp_files/60387.got.cif
#   From: 2010.03.12/outbox.cif.g09.slc.cpg/sg65_31_cif.got.tgz:60387.got - 2010.04.10 20:52:16.
