data_PCOD8271853
_publ_section_title
;
Structure prediction by ZEFSAII (Michael W. Deem and Ramdas Pophale) SiO2 
 PCOD8271853
Probable space group: C M M M
;
_chemical_formula_sum "Si O2"
_cell_formula_units_Z 80
_cell_length_a 18.204304
_cell_length_b 25.315471
_cell_length_c 9.002165
_cell_angle_alpha 90.000000
_cell_angle_beta 90.000000
_cell_angle_gamma 90.000000
_cell_volume 4148.652511
_symmetry_space_group_name_H-M "C M M M"
_symmetry_group_IT_number 65
_symmetry_cell_setting 'orthorhombic'
loop_
_space_group_symop_operation_xyz
x,y,z
-x,-y,z
x,-y,-z
-x,y,-z
-x,-y,-z
x,y,-z
-x,y,z
x,-y,z
1/2+x,1/2+y,z
1/2-x,1/2-y,z
1/2+x,1/2-y,-z
1/2-x,1/2+y,-z
1/2-x,1/2-y,-z
1/2+x,1/2+y,-z
1/2-x,1/2+y,z
1/2+x,1/2-y,z
loop_
_atom_site_type_symbol
_atom_site_label
_atom_site_fract_x
_atom_site_fract_y
_atom_site_fract_z
Si Si1 0.415033 0.256531 0.670227
Si Si2 0.915775 0.939001 0.329102
Si Si3 0.166098 0.848658 0.825085
Si Si4 0.679109 0.845364 0.325192
Si Si5 0.917830 0.441160 0.676364
O O1 0.399443 0.272529 0.500000
O O2 0.500000 0.244211 0.696975
O O3 0.391479 0.304671 0.773638
O O4 0.371525 0.204131 0.714406
O O5 0.901944 0.923452 0.500000
O O6 0.862075 0.905865 0.225360
O O7 0.000000 0.927252 0.286276
O O8 0.896871 0.000000 0.302658
O O9 0.244688 0.836409 0.755999
O O10 0.173152 0.847620 0.000000
O O11 0.693746 0.850050 0.500000
O O12 0.639320 0.898011 0.261622
O O13 0.920296 0.436897 0.500000
O O14 0.892179 0.500000 0.725161
O O15 0.000000 0.429909 0.738049
#
# Coordination Sequence:
#
# PCOD8271853 Si02
#       5
#    16  16  16  16  16
#     4  10  21  38  60  82 104 136 183 236 282 325
#     4   9  19  38  63  86 107 137 181 229 273 320
#     4  12  25  37  52  79 115 150 181 218 269 329
#     4  10  20  35  56  81 109 143 183 226 272 321
#     4   8  14  27  51  83 112 135 168 219 272 318
#
# _framework density 19.283370000000001
#
# number of rings (size 3 to 8) (size 9 to 14) (size 15 to 20)
#    0.000    2.200    0.000    4.800    0.000   10.000 
#    0.000    3.000    0.000    1.800    0.000    1.400 
#    0.000    0.000    0.000    0.000    0.000    0.000 
#
# Total GULP energy -496082.260979 kJ/mol
# GULP energy per Si atom -12402.056524 kJ/mol
# Density = 1.923948 g / cm^3
# Si number density = 19.283370 Si / 1000 Ang^3
#
#
#
# Elastic Constant Matrix: (Units=GPa)
#
#
# Indices 1 2 3 4 5 6 
#
# 1 108.7024 50.5543 38.6064 0.0000 0.0000 0.0000
# 2 50.5543 109.7631 39.4338 0.0000 0.0000 0.0000
# 3 38.6064 39.4338 61.4973 0.0000 0.0000 0.0000
# 4 0.0000 0.0000 0.0000 9.4538 0.0000 0.0000
# 5 0.0000 0.0000 0.0000 0.0000 -2.1806 0.0000
# 6 0.0000 0.0000 0.0000 0.0000 0.0000 28.1349
#
#
#
# Elastic Compliance Matrix: (Units=1/GPa)
#
#
# Indices 1 2 3 4 5 6 
#
# 1 0.013057 -0.003988 -0.005640 0.000000 0.000000 0.000000
# 2 -0.003988 0.013055 -0.005868 0.000000 0.000000 0.000000
# 3 -0.005640 -0.005868 0.023564 0.000000 0.000000 0.000000
# 4 0.000000 0.000000 0.000000 0.105778 0.000000 0.000000
# 5 0.000000 0.000000 0.000000 0.000000 -0.458594 0.000000
# 6 0.000000 0.000000 0.000000 0.000000 0.000000 0.035543
#
#
# Mechanical properties :
#
#
# Convention : Reuss Voigt Hill
#
# Bulk Modulus (GPa) = 53.51780 59.68354 56.60067
# Shear Modulus (GPa) = -21.70358 17.17284 -2.26537
#
# Velocity S-wave (km/s) = -3.35850 2.98745 -1.08505
# Velocity P-wave (km/s) = 3.57411 6.55117 5.27693
#
# Compressibility (1/GPa) = 0.01868537
#
# Stress axis : x y z
#
# Youngs Moduli (GPa) = 76.58744 76.59728 42.43708
#
# Poissons Ratio (x) = 0.30543 0.23934
# Poissons Ratio (y) = 0.30539 0.24903
# Poissons Ratio (z) = 0.43195 0.44948
#
# Static dielectric constant tensor:
#      x y z
#    x 3.588670 0.000000 0.000000 
#    y 0.000000 3.740280 0.000000 
#    z 0.000000 0.000000 3.179190 
# 
# 
# High freq. dielectric constant tensor:
#      x y z
#    x 1.758350 0.000000 0.000000 
#    y 0.000000 1.766730 0.000000 
#    z 0.000000 0.000000 1.709280 
# 
# From -- ./inp_files/9664.got.cif
#   From: 2010.03.12/outbox.cif.g09.slc.cpg/sg65_5_cif.got.tgz:9664.got - 2010.04.10 20:52:16.
