data_PCOD8271329
_publ_section_title
;
Structure prediction by ZEFSAII (Michael W. Deem and Ramdas Pophale) SiO2 
 PCOD8271329
Probable space group: C M M M
;
_chemical_formula_sum "Si O2"
_cell_formula_units_Z 104
_cell_length_a 13.827062
_cell_length_b 15.698193
_cell_length_c 23.713869
_cell_angle_alpha 90.000000
_cell_angle_beta 90.000000
_cell_angle_gamma 90.000000
_cell_volume 5147.329747
_symmetry_space_group_name_H-M "C M M M"
_symmetry_group_IT_number 65
_symmetry_cell_setting 'orthorhombic'
loop_
_space_group_symop_operation_xyz
x,y,z
-x,-y,z
x,-y,-z
-x,y,-z
-x,-y,-z
x,y,-z
-x,y,z
x,-y,z
1/2+x,1/2+y,z
1/2-x,1/2-y,z
1/2+x,1/2-y,-z
1/2-x,1/2+y,-z
1/2-x,1/2-y,-z
1/2+x,1/2+y,-z
1/2-x,1/2+y,z
1/2+x,1/2-y,z
loop_
_atom_site_type_symbol
_atom_site_label
_atom_site_fract_x
_atom_site_fract_y
_atom_site_fract_z
Si Si1 0.892843 0.900154 0.838669
Si Si2 0.892983 0.857633 0.364834
Si Si3 0.227653 0.094290 0.264080
Si Si4 0.389710 0.000000 0.066432
Si Si5 0.223683 0.599847 0.437340
Si Si6 0.242083 0.148888 0.934367
Si Si7 0.606524 0.835839 0.665386
O O1 0.823698 0.860878 0.789760
O O2 0.851274 0.881913 0.900390
O O3 0.000000 0.859183 0.834530
O O4 0.900813 0.000000 0.827722
O O5 0.846668 0.915505 0.316119
O O6 0.826014 0.857940 0.420271
O O7 0.897032 0.764208 0.339894
O O8 0.000000 0.891186 0.380354
O O9 0.322340 0.146035 0.282594
O O10 0.262682 0.000000 0.247295
O O11 0.333068 0.087918 0.084619
O O12 0.500000 0.000000 0.091922
O O13 0.398683 0.000000 0.000000
O O14 0.195295 0.632074 0.500000
O O15 0.239078 0.500000 0.436711
O O16 0.140148 0.623708 0.393600
O O17 0.250000 0.250000 0.921690
O O18 0.221036 0.133539 0.000000
O O19 0.500000 0.872557 0.678892
#
# Coordination Sequence:
#
# PCOD8271329 Si02
#       7
#    16  16  16   8  16  16  16
#     4  10  21  37  58  84 116 151 189 237 293 349
#     4  10  20  34  54  78 104 138 178 220 273 332
#     4  10  20  35  56  79 108 142 181 225 275 332
#     4   9  18  36  59  81 117 165 204 244 296 357
#     4  10  21  35  52  76 105 138 176 222 273 326
#     4  10  21  37  60  90 122 159 204 251 300 357
#     4  10  21  36  55  78 105 141 181 224 273 327
#
# _framework density 20.204650999999998
#
# number of rings (size 3 to 8) (size 9 to 14) (size 15 to 20)
#    0.000    2.077    0.769    4.154    0.000    7.077 
#    0.000    6.154    0.000    0.000    0.000    0.000 
#    0.000    0.000    0.000    0.000    0.000    0.000 
#
# Total GULP energy -644514.953958 kJ/mol
# GULP energy per Si atom -12394.518345 kJ/mol
# Density = 2.015866 g / cm^3
# Si number density = 20.204651 Si / 1000 Ang^3
#
#
#
# Elastic Constant Matrix: (Units=GPa)
#
#
# Indices 1 2 3 4 5 6 
#
# 1 178.8071 40.5744 65.3358 0.0000 0.0000 0.0000
# 2 40.5744 74.1380 14.6308 0.0000 0.0000 0.0000
# 3 65.3358 14.6308 98.0658 0.0000 0.0000 0.0000
# 4 0.0000 0.0000 0.0000 18.9928 0.0000 0.0000
# 5 0.0000 0.0000 0.0000 0.0000 25.3592 0.0000
# 6 0.0000 0.0000 0.0000 0.0000 0.0000 21.3837
#
#
#
# Elastic Compliance Matrix: (Units=1/GPa)
#
#
# Indices 1 2 3 4 5 6 
#
# 1 0.008192 -0.003510 -0.004934 0.000000 0.000000 0.000000
# 2 -0.003510 0.015401 0.000040 0.000000 0.000000 0.000000
# 3 -0.004934 0.000040 0.013479 0.000000 0.000000 0.000000
# 4 0.000000 0.000000 0.000000 0.052651 0.000000 0.000000
# 5 0.000000 0.000000 0.000000 0.000000 0.039433 0.000000
# 6 0.000000 0.000000 0.000000 0.000000 0.000000 0.046765
#
#
# Mechanical properties :
#
#
# Convention : Reuss Voigt Hill
#
# Bulk Modulus (GPa) = 49.34616 65.78811 57.56713
# Shear Modulus (GPa) = 25.06482 28.51180 26.78831
#
# Velocity S-wave (km/s) = 3.52596 3.76060 3.64517
# Velocity P-wave (km/s) = 6.40724 7.17550 6.80222
#
# Compressibility (1/GPa) = 0.02026500
#
# Stress axis : x y z
#
# Youngs Moduli (GPa) = 122.07079 64.93049 74.19165
#
# Poissons Ratio (x) = 0.22788 0.36608
# Poissons Ratio (y) = 0.42842 -0.00300
# Poissons Ratio (z) = 0.60233 -0.00263
#
# Static dielectric constant tensor:
#      x y z
#    x 4.002510 0.000000 0.000000 
#    y 0.000000 3.683610 0.000000 
#    z 0.000000 0.000000 3.697450 
# 
# 
# High freq. dielectric constant tensor:
#      x y z
#    x 1.788120 0.000000 0.000000 
#    y 0.000000 1.787050 0.000000 
#    z 0.000000 0.000000 1.777020 
# 
# From -- ./inp_files/70044.got.cif
#   From: 2010.03.12/outbox.cif.g09.slc.cpg/sg65_36_cif.got.tgz:70044.got - 2010.04.10 20:52:16.
