data_PCOD8271602
_publ_section_title
;
Structure prediction by ZEFSAII (Michael W. Deem and Ramdas Pophale) SiO2 
 PCOD8271602
Probable space group: C M M M
;
_chemical_formula_sum "Si O2"
_cell_formula_units_Z 80
_cell_length_a 9.144949
_cell_length_b 28.115472
_cell_length_c 18.045525
_cell_angle_alpha 90.000000
_cell_angle_beta 90.000000
_cell_angle_gamma 90.000000
_cell_volume 4639.767176
_symmetry_space_group_name_H-M "C M M M"
_symmetry_group_IT_number 65
_symmetry_cell_setting 'orthorhombic'
loop_
_space_group_symop_operation_xyz
x,y,z
-x,-y,z
x,-y,-z
-x,y,-z
-x,-y,-z
x,y,-z
-x,y,z
x,-y,z
1/2+x,1/2+y,z
1/2-x,1/2-y,z
1/2+x,1/2-y,-z
1/2-x,1/2+y,-z
1/2-x,1/2-y,-z
1/2+x,1/2+y,-z
1/2-x,1/2+y,z
1/2+x,1/2-y,z
loop_
_atom_site_type_symbol
_atom_site_label
_atom_site_fract_x
_atom_site_fract_y
_atom_site_fract_z
Si Si1 0.828779 0.800687 0.338918
Si Si2 0.327754 0.888822 0.290036
Si Si3 0.664486 0.297699 0.500000
Si Si4 0.670277 0.054663 0.855996
Si Si5 0.833561 0.056127 0.584257
Si Si6 0.165319 0.943402 0.000000
O O1 0.750000 0.750000 0.331176
O O2 0.753252 0.838013 0.284047
O O3 0.804404 0.824193 0.421882
O O4 0.000000 0.794740 0.320203
O O5 0.500000 0.880436 0.295234
O O6 0.281948 0.916772 0.216443
O O7 0.278565 0.918621 0.361155
O O8 0.500000 0.280019 0.500000
O O9 0.750000 0.250000 0.500000
O O10 0.500000 0.060082 0.873143
O O11 0.755728 0.076181 0.926417
O O12 0.713157 0.000000 0.841815
O O13 0.801332 0.072699 0.500000
O O14 0.000000 0.070166 0.605474
O O15 0.811104 0.000000 0.591153
O O16 0.000000 0.924814 0.000000
O O17 0.175413 0.000000 0.000000
#
# Coordination Sequence:
#
# PCOD8271602 Si02
#       6
#    16  16   8  16  16   8
#     4  10  20  35  52  71  96 128 166 212 262 309
#     4  11  22  33  49  75 102 132 170 209 251 300
#     4   8  16  30  48  66  85 114 153 200 252 301
#     4   9  18  33  51  72 103 139 169 199 241 294
#     4   9  19  35  51  67  93 132 174 213 253 296
#     4   9  17  29  49  77 104 129 162 203 245 291
#
# _framework density 17.242242999999998
#
# number of rings (size 3 to 8) (size 9 to 14) (size 15 to 20)
#    0.000    2.500    0.000    2.700    1.400    5.200 
#    0.000    3.000    0.000    0.000    0.000    0.700 
#    0.000    0.000    0.000    0.000    0.000    0.000 
#
# Total GULP energy -495834.053726 kJ/mol
# GULP energy per Si atom -12395.851343 kJ/mol
# Density = 1.720300 g / cm^3
# Si number density = 17.242243 Si / 1000 Ang^3
#
#
#
# Elastic Constant Matrix: (Units=GPa)
#
#
# Indices 1 2 3 4 5 6 
#
# 1 94.5033 46.9489 63.5249 0.0000 0.0000 0.0000
# 2 46.9489 65.6959 57.7888 0.0000 0.0000 0.0000
# 3 63.5249 57.7888 119.0284 0.0000 0.0000 0.0000
# 4 0.0000 0.0000 0.0000 13.8598 0.0000 0.0000
# 5 0.0000 0.0000 0.0000 0.0000 25.8878 0.0000
# 6 0.0000 0.0000 0.0000 0.0000 0.0000 28.8969
#
#
#
# Elastic Compliance Matrix: (Units=1/GPa)
#
#
# Indices 1 2 3 4 5 6 
#
# 1 0.018619 -0.007968 -0.006069 0.000000 0.000000 0.000000
# 2 -0.007968 0.029978 -0.010302 0.000000 0.000000 0.000000
# 3 -0.006069 -0.010302 0.016642 0.000000 0.000000 0.000000
# 4 0.000000 0.000000 0.000000 0.072151 0.000000 0.000000
# 5 0.000000 0.000000 0.000000 0.000000 0.038628 0.000000
# 6 0.000000 0.000000 0.000000 0.000000 0.000000 0.034606
#
#
# Mechanical properties :
#
#
# Convention : Reuss Voigt Hill
#
# Bulk Modulus (GPa) = 60.37897 68.41697 64.39797
# Shear Modulus (GPa) = 18.88062 21.12656 20.00359
#
# Velocity S-wave (km/s) = 3.31270 3.50420 3.40979
# Velocity P-wave (km/s) = 7.05167 7.49256 7.27546
#
# Compressibility (1/GPa) = 0.01656206
#
# Stress axis : x y z
#
# Youngs Moduli (GPa) = 53.70749 33.35795 60.08972
#
# Poissons Ratio (x) = 0.26579 0.36466
# Poissons Ratio (y) = 0.42794 0.61904
# Poissons Ratio (z) = 0.32593 0.34365
#
# Static dielectric constant tensor:
#      x y z
#    x 3.250180 0.000000 0.000000 
#    y 0.000000 2.987840 0.000000 
#    z 0.000000 0.000000 3.029490 
# 
# 
# High freq. dielectric constant tensor:
#      x y z
#    x 1.673720 0.000000 0.000000 
#    y 0.000000 1.645760 0.000000 
#    z 0.000000 0.000000 1.653610 
# 
# From -- ./inp_files/49925.got.cif
#   From: 2010.03.12/outbox.cif.g09.slc.cpg/sg65_25_cif.got.tgz:49925.got - 2010.04.10 20:52:16.
