data_PCOD8271662
_publ_section_title
;
Structure prediction by ZEFSAII (Michael W. Deem and Ramdas Pophale) SiO2 
 PCOD8271662
Probable space group: C M M M
;
_chemical_formula_sum "Si O2"
_cell_formula_units_Z 80
_cell_length_a 19.132600
_cell_length_b 8.657669
_cell_length_c 26.128039
_cell_angle_alpha 90.000000
_cell_angle_beta 90.000000
_cell_angle_gamma 90.000000
_cell_volume 4327.945522
_symmetry_space_group_name_H-M "C M M M"
_symmetry_group_IT_number 65
_symmetry_cell_setting 'orthorhombic'
loop_
_space_group_symop_operation_xyz
x,y,z
-x,-y,z
x,-y,-z
-x,y,-z
-x,-y,-z
x,y,-z
-x,y,z
x,-y,z
1/2+x,1/2+y,z
1/2-x,1/2-y,z
1/2+x,1/2-y,-z
1/2-x,1/2+y,-z
1/2-x,1/2-y,-z
1/2+x,1/2+y,-z
1/2-x,1/2+y,z
1/2+x,1/2-y,z
loop_
_atom_site_type_symbol
_atom_site_label
_atom_site_fract_x
_atom_site_fract_y
_atom_site_fract_z
Si Si1 0.077884 0.181546 0.711760
Si Si2 0.175312 0.184344 0.802468
Si Si3 0.916499 0.326333 0.609145
Si Si4 0.325792 0.183814 0.088427
Si Si5 0.917752 0.181372 0.000000
Si Si6 0.422789 0.815537 0.500000
O O1 0.123050 0.245238 0.758787
O O2 0.111555 0.226578 0.656898
O O3 0.000000 0.252740 0.716594
O O4 0.074839 0.000000 0.715100
O O5 0.250000 0.250000 0.786763
O O6 0.150718 0.255342 0.856157
O O7 0.177889 0.000000 0.807052
O O8 0.891058 0.500000 0.619173
O O9 0.885749 0.265075 0.553904
O O10 0.000000 0.317781 0.605413
O O11 0.250000 0.250000 0.072774
O O12 0.384472 0.241257 0.049744
O O13 0.321286 0.000000 0.088191
O O14 0.000000 0.215938 0.000000
O O15 0.901815 0.000000 0.000000
O O16 0.500000 0.742261 0.500000
O O17 0.428579 0.000000 0.500000
#
# Coordination Sequence:
#
# PCOD8271662 Si02
#       6
#    16  16  16  16   8   8
#     4   9  18  31  46  67  97 129 159 196 246 300
#     4  10  20  35  54  75 100 132 170 208 248 294
#     4   8  13  22  38  60  87 120 157 195 236 286
#     4  11  22  38  60  83 108 137 174 215 253 298
#     4  11  24  41  60  83 113 145 174 207 252 301
#     4   7  10  18  33  55  84 117 152 191 235 283
#
# _framework density 18.48452
#
# number of rings (size 3 to 8) (size 9 to 14) (size 15 to 20)
#    0.000    2.600    0.000    5.400    0.000    3.200 
#    0.000    2.500    0.000    3.000    0.000    0.700 
#    0.000    0.000    0.000    0.000    0.000    0.000 
#
# Total GULP energy -495671.596968 kJ/mol
# GULP energy per Si atom -12391.789924 kJ/mol
# Density = 1.844245 g / cm^3
# Si number density = 18.484520 Si / 1000 Ang^3
#
#
#
# Elastic Constant Matrix: (Units=GPa)
#
#
# Indices 1 2 3 4 5 6 
#
# 1 67.3764 33.2359 80.7796 0.0000 0.0000 0.0000
# 2 33.2359 79.7964 50.9818 0.0000 0.0000 0.0000
# 3 80.7796 50.9818 191.9582 0.0000 0.0000 0.0000
# 4 0.0000 0.0000 0.0000 33.0435 0.0000 0.0000
# 5 0.0000 0.0000 0.0000 0.0000 24.0430 0.0000
# 6 0.0000 0.0000 0.0000 0.0000 0.0000 21.2343
#
#
#
# Elastic Compliance Matrix: (Units=1/GPa)
#
#
# Indices 1 2 3 4 5 6 
#
# 1 0.031961 -0.005683 -0.011940 0.000000 0.000000 0.000000
# 2 -0.005683 0.016104 -0.001885 0.000000 0.000000 0.000000
# 3 -0.011940 -0.001885 0.010735 0.000000 0.000000 0.000000
# 4 0.000000 0.000000 0.000000 0.030263 0.000000 0.000000
# 5 0.000000 0.000000 0.000000 0.000000 0.041592 0.000000
# 6 0.000000 0.000000 0.000000 0.000000 0.000000 0.047094
#
#
# Mechanical properties :
#
#
# Convention : Reuss Voigt Hill
#
# Bulk Modulus (GPa) = 50.55203 74.34730 62.44967
# Shear Modulus (GPa) = 22.38530 27.27307 24.82919
#
# Velocity S-wave (km/s) = 3.48376 3.84533 3.66900
# Velocity P-wave (km/s) = 6.60226 7.74752 7.19771
#
# Compressibility (1/GPa) = 0.01978160
#
# Stress axis : x y z
#
# Youngs Moduli (GPa) = 31.28781 62.09806 93.15374
#
# Poissons Ratio (x) = 0.35293 1.11230
# Poissons Ratio (y) = 0.17782 0.17562
# Poissons Ratio (z) = 0.37359 0.11707
#
# Static dielectric constant tensor:
#      x y z
#    x 3.150560 0.000000 0.000000 
#    y 0.000000 3.322020 0.000000 
#    z 0.000000 0.000000 3.917750 
# 
# 
# High freq. dielectric constant tensor:
#      x y z
#    x 1.669170 0.000000 0.000000 
#    y 0.000000 1.709220 0.000000 
#    z 0.000000 0.000000 1.744460 
# 
# From -- ./inp_files/75057.got.cif
#   From: 2010.03.12/outbox.cif.g09.slc.cpg/sg65_38_cif.got.tgz:75057.got - 2010.04.10 20:52:16.
