data_PCOD8271083
_publ_section_title
;
Structure prediction by ZEFSAII (Michael W. Deem and Ramdas Pophale) SiO2 
 PCOD8271083
Probable space group: C M M M
;
_chemical_formula_sum "Si O2"
_cell_formula_units_Z 104
_cell_length_a 17.942081
_cell_length_b 13.039708
_cell_length_c 24.514921
_cell_angle_alpha 90.000000
_cell_angle_beta 90.000000
_cell_angle_gamma 90.000000
_cell_volume 5735.498590
_symmetry_space_group_name_H-M "C M M M"
_symmetry_group_IT_number 65
_symmetry_cell_setting 'orthorhombic'
loop_
_space_group_symop_operation_xyz
x,y,z
-x,-y,z
x,-y,-z
-x,y,-z
-x,-y,-z
x,y,-z
-x,y,z
x,-y,z
1/2+x,1/2+y,z
1/2-x,1/2-y,z
1/2+x,1/2-y,-z
1/2-x,1/2+y,-z
1/2-x,1/2-y,-z
1/2+x,1/2+y,-z
1/2-x,1/2+y,z
1/2+x,1/2-y,z
loop_
_atom_site_type_symbol
_atom_site_label
_atom_site_fract_x
_atom_site_fract_y
_atom_site_fract_z
Si Si1 0.086232 0.120094 0.346648
Si Si2 0.649855 0.119441 0.386173
Si Si3 0.413572 0.878593 0.824407
Si Si4 0.911594 0.614927 0.057651
Si Si5 0.335384 0.224150 0.724478
Si Si6 0.300219 0.622666 0.438701
Si Si7 0.500000 0.122476 0.561619
O O1 0.116452 0.176098 0.292548
O O2 0.135335 0.162561 0.397634
O O3 0.000000 0.145647 0.357884
O O4 0.098574 0.000000 0.337569
O O5 0.657244 0.137989 0.321953
O O6 0.719718 0.167573 0.419473
O O7 0.572549 0.167252 0.407818
O O8 0.649744 0.000000 0.397707
O O9 0.500000 0.853919 0.813801
O O10 0.386634 0.835878 0.884421
O O11 0.365403 0.818924 0.780760
O O12 0.399425 0.000000 0.820305
O O13 0.879700 0.500000 0.055687
O O14 0.000000 0.610050 0.059562
O O15 0.886296 0.670542 0.000000
O O16 0.250000 0.250000 0.733823
O O17 0.317375 0.660538 0.500000
O O18 0.298853 0.500000 0.436322
O O19 0.500000 0.163318 0.500000
O O20 0.500000 0.000000 0.563251
#
# Coordination Sequence:
#
# PCOD8271083 Si02
#       7
#    16  16  16  16  16  16   8
#     4  10  22  39  55  70  92 124 166 212 255 298
#     4  10  20  34  52  75 101 129 158 194 247 308
#     4   9  18  31  51  81 109 132 162 202 245 290
#     4   7  10  20  41  71 107 139 161 186 229 285
#     4  12  23  35  51  70 100 133 169 204 245 295
#     4   9  17  33  56  74  91 119 156 201 253 306
#     4   9  18  32  52  76 101 129 156 190 245 314
#
# _framework density 18.132687000000001
#
# number of rings (size 3 to 8) (size 9 to 14) (size 15 to 20)
#    0.000    2.538    1.538    2.769    2.154    2.769 
#    0.000    3.846    0.000    0.462    0.000    0.000 
#    0.000    0.615    0.000    5.692    0.000    0.308 
#
# Total GULP energy -644448.746256 kJ/mol
# GULP energy per Si atom -12393.245120 kJ/mol
# Density = 1.809142 g / cm^3
# Si number density = 18.132687 Si / 1000 Ang^3
#
#
#
# Elastic Constant Matrix: (Units=GPa)
#
#
# Indices 1 2 3 4 5 6 
#
# 1 138.4526 38.6493 79.5532 0.0000 0.0000 0.0000
# 2 38.6493 27.2485 26.9283 0.0000 0.0000 0.0000
# 3 79.5532 26.9283 190.3438 0.0000 0.0000 0.0000
# 4 0.0000 0.0000 0.0000 17.6886 0.0000 0.0000
# 5 0.0000 0.0000 0.0000 0.0000 22.0562 0.0000
# 6 0.0000 0.0000 0.0000 0.0000 0.0000 17.0671
#
#
#
# Elastic Compliance Matrix: (Units=1/GPa)
#
#
# Indices 1 2 3 4 5 6 
#
# 1 0.013664 -0.015970 -0.003451 0.000000 0.000000 0.000000
# 2 -0.015970 0.061329 -0.002002 0.000000 0.000000 0.000000
# 3 -0.003451 -0.002002 0.006979 0.000000 0.000000 0.000000
# 4 0.000000 0.000000 0.000000 0.056534 0.000000 0.000000
# 5 0.000000 0.000000 0.000000 0.000000 0.045339 0.000000
# 6 0.000000 0.000000 0.000000 0.000000 0.000000 0.058592
#
#
# Mechanical properties :
#
#
# Convention : Reuss Voigt Hill
#
# Bulk Modulus (GPa) = 25.55840 71.81184 48.68512
# Shear Modulus (GPa) = 16.76021 25.42332 21.09177
#
# Velocity S-wave (km/s) = 3.04354 3.74849 3.41426
# Velocity P-wave (km/s) = 5.14555 7.64358 6.51541
#
# Compressibility (1/GPa) = 0.03912608
#
# Stress axis : x y z
#
# Youngs Moduli (GPa) = 73.18564 16.30544 143.27942
#
# Poissons Ratio (x) = 0.26040 0.49452
# Poissons Ratio (y) = 1.16877 0.28682
# Poissons Ratio (z) = 0.25260 0.03264
#
# Static dielectric constant tensor:
#      x y z
#    x 3.400930 0.000000 0.000000 
#    y 0.000000 3.130760 0.000000 
#    z 0.000000 0.000000 3.636450 
# 
# 
# High freq. dielectric constant tensor:
#      x y z
#    x 1.693910 0.000000 0.000000 
#    y 0.000000 1.688800 0.000000 
#    z 0.000000 0.000000 1.698390 
# 
# From -- ./inp_files/70544.got.cif
#   From: 2010.03.12/outbox.cif.g09.slc.cpg/sg65_36_cif.got.tgz:70544.got - 2010.04.10 20:52:16.
