data_PCOD8271847
_publ_section_title
;
Structure prediction by ZEFSAII (Michael W. Deem and Ramdas Pophale) SiO2 
 PCOD8271847
Probable space group: C M M M
;
_chemical_formula_sum "Si O2"
_cell_formula_units_Z 88
_cell_length_a 8.889352
_cell_length_b 18.547622
_cell_length_c 28.435418
_cell_angle_alpha 90.000000
_cell_angle_beta 90.000000
_cell_angle_gamma 90.000000
_cell_volume 4688.327667
_symmetry_space_group_name_H-M "C M M M"
_symmetry_group_IT_number 65
_symmetry_cell_setting 'orthorhombic'
loop_
_space_group_symop_operation_xyz
x,y,z
-x,-y,z
x,-y,-z
-x,y,-z
-x,-y,-z
x,y,-z
-x,y,z
x,-y,z
1/2+x,1/2+y,z
1/2-x,1/2-y,z
1/2+x,1/2-y,-z
1/2-x,1/2+y,-z
1/2-x,1/2-y,-z
1/2+x,1/2+y,-z
1/2-x,1/2+y,z
1/2+x,1/2-y,z
loop_
_atom_site_type_symbol
_atom_site_label
_atom_site_fract_x
_atom_site_fract_y
_atom_site_fract_z
Si Si1 0.321367 0.671523 0.910375
Si Si2 0.831260 0.085568 0.267609
Si Si3 0.177338 0.325421 0.447744
Si Si4 0.675787 0.915810 0.827438
Si Si5 0.321537 0.581358 0.000000
Si Si6 0.325328 0.916283 0.360482
O O1 0.500000 0.679426 0.910004
O O2 0.250000 0.750000 0.914111
O O3 0.269286 0.631373 0.863701
O O4 0.263840 0.623980 0.954270
O O5 0.727674 0.109819 0.224146
O O6 0.763090 0.117186 0.315969
O O7 0.000000 0.115522 0.260650
O O8 0.831278 0.000000 0.270761
O O9 0.227352 0.351462 0.500000
O O10 0.250000 0.250000 0.434804
O O11 0.234252 0.381830 0.408898
O O12 0.000000 0.316315 0.445646
O O13 0.500000 0.899917 0.833105
O O14 0.712748 0.000000 0.835691
O O15 0.254419 0.500000 0.000000
O O16 0.500000 0.577269 0.000000
O O17 0.500000 0.900323 0.352042
O O18 0.291879 0.000000 0.365444
#
# Coordination Sequence:
#
# PCOD8271847 Si02
#       6
#    16  16  16  16   8  16
#     4  11  22  37  57  81 113 148 181 219 265 314
#     4   9  17  30  50  76 104 134 169 210 258 310
#     4   9  18  32  49  69  95 129 166 203 247 301
#     4  10  20  35  56  81 108 139 178 221 263 311
#     4   9  19  36  59  85 110 141 182 223 262 310
#     4   9  17  30  49  73 100 129 164 209 257 302
#
# _framework density 18.770019999999999
#
# number of rings (size 3 to 8) (size 9 to 14) (size 15 to 20)
#    0.000    2.455    0.000    2.455    0.000    5.091 
#    0.000    4.091    0.000    5.455    0.000    5.091 
#    0.000    0.000    0.000    0.000    0.000    0.000 
#
# Total GULP energy -545580.384099 kJ/mol
# GULP energy per Si atom -12399.554184 kJ/mol
# Density = 1.872730 g / cm^3
# Si number density = 18.770020 Si / 1000 Ang^3
#
#
#
# Elastic Constant Matrix: (Units=GPa)
#
#
# Indices 1 2 3 4 5 6 
#
# 1 66.0561 38.5427 46.2686 0.0000 0.0000 0.0000
# 2 38.5427 84.2383 67.1188 0.0000 0.0000 0.0000
# 3 46.2686 67.1188 158.3059 0.0000 0.0000 0.0000
# 4 0.0000 0.0000 0.0000 4.1602 0.0000 0.0000
# 5 0.0000 0.0000 0.0000 0.0000 28.8494 0.0000
# 6 0.0000 0.0000 0.0000 0.0000 0.0000 23.9254
#
#
#
# Elastic Compliance Matrix: (Units=1/GPa)
#
#
# Indices 1 2 3 4 5 6 
#
# 1 0.021686 -0.007358 -0.003219 0.000000 0.000000 0.000000
# 2 -0.007358 0.020424 -0.006509 0.000000 0.000000 0.000000
# 3 -0.003219 -0.006509 0.010017 0.000000 0.000000 0.000000
# 4 0.000000 0.000000 0.000000 0.240375 0.000000 0.000000
# 5 0.000000 0.000000 0.000000 0.000000 0.034663 0.000000
# 6 0.000000 0.000000 0.000000 0.000000 0.000000 0.041797
#
#
# Mechanical properties :
#
#
# Convention : Reuss Voigt Hill
#
# Bulk Modulus (GPa) = 55.69002 68.05116 61.87059
# Shear Modulus (GPa) = 12.22143 21.83167 17.02655
#
# Velocity S-wave (km/s) = 2.55446 3.41415 3.01510
# Velocity P-wave (km/s) = 6.19955 7.20249 6.71976
#
# Compressibility (1/GPa) = 0.01795654
#
# Stress axis : x y z
#
# Youngs Moduli (GPa) = 46.11191 48.96289 99.82801
#
# Poissons Ratio (x) = 0.36026 0.32132
# Poissons Ratio (y) = 0.33928 0.64976
# Poissons Ratio (z) = 0.14842 0.31869
#
# Static dielectric constant tensor:
#      x y z
#    x 3.420610 0.000000 0.000000 
#    y 0.000000 3.274720 0.000000 
#    z 0.000000 0.000000 3.815200 
# 
# 
# High freq. dielectric constant tensor:
#      x y z
#    x 1.724180 0.000000 0.000000 
#    y 0.000000 1.704290 0.000000 
#    z 0.000000 0.000000 1.748120 
# 
# From -- ./inp_files/67480.got.cif
#   From: 2010.03.12/outbox.cif.g09.slc.cpg/sg65_34_cif.got.tgz:67480.got - 2010.04.10 20:52:16.
