data_PCOD8271006
_publ_section_title
;
Structure prediction by ZEFSAII (Michael W. Deem and Ramdas Pophale) SiO2 
 PCOD8271006
Probable space group: C M M M
;
_chemical_formula_sum "Si O2"
_cell_formula_units_Z 72
_cell_length_a 26.838577
_cell_length_b 9.207116
_cell_length_c 16.181409
_cell_angle_alpha 90.000000
_cell_angle_beta 90.000000
_cell_angle_gamma 90.000000
_cell_volume 3998.521500
_symmetry_space_group_name_H-M "C M M M"
_symmetry_group_IT_number 65
_symmetry_cell_setting 'orthorhombic'
loop_
_space_group_symop_operation_xyz
x,y,z
-x,-y,z
x,-y,-z
-x,y,-z
-x,-y,-z
x,y,-z
-x,y,z
x,-y,z
1/2+x,1/2+y,z
1/2-x,1/2-y,z
1/2+x,1/2-y,-z
1/2-x,1/2+y,-z
1/2-x,1/2-y,-z
1/2+x,1/2+y,-z
1/2-x,1/2+y,z
1/2+x,1/2-y,z
loop_
_atom_site_type_symbol
_atom_site_label
_atom_site_fract_x
_atom_site_fract_y
_atom_site_fract_z
Si Si1 0.599703 0.170173 0.328813
Si Si2 0.299072 0.828894 0.242705
Si Si3 0.653997 0.330822 0.905895
Si Si4 0.555047 0.333621 0.181676
Si Si5 0.943451 0.327300 0.500000
O O1 0.656780 0.209121 0.306680
O O2 0.562280 0.240717 0.263915
O O3 0.586353 0.230148 0.419742
O O4 0.590495 0.000000 0.323398
O O5 0.250000 0.750000 0.277662
O O6 0.311061 0.766295 0.151937
O O7 0.289951 0.000000 0.235172
O O8 0.665577 0.500000 0.889491
O O9 0.595980 0.294866 0.887602
O O10 0.665262 0.287582 0.000000
O O11 0.500000 0.301453 0.145066
O O12 0.560491 0.500000 0.208630
O O13 0.944433 0.500000 0.500000
O O14 0.000000 0.266738 0.500000
#
# Coordination Sequence:
#
# PCOD8271006 Si02
#       5
#    16  16  16  16   8
#     4   9  18  32  50  72  96 124 160 198 233 275
#     4  10  20  34  52  71  93 123 158 197 241 286
#     4   9  18  32  49  70  96 125 159 198 237 280
#     4   9  17  29  46  69  98 130 160 192 233 280
#     4   9  16  28  50  77 101 125 155 191 228 269
#
# _framework density 18.006657000000001
#
# number of rings (size 3 to 8) (size 9 to 14) (size 15 to 20)
#    0.000    2.778    0.000    1.333    0.000    3.556 
#    0.000    3.333    0.000    2.000    0.000    6.222 
#    0.000    0.000    0.000    0.000    0.000    0.000 
#
# Total GULP energy -446358.367016 kJ/mol
# GULP energy per Si atom -12398.843528 kJ/mol
# Density = 1.796567 g / cm^3
# Si number density = 18.006657 Si / 1000 Ang^3
#
#
#
# Elastic Constant Matrix: (Units=GPa)
#
#
# Indices 1 2 3 4 5 6 
#
# 1 109.9085 34.7052 37.7479 0.0000 0.0000 0.0000
# 2 34.7052 45.5085 27.8168 0.0000 0.0000 0.0000
# 3 37.7479 27.8168 104.0122 0.0000 0.0000 0.0000
# 4 0.0000 0.0000 0.0000 20.1963 0.0000 0.0000
# 5 0.0000 0.0000 0.0000 0.0000 16.6874 0.0000
# 6 0.0000 0.0000 0.0000 0.0000 0.0000 25.1503
#
#
#
# Elastic Compliance Matrix: (Units=1/GPa)
#
#
# Indices 1 2 3 4 5 6 
#
# 1 0.012453 -0.008051 -0.002367 0.000000 0.000000 0.000000
# 2 -0.008051 0.031472 -0.005495 0.000000 0.000000 0.000000
# 3 -0.002367 -0.005495 0.011943 0.000000 0.000000 0.000000
# 4 0.000000 0.000000 0.000000 0.049514 0.000000 0.000000
# 5 0.000000 0.000000 0.000000 0.000000 0.059925 0.000000
# 6 0.000000 0.000000 0.000000 0.000000 0.000000 0.039761
#
#
# Mechanical properties :
#
#
# Convention : Reuss Voigt Hill
#
# Bulk Modulus (GPa) = 41.59069 51.10766 46.34917
# Shear Modulus (GPa) = 20.41587 23.01743 21.71665
#
# Velocity S-wave (km/s) = 3.37084 3.57917 3.47657
# Velocity P-wave (km/s) = 6.18851 6.74722 6.47389
#
# Compressibility (1/GPa) = 0.02404384
#
# Stress axis : x y z
#
# Youngs Moduli (GPa) = 80.29985 31.77404 83.73299
#
# Poissons Ratio (x) = 0.25580 0.19816
# Poissons Ratio (y) = 0.64645 0.46013
# Poissons Ratio (z) = 0.19003 0.17460
#
# Static dielectric constant tensor:
#      x y z
#    x 3.486820 0.000000 0.000000 
#    y 0.000000 3.207230 0.000000 
#    z 0.000000 0.000000 3.335680 
# 
# 
# High freq. dielectric constant tensor:
#      x y z
#    x 1.705990 0.000000 0.000000 
#    y 0.000000 1.684040 0.000000 
#    z 0.000000 0.000000 1.682120 
# 
# From -- ./inp_files/36538.got.cif
#   From: 2010.03.12/outbox.cif.g09.slc.cpg/sg65_19_cif.got.tgz:36538.got - 2010.04.10 20:52:16.
