data_PCOD8271568
_publ_section_title
;
Structure prediction by ZEFSAII (Michael W. Deem and Ramdas Pophale) SiO2 
 PCOD8271568
Probable space group: C M M M
;
_chemical_formula_sum "Si O2"
_cell_formula_units_Z 88
_cell_length_a 17.732315
_cell_length_b 16.723679
_cell_length_c 14.191968
_cell_angle_alpha 90.000000
_cell_angle_beta 90.000000
_cell_angle_gamma 90.000000
_cell_volume 4208.621639
_symmetry_space_group_name_H-M "C M M M"
_symmetry_group_IT_number 65
_symmetry_cell_setting 'orthorhombic'
loop_
_space_group_symop_operation_xyz
x,y,z
-x,-y,z
x,-y,-z
-x,y,-z
-x,-y,-z
x,y,-z
-x,y,z
x,-y,z
1/2+x,1/2+y,z
1/2-x,1/2-y,z
1/2+x,1/2-y,-z
1/2-x,1/2+y,-z
1/2-x,1/2-y,-z
1/2+x,1/2+y,-z
1/2-x,1/2+y,z
1/2+x,1/2-y,z
loop_
_atom_site_type_symbol
_atom_site_label
_atom_site_fract_x
_atom_site_fract_y
_atom_site_fract_z
Si Si1 0.358108 0.907820 0.274892
Si Si2 0.133863 0.908334 0.898817
Si Si3 0.000000 0.404850 0.393671
Si Si4 0.288133 0.166580 0.105718
Si Si5 0.584711 0.594134 0.299694
Si Si6 0.728025 0.659804 0.391145
O O1 0.426220 0.873597 0.338541
O O2 0.354593 0.856735 0.178067
O O3 0.280106 0.899809 0.331651
O O4 0.372242 0.000000 0.249446
O O5 0.223775 0.900763 0.885900
O O6 0.091473 0.872338 0.807921
O O7 0.111618 0.000000 0.905664
O O8 0.110560 0.867124 0.000000
O O9 0.000000 0.500000 0.399019
O O10 0.000000 0.369438 0.500000
O O11 0.250000 0.250000 0.135367
O O12 0.321916 0.171400 0.000000
O O13 0.500000 0.609830 0.335927
O O14 0.604814 0.500000 0.303474
O O15 0.640881 0.643294 0.366345
O O16 0.741802 0.641523 0.500000
O O17 0.750000 0.750000 0.364876
#
# Coordination Sequence:
#
# PCOD8271568 Si02
#       6
#    16  16   8  16  16  16
#     4  11  21  37  62  87 113 151 200 252 304 359
#     4   9  17  31  53  82 115 151 191 233 280 344
#     4   9  20  38  59  87 117 147 195 258 314 356
#     4  10  20  34  56  85 118 153 192 240 297 362
#     4  10  21  37  59  90 124 157 197 247 304 361
#     4  11  24  41  59  83 115 154 201 246 298 368
#
# _framework density 20.909458000000001
#
# number of rings (size 3 to 8) (size 9 to 14) (size 15 to 20)
#    0.000    1.909    1.818    2.182    0.000    4.000 
#    1.636    3.182    0.000    1.636    0.000    0.000 
#    0.000    0.000    0.000    0.000    0.000    0.000 
#
# Total GULP energy -545494.807656 kJ/mol
# GULP energy per Si atom -12397.609265 kJ/mol
# Density = 2.086187 g / cm^3
# Si number density = 20.909458 Si / 1000 Ang^3
#
#
#
# Elastic Constant Matrix: (Units=GPa)
#
#
# Indices 1 2 3 4 5 6 
#
# 1 113.2377 27.2376 51.6051 0.0000 0.0000 0.0000
# 2 27.2376 56.8200 44.5076 0.0000 0.0000 0.0000
# 3 51.6051 44.5076 140.8259 0.0000 0.0000 0.0000
# 4 0.0000 0.0000 0.0000 28.4629 0.0000 0.0000
# 5 0.0000 0.0000 0.0000 0.0000 30.2870 0.0000
# 6 0.0000 0.0000 0.0000 0.0000 0.0000 23.7025
#
#
#
# Elastic Compliance Matrix: (Units=1/GPa)
#
#
# Indices 1 2 3 4 5 6 
#
# 1 0.010925 -0.002792 -0.003121 0.000000 0.000000 0.000000
# 2 -0.002792 0.024104 -0.006595 0.000000 0.000000 0.000000
# 3 -0.003121 -0.006595 0.010329 0.000000 0.000000 0.000000
# 4 0.000000 0.000000 0.000000 0.035133 0.000000 0.000000
# 5 0.000000 0.000000 0.000000 0.000000 0.033018 0.000000
# 6 0.000000 0.000000 0.000000 0.000000 0.000000 0.042190
#
#
# Mechanical properties :
#
#
# Convention : Reuss Voigt Hill
#
# Bulk Modulus (GPa) = 49.16043 61.95379 55.55711
# Shear Modulus (GPa) = 26.66749 28.99270 27.83009
#
# Velocity S-wave (km/s) = 3.57512 3.72772 3.65222
# Velocity P-wave (km/s) = 6.37214 6.94419 6.66430
#
# Compressibility (1/GPa) = 0.02034156
#
# Stress axis : x y z
#
# Youngs Moduli (GPa) = 91.53403 41.48750 96.81677
#
# Poissons Ratio (x) = 0.11585 0.30215
# Poissons Ratio (y) = 0.25560 0.63847
# Poissons Ratio (z) = 0.28566 0.27359
#
# Static dielectric constant tensor:
#      x y z
#    x 3.634360 0.000000 0.000000 
#    y 0.000000 3.535540 0.000000 
#    z 0.000000 0.000000 4.142460 
# 
# 
# High freq. dielectric constant tensor:
#      x y z
#    x 1.794400 0.000000 0.000000 
#    y 0.000000 1.795440 0.000000 
#    z 0.000000 0.000000 1.835690 
# 
# From -- ./inp_files/42486.got.cif
#   From: 2010.03.12/outbox.cif.g09.slc.cpg/sg65_22_cif.got.tgz:42486.got - 2010.04.10 20:52:16.
