data_PCOD8271187
_publ_section_title
;
Structure prediction by ZEFSAII (Michael W. Deem and Ramdas Pophale) SiO2 
 PCOD8271187
Probable space group: C M M M
;
_chemical_formula_sum "Si O2"
_cell_formula_units_Z 120
_cell_length_a 8.885830
_cell_length_b 28.559700
_cell_length_c 26.573636
_cell_angle_alpha 90.000000
_cell_angle_beta 90.000000
_cell_angle_gamma 90.000000
_cell_volume 6743.768031
_symmetry_space_group_name_H-M "C M M M"
_symmetry_group_IT_number 65
_symmetry_cell_setting 'orthorhombic'
loop_
_space_group_symop_operation_xyz
x,y,z
-x,-y,z
x,-y,-z
-x,y,-z
-x,-y,-z
x,y,-z
-x,y,z
x,-y,z
1/2+x,1/2+y,z
1/2-x,1/2-y,z
1/2+x,1/2-y,-z
1/2-x,1/2+y,-z
1/2-x,1/2-y,-z
1/2+x,1/2+y,-z
1/2-x,1/2+y,z
1/2+x,1/2-y,z
loop_
_atom_site_type_symbol
_atom_site_label
_atom_site_fract_x
_atom_site_fract_y
_atom_site_fract_z
Si Si1 0.322461 0.889214 0.095253
Si Si2 0.834939 0.448847 0.441299
Si Si3 0.178825 0.552364 0.000000
Si Si4 0.178101 0.947694 0.295552
Si Si5 0.173720 0.878950 0.619106
Si Si6 0.677023 0.298393 0.057923
Si Si7 0.323572 0.199976 0.442937
Si Si8 0.326063 0.445830 0.818918
O O1 0.500000 0.881920 0.092113
O O2 0.261935 0.921016 0.049362
O O3 0.243231 0.839006 0.092812
O O4 0.279963 0.913863 0.147164
O O5 0.826804 0.454093 0.500000
O O6 0.815350 0.500000 0.416481
O O7 0.697291 0.416494 0.424945
O O8 0.000000 0.427895 0.425921
O O9 0.246682 0.500000 0.000000
O O10 0.000000 0.550292 0.000000
O O11 0.240289 0.905448 0.331025
O O12 0.221470 0.935395 0.238412
O O13 0.000000 0.949562 0.301872
O O14 0.241476 0.000000 0.309206
O O15 0.263020 0.832831 0.602060
O O16 0.000000 0.865540 0.625384
O O17 0.500000 0.295083 0.065564
O O18 0.750000 0.250000 0.076100
O O19 0.720854 0.308584 0.000000
O O20 0.286601 0.181271 0.500000
O O21 0.500000 0.205300 0.435939
O O22 0.250000 0.250000 0.434867
O O23 0.500000 0.432822 0.828155
O O24 0.297448 0.500000 0.832128
#
# Coordination Sequence:
#
# PCOD8271187 Si02
#       8
#    16  16   8  16  16  16  16  16
#     4  11  20  32  51  75 106 139 173 211 260 313
#     4   9  18  31  44  62  95 136 169 198 240 292
#     4   9  18  30  44  67 102 139 168 199 246 303
#     4   8  16  32  52  74 102 136 173 213 257 303
#     4  11  20  30  50  77 101 128 166 209 254 303
#     4  10  20  34  53  76 104 135 172 211 251 299
#     4  10  21  37  55  75 102 135 170 209 255 308
#     4   9  18  34  54  74 100 137 178 218 260 305
#
# _framework density 17.794205999999999
#
# number of rings (size 3 to 8) (size 9 to 14) (size 15 to 20)
#    0.000    2.333    0.667    4.000    0.000    4.800 
#    0.000    2.000    0.000    4.000    0.000    3.733 
#    0.000    0.000    0.000    0.000    0.000    0.000 
#
# Total GULP energy -743679.191891 kJ/mol
# GULP energy per Si atom -12394.653198 kJ/mol
# Density = 1.775371 g / cm^3
# Si number density = 17.794206 Si / 1000 Ang^3
#
#
#
# Elastic Constant Matrix: (Units=GPa)
#
#
# Indices 1 2 3 4 5 6 
#
# 1 60.9573 43.3104 32.9196 0.0000 0.0000 0.0000
# 2 43.3104 121.2036 64.1904 0.0000 0.0000 0.0000
# 3 32.9196 64.1904 95.5949 0.0000 0.0000 0.0000
# 4 0.0000 0.0000 0.0000 30.0757 0.0000 0.0000
# 5 0.0000 0.0000 0.0000 0.0000 22.6810 0.0000
# 6 0.0000 0.0000 0.0000 0.0000 0.0000 28.5003
#
#
#
# Elastic Compliance Matrix: (Units=1/GPa)
#
#
# Indices 1 2 3 4 5 6 
#
# 1 0.022798 -0.006190 -0.003694 0.000000 0.000000 0.000000
# 2 -0.006190 0.014485 -0.007595 0.000000 0.000000 0.000000
# 3 -0.003694 -0.007595 0.016833 0.000000 0.000000 0.000000
# 4 0.000000 0.000000 0.000000 0.033249 0.000000 0.000000
# 5 0.000000 0.000000 0.000000 0.000000 0.044090 0.000000
# 6 0.000000 0.000000 0.000000 0.000000 0.000000 0.035087
#
#
# Mechanical properties :
#
#
# Convention : Reuss Voigt Hill
#
# Bulk Modulus (GPa) = 52.19900 62.06627 57.13264
# Shear Modulus (GPa) = 24.05168 25.40708 24.72938
#
# Velocity S-wave (km/s) = 3.68048 3.78276 3.73197
# Velocity P-wave (km/s) = 6.88910 7.35084 7.12371
#
# Compressibility (1/GPa) = 0.01915746
#
# Stress axis : x y z
#
# Youngs Moduli (GPa) = 43.86337 69.03866 59.40833
#
# Poissons Ratio (x) = 0.42735 0.21948
# Poissons Ratio (y) = 0.27151 0.45118
# Poissons Ratio (z) = 0.16205 0.52432
#
# Static dielectric constant tensor:
#      x y z
#    x 3.182150 0.000000 0.000000 
#    y 0.000000 3.394240 0.000000 
#    z 0.000000 0.000000 3.262280 
# 
# 
# High freq. dielectric constant tensor:
#      x y z
#    x 1.677640 0.000000 0.000000 
#    y 0.000000 1.687730 0.000000 
#    z 0.000000 0.000000 1.671070 
# 
# From -- ./inp_files/73881.got.cif
#   From: 2010.03.12/outbox.cif.g09.slc.cpg/sg65_37_cif.got.tgz:73881.got - 2010.04.10 20:52:16.
