data_PCOD8271308
_publ_section_title
;
Structure prediction by ZEFSAII (Michael W. Deem and Ramdas Pophale) SiO2 
 PCOD8271308
Probable space group: C M M M
;
_chemical_formula_sum "Si O2"
_cell_formula_units_Z 88
_cell_length_a 16.280957
_cell_length_b 9.275269
_cell_length_c 29.743372
_cell_angle_alpha 90.000000
_cell_angle_beta 90.000000
_cell_angle_gamma 90.000000
_cell_volume 4491.554213
_symmetry_space_group_name_H-M "C M M M"
_symmetry_group_IT_number 65
_symmetry_cell_setting 'orthorhombic'
loop_
_space_group_symop_operation_xyz
x,y,z
-x,-y,z
x,-y,-z
-x,y,-z
-x,-y,-z
x,y,-z
-x,y,z
x,-y,z
1/2+x,1/2+y,z
1/2-x,1/2-y,z
1/2+x,1/2-y,-z
1/2-x,1/2+y,-z
1/2-x,1/2-y,-z
1/2+x,1/2+y,-z
1/2-x,1/2+y,z
1/2+x,1/2-y,z
loop_
_atom_site_type_symbol
_atom_site_label
_atom_site_fract_x
_atom_site_fract_y
_atom_site_fract_z
Si Si1 0.404509 0.159420 0.141075
Si Si2 0.405605 0.658139 0.778301
Si Si3 0.167930 0.331677 0.296572
Si Si4 0.334120 0.168494 0.049022
Si Si5 0.500000 0.829116 0.551328
Si Si6 0.166188 0.331827 0.400803
O O1 0.500000 0.149356 0.150940
O O2 0.363474 0.264410 0.178382
O O3 0.392145 0.217541 0.090169
O O4 0.365088 0.000000 0.146467
O O5 0.500000 0.634682 0.789238
O O6 0.364594 0.500000 0.770761
O O7 0.401197 0.758419 0.734010
O O8 0.175005 0.500000 0.285795
O O9 0.250000 0.250000 0.282310
O O10 0.147396 0.304805 0.348598
O O11 0.250000 0.250000 0.055353
O O12 0.315737 0.000000 0.051490
O O13 0.373884 0.206480 0.000000
O O14 0.500000 0.777167 0.500000
O O15 0.415173 0.771098 0.573790
O O16 0.500000 0.000000 0.556159
O O17 0.180472 0.500000 0.411490
O O18 0.250000 0.250000 0.415929
#
# Coordination Sequence:
#
# PCOD8271308 Si02
#       6
#    16  16  16  16   8  16
#     4   9  18  33  51  71  97 130 168 207 251 303
#     4  10  21  35  51  74 104 136 171 212 260 311
#     4  10  20  34  54  77 105 137 177 221 265 318
#     4   9  18  32  50  72  96 123 158 201 249 301
#     4   9  18  34  57  85 115 151 193 231 276 337
#     4   9  19  35  56  82 113 148 188 234 281 331
#
# _framework density 19.592327999999998
#
# number of rings (size 3 to 8) (size 9 to 14) (size 15 to 20)
#    0.000    2.636    0.000    1.091    1.273    4.000 
#    0.000    4.091    0.000    0.545    0.000    5.091 
#    0.000    0.000    0.000    0.000    0.000    0.000 
#
# Total GULP energy -545257.505434 kJ/mol
# GULP energy per Si atom -12392.216033 kJ/mol
# Density = 1.954774 g / cm^3
# Si number density = 19.592328 Si / 1000 Ang^3
#
#
#
# Elastic Constant Matrix: (Units=GPa)
#
#
# Indices 1 2 3 4 5 6 
#
# 1 75.2870 36.2586 50.2571 0.0000 0.0000 0.0000
# 2 36.2586 92.5115 60.3180 0.0000 0.0000 0.0000
# 3 50.2571 60.3180 128.9410 0.0000 0.0000 0.0000
# 4 0.0000 0.0000 0.0000 20.5741 0.0000 0.0000
# 5 0.0000 0.0000 0.0000 0.0000 22.8639 0.0000
# 6 0.0000 0.0000 0.0000 0.0000 0.0000 25.8566
#
#
#
# Elastic Compliance Matrix: (Units=1/GPa)
#
#
# Indices 1 2 3 4 5 6 
#
# 1 0.018807 -0.003729 -0.005586 0.000000 0.000000 0.000000
# 2 -0.003729 0.016293 -0.006168 0.000000 0.000000 0.000000
# 3 -0.005586 -0.006168 0.012818 0.000000 0.000000 0.000000
# 4 0.000000 0.000000 0.000000 0.048605 0.000000 0.000000
# 5 0.000000 0.000000 0.000000 0.000000 0.043737 0.000000
# 6 0.000000 0.000000 0.000000 0.000000 0.000000 0.038675
#
#
# Mechanical properties :
#
#
# Convention : Reuss Voigt Hill
#
# Bulk Modulus (GPa) = 58.99153 65.60077 62.29615
# Shear Modulus (GPa) = 23.19624 23.85265 23.52445
#
# Velocity S-wave (km/s) = 3.44458 3.49298 3.46887
# Velocity P-wave (km/s) = 6.78197 7.05857 6.92165
#
# Compressibility (1/GPa) = 0.01695159
#
# Stress axis : x y z
#
# Youngs Moduli (GPa) = 53.17061 61.37708 78.01421
#
# Poissons Ratio (x) = 0.22889 0.43579
# Poissons Ratio (y) = 0.19828 0.48120
# Poissons Ratio (z) = 0.29701 0.37858
#
# Static dielectric constant tensor:
#      x y z
#    x 3.219100 0.000000 0.000000 
#    y 0.000000 3.705000 0.000000 
#    z 0.000000 0.000000 3.744830 
# 
# 
# High freq. dielectric constant tensor:
#      x y z
#    x 1.740990 0.000000 0.000000 
#    y 0.000000 1.754480 0.000000 
#    z 0.000000 0.000000 1.772690 
# 
# From -- ./inp_files/77961.got.cif
#   From: 2010.03.12/outbox.cif.g09.slc.cpg/sg65_39_cif.got.tgz:77961.got - 2010.04.10 20:52:16.
