data_PCOD8271305
_publ_section_title
;
Structure prediction by ZEFSAII (Michael W. Deem and Ramdas Pophale) SiO2 
 PCOD8271305
Probable space group: C M M M
;
_chemical_formula_sum "Si O2"
_cell_formula_units_Z 104
_cell_length_a 23.205857
_cell_length_b 26.364649
_cell_length_c 9.097251
_cell_angle_alpha 90.000000
_cell_angle_beta 90.000000
_cell_angle_gamma 90.000000
_cell_volume 5565.828021
_symmetry_space_group_name_H-M "C M M M"
_symmetry_group_IT_number 65
_symmetry_cell_setting 'orthorhombic'
loop_
_space_group_symop_operation_xyz
x,y,z
-x,-y,z
x,-y,-z
-x,y,-z
-x,-y,-z
x,y,-z
-x,y,z
x,-y,z
1/2+x,1/2+y,z
1/2-x,1/2-y,z
1/2+x,1/2-y,-z
1/2-x,1/2+y,-z
1/2-x,1/2-y,-z
1/2+x,1/2+y,-z
1/2-x,1/2+y,z
1/2+x,1/2-y,z
loop_
_atom_site_type_symbol
_atom_site_label
_atom_site_fract_x
_atom_site_fract_y
_atom_site_fract_z
Si Si1 0.068268 0.098138 0.834637
Si Si2 0.647664 0.785250 0.828066
Si Si3 0.931297 0.000000 0.334481
Si Si4 0.934478 0.623191 0.171617
Si Si5 0.844046 0.442912 0.328446
Si Si6 0.264387 0.851961 0.330752
Si Si7 0.137031 0.179186 0.328798
O O1 0.086733 0.148549 0.750485
O O2 0.000000 0.096695 0.838053
O O3 0.092732 0.049249 0.749115
O O4 0.093158 0.097942 0.000000
O O5 0.594899 0.822932 0.792536
O O6 0.707058 0.810012 0.773459
O O7 0.637205 0.734635 0.738622
O O8 0.652752 0.773050 0.000000
O O9 0.906600 0.000000 0.500000
O O10 0.000000 0.000000 0.336575
O O11 0.901359 0.577597 0.250732
O O12 0.000000 0.625189 0.229139
O O13 0.931833 0.611651 0.000000
O O14 0.857103 0.442237 0.500000
O O15 0.830680 0.500000 0.273429
O O16 0.788839 0.407721 0.290455
O O17 0.278392 0.838071 0.500000
O O18 0.196524 0.850777 0.300806
O O19 0.122779 0.183581 0.500000
#
# Coordination Sequence:
#
# PCOD8271305 Si02
#       7
#    16  16   8  16  16  16  16
#     4  10  21  37  56  78 107 141 175 215 264 316
#     4  10  20  34  54  77 103 140 180 221 269 320
#     4   9  17  33  57  79 101 133 171 209 252 305
#     4   9  19  35  53  75 105 140 177 215 260 317
#     4   9  18  34  55  77 104 138 175 216 262 312
#     4   9  19  36  54  75 104 139 177 219 268 320
#     4  11  22  35  53  80 108 138 178 223 268 320
#
# _framework density 18.685449999999999
#
# number of rings (size 3 to 8) (size 9 to 14) (size 15 to 20)
#    0.000    2.385    0.000    2.077    0.000    7.077 
#    1.385    3.077    0.000    0.000    0.000    0.000 
#    0.000    0.000    0.000    0.000    0.000    0.000 
#
# Total GULP energy -644918.131868 kJ/mol
# GULP energy per Si atom -12402.271767 kJ/mol
# Density = 1.864292 g / cm^3
# Si number density = 18.685450 Si / 1000 Ang^3
#
#
#
# Elastic Constant Matrix: (Units=GPa)
#
#
# Indices 1 2 3 4 5 6 
#
# 1 32.2987 31.1311 22.9217 0.0000 0.0000 0.0000
# 2 31.1311 140.7797 65.4642 0.0000 0.0000 0.0000
# 3 22.9217 65.4642 107.3585 0.0000 0.0000 0.0000
# 4 0.0000 0.0000 0.0000 30.8597 0.0000 0.0000
# 5 0.0000 0.0000 0.0000 0.0000 27.9396 0.0000
# 6 0.0000 0.0000 0.0000 0.0000 0.0000 15.0515
#
#
#
# Elastic Compliance Matrix: (Units=1/GPa)
#
#
# Indices 1 2 3 4 5 6 
#
# 1 0.040837 -0.006945 -0.004484 0.000000 0.000000 0.000000
# 2 -0.006945 0.011096 -0.005283 0.000000 0.000000 0.000000
# 3 -0.004484 -0.005283 0.013493 0.000000 0.000000 0.000000
# 4 0.000000 0.000000 0.000000 0.032405 0.000000 0.000000
# 5 0.000000 0.000000 0.000000 0.000000 0.035791 0.000000
# 6 0.000000 0.000000 0.000000 0.000000 0.000000 0.066438
#
#
# Mechanical properties :
#
#
# Convention : Reuss Voigt Hill
#
# Bulk Modulus (GPa) = 31.24815 57.71901 44.48358
# Shear Modulus (GPa) = 20.47892 25.49816 22.98854
#
# Velocity S-wave (km/s) = 3.31415 3.69806 3.51136
# Velocity P-wave (km/s) = 5.60396 7.01363 6.34805
#
# Compressibility (1/GPa) = 0.03200190
#
# Stress axis : x y z
#
# Youngs Moduli (GPa) = 24.48731 90.12378 74.11050
#
# Poissons Ratio (x) = 0.62595 0.33230
# Poissons Ratio (y) = 0.17008 0.39153
# Poissons Ratio (z) = 0.10980 0.47613
#
# Static dielectric constant tensor:
#      x y z
#    x 3.341630 0.000000 0.000000 
#    y 0.000000 3.581130 0.000000 
#    z 0.000000 0.000000 3.576890 
# 
# 
# High freq. dielectric constant tensor:
#      x y z
#    x 1.709560 0.000000 0.000000 
#    y 0.000000 1.731840 0.000000 
#    z 0.000000 0.000000 1.733550 
# 
# From -- ./inp_files/14776.got.cif
#   From: 2010.03.12/outbox.cif.g09.slc.cpg/sg65_8_cif.got.tgz:14776.got - 2010.04.10 20:52:16.
