data_PCOD8271250
_publ_section_title
;
Structure prediction by ZEFSAII (Michael W. Deem and Ramdas Pophale) SiO2 
 PCOD8271250
Probable space group: C M M M
;
_chemical_formula_sum "Si O2"
_cell_formula_units_Z 80
_cell_length_a 7.892801
_cell_length_b 18.136663
_cell_length_c 27.572452
_cell_angle_alpha 90.000000
_cell_angle_beta 90.000000
_cell_angle_gamma 90.000000
_cell_volume 3946.970913
_symmetry_space_group_name_H-M "C M M M"
_symmetry_group_IT_number 65
_symmetry_cell_setting 'orthorhombic'
loop_
_space_group_symop_operation_xyz
x,y,z
-x,-y,z
x,-y,-z
-x,y,-z
-x,-y,-z
x,y,-z
-x,y,z
x,-y,z
1/2+x,1/2+y,z
1/2-x,1/2-y,z
1/2+x,1/2-y,-z
1/2-x,1/2+y,-z
1/2-x,1/2-y,-z
1/2+x,1/2+y,-z
1/2-x,1/2+y,z
1/2+x,1/2-y,z
loop_
_atom_site_type_symbol
_atom_site_label
_atom_site_fract_x
_atom_site_fract_y
_atom_site_fract_z
Si Si1 0.200068 0.834367 0.094776
Si Si2 0.797965 0.083470 0.000000
Si Si3 0.806670 0.413433 0.379010
Si Si4 0.803914 0.333961 0.720401
Si Si5 0.500000 0.587419 0.554112
Si Si6 0.194985 0.918690 0.187029
O O1 0.250000 0.750000 0.093958
O O2 0.274251 0.875011 0.047371
O O3 0.279311 0.872902 0.142811
O O4 0.000000 0.841185 0.095347
O O5 0.000000 0.084465 0.000000
O O6 0.729559 0.000000 0.000000
O O7 0.787605 0.500000 0.369325
O O8 0.756471 0.372239 0.329984
O O9 0.672237 0.385882 0.419273
O O10 0.000000 0.394506 0.395488
O O11 0.750000 0.250000 0.717434
O O12 0.706498 0.374715 0.763028
O O13 0.000000 0.341118 0.732114
O O14 0.500000 0.500000 0.551470
O O15 0.500000 0.621314 0.500000
O O16 0.000000 0.929374 0.174467
O O17 0.280454 0.000000 0.191440
#
# Coordination Sequence:
#
# PCOD8271250 Si02
#       6
#    16   8  16  16   8  16
#     4  10  20  34  53  78 106 139 179 225 275 334
#     4   9  17  32  55  77 100 135 182 230 276 327
#     4   9  19  35  55  82 114 148 189 237 285 339
#     4  11  23  37  55  81 109 146 185 226 276 335
#     4   9  18  32  56  88 116 148 189 234 288 340
#     4  10  21  36  55  79 108 141 180 226 277 333
#
# _framework density 20.268709000000001
#
# number of rings (size 3 to 8) (size 9 to 14) (size 15 to 20)
#    0.000    2.200    0.000    2.700    2.800    6.400 
#    0.000    2.000    0.000    3.000    0.000    0.000 
#    0.000    0.000    0.000    0.000    0.000    0.000 
#
# Total GULP energy -495966.402237 kJ/mol
# GULP energy per Si atom -12399.160056 kJ/mol
# Density = 2.022258 g / cm^3
# Si number density = 20.268709 Si / 1000 Ang^3
#
#
#
# Elastic Constant Matrix: (Units=GPa)
#
#
# Indices 1 2 3 4 5 6 
#
# 1 58.1906 27.1090 54.4248 0.0000 0.0000 0.0000
# 2 27.1090 137.1007 86.8908 0.0000 0.0000 0.0000
# 3 54.4248 86.8908 188.4581 0.0000 0.0000 0.0000
# 4 0.0000 0.0000 0.0000 17.4806 0.0000 0.0000
# 5 0.0000 0.0000 0.0000 0.0000 12.2994 0.0000
# 6 0.0000 0.0000 0.0000 0.0000 0.0000 22.3789
#
#
#
# Elastic Compliance Matrix: (Units=1/GPa)
#
#
# Indices 1 2 3 4 5 6 
#
# 1 0.023567 -0.000490 -0.006580 0.000000 0.000000 0.000000
# 2 -0.000490 0.010315 -0.004615 0.000000 0.000000 0.000000
# 3 -0.006580 -0.004615 0.009334 0.000000 0.000000 0.000000
# 4 0.000000 0.000000 0.000000 0.057206 0.000000 0.000000
# 5 0.000000 0.000000 0.000000 0.000000 0.081305 0.000000
# 6 0.000000 0.000000 0.000000 0.000000 0.000000 0.044685
#
#
# Mechanical properties :
#
#
# Convention : Reuss Voigt Hill
#
# Bulk Modulus (GPa) = 50.38308 80.06651 65.22480
# Shear Modulus (GPa) = 19.50094 24.78678 22.14386
#
# Velocity S-wave (km/s) = 3.10517 3.50080 3.30891
# Velocity P-wave (km/s) = 6.14554 7.47858 6.84459
#
# Compressibility (1/GPa) = 0.01984793
#
# Stress axis : x y z
#
# Youngs Moduli (GPa) = 42.43139 96.94301 107.13325
#
# Poissons Ratio (x) = 0.04746 0.70497
# Poissons Ratio (y) = 0.02077 0.49438
# Poissons Ratio (z) = 0.27921 0.44736
#
# Static dielectric constant tensor:
#      x y z
#    x 3.611230 0.000000 0.000000 
#    y 0.000000 3.446580 0.000000 
#    z 0.000000 0.000000 3.867270 
# 
# 
# High freq. dielectric constant tensor:
#      x y z
#    x 1.778950 0.000000 0.000000 
#    y 0.000000 1.789980 0.000000 
#    z 0.000000 0.000000 1.797440 
# 
# From -- ./inp_files/72933.got.cif
#   From: 2010.03.12/outbox.cif.g09.slc.cpg/sg65_37_cif.got.tgz:72933.got - 2010.04.10 20:52:16.
