data_PCOD8271700
_publ_section_title
;
Structure prediction by ZEFSAII (Michael W. Deem and Ramdas Pophale) SiO2 
 PCOD8271700
Probable space group: C M M M
;
_chemical_formula_sum "Si O2"
_cell_formula_units_Z 72
_cell_length_a 8.796892
_cell_length_b 28.069417
_cell_length_c 18.468547
_cell_angle_alpha 90.000000
_cell_angle_beta 90.000000
_cell_angle_gamma 90.000000
_cell_volume 4560.320663
_symmetry_space_group_name_H-M "C M M M"
_symmetry_group_IT_number 65
_symmetry_cell_setting 'orthorhombic'
loop_
_space_group_symop_operation_xyz
x,y,z
-x,-y,z
x,-y,-z
-x,y,-z
-x,-y,-z
x,y,-z
-x,y,z
x,-y,z
1/2+x,1/2+y,z
1/2-x,1/2-y,z
1/2+x,1/2-y,-z
1/2-x,1/2+y,-z
1/2-x,1/2-y,-z
1/2+x,1/2+y,-z
1/2-x,1/2+y,z
1/2+x,1/2-y,z
loop_
_atom_site_type_symbol
_atom_site_label
_atom_site_fract_x
_atom_site_fract_y
_atom_site_fract_z
Si Si1 0.672077 0.556366 0.500000
Si Si2 0.819809 0.053222 0.076522
Si Si3 0.175775 0.943284 0.233228
Si Si4 0.178503 0.606640 0.634162
Si Si5 0.322339 0.299775 0.583806
O O1 0.672951 0.500000 0.500000
O O2 0.500000 0.576475 0.500000
O O3 0.755035 0.573936 0.428681
O O4 0.770504 0.076391 0.153366
O O5 0.000000 0.050305 0.078881
O O6 0.752965 0.000000 0.074077
O O7 0.768582 0.079135 0.000000
O O8 0.283742 0.917221 0.289573
O O9 0.000000 0.930400 0.249309
O O10 0.198494 0.000000 0.237937
O O11 0.249319 0.659198 0.632451
O O12 0.000000 0.610605 0.623694
O O13 0.285580 0.311037 0.500000
O O14 0.500000 0.297233 0.598703
O O15 0.250000 0.250000 0.607804
#
# Coordination Sequence:
#
# PCOD8271700 Si02
#       5
#     8  16  16  16  16
#     4  11  23  37  50  63  84 119 161 199 233 269
#     4   7  10  19  38  63  87 113 150 193 231 267
#     4   9  17  29  45  65  92 126 160 194 232 272
#     4  12  23  33  47  67  93 122 155 191 229 273
#     4  10  20  35  55  73  91 113 144 187 235 281
#
# _framework density 15.788363
#
# number of rings (size 3 to 8) (size 9 to 14) (size 15 to 20)
#    0.000    2.333    1.111    5.667    0.000    4.889 
#    0.000    0.000    0.000    0.667    0.000    3.111 
#    0.000    0.889    0.000    2.444    0.000    3.556 
#
# Total GULP energy -446065.936402 kJ/mol
# GULP energy per Si atom -12390.720456 kJ/mol
# Density = 1.575243 g / cm^3
# Si number density = 15.788363 Si / 1000 Ang^3
#
#
#
# Elastic Constant Matrix: (Units=GPa)
#
#
# Indices 1 2 3 4 5 6 
#
# 1 80.7086 34.1633 35.8854 0.0000 0.0000 0.0000
# 2 34.1633 63.4367 38.0724 0.0000 0.0000 0.0000
# 3 35.8854 38.0724 130.2502 0.0000 0.0000 0.0000
# 4 0.0000 0.0000 0.0000 1.9677 0.0000 0.0000
# 5 0.0000 0.0000 0.0000 0.0000 -1.9333 0.0000
# 6 0.0000 0.0000 0.0000 0.0000 0.0000 23.3464
#
#
#
# Elastic Compliance Matrix: (Units=1/GPa)
#
#
# Indices 1 2 3 4 5 6 
#
# 1 0.016637 -0.007530 -0.002383 0.000000 0.000000 0.000000
# 2 -0.007530 0.022525 -0.004510 0.000000 0.000000 0.000000
# 3 -0.002383 -0.004510 0.009652 0.000000 0.000000 0.000000
# 4 0.000000 0.000000 0.000000 0.508216 0.000000 0.000000
# 5 0.000000 0.000000 0.000000 0.000000 -0.517237 0.000000
# 6 0.000000 0.000000 0.000000 0.000000 0.000000 0.042833
#
#
# Mechanical properties :
#
#
# Convention : Reuss Voigt Hill
#
# Bulk Modulus (GPa) = 50.07438 54.51530 52.29484
# Shear Modulus (GPa) = 42.32740 15.76111 29.04426
#
# Velocity S-wave (km/s) = 5.18338 3.16297 4.29371
# Velocity P-wave (km/s) = 8.22242 6.92409 7.60102
#
# Compressibility (1/GPa) = 0.01997029
#
# Stress axis : x y z
#
# Youngs Moduli (GPa) = 60.10726 44.39449 103.60342
#
# Poissons Ratio (x) = 0.33428 0.24686
# Poissons Ratio (y) = 0.45259 0.46722
# Poissons Ratio (z) = 0.14322 0.20021
#
# Static dielectric constant tensor:
#      x y z
#    x 2.903060 0.000000 0.000000 
#    y 0.000000 2.783000 0.000000 
#    z 0.000000 0.000000 3.654060 
# 
# 
# High freq. dielectric constant tensor:
#      x y z
#    x 1.597110 0.000000 0.000000 
#    y 0.000000 1.569120 0.000000 
#    z 0.000000 0.000000 1.610670 
# 
# From -- ./inp_files/49714.got.cif
#   From: 2010.03.12/outbox.cif.g09.slc.cpg/sg65_25_cif.got.tgz:49714.got - 2010.04.10 20:52:16.
