data_PCOD8271265
_publ_section_title
;
Structure prediction by ZEFSAII (Michael W. Deem and Ramdas Pophale) SiO2 
 PCOD8271265
Probable space group: C M M M
;
_chemical_formula_sum "Si O2"
_cell_formula_units_Z 88
_cell_length_a 19.456038
_cell_length_b 7.700685
_cell_length_c 31.905947
_cell_angle_alpha 90.000000
_cell_angle_beta 90.000000
_cell_angle_gamma 90.000000
_cell_volume 4780.302766
_symmetry_space_group_name_H-M "C M M M"
_symmetry_group_IT_number 65
_symmetry_cell_setting 'orthorhombic'
loop_
_space_group_symop_operation_xyz
x,y,z
-x,-y,z
x,-y,-z
-x,y,-z
-x,-y,-z
x,y,-z
-x,y,z
x,-y,z
1/2+x,1/2+y,z
1/2-x,1/2-y,z
1/2+x,1/2-y,-z
1/2-x,1/2+y,-z
1/2-x,1/2-y,-z
1/2+x,1/2+y,-z
1/2-x,1/2+y,z
1/2+x,1/2-y,z
loop_
_atom_site_type_symbol
_atom_site_label
_atom_site_fract_x
_atom_site_fract_y
_atom_site_fract_z
Si Si1 0.919564 0.201052 0.833204
Si Si2 0.674030 0.796835 0.547520
Si Si3 0.421373 0.306646 0.380283
Si Si4 0.328874 0.704221 0.910028
Si Si5 0.581754 0.000000 0.321900
Si Si6 0.171311 0.203567 0.000000
Si Si7 0.081088 0.500000 0.228734
O O1 0.878247 0.273052 0.873457
O O2 0.895829 0.323701 0.794893
O O3 0.000000 0.223024 0.842990
O O4 0.901944 0.000000 0.822346
O O5 0.664199 0.729489 0.500000
O O6 0.750000 0.750000 0.563501
O O7 0.619743 0.699458 0.576434
O O8 0.660710 0.000000 0.550745
O O9 0.500000 0.260109 0.390923
O O10 0.415061 0.500000 0.361097
O O11 0.391703 0.170989 0.346318
O O12 0.335581 0.500000 0.912223
O O13 0.250000 0.750000 0.900193
O O14 0.355965 0.780766 0.955355
O O15 0.500000 0.000000 0.318895
O O16 0.614109 0.000000 0.275230
O O17 0.250000 0.250000 0.000000
O O18 0.158332 0.000000 0.000000
O O19 0.000000 0.500000 0.232807
#
# Coordination Sequence:
#
# PCOD8271265 Si02
#       7
#    16  16  16  16   8   8   8
#     4   9  18  32  49  73 100 126 163 205 248 299
#     4  10  20  34  53  78 108 143 181 217 251 300
#     4  10  20  34  54  80 108 138 172 215 261 304
#     4   9  17  28  46  70  94 128 162 200 245 290
#     4   9  18  34  53  78 104 128 168 212 258 310
#     4   8  14  26  41  63  94 122 162 198 233 288
#     4   9  18  32  54  76  98 130 163 207 255 302
#
# _framework density 18.408877
#
# number of rings (size 3 to 8) (size 9 to 14) (size 15 to 20)
#    0.000    2.727    0.909    0.545    1.273    2.182 
#    0.000    5.909    0.000    3.818    0.000    1.909 
#    0.000    0.000    0.000    0.000    0.000    0.000 
#
# Total GULP energy -545231.841376 kJ/mol
# GULP energy per Si atom -12391.632759 kJ/mol
# Density = 1.836698 g / cm^3
# Si number density = 18.408877 Si / 1000 Ang^3
#
#
#
# Elastic Constant Matrix: (Units=GPa)
#
#
# Indices 1 2 3 4 5 6 
#
# 1 52.7314 23.7200 52.8727 0.0000 0.0000 0.0000
# 2 23.7200 89.4199 57.5871 0.0000 0.0000 0.0000
# 3 52.8727 57.5871 158.7982 0.0000 0.0000 0.0000
# 4 0.0000 0.0000 0.0000 16.1968 0.0000 0.0000
# 5 0.0000 0.0000 0.0000 0.0000 21.3006 0.0000
# 6 0.0000 0.0000 0.0000 0.0000 0.0000 20.2970
#
#
#
# Elastic Compliance Matrix: (Units=1/GPa)
#
#
# Indices 1 2 3 4 5 6 
#
# 1 0.028714 -0.001905 -0.008870 0.000000 0.000000 0.000000
# 2 -0.001905 0.014717 -0.004703 0.000000 0.000000 0.000000
# 3 -0.008870 -0.004703 0.010956 0.000000 0.000000 0.000000
# 4 0.000000 0.000000 0.000000 0.061741 0.000000 0.000000
# 5 0.000000 0.000000 0.000000 0.000000 0.046947 0.000000
# 6 0.000000 0.000000 0.000000 0.000000 0.000000 0.049268
#
#
# Mechanical properties :
#
#
# Convention : Reuss Voigt Hill
#
# Bulk Modulus (GPa) = 42.67540 63.25657 52.96598
# Shear Modulus (GPa) = 19.91164 22.67688 21.29426
#
# Velocity S-wave (km/s) = 3.29239 3.51357 3.40478
# Velocity P-wave (km/s) = 6.13884 7.13420 6.65516
#
# Compressibility (1/GPa) = 0.02343271
#
# Stress axis : x y z
#
# Youngs Moduli (GPa) = 34.82564 67.94803 91.27365
#
# Poissons Ratio (x) = 0.12942 0.80959
# Poissons Ratio (y) = 0.06633 0.42925
# Poissons Ratio (z) = 0.30890 0.31955
#
# Static dielectric constant tensor:
#      x y z
#    x 3.015410 0.000000 0.000000 
#    y 0.000000 3.583810 0.000000 
#    z 0.000000 0.000000 3.862590 
# 
# 
# High freq. dielectric constant tensor:
#      x y z
#    x 1.673120 0.000000 0.000000 
#    y 0.000000 1.722550 0.000000 
#    z 0.000000 0.000000 1.715680 
# 
# From -- ./inp_files/77987.got.cif
#   From: 2010.03.12/outbox.cif.g09.slc.cpg/sg65_39_cif.got.tgz:77987.got - 2010.04.10 20:52:16.
