data_PCOD8271747
_publ_section_title
;
Structure prediction by ZEFSAII (Michael W. Deem and Ramdas Pophale) SiO2 
 PCOD8271747
Probable space group: C M M M
;
_chemical_formula_sum "Si O2"
_cell_formula_units_Z 104
_cell_length_a 28.629779
_cell_length_b 9.008706
_cell_length_c 20.350018
_cell_angle_alpha 90.000000
_cell_angle_beta 90.000000
_cell_angle_gamma 90.000000
_cell_volume 5248.620921
_symmetry_space_group_name_H-M "C M M M"
_symmetry_group_IT_number 65
_symmetry_cell_setting 'orthorhombic'
loop_
_space_group_symop_operation_xyz
x,y,z
-x,-y,z
x,-y,-z
-x,y,-z
-x,-y,-z
x,y,-z
-x,y,z
x,-y,z
1/2+x,1/2+y,z
1/2-x,1/2-y,z
1/2+x,1/2-y,-z
1/2-x,1/2+y,-z
1/2-x,1/2-y,-z
1/2+x,1/2+y,-z
1/2-x,1/2+y,z
1/2+x,1/2-y,z
loop_
_atom_site_type_symbol
_atom_site_label
_atom_site_fract_x
_atom_site_fract_y
_atom_site_fract_z
Si Si1 0.445218 0.832027 0.684474
Si Si2 0.388258 0.329699 0.426379
Si Si3 0.199338 0.675381 0.000000
Si Si4 0.798008 0.325079 0.614424
Si Si5 0.296415 0.828789 0.764644
Si Si6 0.053574 0.173880 0.820158
Si Si7 0.864138 0.326227 0.121537
O O1 0.500000 0.832710 0.672857
O O2 0.423589 0.747770 0.623063
O O3 0.432261 0.751715 0.752062
O O4 0.425217 0.000000 0.687849
O O5 0.409207 0.319689 0.500000
O O6 0.381008 0.500000 0.404956
O O7 0.338912 0.245913 0.427932
O O8 0.250000 0.750000 0.000000
O O9 0.169332 0.727354 0.062826
O O10 0.207488 0.500000 0.000000
O O11 0.794947 0.500000 0.601803
O O12 0.750000 0.250000 0.591664
O O13 0.809012 0.285388 0.690277
O O14 0.250000 0.750000 0.790174
O O15 0.339419 0.782996 0.810187
O O16 0.284999 0.000000 0.771610
O O17 0.086545 0.238645 0.878102
O O18 0.000000 0.209527 0.839067
O O19 0.061830 0.000000 0.812074
O O20 0.874968 0.500000 0.114893
#
# Coordination Sequence:
#
# PCOD8271747 Si02
#       7
#    16  16   8  16  16  16  16
#     4  10  21  38  61  87 114 145 181 225 280 340
#     4  11  24  39  55  78 109 146 188 232 279 333
#     4  10  22  38  57  84 119 159 200 237 275 326
#     4  10  20  35  55  78 105 139 182 233 287 340
#     4   9  18  31  50  77 105 134 173 222 274 327
#     4  10  21  37  59  87 114 142 182 231 283 337
#     4  10  20  35  55  81 114 151 191 232 276 328
#
# _framework density 19.814730000000001
#
# number of rings (size 3 to 8) (size 9 to 14) (size 15 to 20)
#    0.000    2.000    0.000    3.231    0.000    6.769 
#    0.000    1.923    0.000    2.308    0.000    0.000 
#    0.000    0.000    0.000    0.000    0.000    0.000 
#
# Total GULP energy -644944.157720 kJ/mol
# GULP energy per Si atom -12402.772264 kJ/mol
# Density = 1.976963 g / cm^3
# Si number density = 19.814730 Si / 1000 Ang^3
#
#
#
# Elastic Constant Matrix: (Units=GPa)
#
#
# Indices 1 2 3 4 5 6 
#
# 1 105.1447 57.1397 57.7614 0.0000 0.0000 0.0000
# 2 57.1397 108.0715 45.5682 0.0000 0.0000 0.0000
# 3 57.7614 45.5682 82.2297 0.0000 0.0000 0.0000
# 4 0.0000 0.0000 0.0000 25.7096 0.0000 0.0000
# 5 0.0000 0.0000 0.0000 0.0000 17.7697 0.0000
# 6 0.0000 0.0000 0.0000 0.0000 0.0000 40.9114
#
#
#
# Elastic Compliance Matrix: (Units=1/GPa)
#
#
# Indices 1 2 3 4 5 6 
#
# 1 0.017561 -0.005329 -0.009382 0.000000 0.000000 0.000000
# 2 -0.005329 0.013691 -0.003844 0.000000 0.000000 0.000000
# 3 -0.009382 -0.003844 0.020882 0.000000 0.000000 0.000000
# 4 0.000000 0.000000 0.000000 0.038896 0.000000 0.000000
# 5 0.000000 0.000000 0.000000 0.000000 0.056276 0.000000
# 6 0.000000 0.000000 0.000000 0.000000 0.000000 0.024443
#
#
# Mechanical properties :
#
#
# Convention : Reuss Voigt Hill
#
# Bulk Modulus (GPa) = 66.56200 68.48716 67.52458
# Shear Modulus (GPa) = 23.37901 25.87657 24.62779
#
# Velocity S-wave (km/s) = 3.43867 3.61768 3.52931
# Velocity P-wave (km/s) = 7.03072 7.21727 7.12460
#
# Compressibility (1/GPa) = 0.01502359
#
# Stress axis : x y z
#
# Youngs Moduli (GPa) = 56.94513 73.03872 47.88835
#
# Poissons Ratio (x) = 0.38920 0.44931
# Poissons Ratio (y) = 0.30344 0.18409
# Poissons Ratio (z) = 0.53429 0.28077
#
# Static dielectric constant tensor:
#      x y z
#    x 3.696260 0.000000 0.000000 
#    y 0.000000 3.644580 0.000000 
#    z 0.000000 0.000000 3.578410 
# 
# 
# High freq. dielectric constant tensor:
#      x y z
#    x 1.779930 0.000000 0.000000 
#    y 0.000000 1.777360 0.000000 
#    z 0.000000 0.000000 1.762180 
# 
# From -- ./inp_files/60364.got.cif
#   From: 2010.03.12/outbox.cif.g09.slc.cpg/sg65_31_cif.got.tgz:60364.got - 2010.04.10 20:52:16.
