data_PCOD8271531
_publ_section_title
;
Structure prediction by ZEFSAII (Michael W. Deem and Ramdas Pophale) SiO2 
 PCOD8271531
Probable space group: C M M M
;
_chemical_formula_sum "Si O2"
_cell_formula_units_Z 80
_cell_length_a 7.951293
_cell_length_b 20.030291
_cell_length_c 26.970193
_cell_angle_alpha 90.000000
_cell_angle_beta 90.000000
_cell_angle_gamma 90.000000
_cell_volume 4295.453978
_symmetry_space_group_name_H-M "C M M M"
_symmetry_group_IT_number 65
_symmetry_cell_setting 'orthorhombic'
loop_
_space_group_symop_operation_xyz
x,y,z
-x,-y,z
x,-y,-z
-x,y,-z
-x,-y,-z
x,y,-z
-x,y,z
x,-y,z
1/2+x,1/2+y,z
1/2-x,1/2-y,z
1/2+x,1/2-y,-z
1/2-x,1/2+y,-z
1/2-x,1/2-y,-z
1/2+x,1/2+y,-z
1/2-x,1/2+y,z
1/2+x,1/2-y,z
loop_
_atom_site_type_symbol
_atom_site_label
_atom_site_fract_x
_atom_site_fract_y
_atom_site_fract_z
Si Si1 0.301515 0.676927 0.797391
Si Si2 0.190017 0.577283 0.877945
Si Si3 0.196891 0.426622 0.605292
Si Si4 0.815689 0.579470 0.500000
Si Si5 0.000000 0.920986 0.055207
Si Si6 0.803397 0.821935 0.315029
O O1 0.500000 0.666633 0.802107
O O2 0.250000 0.750000 0.817555
O O3 0.206793 0.620285 0.828283
O O4 0.236126 0.669038 0.740998
O O5 0.223715 0.500000 0.864389
O O6 0.329490 0.603065 0.917265
O O7 0.000000 0.586122 0.899452
O O8 0.270883 0.500000 0.618773
O O9 0.276190 0.400267 0.552319
O O10 0.226836 0.378055 0.650597
O O11 0.000000 0.433229 0.595864
O O12 0.830350 0.500000 0.500000
O O13 0.000000 0.613101 0.500000
O O14 0.000000 0.000000 0.051607
O O15 0.000000 0.889696 0.000000
O O16 0.750000 0.750000 0.335931
O O17 0.000000 0.829338 0.315970
#
# Coordination Sequence:
#
# PCOD8271531 Si02
#       6
#    16  16  16   8   8  16
#     4  10  20  35  54  76 103 140 179 218 267 321
#     4  10  20  34  55  84 113 143 183 225 265 315
#     4   9  17  31  52  75  99 129 166 210 259 311
#     4   7  12  26  48  71  94 125 165 205 252 311
#     4   9  18  34  56  82 114 148 181 222 270 314
#     4  10  21  35  51  72 102 135 171 213 258 311
#
# _framework density 18.624341999999999
#
# number of rings (size 3 to 8) (size 9 to 14) (size 15 to 20)
#    0.000    2.600    1.000    2.400    0.000    4.000 
#    0.000    7.000    0.000    2.400    0.000    0.000 
#    0.000    0.000    0.000    0.000    0.000    0.000 
#
# Total GULP energy -495673.556960 kJ/mol
# GULP energy per Si atom -12391.838924 kJ/mol
# Density = 1.858195 g / cm^3
# Si number density = 18.624342 Si / 1000 Ang^3
#
#
#
# Elastic Constant Matrix: (Units=GPa)
#
#
# Indices 1 2 3 4 5 6 
#
# 1 77.5916 25.4356 38.4029 0.0000 0.0000 0.0000
# 2 25.4356 89.6402 64.9351 0.0000 0.0000 0.0000
# 3 38.4029 64.9351 120.4743 0.0000 0.0000 0.0000
# 4 0.0000 0.0000 0.0000 0.1834 0.0000 0.0000
# 5 0.0000 0.0000 0.0000 0.0000 13.0085 0.0000
# 6 0.0000 0.0000 0.0000 0.0000 0.0000 23.4951
#
#
#
# Elastic Compliance Matrix: (Units=1/GPa)
#
#
# Indices 1 2 3 4 5 6 
#
# 1 0.015399 -0.001335 -0.004189 0.000000 0.000000 0.000000
# 2 -0.001335 0.018417 -0.009501 0.000000 0.000000 0.000000
# 3 -0.004189 -0.009501 0.014757 0.000000 0.000000 0.000000
# 4 0.000000 0.000000 0.000000 5.451339 0.000000 0.000000
# 5 0.000000 0.000000 0.000000 0.000000 0.076873 0.000000
# 6 0.000000 0.000000 0.000000 0.000000 0.000000 0.042562
#
#
# Mechanical properties :
#
#
# Convention : Reuss Voigt Hill
#
# Bulk Modulus (GPa) = 53.98820 60.58370 57.28595
# Shear Modulus (GPa) = 0.88408 17.93289 9.40849
#
# Velocity S-wave (km/s) = 0.68973 3.10639 2.25004
# Velocity P-wave (km/s) = 5.44841 6.74286 6.12990
#
# Compressibility (1/GPa) = 0.01852256
#
# Stress axis : x y z
#
# Youngs Moduli (GPa) = 64.93947 54.29714 67.76437
#
# Poissons Ratio (x) = 0.07248 0.28387
# Poissons Ratio (y) = 0.08669 0.64385
# Poissons Ratio (z) = 0.27204 0.51589
#
# Static dielectric constant tensor:
#      x y z
#    x 3.399620 0.000000 0.000000 
#    y 0.000000 3.220300 0.000000 
#    z 0.000000 0.000000 3.854550 
# 
# 
# High freq. dielectric constant tensor:
#      x y z
#    x 1.720240 0.000000 0.000000 
#    y 0.000000 1.697750 0.000000 
#    z 0.000000 0.000000 1.722650 
# 
# From -- ./inp_files/67349.got.cif
#   From: 2010.03.12/outbox.cif.g09.slc.cpg/sg65_34_cif.got.tgz:67349.got - 2010.04.10 20:52:16.
