data_PCOD8271197
_publ_section_title
;
Structure prediction by ZEFSAII (Michael W. Deem and Ramdas Pophale) SiO2 
 PCOD8271197
Probable space group: C M M M
;
_chemical_formula_sum "Si O2"
_cell_formula_units_Z 64
_cell_length_a 8.127983
_cell_length_b 18.518105
_cell_length_c 22.426021
_cell_angle_alpha 90.000000
_cell_angle_beta 90.000000
_cell_angle_gamma 90.000000
_cell_volume 3375.449022
_symmetry_space_group_name_H-M "C M M M"
_symmetry_group_IT_number 65
_symmetry_cell_setting 'orthorhombic'
loop_
_space_group_symop_operation_xyz
x,y,z
-x,-y,z
x,-y,-z
-x,y,-z
-x,-y,-z
x,y,-z
-x,y,z
x,-y,z
1/2+x,1/2+y,z
1/2-x,1/2-y,z
1/2+x,1/2-y,-z
1/2-x,1/2+y,-z
1/2-x,1/2-y,-z
1/2+x,1/2+y,-z
1/2-x,1/2+y,z
1/2+x,1/2-y,z
loop_
_atom_site_type_symbol
_atom_site_label
_atom_site_fract_x
_atom_site_fract_y
_atom_site_fract_z
Si Si1 0.682536 0.913981 0.639218
Si Si2 0.807307 0.580802 0.112994
Si Si3 0.692970 0.668496 0.000000
Si Si4 0.000000 0.086069 0.567716
Si Si5 0.186218 0.914867 0.237592
O O1 0.500000 0.888692 0.616856
O O2 0.705663 0.885565 0.707126
O O3 0.832217 0.883632 0.598489
O O4 0.692228 0.000000 0.638224
O O5 0.733672 0.500000 0.103120
O O6 0.739765 0.617732 0.173826
O O7 0.000000 0.575531 0.119058
O O8 0.761267 0.630574 0.058325
O O9 0.750000 0.750000 0.000000
O O10 0.500000 0.663014 0.000000
O O11 0.000000 0.113689 0.500000
O O12 0.000000 0.000000 0.571316
O O13 0.000000 0.893322 0.251819
O O14 0.210390 0.000000 0.232514
#
# Coordination Sequence:
#
# PCOD8271197 Si02
#       5
#    16  16   8   8  16
#     4   9  15  23  35  51  74 106 144 190 240 283
#     4  10  20  34  53  77 101 125 160 208 254 297
#     4  12  25  40  55  71  97 133 167 202 247 310
#     4   9  16  24  32  46  72 107 149 191 229 282
#     4   9  15  25  42  64  88 113 146 194 245 288
#
# _framework density 18.960439999999998
#
# number of rings (size 3 to 8) (size 9 to 14) (size 15 to 20)
#    0.000    2.375    1.250    3.000    0.000    6.500 
#    0.000    2.500    0.000    0.000    0.000    0.000 
#    0.000    0.000    0.000    0.000    0.000    1.250 
#
# Total GULP energy -396585.506585 kJ/mol
# GULP energy per Si atom -12393.297081 kJ/mol
# Density = 1.891728 g / cm^3
# Si number density = 18.960440 Si / 1000 Ang^3
#
#
#
# Elastic Constant Matrix: (Units=GPa)
#
#
# Indices 1 2 3 4 5 6 
#
# 1 101.9707 2.1846 62.8589 0.0000 0.0000 0.0000
# 2 2.1846 29.7267 22.0656 0.0000 0.0000 0.0000
# 3 62.8589 22.0656 160.7654 0.0000 0.0000 0.0000
# 4 0.0000 0.0000 0.0000 -3.5924 0.0000 0.0000
# 5 0.0000 0.0000 0.0000 0.0000 30.1821 0.0000
# 6 0.0000 0.0000 0.0000 0.0000 0.0000 11.9573
#
#
#
# Elastic Compliance Matrix: (Units=1/GPa)
#
#
# Indices 1 2 3 4 5 6 
#
# 1 0.013186 0.003182 -0.005592 0.000000 0.000000 0.000000
# 2 0.003182 0.038224 -0.006491 0.000000 0.000000 0.000000
# 3 -0.005592 -0.006491 0.009298 0.000000 0.000000 0.000000
# 4 0.000000 0.000000 0.000000 -0.278364 0.000000 0.000000
# 5 0.000000 0.000000 0.000000 0.000000 0.033132 0.000000
# 6 0.000000 0.000000 0.000000 0.000000 0.000000 0.083631
#
#
# Mechanical properties :
#
#
# Convention : Reuss Voigt Hill
#
# Bulk Modulus (GPa) = 23.30689 51.85342 37.58016
# Shear Modulus (GPa) = -72.68491 21.39966 -25.64262
#
# Velocity S-wave (km/s) = -6.19825 3.36318 -3.68153
# Velocity P-wave (km/s) = 6.23741 6.51835 1.33858
#
# Compressibility (1/GPa) = 0.04290577
#
# Stress axis : x y z
#
# Youngs Moduli (GPa) = 75.83809 26.16175 107.55313
#
# Poissons Ratio (x) = -0.08325 0.60149
# Poissons Ratio (y) = -0.24133 0.69808
# Poissons Ratio (z) = 0.42412 0.16980
#
# Static dielectric constant tensor:
#      x y z
#    x 3.769280 0.000000 0.000000 
#    y 0.000000 2.756110 0.000000 
#    z 0.000000 0.000000 3.715700 
# 
# 
# High freq. dielectric constant tensor:
#      x y z
#    x 1.757820 0.000000 0.000000 
#    y 0.000000 1.644580 0.000000 
#    z 0.000000 0.000000 1.750780 
# 
# From -- ./inp_files/58800.got.cif
#   From: 2010.03.12/outbox.cif.g09.slc.cpg/sg65_30_cif.got.tgz:58800.got - 2010.04.10 20:52:16.
