data_PCOD8271116
_publ_section_title
;
Structure prediction by ZEFSAII (Michael W. Deem and Ramdas Pophale) SiO2 
 PCOD8271116
Probable space group: C M M M
;
_chemical_formula_sum "Si O2"
_cell_formula_units_Z 88
_cell_length_a 18.272544
_cell_length_b 28.555748
_cell_length_c 9.003854
_cell_angle_alpha 90.000000
_cell_angle_beta 90.000000
_cell_angle_gamma 90.000000
_cell_volume 4698.086420
_symmetry_space_group_name_H-M "C M M M"
_symmetry_group_IT_number 65
_symmetry_cell_setting 'orthorhombic'
loop_
_space_group_symop_operation_xyz
x,y,z
-x,-y,z
x,-y,-z
-x,y,-z
-x,-y,-z
x,y,-z
-x,y,z
x,-y,z
1/2+x,1/2+y,z
1/2-x,1/2-y,z
1/2+x,1/2-y,-z
1/2-x,1/2+y,-z
1/2-x,1/2-y,-z
1/2+x,1/2+y,-z
1/2-x,1/2+y,z
1/2+x,1/2-y,z
loop_
_atom_site_type_symbol
_atom_site_label
_atom_site_fract_x
_atom_site_fract_y
_atom_site_fract_z
Si Si1 0.414381 0.203279 0.830713
Si Si2 0.581077 0.447569 0.676628
Si Si3 0.206867 0.881429 0.674767
Si Si4 0.683734 0.714763 0.832212
Si Si5 0.000000 0.554779 0.825176
Si Si6 0.129142 0.388535 0.674462
O O1 0.500000 0.201209 0.813006
O O2 0.388273 0.255481 0.787299
O O3 0.380278 0.165269 0.720967
O O4 0.389518 0.191910 0.000000
O O5 0.586046 0.447701 0.500000
O O6 0.500000 0.429976 0.725918
O O7 0.594213 0.500000 0.736997
O O8 0.644127 0.414533 0.745617
O O9 0.199044 0.880472 0.500000
O O10 0.193686 0.828903 0.726483
O O11 0.287155 0.901681 0.717171
O O12 0.750000 0.750000 0.811414
O O13 0.678574 0.695891 0.000000
O O14 0.073280 0.577633 0.759393
O O15 0.000000 0.500000 0.786194
O O16 0.000000 0.564235 0.000000
O O17 0.114093 0.393601 0.500000
#
# Coordination Sequence:
#
# PCOD8271116 Si02
#       6
#    16  16  16  16   8  16
#     4  10  20  35  55  76 103 146 195 233 270 326
#     4   8  15  31  55  80 108 144 183 220 267 330
#     4  10  21  34  54  86 117 144 180 232 285 330
#     4  10  20  34  52  76 106 146 189 225 268 323
#     4  11  25  43  61  81 109 147 191 235 280 339
#     4  11  22  35  55  83 112 143 182 231 287 337
#
# _framework density 18.731031000000002
#
# number of rings (size 3 to 8) (size 9 to 14) (size 15 to 20)
#    0.000    2.091    2.727    1.364    0.000    4.000 
#    0.000    1.818    0.000    0.545    0.000    1.273 
#    0.000    0.000    0.000    0.000    0.000    0.000 
#
# Total GULP energy -545474.161049 kJ/mol
# GULP energy per Si atom -12397.140024 kJ/mol
# Density = 1.868840 g / cm^3
# Si number density = 18.731031 Si / 1000 Ang^3
#
#
#
# Elastic Constant Matrix: (Units=GPa)
#
#
# Indices 1 2 3 4 5 6 
#
# 1 141.5933 75.6640 50.0712 0.0000 0.0000 0.0000
# 2 75.6640 105.9113 36.9682 0.0000 0.0000 0.0000
# 3 50.0712 36.9682 42.2141 0.0000 0.0000 0.0000
# 4 0.0000 0.0000 0.0000 -49.2368 0.0000 0.0000
# 5 0.0000 0.0000 0.0000 0.0000 19.1616 0.0000
# 6 0.0000 0.0000 0.0000 0.0000 0.0000 26.1208
#
#
#
# Elastic Compliance Matrix: (Units=1/GPa)
#
#
# Indices 1 2 3 4 5 6 
#
# 1 0.014612 -0.006322 -0.011795 0.000000 0.000000 0.000000
# 2 -0.006322 0.016334 -0.006806 0.000000 0.000000 0.000000
# 3 -0.011795 -0.006806 0.043639 0.000000 0.000000 0.000000
# 4 0.000000 0.000000 0.000000 -0.020310 0.000000 0.000000
# 5 0.000000 0.000000 0.000000 0.000000 0.052188 0.000000
# 6 0.000000 0.000000 0.000000 0.000000 0.000000 0.038284
#
#
# Mechanical properties :
#
#
# Convention : Reuss Voigt Hill
#
# Bulk Modulus (GPa) = 40.42103 68.34728 54.38415
# Shear Modulus (GPa) = 24.65029 7.67682 16.16355
#
# Velocity S-wave (km/s) = 3.63163 2.02666 2.94075
# Velocity P-wave (km/s) = 6.26191 6.48417 6.37401
#
# Compressibility (1/GPa) = 0.02473960
#
# Stress axis : x y z
#
# Youngs Moduli (GPa) = 68.43811 61.22365 22.91514
#
# Poissons Ratio (x) = 0.38703 0.27029
# Poissons Ratio (y) = 0.43264 0.15595
# Poissons Ratio (z) = 0.80725 0.41666
#
# Static dielectric constant tensor:
#      x y z
#    x 3.931950 0.000000 0.000000 
#    y 0.000000 2.192810 0.000000 
#    z 0.000000 0.000000 3.254490 
# 
# 
# High freq. dielectric constant tensor:
#      x y z
#    x 1.746460 0.000000 0.000000 
#    y 0.000000 1.722020 0.000000 
#    z 0.000000 0.000000 1.703470 
# 
# From -- ./inp_files/10093.got.cif
#   From: 2010.03.12/outbox.cif.g09.slc.cpg/sg65_6_cif.got.tgz:10093.got - 2010.04.10 20:52:16.
