data_PCOD8271178
_publ_section_title
;
Structure prediction by ZEFSAII (Michael W. Deem and Ramdas Pophale) SiO2 
 PCOD8271178
Probable space group: C M M M
;
_chemical_formula_sum "Si O2"
_cell_formula_units_Z 64
_cell_length_a 8.809762
_cell_length_b 28.485514
_cell_length_c 14.182748
_cell_angle_alpha 90.000000
_cell_angle_beta 90.000000
_cell_angle_gamma 90.000000
_cell_volume 3559.169103
_symmetry_space_group_name_H-M "C M M M"
_symmetry_group_IT_number 65
_symmetry_cell_setting 'orthorhombic'
loop_
_space_group_symop_operation_xyz
x,y,z
-x,-y,z
x,-y,-z
-x,y,-z
-x,-y,-z
x,y,-z
-x,y,z
x,-y,z
1/2+x,1/2+y,z
1/2-x,1/2-y,z
1/2+x,1/2-y,-z
1/2-x,1/2+y,-z
1/2-x,1/2-y,-z
1/2+x,1/2+y,-z
1/2-x,1/2+y,z
1/2+x,1/2-y,z
loop_
_atom_site_type_symbol
_atom_site_label
_atom_site_fract_x
_atom_site_fract_y
_atom_site_fract_z
Si Si1 0.177429 0.628403 0.109744
Si Si2 0.320424 0.300816 0.247981
Si Si3 0.679564 0.446355 0.237625
Si Si4 0.679129 0.376789 0.604173
O O1 0.259938 0.673153 0.155201
O O2 0.239430 0.579566 0.151218
O O3 0.000000 0.632304 0.130475
O O4 0.215166 0.628918 0.000000
O O5 0.500000 0.297002 0.239814
O O6 0.250000 0.250000 0.256863
O O7 0.269402 0.330031 0.340447
O O8 0.500000 0.441539 0.223062
O O9 0.733462 0.500000 0.239562
O O10 0.730057 0.422465 0.336303
O O11 0.754928 0.377920 0.500000
O O12 0.500000 0.376882 0.593394
#
# Coordination Sequence:
#
# PCOD8271178 Si02
#       4
#    16  16  16  16
#     4  10  21  36  53  73  98 130 168 209 252 296
#     4  10  20  34  53  76 102 132 165 203 248 296
#     4   9  18  32  51  76 104 134 167 204 248 295
#     4   8  15  29  49  74 103 133 166 203 242 288
#
# _framework density 17.981725000000001
#
# number of rings (size 3 to 8) (size 9 to 14) (size 15 to 20)
#    0.000    2.750    0.000    3.000    0.000    4.500 
#    0.000    5.000    0.000   18.000    0.000    7.000 
#    0.000    0.000    0.000    0.000    0.000    0.000 
#
# Total GULP energy -396756.815277 kJ/mol
# GULP energy per Si atom -12398.650477 kJ/mol
# Density = 1.794080 g / cm^3
# Si number density = 17.981725 Si / 1000 Ang^3
#
#
#
# Elastic Constant Matrix: (Units=GPa)
#
#
# Indices 1 2 3 4 5 6 
#
# 1 52.4692 27.0196 34.0954 0.0000 0.0000 0.0000
# 2 27.0196 110.3814 25.0768 0.0000 0.0000 0.0000
# 3 34.0954 25.0768 104.7847 0.0000 0.0000 0.0000
# 4 0.0000 0.0000 0.0000 9.9450 0.0000 0.0000
# 5 0.0000 0.0000 0.0000 0.0000 14.3509 0.0000
# 6 0.0000 0.0000 0.0000 0.0000 0.0000 31.1757
#
#
#
# Elastic Compliance Matrix: (Units=1/GPa)
#
#
# Indices 1 2 3 4 5 6 
#
# 1 0.026338 -0.004759 -0.007431 0.000000 0.000000 0.000000
# 2 -0.004759 0.010440 -0.000950 0.000000 0.000000 0.000000
# 3 -0.007431 -0.000950 0.012189 0.000000 0.000000 0.000000
# 4 0.000000 0.000000 0.000000 0.100553 0.000000 0.000000
# 5 0.000000 0.000000 0.000000 0.000000 0.069682 0.000000
# 6 0.000000 0.000000 0.000000 0.000000 0.000000 0.032076
#
#
# Mechanical properties :
#
#
# Convention : Reuss Voigt Hill
#
# Bulk Modulus (GPa) = 44.07819 48.89099 46.48459
# Shear Modulus (GPa) = 17.53635 23.19054 20.36345
#
# Velocity S-wave (km/s) = 3.12626 3.59510 3.36884
# Velocity P-wave (km/s) = 6.13166 6.66943 6.40619
#
# Compressibility (1/GPa) = 0.02268696
#
# Stress axis : x y z
#
# Youngs Moduli (GPa) = 37.96728 95.78316 82.04280
#
# Poissons Ratio (x) = 0.45583 0.60968
# Poissons Ratio (y) = 0.18069 0.07794
# Poissons Ratio (z) = 0.28214 0.09100
#
# Static dielectric constant tensor:
#      x y z
#    x 3.163630 0.000000 0.000000 
#    y 0.000000 3.476030 0.000000 
#    z 0.000000 0.000000 3.580180 
# 
# 
# High freq. dielectric constant tensor:
#      x y z
#    x 1.679380 0.000000 0.000000 
#    y 0.000000 1.701470 0.000000 
#    z 0.000000 0.000000 1.700730 
# 
# From -- ./inp_files/20928.got.cif
#   From: 2010.03.12/outbox.cif.g09.slc.cpg/sg65_11_cif.got.tgz:20928.got - 2010.04.10 20:52:16.
