data_PCOD8271174
_publ_section_title
;
Structure prediction by ZEFSAII (Michael W. Deem and Ramdas Pophale) SiO2 
 PCOD8271174
Probable space group: C M M M
;
_chemical_formula_sum "Si O2"
_cell_formula_units_Z 104
_cell_length_a 27.409065
_cell_length_b 22.346516
_cell_length_c 9.332416
_cell_angle_alpha 90.000000
_cell_angle_beta 90.000000
_cell_angle_gamma 90.000000
_cell_volume 5716.077825
_symmetry_space_group_name_H-M "C M M M"
_symmetry_group_IT_number 65
_symmetry_cell_setting 'orthorhombic'
loop_
_space_group_symop_operation_xyz
x,y,z
-x,-y,z
x,-y,-z
-x,y,-z
-x,-y,-z
x,y,-z
-x,y,z
x,-y,z
1/2+x,1/2+y,z
1/2-x,1/2-y,z
1/2+x,1/2-y,-z
1/2-x,1/2+y,-z
1/2-x,1/2-y,-z
1/2+x,1/2+y,-z
1/2-x,1/2+y,z
1/2+x,1/2-y,z
loop_
_atom_site_type_symbol
_atom_site_label
_atom_site_fract_x
_atom_site_fract_y
_atom_site_fract_z
Si Si1 0.500000 0.428461 0.340363
Si Si2 0.265539 0.066813 0.663855
Si Si3 0.089463 0.929458 0.160653
Si Si4 0.556510 0.931107 0.167193
Si Si5 0.360710 0.135818 0.665880
Si Si6 0.694715 0.238209 0.836305
Si Si7 0.185706 0.871440 0.837512
O O1 0.500000 0.500000 0.341482
O O2 0.500000 0.402459 0.500000
O O3 0.547208 0.402600 0.259793
O O4 0.248770 0.070852 0.500000
O O5 0.322483 0.081675 0.679486
O O6 0.234736 0.115415 0.750612
O O7 0.256915 0.000000 0.724425
O O8 0.141409 0.910515 0.226094
O O9 0.085558 0.000000 0.157810
O O10 0.083493 0.903335 0.000000
O O11 0.500000 0.916097 0.199908
O O12 0.589667 0.885211 0.257403
O O13 0.567416 0.000000 0.210401
O O14 0.567888 0.921513 0.000000
O O15 0.372046 0.150720 0.500000
O O16 0.336770 0.194272 0.737978
O O17 0.750000 0.250000 0.781218
O O18 0.668995 0.302714 0.827710
O O19 0.696011 0.213537 0.000000
O O20 0.196936 0.890420 0.000000
#
# Coordination Sequence:
#
# PCOD8271174 Si02
#       7
#     8  16  16  16  16  16  16
#     4   9  17  29  47  71  97 127 161 195 240 301
#     4  10  21  34  48  73 110 144 172 209 261 320
#     4   9  17  30  49  73 100 128 161 206 258 308
#     4   9  19  37  61  88 116 146 183 230 284 338
#     4  11  22  35  55  81 112 148 186 225 270 329
#     4  10  20  36  56  77 104 140 185 229 266 310
#     4  10  20  34  53  76 101 134 177 222 263 310
#
# _framework density 18.194295
#
# number of rings (size 3 to 8) (size 9 to 14) (size 15 to 20)
#    0.000    2.231    1.538    2.077    0.000    5.231 
#    0.000    2.308    1.692    0.000    0.000    0.000 
#    0.000    0.000    0.000    0.000    0.000    0.000 
#
# Total GULP energy -644719.886828 kJ/mol
# GULP energy per Si atom -12398.459362 kJ/mol
# Density = 1.815288 g / cm^3
# Si number density = 18.194295 Si / 1000 Ang^3
#
#
#
# Elastic Constant Matrix: (Units=GPa)
#
#
# Indices 1 2 3 4 5 6 
#
# 1 113.6373 33.5916 63.6580 0.0000 0.0000 0.0000
# 2 33.5916 68.4535 41.4584 0.0000 0.0000 0.0000
# 3 63.6580 41.4584 94.2748 0.0000 0.0000 0.0000
# 4 0.0000 0.0000 0.0000 23.5100 0.0000 0.0000
# 5 0.0000 0.0000 0.0000 0.0000 21.4395 0.0000
# 6 0.0000 0.0000 0.0000 0.0000 0.0000 26.1179
#
#
#
# Elastic Compliance Matrix: (Units=1/GPa)
#
#
# Indices 1 2 3 4 5 6 
#
# 1 0.014280 -0.001592 -0.008942 0.000000 0.000000 0.000000
# 2 -0.001592 0.020089 -0.007760 0.000000 0.000000 0.000000
# 3 -0.008942 -0.007760 0.020058 0.000000 0.000000 0.000000
# 4 0.000000 0.000000 0.000000 0.042535 0.000000 0.000000
# 5 0.000000 0.000000 0.000000 0.000000 0.046643 0.000000
# 6 0.000000 0.000000 0.000000 0.000000 0.000000 0.038288
#
#
# Mechanical properties :
#
#
# Convention : Reuss Voigt Hill
#
# Bulk Modulus (GPa) = 56.05520 61.53129 58.79325
# Shear Modulus (GPa) = 22.27902 23.39065 22.83483
#
# Velocity S-wave (km/s) = 3.50309 3.58942 3.54652
# Velocity P-wave (km/s) = 6.87301 7.14640 7.01104
#
# Compressibility (1/GPa) = 0.01783956
#
# Stress axis : x y z
#
# Youngs Moduli (GPa) = 70.02915 49.77828 49.85553
#
# Poissons Ratio (x) = 0.07922 0.44583
# Poissons Ratio (y) = 0.11145 0.38687
# Poissons Ratio (z) = 0.62623 0.38627
#
# Static dielectric constant tensor:
#      x y z
#    x 3.348740 0.000000 0.000000 
#    y 0.000000 3.193090 0.000000 
#    z 0.000000 0.000000 3.392490 
# 
# 
# High freq. dielectric constant tensor:
#      x y z
#    x 1.703630 0.000000 0.000000 
#    y 0.000000 1.687220 0.000000 
#    z 0.000000 0.000000 1.701710 
# 
# From -- ./inp_files/16432.got.cif
#   From: 2010.03.12/outbox.cif.g09.slc.cpg/sg65_9_cif.got.tgz:16432.got - 2010.04.10 20:52:16.
