data_PCOD8271731
_publ_section_title
;
Structure prediction by ZEFSAII (Michael W. Deem and Ramdas Pophale) SiO2 
 PCOD8271731
Probable space group: C M M M
;
_chemical_formula_sum "Si O2"
_cell_formula_units_Z 72
_cell_length_a 26.680386
_cell_length_b 15.440325
_cell_length_c 9.084089
_cell_angle_alpha 90.000000
_cell_angle_beta 90.000000
_cell_angle_gamma 90.000000
_cell_volume 3742.225264
_symmetry_space_group_name_H-M "C M M M"
_symmetry_group_IT_number 65
_symmetry_cell_setting 'orthorhombic'
loop_
_space_group_symop_operation_xyz
x,y,z
-x,-y,z
x,-y,-z
-x,y,-z
-x,-y,-z
x,y,-z
-x,y,z
x,-y,z
1/2+x,1/2+y,z
1/2-x,1/2-y,z
1/2+x,1/2-y,-z
1/2-x,1/2+y,-z
1/2-x,1/2-y,-z
1/2+x,1/2+y,-z
1/2-x,1/2+y,z
1/2+x,1/2-y,z
loop_
_atom_site_type_symbol
_atom_site_label
_atom_site_fract_x
_atom_site_fract_y
_atom_site_fract_z
Si Si1 0.734114 0.000000 0.175000
Si Si2 0.104505 0.823929 0.326908
Si Si3 0.280763 0.664873 0.328272
Si Si4 0.057733 0.662863 0.171460
Si Si5 0.443743 0.500000 0.324910
Si Si6 0.619661 0.000000 0.825194
O O1 0.761213 0.915162 0.234644
O O2 0.676733 0.000000 0.230978
O O3 0.736960 0.000000 0.000000
O O4 0.096314 0.816408 0.500000
O O5 0.162401 0.814800 0.283647
O O6 0.071656 0.750320 0.253139
O O7 0.085125 0.915796 0.265829
O O8 0.275799 0.641091 0.500000
O O9 0.250000 0.750000 0.286170
O O10 0.091596 0.585046 0.236033
O O11 0.000000 0.639491 0.201146
O O12 0.068350 0.676702 0.000000
O O13 0.500000 0.500000 0.261847
O O14 0.444064 0.500000 0.500000
O O15 0.616351 0.000000 0.000000
#
# Coordination Sequence:
#
# PCOD8271731 Si02
#       6
#     8  16  16  16   8   8
#     4  11  22  35  56  83 110 143 182 230 279 321
#     4  10  20  35  55  77 103 137 176 219 265 315
#     4  10  21  37  56  78 107 144 183 223 270 326
#     4  10  20  35  56  80 107 141 179 220 266 317
#     4   9  17  30  49  71  96 129 165 201 248 307
#     4   9  19  36  55  77 108 145 181 214 261 326
#
# _framework density 19.239889999999999
#
# number of rings (size 3 to 8) (size 9 to 14) (size 15 to 20)
#    0.000    2.111    0.000    3.333    0.000    5.778 
#    0.000    2.222    0.000    3.333    0.000    0.000 
#    0.000    0.000    0.000    0.000    0.000    0.000 
#
# Total GULP energy -446531.790223 kJ/mol
# GULP energy per Si atom -12403.660840 kJ/mol
# Density = 1.919610 g / cm^3
# Si number density = 19.239890 Si / 1000 Ang^3
#
#
#
# Elastic Constant Matrix: (Units=GPa)
#
#
# Indices 1 2 3 4 5 6 
#
# 1 86.2126 23.4119 24.7225 0.0000 0.0000 0.0000
# 2 23.4119 117.9672 29.9550 0.0000 0.0000 0.0000
# 3 24.7225 29.9550 37.8184 0.0000 0.0000 0.0000
# 4 0.0000 0.0000 0.0000 49.1066 0.0000 0.0000
# 5 0.0000 0.0000 0.0000 0.0000 17.3550 0.0000
# 6 0.0000 0.0000 0.0000 0.0000 0.0000 44.9796
#
#
#
# Elastic Compliance Matrix: (Units=1/GPa)
#
#
# Indices 1 2 3 4 5 6 
#
# 1 0.014307 -0.000581 -0.008892 0.000000 0.000000 0.000000
# 2 -0.000581 0.010635 -0.008043 0.000000 0.000000 0.000000
# 3 -0.008892 -0.008043 0.038626 0.000000 0.000000 0.000000
# 4 0.000000 0.000000 0.000000 0.020364 0.000000 0.000000
# 5 0.000000 0.000000 0.000000 0.000000 0.057620 0.000000
# 6 0.000000 0.000000 0.000000 0.000000 0.000000 0.022232
#
#
# Mechanical properties :
#
#
# Convention : Reuss Voigt Hill
#
# Bulk Modulus (GPa) = 35.04613 44.24189 39.64401
# Shear Modulus (GPa) = 24.00039 33.21549 28.60794
#
# Velocity S-wave (km/s) = 3.53573 4.15949 3.86023
# Velocity P-wave (km/s) = 5.90960 6.79067 6.36540
#
# Compressibility (1/GPa) = 0.02853382
#
# Stress axis : x y z
#
# Youngs Moduli (GPa) = 69.89549 94.03127 25.88918
#
# Poissons Ratio (x) = 0.05467 0.23021
# Poissons Ratio (y) = 0.04064 0.20824
# Poissons Ratio (z) = 0.62153 0.75633
#
# Static dielectric constant tensor:
#      x y z
#    x 3.761650 0.000000 0.000000 
#    y 0.000000 3.553650 0.000000 
#    z 0.000000 0.000000 3.189250 
# 
# 
# High freq. dielectric constant tensor:
#      x y z
#    x 1.768480 0.000000 0.000000 
#    y 0.000000 1.765530 0.000000 
#    z 0.000000 0.000000 1.715410 
# 
# From -- ./inp_files/7375.got.cif
#   From: 2010.03.12/outbox.cif.g09.slc.cpg/sg65_4_cif.got.tgz:7375.got - 2010.04.10 20:52:16.
