data_PCOD8271943
_publ_section_title
;
Structure prediction by ZEFSAII (Michael W. Deem and Ramdas Pophale) SiO2 
 PCOD8271943
Probable space group: C M M M
;
_chemical_formula_sum "Si O2"
_cell_formula_units_Z 72
_cell_length_a 19.406505
_cell_length_b 22.084702
_cell_length_c 8.789413
_cell_angle_alpha 90.000000
_cell_angle_beta 90.000000
_cell_angle_gamma 90.000000
_cell_volume 3767.027093
_symmetry_space_group_name_H-M "C M M M"
_symmetry_group_IT_number 65
_symmetry_cell_setting 'orthorhombic'
loop_
_space_group_symop_operation_xyz
x,y,z
-x,-y,z
x,-y,-z
-x,y,-z
-x,-y,-z
x,y,-z
-x,y,z
x,-y,z
1/2+x,1/2+y,z
1/2-x,1/2-y,z
1/2+x,1/2-y,-z
1/2-x,1/2+y,-z
1/2-x,1/2-y,-z
1/2+x,1/2+y,-z
1/2-x,1/2+y,z
1/2+x,1/2-y,z
loop_
_atom_site_type_symbol
_atom_site_label
_atom_site_fract_x
_atom_site_fract_y
_atom_site_fract_z
Si Si1 0.420139 0.717167 0.175857
Si Si2 0.924317 0.645798 0.180509
Si Si3 0.657941 0.389529 0.678726
Si Si4 0.581432 0.500000 0.826713
Si Si5 0.796558 0.430533 0.180629
O O1 0.500000 0.700363 0.200180
O O2 0.405735 0.785811 0.229088
O O3 0.372737 0.675636 0.280759
O O4 0.399720 0.707375 0.000000
O O5 0.867167 0.599374 0.242846
O O6 0.000000 0.627709 0.245463
O O7 0.927459 0.643113 0.000000
O O8 0.661793 0.398002 0.500000
O O9 0.608681 0.440466 0.746218
O O10 0.734014 0.394068 0.746754
O O11 0.500000 0.500000 0.818034
O O12 0.608194 0.500000 0.000000
O O13 0.794473 0.500000 0.234538
O O14 0.791575 0.425292 0.000000
#
# Coordination Sequence:
#
# PCOD8271943 Si02
#       5
#    16  16  16   8  16
#     4   9  18  35  58  81 109 145 185 231 280 330
#     4   8  16  33  58  87 112 138 182 237 284 326
#     4  12  24  36  53  79 114 150 184 226 272 325
#     4  11  23  39  59  81 106 141 186 229 273 328
#     4  10  20  35  57  82 112 149 187 229 277 330
#
# _framework density 19.113216999999999
#
# number of rings (size 3 to 8) (size 9 to 14) (size 15 to 20)
#    0.000    2.111    1.111    4.333    0.000    5.333 
#    0.000    7.778    0.000    2.000    0.000    1.556 
#    0.000    0.000    0.000    0.000    0.000    0.000 
#
# Total GULP energy -446439.519570 kJ/mol
# GULP energy per Si atom -12401.097766 kJ/mol
# Density = 1.906971 g / cm^3
# Si number density = 19.113217 Si / 1000 Ang^3
#
#
#
# Elastic Constant Matrix: (Units=GPa)
#
#
# Indices 1 2 3 4 5 6 
#
# 1 127.3922 64.0564 32.3621 0.0000 0.0000 0.0000
# 2 64.0564 84.7546 26.0179 0.0000 0.0000 0.0000
# 3 32.3621 26.0179 44.1779 0.0000 0.0000 0.0000
# 4 0.0000 0.0000 0.0000 -2.0973 0.0000 0.0000
# 5 0.0000 0.0000 0.0000 0.0000 -6.5299 0.0000
# 6 0.0000 0.0000 0.0000 0.0000 0.0000 23.8164
#
#
#
# Elastic Compliance Matrix: (Units=1/GPa)
#
#
# Indices 1 2 3 4 5 6 
#
# 1 0.013419 -0.008696 -0.004708 0.000000 0.000000 0.000000
# 2 -0.008696 0.020038 -0.005431 0.000000 0.000000 0.000000
# 3 -0.004708 -0.005431 0.029283 0.000000 0.000000 0.000000
# 4 0.000000 0.000000 0.000000 -0.476796 0.000000 0.000000
# 5 0.000000 0.000000 0.000000 0.000000 -0.153142 0.000000
# 6 0.000000 0.000000 0.000000 0.000000 0.000000 0.041988
#
#
# Mechanical properties :
#
#
# Convention : Reuss Voigt Hill
#
# Bulk Modulus (GPa) = 39.88917 55.68861 47.78889
# Shear Modulus (GPa) = -10.43443 11.96373 0.76465
#
# Velocity S-wave (km/s) = -2.33904 2.50459 0.63319
# Velocity P-wave (km/s) = 3.69058 6.12890 5.05885
#
# Compressibility (1/GPa) = 0.02506946
#
# Stress axis : x y z
#
# Youngs Moduli (GPa) = 74.52396 49.90406 34.14936
#
# Poissons Ratio (x) = 0.43398 0.16078
# Poissons Ratio (y) = 0.64808 0.18546
# Poissons Ratio (z) = 0.35087 0.27103
#
# Static dielectric constant tensor:
#      x y z
#    x 3.807370 0.000000 0.000000 
#    y 0.000000 3.589350 0.000000 
#    z 0.000000 0.000000 3.196360 
# 
# 
# High freq. dielectric constant tensor:
#      x y z
#    x 1.753940 0.000000 0.000000 
#    y 0.000000 1.749000 0.000000 
#    z 0.000000 0.000000 1.711460 
# 
# From -- ./inp_files/9231.got.cif
#   From: 2010.03.12/outbox.cif.g09.slc.cpg/sg65_5_cif.got.tgz:9231.got - 2010.04.10 20:52:16.
