data_PCOD8271099
_publ_section_title
;
Structure prediction by ZEFSAII (Michael W. Deem and Ramdas Pophale) SiO2 
 PCOD8271099
Probable space group: C M M M
;
_chemical_formula_sum "Si O2"
_cell_formula_units_Z 88
_cell_length_a 8.723659
_cell_length_b 22.033623
_cell_length_c 24.084016
_cell_angle_alpha 90.000000
_cell_angle_beta 90.000000
_cell_angle_gamma 90.000000
_cell_volume 4629.280562
_symmetry_space_group_name_H-M "C M M M"
_symmetry_group_IT_number 65
_symmetry_cell_setting 'orthorhombic'
loop_
_space_group_symop_operation_xyz
x,y,z
-x,-y,z
x,-y,-z
-x,y,-z
-x,-y,-z
x,y,-z
-x,y,z
x,-y,z
1/2+x,1/2+y,z
1/2-x,1/2-y,z
1/2+x,1/2-y,-z
1/2-x,1/2+y,-z
1/2-x,1/2-y,-z
1/2+x,1/2+y,-z
1/2-x,1/2+y,z
1/2+x,1/2-y,z
loop_
_atom_site_type_symbol
_atom_site_label
_atom_site_fract_x
_atom_site_fract_y
_atom_site_fract_z
Si Si1 0.180634 0.686373 0.064030
Si Si2 0.817257 0.500000 0.437392
Si Si3 0.821611 0.394534 0.358048
Si Si4 0.825531 0.930078 0.752618
Si Si5 0.323300 0.312910 0.559493
Si Si6 0.319086 0.931290 0.869067
O O1 0.250000 0.750000 0.087978
O O2 0.245196 0.624501 0.093238
O O3 0.000000 0.690557 0.072720
O O4 0.227798 0.679918 0.000000
O O5 0.748658 0.500000 0.500000
O O6 0.756282 0.443625 0.401668
O O7 0.000000 0.500000 0.440840
O O8 0.735478 0.392763 0.299519
O O9 0.783069 0.333417 0.389653
O O10 0.000000 0.403724 0.345813
O O11 0.725636 0.914779 0.806453
O O12 0.000000 0.912017 0.765517
O O13 0.808848 0.000000 0.736298
O O14 0.310801 0.349554 0.500000
O O15 0.500000 0.309916 0.578754
O O16 0.250000 0.250000 0.544822
O O17 0.500000 0.933282 0.874810
O O18 0.255845 0.000000 0.884937
#
# Coordination Sequence:
#
# PCOD8271099 Si02
#       6
#    16   8  16  16  16  16
#     4   9  18  33  54  81 113 148 182 220 270 325
#     4   9  18  30  47  75 105 131 162 203 254 311
#     4  11  20  33  54  77 104 136 172 214 260 316
#     4  10  20  34  52  75 106 140 176 219 268 319
#     4  10  21  37  55  75 100 132 170 213 263 318
#     4   9  18  33  54  79 107 141 185 230 272 323
#
# _framework density 19.009433999999999
#
# number of rings (size 3 to 8) (size 9 to 14) (size 15 to 20)
#    0.000    2.273    0.909    2.182    0.000    3.636 
#    0.000    2.727    0.000    4.364    0.000    5.091 
#    0.000    0.000    0.000    0.000    0.000    0.000 
#
# Total GULP energy -545109.123629 kJ/mol
# GULP energy per Si atom -12388.843719 kJ/mol
# Density = 1.896617 g / cm^3
# Si number density = 19.009434 Si / 1000 Ang^3
#
#
#
# Elastic Constant Matrix: (Units=GPa)
#
#
# Indices 1 2 3 4 5 6 
#
# 1 22.2515 15.0811 9.3406 0.0000 0.0000 0.0000
# 2 15.0811 107.3273 62.2988 0.0000 0.0000 0.0000
# 3 9.3406 62.2988 102.1534 0.0000 0.0000 0.0000
# 4 0.0000 0.0000 0.0000 25.9324 0.0000 0.0000
# 5 0.0000 0.0000 0.0000 0.0000 25.5298 0.0000
# 6 0.0000 0.0000 0.0000 0.0000 0.0000 25.1744
#
#
#
# Elastic Compliance Matrix: (Units=1/GPa)
#
#
# Indices 1 2 3 4 5 6 
#
# 1 0.049684 -0.006725 -0.000442 0.000000 0.000000 0.000000
# 2 -0.006725 0.015333 -0.008736 0.000000 0.000000 0.000000
# 3 -0.000442 -0.008736 0.015157 0.000000 0.000000 0.000000
# 4 0.000000 0.000000 0.000000 0.038562 0.000000 0.000000
# 5 0.000000 0.000000 0.000000 0.000000 0.039170 0.000000
# 6 0.000000 0.000000 0.000000 0.000000 0.000000 0.039723
#
#
# Mechanical properties :
#
#
# Convention : Reuss Voigt Hill
#
# Bulk Modulus (GPa) = 20.67437 45.01923 32.84680
# Shear Modulus (GPa) = 20.36180 24.99477 22.67828
#
# Velocity S-wave (km/s) = 3.27638 3.63004 3.45773
# Velocity P-wave (km/s) = 5.02119 6.42678 5.76697
#
# Compressibility (1/GPa) = 0.04836907
#
# Stress axis : x y z
#
# Youngs Moduli (GPa) = 20.12716 65.21801 65.97455
#
# Poissons Ratio (x) = 0.43859 0.02914
# Poissons Ratio (y) = 0.13535 0.57636
# Poissons Ratio (z) = 0.00889 0.56975
#
# Static dielectric constant tensor:
#      x y z
#    x 3.299140 0.000000 0.000000 
#    y 0.000000 3.613710 0.000000 
#    z 0.000000 0.000000 3.437360 
# 
# 
# High freq. dielectric constant tensor:
#      x y z
#    x 1.726240 0.000000 0.000000 
#    y 0.000000 1.728450 0.000000 
#    z 0.000000 0.000000 1.737890 
# 
# From -- ./inp_files/59797.got.cif
#   From: 2010.03.12/outbox.cif.g09.slc.cpg/sg65_30_cif.got.tgz:59797.got - 2010.04.10 20:52:16.
