data_PCOD8271774
_publ_section_title
;
Structure prediction by ZEFSAII (Michael W. Deem and Ramdas Pophale) SiO2 
 PCOD8271774
Probable space group: C M M M
;
_chemical_formula_sum "Si O2"
_cell_formula_units_Z 88
_cell_length_a 16.294285
_cell_length_b 9.340020
_cell_length_c 29.318380
_cell_angle_alpha 90.000000
_cell_angle_beta 90.000000
_cell_angle_gamma 90.000000
_cell_volume 4461.933403
_symmetry_space_group_name_H-M "C M M M"
_symmetry_group_IT_number 65
_symmetry_cell_setting 'orthorhombic'
loop_
_space_group_symop_operation_xyz
x,y,z
-x,-y,z
x,-y,-z
-x,y,-z
-x,-y,-z
x,y,-z
-x,y,z
x,-y,z
1/2+x,1/2+y,z
1/2-x,1/2-y,z
1/2+x,1/2-y,-z
1/2-x,1/2+y,-z
1/2-x,1/2-y,-z
1/2+x,1/2+y,-z
1/2-x,1/2+y,z
1/2+x,1/2-y,z
loop_
_atom_site_type_symbol
_atom_site_label
_atom_site_fract_x
_atom_site_fract_y
_atom_site_fract_z
Si Si1 0.095204 0.343362 0.450312
Si Si2 0.166087 0.834258 0.271426
Si Si3 0.667231 0.664716 0.373589
Si Si4 0.167171 0.332100 0.900194
Si Si5 0.092283 0.339285 0.805521
Si Si6 0.000000 0.330930 0.052416
O O1 0.132572 0.297156 0.500000
O O2 0.131841 0.500000 0.436253
O O3 0.106920 0.224681 0.411660
O O4 0.000000 0.360801 0.456707
O O5 0.250000 0.750000 0.264769
O O6 0.130796 0.813811 0.322647
O O7 0.101045 0.771373 0.235953
O O8 0.182080 0.000000 0.260555
O O9 0.684475 0.500000 0.383579
O O10 0.750000 0.750000 0.379000
O O11 0.179292 0.500000 0.910852
O O12 0.250000 0.250000 0.916219
O O13 0.154797 0.304075 0.846338
O O14 0.085205 0.271905 0.925572
O O15 0.108298 0.500000 0.787198
O O16 0.000000 0.326403 0.824989
O O17 0.000000 0.500000 0.059443
O O18 0.000000 0.284073 0.000000
#
# Coordination Sequence:
#
# PCOD8271774 Si02
#       6
#    16  16  16  16  16   8
#     4   9  19  36  56  77 102 133 170 213 262 319
#     4  10  21  36  53  76 106 140 179 223 271 327
#     4  10  21  36  54  76 104 137 174 218 267 320
#     4  10  20  36  58  85 116 152 195 241 289 344
#     4  10  20  35  55  79 110 147 187 230 277 335
#     4   9  18  36  61  85 115 157 199 239 288 349
#
# _framework density 19.722391999999999
#
# number of rings (size 3 to 8) (size 9 to 14) (size 15 to 20)
#    0.000    2.273    0.909    2.182    0.000    6.909 
#    0.000    5.000    0.000    0.545    0.000    0.000 
#    0.000    0.000    0.000    0.000    0.000    0.000 
#
# Total GULP energy -545361.513804 kJ/mol
# GULP energy per Si atom -12394.579859 kJ/mol
# Density = 1.967750 g / cm^3
# Si number density = 19.722392 Si / 1000 Ang^3
#
#
#
# Elastic Constant Matrix: (Units=GPa)
#
#
# Indices 1 2 3 4 5 6 
#
# 1 99.5862 42.6375 47.7065 0.0000 0.0000 0.0000
# 2 42.6375 104.8315 58.8692 0.0000 0.0000 0.0000
# 3 47.7065 58.8692 107.2864 0.0000 0.0000 0.0000
# 4 0.0000 0.0000 0.0000 24.7320 0.0000 0.0000
# 5 0.0000 0.0000 0.0000 0.0000 25.5618 0.0000
# 6 0.0000 0.0000 0.0000 0.0000 0.0000 33.0577
#
#
#
# Elastic Compliance Matrix: (Units=1/GPa)
#
#
# Indices 1 2 3 4 5 6 
#
# 1 0.013398 -0.003041 -0.004289 0.000000 0.000000 0.000000
# 2 -0.003041 0.014478 -0.006592 0.000000 0.000000 0.000000
# 3 -0.004289 -0.006592 0.014845 0.000000 0.000000 0.000000
# 4 0.000000 0.000000 0.000000 0.040433 0.000000 0.000000
# 5 0.000000 0.000000 0.000000 0.000000 0.039121 0.000000
# 6 0.000000 0.000000 0.000000 0.000000 0.000000 0.030250
#
#
# Mechanical properties :
#
#
# Convention : Reuss Voigt Hill
#
# Bulk Modulus (GPa) = 67.21677 67.79227 67.50452
# Shear Modulus (GPa) = 26.97918 27.50304 27.24111
#
# Velocity S-wave (km/s) = 3.70259 3.73836 3.72052
# Velocity P-wave (km/s) = 7.24116 7.28572 7.26347
#
# Compressibility (1/GPa) = 0.01487724
#
# Stress axis : x y z
#
# Youngs Moduli (GPa) = 74.63717 69.07221 67.36205
#
# Poissons Ratio (x) = 0.21003 0.28893
# Poissons Ratio (y) = 0.22695 0.44404
# Poissons Ratio (z) = 0.32013 0.45532
#
# Static dielectric constant tensor:
#      x y z
#    x 3.405670 0.000000 0.000000 
#    y 0.000000 4.138880 0.000000 
#    z 0.000000 0.000000 3.712370 
# 
# 
# High freq. dielectric constant tensor:
#      x y z
#    x 1.757880 0.000000 0.000000 
#    y 0.000000 1.756170 0.000000 
#    z 0.000000 0.000000 1.773460 
# 
# From -- ./inp_files/77907.got.cif
#   From: 2010.03.12/outbox.cif.g09.slc.cpg/sg65_39_cif.got.tgz:77907.got - 2010.04.10 20:52:16.
