data_PCOD8271896
_publ_section_title
;
Structure prediction by ZEFSAII (Michael W. Deem and Ramdas Pophale) SiO2 
 PCOD8271896
Probable space group: C M M M
;
_chemical_formula_sum "Si O2"
_cell_formula_units_Z 64
_cell_length_a 9.254021
_cell_length_b 15.485680
_cell_length_c 22.290980
_cell_angle_alpha 90.000000
_cell_angle_beta 90.000000
_cell_angle_gamma 90.000000
_cell_volume 3194.404607
_symmetry_space_group_name_H-M "C M M M"
_symmetry_group_IT_number 65
_symmetry_cell_setting 'orthorhombic'
loop_
_space_group_symop_operation_xyz
x,y,z
-x,-y,z
x,-y,-z
-x,y,-z
-x,-y,-z
x,y,-z
-x,y,z
x,-y,z
1/2+x,1/2+y,z
1/2-x,1/2-y,z
1/2+x,1/2-y,-z
1/2-x,1/2+y,-z
1/2-x,1/2-y,-z
1/2+x,1/2+y,-z
1/2-x,1/2+y,z
1/2+x,1/2-y,z
loop_
_atom_site_type_symbol
_atom_site_label
_atom_site_fract_x
_atom_site_fract_y
_atom_site_fract_z
Si Si1 0.336694 0.602954 0.885244
Si Si2 0.330023 0.835122 0.359527
Si Si3 0.663660 0.896901 0.000000
Si Si4 0.334264 0.100667 0.770268
Si Si5 0.828050 0.500000 0.567827
O O1 0.500000 0.637924 0.889224
O O2 0.333655 0.500000 0.886150
O O3 0.246188 0.639152 0.941504
O O4 0.264899 0.636970 0.823875
O O5 0.500000 0.823697 0.368916
O O6 0.250000 0.750000 0.382956
O O7 0.291496 0.849448 0.289928
O O8 0.270091 0.915095 0.398368
O O9 0.500000 0.861778 0.000000
O O10 0.664317 0.000000 0.000000
O O11 0.500000 0.116654 0.788415
O O12 0.306543 0.000000 0.758405
O O13 0.769205 0.500000 0.500000
O O14 0.000000 0.500000 0.569879
#
# Coordination Sequence:
#
# PCOD8271896 Si02
#       5
#    16  16   8  16   8
#     4   9  16  24  37  61  93 128 169 221 278 324
#     4  10  20  35  56  83 112 146 187 231 276 327
#     4   9  15  23  35  55  88 131 176 218 265 324
#     4   9  16  29  48  68  95 134 180 222 266 325
#     4   9  18  36  61  85 113 152 191 224 267 329
#
# _framework density 20.035032000000001
#
# number of rings (size 3 to 8) (size 9 to 14) (size 15 to 20)
#    0.000    2.750    1.250    1.125    0.000    6.000 
#    0.000    0.625    0.000    0.750    0.000    0.875 
#    0.000    0.000    0.000    0.000    0.000    0.000 
#
# Total GULP energy -396827.268885 kJ/mol
# GULP energy per Si atom -12400.852153 kJ/mol
# Density = 1.998943 g / cm^3
# Si number density = 20.035032 Si / 1000 Ang^3
#
#
#
# Elastic Constant Matrix: (Units=GPa)
#
#
# Indices 1 2 3 4 5 6 
#
# 1 107.1769 38.5119 69.2932 0.0000 0.0000 0.0000
# 2 38.5119 86.7319 59.3197 0.0000 0.0000 0.0000
# 3 69.2932 59.3197 144.1380 0.0000 0.0000 0.0000
# 4 0.0000 0.0000 0.0000 4.8679 0.0000 0.0000
# 5 0.0000 0.0000 0.0000 0.0000 17.4732 0.0000
# 6 0.0000 0.0000 0.0000 0.0000 0.0000 21.5612
#
#
#
# Elastic Compliance Matrix: (Units=1/GPa)
#
#
# Indices 1 2 3 4 5 6 
#
# 1 0.013839 -0.002219 -0.005739 0.000000 0.000000 0.000000
# 2 -0.002219 0.016402 -0.005683 0.000000 0.000000 0.000000
# 3 -0.005739 -0.005683 0.012036 0.000000 0.000000 0.000000
# 4 0.000000 0.000000 0.000000 0.205429 0.000000 0.000000
# 5 0.000000 0.000000 0.000000 0.000000 0.057230 0.000000
# 6 0.000000 0.000000 0.000000 0.000000 0.000000 0.046380
#
#
# Mechanical properties :
#
#
# Convention : Reuss Voigt Hill
#
# Bulk Modulus (GPa) = 66.69989 74.69960 70.69974
# Shear Modulus (GPa) = 13.03448 20.17525 16.60486
#
# Velocity S-wave (km/s) = 2.55342 3.17677 2.88200
# Velocity P-wave (km/s) = 6.48515 7.12890 6.81463
#
# Compressibility (1/GPa) = 0.01499253
#
# Stress axis : x y z
#
# Youngs Moduli (GPa) = 72.26189 60.96672 83.08434
#
# Poissons Ratio (x) = 0.13531 0.47685
# Poissons Ratio (y) = 0.16038 0.47220
# Poissons Ratio (z) = 0.41474 0.34650
#
# Static dielectric constant tensor:
#      x y z
#    x 3.493730 0.000000 0.000000 
#    y 0.000000 3.231130 0.000000 
#    z 0.000000 0.000000 3.759110 
# 
# 
# High freq. dielectric constant tensor:
#      x y z
#    x 1.764000 0.000000 0.000000 
#    y 0.000000 1.753470 0.000000 
#    z 0.000000 0.000000 1.786870 
# 
# From -- ./inp_files/66760.got.cif
#   From: 2010.03.12/outbox.cif.g09.slc.cpg/sg65_34_cif.got.tgz:66760.got - 2010.04.10 20:52:16.
