data_PCOD8271302
_publ_section_title
;
Structure prediction by ZEFSAII (Michael W. Deem and Ramdas Pophale) SiO2 
 PCOD8271302
Probable space group: C M M M
;
_chemical_formula_sum "Si O2"
_cell_formula_units_Z 80
_cell_length_a 16.725842
_cell_length_b 11.991980
_cell_length_c 20.584431
_cell_angle_alpha 90.000000
_cell_angle_beta 90.000000
_cell_angle_gamma 90.000000
_cell_volume 4128.742065
_symmetry_space_group_name_H-M "C M M M"
_symmetry_group_IT_number 65
_symmetry_cell_setting 'orthorhombic'
loop_
_space_group_symop_operation_xyz
x,y,z
-x,-y,z
x,-y,-z
-x,y,-z
-x,-y,-z
x,y,-z
-x,y,z
x,-y,z
1/2+x,1/2+y,z
1/2-x,1/2-y,z
1/2+x,1/2-y,-z
1/2-x,1/2+y,-z
1/2-x,1/2-y,-z
1/2+x,1/2+y,-z
1/2-x,1/2+y,z
1/2+x,1/2-y,z
loop_
_atom_site_type_symbol
_atom_site_label
_atom_site_fract_x
_atom_site_fract_y
_atom_site_fract_z
Si Si1 0.905114 0.500000 0.265229
Si Si2 0.093300 0.123454 0.186504
Si Si3 0.404900 0.625332 0.571924
Si Si4 0.595353 0.000000 0.116281
Si Si5 0.341375 0.234076 0.074045
Si Si6 0.904399 0.736896 0.307501
O O1 0.876467 0.500000 0.190883
O O2 0.872428 0.610070 0.301769
O O3 0.000000 0.500000 0.266046
O O4 0.105827 0.186518 0.118979
O O5 0.130134 0.193070 0.246585
O O6 0.000000 0.111490 0.198482
O O7 0.132607 0.000000 0.184437
O O8 0.375484 0.662318 0.500000
O O9 0.500000 0.626917 0.574164
O O10 0.374891 0.500000 0.587398
O O11 0.370330 0.710076 0.625833
O O12 0.631851 0.893202 0.081065
O O13 0.500000 0.000000 0.109296
O O14 0.250000 0.250000 0.095180
O O15 0.354573 0.272442 0.000000
O O16 0.000000 0.738458 0.306529
#
# Coordination Sequence:
#
# PCOD8271302 Si02
#       6
#     8  16  16   8  16  16
#     4   9  16  27  47  71  95 126 173 231 271 303
#     4  10  20  34  54  77 101 134 175 218 266 324
#     4   8  13  21  35  58  91 131 170 208 258 323
#     4  11  21  40  65  85 105 144 199 239 269 332
#     4  11  25  40  56  79 110 141 173 223 285 336
#     4   9  15  26  43  66  95 128 170 219 266 312
#
# _framework density 19.376360999999999
#
# number of rings (size 3 to 8) (size 9 to 14) (size 15 to 20)
#    0.000    2.400    2.000    2.100    1.400    4.800 
#    0.000    1.500    0.000    3.000    0.000    0.000 
#    0.000    0.800    0.000    1.400    0.000    2.600 
#
# Total GULP energy -495894.092259 kJ/mol
# GULP energy per Si atom -12397.352306 kJ/mol
# Density = 1.933226 g / cm^3
# Si number density = 19.376361 Si / 1000 Ang^3
#
#
#
# Elastic Constant Matrix: (Units=GPa)
#
#
# Indices 1 2 3 4 5 6 
#
# 1 26.0562 15.2609 8.8742 0.0000 0.0000 0.0000
# 2 15.2609 166.4081 74.9215 0.0000 0.0000 0.0000
# 3 8.8742 74.9215 142.3146 0.0000 0.0000 0.0000
# 4 0.0000 0.0000 0.0000 41.6236 0.0000 0.0000
# 5 0.0000 0.0000 0.0000 0.0000 -79.0091 0.0000
# 6 0.0000 0.0000 0.0000 0.0000 0.0000 14.1648
#
#
#
# Elastic Compliance Matrix: (Units=1/GPa)
#
#
# Indices 1 2 3 4 5 6 
#
# 1 0.040618 -0.003388 -0.000749 0.000000 0.000000 0.000000
# 2 -0.003388 0.008159 -0.004084 0.000000 0.000000 0.000000
# 3 -0.000749 -0.004084 0.009223 0.000000 0.000000 0.000000
# 4 0.000000 0.000000 0.000000 0.024025 0.000000 0.000000
# 5 0.000000 0.000000 0.000000 0.000000 -0.012657 0.000000
# 6 0.000000 0.000000 0.000000 0.000000 0.000000 0.070597
#
#
# Mechanical properties :
#
#
# Convention : Reuss Voigt Hill
#
# Bulk Modulus (GPa) = 24.06264 59.21025 41.63644
# Shear Modulus (GPa) = 29.36689 11.07070 20.21879
#
# Velocity S-wave (km/s) = 3.89730 2.39289 3.23379
# Velocity P-wave (km/s) = 5.71817 6.18538 5.95635
#
# Compressibility (1/GPa) = 0.04155820
#
# Stress axis : x y z
#
# Youngs Moduli (GPa) = 24.61971 122.56902 108.42010
#
# Poissons Ratio (x) = 0.41521 0.08125
# Poissons Ratio (y) = 0.08340 0.44278
# Poissons Ratio (z) = 0.01845 0.50056
#
# Static dielectric constant tensor:
#      x y z
#    x 2.939660 0.000000 0.000000 
#    y 0.000000 3.860680 0.000000 
#    z 0.000000 0.000000 3.741650 
# 
# 
# High freq. dielectric constant tensor:
#      x y z
#    x 1.693900 0.000000 0.000000 
#    y 0.000000 1.765510 0.000000 
#    z 0.000000 0.000000 1.761280 
# 
# From -- ./inp_files/61376.got.cif
#   From: 2010.03.12/outbox.cif.g09.slc.cpg/sg65_31_cif.got.tgz:61376.got - 2010.04.10 20:52:16.
