data_PCOD8271769
_publ_section_title
;
Structure prediction by ZEFSAII (Michael W. Deem and Ramdas Pophale) SiO2 
 PCOD8271769
Probable space group: C M M M
;
_chemical_formula_sum "Si O2"
_cell_formula_units_Z 88
_cell_length_a 18.904693
_cell_length_b 24.723767
_cell_length_c 9.600731
_cell_angle_alpha 90.000000
_cell_angle_beta 90.000000
_cell_angle_gamma 90.000000
_cell_volume 4487.335825
_symmetry_space_group_name_H-M "C M M M"
_symmetry_group_IT_number 65
_symmetry_cell_setting 'orthorhombic'
loop_
_space_group_symop_operation_xyz
x,y,z
-x,-y,z
x,-y,-z
-x,y,-z
-x,-y,-z
x,y,-z
-x,y,z
x,-y,z
1/2+x,1/2+y,z
1/2-x,1/2-y,z
1/2+x,1/2-y,-z
1/2-x,1/2+y,-z
1/2-x,1/2-y,-z
1/2+x,1/2+y,-z
1/2-x,1/2+y,z
1/2+x,1/2-y,z
loop_
_atom_site_type_symbol
_atom_site_label
_atom_site_fract_x
_atom_site_fract_y
_atom_site_fract_z
Si Si1 0.199695 0.653314 0.841127
Si Si2 0.421019 0.233145 0.834569
Si Si3 0.652153 0.938316 0.665049
Si Si4 0.641062 0.343553 0.840733
Si Si5 0.500000 0.063530 0.349421
Si Si6 0.417809 0.438317 0.661630
O O1 0.139878 0.693176 0.776585
O O2 0.205517 0.599274 0.748410
O O3 0.278108 0.678192 0.831943
O O4 0.180506 0.638282 0.000000
O O5 0.500000 0.215266 0.784665
O O6 0.406570 0.294282 0.782180
O O7 0.415676 0.233319 0.000000
O O8 0.655991 0.928012 0.500000
O O9 0.573706 0.922211 0.726735
O O10 0.671618 0.000000 0.699129
O O11 0.628943 0.397245 0.751047
O O12 0.621421 0.357742 0.000000
O O13 0.500000 0.092581 0.500000
O O14 0.500000 0.000000 0.376899
O O15 0.401214 0.428036 0.500000
O O16 0.500000 0.428137 0.693660
O O17 0.397328 0.500000 0.701148
#
# Coordination Sequence:
#
# PCOD8271769 Si02
#       6
#    16  16  16  16   8  16
#     4  10  21  34  51  78 110 139 172 219 268 314
#     4   9  18  34  56  78 101 135 178 220 265 317
#     4   9  18  33  52  73 100 137 177 214 257 310
#     4  10  20  35  55  79 108 142 177 215 261 314
#     4   7  12  26  47  67  89 123 167 211 250 291
#     4   9  19  36  57  82 112 143 175 215 263 312
#
# _framework density 19.610745000000001
#
# number of rings (size 3 to 8) (size 9 to 14) (size 15 to 20)
#    0.000    2.818    0.000    2.727    1.273    5.455 
#    0.000    5.455    0.000    4.909    0.000    0.000 
#    0.000    0.000    0.000    0.000    0.000    0.000 
#
# Total GULP energy -545249.474585 kJ/mol
# GULP energy per Si atom -12392.033513 kJ/mol
# Density = 1.956611 g / cm^3
# Si number density = 19.610745 Si / 1000 Ang^3
#
#
#
# Elastic Constant Matrix: (Units=GPa)
#
#
# Indices 1 2 3 4 5 6 
#
# 1 90.3473 42.9817 25.7555 0.0000 0.0000 0.0000
# 2 42.9817 104.9813 42.8391 0.0000 0.0000 0.0000
# 3 25.7555 42.8391 45.5542 0.0000 0.0000 0.0000
# 4 0.0000 0.0000 0.0000 8.3116 0.0000 0.0000
# 5 0.0000 0.0000 0.0000 0.0000 8.9938 0.0000
# 6 0.0000 0.0000 0.0000 0.0000 0.0000 33.2933
#
#
#
# Elastic Compliance Matrix: (Units=1/GPa)
#
#
# Indices 1 2 3 4 5 6 
#
# 1 0.014216 -0.004122 -0.004161 0.000000 0.000000 0.000000
# 2 -0.004122 0.016652 -0.013329 0.000000 0.000000 0.000000
# 3 -0.004161 -0.013329 0.036839 0.000000 0.000000 0.000000
# 4 0.000000 0.000000 0.000000 0.120313 0.000000 0.000000
# 5 0.000000 0.000000 0.000000 0.000000 0.111188 0.000000
# 6 0.000000 0.000000 0.000000 0.000000 0.000000 0.030036
#
#
# Mechanical properties :
#
#
# Convention : Reuss Voigt Hill
#
# Bulk Modulus (GPa) = 40.84517 51.55948 46.20232
# Shear Modulus (GPa) = 13.13614 18.74019 15.93817
#
# Velocity S-wave (km/s) = 2.59094 3.09465 2.85393
# Velocity P-wave (km/s) = 5.46112 6.25441 5.87118
#
# Compressibility (1/GPa) = 0.02448270
#
# Stress axis : x y z
#
# Youngs Moduli (GPa) = 70.34499 60.05106 27.14517
#
# Poissons Ratio (x) = 0.24756 0.11294
# Poissons Ratio (y) = 0.28999 0.36182
# Poissons Ratio (z) = 0.29267 0.80043
#
# Static dielectric constant tensor:
#      x y z
#    x 3.760720 0.000000 0.000000 
#    y 0.000000 3.437000 0.000000 
#    z 0.000000 0.000000 3.152920 
# 
# 
# High freq. dielectric constant tensor:
#      x y z
#    x 1.775040 0.000000 0.000000 
#    y 0.000000 1.759000 0.000000 
#    z 0.000000 0.000000 1.722070 
# 
# From -- ./inp_files/26799.got.cif
#   From: 2010.03.12/outbox.cif.g09.slc.cpg/sg65_14_cif.got.tgz:26799.got - 2010.04.10 20:52:16.
