data_PCOD8271007
_publ_section_title
;
Structure prediction by ZEFSAII (Michael W. Deem and Ramdas Pophale) SiO2 
 PCOD8271007
Probable space group: C M M M
;
_chemical_formula_sum "Si O2"
_cell_formula_units_Z 72
_cell_length_a 7.749693
_cell_length_b 19.657119
_cell_length_c 26.687583
_cell_angle_alpha 90.000000
_cell_angle_beta 90.000000
_cell_angle_gamma 90.000000
_cell_volume 4065.496658
_symmetry_space_group_name_H-M "C M M M"
_symmetry_group_IT_number 65
_symmetry_cell_setting 'orthorhombic'
loop_
_space_group_symop_operation_xyz
x,y,z
-x,-y,z
x,-y,-z
-x,y,-z
-x,-y,-z
x,y,-z
-x,y,z
x,-y,z
1/2+x,1/2+y,z
1/2-x,1/2-y,z
1/2+x,1/2-y,-z
1/2-x,1/2+y,-z
1/2-x,1/2-y,-z
1/2+x,1/2+y,-z
1/2-x,1/2+y,z
1/2+x,1/2-y,z
loop_
_atom_site_type_symbol
_atom_site_label
_atom_site_fract_x
_atom_site_fract_y
_atom_site_fract_z
Si Si1 0.500000 0.919286 0.289051
Si Si2 0.192634 0.921998 0.641552
Si Si3 0.202006 0.324947 0.443009
Si Si4 0.296632 0.426156 0.000000
Si Si5 0.806431 0.081483 0.107758
Si Si6 0.000000 0.581176 0.176933
O O1 0.670963 0.893393 0.317931
O O2 0.500000 0.888537 0.233099
O O3 0.500000 0.000000 0.285391
O O4 0.200594 0.880034 0.590347
O O5 0.000000 0.915507 0.664322
O O6 0.236610 0.000000 0.628322
O O7 0.267252 0.333725 0.500000
O O8 0.250000 0.250000 0.423362
O O9 0.000000 0.337688 0.438588
O O10 0.248349 0.388913 0.052657
O O11 0.205097 0.500000 0.000000
O O12 0.500000 0.436754 0.000000
O O13 0.671538 0.108439 0.148982
O O14 0.000000 0.106359 0.122177
O O15 0.804213 0.000000 0.104675
O O16 0.000000 0.500000 0.177723
#
# Coordination Sequence:
#
# PCOD8271007 Si02
#       6
#     8  16  16   8  16   8
#     4   9  18  32  44  60  86 114 153 197 233 271
#     4  10  20  34  52  71  94 127 161 193 234 281
#     4  10  20  34  53  77 104 128 152 188 232 279
#     4   7  10  17  27  39  60  89 121 164 217 268
#     4   8  13  20  29  43  64  91 126 171 222 269
#     4   9  16  23  34  50  68  95 134 182 227 265
#
# _framework density 17.710013
#
# number of rings (size 3 to 8) (size 9 to 14) (size 15 to 20)
#    0.000    3.000    1.111    2.000    0.000    3.111 
#    0.000    8.889    0.000    0.000    0.000    0.000 
#    0.000    0.000    0.000    0.000    0.000    0.000 
#
# Total GULP energy -446097.332993 kJ/mol
# GULP energy per Si atom -12391.592583 kJ/mol
# Density = 1.766970 g / cm^3
# Si number density = 17.710013 Si / 1000 Ang^3
#
#
#
# Elastic Constant Matrix: (Units=GPa)
#
#
# Indices 1 2 3 4 5 6 
#
# 1 118.9058 20.1803 67.5151 0.0000 0.0000 0.0000
# 2 20.1803 30.8909 33.4449 0.0000 0.0000 0.0000
# 3 67.5151 33.4449 142.0745 0.0000 0.0000 0.0000
# 4 0.0000 0.0000 0.0000 -0.8678 0.0000 0.0000
# 5 0.0000 0.0000 0.0000 0.0000 23.9740 0.0000
# 6 0.0000 0.0000 0.0000 0.0000 0.0000 13.3555
#
#
#
# Elastic Compliance Matrix: (Units=1/GPa)
#
#
# Indices 1 2 3 4 5 6 
#
# 1 0.011625 -0.002165 -0.005015 0.000000 0.000000 0.000000
# 2 -0.002165 0.043848 -0.009293 0.000000 0.000000 0.000000
# 3 -0.005015 -0.009293 0.011609 0.000000 0.000000 0.000000
# 4 0.000000 0.000000 0.000000 -1.152340 0.000000 0.000000
# 5 0.000000 0.000000 0.000000 0.000000 0.041712 0.000000
# 6 0.000000 0.000000 0.000000 0.000000 0.000000 0.074875
#
#
# Mechanical properties :
#
#
# Convention : Reuss Voigt Hill
#
# Bulk Modulus (GPa) = 29.29429 59.35022 44.32225
# Shear Modulus (GPa) = -5.40923 18.67439 6.63258
#
# Velocity S-wave (km/s) = -1.74956 3.25076 1.93733
# Velocity P-wave (km/s) = 3.53493 6.90470 5.48501
#
# Compressibility (1/GPa) = 0.03413634
#
# Stress axis : x y z
#
# Youngs Moduli (GPa) = 86.02350 22.80613 86.13897
#
# Poissons Ratio (x) = 0.04938 0.43195
# Poissons Ratio (y) = 0.18625 0.80050
# Poissons Ratio (z) = 0.43137 0.21194
#
# Static dielectric constant tensor:
#      x y z
#    x 3.431180 0.000000 0.000000 
#    y 0.000000 2.631590 0.000000 
#    z 0.000000 0.000000 3.558640 
# 
# 
# High freq. dielectric constant tensor:
#      x y z
#    x 1.697610 0.000000 0.000000 
#    y 0.000000 1.602600 0.000000 
#    z 0.000000 0.000000 1.686880 
# 
# From -- ./inp_files/67267.got.cif
#   From: 2010.03.12/outbox.cif.g09.slc.cpg/sg65_34_cif.got.tgz:67267.got - 2010.04.10 20:52:16.
