data_PCOD8271578
_publ_section_title
;
Structure prediction by ZEFSAII (Michael W. Deem and Ramdas Pophale) SiO2 
 PCOD8271578
Probable space group: C M M M
;
_chemical_formula_sum "Si O2"
_cell_formula_units_Z 88
_cell_length_a 8.832637
_cell_length_b 28.485931
_cell_length_c 17.980676
_cell_angle_alpha 90.000000
_cell_angle_beta 90.000000
_cell_angle_gamma 90.000000
_cell_volume 4524.043954
_symmetry_space_group_name_H-M "C M M M"
_symmetry_group_IT_number 65
_symmetry_cell_setting 'orthorhombic'
loop_
_space_group_symop_operation_xyz
x,y,z
-x,-y,z
x,-y,-z
-x,y,-z
-x,-y,-z
x,y,-z
-x,y,z
x,-y,z
1/2+x,1/2+y,z
1/2-x,1/2-y,z
1/2+x,1/2-y,-z
1/2-x,1/2+y,-z
1/2-x,1/2-y,-z
1/2+x,1/2+y,-z
1/2-x,1/2+y,z
1/2+x,1/2-y,z
loop_
_atom_site_type_symbol
_atom_site_label
_atom_site_fract_x
_atom_site_fract_y
_atom_site_fract_z
Si Si1 0.823064 0.700497 0.220702
Si Si2 0.678602 0.699060 0.500000
Si Si3 0.820812 0.643344 0.081714
Si Si4 0.323811 0.856639 0.367364
Si Si5 0.673220 0.947775 0.164391
Si Si6 0.175862 0.052872 0.320395
O O1 0.750000 0.750000 0.239513
O O2 0.755829 0.679209 0.143697
O O3 0.786369 0.664092 0.286221
O O4 0.000000 0.708729 0.213314
O O5 0.500000 0.704462 0.500000
O O6 0.750000 0.750000 0.500000
O O7 0.728836 0.671826 0.573093
O O8 0.777229 0.589840 0.102476
O O9 0.000000 0.648412 0.079160
O O10 0.751928 0.654832 0.000000
O O11 0.500000 0.852890 0.387345
O O12 0.272577 0.910919 0.369719
O O13 0.500000 0.938161 0.190671
O O14 0.781498 0.942003 0.234429
O O15 0.688575 0.000000 0.129896
O O16 0.000000 0.064844 0.329676
O O17 0.211864 0.000000 0.348262
#
# Coordination Sequence:
#
# PCOD8271578 Si02
#       6
#    16   8  16  16  16  16
#     4  10  21  36  55  80 107 144 190 237 287 341
#     4  12  26  44  65  94 127 158 194 237 291 345
#     4   9  17  31  50  76 111 146 186 239 290 337
#     4  11  22  40  64  89 118 153 195 240 290 343
#     4   9  16  29  51  78 108 145 189 236 286 344
#     4  10  20  34  56  87 120 154 191 234 286 345
#
# _framework density 19.451623999999999
#
# number of rings (size 3 to 8) (size 9 to 14) (size 15 to 20)
#    0.000    2.000    1.818    2.455    0.000    4.727 
#    0.000    2.273    0.000    4.364    0.000    2.545 
#    0.000    0.000    0.000    0.000    0.000    0.000 
#
# Total GULP energy -545582.231381 kJ/mol
# GULP energy per Si atom -12399.596168 kJ/mol
# Density = 1.940735 g / cm^3
# Si number density = 19.451624 Si / 1000 Ang^3
#
#
#
# Elastic Constant Matrix: (Units=GPa)
#
#
# Indices 1 2 3 4 5 6 
#
# 1 74.1863 50.0982 43.1144 0.0000 0.0000 0.0000
# 2 50.0982 131.9596 44.6380 0.0000 0.0000 0.0000
# 3 43.1144 44.6380 92.5196 0.0000 0.0000 0.0000
# 4 0.0000 0.0000 0.0000 31.8416 0.0000 0.0000
# 5 0.0000 0.0000 0.0000 0.0000 18.0935 0.0000
# 6 0.0000 0.0000 0.0000 0.0000 0.0000 29.0551
#
#
#
# Elastic Compliance Matrix: (Units=1/GPa)
#
#
# Indices 1 2 3 4 5 6 
#
# 1 0.021588 -0.005728 -0.007297 0.000000 0.000000 0.000000
# 2 -0.005728 0.010576 -0.002433 0.000000 0.000000 0.000000
# 3 -0.007297 -0.002433 0.015383 0.000000 0.000000 0.000000
# 4 0.000000 0.000000 0.000000 0.031405 0.000000 0.000000
# 5 0.000000 0.000000 0.000000 0.000000 0.055268 0.000000
# 6 0.000000 0.000000 0.000000 0.000000 0.000000 0.034417
#
#
# Mechanical properties :
#
#
# Convention : Reuss Voigt Hill
#
# Bulk Modulus (GPa) = 60.12794 63.81854 61.97324
# Shear Modulus (GPa) = 24.37873 26.51904 25.44888
#
# Velocity S-wave (km/s) = 3.54404 3.69634 3.62099
# Velocity P-wave (km/s) = 6.90837 7.14824 7.02933
#
# Compressibility (1/GPa) = 0.01663120
#
# Stress axis : x y z
#
# Youngs Moduli (GPa) = 46.32200 94.55649 65.00749
#
# Poissons Ratio (x) = 0.54158 0.47434
# Poissons Ratio (y) = 0.26531 0.15819
# Poissons Ratio (z) = 0.33800 0.23009
#
# Static dielectric constant tensor:
#      x y z
#    x 3.369580 0.000000 0.000000 
#    y 0.000000 3.887240 0.000000 
#    z 0.000000 0.000000 3.516220 
# 
# 
# High freq. dielectric constant tensor:
#      x y z
#    x 1.737050 0.000000 0.000000 
#    y 0.000000 1.773440 0.000000 
#    z 0.000000 0.000000 1.743740 
# 
# From -- ./inp_files/50401.got.cif
#   From: 2010.03.12/outbox.cif.g09.slc.cpg/sg65_26_cif.got.tgz:50401.got - 2010.04.10 20:52:16.
