data_PCOD8271772
_publ_section_title
;
Structure prediction by ZEFSAII (Michael W. Deem and Ramdas Pophale) SiO2 
 PCOD8271772
Probable space group: C M M M
;
_chemical_formula_sum "Si O2"
_cell_formula_units_Z 112
_cell_length_a 13.900971
_cell_length_b 14.926089
_cell_length_c 27.004474
_cell_angle_alpha 90.000000
_cell_angle_beta 90.000000
_cell_angle_gamma 90.000000
_cell_volume 5603.080816
_symmetry_space_group_name_H-M "C M M M"
_symmetry_group_IT_number 65
_symmetry_cell_setting 'orthorhombic'
loop_
_space_group_symop_operation_xyz
x,y,z
-x,-y,z
x,-y,-z
-x,y,-z
-x,-y,-z
x,y,-z
-x,y,z
x,-y,z
1/2+x,1/2+y,z
1/2-x,1/2-y,z
1/2+x,1/2-y,-z
1/2-x,1/2+y,-z
1/2-x,1/2-y,-z
1/2+x,1/2+y,-z
1/2-x,1/2+y,z
1/2+x,1/2-y,z
loop_
_atom_site_type_symbol
_atom_site_label
_atom_site_fract_x
_atom_site_fract_y
_atom_site_fract_z
Si Si1 0.232658 0.395593 0.942293
Si Si2 0.274666 0.849506 0.647776
Si Si3 0.114189 0.767119 0.903113
Si Si4 0.392318 0.894137 0.444303
Si Si5 0.113746 0.228760 0.790929
Si Si6 0.386385 0.097312 0.260166
Si Si7 0.894083 0.900534 0.293468
O O1 0.232571 0.500000 0.922742
O O2 0.151501 0.333195 0.916282
O O3 0.335890 0.346365 0.934738
O O4 0.208946 0.396914 0.000000
O O5 0.250000 0.750000 0.662881
O O6 0.310679 0.854605 0.591483
O O7 0.358194 0.886891 0.682881
O O8 0.174713 0.901746 0.658223
O O9 0.145070 0.790406 0.846861
O O10 0.000000 0.770001 0.911940
O O11 0.366475 0.863391 0.500000
O O12 0.500000 0.859736 0.430563
O O13 0.389993 0.000000 0.440130
O O14 0.155871 0.326271 0.775940
O O15 0.153326 0.156181 0.751509
O O16 0.000000 0.227865 0.787187
O O17 0.500000 0.098590 0.258143
O O18 0.346921 0.000000 0.242815
O O19 0.000000 0.863734 0.308870
O O20 0.903509 0.000000 0.272448
#
# Coordination Sequence:
#
# PCOD8271772 Si02
#       7
#    16  16  16  16  16  16  16
#     4  10  23  41  59  85 120 153 192 245 300 355
#     4  12  22  32  54  80 109 143 183 229 271 327
#     4  10  21  38  63  88 116 154 197 244 295 352
#     4   9  19  37  59  82 108 136 173 229 290 340
#     4   9  19  36  55  82 115 146 188 232 277 332
#     4  10  20  35  55  79 110 144 181 229 279 328
#     4  10  21  37  54  74 109 153 191 226 264 316
#
# _framework density 19.989003
#
# number of rings (size 3 to 8) (size 9 to 14) (size 15 to 20)
#    0.000    2.000    1.429    3.000    0.000    7.143 
#    0.000    4.286    0.000    0.429    0.000    2.000 
#    0.000    0.000    0.000    0.000    0.000    0.000 
#
# Total GULP energy -693954.088129 kJ/mol
# GULP energy per Si atom -12392.037288 kJ/mol
# Density = 1.994351 g / cm^3
# Si number density = 19.989003 Si / 1000 Ang^3
#
#
#
# Elastic Constant Matrix: (Units=GPa)
#
#
# Indices 1 2 3 4 5 6 
#
# 1 85.6892 24.7521 35.8137 0.0000 0.0000 0.0000
# 2 24.7521 120.4024 25.0971 0.0000 0.0000 0.0000
# 3 35.8137 25.0971 96.0990 0.0000 0.0000 0.0000
# 4 0.0000 0.0000 0.0000 31.3422 0.0000 0.0000
# 5 0.0000 0.0000 0.0000 0.0000 18.1789 0.0000
# 6 0.0000 0.0000 0.0000 0.0000 0.0000 19.2979
#
#
#
# Elastic Compliance Matrix: (Units=1/GPa)
#
#
# Indices 1 2 3 4 5 6 
#
# 1 0.014233 -0.001925 -0.004801 0.000000 0.000000 0.000000
# 2 -0.001925 0.009044 -0.001644 0.000000 0.000000 0.000000
# 3 -0.004801 -0.001644 0.012625 0.000000 0.000000 0.000000
# 4 0.000000 0.000000 0.000000 0.031906 0.000000 0.000000
# 5 0.000000 0.000000 0.000000 0.000000 0.055009 0.000000
# 6 0.000000 0.000000 0.000000 0.000000 0.000000 0.051819
#
#
# Mechanical properties :
#
#
# Convention : Reuss Voigt Hill
#
# Bulk Modulus (GPa) = 52.19325 52.61290 52.40308
# Shear Modulus (GPa) = 25.28261 28.19898 26.74079
#
# Velocity S-wave (km/s) = 3.56030 3.76004 3.66153
# Velocity P-wave (km/s) = 6.56267 6.72522 6.64444
#
# Compressibility (1/GPa) = 0.01915957
#
# Stress axis : x y z
#
# Youngs Moduli (GPa) = 70.25947 110.57016 79.20916
#
# Poissons Ratio (x) = 0.21286 0.38032
# Poissons Ratio (y) = 0.13526 0.13026
# Poissons Ratio (z) = 0.33735 0.18183
#
# Static dielectric constant tensor:
#      x y z
#    x 6.040960 0.000000 0.000000 
#    y 0.000000 3.913080 0.000000 
#    z 0.000000 0.000000 3.692660 
# 
# 
# High freq. dielectric constant tensor:
#      x y z
#    x 1.786500 0.000000 0.000000 
#    y 0.000000 1.782030 0.000000 
#    z 0.000000 0.000000 1.764310 
# 
# From -- ./inp_files/70037.got.cif
#   From: 2010.03.12/outbox.cif.g09.slc.cpg/sg65_36_cif.got.tgz:70037.got - 2010.04.10 20:52:16.
