data_PCOD8271075
_publ_section_title
;
Structure prediction by ZEFSAII (Michael W. Deem and Ramdas Pophale) SiO2 
 PCOD8271075
Probable space group: C M M M
;
_chemical_formula_sum "Si O2"
_cell_formula_units_Z 72
_cell_length_a 25.342880
_cell_length_b 18.478646
_cell_length_c 7.816544
_cell_angle_alpha 90.000000
_cell_angle_beta 90.000000
_cell_angle_gamma 90.000000
_cell_volume 3660.504034
_symmetry_space_group_name_H-M "C M M M"
_symmetry_group_IT_number 65
_symmetry_cell_setting 'orthorhombic'
loop_
_space_group_symop_operation_xyz
x,y,z
-x,-y,z
x,-y,-z
-x,y,-z
-x,-y,-z
x,y,-z
-x,y,z
x,-y,z
1/2+x,1/2+y,z
1/2-x,1/2-y,z
1/2+x,1/2-y,-z
1/2-x,1/2+y,-z
1/2-x,1/2-y,-z
1/2+x,1/2+y,-z
1/2-x,1/2+y,z
1/2+x,1/2-y,z
loop_
_atom_site_type_symbol
_atom_site_label
_atom_site_fract_x
_atom_site_fract_y
_atom_site_fract_z
Si Si1 0.165521 0.920284 0.302824
Si Si2 0.635216 0.916316 0.805571
Si Si3 0.559246 0.085328 0.500000
Si Si4 0.237548 0.668759 0.703359
Si Si5 0.943969 0.083065 0.201173
O O1 0.178365 0.927592 0.500000
O O2 0.212736 0.875180 0.220240
O O3 0.108660 0.880020 0.278614
O O4 0.164010 0.000000 0.216081
O O5 0.590362 0.890173 0.671763
O O6 0.685283 0.863855 0.787658
O O7 0.651460 0.000000 0.766864
O O8 0.613432 0.909354 0.000000
O O9 0.500000 0.119464 0.500000
O O10 0.553875 0.000000 0.500000
O O11 0.231517 0.663354 0.500000
O O12 0.250000 0.750000 0.762027
O O13 0.000000 0.118261 0.264471
O O14 0.944255 0.000000 0.261299
O O15 0.940648 0.089629 0.000000
#
# Coordination Sequence:
#
# PCOD8271075 Si02
#       5
#    16  16   8  16  16
#     4   9  17  28  45  70  97 126 163 211 260 306
#     4  10  20  34  56  85 114 146 183 224 276 336
#     4   9  18  34  57  84 114 144 175 224 282 331
#     4  10  20  34  52  74 104 143 184 224 270 323
#     4   8  14  25  41  62  89 120 154 194 240 290
#
# _framework density 19.669422000000001
#
# number of rings (size 3 to 8) (size 9 to 14) (size 15 to 20)
#    0.000    2.778    1.111    1.333    0.000    3.111 
#    0.000    6.667    0.000    1.333    0.000    0.000 
#    0.000    0.000    0.000    0.000    0.000    0.000 
#
# Total GULP energy -445977.923369 kJ/mol
# GULP energy per Si atom -12388.275649 kJ/mol
# Density = 1.962465 g / cm^3
# Si number density = 19.669422 Si / 1000 Ang^3
#
#
#
# Elastic Constant Matrix: (Units=GPa)
#
#
# Indices 1 2 3 4 5 6 
#
# 1 193.7300 52.1878 50.7472 0.0000 0.0000 0.0000
# 2 52.1878 62.2228 24.0931 0.0000 0.0000 0.0000
# 3 50.7472 24.0931 77.5077 0.0000 0.0000 0.0000
# 4 0.0000 0.0000 0.0000 12.1410 0.0000 0.0000
# 5 0.0000 0.0000 0.0000 0.0000 1.4861 0.0000
# 6 0.0000 0.0000 0.0000 0.0000 0.0000 5.3904
#
#
#
# Elastic Compliance Matrix: (Units=1/GPa)
#
#
# Indices 1 2 3 4 5 6 
#
# 1 0.007338 -0.004882 -0.003287 0.000000 0.000000 0.000000
# 2 -0.004882 0.021518 -0.003493 0.000000 0.000000 0.000000
# 3 -0.003287 -0.003493 0.016140 0.000000 0.000000 0.000000
# 4 0.000000 0.000000 0.000000 0.082366 0.000000 0.000000
# 5 0.000000 0.000000 0.000000 0.000000 0.672885 0.000000
# 6 0.000000 0.000000 0.000000 0.000000 0.000000 0.185516
#
#
# Mechanical properties :
#
#
# Convention : Reuss Voigt Hill
#
# Bulk Modulus (GPa) = 46.14005 65.27963 55.70984
# Shear Modulus (GPa) = 4.91976 17.56566 11.24271
#
# Velocity S-wave (km/s) = 1.58324 2.99163 2.39337
# Velocity P-wave (km/s) = 5.18178 6.72261 6.00185
#
# Compressibility (1/GPa) = 0.02167315
#
# Stress axis : x y z
#
# Youngs Moduli (GPa) = 136.27901 46.47258 61.95916
#
# Poissons Ratio (x) = 0.22687 0.20365
# Poissons Ratio (y) = 0.66528 0.21640
# Poissons Ratio (z) = 0.44794 0.16231
#
# Static dielectric constant tensor:
#      x y z
#    x 4.011200 0.000000 0.000000 
#    y 0.000000 3.283140 0.000000 
#    z 0.000000 0.000000 3.437070 
# 
# 
# High freq. dielectric constant tensor:
#      x y z
#    x 1.782170 0.000000 0.000000 
#    y 0.000000 1.707500 0.000000 
#    z 0.000000 0.000000 1.758250 
# 
# From -- ./inp_files/13760.got.cif
#   From: 2010.03.12/outbox.cif.g09.slc.cpg/sg65_7_cif.got.tgz:13760.got - 2010.04.10 20:52:16.
