data_PCOD8271512
_publ_section_title
;
Structure prediction by ZEFSAII (Michael W. Deem and Ramdas Pophale) SiO2 
 PCOD8271512
Probable space group: C M M M
;
_chemical_formula_sum "Si O2"
_cell_formula_units_Z 72
_cell_length_a 14.520162
_cell_length_b 27.267383
_cell_length_c 9.233801
_cell_angle_alpha 90.000000
_cell_angle_beta 90.000000
_cell_angle_gamma 90.000000
_cell_volume 3655.909452
_symmetry_space_group_name_H-M "C M M M"
_symmetry_group_IT_number 65
_symmetry_cell_setting 'orthorhombic'
loop_
_space_group_symop_operation_xyz
x,y,z
-x,-y,z
x,-y,-z
-x,y,-z
-x,-y,-z
x,y,-z
-x,y,z
x,-y,z
1/2+x,1/2+y,z
1/2-x,1/2-y,z
1/2+x,1/2-y,-z
1/2-x,1/2+y,-z
1/2-x,1/2-y,-z
1/2+x,1/2+y,-z
1/2-x,1/2+y,z
1/2+x,1/2-y,z
loop_
_atom_site_type_symbol
_atom_site_label
_atom_site_fract_x
_atom_site_fract_y
_atom_site_fract_z
Si Si1 0.900202 0.178523 0.660521
Si Si2 0.107793 0.000000 0.827798
Si Si3 0.603709 0.866688 0.333027
Si Si4 0.212307 0.913792 0.331064
Si Si5 0.852905 0.732109 0.166447
O O1 0.870973 0.196384 0.500000
O O2 0.826767 0.139100 0.717117
O O3 0.913050 0.225342 0.762589
O O4 0.000000 0.152251 0.656358
O O5 0.162009 0.953376 0.767081
O O6 0.000000 0.000000 0.779817
O O7 0.115159 0.000000 0.000000
O O8 0.612883 0.850792 0.500000
O O9 0.500000 0.885753 0.298814
O O10 0.677325 0.910511 0.300740
O O11 0.626761 0.819619 0.238449
O O12 0.191711 0.925188 0.500000
O O13 0.750000 0.750000 0.191530
O O14 0.879973 0.727025 0.000000
#
# Coordination Sequence:
#
# PCOD8271512 Si02
#       5
#    16   8  16  16  16
#     4  10  20  34  55  82 110 146 193 239 283 336
#     4  11  25  43  64  91 120 148 181 229 290 351
#     4  10  21  38  61  87 115 152 198 244 287 333
#     4  10  21  39  63  87 114 148 190 238 288 344
#     4  11  22  34  51  79 117 159 198 235 281 338
#
# _framework density 19.694141999999999
#
# number of rings (size 3 to 8) (size 9 to 14) (size 15 to 20)
#    0.000    1.667    2.222    2.333    0.000    8.000 
#    0.000    0.556    0.000    3.333    0.000    0.000 
#    0.000    0.000    0.000    0.000    0.000    0.000 
#
# Total GULP energy -446241.574573 kJ/mol
# GULP energy per Si atom -12395.599294 kJ/mol
# Density = 1.964932 g / cm^3
# Si number density = 19.694142 Si / 1000 Ang^3
#
#
#
# Elastic Constant Matrix: (Units=GPa)
#
#
# Indices 1 2 3 4 5 6 
#
# 1 149.2172 60.4281 60.8755 0.0000 0.0000 0.0000
# 2 60.4281 90.8790 53.6704 0.0000 0.0000 0.0000
# 3 60.8755 53.6704 91.9058 0.0000 0.0000 0.0000
# 4 0.0000 0.0000 0.0000 340.0640 0.0000 0.0000
# 5 0.0000 0.0000 0.0000 0.0000 18.9636 0.0000
# 6 0.0000 0.0000 0.0000 0.0000 0.0000 22.9061
#
#
#
# Elastic Compliance Matrix: (Units=1/GPa)
#
#
# Indices 1 2 3 4 5 6 
#
# 1 0.010152 -0.004242 -0.004247 0.000000 0.000000 0.000000
# 2 -0.004242 0.018569 -0.008034 0.000000 0.000000 0.000000
# 3 -0.004247 -0.008034 0.018385 0.000000 0.000000 0.000000
# 4 0.000000 0.000000 0.000000 0.002941 0.000000 0.000000
# 5 0.000000 0.000000 0.000000 0.000000 0.052733 0.000000
# 6 0.000000 0.000000 0.000000 0.000000 0.000000 0.043656
#
#
# Mechanical properties :
#
#
# Convention : Reuss Voigt Hill
#
# Bulk Modulus (GPa) = 71.12299 75.77220 73.44760
# Shear Modulus (GPa) = 27.14885 86.85528 57.00206
#
# Velocity S-wave (km/s) = 3.71688 6.64814 5.38577
# Velocity P-wave (km/s) = 7.39002 9.87362 8.72069
#
# Compressibility (1/GPa) = 0.01406015
#
# Stress axis : x y z
#
# Youngs Moduli (GPa) = 98.49935 53.85320 54.39091
#
# Poissons Ratio (x) = 0.22846 0.23101
# Poissons Ratio (y) = 0.41787 0.43697
# Poissons Ratio (z) = 0.41835 0.43265
#
# Static dielectric constant tensor:
#      x y z
#    x 4.033560 0.000000 0.000000 
#    y 0.000000 3.336370 0.000000 
#    z 0.000000 0.000000 3.536790 
# 
# 
# High freq. dielectric constant tensor:
#      x y z
#    x 1.792820 0.000000 0.000000 
#    y 0.000000 1.738220 0.000000 
#    z 0.000000 0.000000 1.760740 
# 
# From -- ./inp_files/7264.got.cif
#   From: 2010.03.12/outbox.cif.g09.slc.cpg/sg65_4_cif.got.tgz:7264.got - 2010.04.10 20:52:16.
