data_PCOD8271244
_publ_section_title
;
Structure prediction by ZEFSAII (Michael W. Deem and Ramdas Pophale) SiO2 
 PCOD8271244
Probable space group: C M M M
;
_chemical_formula_sum "Si O2"
_cell_formula_units_Z 112
_cell_length_a 15.662547
_cell_length_b 23.279681
_cell_length_c 15.137338
_cell_angle_alpha 90.000000
_cell_angle_beta 90.000000
_cell_angle_gamma 90.000000
_cell_volume 5519.362525
_symmetry_space_group_name_H-M "C M M M"
_symmetry_group_IT_number 65
_symmetry_cell_setting 'orthorhombic'
loop_
_space_group_symop_operation_xyz
x,y,z
-x,-y,z
x,-y,-z
-x,y,-z
-x,-y,-z
x,y,-z
-x,y,z
x,-y,z
1/2+x,1/2+y,z
1/2-x,1/2-y,z
1/2+x,1/2-y,-z
1/2-x,1/2+y,-z
1/2-x,1/2-y,-z
1/2+x,1/2+y,-z
1/2-x,1/2+y,z
1/2+x,1/2-y,z
loop_
_atom_site_type_symbol
_atom_site_label
_atom_site_fract_x
_atom_site_fract_y
_atom_site_fract_z
Si Si1 0.906925 0.864271 0.716196
Si Si2 0.096624 0.293031 0.843219
Si Si3 0.299112 0.889357 0.097172
Si Si4 0.345559 0.242615 0.662254
Si Si5 0.737244 0.065462 0.281945
Si Si6 0.403278 0.127870 0.599453
Si Si7 0.371360 0.326917 0.094525
O O1 0.892049 0.804146 0.665598
O O2 0.829815 0.907601 0.694924
O O3 0.917349 0.854950 0.821573
O O4 0.000000 0.888500 0.684985
O O5 0.113000 0.354454 0.889444
O O6 0.159055 0.285583 0.759550
O O7 0.112801 0.241107 0.910350
O O8 0.000000 0.292526 0.807902
O O9 0.282272 0.934051 0.176520
O O10 0.228836 0.839215 0.101983
O O11 0.299525 0.920079 0.000000
O O12 0.250000 0.250000 0.626137
O O13 0.394214 0.197241 0.600037
O O14 0.663071 0.098485 0.333946
O O15 0.739161 0.000000 0.313774
O O16 0.385185 0.106202 0.500000
O O17 0.500000 0.111313 0.627535
O O18 0.405688 0.351960 0.000000
#
# Coordination Sequence:
#
# PCOD8271244 Si02
#       7
#    16  16  16  16  16  16  16
#     4  10  20  35  58  89 124 164 204 244 296 361
#     4  11  19  27  47  79 117 156 193 236 290 359
#     4  10  20  34  53  77 110 155 202 246 297 353
#     4  11  18  35  61  91 128 158 186 232 300 368
#     4  11  24  43  63  85 118 162 209 259 305 345
#     4  11  24  43  69  98 123 151 193 246 305 366
#     4   9  17  29  46  75 115 156 198 243 291 347
#
# _framework density 20.292197999999999
#
# number of rings (size 3 to 8) (size 9 to 14) (size 15 to 20)
#    0.000    1.571    2.857    5.143    0.000    4.571 
#    0.000    0.714    0.000    0.429    0.000    7.000 
#    0.000    0.000    0.000    0.000    0.000    0.000 
#
# Total GULP energy -693987.877838 kJ/mol
# GULP energy per Si atom -12392.640676 kJ/mol
# Density = 2.024601 g / cm^3
# Si number density = 20.292198 Si / 1000 Ang^3
#
#
#
# Elastic Constant Matrix: (Units=GPa)
#
#
# Indices 1 2 3 4 5 6 
#
# 1 127.5682 41.7083 36.6157 0.0000 0.0000 0.0000
# 2 41.7083 92.2593 21.7396 0.0000 0.0000 0.0000
# 3 36.6157 21.7396 71.9634 0.0000 0.0000 0.0000
# 4 0.0000 0.0000 0.0000 10.8346 0.0000 0.0000
# 5 0.0000 0.0000 0.0000 0.0000 13.9466 0.0000
# 6 0.0000 0.0000 0.0000 0.0000 0.0000 8.9993
#
#
#
# Elastic Compliance Matrix: (Units=1/GPa)
#
#
# Indices 1 2 3 4 5 6 
#
# 1 0.010206 -0.003650 -0.004090 0.000000 0.000000 0.000000
# 2 -0.003650 0.012975 -0.002062 0.000000 0.000000 0.000000
# 3 -0.004090 -0.002062 0.016600 0.000000 0.000000 0.000000
# 4 0.000000 0.000000 0.000000 0.092297 0.000000 0.000000
# 5 0.000000 0.000000 0.000000 0.000000 0.071702 0.000000
# 6 0.000000 0.000000 0.000000 0.000000 0.000000 0.111120
#
#
# Mechanical properties :
#
#
# Convention : Reuss Voigt Hill
#
# Bulk Modulus (GPa) = 49.56462 54.65756 52.11109
# Shear Modulus (GPa) = 14.65275 19.53790 17.09533
#
# Velocity S-wave (km/s) = 2.69008 3.10631 2.90566
# Velocity P-wave (km/s) = 5.84185 6.31342 6.08221
#
# Compressibility (1/GPa) = 0.02017568
#
# Stress axis : x y z
#
# Youngs Moduli (GPa) = 97.97719 77.07018 60.24002
#
# Poissons Ratio (x) = 0.28133 0.24641
# Poissons Ratio (y) = 0.35764 0.12424
# Poissons Ratio (z) = 0.40077 0.15895
#
# Static dielectric constant tensor:
#      x y z
#    x 3.686150 0.000000 0.000000 
#    y 0.000000 3.294060 0.000000 
#    z 0.000000 0.000000 3.620720 
# 
# 
# High freq. dielectric constant tensor:
#      x y z
#    x 1.801100 0.000000 0.000000 
#    y 0.000000 1.747350 0.000000 
#    z 0.000000 0.000000 1.780520 
# 
# From -- ./inp_files/40777.got.cif
#   From: 2010.03.12/outbox.cif.g09.slc.cpg/sg65_21_cif.got.tgz:40777.got - 2010.04.10 20:52:16.
