data_PCOD8271353
_publ_section_title
;
Structure prediction by ZEFSAII (Michael W. Deem and Ramdas Pophale) SiO2 
 PCOD8271353
Probable space group: C M M M
;
_chemical_formula_sum "Si O2"
_cell_formula_units_Z 80
_cell_length_a 19.245373
_cell_length_b 9.195377
_cell_length_c 24.490654
_cell_angle_alpha 90.000000
_cell_angle_beta 90.000000
_cell_angle_gamma 90.000000
_cell_volume 4334.073329
_symmetry_space_group_name_H-M "C M M M"
_symmetry_group_IT_number 65
_symmetry_cell_setting 'orthorhombic'
loop_
_space_group_symop_operation_xyz
x,y,z
-x,-y,z
x,-y,-z
-x,y,-z
-x,-y,-z
x,y,-z
-x,y,z
x,-y,z
1/2+x,1/2+y,z
1/2-x,1/2-y,z
1/2+x,1/2-y,-z
1/2-x,1/2+y,-z
1/2-x,1/2-y,-z
1/2+x,1/2+y,-z
1/2-x,1/2+y,z
1/2+x,1/2-y,z
loop_
_atom_site_type_symbol
_atom_site_label
_atom_site_fract_x
_atom_site_fract_y
_atom_site_fract_z
Si Si1 0.819609 0.170732 0.360645
Si Si2 0.180523 0.331687 0.064013
Si Si3 0.918546 0.664900 0.561973
Si Si4 0.419815 0.669542 0.141221
Si Si5 0.181732 0.168334 0.763502
O O1 0.750000 0.250000 0.380597
O O2 0.882658 0.221932 0.397906
O O3 0.836992 0.214488 0.298229
O O4 0.809125 0.000000 0.367634
O O5 0.187984 0.500000 0.080015
O O6 0.250000 0.250000 0.083896
O O7 0.113804 0.262946 0.092990
O O8 0.168884 0.310182 0.000000
O O9 0.894944 0.696859 0.500000
O O10 0.898414 0.500000 0.578010
O O11 0.000000 0.688976 0.567921
O O12 0.500000 0.713872 0.146511
O O13 0.411048 0.500000 0.126936
O O14 0.383477 0.708746 0.198619
O O15 0.250000 0.250000 0.785134
O O16 0.200024 0.000000 0.766676
#
# Coordination Sequence:
#
# PCOD8271353 Si02
#       5
#    16  16  16  16  16
#     4  10  20  34  54  79 106 136 172 215 260 307
#     4  10  21  37  57  80 106 137 175 218 261 307
#     4   9  19  36  55  75 103 138 173 212 260 311
#     4  10  21  36  54  78 109 142 174 211 258 310
#     4   9  19  35  54  76 103 136 173 214 259 306
#
# _framework density 18.458386999999998
#
# number of rings (size 3 to 8) (size 9 to 14) (size 15 to 20)
#    0.000    2.400    0.000    2.400    0.000    7.200 
#    0.000    5.000    0.000    0.000    0.000    0.000 
#    0.000    0.000    0.000    0.000    0.000    0.000 
#
# Total GULP energy -496143.920820 kJ/mol
# GULP energy per Si atom -12403.598020 kJ/mol
# Density = 1.841637 g / cm^3
# Si number density = 18.458387 Si / 1000 Ang^3
#
#
#
# Elastic Constant Matrix: (Units=GPa)
#
#
# Indices 1 2 3 4 5 6 
#
# 1 131.3025 64.8570 65.9850 0.0000 0.0000 0.0000
# 2 64.8570 90.8453 53.8111 0.0000 0.0000 0.0000
# 3 65.9850 53.8111 83.6418 0.0000 0.0000 0.0000
# 4 0.0000 0.0000 0.0000 31.4619 0.0000 0.0000
# 5 0.0000 0.0000 0.0000 0.0000 31.5698 0.0000
# 6 0.0000 0.0000 0.0000 0.0000 0.0000 35.6238
#
#
#
# Elastic Compliance Matrix: (Units=1/GPa)
#
#
# Indices 1 2 3 4 5 6 
#
# 1 0.014221 -0.005667 -0.007573 0.000000 0.000000 0.000000
# 2 -0.005667 0.020044 -0.008424 0.000000 0.000000 0.000000
# 3 -0.007573 -0.008424 0.023350 0.000000 0.000000 0.000000
# 4 0.000000 0.000000 0.000000 0.031785 0.000000 0.000000
# 5 0.000000 0.000000 0.000000 0.000000 0.031676 0.000000
# 6 0.000000 0.000000 0.000000 0.000000 0.000000 0.028071
#
#
# Mechanical properties :
#
#
# Convention : Reuss Voigt Hill
#
# Bulk Modulus (GPa) = 70.00016 75.01063 72.50540
# Shear Modulus (GPa) = 25.35020 27.80687 26.57853
#
# Velocity S-wave (km/s) = 3.70992 3.88553 3.79874
# Velocity P-wave (km/s) = 7.50712 7.80101 7.65548
#
# Compressibility (1/GPa) = 0.01428568
#
# Stress axis : x y z
#
# Youngs Moduli (GPa) = 70.31860 49.89113 42.82640
#
# Poissons Ratio (x) = 0.28273 0.32433
# Poissons Ratio (y) = 0.39849 0.36079
# Poissons Ratio (z) = 0.53253 0.42031
#
# Static dielectric constant tensor:
#      x y z
#    x 3.338130 0.000000 0.000000 
#    y 0.000000 3.418110 0.000000 
#    z 0.000000 0.000000 3.465690 
# 
# 
# High freq. dielectric constant tensor:
#      x y z
#    x 1.711780 0.000000 0.000000 
#    y 0.000000 1.718350 0.000000 
#    z 0.000000 0.000000 1.721410 
# 
# From -- ./inp_files/72799.got.cif
#   From: 2010.03.12/outbox.cif.g09.slc.cpg/sg65_37_cif.got.tgz:72799.got - 2010.04.10 20:52:16.
