data_PCOD8271437
_publ_section_title
;
Structure prediction by ZEFSAII (Michael W. Deem and Ramdas Pophale) SiO2 
 PCOD8271437
Probable space group: C M M M
;
_chemical_formula_sum "Si O2"
_cell_formula_units_Z 88
_cell_length_a 23.414406
_cell_length_b 13.653748
_cell_length_c 14.253394
_cell_angle_alpha 90.000000
_cell_angle_beta 90.000000
_cell_angle_gamma 90.000000
_cell_volume 4556.730230
_symmetry_space_group_name_H-M "C M M M"
_symmetry_group_IT_number 65
_symmetry_cell_setting 'orthorhombic'
loop_
_space_group_symop_operation_xyz
x,y,z
-x,-y,z
x,-y,-z
-x,y,-z
-x,-y,-z
x,y,-z
-x,y,z
x,-y,z
1/2+x,1/2+y,z
1/2-x,1/2-y,z
1/2+x,1/2-y,-z
1/2-x,1/2+y,-z
1/2-x,1/2-y,-z
1/2+x,1/2+y,-z
1/2-x,1/2+y,z
1/2+x,1/2-y,z
loop_
_atom_site_type_symbol
_atom_site_label
_atom_site_fract_x
_atom_site_fract_y
_atom_site_fract_z
Si Si1 0.784021 0.115713 0.895158
Si Si2 0.108753 0.200830 0.208662
Si Si3 0.640526 0.384668 0.606054
Si Si4 0.000000 0.887598 0.111118
Si Si5 0.768090 0.614785 0.398734
Si Si6 0.670669 0.114001 0.211722
O O1 0.833366 0.151029 0.826893
O O2 0.721809 0.147214 0.857138
O O3 0.787127 0.000000 0.895865
O O4 0.791909 0.158283 0.000000
O O5 0.100728 0.171136 0.318071
O O6 0.055448 0.166405 0.148970
O O7 0.115287 0.318382 0.193096
O O8 0.618044 0.365122 0.500000
O O9 0.638564 0.500000 0.628456
O O10 0.704865 0.339975 0.616765
O O11 0.000000 0.000000 0.144676
O O12 0.000000 0.880575 0.000000
O O13 0.792970 0.649077 0.500000
O O14 0.757190 0.500000 0.399390
O O15 0.811705 0.641931 0.317487
O O16 0.654417 0.000000 0.198954
#
# Coordination Sequence:
#
# PCOD8271437 Si02
#       6
#    16  16  16   8  16  16
#     4  10  20  34  54  81 112 142 175 224 286 343
#     4  12  22  36  59  82 108 149 192 230 276 333
#     4   9  17  30  52  84 119 151 184 226 278 336
#     4  11  26  46  66  86 106 135 184 242 288 332
#     4   8  14  27  48  77 117 156 184 216 263 323
#     4  10  21  35  52  82 119 149 182 226 276 331
#
# _framework density 19.312093999999998
#
# number of rings (size 3 to 8) (size 9 to 14) (size 15 to 20)
#    0.000    2.091    1.818    3.818    0.000    4.364 
#    0.000    2.727    0.000    2.182    0.000    0.000 
#    0.000    4.364    0.000    0.000    0.000    0.000 
#
# Total GULP energy -545449.143782 kJ/mol
# GULP energy per Si atom -12396.571450 kJ/mol
# Density = 1.926814 g / cm^3
# Si number density = 19.312094 Si / 1000 Ang^3
#
#
#
# Elastic Constant Matrix: (Units=GPa)
#
#
# Indices 1 2 3 4 5 6 
#
# 1 55.9569 67.3891 32.9255 0.0000 0.0000 0.0000
# 2 67.3891 62.9501 33.1078 0.0000 0.0000 0.0000
# 3 32.9255 33.1078 112.8219 0.0000 0.0000 0.0000
# 4 0.0000 0.0000 0.0000 14.8442 0.0000 0.0000
# 5 0.0000 0.0000 0.0000 0.0000 21.4554 0.0000
# 6 0.0000 0.0000 0.0000 0.0000 0.0000 25.8373
#
#
#
# Elastic Compliance Matrix: (Units=1/GPa)
#
#
# Indices 1 2 3 4 5 6 
#
# 1 -0.061536 0.066729 -0.001623 0.000000 0.000000 0.000000
# 2 0.066729 -0.053576 -0.003752 0.000000 0.000000 0.000000
# 3 -0.001623 -0.003752 0.010438 0.000000 0.000000 0.000000
# 4 0.000000 0.000000 0.000000 0.067366 0.000000 0.000000
# 5 0.000000 0.000000 0.000000 0.000000 0.046608 0.000000
# 6 0.000000 0.000000 0.000000 0.000000 0.000000 0.038704
#
#
# Mechanical properties :
#
#
# Convention : Reuss Voigt Hill
#
# Bulk Modulus (GPa) = 55.45080 55.39709 55.42394
# Shear Modulus (GPa) = -72.78973 18.98116 -26.90429
#
# Velocity S-wave (km/s) = -6.14598 3.13847 -3.73652
# Velocity P-wave (km/s) = 4.64637 6.47153 3.18527
#
# Compressibility (1/GPa) = 0.01803400
#
# Stress axis : x y z
#
# Youngs Moduli (GPa) = -16.25065 -18.66521 95.80077
#
# Poissons Ratio (x) = 1.24551 0.15552
# Poissons Ratio (y) = 1.08439 0.35945
# Poissons Ratio (z) = -0.02638 -0.07003
#
# Static dielectric constant tensor:
#      x y z
#    x 3.343720 0.000000 0.000000 
#    y 0.000000 3.596880 0.000000 
#    z 0.000000 0.000000 8.583750 
# 
# 
# High freq. dielectric constant tensor:
#      x y z
#    x 1.683260 0.000000 0.000000 
#    y 0.000000 1.762130 0.000000 
#    z 0.000000 0.000000 1.773450 
# 
# From -- ./inp_files/40192.got.cif
#   From: 2010.03.12/outbox.cif.g09.slc.cpg/sg65_21_cif.got.tgz:40192.got - 2010.04.10 20:52:16.
