data_PCOD8271569
_publ_section_title
;
Structure prediction by ZEFSAII (Michael W. Deem and Ramdas Pophale) SiO2 
 PCOD8271569
Probable space group: C M M M
;
_chemical_formula_sum "Si O2"
_cell_formula_units_Z 112
_cell_length_a 27.956530
_cell_length_b 14.704297
_cell_length_c 13.933269
_cell_angle_alpha 90.000000
_cell_angle_beta 90.000000
_cell_angle_gamma 90.000000
_cell_volume 5727.703829
_symmetry_space_group_name_H-M "C M M M"
_symmetry_group_IT_number 65
_symmetry_cell_setting 'orthorhombic'
loop_
_space_group_symop_operation_xyz
x,y,z
-x,-y,z
x,-y,-z
-x,y,-z
-x,-y,-z
x,y,-z
-x,y,z
x,-y,z
1/2+x,1/2+y,z
1/2-x,1/2-y,z
1/2+x,1/2-y,-z
1/2-x,1/2+y,-z
1/2-x,1/2-y,-z
1/2+x,1/2+y,-z
1/2-x,1/2+y,z
1/2+x,1/2-y,z
loop_
_atom_site_type_symbol
_atom_site_label
_atom_site_fract_x
_atom_site_fract_y
_atom_site_fract_z
Si Si1 0.943504 0.269589 0.764948
Si Si2 0.056742 0.101358 0.892418
Si Si3 0.189002 0.099175 0.388878
Si Si4 0.219233 0.658461 0.894693
Si Si5 0.867808 0.729466 0.385605
Si Si6 0.213489 0.398814 0.309405
Si Si7 0.614650 0.104186 0.107182
O O1 0.925169 0.177613 0.818001
O O2 0.920731 0.277498 0.658596
O O3 0.926904 0.356752 0.825673
O O4 0.000000 0.271835 0.751856
O O5 0.000000 0.103417 0.894868
O O6 0.074183 0.000000 0.860761
O O7 0.076110 0.123203 0.000000
O O8 0.182560 0.085259 0.500000
O O9 0.149773 0.170635 0.354504
O O10 0.241742 0.139792 0.369133
O O11 0.182277 0.000000 0.337940
O O12 0.250000 0.750000 0.886143
O O13 0.231367 0.598624 0.801798
O O14 0.161487 0.669517 0.887783
O O15 0.230725 0.613436 0.000000
O O16 0.868545 0.712332 0.500000
O O17 0.833505 0.658935 0.331212
O O18 0.201299 0.500000 0.343466
O O19 0.627738 0.000000 0.138777
O O20 0.593761 0.103649 0.000000
#
# Coordination Sequence:
#
# PCOD8271569 Si02
#       7
#    16  16  16  16  16  16  16
#     4  11  23  37  57  83 112 151 199 248 297 347
#     4   8  15  31  56  83 108 135 174 230 293 350
#     4   9  19  36  59  87 113 138 177 234 292 345
#     4  10  20  34  56  85 118 154 186 219 269 341
#     4  11  23  38  57  80 112 151 193 242 296 350
#     4  11  21  35  59  87 115 150 189 228 278 343
#     4  10  21  38  60  86 118 155 194 236 282 336
#
# _framework density 19.554084
#
# number of rings (size 3 to 8) (size 9 to 14) (size 15 to 20)
#    0.000    2.000    1.429    3.000    0.000    4.857 
#    0.000    0.714    0.000    0.000    0.000    6.000 
#    0.000    0.000    0.000    0.000    0.000    0.000 
#
# Total GULP energy -693797.678749 kJ/mol
# GULP energy per Si atom -12389.244263 kJ/mol
# Density = 1.950958 g / cm^3
# Si number density = 19.554084 Si / 1000 Ang^3
#
#
#
# Elastic Constant Matrix: (Units=GPa)
#
#
# Indices 1 2 3 4 5 6 
#
# 1 98.6856 50.9494 41.3414 0.0000 0.0000 0.0000
# 2 50.9494 81.2383 62.4326 0.0000 0.0000 0.0000
# 3 41.3414 62.4326 79.0393 0.0000 0.0000 0.0000
# 4 0.0000 0.0000 0.0000 19.2713 0.0000 0.0000
# 5 0.0000 0.0000 0.0000 0.0000 28.9867 0.0000
# 6 0.0000 0.0000 0.0000 0.0000 0.0000 11.0667
#
#
#
# Elastic Compliance Matrix: (Units=1/GPa)
#
#
# Indices 1 2 3 4 5 6 
#
# 1 0.015020 -0.008607 -0.001057 0.000000 0.000000 0.000000
# 2 -0.008607 0.036258 -0.024138 0.000000 0.000000 0.000000
# 3 -0.001057 -0.024138 0.032271 0.000000 0.000000 0.000000
# 4 0.000000 0.000000 0.000000 0.051891 0.000000 0.000000
# 5 0.000000 0.000000 0.000000 0.000000 0.034499 0.000000
# 6 0.000000 0.000000 0.000000 0.000000 0.000000 0.090362
#
#
# Mechanical properties :
#
#
# Convention : Reuss Voigt Hill
#
# Bulk Modulus (GPa) = 62.71876 63.15666 62.93771
# Shear Modulus (GPa) = 15.00517 18.81425 16.90971
#
# Velocity S-wave (km/s) = 2.77314 3.10524 2.94388
# Velocity P-wave (km/s) = 6.51137 6.72497 6.61903
#
# Compressibility (1/GPa) = 0.01594419
#
# Stress axis : x y z
#
# Youngs Moduli (GPa) = 66.57830 27.58035 30.98758
#
# Poissons Ratio (x) = 0.23740 0.03276
# Poissons Ratio (y) = 0.57307 0.74797
# Poissons Ratio (z) = 0.07039 0.66572
#
# Static dielectric constant tensor:
#      x y z
#    x 3.258480 0.000000 0.000000 
#    y 0.000000 1.587720 0.000000 
#    z 0.000000 0.000000 3.702020 
# 
# 
# High freq. dielectric constant tensor:
#      x y z
#    x 1.733500 0.000000 0.000000 
#    y 0.000000 1.762550 0.000000 
#    z 0.000000 0.000000 1.765230 
# 
# From -- ./inp_files/45747.got.cif
#   From: 2010.03.12/outbox.cif.g09.slc.cpg/sg65_23_cif.got.tgz:45747.got - 2010.04.10 20:52:16.
