data_PCOD8271160
_publ_section_title
;
Structure prediction by ZEFSAII (Michael W. Deem and Ramdas Pophale) SiO2 
 PCOD8271160
Probable space group: C M M M
;
_chemical_formula_sum "Si O2"
_cell_formula_units_Z 104
_cell_length_a 9.398442
_cell_length_b 27.708000
_cell_length_c 27.340381
_cell_angle_alpha 90.000000
_cell_angle_beta 90.000000
_cell_angle_gamma 90.000000
_cell_volume 7119.764143
_symmetry_space_group_name_H-M "C M M M"
_symmetry_group_IT_number 65
_symmetry_cell_setting 'orthorhombic'
loop_
_space_group_symop_operation_xyz
x,y,z
-x,-y,z
x,-y,-z
-x,y,-z
-x,-y,-z
x,y,-z
-x,y,z
x,-y,z
1/2+x,1/2+y,z
1/2-x,1/2-y,z
1/2+x,1/2-y,-z
1/2-x,1/2+y,-z
1/2-x,1/2-y,-z
1/2+x,1/2+y,-z
1/2-x,1/2+y,z
1/2+x,1/2-y,z
loop_
_atom_site_type_symbol
_atom_site_label
_atom_site_fract_x
_atom_site_fract_y
_atom_site_fract_z
Si Si1 0.000000 0.442337 0.444282
Si Si2 0.828443 0.111444 0.095137
Si Si3 0.338783 0.442754 0.274736
Si Si4 0.747393 0.442563 0.379864
Si Si5 0.000000 0.942542 0.446197
Si Si6 0.832309 0.053248 0.000000
Si Si7 0.333854 0.942964 0.819912
Si Si8 0.167190 0.700667 0.056643
O O1 0.877309 0.421832 0.410151
O O2 0.000000 0.500000 0.448384
O O3 0.000000 0.421459 0.500000
O O4 0.781973 0.081070 0.047931
O O5 0.763974 0.083796 0.141028
O O6 0.749629 0.162588 0.090637
O O7 0.000000 0.117409 0.099817
O O8 0.500000 0.422853 0.266318
O O9 0.347018 0.500000 0.278038
O O10 0.272747 0.421567 0.325156
O O11 0.231034 0.426882 0.232115
O O12 0.751895 0.500000 0.376080
O O13 0.627842 0.422813 0.415043
O O14 0.000000 0.919326 0.500000
O O15 0.000000 0.000000 0.450599
O O16 0.000000 0.048562 0.000000
O O17 0.762330 0.000000 0.000000
O O18 0.500000 0.927580 0.822915
O O19 0.317870 0.000000 0.828138
O O20 0.250000 0.750000 0.066411
O O21 0.000000 0.704950 0.071134
O O22 0.181853 0.685541 0.000000
#
# Coordination Sequence:
#
# PCOD8271160 Si02
#       8
#     8  16  16  16   8   8  16  16
#     4   9  16  22  28  42  64  88 114 149 200 257
#     4  11  20  33  51  70  93 118 145 178 218 261
#     4   9  16  27  40  53  68  93 131 172 214 257
#     4   9  15  22  32  45  62  86 117 156 202 254
#     4   9  14  20  30  44  62  84 112 151 200 251
#     4   9  18  30  46  67  90 117 148 177 210 257
#     4  10  21  33  45  62  85 112 145 184 224 264
#     4  10  20  34  53  75  99 121 145 173 208 254
#
# _framework density 14.607226000000001
#
# number of rings (size 3 to 8) (size 9 to 14) (size 15 to 20)
#    0.000    2.385    1.538    2.308    1.077    4.000 
#    0.000    0.000    0.000    1.846    0.000    0.000 
#    0.000    0.000    0.000    0.000    0.000    0.000 
#
# Total GULP energy -644182.967423 kJ/mol
# GULP energy per Si atom -12388.133989 kJ/mol
# Density = 1.457398 g / cm^3
# Si number density = 14.607226 Si / 1000 Ang^3
#
#
#
# Elastic Constant Matrix: (Units=GPa)
#
#
# Indices 1 2 3 4 5 6 
#
# 1 130.3013 29.4936 62.1243 0.0000 0.0000 0.0000
# 2 29.4936 38.8817 28.8422 0.0000 0.0000 0.0000
# 3 62.1243 28.8422 128.8710 0.0000 0.0000 0.0000
# 4 0.0000 0.0000 0.0000 -0.2329 0.0000 0.0000
# 5 0.0000 0.0000 0.0000 0.0000 39.9138 0.0000
# 6 0.0000 0.0000 0.0000 0.0000 0.0000 16.4321
#
#
#
# Elastic Compliance Matrix: (Units=1/GPa)
#
#
# Indices 1 2 3 4 5 6 
#
# 1 0.010769 -0.005177 -0.004033 0.000000 0.000000 0.000000
# 2 -0.005177 0.033328 -0.004963 0.000000 0.000000 0.000000
# 3 -0.004033 -0.004963 0.010814 0.000000 0.000000 0.000000
# 4 0.000000 0.000000 0.000000 -4.293077 0.000000 0.000000
# 5 0.000000 0.000000 0.000000 0.000000 0.025054 0.000000
# 6 0.000000 0.000000 0.000000 0.000000 0.000000 0.060856
#
#
# Mechanical properties :
#
#
# Convention : Reuss Voigt Hill
#
# Bulk Modulus (GPa) = 37.64345 59.88602 48.76473
# Shear Modulus (GPa) = -1.21505 23.06219 10.92357
#
# Velocity S-wave (km/s) = -0.91303 3.97775 2.73760
# Velocity P-wave (km/s) = 4.97141 7.88563 6.59159
#
# Compressibility (1/GPa) = 0.02656505
#
# Stress axis : x y z
#
# Youngs Moduli (GPa) = 92.85824 30.00475 92.46846
#
# Poissons Ratio (x) = 0.15535 0.37289
# Poissons Ratio (y) = 0.48077 0.45894
# Poissons Ratio (z) = 0.37447 0.14892
#
# Static dielectric constant tensor:
#      x y z
#    x 3.015860 0.000000 0.000000 
#    y 0.000000 2.352840 0.000000 
#    z 0.000000 0.000000 3.035860 
# 
# 
# High freq. dielectric constant tensor:
#      x y z
#    x 1.577450 0.000000 0.000000 
#    y 0.000000 1.483000 0.000000 
#    z 0.000000 0.000000 1.566730 
# 
# From -- ./inp_files/68609.got.cif
#   From: 2010.03.12/outbox.cif.g09.slc.cpg/sg65_35_cif.got.tgz:68609.got - 2010.04.10 20:52:16.
