data_PCOD8271848
_publ_section_title
;
Structure prediction by ZEFSAII (Michael W. Deem and Ramdas Pophale) SiO2 
 PCOD8271848
Probable space group: C M M M
;
_chemical_formula_sum "Si O2"
_cell_formula_units_Z 104
_cell_length_a 17.296190
_cell_length_b 18.137473
_cell_length_c 18.022094
_cell_angle_alpha 90.000000
_cell_angle_beta 90.000000
_cell_angle_gamma 90.000000
_cell_volume 5653.696315
_symmetry_space_group_name_H-M "C M M M"
_symmetry_group_IT_number 65
_symmetry_cell_setting 'orthorhombic'
loop_
_space_group_symop_operation_xyz
x,y,z
-x,-y,z
x,-y,-z
-x,y,-z
-x,-y,-z
x,y,-z
-x,y,z
x,-y,z
1/2+x,1/2+y,z
1/2-x,1/2-y,z
1/2+x,1/2-y,-z
1/2-x,1/2+y,-z
1/2-x,1/2-y,-z
1/2+x,1/2+y,-z
1/2-x,1/2+y,z
1/2+x,1/2-y,z
loop_
_atom_site_type_symbol
_atom_site_label
_atom_site_fract_x
_atom_site_fract_y
_atom_site_fract_z
Si Si1 0.680885 0.305635 0.321368
Si Si2 0.141930 0.835280 0.159175
Si Si3 0.778352 0.415528 0.586467
Si Si4 0.500000 0.413080 0.915781
Si Si5 0.912220 0.693662 0.414237
Si Si6 0.087816 0.309433 0.085167
Si Si7 0.719915 0.916545 0.914470
O O1 0.750000 0.250000 0.300545
O O2 0.640780 0.337288 0.247917
O O3 0.711194 0.374569 0.368705
O O4 0.615703 0.263973 0.368161
O O5 0.075075 0.886569 0.127333
O O6 0.130725 0.751751 0.133353
O O7 0.223832 0.865303 0.132264
O O8 0.757743 0.409221 0.500000
O O9 0.782974 0.500000 0.612704
O O10 0.861067 0.378292 0.603695
O O11 0.500000 0.500000 0.917546
O O12 0.500000 0.381521 0.000000
O O13 0.904399 0.715671 0.500000
O O14 0.000000 0.674229 0.392495
O O15 0.132816 0.386366 0.095483
O O16 0.000000 0.320531 0.112801
O O17 0.089651 0.283452 0.000000
O O18 0.721877 0.000000 0.884438
O O19 0.746050 0.913514 0.000000
#
# Coordination Sequence:
#
# PCOD8271848 Si02
#       7
#    16  16  16   8  16  16  16
#     4  10  21  35  54  79 109 146 185 222 267 321
#     4  12  22  36  57  80 107 142 186 233 276 329
#     4   9  18  34  56  82 112 146 184 224 267 318
#     4  11  24  40  58  80 108 142 180 231 292 342
#     4   9  18  33  56  83 112 146 182 222 267 318
#     4  10  20  35  56  81 108 140 179 223 274 332
#     4  10  21  36  55  79 108 142 179 222 275 335
#
# _framework density 18.395045
#
# number of rings (size 3 to 8) (size 9 to 14) (size 15 to 20)
#    0.000    1.923    0.769    3.692    1.077    6.154 
#    0.000    3.077    0.000    0.000    0.000    6.462 
#    0.000    0.000    0.000    0.000    0.000    0.000 
#
# Total GULP energy -644967.328876 kJ/mol
# GULP energy per Si atom -12403.217863 kJ/mol
# Density = 1.835318 g / cm^3
# Si number density = 18.395045 Si / 1000 Ang^3
#
#
#
# Elastic Constant Matrix: (Units=GPa)
#
#
# Indices 1 2 3 4 5 6 
#
# 1 98.3421 61.6627 49.2799 0.0000 0.0000 0.0000
# 2 61.6627 109.5029 55.5179 0.0000 0.0000 0.0000
# 3 49.2799 55.5179 93.9756 0.0000 0.0000 0.0000
# 4 0.0000 0.0000 0.0000 -82.8048 0.0000 0.0000
# 5 0.0000 0.0000 0.0000 0.0000 22.7995 0.0000
# 6 0.0000 0.0000 0.0000 0.0000 0.0000 40.9855
#
#
#
# Elastic Compliance Matrix: (Units=1/GPa)
#
#
# Indices 1 2 3 4 5 6 
#
# 1 0.017039 -0.007231 -0.004664 0.000000 0.000000 0.000000
# 2 -0.007231 0.016105 -0.005723 0.000000 0.000000 0.000000
# 3 -0.004664 -0.005723 0.016468 0.000000 0.000000 0.000000
# 4 0.000000 0.000000 0.000000 -0.012077 0.000000 0.000000
# 5 0.000000 0.000000 0.000000 0.000000 0.043861 0.000000
# 6 0.000000 0.000000 0.000000 0.000000 0.000000 0.024399
#
#
# Mechanical properties :
#
#
# Convention : Reuss Voigt Hill
#
# Bulk Modulus (GPa) = 69.55104 70.52685 70.03895
# Shear Modulus (GPa) = 34.28838 5.22005 19.75421
#
# Velocity S-wave (km/s) = 4.32209 1.68639 3.28058
# Velocity P-wave (km/s) = 7.92458 6.49733 7.24618
#
# Compressibility (1/GPa) = 0.01437793
#
# Stress axis : x y z
#
# Youngs Moduli (GPa) = 58.68770 62.09121 60.72563
#
# Poissons Ratio (x) = 0.44896 0.28320
# Poissons Ratio (y) = 0.42435 0.34752
# Poissons Ratio (z) = 0.27370 0.35534
#
# Static dielectric constant tensor:
#      x y z
#    x 3.524910 0.000000 0.000000 
#    y 0.000000 3.380640 0.000000 
#    z 0.000000 0.000000 3.326160 
# 
# 
# High freq. dielectric constant tensor:
#      x y z
#    x 1.716590 0.000000 0.000000 
#    y 0.000000 1.713640 0.000000 
#    z 0.000000 0.000000 1.706310 
# 
# From -- ./inp_files/54600.got.cif
#   From: 2010.03.12/outbox.cif.g09.slc.cpg/sg65_28_cif.got.tgz:54600.got - 2010.04.10 20:52:16.
