data_PCOD8271188
_publ_section_title
;
Structure prediction by ZEFSAII (Michael W. Deem and Ramdas Pophale) SiO2 
 PCOD8271188
Probable space group: C M M M
;
_chemical_formula_sum "Si O2"
_cell_formula_units_Z 88
_cell_length_a 27.727188
_cell_length_b 19.149465
_cell_length_c 9.115219
_cell_angle_alpha 90.000000
_cell_angle_beta 90.000000
_cell_angle_gamma 90.000000
_cell_volume 4839.824120
_symmetry_space_group_name_H-M "C M M M"
_symmetry_group_IT_number 65
_symmetry_cell_setting 'orthorhombic'
loop_
_space_group_symop_operation_xyz
x,y,z
-x,-y,z
x,-y,-z
-x,y,-z
-x,-y,-z
x,y,-z
-x,y,z
x,-y,z
1/2+x,1/2+y,z
1/2-x,1/2-y,z
1/2+x,1/2-y,-z
1/2-x,1/2+y,-z
1/2-x,1/2-y,-z
1/2+x,1/2+y,-z
1/2-x,1/2+y,z
1/2+x,1/2-y,z
loop_
_atom_site_type_symbol
_atom_site_label
_atom_site_fract_x
_atom_site_fract_y
_atom_site_fract_z
Si Si1 0.943742 0.294905 0.172112
Si Si2 0.182302 0.079242 0.671849
Si Si3 0.500000 0.582512 0.832685
Si Si4 0.224945 0.417045 0.162409
Si Si5 0.880343 0.577328 0.825637
Si Si6 0.586101 0.657678 0.325938
O O1 0.921395 0.368601 0.224250
O O2 0.917332 0.235772 0.265503
O O3 0.000000 0.295478 0.210516
O O4 0.934887 0.281751 0.000000
O O5 0.189546 0.079977 0.500000
O O6 0.231122 0.111650 0.739885
O O7 0.137900 0.127455 0.719849
O O8 0.172692 0.000000 0.727144
O O9 0.500000 0.500000 0.829864
O O10 0.453230 0.609186 0.749620
O O11 0.500000 0.611138 0.000000
O O12 0.227000 0.500000 0.155845
O O13 0.172516 0.396452 0.229835
O O14 0.231250 0.385092 0.000000
O O15 0.892917 0.500000 0.762486
O O16 0.877588 0.572448 0.000000
O O17 0.577996 0.656620 0.500000
#
# Coordination Sequence:
#
# PCOD8271188 Si02
#       6
#    16  16   8  16  16  16
#     4  10  20  34  53  76 104 137 174 218 263 308
#     4   9  18  32  50  73 100 131 171 214 253 299
#     4  11  23  37  55  79 104 131 172 223 261 296
#     4   8  14  27  49  75 101 130 165 208 260 310
#     4   8  15  30  53  80 106 132 168 214 262 315
#     4  11  22  36  53  73 103 143 177 209 256 311
#
# _framework density 18.182479000000001
#
# number of rings (size 3 to 8) (size 9 to 14) (size 15 to 20)
#    0.000    2.636    0.909    2.455    0.000    3.273 
#    0.000    5.455    0.000    7.091    0.000    1.273 
#    0.000    0.000    0.000    0.000    0.000    0.000 
#
# Total GULP energy -545445.874723 kJ/mol
# GULP energy per Si atom -12396.497153 kJ/mol
# Density = 1.814109 g / cm^3
# Si number density = 18.182479 Si / 1000 Ang^3
#
#
#
# Elastic Constant Matrix: (Units=GPa)
#
#
# Indices 1 2 3 4 5 6 
#
# 1 110.0719 60.3005 34.7255 0.0000 0.0000 0.0000
# 2 60.3005 98.3075 31.6256 0.0000 0.0000 0.0000
# 3 34.7255 31.6256 45.1243 0.0000 0.0000 0.0000
# 4 0.0000 0.0000 0.0000 18.9588 0.0000 0.0000
# 5 0.0000 0.0000 0.0000 0.0000 -10.3885 0.0000
# 6 0.0000 0.0000 0.0000 0.0000 0.0000 -60.5777
#
#
#
# Elastic Compliance Matrix: (Units=1/GPa)
#
#
# Indices 1 2 3 4 5 6 
#
# 1 0.015069 -0.007117 -0.006608 0.000000 0.000000 0.000000
# 2 -0.007117 0.016495 -0.006083 0.000000 0.000000 0.000000
# 3 -0.006608 -0.006083 0.031510 0.000000 0.000000 0.000000
# 4 0.000000 0.000000 0.000000 0.052746 0.000000 0.000000
# 5 0.000000 0.000000 0.000000 0.000000 -0.096260 0.000000
# 6 0.000000 0.000000 0.000000 0.000000 0.000000 -0.016508
#
#
# Mechanical properties :
#
#
# Convention : Reuss Voigt Hill
#
# Bulk Modulus (GPa) = 42.63293 56.31186 49.47240
# Shear Modulus (GPa) = 99.03624 -1.94466 48.54579
#
# Velocity S-wave (km/s) = 7.38825 -1.03530 5.17273
# Velocity P-wave (km/s) = 9.81223 5.44137 7.93373
#
# Compressibility (1/GPa) = 0.02345604
#
# Stress axis : x y z
#
# Youngs Moduli (GPa) = 66.36319 60.62543 31.73614
#
# Poissons Ratio (x) = 0.43147 0.20971
# Poissons Ratio (y) = 0.47231 0.19307
# Poissons Ratio (z) = 0.43853 0.36881
#
# Static dielectric constant tensor:
#      x y z
#    x 3.653990 0.000000 0.000000 
#    y 0.000000 3.349650 0.000000 
#    z 0.000000 0.000000 3.252920 
# 
# 
# High freq. dielectric constant tensor:
#      x y z
#    x 1.717380 0.000000 0.000000 
#    y 0.000000 1.687260 0.000000 
#    z 0.000000 0.000000 1.682420 
# 
# From -- ./inp_files/18316.got.cif
#   From: 2010.03.12/outbox.cif.g09.slc.cpg/sg65_10_cif.got.tgz:18316.got - 2010.04.10 20:52:16.
