data_PCOD8271641
_publ_section_title
;
Structure prediction by ZEFSAII (Michael W. Deem and Ramdas Pophale) SiO2 
 PCOD8271641
Probable space group: C M M M
;
_chemical_formula_sum "Si O2"
_cell_formula_units_Z 80
_cell_length_a 8.253239
_cell_length_b 28.929630
_cell_length_c 21.835889
_cell_angle_alpha 90.000000
_cell_angle_beta 90.000000
_cell_angle_gamma 90.000000
_cell_volume 5213.605653
_symmetry_space_group_name_H-M "C M M M"
_symmetry_group_IT_number 65
_symmetry_cell_setting 'orthorhombic'
loop_
_space_group_symop_operation_xyz
x,y,z
-x,-y,z
x,-y,-z
-x,y,-z
-x,-y,-z
x,y,-z
-x,y,z
x,-y,z
1/2+x,1/2+y,z
1/2-x,1/2-y,z
1/2+x,1/2-y,-z
1/2-x,1/2+y,-z
1/2-x,1/2-y,-z
1/2+x,1/2+y,-z
1/2-x,1/2+y,z
1/2+x,1/2-y,z
loop_
_atom_site_type_symbol
_atom_site_label
_atom_site_fract_x
_atom_site_fract_y
_atom_site_fract_z
Si Si1 0.819255 0.945173 0.139498
Si Si2 0.186311 0.949669 0.500000
Si Si3 0.313030 0.447530 0.279044
Si Si4 0.184691 0.392504 0.611340
Si Si5 0.690784 0.299097 0.569518
Si Si6 0.500000 0.055015 0.069859
O O1 0.788780 0.930549 0.209555
O O2 0.667015 0.925358 0.100310
O O3 0.000000 0.927027 0.118178
O O4 0.822890 0.000000 0.134203
O O5 0.220751 0.921172 0.439241
O O6 0.000000 0.960153 0.500000
O O7 0.276345 0.000000 0.500000
O O8 0.500000 0.444922 0.298265
O O9 0.249141 0.500000 0.286896
O O10 0.210861 0.413614 0.321640
O O11 0.239925 0.339298 0.612421
O O12 0.000000 0.395219 0.592620
O O13 0.755634 0.305785 0.500000
O O14 0.500000 0.301197 0.571209
O O15 0.750000 0.250000 0.595913
O O16 0.500000 0.000000 0.075442
O O17 0.500000 0.071710 0.000000
#
# Coordination Sequence:
#
# PCOD8271641 Si02
#       6
#    16   8  16  16  16   8
#     4   8  15  27  41  57  81 113 149 188 225 264
#     4  11  23  37  48  59  84 117 145 183 233 273
#     4   9  18  32  47  62  84 118 155 189 226 269
#     4  12  23  32  47  69  89 110 144 185 226 276
#     4  10  20  35  54  69  86 109 136 176 225 272
#     4   9  16  24  38  60  84 111 147 189 227 262
#
# _framework density 15.344468000000001
#
# number of rings (size 3 to 8) (size 9 to 14) (size 15 to 20)
#    0.000    2.200    1.000    4.500    1.400    4.800 
#    0.000    2.000    0.000    0.000    0.000    0.000 
#    0.000    0.000    0.000    0.000    0.000    1.000 
#
# Total GULP energy -495856.611583 kJ/mol
# GULP energy per Si atom -12396.415290 kJ/mol
# Density = 1.530954 g / cm^3
# Si number density = 15.344468 Si / 1000 Ang^3
#
#
#
# Elastic Constant Matrix: (Units=GPa)
#
#
# Indices 1 2 3 4 5 6 
#
# 1 93.6256 25.5628 44.4179 0.0000 0.0000 0.0000
# 2 25.5628 76.6911 31.5440 0.0000 0.0000 0.0000
# 3 44.4179 31.5440 80.9691 0.0000 0.0000 0.0000
# 4 0.0000 0.0000 0.0000 1.2485 0.0000 0.0000
# 5 0.0000 0.0000 0.0000 0.0000 23.3730 0.0000
# 6 0.0000 0.0000 0.0000 0.0000 0.0000 18.1215
#
#
#
# Elastic Compliance Matrix: (Units=1/GPa)
#
#
# Indices 1 2 3 4 5 6 
#
# 1 0.014663 -0.001880 -0.007311 0.000000 0.000000 0.000000
# 2 -0.001880 0.015769 -0.005112 0.000000 0.000000 0.000000
# 3 -0.007311 -0.005112 0.018353 0.000000 0.000000 0.000000
# 4 0.000000 0.000000 0.000000 0.800945 0.000000 0.000000
# 5 0.000000 0.000000 0.000000 0.000000 0.042784 0.000000
# 6 0.000000 0.000000 0.000000 0.000000 0.000000 0.055183
#
#
# Mechanical properties :
#
#
# Convention : Reuss Voigt Hill
#
# Bulk Modulus (GPa) = 49.55964 50.48168 50.02066
# Shear Modulus (GPa) = 5.08632 18.53269 11.80950
#
# Velocity S-wave (km/s) = 1.82262 3.47908 2.77722
# Velocity P-wave (km/s) = 6.06609 7.00778 6.55387
#
# Compressibility (1/GPa) = 0.02017771
#
# Stress axis : x y z
#
# Youngs Moduli (GPa) = 68.19993 63.41739 54.48832
#
# Poissons Ratio (x) = 0.11924 0.39837
# Poissons Ratio (y) = 0.12823 0.27853
# Poissons Ratio (z) = 0.49862 0.32417
#
# Static dielectric constant tensor:
#      x y z
#    x 3.194790 0.000000 0.000000 
#    y 0.000000 2.681450 0.000000 
#    z 0.000000 0.000000 2.871220 
# 
# 
# High freq. dielectric constant tensor:
#      x y z
#    x 1.607040 0.000000 0.000000 
#    y 0.000000 1.542870 0.000000 
#    z 0.000000 0.000000 1.566490 
# 
# From -- ./inp_files/60073.got.cif
#   From: 2010.03.12/outbox.cif.g09.slc.cpg/sg65_31_cif.got.tgz:60073.got - 2010.04.10 20:52:16.
