data_PCOD8271238
_publ_section_title
;
Structure prediction by ZEFSAII (Michael W. Deem and Ramdas Pophale) SiO2 
 PCOD8271238
Probable space group: C M M M
;
_chemical_formula_sum "Si O2"
_cell_formula_units_Z 104
_cell_length_a 28.738272
_cell_length_b 8.939693
_cell_length_c 22.918807
_cell_angle_alpha 90.000000
_cell_angle_beta 90.000000
_cell_angle_gamma 90.000000
_cell_volume 5888.101166
_symmetry_space_group_name_H-M "C M M M"
_symmetry_group_IT_number 65
_symmetry_cell_setting 'orthorhombic'
loop_
_space_group_symop_operation_xyz
x,y,z
-x,-y,z
x,-y,-z
-x,y,-z
-x,-y,-z
x,y,-z
-x,y,z
x,-y,z
1/2+x,1/2+y,z
1/2-x,1/2-y,z
1/2+x,1/2-y,-z
1/2-x,1/2+y,-z
1/2-x,1/2-y,-z
1/2+x,1/2+y,-z
1/2-x,1/2+y,z
1/2+x,1/2-y,z
loop_
_atom_site_type_symbol
_atom_site_label
_atom_site_fract_x
_atom_site_fract_y
_atom_site_fract_z
Si Si1 0.889708 0.677992 0.110723
Si Si2 0.201571 0.823969 0.067684
Si Si3 0.945259 0.666853 0.669197
Si Si4 0.552121 0.177465 0.000000
Si Si5 0.206768 0.163199 0.568949
Si Si6 0.604493 0.322340 0.433629
Si Si7 0.445505 0.325123 0.213640
O O1 0.884217 0.500000 0.110941
O O2 0.839006 0.752098 0.106601
O O3 0.920844 0.735381 0.056770
O O4 0.915258 0.730938 0.168662
O O5 0.250000 0.750000 0.087410
O O6 0.204145 0.000000 0.079318
O O7 0.191595 0.787262 0.000000
O O8 0.923956 0.500000 0.675625
O O9 0.930882 0.740138 0.608406
O O10 0.928997 0.770858 0.722641
O O11 0.000000 0.656433 0.668608
O O12 0.500000 0.245458 0.000000
O O13 0.549595 0.000000 0.000000
O O14 0.213592 0.150874 0.500000
O O15 0.250000 0.250000 0.597799
O O16 0.156570 0.236805 0.581928
O O17 0.207959 0.000000 0.597536
O O18 0.591538 0.279588 0.500000
O O19 0.601753 0.500000 0.425389
O O20 0.500000 0.291030 0.203121
O O21 0.434674 0.500000 0.207334
#
# Coordination Sequence:
#
# PCOD8271238 Si02
#       7
#    16  16  16   8  16  16  16
#     4  11  20  33  54  79 109 141 176 215 263 314
#     4  10  20  34  53  77 108 142 181 223 265 312
#     4  10  21  36  53  74 100 132 173 218 261 308
#     4   9  18  30  46  73 108 141 170 205 252 305
#     4   8  14  25  42  66  96 128 161 196 236 287
#     4   9  18  32  50  74 104 136 169 207 256 313
#     4  10  21  37  56  77 102 136 177 217 260 314
#
# _framework density 17.662738999999998
#
# number of rings (size 3 to 8) (size 9 to 14) (size 15 to 20)
#    0.000    2.385    0.769    3.231    0.000    4.308 
#    0.000    3.077    0.000    2.769    0.000    4.308 
#    0.000    0.000    0.000    0.000    0.000    0.000 
#
# Total GULP energy -644707.332334 kJ/mol
# GULP energy per Si atom -12398.217930 kJ/mol
# Density = 1.762254 g / cm^3
# Si number density = 17.662739 Si / 1000 Ang^3
#
#
#
# Elastic Constant Matrix: (Units=GPa)
#
#
# Indices 1 2 3 4 5 6 
#
# 1 72.6204 38.4840 43.0215 0.0000 0.0000 0.0000
# 2 38.4840 80.5258 36.9991 0.0000 0.0000 0.0000
# 3 43.0215 36.9991 88.8124 0.0000 0.0000 0.0000
# 4 0.0000 0.0000 0.0000 26.0769 0.0000 0.0000
# 5 0.0000 0.0000 0.0000 0.0000 9.4466 0.0000
# 6 0.0000 0.0000 0.0000 0.0000 0.0000 31.3805
#
#
#
# Elastic Compliance Matrix: (Units=1/GPa)
#
#
# Indices 1 2 3 4 5 6 
#
# 1 0.022081 -0.006973 -0.007791 0.000000 0.000000 0.000000
# 2 -0.006973 0.017560 -0.003938 0.000000 0.000000 0.000000
# 3 -0.007791 -0.003938 0.016674 0.000000 0.000000 0.000000
# 4 0.000000 0.000000 0.000000 0.038348 0.000000 0.000000
# 5 0.000000 0.000000 0.000000 0.000000 0.105859 0.000000
# 6 0.000000 0.000000 0.000000 0.000000 0.000000 0.031867
#
#
# Mechanical properties :
#
#
# Convention : Reuss Voigt Hill
#
# Bulk Modulus (GPa) = 52.87792 53.21865 53.04828
# Shear Modulus (GPa) = 18.10956 21.61105 19.86031
#
# Velocity S-wave (km/s) = 3.20550 3.50171 3.35687
# Velocity P-wave (km/s) = 6.61081 6.82240 6.71744
#
# Compressibility (1/GPa) = 0.01891148
#
# Stress axis : x y z
#
# Youngs Moduli (GPa) = 45.28750 56.94744 59.97224
#
# Poissons Ratio (x) = 0.39709 0.46727
# Poissons Ratio (y) = 0.31578 0.23616
# Poissons Ratio (z) = 0.35285 0.22425
#
# Static dielectric constant tensor:
#      x y z
#    x 3.353040 0.000000 0.000000 
#    y 0.000000 3.338230 0.000000 
#    z 0.000000 0.000000 3.074630 
# 
# 
# High freq. dielectric constant tensor:
#      x y z
#    x 1.684290 0.000000 0.000000 
#    y 0.000000 1.685770 0.000000 
#    z 0.000000 0.000000 1.656320 
# 
# From -- ./inp_files/66389.got.cif
#   From: 2010.03.12/outbox.cif.g09.slc.cpg/sg65_34_cif.got.tgz:66389.got - 2010.04.10 20:52:16.
