data_PCOD8271505
_publ_section_title
;
Structure prediction by ZEFSAII (Michael W. Deem and Ramdas Pophale) SiO2 
 PCOD8271505
Probable space group: C M M M
;
_chemical_formula_sum "Si O2"
_cell_formula_units_Z 88
_cell_length_a 8.736046
_cell_length_b 18.379630
_cell_length_c 28.085676
_cell_angle_alpha 90.000000
_cell_angle_beta 90.000000
_cell_angle_gamma 90.000000
_cell_volume 4509.584800
_symmetry_space_group_name_H-M "C M M M"
_symmetry_group_IT_number 65
_symmetry_cell_setting 'orthorhombic'
loop_
_space_group_symop_operation_xyz
x,y,z
-x,-y,z
x,-y,-z
-x,y,-z
-x,-y,-z
x,y,-z
-x,y,z
x,-y,z
1/2+x,1/2+y,z
1/2-x,1/2-y,z
1/2+x,1/2-y,-z
1/2-x,1/2+y,-z
1/2-x,1/2-y,-z
1/2+x,1/2+y,-z
1/2-x,1/2+y,z
1/2+x,1/2-y,z
loop_
_atom_site_type_symbol
_atom_site_label
_atom_site_fract_x
_atom_site_fract_y
_atom_site_fract_z
Si Si1 0.682338 0.417789 0.500000
Si Si2 0.672596 0.085807 0.053315
Si Si3 0.821808 0.915521 0.315249
Si Si4 0.181050 0.170271 0.591210
Si Si5 0.821285 0.173749 0.132982
Si Si6 0.819465 0.327896 0.767609
O O1 0.747839 0.500000 0.500000
O O2 0.500000 0.420536 0.500000
O O3 0.743736 0.375397 0.453658
O O4 0.500000 0.110899 0.066119
O O5 0.792666 0.117794 0.090503
O O6 0.685165 0.000000 0.056027
O O7 0.714642 0.112431 0.000000
O O8 0.766255 0.871515 0.361435
O O9 0.724750 0.888622 0.270508
O O10 0.000000 0.901768 0.304861
O O11 0.787574 0.000000 0.324197
O O12 0.250000 0.250000 0.590665
O O13 0.000000 0.176893 0.588768
O O14 0.750000 0.250000 0.117194
O O15 0.743680 0.145575 0.181494
O O16 0.000000 0.182638 0.142354
O O17 0.750000 0.250000 0.752866
O O18 0.000000 0.319725 0.770507
#
# Coordination Sequence:
#
# PCOD8271505 Si02
#       6
#     8  16  16  16  16  16
#     4   9  17  32  55  81 108 141 184 228 270 321
#     4   9  19  37  59  82 111 147 185 226 273 325
#     4  10  21  37  56  80 110 143 182 227 274 324
#     4  10  20  34  55  81 109 144 183 225 272 324
#     4  11  22  37  58  83 112 145 183 228 275 325
#     4  11  22  38  59  81 108 142 181 224 273 329
#
# _framework density 19.513991000000001
#
# number of rings (size 3 to 8) (size 9 to 14) (size 15 to 20)
#    0.000    1.909    0.000    6.273    0.000    6.545 
#    0.000    0.909    0.000    2.182    0.000    0.000 
#    0.000    0.000    0.000    0.000    0.000    0.000 
#
# Total GULP energy -545744.630052 kJ/mol
# GULP energy per Si atom -12403.287047 kJ/mol
# Density = 1.946958 g / cm^3
# Si number density = 19.513991 Si / 1000 Ang^3
#
#
#
# Elastic Constant Matrix: (Units=GPa)
#
#
# Indices 1 2 3 4 5 6 
#
# 1 98.5549 41.6529 48.9648 0.0000 0.0000 0.0000
# 2 41.6529 117.8414 76.0574 0.0000 0.0000 0.0000
# 3 48.9648 76.0574 145.2389 0.0000 0.0000 0.0000
# 4 0.0000 0.0000 0.0000 38.3959 0.0000 0.0000
# 5 0.0000 0.0000 0.0000 0.0000 21.1940 0.0000
# 6 0.0000 0.0000 0.0000 0.0000 0.0000 30.6119
#
#
#
# Elastic Compliance Matrix: (Units=1/GPa)
#
#
# Indices 1 2 3 4 5 6 
#
# 1 0.012697 -0.002606 -0.002916 0.000000 0.000000 0.000000
# 2 -0.002606 0.013353 -0.006114 0.000000 0.000000 0.000000
# 3 -0.002916 -0.006114 0.011070 0.000000 0.000000 0.000000
# 4 0.000000 0.000000 0.000000 0.026044 0.000000 0.000000
# 5 0.000000 0.000000 0.000000 0.000000 0.047183 0.000000
# 6 0.000000 0.000000 0.000000 0.000000 0.000000 0.032667
#
#
# Mechanical properties :
#
#
# Convention : Reuss Voigt Hill
#
# Bulk Modulus (GPa) = 72.21174 77.22060 74.71617
# Shear Modulus (GPa) = 29.25641 31.03769 30.14705
#
# Velocity S-wave (km/s) = 3.87622 3.99248 3.93478
# Velocity P-wave (km/s) = 7.55770 7.80455 7.68212
#
# Compressibility (1/GPa) = 0.01384816
#
# Stress axis : x y z
#
# Youngs Moduli (GPa) = 78.76106 74.88768 90.33370
#
# Poissons Ratio (x) = 0.19515 0.26340
# Poissons Ratio (y) = 0.20524 0.55232
# Poissons Ratio (z) = 0.22965 0.45788
#
# Static dielectric constant tensor:
#      x y z
#    x 3.484140 0.000000 0.000000 
#    y 0.000000 3.494500 0.000000 
#    z 0.000000 0.000000 3.729020 
# 
# 
# High freq. dielectric constant tensor:
#      x y z
#    x 1.747130 0.000000 0.000000 
#    y 0.000000 1.760620 0.000000 
#    z 0.000000 0.000000 1.775130 
# 
# From -- ./inp_files/67510.got.cif
#   From: 2010.03.12/outbox.cif.g09.slc.cpg/sg65_34_cif.got.tgz:67510.got - 2010.04.10 20:52:16.
