data_PCOD8271689
_publ_section_title
;
Structure prediction by ZEFSAII (Michael W. Deem and Ramdas Pophale) SiO2 
 PCOD8271689
Probable space group: C M M M
;
_chemical_formula_sum "Si O2"
_cell_formula_units_Z 104
_cell_length_a 19.932484
_cell_length_b 8.243123
_cell_length_c 34.073778
_cell_angle_alpha 90.000000
_cell_angle_beta 90.000000
_cell_angle_gamma 90.000000
_cell_volume 5598.523350
_symmetry_space_group_name_H-M "C M M M"
_symmetry_group_IT_number 65
_symmetry_cell_setting 'orthorhombic'
loop_
_space_group_symop_operation_xyz
x,y,z
-x,-y,z
x,-y,-z
-x,y,-z
-x,-y,-z
x,y,-z
-x,y,z
x,-y,z
1/2+x,1/2+y,z
1/2-x,1/2-y,z
1/2+x,1/2-y,-z
1/2-x,1/2+y,-z
1/2-x,1/2-y,-z
1/2+x,1/2+y,-z
1/2-x,1/2+y,z
1/2+x,1/2-y,z
loop_
_atom_site_type_symbol
_atom_site_label
_atom_site_fract_x
_atom_site_fract_y
_atom_site_fract_z
Si Si1 0.822076 0.808016 0.750230
Si Si2 0.920741 0.500000 0.956256
Si Si3 0.679898 0.811843 0.456658
Si Si4 0.424017 0.312243 0.395437
Si Si5 0.078678 0.187871 0.905777
Si Si6 0.820220 0.811663 0.162047
Si Si7 0.924116 0.311416 0.687084
O O1 0.750000 0.750000 0.734249
O O2 0.832561 0.738553 0.794534
O O3 0.879796 0.730441 0.724380
O O4 0.827752 0.000000 0.747939
O O5 0.898012 0.670792 0.936104
O O6 0.000000 0.500000 0.958231
O O7 0.889712 0.500000 0.000000
O O8 0.667481 0.732905 0.500000
O O9 0.750000 0.750000 0.438421
O O10 0.619199 0.776928 0.427828
O O11 0.686297 0.000000 0.461892
O O12 0.500000 0.245541 0.398381
O O13 0.420402 0.500000 0.404845
O O14 0.396446 0.279406 0.351602
O O15 0.117773 0.231317 0.866001
O O16 0.000000 0.202921 0.896835
O O17 0.094800 0.000000 0.919962
O O18 0.750000 0.750000 0.143690
O O19 0.812403 0.000000 0.167226
O O20 0.920582 0.500000 0.677955
O O21 0.000000 0.255072 0.696523
#
# Coordination Sequence:
#
# PCOD8271689 Si02
#       7
#    16   8  16  16  16  16  16
#     4  10  20  35  54  77 107 138 177 221 262 315
#     4   9  18  32  52  80 108 138 177 221 273 323
#     4  10  21  37  57  81 109 139 172 214 262 311
#     4  10  21  37  57  80 106 138 176 215 259 314
#     4   9  18  33  52  78 108 138 178 223 268 321
#     4   9  19  33  52  77 103 139 176 214 265 317
#     4  10  21  37  55  77 106 139 176 218 265 314
#
# _framework density 18.576326000000002
#
# number of rings (size 3 to 8) (size 9 to 14) (size 15 to 20)
#    0.000    2.385    0.000    1.846    1.077    5.231 
#    0.000    7.692    0.000    0.462    0.000    0.000 
#    0.000    0.000    0.000    0.000    0.000    0.000 
#
# Total GULP energy -644602.045922 kJ/mol
# GULP energy per Si atom -12396.193191 kJ/mol
# Density = 1.853405 g / cm^3
# Si number density = 18.576326 Si / 1000 Ang^3
#
#
#
# Elastic Constant Matrix: (Units=GPa)
#
#
# Indices 1 2 3 4 5 6 
#
# 1 86.6102 32.9382 64.1667 0.0000 0.0000 0.0000
# 2 32.9382 68.6080 38.9685 0.0000 0.0000 0.0000
# 3 64.1667 38.9685 110.9589 0.0000 0.0000 0.0000
# 4 0.0000 0.0000 0.0000 30.0385 0.0000 0.0000
# 5 0.0000 0.0000 0.0000 0.0000 19.6661 0.0000
# 6 0.0000 0.0000 0.0000 0.0000 0.0000 28.2783
#
#
#
# Elastic Compliance Matrix: (Units=1/GPa)
#
#
# Indices 1 2 3 4 5 6 
#
# 1 0.021038 -0.003985 -0.010767 0.000000 0.000000 0.000000
# 2 -0.003985 0.018962 -0.004355 0.000000 0.000000 0.000000
# 3 -0.010767 -0.004355 0.016768 0.000000 0.000000 0.000000
# 4 0.000000 0.000000 0.000000 0.033291 0.000000 0.000000
# 5 0.000000 0.000000 0.000000 0.000000 0.050849 0.000000
# 6 0.000000 0.000000 0.000000 0.000000 0.000000 0.035363
#
#
# Mechanical properties :
#
#
# Convention : Reuss Voigt Hill
#
# Bulk Modulus (GPa) = 53.89317 59.81376 56.85347
# Shear Modulus (GPa) = 22.65830 24.27014 23.46422
#
# Velocity S-wave (km/s) = 3.49627 3.61849 3.55790
# Velocity P-wave (km/s) = 6.73597 7.05172 6.89565
#
# Compressibility (1/GPa) = 0.01855523
#
# Stress axis : x y z
#
# Youngs Moduli (GPa) = 47.53259 52.73618 59.63686
#
# Poissons Ratio (x) = 0.21015 0.64209
# Poissons Ratio (y) = 0.18941 0.25972
# Poissons Ratio (z) = 0.51177 0.22967
#
# Static dielectric constant tensor:
#      x y z
#    x 3.450310 0.000000 0.000000 
#    y 0.000000 3.584250 0.000000 
#    z 0.000000 0.000000 3.585990 
# 
# 
# High freq. dielectric constant tensor:
#      x y z
#    x 1.710950 0.000000 0.000000 
#    y 0.000000 1.732890 0.000000 
#    z 0.000000 0.000000 1.714410 
# 
# From -- ./inp_files/78264.got.cif
#   From: 2010.03.12/outbox.cif.g09.slc.cpg/sg65_40_cif.got.tgz:78264.got - 2010.04.10 20:52:16.
