data_PCOD8271458
_publ_section_title
;
Structure prediction by ZEFSAII (Michael W. Deem and Ramdas Pophale) SiO2 
 PCOD8271458
Probable space group: C M M M
;
_chemical_formula_sum "Si O2"
_cell_formula_units_Z 80
_cell_length_a 19.061965
_cell_length_b 18.503701
_cell_length_c 12.588064
_cell_angle_alpha 90.000000
_cell_angle_beta 90.000000
_cell_angle_gamma 90.000000
_cell_volume 4440.022922
_symmetry_space_group_name_H-M "C M M M"
_symmetry_group_IT_number 65
_symmetry_cell_setting 'orthorhombic'
loop_
_space_group_symop_operation_xyz
x,y,z
-x,-y,z
x,-y,-z
-x,y,-z
-x,-y,-z
x,y,-z
-x,y,z
x,-y,z
1/2+x,1/2+y,z
1/2-x,1/2-y,z
1/2+x,1/2-y,-z
1/2-x,1/2+y,-z
1/2-x,1/2-y,-z
1/2+x,1/2+y,-z
1/2-x,1/2+y,z
1/2+x,1/2-y,z
loop_
_atom_site_type_symbol
_atom_site_label
_atom_site_fract_x
_atom_site_fract_y
_atom_site_fract_z
Si Si1 0.688146 0.081725 0.879195
Si Si2 0.208760 0.083337 0.307927
Si Si3 0.723429 0.168057 0.500000
Si Si4 0.079638 0.178678 0.291322
Si Si5 0.578030 0.226824 0.500000
Si Si6 0.919592 0.295611 0.122029
O O1 0.754691 0.096448 0.805162
O O2 0.624774 0.134055 0.846785
O O3 0.660281 0.000000 0.864654
O O4 0.712700 0.095866 0.000000
O O5 0.249936 0.128453 0.395595
O O6 0.128612 0.108675 0.297015
O O7 0.208848 0.000000 0.342035
O O8 0.750000 0.250000 0.500000
O O9 0.638233 0.165661 0.500000
O O10 0.088082 0.223289 0.398388
O O11 0.104577 0.228374 0.193333
O O12 0.000000 0.151642 0.275326
O O13 0.500000 0.191004 0.500000
O O14 0.000000 0.315576 0.146509
O O15 0.908290 0.273182 0.000000
#
# Coordination Sequence:
#
# PCOD8271458 Si02
#       6
#    16  16   8  16   8  16
#     4   9  19  34  52  77 110 145 179 220 271 323
#     4  11  23  37  55  80 110 142 181 227 269 321
#     4  12  21  36  61  84 107 143 180 219 271 323
#     4  10  20  35  54  77 106 139 178 222 271 320
#     4  10  20  34  54  82 109 137 174 216 263 317
#     4   9  18  32  52  79 108 139 180 226 267 318
#
# _framework density 18.017925000000002
#
# number of rings (size 3 to 8) (size 9 to 14) (size 15 to 20)
#    0.000    2.000    2.000    1.500    0.000    1.600 
#    0.000    4.000    0.000    5.400    0.000    5.600 
#    0.000    0.000    0.000    0.000    0.000    0.000 
#
# Total GULP energy -496064.560959 kJ/mol
# GULP energy per Si atom -12401.614024 kJ/mol
# Density = 1.797692 g / cm^3
# Si number density = 18.017925 Si / 1000 Ang^3
#
#
#
# Elastic Constant Matrix: (Units=GPa)
#
#
# Indices 1 2 3 4 5 6 
#
# 1 122.4945 71.8973 46.0151 0.0000 0.0000 0.0000
# 2 71.8973 108.6841 53.6645 0.0000 0.0000 0.0000
# 3 46.0151 53.6645 93.9248 0.0000 0.0000 0.0000
# 4 0.0000 0.0000 0.0000 32.3018 0.0000 0.0000
# 5 0.0000 0.0000 0.0000 0.0000 -5.1154 0.0000
# 6 0.0000 0.0000 0.0000 0.0000 0.0000 33.2559
#
#
#
# Elastic Compliance Matrix: (Units=1/GPa)
#
#
# Indices 1 2 3 4 5 6 
#
# 1 0.013644 -0.007975 -0.002128 0.000000 0.000000 0.000000
# 2 -0.007975 0.017479 -0.006079 0.000000 0.000000 0.000000
# 3 -0.002128 -0.006079 0.015163 0.000000 0.000000 0.000000
# 4 0.000000 0.000000 0.000000 0.030958 0.000000 0.000000
# 5 0.000000 0.000000 0.000000 0.000000 -0.195487 0.000000
# 6 0.000000 0.000000 0.000000 0.000000 0.000000 0.030070
#
#
# Mechanical properties :
#
#
# Convention : Reuss Voigt Hill
#
# Bulk Modulus (GPa) = 71.83534 74.25081 73.04307
# Shear Modulus (GPa) = -97.71419 22.32355 -37.69532
#
# Velocity S-wave (km/s) = -7.37220 3.52371 -4.57891
# Velocity P-wave (km/s) = 5.70180 7.60620 3.55976
#
# Compressibility (1/GPa) = 0.01392073
#
# Stress axis : x y z
#
# Youngs Moduli (GPa) = 73.29292 57.21307 65.95165
#
# Poissons Ratio (x) = 0.45629 0.14032
# Poissons Ratio (y) = 0.58453 0.40094
# Poissons Ratio (z) = 0.15594 0.34781
#
# Static dielectric constant tensor:
#      x y z
#    x 3.500130 0.000000 0.000000 
#    y 0.000000 3.229280 0.000000 
#    z 0.000000 0.000000 3.057020 
# 
# 
# High freq. dielectric constant tensor:
#      x y z
#    x 1.701330 0.000000 0.000000 
#    y 0.000000 1.680970 0.000000 
#    z 0.000000 0.000000 1.715060 
# 
# From -- ./inp_files/26663.got.cif
#   From: 2010.03.12/outbox.cif.g09.slc.cpg/sg65_14_cif.got.tgz:26663.got - 2010.04.10 20:52:16.
