data_PCOD8271249
_publ_section_title
;
Structure prediction by ZEFSAII (Michael W. Deem and Ramdas Pophale) SiO2 
 PCOD8271249
Probable space group: C M M M
;
_chemical_formula_sum "Si O2"
_cell_formula_units_Z 88
_cell_length_a 19.428509
_cell_length_b 8.911547
_cell_length_c 27.375613
_cell_angle_alpha 90.000000
_cell_angle_beta 90.000000
_cell_angle_gamma 90.000000
_cell_volume 4739.760830
_symmetry_space_group_name_H-M "C M M M"
_symmetry_group_IT_number 65
_symmetry_cell_setting 'orthorhombic'
loop_
_space_group_symop_operation_xyz
x,y,z
-x,-y,z
x,-y,-z
-x,y,-z
-x,-y,-z
x,y,-z
-x,y,z
x,-y,z
1/2+x,1/2+y,z
1/2-x,1/2-y,z
1/2+x,1/2-y,-z
1/2-x,1/2+y,-z
1/2-x,1/2-y,-z
1/2+x,1/2+y,-z
1/2-x,1/2+y,z
1/2+x,1/2-y,z
loop_
_atom_site_type_symbol
_atom_site_label
_atom_site_fract_x
_atom_site_fract_y
_atom_site_fract_z
Si Si1 0.419309 0.326357 0.130820
Si Si2 0.580837 0.826346 0.769388
Si Si3 0.320702 0.825258 0.943058
Si Si4 0.321349 0.676926 0.693798
Si Si5 0.179441 0.176038 0.582127
Si Si6 0.423135 0.678328 0.500000
O O1 0.500000 0.303062 0.123321
O O2 0.398959 0.500000 0.134038
O O3 0.393602 0.246138 0.180068
O O4 0.383675 0.250585 0.084660
O O5 0.500000 0.802499 0.762550
O O6 0.616436 0.742476 0.724800
O O7 0.601638 0.000000 0.769532
O O8 0.250000 0.750000 0.925365
O O9 0.317381 0.000000 0.930505
O O10 0.333235 0.795547 0.000000
O O11 0.316453 0.500000 0.701436
O O12 0.250000 0.750000 0.711402
O O13 0.337050 0.720874 0.637803
O O14 0.250000 0.250000 0.563979
O O15 0.117024 0.234423 0.548327
O O16 0.189385 0.000000 0.576285
O O17 0.427846 0.500000 0.500000
O O18 0.500000 0.747920 0.500000
#
# Coordination Sequence:
#
# PCOD8271249 Si02
#       6
#    16  16  16  16  16   8
#     4  10  21  37  57  81 109 141 178 219 262 312
#     4  10  21  37  56  78 106 139 174 215 264 315
#     4  10  21  37  57  81 110 143 179 220 265 313
#     4  10  20  34  53  78 106 136 175 219 262 311
#     4   9  18  32  52  75 100 134 171 211 256 304
#     4   9  17  30  49  75 104 133 170 212 254 303
#
# _framework density 18.566337999999998
#
# number of rings (size 3 to 8) (size 9 to 14) (size 15 to 20)
#    0.000    2.273    0.000    2.455    0.000    5.818 
#    0.000    7.273    0.000    1.091    0.000    0.000 
#    0.000    0.000    0.000    0.000    0.000    0.000 
#
# Total GULP energy -545765.036044 kJ/mol
# GULP energy per Si atom -12403.750819 kJ/mol
# Density = 1.852408 g / cm^3
# Si number density = 18.566338 Si / 1000 Ang^3
#
#
#
# Elastic Constant Matrix: (Units=GPa)
#
#
# Indices 1 2 3 4 5 6 
#
# 1 95.5934 49.3732 64.8427 0.0000 0.0000 0.0000
# 2 49.3732 98.5623 52.0354 0.0000 0.0000 0.0000
# 3 64.8427 52.0354 99.1996 0.0000 0.0000 0.0000
# 4 0.0000 0.0000 0.0000 25.0752 0.0000 0.0000
# 5 0.0000 0.0000 0.0000 0.0000 42.4423 0.0000
# 6 0.0000 0.0000 0.0000 0.0000 0.0000 34.2132
#
#
#
# Elastic Compliance Matrix: (Units=1/GPa)
#
#
# Indices 1 2 3 4 5 6 
#
# 1 0.020041 -0.004319 -0.010834 0.000000 0.000000 0.000000
# 2 -0.004319 0.014963 -0.005025 0.000000 0.000000 0.000000
# 3 -0.010834 -0.005025 0.019799 0.000000 0.000000 0.000000
# 4 0.000000 0.000000 0.000000 0.039880 0.000000 0.000000
# 5 0.000000 0.000000 0.000000 0.000000 0.023561 0.000000
# 6 0.000000 0.000000 0.000000 0.000000 0.000000 0.029228
#
#
# Mechanical properties :
#
#
# Convention : Reuss Voigt Hill
#
# Bulk Modulus (GPa) = 69.23070 69.53974 69.38522
# Shear Modulus (GPa) = 25.95453 28.81975 27.38714
#
# Velocity S-wave (km/s) = 3.74295 3.94414 3.84486
# Velocity P-wave (km/s) = 7.48658 7.63399 7.56064
#
# Compressibility (1/GPa) = 0.01444446
#
# Stress axis : x y z
#
# Youngs Moduli (GPa) = 49.89795 66.83306 50.50857
#
# Poissons Ratio (x) = 0.28867 0.54722
# Poissons Ratio (y) = 0.21552 0.25382
# Poissons Ratio (z) = 0.54060 0.33586
#
# Static dielectric constant tensor:
#      x y z
#    x 3.441640 0.000000 0.000000 
#    y 0.000000 3.466850 0.000000 
#    z 0.000000 0.000000 3.496700 
# 
# 
# High freq. dielectric constant tensor:
#      x y z
#    x 1.718780 0.000000 0.000000 
#    y 0.000000 1.723930 0.000000 
#    z 0.000000 0.000000 1.726910 
# 
# From -- ./inp_files/67490.got.cif
#   From: 2010.03.12/outbox.cif.g09.slc.cpg/sg65_34_cif.got.tgz:67490.got - 2010.04.10 20:52:16.
