data_PCOD8271940
_publ_section_title
;
Structure prediction by ZEFSAII (Michael W. Deem and Ramdas Pophale) SiO2 
 PCOD8271940
Probable space group: C M M M
;
_chemical_formula_sum "Si O2"
_cell_formula_units_Z 104
_cell_length_a 21.058233
_cell_length_b 28.231435
_cell_length_c 9.189876
_cell_angle_alpha 90.000000
_cell_angle_beta 90.000000
_cell_angle_gamma 90.000000
_cell_volume 5463.419293
_symmetry_space_group_name_H-M "C M M M"
_symmetry_group_IT_number 65
_symmetry_cell_setting 'orthorhombic'
loop_
_space_group_symop_operation_xyz
x,y,z
-x,-y,z
x,-y,-z
-x,y,-z
-x,-y,-z
x,y,-z
-x,y,z
x,-y,z
1/2+x,1/2+y,z
1/2-x,1/2-y,z
1/2+x,1/2-y,-z
1/2-x,1/2+y,-z
1/2-x,1/2-y,-z
1/2+x,1/2+y,-z
1/2-x,1/2+y,z
1/2+x,1/2-y,z
loop_
_atom_site_type_symbol
_atom_site_label
_atom_site_fract_x
_atom_site_fract_y
_atom_site_fract_z
Si Si1 0.570179 0.778741 0.835097
Si Si2 0.690095 0.445869 0.664997
Si Si3 0.430028 0.609050 0.666489
Si Si4 0.102807 0.369915 0.672702
Si Si5 0.736197 0.130640 0.829979
Si Si6 0.000000 0.445903 0.327686
Si Si7 0.355974 0.311866 0.169636
O O1 0.500000 0.754906 0.828675
O O2 0.567519 0.823223 0.727940
O O3 0.624968 0.741678 0.785390
O O4 0.585120 0.795836 0.000000
O O5 0.710418 0.431528 0.500000
O O6 0.705059 0.500000 0.695028
O O7 0.615233 0.436408 0.687385
O O8 0.728768 0.417239 0.784674
O O9 0.432209 0.625096 0.500000
O O10 0.500000 0.595006 0.723133
O O11 0.404349 0.653701 0.752347
O O12 0.107776 0.368572 0.500000
O O13 0.172267 0.367729 0.739911
O O14 0.063017 0.416730 0.722529
O O15 0.782450 0.175437 0.791498
O O16 0.720142 0.129406 0.000000
O O17 0.000000 0.500000 0.262946
O O18 0.000000 0.449252 0.500000
O O19 0.367328 0.319271 0.000000
#
# Coordination Sequence:
#
# PCOD8271940 Si02
#       7
#    16  16  16  16  16   8  16
#     4  10  20  35  57  82 111 146 184 225 270 321
#     4   9  18  33  52  74 103 141 183 225 274 331
#     4   9  17  29  47  74 107 141 181 231 277 317
#     4  11  22  38  60  85 111 139 176 221 275 334
#     4  10  21  37  56  79 110 144 183 230 276 325
#     4   9  20  40  63  85 109 139 177 221 272 335
#     4   9  19  35  54  77 107 149 191 224 265 323
#
# _framework density 19.035698
#
# number of rings (size 3 to 8) (size 9 to 14) (size 15 to 20)
#    0.000    2.385    0.769    1.385    0.000    4.000 
#    0.000    6.154    0.000    3.231    0.000    4.308 
#    0.000    0.000    0.000    0.000    0.000    0.000 
#
# Total GULP energy -644499.820026 kJ/mol
# GULP energy per Si atom -12394.227308 kJ/mol
# Density = 1.899237 g / cm^3
# Si number density = 19.035698 Si / 1000 Ang^3
#
#
#
# Elastic Constant Matrix: (Units=GPa)
#
#
# Indices 1 2 3 4 5 6 
#
# 1 130.2802 52.6195 40.3767 0.0000 0.0000 0.0000
# 2 52.6195 111.8644 38.6752 0.0000 0.0000 0.0000
# 3 40.3767 38.6752 56.7632 0.0000 0.0000 0.0000
# 4 0.0000 0.0000 0.0000 23.0982 0.0000 0.0000
# 5 0.0000 0.0000 0.0000 0.0000 28.8626 0.0000
# 6 0.0000 0.0000 0.0000 0.0000 0.0000 19.9796
#
#
#
# Elastic Compliance Matrix: (Units=1/GPa)
#
#
# Indices 1 2 3 4 5 6 
#
# 1 0.010617 -0.003118 -0.005428 0.000000 0.000000 0.000000
# 2 -0.003118 0.012609 -0.006374 0.000000 0.000000 0.000000
# 3 -0.005428 -0.006374 0.025821 0.000000 0.000000 0.000000
# 4 0.000000 0.000000 0.000000 0.043293 0.000000 0.000000
# 5 0.000000 0.000000 0.000000 0.000000 0.034647 0.000000
# 6 0.000000 0.000000 0.000000 0.000000 0.000000 0.050051
#
#
# Mechanical properties :
#
#
# Convention : Reuss Voigt Hill
#
# Bulk Modulus (GPa) = 52.05977 62.47230 57.26603
# Shear Modulus (GPa) = 23.44327 25.53717 24.49022
#
# Velocity S-wave (km/s) = 3.51314 3.66668 3.59073
# Velocity P-wave (km/s) = 6.62300 7.12852 6.88040
#
# Compressibility (1/GPa) = 0.01920869
#
# Stress axis : x y z
#
# Youngs Moduli (GPa) = 94.18679 79.30541 38.72825
#
# Poissons Ratio (x) = 0.24724 0.21022
# Poissons Ratio (y) = 0.29363 0.24685
# Poissons Ratio (z) = 0.51126 0.50548
#
# Static dielectric constant tensor:
#      x y z
#    x 3.745370 0.000000 0.000000 
#    y 0.000000 3.538140 0.000000 
#    z 0.000000 0.000000 3.448480 
# 
# 
# High freq. dielectric constant tensor:
#      x y z
#    x 1.751540 0.000000 0.000000 
#    y 0.000000 1.729480 0.000000 
#    z 0.000000 0.000000 1.730130 
# 
# From -- ./inp_files/12441.got.cif
#   From: 2010.03.12/outbox.cif.g09.slc.cpg/sg65_7_cif.got.tgz:12441.got - 2010.04.10 20:52:16.
