data_PCOD8271860
_publ_section_title
;
Structure prediction by ZEFSAII (Michael W. Deem and Ramdas Pophale) SiO2 
 PCOD8271860
Probable space group: C M M M
;
_chemical_formula_sum "Si O2"
_cell_formula_units_Z 72
_cell_length_a 15.261667
_cell_length_b 8.813350
_cell_length_c 26.419684
_cell_angle_alpha 90.000000
_cell_angle_beta 90.000000
_cell_angle_gamma 90.000000
_cell_volume 3553.616924
_symmetry_space_group_name_H-M "C M M M"
_symmetry_group_IT_number 65
_symmetry_cell_setting 'orthorhombic'
loop_
_space_group_symop_operation_xyz
x,y,z
-x,-y,z
x,-y,-z
-x,y,-z
-x,-y,-z
x,y,-z
-x,y,z
x,-y,z
1/2+x,1/2+y,z
1/2-x,1/2-y,z
1/2+x,1/2-y,-z
1/2-x,1/2+y,-z
1/2-x,1/2-y,-z
1/2+x,1/2+y,-z
1/2-x,1/2+y,z
1/2+x,1/2-y,z
loop_
_atom_site_type_symbol
_atom_site_label
_atom_site_fract_x
_atom_site_fract_y
_atom_site_fract_z
Si Si1 0.098666 0.171641 0.338450
Si Si2 0.338680 0.821549 0.756979
Si Si3 0.500000 0.320990 0.185453
Si Si4 0.000000 0.321191 0.077306
Si Si5 0.843752 0.821376 0.445340
Si Si6 0.151906 0.323017 0.000000
O O1 0.154445 0.281892 0.302773
O O2 0.098999 0.228811 0.396922
O O3 0.000000 0.176350 0.318435
O O4 0.136110 0.000000 0.334163
O O5 0.250000 0.750000 0.778868
O O6 0.415385 0.748302 0.788709
O O7 0.338926 0.000000 0.764660
O O8 0.500000 0.500000 0.193210
O O9 0.500000 0.280385 0.126799
O O10 0.000000 0.500000 0.089824
O O11 0.090351 0.278945 0.047866
O O12 0.884690 0.769362 0.500000
O O13 0.750000 0.750000 0.437736
O O14 0.833239 0.000000 0.445780
O O15 0.250000 0.250000 0.000000
O O16 0.170601 0.500000 0.000000
#
# Coordination Sequence:
#
# PCOD8271860 Si02
#       6
#    16  16   8   8  16   8
#     4  10  20  35  56  81 112 148 191 245 300 363
#     4  12  25  42  64  89 119 160 205 255 312 373
#     4  12  25  43  65  94 129 165 210 263 314 370
#     4   9  20  40  62  90 130 175 213 255 310 363
#     4   9  18  32  50  74 104 141 185 234 291 356
#     4   9  19  37  64  94 130 173 217 259 303 358
#
# _framework density 20.261046
#
# number of rings (size 3 to 8) (size 9 to 14) (size 15 to 20)
#    0.000    1.778    1.111    4.333    0.000    4.889 
#    0.000    5.556    0.000    0.000    0.000    4.667 
#    0.000    0.000    0.000    0.000    0.000    0.000 
#
# Total GULP energy -446157.088457 kJ/mol
# GULP energy per Si atom -12393.252457 kJ/mol
# Density = 2.021493 g / cm^3
# Si number density = 20.261046 Si / 1000 Ang^3
#
#
#
# Elastic Constant Matrix: (Units=GPa)
#
#
# Indices 1 2 3 4 5 6 
#
# 1 148.2496 60.9593 61.1091 0.0000 0.0000 0.0000
# 2 60.9593 116.9892 59.4988 0.0000 0.0000 0.0000
# 3 61.1091 59.4988 127.2522 0.0000 0.0000 0.0000
# 4 0.0000 0.0000 0.0000 33.5209 0.0000 0.0000
# 5 0.0000 0.0000 0.0000 0.0000 163.4139 0.0000
# 6 0.0000 0.0000 0.0000 0.0000 0.0000 33.7902
#
#
#
# Elastic Compliance Matrix: (Units=1/GPa)
#
#
# Indices 1 2 3 4 5 6 
#
# 1 0.009334 -0.003390 -0.002897 0.000000 0.000000 0.000000
# 2 -0.003390 0.012446 -0.004191 0.000000 0.000000 0.000000
# 3 -0.002897 -0.004191 0.011209 0.000000 0.000000 0.000000
# 4 0.000000 0.000000 0.000000 0.029832 0.000000 0.000000
# 5 0.000000 0.000000 0.000000 0.000000 0.006119 0.000000
# 6 0.000000 0.000000 0.000000 0.000000 0.000000 0.029594
#
#
# Mechanical properties :
#
#
# Convention : Reuss Voigt Hill
#
# Bulk Modulus (GPa) = 83.11214 83.95838 83.53526
# Shear Modulus (GPa) = 40.48515 60.20659 50.34587
#
# Velocity S-wave (km/s) = 4.47495 5.45710 4.99025
# Velocity P-wave (km/s) = 8.23468 9.01304 8.63264
#
# Compressibility (1/GPa) = 0.01203194
#
# Stress axis : x y z
#
# Youngs Moduli (GPa) = 107.14085 80.34819 89.21105
#
# Poissons Ratio (x) = 0.27238 0.25845
# Poissons Ratio (y) = 0.36320 0.37391
# Poissons Ratio (z) = 0.31040 0.33676
#
# Static dielectric constant tensor:
#      x y z
#    x 3.738620 0.000000 0.000000 
#    y 0.000000 3.580310 0.000000 
#    z 0.000000 0.000000 3.976100 
# 
# 
# High freq. dielectric constant tensor:
#      x y z
#    x 1.793000 0.000000 0.000000 
#    y 0.000000 1.780830 0.000000 
#    z 0.000000 0.000000 1.800210 
# 
# From -- ./inp_files/74707.got.cif
#   From: 2010.03.12/outbox.cif.g09.slc.cpg/sg65_38_cif.got.tgz:74707.got - 2010.04.10 20:52:16.
