data_PCOD8271508
_publ_section_title
;
Structure prediction by ZEFSAII (Michael W. Deem and Ramdas Pophale) SiO2 
 PCOD8271508
Probable space group: C M M M
;
_chemical_formula_sum "Si O2"
_cell_formula_units_Z 96
_cell_length_a 20.088284
_cell_length_b 27.971378
_cell_length_c 9.208482
_cell_angle_alpha 90.000000
_cell_angle_beta 90.000000
_cell_angle_gamma 90.000000
_cell_volume 5174.218273
_symmetry_space_group_name_H-M "C M M M"
_symmetry_group_IT_number 65
_symmetry_cell_setting 'orthorhombic'
loop_
_space_group_symop_operation_xyz
x,y,z
-x,-y,z
x,-y,-z
-x,y,-z
-x,-y,-z
x,y,-z
-x,y,z
x,-y,z
1/2+x,1/2+y,z
1/2-x,1/2-y,z
1/2+x,1/2-y,-z
1/2-x,1/2+y,-z
1/2-x,1/2-y,-z
1/2+x,1/2+y,-z
1/2-x,1/2+y,z
1/2+x,1/2-y,z
loop_
_atom_site_type_symbol
_atom_site_label
_atom_site_fract_x
_atom_site_fract_y
_atom_site_fract_z
Si Si1 0.315879 0.555357 0.168427
Si Si2 0.923956 0.791539 0.831460
Si Si3 0.076499 0.554760 0.667236
Si Si4 0.577024 0.612454 0.330086
Si Si5 0.686309 0.112756 0.827830
Si Si6 0.811700 0.279802 0.171847
O O1 0.300612 0.500000 0.196466
O O2 0.380336 0.570008 0.260446
O O3 0.252235 0.585039 0.224002
O O4 0.330638 0.565806 0.000000
O O5 0.901210 0.837454 0.740589
O O6 0.880024 0.746347 0.782799
O O7 0.000000 0.777653 0.798862
O O8 0.912349 0.804125 0.000000
O O9 0.095826 0.562482 0.500000
O O10 0.088847 0.500000 0.712432
O O11 0.120797 0.588320 0.766366
O O12 0.000000 0.568776 0.694097
O O13 0.591295 0.615266 0.500000
O O14 0.500000 0.601426 0.296515
O O15 0.689322 0.166627 0.765120
O O16 0.680391 0.111809 0.000000
O O17 0.750000 0.250000 0.237576
O O18 0.804577 0.282663 0.000000
#
# Coordination Sequence:
#
# PCOD8271508 Si02
#       6
#    16  16  16  16  16  16
#     4  10  21  36  54  77 105 137 173 212 257 312
#     4   9  17  31  52  75 100 133 170 205 247 303
#     4   9  19  36  55  75 104 143 180 210 249 307
#     4  10  21  36  54  77 104 134 171 215 260 305
#     4  10  20  34  55  82 107 132 170 219 262 301
#     4   9  17  30  50  75 102 132 166 207 255 304
#
# _framework density 18.553528
#
# number of rings (size 3 to 8) (size 9 to 14) (size 15 to 20)
#    0.000    2.500    0.000    2.500    0.000    7.000 
#    0.000    5.000    0.000    4.000    0.000    0.000 
#    0.000    0.000    0.000    0.000    0.000    0.000 
#
# Total GULP energy -595320.854306 kJ/mol
# GULP energy per Si atom -12402.517798 kJ/mol
# Density = 1.851130 g / cm^3
# Si number density = 18.553528 Si / 1000 Ang^3
#
#
#
# Elastic Constant Matrix: (Units=GPa)
#
#
# Indices 1 2 3 4 5 6 
#
# 1 107.7573 72.8898 37.5528 0.0000 0.0000 0.0000
# 2 72.8898 133.2634 38.5942 0.0000 0.0000 0.0000
# 3 37.5528 38.5942 44.7331 0.0000 0.0000 0.0000
# 4 0.0000 0.0000 0.0000 15.8051 0.0000 0.0000
# 5 0.0000 0.0000 0.0000 0.0000 25.3365 0.0000
# 6 0.0000 0.0000 0.0000 0.0000 0.0000 40.9654
#
#
#
# Elastic Compliance Matrix: (Units=1/GPa)
#
#
# Indices 1 2 3 4 5 6 
#
# 1 0.016714 -0.006770 -0.008190 0.000000 0.000000 0.000000
# 2 -0.006770 0.012745 -0.005313 0.000000 0.000000 0.000000
# 3 -0.008190 -0.005313 0.033814 0.000000 0.000000 0.000000
# 4 0.000000 0.000000 0.000000 0.063271 0.000000 0.000000
# 5 0.000000 0.000000 0.000000 0.000000 0.039469 0.000000
# 6 0.000000 0.000000 0.000000 0.000000 0.000000 0.024411
#
#
# Mechanical properties :
#
#
# Convention : Reuss Voigt Hill
#
# Bulk Modulus (GPa) = 44.00010 64.86970 54.43490
# Shear Modulus (GPa) = 20.96035 25.53586 23.24810
#
# Velocity S-wave (km/s) = 3.36478 3.71392 3.54365
# Velocity P-wave (km/s) = 6.23397 7.30961 6.79311
#
# Compressibility (1/GPa) = 0.02272722
#
# Stress axis : x y z
#
# Youngs Moduli (GPa) = 59.83180 78.45934 29.57321
#
# Poissons Ratio (x) = 0.53115 0.24221
# Poissons Ratio (y) = 0.40504 0.15713
# Poissons Ratio (z) = 0.49003 0.41688
#
# Static dielectric constant tensor:
#      x y z
#    x 3.466730 0.000000 0.000000 
#    y 0.000000 3.513470 0.000000 
#    z 0.000000 0.000000 3.160280 
# 
# 
# High freq. dielectric constant tensor:
#      x y z
#    x 1.729970 0.000000 0.000000 
#    y 0.000000 1.724420 0.000000 
#    z 0.000000 0.000000 1.693430 
# 
# From -- ./inp_files/12313.got.cif
#   From: 2010.03.12/outbox.cif.g09.slc.cpg/sg65_7_cif.got.tgz:12313.got - 2010.04.10 20:52:16.
