data_PCOD8271278
_publ_section_title
;
Structure prediction by ZEFSAII (Michael W. Deem and Ramdas Pophale) SiO2 
 PCOD8271278
Probable space group: C M M M
;
_chemical_formula_sum "Si O2"
_cell_formula_units_Z 88
_cell_length_a 24.667329
_cell_length_b 14.443846
_cell_length_c 13.983714
_cell_angle_alpha 90.000000
_cell_angle_beta 90.000000
_cell_angle_gamma 90.000000
_cell_volume 4982.272861
_symmetry_space_group_name_H-M "C M M M"
_symmetry_group_IT_number 65
_symmetry_cell_setting 'orthorhombic'
loop_
_space_group_symop_operation_xyz
x,y,z
-x,-y,z
x,-y,-z
-x,y,-z
-x,-y,-z
x,y,-z
-x,y,z
x,-y,z
1/2+x,1/2+y,z
1/2-x,1/2-y,z
1/2+x,1/2-y,-z
1/2-x,1/2+y,-z
1/2-x,1/2-y,-z
1/2+x,1/2+y,-z
1/2-x,1/2+y,z
1/2+x,1/2-y,z
loop_
_atom_site_type_symbol
_atom_site_label
_atom_site_fract_x
_atom_site_fract_y
_atom_site_fract_z
Si Si1 0.500000 0.389932 0.607579
Si Si2 0.109356 0.604714 0.395417
Si Si3 0.810570 0.232450 0.390351
Si Si4 0.435816 0.712618 0.109561
Si Si5 0.062040 0.399400 0.198207
Si Si6 0.393475 0.609418 0.717725
O O1 0.500000 0.500000 0.610000
O O2 0.500000 0.351409 0.500000
O O3 0.554338 0.353344 0.658747
O O4 0.082265 0.623709 0.500000
O O5 0.131152 0.500000 0.390245
O O6 0.160915 0.669005 0.379830
O O7 0.066414 0.623810 0.311240
O O8 0.810732 0.196859 0.500000
O O9 0.750000 0.250000 0.352580
O O10 0.839655 0.155688 0.324987
O O11 0.500000 0.704303 0.129937
O O12 0.413362 0.815499 0.136084
O O13 0.403177 0.637921 0.172219
O O14 0.422163 0.691404 0.000000
O O15 0.089746 0.500000 0.174817
O O16 0.000000 0.407639 0.170514
O O17 0.386387 0.500000 0.710816
#
# Coordination Sequence:
#
# PCOD8271278 Si02
#       6
#     8  16  16  16  16  16
#     4   9  18  32  51  77 110 143 175 217 269 327
#     4   9  17  30  49  73 102 134 167 207 258 317
#     4  10  21  36  54  78 109 144 183 221 263 321
#     4  10  20  34  53  79 111 145 183 227 279 335
#     4   9  17  30  49  75 106 137 173 216 264 319
#     4  11  21  35  54  80 112 146 188 231 276 328
#
# _framework density 17.662621999999999
#
# number of rings (size 3 to 8) (size 9 to 14) (size 15 to 20)
#    0.000    2.273    2.727    0.545    0.000    2.909 
#    0.000    6.364    0.000    0.545    0.000    0.000 
#    0.000    0.000    0.000    0.000    0.000    0.000 
#
# Total GULP energy -545391.986889 kJ/mol
# GULP energy per Si atom -12395.272429 kJ/mol
# Density = 1.762242 g / cm^3
# Si number density = 17.662622 Si / 1000 Ang^3
#
#
#
# Elastic Constant Matrix: (Units=GPa)
#
#
# Indices 1 2 3 4 5 6 
#
# 1 69.8650 35.3031 38.2962 0.0000 0.0000 0.0000
# 2 35.3031 86.2941 44.0159 0.0000 0.0000 0.0000
# 3 38.2962 44.0159 110.2527 0.0000 0.0000 0.0000
# 4 0.0000 0.0000 0.0000 25.0247 0.0000 0.0000
# 5 0.0000 0.0000 0.0000 0.0000 19.2012 0.0000
# 6 0.0000 0.0000 0.0000 0.0000 0.0000 19.7744
#
#
#
# Elastic Compliance Matrix: (Units=1/GPa)
#
#
# Indices 1 2 3 4 5 6 
#
# 1 0.019711 -0.005740 -0.004555 0.000000 0.000000 0.000000
# 2 -0.005740 0.016223 -0.004483 0.000000 0.000000 0.000000
# 3 -0.004555 -0.004483 0.012442 0.000000 0.000000 0.000000
# 4 0.000000 0.000000 0.000000 0.039961 0.000000 0.000000
# 5 0.000000 0.000000 0.000000 0.000000 0.052080 0.000000
# 6 0.000000 0.000000 0.000000 0.000000 0.000000 0.050571
#
#
# Mechanical properties :
#
#
# Convention : Reuss Voigt Hill
#
# Bulk Modulus (GPa) = 53.13579 55.73803 54.43691
# Shear Modulus (GPa) = 22.04428 22.71982 22.38205
#
# Velocity S-wave (km/s) = 3.53664 3.59042 3.56364
# Velocity P-wave (km/s) = 6.84297 6.98668 6.91520
#
# Compressibility (1/GPa) = 0.01881971
#
# Stress axis : x y z
#
# Youngs Moduli (GPa) = 50.73406 61.63997 80.37406
#
# Poissons Ratio (x) = 0.35384 0.36608
# Poissons Ratio (y) = 0.29123 0.36030
# Poissons Ratio (z) = 0.23108 0.27632
#
# Static dielectric constant tensor:
#      x y z
#    x 2.941130 0.000000 0.000000 
#    y 0.000000 3.447150 0.000000 
#    z 0.000000 0.000000 3.284320 
# 
# 
# High freq. dielectric constant tensor:
#      x y z
#    x 1.635830 0.000000 0.000000 
#    y 0.000000 1.696140 0.000000 
#    z 0.000000 0.000000 1.676920 
# 
# From -- ./inp_files/40597.got.cif
#   From: 2010.03.12/outbox.cif.g09.slc.cpg/sg65_21_cif.got.tgz:40597.got - 2010.04.10 20:52:16.
