data_PCOD8271383
_publ_section_title
;
Structure prediction by ZEFSAII (Michael W. Deem and Ramdas Pophale) SiO2 
 PCOD8271383
Probable space group: C M M M
;
_chemical_formula_sum "Si O2"
_cell_formula_units_Z 96
_cell_length_a 8.860761
_cell_length_b 28.639636
_cell_length_c 20.624484
_cell_angle_alpha 90.000000
_cell_angle_beta 90.000000
_cell_angle_gamma 90.000000
_cell_volume 5233.854056
_symmetry_space_group_name_H-M "C M M M"
_symmetry_group_IT_number 65
_symmetry_cell_setting 'orthorhombic'
loop_
_space_group_symop_operation_xyz
x,y,z
-x,-y,z
x,-y,-z
-x,y,-z
-x,-y,-z
x,y,-z
-x,y,z
x,-y,z
1/2+x,1/2+y,z
1/2-x,1/2-y,z
1/2+x,1/2-y,-z
1/2-x,1/2+y,-z
1/2-x,1/2-y,-z
1/2+x,1/2+y,-z
1/2-x,1/2+y,z
1/2+x,1/2-y,z
loop_
_atom_site_type_symbol
_atom_site_label
_atom_site_fract_x
_atom_site_fract_y
_atom_site_fract_z
Si Si1 0.177330 0.141319 0.807864
Si Si2 0.326228 0.447607 0.629189
Si Si3 0.823059 0.201980 0.927637
Si Si4 0.178250 0.699321 0.307649
Si Si5 0.324467 0.052699 0.234212
Si Si6 0.326320 0.862925 0.427728
O O1 0.224872 0.162089 0.877361
O O2 0.263327 0.167678 0.750714
O O3 0.228878 0.087487 0.810786
O O4 0.000000 0.145429 0.795205
O O5 0.500000 0.438844 0.648088
O O6 0.304472 0.500000 0.601165
O O7 0.224028 0.439960 0.691962
O O8 0.272515 0.410065 0.576616
O O9 0.750000 0.250000 0.903933
O O10 0.000000 0.209909 0.927228
O O11 0.766587 0.188166 0.000000
O O12 0.250000 0.750000 0.303598
O O13 0.226841 0.675599 0.375659
O O14 0.000000 0.704480 0.301724
O O15 0.500000 0.064864 0.228583
O O16 0.290051 0.000000 0.211075
O O17 0.302482 0.842217 0.500000
O O18 0.500000 0.876387 0.415526
#
# Coordination Sequence:
#
# PCOD8271383 Si02
#       6
#    16  16  16  16  16  16
#     4  11  21  34  57  85 112 142 179 223 268 317
#     4  10  20  34  54  80 108 137 174 221 271 323
#     4   9  19  35  54  80 114 149 183 219 262 314
#     4  11  23  38  56  78 106 139 179 227 271 320
#     4  10  20  34  54  80 110 143 178 219 268 321
#     4  10  22  39  56  75 103 142 183 222 270 326
#
# _framework density 18.342123000000001
#
# number of rings (size 3 to 8) (size 9 to 14) (size 15 to 20)
#    0.000    1.833    1.667    2.500    0.000    6.333 
#    0.000    1.667    0.000    0.500    0.000    3.500 
#    0.000    0.000    0.000    0.000    0.000    0.000 
#
# Total GULP energy -595276.637207 kJ/mol
# GULP energy per Si atom -12401.596608 kJ/mol
# Density = 1.830038 g / cm^3
# Si number density = 18.342123 Si / 1000 Ang^3
#
#
#
# Elastic Constant Matrix: (Units=GPa)
#
#
# Indices 1 2 3 4 5 6 
#
# 1 57.7780 40.8579 34.5865 0.0000 0.0000 0.0000
# 2 40.8579 117.7360 55.9086 0.0000 0.0000 0.0000
# 3 34.5865 55.9086 102.2428 0.0000 0.0000 0.0000
# 4 0.0000 0.0000 0.0000 17.9102 0.0000 0.0000
# 5 0.0000 0.0000 0.0000 0.0000 22.4878 0.0000
# 6 0.0000 0.0000 0.0000 0.0000 0.0000 34.5132
#
#
#
# Elastic Compliance Matrix: (Units=1/GPa)
#
#
# Indices 1 2 3 4 5 6 
#
# 1 0.024659 -0.006208 -0.004947 0.000000 0.000000 0.000000
# 2 -0.006208 0.013036 -0.005028 0.000000 0.000000 0.000000
# 3 -0.004947 -0.005028 0.014203 0.000000 0.000000 0.000000
# 4 0.000000 0.000000 0.000000 0.055834 0.000000 0.000000
# 5 0.000000 0.000000 0.000000 0.000000 0.044469 0.000000
# 6 0.000000 0.000000 0.000000 0.000000 0.000000 0.028974
#
#
# Mechanical properties :
#
#
# Convention : Reuss Voigt Hill
#
# Bulk Modulus (GPa) = 51.19834 60.05142 55.62488
# Shear Modulus (GPa) = 22.72187 24.74249 23.73218
#
# Velocity S-wave (km/s) = 3.52345 3.67678 3.60093
# Velocity P-wave (km/s) = 6.67282 7.12991 6.90515
#
# Compressibility (1/GPa) = 0.01953188
#
# Stress axis : x y z
#
# Youngs Moduli (GPa) = 40.55305 76.71225 70.40537
#
# Poissons Ratio (x) = 0.47626 0.34828
# Poissons Ratio (y) = 0.25177 0.35400
# Poissons Ratio (z) = 0.20060 0.38571
#
# Static dielectric constant tensor:
#      x y z
#    x 3.426900 0.000000 0.000000 
#    y 0.000000 3.491470 0.000000 
#    z 0.000000 0.000000 3.405720 
# 
# 
# High freq. dielectric constant tensor:
#      x y z
#    x 1.720420 0.000000 0.000000 
#    y 0.000000 1.714050 0.000000 
#    z 0.000000 0.000000 1.694460 
# 
# From -- ./inp_files/60151.got.cif
#   From: 2010.03.12/outbox.cif.g09.slc.cpg/sg65_31_cif.got.tgz:60151.got - 2010.04.10 20:52:16.
