data_PCOD8271500
_publ_section_title
;
Structure prediction by ZEFSAII (Michael W. Deem and Ramdas Pophale) SiO2 
 PCOD8271500
Probable space group: C M M M
;
_chemical_formula_sum "Si O2"
_cell_formula_units_Z 72
_cell_length_a 10.172264
_cell_length_b 21.631341
_cell_length_c 17.181446
_cell_angle_alpha 90.000000
_cell_angle_beta 90.000000
_cell_angle_gamma 90.000000
_cell_volume 3780.600418
_symmetry_space_group_name_H-M "C M M M"
_symmetry_group_IT_number 65
_symmetry_cell_setting 'orthorhombic'
loop_
_space_group_symop_operation_xyz
x,y,z
-x,-y,z
x,-y,-z
-x,y,-z
-x,-y,-z
x,y,-z
-x,y,z
x,-y,z
1/2+x,1/2+y,z
1/2-x,1/2-y,z
1/2+x,1/2-y,-z
1/2-x,1/2+y,-z
1/2-x,1/2-y,-z
1/2+x,1/2+y,-z
1/2-x,1/2+y,z
1/2+x,1/2-y,z
loop_
_atom_site_type_symbol
_atom_site_label
_atom_site_fract_x
_atom_site_fract_y
_atom_site_fract_z
Si Si1 0.643771 0.664072 0.585753
Si Si2 0.148147 0.634467 0.800187
Si Si3 0.350149 0.429164 0.908821
Si Si4 0.250000 0.250000 0.711419
Si Si5 0.350983 0.929386 0.358258
O O1 0.658076 0.695031 0.500000
O O2 0.500000 0.632847 0.593772
O O3 0.650667 0.714730 0.653890
O O4 0.754243 0.611944 0.591334
O O5 0.252384 0.618452 0.867028
O O6 0.171484 0.702902 0.766275
O O7 0.166846 0.583857 0.733008
O O8 0.000000 0.631833 0.834278
O O9 0.500000 0.415798 0.881948
O O10 0.312602 0.500000 0.889056
O O11 0.336410 0.417148 0.000000
O O12 0.500000 0.914059 0.383921
O O13 0.315478 0.000000 0.374554
#
# Coordination Sequence:
#
# PCOD8271500 Si02
#       5
#    16  16  16   8  16
#     4  10  21  36  55  78 102 133 177 225 267 310
#     4  10  20  34  55  81 106 136 178 223 260 302
#     4   9  19  36  57  82 112 143 172 205 253 312
#     4  10  21  38  55  74 104 142 176 216 267 320
#     4   9  19  35  53  76 108 142 173 210 264 324
#
# _framework density 19.044594
#
# number of rings (size 3 to 8) (size 9 to 14) (size 15 to 20)
#    0.000    2.444    0.000    2.333    0.000    8.444 
#    0.000    3.889    0.000    0.000    0.000    0.000 
#    0.000    0.000    0.000    0.000    0.000    0.000 
#
# Total GULP energy -446296.886260 kJ/mol
# GULP energy per Si atom -12397.135729 kJ/mol
# Density = 1.900125 g / cm^3
# Si number density = 19.044594 Si / 1000 Ang^3
#
#
#
# Elastic Constant Matrix: (Units=GPa)
#
#
# Indices 1 2 3 4 5 6 
#
# 1 140.4229 64.4998 61.0517 0.0000 0.0000 0.0000
# 2 64.4998 103.5651 45.5631 0.0000 0.0000 0.0000
# 3 61.0517 45.5631 79.6601 0.0000 0.0000 0.0000
# 4 0.0000 0.0000 0.0000 15.4866 0.0000 0.0000
# 5 0.0000 0.0000 0.0000 0.0000 30.3331 0.0000
# 6 0.0000 0.0000 0.0000 0.0000 0.0000 24.8529
#
#
#
# Elastic Compliance Matrix: (Units=1/GPa)
#
#
# Indices 1 2 3 4 5 6 
#
# 1 0.012144 -0.004635 -0.006656 0.000000 0.000000 0.000000
# 2 -0.004635 0.014671 -0.004839 0.000000 0.000000 0.000000
# 3 -0.006656 -0.004839 0.020423 0.000000 0.000000 0.000000
# 4 0.000000 0.000000 0.000000 0.064572 0.000000 0.000000
# 5 0.000000 0.000000 0.000000 0.000000 0.032967 0.000000
# 6 0.000000 0.000000 0.000000 0.000000 0.000000 0.040237
#
#
# Mechanical properties :
#
#
# Convention : Reuss Voigt Hill
#
# Bulk Modulus (GPa) = 66.76849 73.98634 70.37742
# Shear Modulus (GPa) = 22.49536 24.30343 23.39939
#
# Velocity S-wave (km/s) = 3.44058 3.57618 3.50903
# Velocity P-wave (km/s) = 7.13573 7.48234 7.31109
#
# Compressibility (1/GPa) = 0.01497712
#
# Stress axis : x y z
#
# Youngs Moduli (GPa) = 82.34329 68.15965 48.96499
#
# Poissons Ratio (x) = 0.31592 0.32593
# Poissons Ratio (y) = 0.38166 0.23696
# Poissons Ratio (z) = 0.54811 0.32985
#
# Static dielectric constant tensor:
#      x y z
#    x 3.618880 0.000000 0.000000 
#    y 0.000000 3.339730 0.000000 
#    z 0.000000 0.000000 3.297890 
# 
# 
# High freq. dielectric constant tensor:
#      x y z
#    x 1.750820 0.000000 0.000000 
#    y 0.000000 1.728240 0.000000 
#    z 0.000000 0.000000 1.730180 
# 
# From -- ./inp_files/49524.got.cif
#   From: 2010.03.12/outbox.cif.g09.slc.cpg/sg65_25_cif.got.tgz:49524.got - 2010.04.10 20:52:16.
