data_PCOD8271363
_publ_section_title
;
Structure prediction by ZEFSAII (Michael W. Deem and Ramdas Pophale) SiO2 
 PCOD8271363
Probable space group: C M M M
;
_chemical_formula_sum "Si O2"
_cell_formula_units_Z 64
_cell_length_a 17.886457
_cell_length_b 8.932967
_cell_length_c 20.652134
_cell_angle_alpha 90.000000
_cell_angle_beta 90.000000
_cell_angle_gamma 90.000000
_cell_volume 3299.780006
_symmetry_space_group_name_H-M "C M M M"
_symmetry_group_IT_number 65
_symmetry_cell_setting 'orthorhombic'
loop_
_space_group_symop_operation_xyz
x,y,z
-x,-y,z
x,-y,-z
-x,y,-z
-x,-y,-z
x,y,-z
-x,y,z
x,-y,z
1/2+x,1/2+y,z
1/2-x,1/2-y,z
1/2+x,1/2-y,-z
1/2-x,1/2+y,-z
1/2-x,1/2-y,-z
1/2+x,1/2+y,-z
1/2-x,1/2+y,z
1/2+x,1/2-y,z
loop_
_atom_site_type_symbol
_atom_site_label
_atom_site_fract_x
_atom_site_fract_y
_atom_site_fract_z
Si Si1 0.669536 0.676876 0.127034
Si Si2 0.584123 0.322085 0.000000
Si Si3 0.584124 0.178384 0.500000
Si Si4 0.587639 0.827958 0.757057
Si Si5 0.829897 0.324049 0.373908
O O1 0.679325 0.500000 0.125126
O O2 0.750000 0.750000 0.131500
O O3 0.620980 0.720793 0.188724
O O4 0.627506 0.737052 0.063115
O O5 0.580678 0.500000 0.000000
O O6 0.500000 0.255985 0.000000
O O7 0.500000 0.243074 0.500000
O O8 0.627101 0.238766 0.436763
O O9 0.581191 0.000000 0.500000
O O10 0.500000 0.800735 0.752943
O O11 0.621910 0.780736 0.688545
O O12 0.606812 0.000000 0.773818
O O13 0.818491 0.500000 0.379803
O O14 0.750000 0.250000 0.367842
#
# Coordination Sequence:
#
# PCOD8271363 Si02
#       5
#    16   8   8  16  16
#     4  11  22  37  58  82 110 144 181 221 267 319
#     4   9  19  36  57  81 108 139 178 223 268 316
#     4   9  17  32  55  79 102 135 180 222 262 313
#     4  10  21  37  56  80 110 142 179 224 271 320
#     4  10  20  34  54  79 107 140 177 219 266 316
#
# _framework density 19.395232
#
# number of rings (size 3 to 8) (size 9 to 14) (size 15 to 20)
#    0.000    2.000    0.000    3.750    0.000    7.500 
#    0.000    1.875    0.000    7.500    0.000    0.000 
#    0.000    0.000    0.000    0.000    0.000    0.000 
#
# Total GULP energy -396923.677990 kJ/mol
# GULP energy per Si atom -12403.864937 kJ/mol
# Density = 1.935109 g / cm^3
# Si number density = 19.395232 Si / 1000 Ang^3
#
#
#
# Elastic Constant Matrix: (Units=GPa)
#
#
# Indices 1 2 3 4 5 6 
#
# 1 159.3525 36.8408 79.0580 0.0000 0.0000 0.0000
# 2 36.8408 39.9645 43.2796 0.0000 0.0000 0.0000
# 3 79.0580 43.2796 174.3289 0.0000 0.0000 0.0000
# 4 0.0000 0.0000 0.0000 24.4554 0.0000 0.0000
# 5 0.0000 0.0000 0.0000 0.0000 46.1976 0.0000
# 6 0.0000 0.0000 0.0000 0.0000 0.0000 20.0216
#
#
#
# Elastic Compliance Matrix: (Units=1/GPa)
#
#
# Indices 1 2 3 4 5 6 
#
# 1 0.008822 -0.005197 -0.002710 0.000000 0.000000 0.000000
# 2 -0.005197 0.037285 -0.006900 0.000000 0.000000 0.000000
# 3 -0.002710 -0.006900 0.008678 0.000000 0.000000 0.000000
# 4 0.000000 0.000000 0.000000 0.040891 0.000000 0.000000
# 5 0.000000 0.000000 0.000000 0.000000 0.021646 0.000000
# 6 0.000000 0.000000 0.000000 0.000000 0.000000 0.049946
#
#
# Mechanical properties :
#
#
# Convention : Reuss Voigt Hill
#
# Bulk Modulus (GPa) = 39.72837 76.88918 58.30877
# Shear Modulus (GPa) = 24.35795 32.43276 28.39535
#
# Velocity S-wave (km/s) = 3.54767 4.09369 3.83043
# Velocity P-wave (km/s) = 6.10814 7.87870 7.04923
#
# Compressibility (1/GPa) = 0.02517093
#
# Stress axis : x y z
#
# Youngs Moduli (GPa) = 113.35912 26.82054 115.22876
#
# Poissons Ratio (x) = 0.13938 0.31231
# Poissons Ratio (y) = 0.58911 0.79505
# Poissons Ratio (z) = 0.30725 0.18505
#
# Static dielectric constant tensor:
#      x y z
#    x 3.696900 0.000000 0.000000 
#    y 0.000000 3.272710 0.000000 
#    z 0.000000 0.000000 3.485740 
# 
# 
# High freq. dielectric constant tensor:
#      x y z
#    x 1.775410 0.000000 0.000000 
#    y 0.000000 1.723860 0.000000 
#    z 0.000000 0.000000 1.775050 
# 
# From -- ./inp_files/58776.got.cif
#   From: 2010.03.12/outbox.cif.g09.slc.cpg/sg65_30_cif.got.tgz:58776.got - 2010.04.10 20:52:16.
