data_PCOD8271484
_publ_section_title
;
Structure prediction by ZEFSAII (Michael W. Deem and Ramdas Pophale) SiO2 
 PCOD8271484
Probable space group: C M M M
;
_chemical_formula_sum "Si O2"
_cell_formula_units_Z 84
_cell_length_a 15.191335
_cell_length_b 23.481033
_cell_length_c 11.538924
_cell_angle_alpha 90.000000
_cell_angle_beta 90.000000
_cell_angle_gamma 90.000000
_cell_volume 4116.029254
_symmetry_space_group_name_H-M "C M M M"
_symmetry_group_IT_number 65
_symmetry_cell_setting 'orthorhombic'
loop_
_space_group_symop_operation_xyz
x,y,z
-x,-y,z
x,-y,-z
-x,y,-z
-x,-y,-z
x,y,-z
-x,y,z
x,-y,z
1/2+x,1/2+y,z
1/2-x,1/2-y,z
1/2+x,1/2-y,-z
1/2-x,1/2+y,-z
1/2-x,1/2-y,-z
1/2+x,1/2+y,-z
1/2-x,1/2+y,z
1/2+x,1/2-y,z
loop_
_atom_site_type_symbol
_atom_site_label
_atom_site_fract_x
_atom_site_fract_y
_atom_site_fract_z
Si Si1 0.000000 0.315083 0.760746
Si Si2 0.000000 0.703902 0.500000
Si Si3 0.810812 0.564330 0.368771
Si Si4 0.337619 0.285101 0.500000
Si Si5 0.500000 0.063229 0.264892
Si Si6 0.149397 0.236576 0.865717
Si Si7 0.000000 0.933130 0.630920
Si Si8 0.158992 0.865922 0.716444
O O1 0.000000 0.379645 0.817518
O O2 0.086440 0.279542 0.795607
O O3 0.000000 0.330191 0.622404
O O4 0.085050 0.741297 0.500000
O O5 0.794119 0.586185 0.500000
O O6 0.776104 0.500000 0.356005
O O7 0.754866 0.603838 0.280787
O O8 0.913803 0.567315 0.343990
O O9 0.250000 0.250000 0.500000
O O10 0.345657 0.321824 0.386447
O O11 0.500000 0.000000 0.201265
O O12 0.250000 0.250000 0.835156
O O13 0.136843 0.170160 0.832047
O O14 0.126815 0.244142 0.000000
O O15 0.914262 0.913883 0.700613
O O16 0.000000 0.907805 0.500000
O O17 0.000000 0.000000 0.625554
#
# Coordination Sequence:
#
# PCOD8271484 Si02
#       8
#     8   4  16   8   8  16   8  16
#     4  12  24  39  63  91 123 162 200 245 303 367
#     4  12  26  36  57  92 133 160 196 238 304 372
#     4  10  20  34  54  84 122 165 202 237 288 356
#     4  12  24  36  54  89 130 163 196 249 305 372
#     4  10  23  38  55  82 124 164 198 237 289 360
#     4  11  25  44  64  88 119 161 210 256 306 363
#     4  11  22  37  59  90 125 163 201 239 294 368
#     4  12  21  37  60  86 122 157 200 250 304 361
#
# _framework density 20.408018999999999
#
# number of rings (size 3 to 8) (size 9 to 14) (size 15 to 20)
#    0.000    0.857    3.810    4.000    4.000    2.667 
#    0.000    0.000    0.000    4.000    0.000   10.667 
#    0.000    0.000    0.000    0.000    0.000    0.000 
#
# Total GULP energy -520616.332003 kJ/mol
# GULP energy per Si atom -12395.626952 kJ/mol
# Density = 2.036157 g / cm^3
# Si number density = 20.408019 Si / 1000 Ang^3
#
#
#
# Elastic Constant Matrix: (Units=GPa)
#
#
# Indices 1 2 3 4 5 6 
#
# 1 129.5612 54.3702 25.3870 0.0000 0.0000 0.0000
# 2 54.3702 126.6009 29.4781 0.0000 0.0000 0.0000
# 3 25.3870 29.4781 67.8464 0.0000 0.0000 0.0000
# 4 0.0000 0.0000 0.0000 20.2958 0.0000 0.0000
# 5 0.0000 0.0000 0.0000 0.0000 11.5902 0.0000
# 6 0.0000 0.0000 0.0000 0.0000 0.0000 47.2544
#
#
#
# Elastic Compliance Matrix: (Units=1/GPa)
#
#
# Indices 1 2 3 4 5 6 
#
# 1 0.009657 -0.003678 -0.002015 0.000000 0.000000 0.000000
# 2 -0.003678 0.010189 -0.003051 0.000000 0.000000 0.000000
# 3 -0.002015 -0.003051 0.016819 0.000000 0.000000 0.000000
# 4 0.000000 0.000000 0.000000 0.049271 0.000000 0.000000
# 5 0.000000 0.000000 0.000000 0.000000 0.086280 0.000000
# 6 0.000000 0.000000 0.000000 0.000000 0.000000 0.021162
#
#
# Mechanical properties :
#
#
# Convention : Reuss Voigt Hill
#
# Bulk Modulus (GPa) = 52.14763 60.27544 56.21154
# Shear Modulus (GPa) = 23.01421 30.14628 26.58025
#
# Velocity S-wave (km/s) = 3.36177 3.84758 3.61285
# Velocity P-wave (km/s) = 6.37783 7.02408 6.70874
#
# Compressibility (1/GPa) = 0.01917633
#
# Stress axis : x y z
#
# Youngs Moduli (GPa) = 103.55506 98.14825 59.45749
#
# Poissons Ratio (x) = 0.36098 0.11983
# Poissons Ratio (y) = 0.38087 0.18138
# Poissons Ratio (z) = 0.20870 0.29941
#
# Static dielectric constant tensor:
#      x y z
#    x 2.258400 0.000000 0.000000 
#    y 0.000000 4.072700 0.000000 
#    z 0.000000 0.000000 3.287180 
# 
# 
# High freq. dielectric constant tensor:
#      x y z
#    x 1.821400 0.000000 0.000000 
#    y 0.000000 1.816640 0.000000 
#    z 0.000000 0.000000 1.748420 
# 
# From -- ./inp_files/24907.got.cif
#   From: 2010.03.12/outbox.cif.g09.slc.cpg/sg65_13_cif.got.tgz:24907.got - 2010.04.10 20:52:16.
