data_PCOD8271100
_publ_section_title
;
Structure prediction by ZEFSAII (Michael W. Deem and Ramdas Pophale) SiO2 
 PCOD8271100
Probable space group: C M M M
;
_chemical_formula_sum "Si O2"
_cell_formula_units_Z 96
_cell_length_a 25.400946
_cell_length_b 23.327125
_cell_length_c 9.193215
_cell_angle_alpha 90.000000
_cell_angle_beta 90.000000
_cell_angle_gamma 90.000000
_cell_volume 5447.265268
_symmetry_space_group_name_H-M "C M M M"
_symmetry_group_IT_number 65
_symmetry_cell_setting 'orthorhombic'
loop_
_space_group_symop_operation_xyz
x,y,z
-x,-y,z
x,-y,-z
-x,y,-z
-x,-y,-z
x,y,-z
-x,y,z
x,-y,z
1/2+x,1/2+y,z
1/2-x,1/2-y,z
1/2+x,1/2-y,-z
1/2-x,1/2+y,-z
1/2-x,1/2-y,-z
1/2+x,1/2+y,-z
1/2-x,1/2+y,z
1/2+x,1/2-y,z
loop_
_atom_site_type_symbol
_atom_site_label
_atom_site_fract_x
_atom_site_fract_y
_atom_site_fract_z
Si Si1 0.755886 0.932938 0.167753
Si Si2 0.149313 0.373370 0.168240
Si Si3 0.844058 0.862571 0.326759
Si Si4 0.689298 0.748008 0.169574
Si Si5 0.058379 0.064117 0.672673
Si Si6 0.059619 0.564483 0.670944
O O1 0.697291 0.914621 0.213578
O O2 0.795756 0.900190 0.271142
O O3 0.762741 0.000000 0.193218
O O4 0.766386 0.915360 0.000000
O O5 0.163153 0.308330 0.207178
O O6 0.097560 0.389963 0.255313
O O7 0.136348 0.380771 0.000000
O O8 0.841720 0.859541 0.500000
O O9 0.841836 0.799084 0.261906
O O10 0.898124 0.891486 0.269123
O O11 0.750000 0.750000 0.218130
O O12 0.685121 0.732346 0.000000
O O13 0.059773 0.062943 0.500000
O O14 0.000000 0.083092 0.726258
O O15 0.071092 0.000000 0.731274
O O16 0.067521 0.568425 0.500000
O O17 0.072581 0.500000 0.724730
O O18 0.000000 0.580536 0.713882
#
# Coordination Sequence:
#
# PCOD8271100 Si02
#       6
#    16  16  16  16  16  16
#     4  10  20  34  52  75 106 141 173 211 266 324
#     4  10  20  35  56  78 100 135 183 224 256 305
#     4  11  21  32  52  81 108 133 173 223 266 312
#     4  10  20  38  57  71 100 145 182 214 259 313
#     4   8  15  30  51  74 103 138 171 206 254 309
#     4   9  19  36  56  79 110 144 172 208 267 325
#
# _framework density 17.623522000000001
#
# number of rings (size 3 to 8) (size 9 to 14) (size 15 to 20)
#    0.000    2.333    1.667    2.500    0.000    4.000 
#    0.000    1.667    0.000    5.000    0.000    5.833 
#    0.000    0.000    0.000    0.000    0.000    0.000 
#
# Total GULP energy -595227.308446 kJ/mol
# GULP energy per Si atom -12400.568926 kJ/mol
# Density = 1.758341 g / cm^3
# Si number density = 17.623522 Si / 1000 Ang^3
#
#
#
# Elastic Constant Matrix: (Units=GPa)
#
#
# Indices 1 2 3 4 5 6 
#
# 1 125.8665 64.6808 44.8164 0.0000 0.0000 0.0000
# 2 64.6808 100.6980 40.3614 0.0000 0.0000 0.0000
# 3 44.8164 40.3614 47.2346 0.0000 0.0000 0.0000
# 4 0.0000 0.0000 0.0000 29.2120 0.0000 0.0000
# 5 0.0000 0.0000 0.0000 0.0000 20.4009 0.0000
# 6 0.0000 0.0000 0.0000 0.0000 0.0000 21.9819
#
#
#
# Elastic Compliance Matrix: (Units=1/GPa)
#
#
# Indices 1 2 3 4 5 6 
#
# 1 0.013731 -0.005472 -0.008352 0.000000 0.000000 0.000000
# 2 -0.005472 0.017284 -0.009577 0.000000 0.000000 0.000000
# 3 -0.008352 -0.009577 0.037279 0.000000 0.000000 0.000000
# 4 0.000000 0.000000 0.000000 0.034233 0.000000 0.000000
# 5 0.000000 0.000000 0.000000 0.000000 0.049018 0.000000
# 6 0.000000 0.000000 0.000000 0.000000 0.000000 0.045492
#
#
# Mechanical properties :
#
#
# Convention : Reuss Voigt Hill
#
# Bulk Modulus (GPa) = 46.53032 63.72403 55.12718
# Shear Modulus (GPa) = 19.92010 22.58164 21.25087
#
# Velocity S-wave (km/s) = 3.36566 3.58346 3.47627
# Velocity P-wave (km/s) = 6.44696 7.30470 6.88919
#
# Compressibility (1/GPa) = 0.02149136
#
# Stress axis : x y z
#
# Youngs Moduli (GPa) = 72.82941 57.85628 26.82461
#
# Poissons Ratio (x) = 0.31659 0.22404
# Poissons Ratio (y) = 0.39852 0.25691
# Poissons Ratio (z) = 0.60828 0.55411
#
# Static dielectric constant tensor:
#      x y z
#    x 3.463180 0.000000 0.000000 
#    y 0.000000 3.416700 0.000000 
#    z 0.000000 0.000000 3.064350 
# 
# 
# High freq. dielectric constant tensor:
#      x y z
#    x 1.684440 0.000000 0.000000 
#    y 0.000000 1.686270 0.000000 
#    z 0.000000 0.000000 1.662100 
# 
# From -- ./inp_files/14315.got.cif
#   From: 2010.03.12/outbox.cif.g09.slc.cpg/sg65_8_cif.got.tgz:14315.got - 2010.04.10 20:52:16.
