data_PCOD8271234
_publ_section_title
;
Structure prediction by ZEFSAII (Michael W. Deem and Ramdas Pophale) SiO2 
 PCOD8271234
Probable space group: C M M M
;
_chemical_formula_sum "Si O2"
_cell_formula_units_Z 88
_cell_length_a 24.395570
_cell_length_b 20.332681
_cell_length_c 8.739500
_cell_angle_alpha 90.000000
_cell_angle_beta 90.000000
_cell_angle_gamma 90.000000
_cell_volume 4335.030961
_symmetry_space_group_name_H-M "C M M M"
_symmetry_group_IT_number 65
_symmetry_cell_setting 'orthorhombic'
loop_
_space_group_symop_operation_xyz
x,y,z
-x,-y,z
x,-y,-z
-x,y,-z
-x,-y,-z
x,y,-z
-x,y,z
x,-y,z
1/2+x,1/2+y,z
1/2-x,1/2-y,z
1/2+x,1/2-y,-z
1/2-x,1/2+y,-z
1/2-x,1/2-y,-z
1/2+x,1/2+y,-z
1/2-x,1/2+y,z
1/2+x,1/2-y,z
loop_
_atom_site_type_symbol
_atom_site_label
_atom_site_fract_x
_atom_site_fract_y
_atom_site_fract_z
Si Si1 0.439429 0.366164 0.674908
Si Si2 0.873139 0.621463 0.677137
Si Si3 0.671028 0.428631 0.680021
Si Si4 0.256937 0.175528 0.682248
Si Si5 0.937477 0.270154 0.829315
Si Si6 0.936838 0.500000 0.180603
O O1 0.432014 0.341775 0.500000
O O2 0.500000 0.397640 0.697512
O O3 0.393199 0.419004 0.717763
O O4 0.431469 0.305599 0.787623
O O5 0.872765 0.601701 0.500000
O O6 0.811956 0.638043 0.736974
O O7 0.906356 0.688171 0.702154
O O8 0.902451 0.563363 0.768630
O O9 0.681151 0.429809 0.500000
O O10 0.688162 0.500000 0.748571
O O11 0.707247 0.369095 0.748230
O O12 0.256609 0.180107 0.500000
O O13 0.250000 0.250000 0.748669
O O14 0.000000 0.293169 0.825521
O O15 0.913385 0.281408 0.000000
O O16 0.000000 0.500000 0.245683
O O17 0.940163 0.500000 0.000000
#
# Coordination Sequence:
#
# PCOD8271234 Si02
#       6
#    16  16  16  16  16   8
#     4   9  17  30  51  80 109 137 177 227 272 317
#     4  11  22  35  58  86 110 141 189 241 282 327
#     4   9  17  29  49  77 110 144 177 222 279 332
#     4   9  18  32  52  81 113 143 181 229 282 337
#     4  10  20  34  53  77 107 144 181 219 274 338
#     4  11  25  43  59  79 115 159 194 229 288 360
#
# _framework density 20.29974
#
# number of rings (size 3 to 8) (size 9 to 14) (size 15 to 20)
#    0.000    2.273    0.000    3.000    1.273    7.273 
#    0.000    1.818    0.000   10.364    0.000    2.545 
#    0.000    0.000    0.000    0.000    0.000    0.000 
#
# Total GULP energy -545360.469557 kJ/mol
# GULP energy per Si atom -12394.556126 kJ/mol
# Density = 2.025354 g / cm^3
# Si number density = 20.299740 Si / 1000 Ang^3
#
#
#
# Elastic Constant Matrix: (Units=GPa)
#
#
# Indices 1 2 3 4 5 6 
#
# 1 145.2390 87.7227 23.5840 0.0000 0.0000 0.0000
# 2 87.7227 134.7461 12.4612 0.0000 0.0000 0.0000
# 3 23.5840 12.4612 35.1519 0.0000 0.0000 0.0000
# 4 0.0000 0.0000 0.0000 13.9353 0.0000 0.0000
# 5 0.0000 0.0000 0.0000 0.0000 11.1815 0.0000
# 6 0.0000 0.0000 0.0000 0.0000 0.0000 34.3498
#
#
#
# Elastic Compliance Matrix: (Units=1/GPa)
#
#
# Indices 1 2 3 4 5 6 
#
# 1 0.012332 -0.007509 -0.005612 0.000000 0.000000 0.000000
# 2 -0.007509 0.012246 0.000697 0.000000 0.000000 0.000000
# 3 -0.005612 0.000697 0.031966 0.000000 0.000000 0.000000
# 4 0.000000 0.000000 0.000000 0.071760 0.000000 0.000000
# 5 0.000000 0.000000 0.000000 0.000000 0.089433 0.000000
# 6 0.000000 0.000000 0.000000 0.000000 0.000000 0.029112
#
#
# Mechanical properties :
#
#
# Convention : Reuss Voigt Hill
#
# Bulk Modulus (GPa) = 31.55013 62.51919 47.03466
# Shear Modulus (GPa) = 17.71400 24.65126 21.18263
#
# Velocity S-wave (km/s) = 2.95722 3.48855 3.23382
# Velocity P-wave (km/s) = 5.21882 6.86233 6.09621
#
# Compressibility (1/GPa) = 0.03169559
#
# Stress axis : x y z
#
# Youngs Moduli (GPa) = 81.08931 81.66113 31.28338
#
# Poissons Ratio (x) = 0.61323 0.17555
# Poissons Ratio (y) = 0.60894 -0.02181
# Poissons Ratio (z) = 0.45505 -0.05693
#
# Static dielectric constant tensor:
#      x y z
#    x 3.994340 0.000000 0.000000 
#    y 0.000000 3.790790 0.000000 
#    z 0.000000 0.000000 3.302810 
# 
# 
# High freq. dielectric constant tensor:
#      x y z
#    x 1.805610 0.000000 0.000000 
#    y 0.000000 1.794570 0.000000 
#    z 0.000000 0.000000 1.748040 
# 
# From -- ./inp_files/11744.got.cif
#   From: 2010.03.12/outbox.cif.g09.slc.cpg/sg65_6_cif.got.tgz:11744.got - 2010.04.10 20:52:16.
