data_PCOD8271986
_publ_section_title
;
Structure prediction by ZEFSAII (Michael W. Deem and Ramdas Pophale) SiO2 
 PCOD8271986
Probable space group: C M M M
;
_chemical_formula_sum "Si O2"
_cell_formula_units_Z 104
_cell_length_a 20.959211
_cell_length_b 27.453746
_cell_length_c 9.305466
_cell_angle_alpha 90.000000
_cell_angle_beta 90.000000
_cell_angle_gamma 90.000000
_cell_volume 5354.447538
_symmetry_space_group_name_H-M "C M M M"
_symmetry_group_IT_number 65
_symmetry_cell_setting 'orthorhombic'
loop_
_space_group_symop_operation_xyz
x,y,z
-x,-y,z
x,-y,-z
-x,y,-z
-x,-y,-z
x,y,-z
-x,y,z
x,-y,z
1/2+x,1/2+y,z
1/2-x,1/2-y,z
1/2+x,1/2-y,-z
1/2-x,1/2+y,-z
1/2-x,1/2-y,-z
1/2+x,1/2+y,-z
1/2-x,1/2+y,z
1/2+x,1/2-y,z
loop_
_atom_site_type_symbol
_atom_site_label
_atom_site_fract_x
_atom_site_fract_y
_atom_site_fract_z
Si Si1 0.068732 0.058093 0.838601
Si Si2 0.318250 0.446538 0.661732
Si Si3 0.096581 0.628734 0.830905
Si Si4 0.500000 0.941403 0.327678
Si Si5 0.929366 0.738693 0.834165
Si Si6 0.189889 0.219033 0.666291
Si Si7 0.776621 0.368106 0.338449
O O1 0.126024 0.081530 0.747809
O O2 0.000000 0.076611 0.780451
O O3 0.070451 0.000000 0.828633
O O4 0.078015 0.076242 0.000000
O O5 0.343104 0.448265 0.500000
O O6 0.307909 0.500000 0.726699
O O7 0.249011 0.422648 0.672587
O O8 0.061820 0.585403 0.741872
O O9 0.065313 0.681027 0.800246
O O10 0.168983 0.636313 0.779438
O O11 0.094321 0.615286 0.000000
O O12 0.500000 0.933687 0.500000
O O13 0.500000 0.000000 0.292968
O O14 0.875269 0.767348 0.746746
O O15 0.000000 0.760185 0.798474
O O16 0.911938 0.746284 0.000000
O O17 0.176423 0.230122 0.500000
O O18 0.250000 0.250000 0.723319
O O19 0.213258 0.163995 0.693770
O O20 0.802652 0.356125 0.500000
#
# Coordination Sequence:
#
# PCOD8271986 Si02
#       7
#    16  16  16   8  16  16  16
#     4   8  14  26  45  68  93 123 163 212 261 311
#     4   9  18  32  50  72 101 140 181 224 275 330
#     4  11  22  38  61  88 116 150 195 242 293 352
#     4  11  25  43  63  89 123 163 205 249 300 355
#     4  10  21  38  59  86 119 152 190 240 299 363
#     4  10  20  35  57  85 112 147 195 243 295 357
#     4  10  21  37  55  81 117 150 190 242 291 350
#
# _framework density 19.423105
#
# number of rings (size 3 to 8) (size 9 to 14) (size 15 to 20)
#    0.000    2.231    2.308    1.154    0.000    4.000 
#    0.000    3.846    0.000    4.615    0.000    0.000 
#    0.000    0.000    0.000    0.000    0.000    0.000 
#
# Total GULP energy -644257.948199 kJ/mol
# GULP energy per Si atom -12389.575927 kJ/mol
# Density = 1.937890 g / cm^3
# Si number density = 19.423105 Si / 1000 Ang^3
#
#
#
# Elastic Constant Matrix: (Units=GPa)
#
#
# Indices 1 2 3 4 5 6 
#
# 1 133.0138 38.7927 61.6344 0.0000 0.0000 0.0000
# 2 38.7927 60.2435 33.7248 0.0000 0.0000 0.0000
# 3 61.6344 33.7248 84.6853 0.0000 0.0000 0.0000
# 4 0.0000 0.0000 0.0000 22.7937 0.0000 0.0000
# 5 0.0000 0.0000 0.0000 0.0000 44.8711 0.0000
# 6 0.0000 0.0000 0.0000 0.0000 0.0000 24.1975
#
#
#
# Elastic Compliance Matrix: (Units=1/GPa)
#
#
# Indices 1 2 3 4 5 6 
#
# 1 0.011930 -0.003631 -0.007237 0.000000 0.000000 0.000000
# 2 -0.003631 0.022467 -0.006304 0.000000 0.000000 0.000000
# 3 -0.007237 -0.006304 0.019586 0.000000 0.000000 0.000000
# 4 0.000000 0.000000 0.000000 0.043872 0.000000 0.000000
# 5 0.000000 0.000000 0.000000 0.000000 0.022286 0.000000
# 6 0.000000 0.000000 0.000000 0.000000 0.000000 0.041327
#
#
# Mechanical properties :
#
#
# Convention : Reuss Voigt Hill
#
# Bulk Modulus (GPa) = 50.92051 60.69405 55.80728
# Shear Modulus (GPa) = 24.70860 27.95849 26.33354
#
# Velocity S-wave (km/s) = 3.57055 3.79812 3.68609
# Velocity P-wave (km/s) = 6.57813 7.10989 6.84917
#
# Compressibility (1/GPa) = 0.01963845
#
# Stress axis : x y z
#
# Youngs Moduli (GPa) = 83.81964 44.51033 51.05641
#
# Poissons Ratio (x) = 0.16162 0.36949
# Poissons Ratio (y) = 0.30435 0.32188
# Poissons Ratio (z) = 0.60660 0.28061
#
# Static dielectric constant tensor:
#      x y z
#    x 3.723490 0.000000 0.000000 
#    y 0.000000 3.538440 0.000000 
#    z 0.000000 0.000000 3.531300 
# 
# 
# High freq. dielectric constant tensor:
#      x y z
#    x 1.762910 0.000000 0.000000 
#    y 0.000000 1.739920 0.000000 
#    z 0.000000 0.000000 1.749150 
# 
# From -- ./inp_files/12401.got.cif
#   From: 2010.03.12/outbox.cif.g09.slc.cpg/sg65_7_cif.got.tgz:12401.got - 2010.04.10 20:52:16.
