data_PCOD8271251
_publ_section_title
;
Structure prediction by ZEFSAII (Michael W. Deem and Ramdas Pophale) SiO2 
 PCOD8271251
Probable space group: C M M M
;
_chemical_formula_sum "Si O2"
_cell_formula_units_Z 80
_cell_length_a 8.989385
_cell_length_b 19.638065
_cell_length_c 25.262098
_cell_angle_alpha 90.000000
_cell_angle_beta 90.000000
_cell_angle_gamma 90.000000
_cell_volume 4459.622415
_symmetry_space_group_name_H-M "C M M M"
_symmetry_group_IT_number 65
_symmetry_cell_setting 'orthorhombic'
loop_
_space_group_symop_operation_xyz
x,y,z
-x,-y,z
x,-y,-z
-x,y,-z
-x,-y,-z
x,y,-z
-x,y,z
x,-y,z
1/2+x,1/2+y,z
1/2-x,1/2-y,z
1/2+x,1/2-y,-z
1/2-x,1/2+y,-z
1/2-x,1/2-y,-z
1/2+x,1/2+y,-z
1/2-x,1/2+y,z
1/2+x,1/2-y,z
loop_
_atom_site_type_symbol
_atom_site_label
_atom_site_fract_x
_atom_site_fract_y
_atom_site_fract_z
Si Si1 0.324988 0.422520 0.395148
Si Si2 0.832015 0.080825 0.000000
Si Si3 0.168027 0.419011 0.500000
Si Si4 0.326247 0.318606 0.692851
Si Si5 0.824047 0.179512 0.814015
Si Si6 0.826748 0.419800 0.106210
O O1 0.500000 0.417686 0.404047
O O2 0.274101 0.500000 0.385138
O O3 0.248442 0.391192 0.447407
O O4 0.271845 0.380392 0.344014
O O5 0.744682 0.107016 0.948447
O O6 0.000000 0.110196 0.000000
O O7 0.835156 0.000000 0.000000
O O8 0.178102 0.500000 0.500000
O O9 0.000000 0.392233 0.500000
O O10 0.500000 0.306967 0.687590
O O11 0.250000 0.250000 0.672620
O O12 0.281879 0.335202 0.753122
O O13 0.750000 0.250000 0.833116
O O14 0.756184 0.116944 0.846003
O O15 0.000000 0.183733 0.823232
O O16 0.801394 0.500000 0.113512
O O17 0.000000 0.400951 0.105985
#
# Coordination Sequence:
#
# PCOD8271251 Si02
#       6
#    16   8   8  16  16  16
#     4   9  17  31  51  73  97 127 163 201 242 290
#     4   9  17  31  52  77 104 135 170 207 251 301
#     4   9  17  29  46  71 100 127 157 197 246 293
#     4   9  19  34  52  73  98 130 165 203 247 295
#     4  10  20  35  54  75 102 136 172 210 254 303
#     4  10  20  34  53  78 107 137 170 209 252 299
#
# _framework density 17.938739000000002
#
# number of rings (size 3 to 8) (size 9 to 14) (size 15 to 20)
#    0.000    2.600    0.000    1.800    0.000    6.000 
#    0.000    3.000    0.000    2.400    0.000    0.000 
#    0.000    0.000    0.000    0.000    0.000    0.000 
#
# Total GULP energy -496054.459338 kJ/mol
# GULP energy per Si atom -12401.361483 kJ/mol
# Density = 1.789791 g / cm^3
# Si number density = 17.938739 Si / 1000 Ang^3
#
#
#
# Elastic Constant Matrix: (Units=GPa)
#
#
# Indices 1 2 3 4 5 6 
#
# 1 89.4432 43.2856 57.0031 0.0000 0.0000 0.0000
# 2 43.2856 72.9406 64.6214 0.0000 0.0000 0.0000
# 3 57.0031 64.6214 127.8165 0.0000 0.0000 0.0000
# 4 0.0000 0.0000 0.0000 10.1462 0.0000 0.0000
# 5 0.0000 0.0000 0.0000 0.0000 27.5597 0.0000
# 6 0.0000 0.0000 0.0000 0.0000 0.0000 28.0268
#
#
#
# Elastic Compliance Matrix: (Units=1/GPa)
#
#
# Indices 1 2 3 4 5 6 
#
# 1 0.017000 -0.006107 -0.004494 0.000000 0.000000 0.000000
# 2 -0.006107 0.027027 -0.010941 0.000000 0.000000 0.000000
# 3 -0.004494 -0.010941 0.015359 0.000000 0.000000 0.000000
# 4 0.000000 0.000000 0.000000 0.098559 0.000000 0.000000
# 5 0.000000 0.000000 0.000000 0.000000 0.036285 0.000000
# 6 0.000000 0.000000 0.000000 0.000000 0.000000 0.035680
#
#
# Mechanical properties :
#
#
# Convention : Reuss Voigt Hill
#
# Bulk Modulus (GPa) = 61.33928 68.89116 65.11522
# Shear Modulus (GPa) = 17.95806 21.49922 19.72864
#
# Velocity S-wave (km/s) = 3.16741 3.46566 3.31989
# Velocity P-wave (km/s) = 6.90251 7.38250 7.14654
#
# Compressibility (1/GPa) = 0.01630277
#
# Stress axis : x y z
#
# Youngs Moduli (GPa) = 58.82454 37.00072 65.10735
#
# Poissons Ratio (x) = 0.22596 0.29259
# Poissons Ratio (y) = 0.35923 0.71231
# Poissons Ratio (z) = 0.26436 0.40481
#
# Static dielectric constant tensor:
#      x y z
#    x 3.389380 0.000000 0.000000 
#    y 0.000000 3.161740 0.000000 
#    z 0.000000 0.000000 3.506910 
# 
# 
# High freq. dielectric constant tensor:
#      x y z
#    x 1.702410 0.000000 0.000000 
#    y 0.000000 1.668980 0.000000 
#    z 0.000000 0.000000 1.702700 
# 
# From -- ./inp_files/67350.got.cif
#   From: 2010.03.12/outbox.cif.g09.slc.cpg/sg65_34_cif.got.tgz:67350.got - 2010.04.10 20:52:16.
