data_PCOD8271651
_publ_section_title
;
Structure prediction by ZEFSAII (Michael W. Deem and Ramdas Pophale) SiO2 
 PCOD8271651
Probable space group: C M M M
;
_chemical_formula_sum "Si O2"
_cell_formula_units_Z 104
_cell_length_a 23.941554
_cell_length_b 28.076899
_cell_length_c 9.019206
_cell_angle_alpha 90.000000
_cell_angle_beta 90.000000
_cell_angle_gamma 90.000000
_cell_volume 6062.751703
_symmetry_space_group_name_H-M "C M M M"
_symmetry_group_IT_number 65
_symmetry_cell_setting 'orthorhombic'
loop_
_space_group_symop_operation_xyz
x,y,z
-x,-y,z
x,-y,-z
-x,y,-z
-x,-y,-z
x,y,-z
-x,y,z
x,-y,z
1/2+x,1/2+y,z
1/2-x,1/2-y,z
1/2+x,1/2-y,-z
1/2-x,1/2+y,-z
1/2-x,1/2-y,-z
1/2+x,1/2+y,-z
1/2-x,1/2+y,z
1/2+x,1/2-y,z
loop_
_atom_site_type_symbol
_atom_site_label
_atom_site_fract_x
_atom_site_fract_y
_atom_site_fract_z
Si Si1 0.849172 0.444831 0.828209
Si Si2 0.933869 0.000000 0.329860
Si Si3 0.566394 0.772862 0.335773
Si Si4 0.064947 0.621661 0.673623
Si Si5 0.235382 0.055776 0.672128
Si Si6 0.562952 0.319384 0.174253
Si Si7 0.626505 0.413423 0.823738
O O1 0.862474 0.500000 0.800274
O O2 0.902180 0.415859 0.772225
O O3 0.795097 0.428863 0.735742
O O4 0.837849 0.434195 0.000000
O O5 0.911606 0.046378 0.248278
O O6 0.912621 0.000000 0.500000
O O7 0.000000 0.000000 0.320798
O O8 0.589960 0.763598 0.500000
O O9 0.500000 0.773167 0.337999
O O10 0.585580 0.825141 0.280308
O O11 0.589050 0.730200 0.233303
O O12 0.076284 0.612897 0.500000
O O13 0.000000 0.614685 0.710256
O O14 0.232851 0.069436 0.500000
O O15 0.189075 0.084832 0.762110
O O16 0.224036 0.000000 0.697773
O O17 0.500000 0.327315 0.235850
O O18 0.601265 0.362913 0.226469
O O19 0.561712 0.315699 0.000000
O O20 0.626505 0.420171 0.000000
#
# Coordination Sequence:
#
# PCOD8271651 Si02
#       7
#    16   8  16  16  16  16  16
#     4  10  21  35  52  76 105 135 169 206 247 296
#     4  11  23  35  47  69 101 135 172 213 258 307
#     4   8  15  29  49  72  98 130 167 205 244 292
#     4   9  18  33  53  78 107 137 168 201 245 299
#     4  10  20  35  54  73  96 128 172 215 252 300
#     4   9  18  31  47  71 101 132 167 205 250 304
#     4  11  21  33  51  72  99 133 169 212 259 306
#
# _framework density 17.153926999999999
#
# number of rings (size 3 to 8) (size 9 to 14) (size 15 to 20)
#    0.000    2.385    0.769    3.000    0.000    5.231 
#    0.000    4.615    0.000    0.923    0.000    6.462 
#    0.000    0.000    0.000    0.000    0.000    0.000 
#
# Total GULP energy -644782.174977 kJ/mol
# GULP energy per Si atom -12399.657211 kJ/mol
# Density = 1.711488 g / cm^3
# Si number density = 17.153927 Si / 1000 Ang^3
#
#
#
# Elastic Constant Matrix: (Units=GPa)
#
#
# Indices 1 2 3 4 5 6 
#
# 1 77.5968 54.2065 42.3670 0.0000 0.0000 0.0000
# 2 54.2065 109.4978 51.1683 0.0000 0.0000 0.0000
# 3 42.3670 51.1683 78.1276 0.0000 0.0000 0.0000
# 4 0.0000 0.0000 0.0000 32.0065 0.0000 0.0000
# 5 0.0000 0.0000 0.0000 0.0000 30.0243 0.0000
# 6 0.0000 0.0000 0.0000 0.0000 0.0000 6.6688
#
#
#
# Elastic Compliance Matrix: (Units=1/GPa)
#
#
# Indices 1 2 3 4 5 6 
#
# 1 0.022022 -0.007668 -0.006920 0.000000 0.000000 0.000000
# 2 -0.007668 0.015830 -0.006210 0.000000 0.000000 0.000000
# 3 -0.006920 -0.006210 0.020619 0.000000 0.000000 0.000000
# 4 0.000000 0.000000 0.000000 0.031244 0.000000 0.000000
# 5 0.000000 0.000000 0.000000 0.000000 0.033306 0.000000
# 6 0.000000 0.000000 0.000000 0.000000 0.000000 0.149951
#
#
# Mechanical properties :
#
#
# Convention : Reuss Voigt Hill
#
# Bulk Modulus (GPa) = 59.25566 62.30062 60.77814
# Shear Modulus (GPa) = 15.61555 21.57196 18.59376
#
# Velocity S-wave (km/s) = 3.02042 3.55005 3.29589
# Velocity P-wave (km/s) = 6.83977 7.29391 7.07049
#
# Compressibility (1/GPa) = 0.01687603
#
# Stress axis : x y z
#
# Youngs Moduli (GPa) = 45.40887 63.16934 48.49910
#
# Poissons Ratio (x) = 0.48440 0.33561
# Poissons Ratio (y) = 0.34821 0.30116
# Poissons Ratio (z) = 0.31423 0.39225
#
# Static dielectric constant tensor:
#      x y z
#    x 3.063540 0.000000 0.000000 
#    y 0.000000 3.333600 0.000000 
#    z 0.000000 0.000000 3.283730 
# 
# 
# High freq. dielectric constant tensor:
#      x y z
#    x 1.642550 0.000000 0.000000 
#    y 0.000000 1.659650 0.000000 
#    z 0.000000 0.000000 1.669110 
# 
# From -- ./inp_files/14803.got.cif
#   From: 2010.03.12/outbox.cif.g09.slc.cpg/sg65_8_cif.got.tgz:14803.got - 2010.04.10 20:52:16.
