data_PCOD8271645
_publ_section_title
;
Structure prediction by ZEFSAII (Michael W. Deem and Ramdas Pophale) SiO2 
 PCOD8271645
Probable space group: C M M M
;
_chemical_formula_sum "Si O2"
_cell_formula_units_Z 96
_cell_length_a 27.677158
_cell_length_b 23.499180
_cell_length_c 8.296713
_cell_angle_alpha 90.000000
_cell_angle_beta 90.000000
_cell_angle_gamma 90.000000
_cell_volume 5396.103464
_symmetry_space_group_name_H-M "C M M M"
_symmetry_group_IT_number 65
_symmetry_cell_setting 'orthorhombic'
loop_
_space_group_symop_operation_xyz
x,y,z
-x,-y,z
x,-y,-z
-x,y,-z
-x,-y,-z
x,y,-z
-x,y,z
x,-y,z
1/2+x,1/2+y,z
1/2-x,1/2-y,z
1/2+x,1/2-y,-z
1/2-x,1/2+y,-z
1/2-x,1/2-y,-z
1/2+x,1/2+y,-z
1/2-x,1/2+y,z
1/2+x,1/2-y,z
loop_
_atom_site_type_symbol
_atom_site_label
_atom_site_fract_x
_atom_site_fract_y
_atom_site_fract_z
Si Si1 0.443713 0.863666 0.187219
Si Si2 0.862041 0.721874 0.813780
Si Si3 0.000000 0.932450 0.681240
Si Si4 0.056973 0.436626 0.500000
Si Si5 0.100772 0.065066 0.187667
Si Si6 0.736174 0.815240 0.176797
Si Si7 0.334095 0.660349 0.317209
O O1 0.500000 0.848428 0.205480
O O2 0.413695 0.806275 0.224906
O O3 0.427378 0.907230 0.329436
O O4 0.433811 0.885317 0.000000
O O5 0.817110 0.685154 0.736666
O O6 0.861840 0.788295 0.771030
O O7 0.850040 0.718620 0.000000
O O8 0.952317 0.910118 0.771913
O O9 0.000000 0.908580 0.500000
O O10 0.000000 0.000000 0.684681
O O11 0.079657 0.500000 0.500000
O O12 0.000000 0.440341 0.500000
O O13 0.141165 0.100660 0.278953
O O14 0.105342 0.000000 0.247064
O O15 0.110199 0.070562 0.000000
O O16 0.750000 0.750000 0.159225
O O17 0.777170 0.846963 0.279530
O O18 0.735369 0.844487 0.000000
O O19 0.340246 0.676151 0.500000
#
# Coordination Sequence:
#
# PCOD8271645 Si02
#       7
#    16  16   8   8  16  16  16
#     4   9  18  33  53  78 109 142 174 211 256 306
#     4   9  18  33  52  74 102 138 173 208 255 308
#     4   9  17  31  51  73  97 123 159 211 261 302
#     4   9  18  32  52  78 105 136 173 211 248 294
#     4  10  20  35  54  72  95 133 177 217 258 308
#     4   8  15  30  50  70  96 127 164 209 249 298
#     4  11  21  31  48  76 103 130 169 217 264 311
#
# _framework density 17.790614000000001
#
# number of rings (size 3 to 8) (size 9 to 14) (size 15 to 20)
#    0.000    2.667    0.000    3.250    1.167    5.333 
#    1.500    1.667    0.000    1.000    0.000    2.333 
#    0.000    0.000    0.000    0.000    0.000    0.000 
#
# Total GULP energy -594641.091242 kJ/mol
# GULP energy per Si atom -12388.356068 kJ/mol
# Density = 1.775012 g / cm^3
# Si number density = 17.790614 Si / 1000 Ang^3
#
#
#
# Elastic Constant Matrix: (Units=GPa)
#
#
# Indices 1 2 3 4 5 6 
#
# 1 103.0849 45.2102 27.9967 0.0000 0.0000 0.0000
# 2 45.2102 65.5277 25.6827 0.0000 0.0000 0.0000
# 3 27.9967 25.6827 58.0796 0.0000 0.0000 0.0000
# 4 0.0000 0.0000 0.0000 22.9786 0.0000 0.0000
# 5 0.0000 0.0000 0.0000 0.0000 -20.7231 0.0000
# 6 0.0000 0.0000 0.0000 0.0000 0.0000 21.7036
#
#
#
# Elastic Compliance Matrix: (Units=1/GPa)
#
#
# Indices 1 2 3 4 5 6 
#
# 1 0.014349 -0.008696 -0.003071 0.000000 0.000000 0.000000
# 2 -0.008696 0.023730 -0.006302 0.000000 0.000000 0.000000
# 3 -0.003071 -0.006302 0.021485 0.000000 0.000000 0.000000
# 4 0.000000 0.000000 0.000000 0.043519 0.000000 0.000000
# 5 0.000000 0.000000 0.000000 0.000000 -0.048255 0.000000
# 6 0.000000 0.000000 0.000000 0.000000 0.000000 0.046075
#
#
# Mechanical properties :
#
#
# Convention : Reuss Voigt Hill
#
# Bulk Modulus (GPa) = 42.68780 47.16346 44.92563
# Shear Modulus (GPa) = 34.51872 13.31200 23.91536
#
# Velocity S-wave (km/s) = 4.40964 2.73840 3.67040
# Velocity P-wave (km/s) = 7.06917 6.04701 6.57797
#
# Compressibility (1/GPa) = 0.02342590
#
# Stress axis : x y z
#
# Youngs Moduli (GPa) = 69.69278 42.14028 46.54452
#
# Poissons Ratio (x) = 0.36645 0.14295
# Poissons Ratio (y) = 0.60605 0.29331
# Poissons Ratio (z) = 0.21405 0.26555
#
# Static dielectric constant tensor:
#      x y z
#    x 3.633070 0.000000 0.000000 
#    y 0.000000 3.021570 0.000000 
#    z 0.000000 0.000000 3.442630 
# 
# 
# High freq. dielectric constant tensor:
#      x y z
#    x 1.690500 0.000000 0.000000 
#    y 0.000000 1.644860 0.000000 
#    z 0.000000 0.000000 1.694940 
# 
# From -- ./inp_files/14379.got.cif
#   From: 2010.03.12/outbox.cif.g09.slc.cpg/sg65_8_cif.got.tgz:14379.got - 2010.04.10 20:52:16.
