data_PCOD8271476
_publ_section_title
;
Structure prediction by ZEFSAII (Michael W. Deem and Ramdas Pophale) SiO2 
 PCOD8271476
Probable space group: C M M M
;
_chemical_formula_sum "Si O2"
_cell_formula_units_Z 72
_cell_length_a 14.434222
_cell_length_b 24.582464
_cell_length_c 10.479554
_cell_angle_alpha 90.000000
_cell_angle_beta 90.000000
_cell_angle_gamma 90.000000
_cell_volume 3718.446970
_symmetry_space_group_name_H-M "C M M M"
_symmetry_group_IT_number 65
_symmetry_cell_setting 'orthorhombic'
loop_
_space_group_symop_operation_xyz
x,y,z
-x,-y,z
x,-y,-z
-x,y,-z
-x,-y,-z
x,y,-z
-x,y,z
x,-y,z
1/2+x,1/2+y,z
1/2-x,1/2-y,z
1/2+x,1/2-y,-z
1/2-x,1/2+y,-z
1/2-x,1/2-y,-z
1/2+x,1/2+y,-z
1/2-x,1/2+y,z
1/2+x,1/2-y,z
loop_
_atom_site_type_symbol
_atom_site_label
_atom_site_fract_x
_atom_site_fract_y
_atom_site_fract_z
Si Si1 0.707234 0.615826 0.232557
Si Si2 0.399802 0.865969 0.500000
Si Si3 0.103501 0.936232 0.000000
Si Si4 0.106019 0.784098 0.146263
Si Si5 0.728513 0.435528 0.500000
Si Si6 0.105628 0.665407 0.226692
O O1 0.656703 0.580490 0.126986
O O2 0.667417 0.677236 0.235625
O O3 0.684876 0.589404 0.370499
O O4 0.817261 0.619180 0.194672
O O5 0.500000 0.893643 0.500000
O O6 0.335532 0.918848 0.500000
O O7 0.387324 0.826384 0.379089
O O8 0.000000 0.910121 0.000000
O O9 0.095366 0.000000 0.000000
O O10 0.136045 0.721324 0.159728
O O11 0.000000 0.789761 0.189641
O O12 0.120258 0.802577 0.000000
O O13 0.715971 0.500000 0.500000
O O14 0.000000 0.648141 0.185423
#
# Coordination Sequence:
#
# PCOD8271476 Si02
#       6
#    16   8   8  16   8  16
#     4  11  21  37  61  82 113 150 189 236 281 336
#     4   8  16  34  55  78 112 153 188 221 273 342
#     4  11  24  42  62  81 105 145 194 240 288 337
#     4  10  20  34  54  82 116 152 191 229 273 337
#     4  10  22  38  56  83 111 142 191 245 292 329
#     4   9  19  33  54  86 120 151 182 222 276 338
#
# _framework density 19.362922999999999
#
# number of rings (size 3 to 8) (size 9 to 14) (size 15 to 20)
#    0.000    2.111    1.111    2.000    1.556    2.000 
#    0.000    6.667    0.000    6.667    0.000    0.000 
#    0.000    0.000    0.000    0.000    0.000    0.000 
#
# Total GULP energy -446171.479753 kJ/mol
# GULP energy per Si atom -12393.652215 kJ/mol
# Density = 1.931885 g / cm^3
# Si number density = 19.362923 Si / 1000 Ang^3
#
#
#
# Elastic Constant Matrix: (Units=GPa)
#
#
# Indices 1 2 3 4 5 6 
#
# 1 99.0801 44.3389 58.9367 0.0000 0.0000 0.0000
# 2 44.3389 81.7102 45.8121 0.0000 0.0000 0.0000
# 3 58.9367 45.8121 121.6547 0.0000 0.0000 0.0000
# 4 0.0000 0.0000 0.0000 30.9543 0.0000 0.0000
# 5 0.0000 0.0000 0.0000 0.0000 25.9966 0.0000
# 6 0.0000 0.0000 0.0000 0.0000 0.0000 23.8686
#
#
#
# Elastic Compliance Matrix: (Units=1/GPa)
#
#
# Indices 1 2 3 4 5 6 
#
# 1 0.015893 -0.005460 -0.005643 0.000000 0.000000 0.000000
# 2 -0.005460 0.017390 -0.003903 0.000000 0.000000 0.000000
# 3 -0.005643 -0.003903 0.012424 0.000000 0.000000 0.000000
# 4 0.000000 0.000000 0.000000 0.032306 0.000000 0.000000
# 5 0.000000 0.000000 0.000000 0.000000 0.038467 0.000000
# 6 0.000000 0.000000 0.000000 0.000000 0.000000 0.041896
#
#
# Mechanical properties :
#
#
# Convention : Reuss Voigt Hill
#
# Bulk Modulus (GPa) = 63.72270 66.73561 65.22915
# Shear Modulus (GPa) = 25.82379 26.38773 26.10576
#
# Velocity S-wave (km/s) = 3.65591 3.69561 3.67581
# Velocity P-wave (km/s) = 7.12755 7.26296 7.19557
#
# Compressibility (1/GPa) = 0.01569300
#
# Stress axis : x y z
#
# Youngs Moduli (GPa) = 62.91987 57.50537 80.49004
#
# Poissons Ratio (x) = 0.31399 0.45424
# Poissons Ratio (y) = 0.34355 0.31418
# Poissons Ratio (z) = 0.35509 0.22446
#
# Static dielectric constant tensor:
#      x y z
#    x 3.848680 0.000000 0.000000 
#    y 0.000000 3.295920 0.000000 
#    z 0.000000 0.000000 3.615520 
# 
# 
# High freq. dielectric constant tensor:
#      x y z
#    x 1.765750 0.000000 0.000000 
#    y 0.000000 1.731450 0.000000 
#    z 0.000000 0.000000 1.754070 
# 
# From -- ./inp_files/7370.got.cif
#   From: 2010.03.12/outbox.cif.g09.slc.cpg/sg65_4_cif.got.tgz:7370.got - 2010.04.10 20:52:16.
