data_PCOD8271525
_publ_section_title
;
Structure prediction by ZEFSAII (Michael W. Deem and Ramdas Pophale) SiO2 
 PCOD8271525
Probable space group: C M M M
;
_chemical_formula_sum "Si O2"
_cell_formula_units_Z 104
_cell_length_a 20.305156
_cell_length_b 8.956977
_cell_length_c 29.529065
_cell_angle_alpha 90.000000
_cell_angle_beta 90.000000
_cell_angle_gamma 90.000000
_cell_volume 5370.534184
_symmetry_space_group_name_H-M "C M M M"
_symmetry_group_IT_number 65
_symmetry_cell_setting 'orthorhombic'
loop_
_space_group_symop_operation_xyz
x,y,z
-x,-y,z
x,-y,-z
-x,y,-z
-x,-y,-z
x,y,-z
-x,y,z
x,-y,z
1/2+x,1/2+y,z
1/2-x,1/2-y,z
1/2+x,1/2-y,-z
1/2-x,1/2+y,-z
1/2-x,1/2-y,-z
1/2+x,1/2+y,-z
1/2-x,1/2+y,z
1/2+x,1/2-y,z
loop_
_atom_site_type_symbol
_atom_site_label
_atom_site_fract_x
_atom_site_fract_y
_atom_site_fract_z
Si Si1 0.000000 0.834439 0.553165
Si Si2 0.924871 0.825835 0.295147
Si Si3 0.313542 0.675591 0.635024
Si Si4 0.076569 0.175756 0.113873
Si Si5 0.682970 0.827564 0.053370
Si Si6 0.421890 0.832575 0.204803
Si Si7 0.632492 0.823860 0.448018
O O1 0.937126 0.741367 0.568330
O O2 0.000000 0.856064 0.500000
O O3 0.000000 0.000000 0.576370
O O4 0.878979 0.781667 0.337233
O O5 0.896714 0.741250 0.251189
O O6 0.000000 0.778839 0.306975
O O7 0.920796 0.000000 0.284080
O O8 0.303867 0.500000 0.631089
O O9 0.250000 0.750000 0.659275
O O10 0.315012 0.746586 0.584702
O O11 0.119018 0.250497 0.074542
O O12 0.102605 0.237428 0.161947
O O13 0.000000 0.217361 0.105818
O O14 0.087499 0.000000 0.113088
O O15 0.750000 0.750000 0.070897
O O16 0.685337 0.000000 0.067727
O O17 0.675912 0.807218 0.000000
O O18 0.500000 0.833072 0.205577
O O19 0.393486 0.000000 0.201052
O O20 0.648574 0.780993 0.500000
O O21 0.631975 0.000000 0.441215
#
# Coordination Sequence:
#
# PCOD8271525 Si02
#       7
#     8  16  16  16  16  16  16
#     4   9  17  31  53  81 111 141 175 217 265 315
#     4   9  19  37  60  84 109 141 182 226 275 334
#     4  11  24  40  59  82 113 149 184 227 278 333
#     4  10  20  34  55  83 115 150 188 234 285 336
#     4  10  21  37  56  78 109 150 194 240 288 340
#     4   9  17  31  54  84 114 143 179 227 281 335
#     4  10  21  37  57  82 112 145 183 228 275 324
#
# _framework density 19.364927999999999
#
# number of rings (size 3 to 8) (size 9 to 14) (size 15 to 20)
#    0.000    2.231    0.000    2.538    1.077    7.385 
#    0.000    2.308    0.000    1.846    0.000    0.000 
#    0.000    0.000    0.000    0.000    0.000    0.000 
#
# Total GULP energy -644829.013313 kJ/mol
# GULP energy per Si atom -12400.557948 kJ/mol
# Density = 1.932085 g / cm^3
# Si number density = 19.364928 Si / 1000 Ang^3
#
#
#
# Elastic Constant Matrix: (Units=GPa)
#
#
# Indices 1 2 3 4 5 6 
#
# 1 97.8881 56.0079 49.2239 0.0000 0.0000 0.0000
# 2 56.0079 123.5245 58.1676 0.0000 0.0000 0.0000
# 3 49.2239 58.1676 83.4231 0.0000 0.0000 0.0000
# 4 0.0000 0.0000 0.0000 34.3719 0.0000 0.0000
# 5 0.0000 0.0000 0.0000 0.0000 11.9600 0.0000
# 6 0.0000 0.0000 0.0000 0.0000 0.0000 33.4441
#
#
#
# Elastic Compliance Matrix: (Units=1/GPa)
#
#
# Indices 1 2 3 4 5 6 
#
# 1 0.015829 -0.004137 -0.006455 0.000000 0.000000 0.000000
# 2 -0.004137 0.013134 -0.006717 0.000000 0.000000 0.000000
# 3 -0.006455 -0.006717 0.020479 0.000000 0.000000 0.000000
# 4 0.000000 0.000000 0.000000 0.029094 0.000000 0.000000
# 5 0.000000 0.000000 0.000000 0.000000 0.083612 0.000000
# 6 0.000000 0.000000 0.000000 0.000000 0.000000 0.029901
#
#
# Mechanical properties :
#
#
# Convention : Reuss Voigt Hill
#
# Bulk Modulus (GPa) = 67.45772 70.18161 68.81967
# Shear Modulus (GPa) = 21.58808 25.38429 23.48618
#
# Velocity S-wave (km/s) = 3.34249 3.62448 3.48634
# Velocity P-wave (km/s) = 7.05740 7.33731 7.19872
#
# Compressibility (1/GPa) = 0.01482410
#
# Stress axis : x y z
#
# Youngs Moduli (GPa) = 63.17512 76.13540 48.82981
#
# Poissons Ratio (x) = 0.31501 0.31520
# Poissons Ratio (y) = 0.26138 0.32798
# Poissons Ratio (z) = 0.40780 0.51139
#
# Static dielectric constant tensor:
#      x y z
#    x 3.404300 0.000000 0.000000 
#    y 0.000000 3.674140 0.000000 
#    z 0.000000 0.000000 3.510240 
# 
# 
# High freq. dielectric constant tensor:
#      x y z
#    x 1.738650 0.000000 0.000000 
#    y 0.000000 1.766390 0.000000 
#    z 0.000000 0.000000 1.747880 
# 
# From -- ./inp_files/78237.got.cif
#   From: 2010.03.12/outbox.cif.g09.slc.cpg/sg65_40_cif.got.tgz:78237.got - 2010.04.10 20:52:16.
