data_PCOD8271543
_publ_section_title
;
Structure prediction by ZEFSAII (Michael W. Deem and Ramdas Pophale) SiO2 
 PCOD8271543
Probable space group: C M M M
;
_chemical_formula_sum "Si O2"
_cell_formula_units_Z 104
_cell_length_a 8.664600
_cell_length_b 28.224324
_cell_length_c 22.705626
_cell_angle_alpha 90.000000
_cell_angle_beta 90.000000
_cell_angle_gamma 90.000000
_cell_volume 5552.717097
_symmetry_space_group_name_H-M "C M M M"
_symmetry_group_IT_number 65
_symmetry_cell_setting 'orthorhombic'
loop_
_space_group_symop_operation_xyz
x,y,z
-x,-y,z
x,-y,-z
-x,y,-z
-x,-y,-z
x,y,-z
-x,y,z
x,-y,z
1/2+x,1/2+y,z
1/2-x,1/2-y,z
1/2+x,1/2-y,-z
1/2-x,1/2+y,-z
1/2-x,1/2-y,-z
1/2+x,1/2+y,-z
1/2-x,1/2+y,z
1/2+x,1/2-y,z
loop_
_atom_site_type_symbol
_atom_site_label
_atom_site_fract_x
_atom_site_fract_y
_atom_site_fract_z
Si Si1 0.179215 0.637817 0.665217
Si Si2 0.179718 0.553586 0.850898
Si Si3 0.823214 0.946541 0.273820
Si Si4 0.819147 0.697981 0.220145
Si Si5 0.679211 0.300048 0.568455
Si Si6 0.181333 0.301864 0.000000
Si Si7 0.319369 0.354876 0.889866
O O1 0.270923 0.589003 0.675134
O O2 0.215443 0.675324 0.716591
O O3 0.236161 0.658562 0.603564
O O4 0.000000 0.625813 0.661330
O O5 0.224374 0.500000 0.869146
O O6 0.216653 0.562552 0.782638
O O7 0.276991 0.589367 0.891468
O O8 0.000000 0.563666 0.860610
O O9 0.000000 0.936912 0.255577
O O10 0.802219 0.000000 0.297545
O O11 0.750000 0.750000 0.219229
O O12 0.734332 0.666352 0.171937
O O13 0.000000 0.699856 0.205718
O O14 0.708384 0.310160 0.500000
O O15 0.500000 0.299302 0.584712
O O16 0.750000 0.250000 0.587534
O O17 0.250000 0.250000 0.000000
O O18 0.232771 0.329237 0.057745
O O19 0.000000 0.297158 0.000000
O O20 0.500000 0.347747 0.898457
#
# Coordination Sequence:
#
# PCOD8271543 Si02
#       7
#    16  16  16  16  16   8  16
#     4  11  22  35  56  84 116 151 191 237 286 343
#     4  10  20  36  59  87 119 153 190 234 286 342
#     4  10  20  34  55  84 117 152 190 234 285 342
#     4  11  23  37  54  81 115 150 188 233 288 339
#     4  10  21  37  57  81 113 153 196 240 286 340
#     4  12  26  46  67  86 115 152 196 241 285 343
#     4  12  24  40  62  87 116 151 193 238 286 342
#
# _framework density 18.729568
#
# number of rings (size 3 to 8) (size 9 to 14) (size 15 to 20)
#    0.000    1.231    1.538    5.308    0.000    5.846 
#    0.000    0.385    0.000    2.769    0.000    3.231 
#    0.000    0.000    0.000    0.000    0.000    0.000 
#
# Total GULP energy -645111.604930 kJ/mol
# GULP energy per Si atom -12405.992403 kJ/mol
# Density = 1.868694 g / cm^3
# Si number density = 18.729568 Si / 1000 Ang^3
#
#
#
# Elastic Constant Matrix: (Units=GPa)
#
#
# Indices 1 2 3 4 5 6 
#
# 1 112.2507 51.2470 34.2160 0.0000 0.0000 0.0000
# 2 51.2470 134.3210 42.1868 0.0000 0.0000 0.0000
# 3 34.2160 42.1868 68.0436 0.0000 0.0000 0.0000
# 4 0.0000 0.0000 0.0000 49.9269 0.0000 0.0000
# 5 0.0000 0.0000 0.0000 0.0000 32.6781 0.0000
# 6 0.0000 0.0000 0.0000 0.0000 0.0000 36.8218
#
#
#
# Elastic Compliance Matrix: (Units=1/GPa)
#
#
# Indices 1 2 3 4 5 6 
#
# 1 0.011533 -0.003202 -0.003814 0.000000 0.000000 0.000000
# 2 -0.003202 0.010134 -0.004673 0.000000 0.000000 0.000000
# 3 -0.003814 -0.004673 0.019512 0.000000 0.000000 0.000000
# 4 0.000000 0.000000 0.000000 0.020029 0.000000 0.000000
# 5 0.000000 0.000000 0.000000 0.000000 0.030602 0.000000
# 6 0.000000 0.000000 0.000000 0.000000 0.000000 0.027158
#
#
# Mechanical properties :
#
#
# Convention : Reuss Voigt Hill
#
# Bulk Modulus (GPa) = 56.17848 63.32389 59.75119
# Shear Modulus (GPa) = 33.72004 36.34974 35.03489
#
# Velocity S-wave (km/s) = 4.24767 4.41019 4.32970
# Velocity P-wave (km/s) = 7.35640 7.73408 7.54761
#
# Compressibility (1/GPa) = 0.01780041
#
# Stress axis : x y z
#
# Youngs Moduli (GPa) = 86.70605 98.67521 51.25162
#
# Poissons Ratio (x) = 0.31599 0.19548
# Poissons Ratio (y) = 0.27766 0.23949
# Poissons Ratio (z) = 0.33071 0.46110
#
# Static dielectric constant tensor:
#      x y z
#    x 3.606160 0.000000 0.000000 
#    y 0.000000 3.690350 0.000000 
#    z 0.000000 0.000000 3.311900 
# 
# 
# High freq. dielectric constant tensor:
#      x y z
#    x 1.747320 0.000000 0.000000 
#    y 0.000000 1.739480 0.000000 
#    z 0.000000 0.000000 1.706270 
# 
# From -- ./inp_files/60378.got.cif
#   From: 2010.03.12/outbox.cif.g09.slc.cpg/sg65_31_cif.got.tgz:60378.got - 2010.04.10 20:52:16.
