data_PCOD8271453
_publ_section_title
;
Structure prediction by ZEFSAII (Michael W. Deem and Ramdas Pophale) SiO2 
 PCOD8271453
Probable space group: C M M M
;
_chemical_formula_sum "Si O2"
_cell_formula_units_Z 96
_cell_length_a 19.388678
_cell_length_b 29.954225
_cell_length_c 8.773686
_cell_angle_alpha 90.000000
_cell_angle_beta 90.000000
_cell_angle_gamma 90.000000
_cell_volume 5095.518389
_symmetry_space_group_name_H-M "C M M M"
_symmetry_group_IT_number 65
_symmetry_cell_setting 'orthorhombic'
loop_
_space_group_symop_operation_xyz
x,y,z
-x,-y,z
x,-y,-z
-x,y,-z
-x,-y,-z
x,y,-z
-x,y,z
x,-y,z
1/2+x,1/2+y,z
1/2-x,1/2-y,z
1/2+x,1/2-y,-z
1/2-x,1/2+y,-z
1/2-x,1/2-y,-z
1/2+x,1/2+y,-z
1/2-x,1/2+y,z
1/2+x,1/2-y,z
loop_
_atom_site_type_symbol
_atom_site_label
_atom_site_fract_x
_atom_site_fract_y
_atom_site_fract_z
Si Si1 0.289199 0.704304 0.821875
Si Si2 0.577830 0.832490 0.824928
Si Si3 0.712310 0.447771 0.175330
Si Si4 0.921808 0.237606 0.678173
Si Si5 0.702416 0.125847 0.678704
Si Si6 0.424659 0.447026 0.329186
O O1 0.250000 0.750000 0.780600
O O2 0.368866 0.706525 0.769973
O O3 0.253945 0.664420 0.731572
O O4 0.285397 0.693708 0.000000
O O5 0.500000 0.850538 0.808213
O O6 0.589864 0.788507 0.726117
O O7 0.628819 0.870255 0.762698
O O8 0.595353 0.820811 0.000000
O O9 0.720253 0.500000 0.210907
O O10 0.767727 0.422393 0.278021
O O11 0.635383 0.430308 0.216992
O O12 0.725758 0.436552 0.000000
O O13 0.906443 0.233331 0.500000
O O14 0.000000 0.222534 0.717462
O O15 0.690768 0.128851 0.500000
O O16 0.409206 0.429361 0.500000
O O17 0.500000 0.429137 0.274578
O O18 0.426451 0.500000 0.330200
#
# Coordination Sequence:
#
# PCOD8271453 Si02
#       6
#    16  16  16  16  16  16
#     4  11  22  36  56  81 112 149 185 227 274 326
#     4  10  20  35  56  82 112 145 183 226 271 326
#     4  10  21  37  57  81 111 146 186 233 282 334
#     4  10  20  34  54  81 113 149 188 229 275 328
#     4  12  24  37  58  84 113 147 185 232 279 330
#     4   8  14  27  49  76 105 137 175 220 269 321
#
# _framework density 18.840084000000001
#
# number of rings (size 3 to 8) (size 9 to 14) (size 15 to 20)
#    0.000    1.833    1.667    4.000    0.000    4.000 
#    0.000    2.500    0.000    5.500    0.000    3.500 
#    0.000    0.000    0.000    0.000    0.000    0.000 
#
# Total GULP energy -595254.967271 kJ/mol
# GULP energy per Si atom -12401.145151 kJ/mol
# Density = 1.879720 g / cm^3
# Si number density = 18.840084 Si / 1000 Ang^3
#
#
#
# Elastic Constant Matrix: (Units=GPa)
#
#
# Indices 1 2 3 4 5 6 
#
# 1 126.6158 32.5694 37.6013 0.0000 0.0000 0.0000
# 2 32.5694 47.3967 19.2248 0.0000 0.0000 0.0000
# 3 37.6013 19.2248 63.8171 0.0000 0.0000 0.0000
# 4 0.0000 0.0000 0.0000 26.0504 0.0000 0.0000
# 5 0.0000 0.0000 0.0000 0.0000 36.4560 0.0000
# 6 0.0000 0.0000 0.0000 0.0000 0.0000 25.1019
#
#
#
# Elastic Compliance Matrix: (Units=1/GPa)
#
#
# Indices 1 2 3 4 5 6 
#
# 1 0.010682 -0.005454 -0.004651 0.000000 0.000000 0.000000
# 2 -0.005454 0.026820 -0.004866 0.000000 0.000000 0.000000
# 3 -0.004651 -0.004866 0.019876 0.000000 0.000000 0.000000
# 4 0.000000 0.000000 0.000000 0.038387 0.000000 0.000000
# 5 0.000000 0.000000 0.000000 0.000000 0.027430 0.000000
# 6 0.000000 0.000000 0.000000 0.000000 0.000000 0.039838
#
#
# Mechanical properties :
#
#
# Convention : Reuss Voigt Hill
#
# Bulk Modulus (GPa) = 36.44800 46.29120 41.36960
# Shear Modulus (GPa) = 24.73778 27.41727 26.07753
#
# Velocity S-wave (km/s) = 3.62752 3.81893 3.72445
# Velocity P-wave (km/s) = 6.07727 6.63849 6.36407
#
# Compressibility (1/GPa) = 0.02743634
#
# Stress axis : x y z
#
# Youngs Moduli (GPa) = 93.61557 37.28570 50.31193
#
# Poissons Ratio (x) = 0.20335 0.23400
# Poissons Ratio (y) = 0.51056 0.24482
# Poissons Ratio (z) = 0.43540 0.18143
#
# Static dielectric constant tensor:
#      x y z
#    x 3.825470 0.000000 0.000000 
#    y 0.000000 3.106720 0.000000 
#    z 0.000000 0.000000 3.542650 
# 
# 
# High freq. dielectric constant tensor:
#      x y z
#    x 1.743360 0.000000 0.000000 
#    y 0.000000 1.692450 0.000000 
#    z 0.000000 0.000000 1.742880 
# 
# From -- ./inp_files/12317.got.cif
#   From: 2010.03.12/outbox.cif.g09.slc.cpg/sg65_7_cif.got.tgz:12317.got - 2010.04.10 20:52:16.
