data_PCOD8271862
_publ_section_title
;
Structure prediction by ZEFSAII (Michael W. Deem and Ramdas Pophale) SiO2 
 PCOD8271862
Probable space group: C M M M
;
_chemical_formula_sum "Si O2"
_cell_formula_units_Z 88
_cell_length_a 30.165578
_cell_length_b 16.491698
_cell_length_c 9.282650
_cell_angle_alpha 90.000000
_cell_angle_beta 90.000000
_cell_angle_gamma 90.000000
_cell_volume 4617.947596
_symmetry_space_group_name_H-M "C M M M"
_symmetry_group_IT_number 65
_symmetry_cell_setting 'orthorhombic'
loop_
_space_group_symop_operation_xyz
x,y,z
-x,-y,z
x,-y,-z
-x,y,-z
-x,-y,-z
x,y,-z
-x,y,z
x,-y,z
1/2+x,1/2+y,z
1/2-x,1/2-y,z
1/2+x,1/2-y,-z
1/2-x,1/2+y,-z
1/2-x,1/2-y,-z
1/2+x,1/2+y,-z
1/2-x,1/2+y,z
1/2+x,1/2-y,z
loop_
_atom_site_type_symbol
_atom_site_label
_atom_site_fract_x
_atom_site_fract_y
_atom_site_fract_z
Si Si1 0.776267 0.330144 0.329187
Si Si2 0.549718 0.095579 0.836506
Si Si3 0.092114 0.842878 0.163536
Si Si4 0.763521 0.000000 0.670332
Si Si5 0.500000 0.409926 0.829329
Si Si6 0.876979 0.307298 0.670246
Si Si7 0.150560 0.000000 0.157811
O O1 0.771697 0.328716 0.500000
O O2 0.750000 0.250000 0.268091
O O3 0.757645 0.416107 0.268135
O O4 0.827358 0.329686 0.280046
O O5 0.500000 0.123500 0.789912
O O6 0.586887 0.131824 0.733777
O O7 0.553311 0.000000 0.824837
O O8 0.558526 0.124358 0.000000
O O9 0.114542 0.782023 0.273175
O O10 0.119233 0.924162 0.173398
O O11 0.042622 0.859356 0.220521
O O12 0.091688 0.808511 0.000000
O O13 0.759350 0.000000 0.500000
O O14 0.814383 0.000000 0.714968
O O15 0.500000 0.500000 0.759747
O O16 0.500000 0.420138 0.000000
O O17 0.881324 0.309646 0.500000
O O18 0.173919 0.000000 0.000000
#
# Coordination Sequence:
#
# PCOD8271862 Si02
#       7
#    16  16  16   8   8  16   8
#     4   9  19  36  56  80 110 148 193 233 277 345
#     4   9  20  40  62  82 109 149 191 227 275 344
#     4  10  20  35  56  81 112 151 192 229 275 337
#     4  10  20  36  61  81 104 147 190 229 286 354
#     4   9  16  32  57  81 104 145 198 233 263 326
#     4  11  23  36  57  87 117 146 188 240 286 332
#     4  10  20  35  56  84 114 143 187 241 285 328
#
# _framework density 19.056084999999999
#
# number of rings (size 3 to 8) (size 9 to 14) (size 15 to 20)
#    0.000    2.273    0.909    2.182    2.545    2.909 
#    0.000    2.727    0.000    5.455    0.000    0.000 
#    0.000    0.000    0.000    0.000    0.000    0.000 
#
# Total GULP energy -545439.083741 kJ/mol
# GULP energy per Si atom -12396.342812 kJ/mol
# Density = 1.901271 g / cm^3
# Si number density = 19.056085 Si / 1000 Ang^3
#
#
#
# Elastic Constant Matrix: (Units=GPa)
#
#
# Indices 1 2 3 4 5 6 
#
# 1 152.9617 64.6665 47.3355 0.0000 0.0000 0.0000
# 2 64.6665 120.5134 29.2499 0.0000 0.0000 0.0000
# 3 47.3355 29.2499 47.8885 0.0000 0.0000 0.0000
# 4 0.0000 0.0000 0.0000 16.2385 0.0000 0.0000
# 5 0.0000 0.0000 0.0000 0.0000 28.1978 0.0000
# 6 0.0000 0.0000 0.0000 0.0000 0.0000 -7.0024
#
#
#
# Elastic Compliance Matrix: (Units=1/GPa)
#
#
# Indices 1 2 3 4 5 6 
#
# 1 0.010670 -0.003717 -0.008277 0.000000 0.000000 0.000000
# 2 -0.003717 0.011037 -0.003067 0.000000 0.000000 0.000000
# 3 -0.008277 -0.003067 0.030937 0.000000 0.000000 0.000000
# 4 0.000000 0.000000 0.000000 0.061582 0.000000 0.000000
# 5 0.000000 0.000000 0.000000 0.000000 0.035464 0.000000
# 6 0.000000 0.000000 0.000000 0.000000 0.000000 -0.142809
#
#
# Mechanical properties :
#
#
# Convention : Reuss Voigt Hill
#
# Bulk Modulus (GPa) = 44.40157 67.09638 55.74898
# Shear Modulus (GPa) = 112.33499 19.49422 65.91461
#
# Velocity S-wave (km/s) = 7.68620 3.20189 5.88769
# Velocity P-wave (km/s) = 10.10551 6.99685 8.69129
#
# Compressibility (1/GPa) = 0.02252172
#
# Stress axis : x y z
#
# Youngs Moduli (GPa) = 93.71886 90.60728 32.32407
#
# Poissons Ratio (x) = 0.33676 0.26754
# Poissons Ratio (y) = 0.34832 0.09915
# Poissons Ratio (z) = 0.77570 0.27793
#
# Static dielectric constant tensor:
#      x y z
#    x 3.759530 0.000000 0.000000 
#    y 0.000000 3.643250 0.000000 
#    z 0.000000 0.000000 3.215210 
# 
# 
# High freq. dielectric constant tensor:
#      x y z
#    x 1.754970 0.000000 0.000000 
#    y 0.000000 1.756850 0.000000 
#    z 0.000000 0.000000 1.703480 
# 
# From -- ./inp_files/18401.got.cif
#   From: 2010.03.12/outbox.cif.g09.slc.cpg/sg65_10_cif.got.tgz:18401.got - 2010.04.10 20:52:16.
