data_PCOD8271726
_publ_section_title
;
Structure prediction by ZEFSAII (Michael W. Deem and Ramdas Pophale) SiO2 
 PCOD8271726
Probable space group: C M M M
;
_chemical_formula_sum "Si O2"
_cell_formula_units_Z 104
_cell_length_a 9.152972
_cell_length_b 26.157905
_cell_length_c 24.050576
_cell_angle_alpha 90.000000
_cell_angle_beta 90.000000
_cell_angle_gamma 90.000000
_cell_volume 5758.250765
_symmetry_space_group_name_H-M "C M M M"
_symmetry_group_IT_number 65
_symmetry_cell_setting 'orthorhombic'
loop_
_space_group_symop_operation_xyz
x,y,z
-x,-y,z
x,-y,-z
-x,y,-z
-x,-y,-z
x,y,-z
-x,y,z
x,-y,z
1/2+x,1/2+y,z
1/2-x,1/2-y,z
1/2+x,1/2-y,-z
1/2-x,1/2+y,-z
1/2-x,1/2-y,-z
1/2+x,1/2+y,-z
1/2-x,1/2+y,z
1/2+x,1/2-y,z
loop_
_atom_site_type_symbol
_atom_site_label
_atom_site_fract_x
_atom_site_fract_y
_atom_site_fract_z
Si Si1 0.159675 0.942179 0.664652
Si Si2 0.674083 0.593634 0.122083
Si Si3 0.831519 0.560804 0.229879
Si Si4 0.666533 0.000000 0.934378
Si Si5 0.670642 0.300895 0.063859
Si Si6 0.168814 0.409085 0.435830
Si Si7 0.666019 0.795752 0.436808
O O1 0.268775 0.919152 0.710914
O O2 0.231167 0.943195 0.603389
O O3 0.000000 0.914541 0.663970
O O4 0.133534 0.000000 0.682219
O O5 0.500000 0.585271 0.121505
O O6 0.735687 0.589840 0.184170
O O7 0.749293 0.550434 0.084856
O O8 0.717888 0.649277 0.098674
O O9 0.816804 0.500000 0.221336
O O10 0.000000 0.577716 0.226273
O O11 0.500000 0.000000 0.910295
O O12 0.662790 0.000000 0.000000
O O13 0.500000 0.290854 0.069772
O O14 0.750000 0.250000 0.087037
O O15 0.715823 0.310840 0.000000
O O16 0.218457 0.414751 0.500000
O O17 0.191415 0.351719 0.411504
O O18 0.000000 0.425482 0.430827
O O19 0.722291 0.799368 0.500000
O O20 0.500000 0.779638 0.434398
O O21 0.750000 0.750000 0.404714
#
# Coordination Sequence:
#
# PCOD8271726 Si02
#       7
#    16  16  16   8  16  16  16
#     4  10  21  35  51  72  99 131 170 213 258 306
#     4  11  21  34  55  80 109 142 178 223 272 320
#     4  10  20  35  55  77 102 132 172 214 258 317
#     4  11  23  35  49  77 115 149 180 215 262 317
#     4   9  19  35  54  78 108 145 187 225 265 315
#     4   9  18  32  49  71 100 132 166 204 251 308
#     4   8  14  25  42  65  92 121 153 189 231 286
#
# _framework density 18.061040999999999
#
# number of rings (size 3 to 8) (size 9 to 14) (size 15 to 20)
#    0.000    2.385    0.769    3.000    0.000    5.231 
#    0.000    4.615    0.000    0.923    0.000    6.462 
#    0.000    0.000    0.000    0.000    0.000    0.000 
#
# Total GULP energy -644496.263610 kJ/mol
# GULP energy per Si atom -12394.158916 kJ/mol
# Density = 1.801993 g / cm^3
# Si number density = 18.061041 Si / 1000 Ang^3
#
#
#
# Elastic Constant Matrix: (Units=GPa)
#
#
# Indices 1 2 3 4 5 6 
#
# 1 107.5201 47.5291 52.9214 0.0000 0.0000 0.0000
# 2 47.5291 84.3754 35.9492 0.0000 0.0000 0.0000
# 3 52.9214 35.9492 99.4889 0.0000 0.0000 0.0000
# 4 0.0000 0.0000 0.0000 16.4327 0.0000 0.0000
# 5 0.0000 0.0000 0.0000 0.0000 28.4253 0.0000
# 6 0.0000 0.0000 0.0000 0.0000 0.0000 30.2345
#
#
#
# Elastic Compliance Matrix: (Units=1/GPa)
#
#
# Indices 1 2 3 4 5 6 
#
# 1 0.014692 -0.005846 -0.005703 0.000000 0.000000 0.000000
# 2 -0.005846 0.016335 -0.002793 0.000000 0.000000 0.000000
# 3 -0.005703 -0.002793 0.014094 0.000000 0.000000 0.000000
# 4 0.000000 0.000000 0.000000 0.060854 0.000000 0.000000
# 5 0.000000 0.000000 0.000000 0.000000 0.035180 0.000000
# 6 0.000000 0.000000 0.000000 0.000000 0.000000 0.033075
#
#
# Mechanical properties :
#
#
# Convention : Reuss Voigt Hill
#
# Bulk Modulus (GPa) = 60.83615 62.68708 61.76162
# Shear Modulus (GPa) = 23.99330 25.35080 24.67205
#
# Velocity S-wave (km/s) = 3.64875 3.75055 3.70000
# Velocity P-wave (km/s) = 7.17690 7.31706 7.24732
#
# Compressibility (1/GPa) = 0.01643759
#
# Stress axis : x y z
#
# Youngs Moduli (GPa) = 68.06558 61.21871 70.95326
#
# Poissons Ratio (x) = 0.35790 0.40461
# Poissons Ratio (y) = 0.39793 0.19814
# Poissons Ratio (z) = 0.38814 0.17096
#
# Static dielectric constant tensor:
#      x y z
#    x 3.774700 0.000000 0.000000 
#    y 0.000000 3.423880 0.000000 
#    z 0.000000 0.000000 3.190180 
# 
# 
# High freq. dielectric constant tensor:
#      x y z
#    x 1.709440 0.000000 0.000000 
#    y 0.000000 1.683100 0.000000 
#    z 0.000000 0.000000 1.681100 
# 
# From -- ./inp_files/68255.got.cif
#   From: 2010.03.12/outbox.cif.g09.slc.cpg/sg65_35_cif.got.tgz:68255.got - 2010.04.10 20:52:16.
