data_PCOD8271727
_publ_section_title
;
Structure prediction by ZEFSAII (Michael W. Deem and Ramdas Pophale) SiO2 
 PCOD8271727
Probable space group: C M M M
;
_chemical_formula_sum "Si O2"
_cell_formula_units_Z 104
_cell_length_a 9.091052
_cell_length_b 19.816392
_cell_length_c 32.457385
_cell_angle_alpha 90.000000
_cell_angle_beta 90.000000
_cell_angle_gamma 90.000000
_cell_volume 5847.257958
_symmetry_space_group_name_H-M "C M M M"
_symmetry_group_IT_number 65
_symmetry_cell_setting 'orthorhombic'
loop_
_space_group_symop_operation_xyz
x,y,z
-x,-y,z
x,-y,-z
-x,y,-z
-x,-y,-z
x,y,-z
-x,y,z
x,-y,z
1/2+x,1/2+y,z
1/2-x,1/2-y,z
1/2+x,1/2-y,-z
1/2-x,1/2+y,-z
1/2-x,1/2-y,-z
1/2+x,1/2+y,-z
1/2-x,1/2+y,z
1/2+x,1/2-y,z
loop_
_atom_site_type_symbol
_atom_site_label
_atom_site_fract_x
_atom_site_fract_y
_atom_site_fract_z
Si Si1 0.672392 0.182331 0.546551
Si Si2 0.829823 0.577419 0.385131
Si Si3 0.829092 0.921120 0.301895
Si Si4 0.671288 0.817200 0.148314
Si Si5 0.826263 0.319043 0.242844
Si Si6 0.827444 0.422978 0.080985
Si Si7 0.834076 0.080240 0.000000
O O1 0.722430 0.164653 0.500000
O O2 0.500000 0.195061 0.548777
O O3 0.750000 0.250000 0.562483
O O4 0.720560 0.120862 0.575649
O O5 0.801549 0.500000 0.397077
O O6 0.731282 0.599702 0.346595
O O7 0.000000 0.590062 0.373699
O O8 0.738446 0.881595 0.267621
O O9 0.000000 0.901771 0.299410
O O10 0.802520 0.000000 0.293772
O O11 0.500000 0.803853 0.143735
O O12 0.750000 0.750000 0.132296
O O13 0.713777 0.833265 0.195335
O O14 0.722536 0.880080 0.120574
O O15 0.750000 0.250000 0.257960
O O16 0.000000 0.313328 0.250289
O O17 0.780178 0.500000 0.089759
O O18 0.000000 0.417559 0.072679
O O19 0.746935 0.392858 0.040825
O O20 0.000000 0.107653 0.000000
O O21 0.827402 0.000000 0.000000
#
# Coordination Sequence:
#
# PCOD8271727 Si02
#       7
#    16  16  16  16  16  16   8
#     4   9  18  32  50  73 100 129 162 202 247 294
#     4   9  18  33  52  73  98 130 167 205 247 295
#     4  10  21  36  53  75 104 135 168 209 254 299
#     4   9  19  34  52  74 100 130 162 200 245 293
#     4  10  20  35  55  77 102 133 169 208 251 301
#     4   9  17  31  51  73  97 127 163 200 240 288
#     4   9  17  29  46  71 100 127 159 201 246 287
#
# _framework density 17.786114000000001
#
# number of rings (size 3 to 8) (size 9 to 14) (size 15 to 20)
#    0.000    2.692    0.000    1.154    0.000    5.231 
#    0.000    5.000    0.000    1.846    0.000    4.308 
#    0.000    0.000    0.000    0.000    0.000    0.000 
#
# Total GULP energy -644899.412982 kJ/mol
# GULP energy per Si atom -12401.911788 kJ/mol
# Density = 1.774563 g / cm^3
# Si number density = 17.786114 Si / 1000 Ang^3
#
#
#
# Elastic Constant Matrix: (Units=GPa)
#
#
# Indices 1 2 3 4 5 6 
#
# 1 68.8526 46.5646 51.7054 0.0000 0.0000 0.0000
# 2 46.5646 96.8567 75.9045 0.0000 0.0000 0.0000
# 3 51.7054 75.9045 114.8867 0.0000 0.0000 0.0000
# 4 0.0000 0.0000 0.0000 22.0469 0.0000 0.0000
# 5 0.0000 0.0000 0.0000 0.0000 24.9046 0.0000
# 6 0.0000 0.0000 0.0000 0.0000 0.0000 30.0339
#
#
#
# Elastic Compliance Matrix: (Units=1/GPa)
#
#
# Indices 1 2 3 4 5 6 
#
# 1 0.023647 -0.006280 -0.006494 0.000000 0.000000 0.000000
# 2 -0.006280 0.023077 -0.012421 0.000000 0.000000 0.000000
# 3 -0.006494 -0.012421 0.019833 0.000000 0.000000 0.000000
# 4 0.000000 0.000000 0.000000 0.045358 0.000000 0.000000
# 5 0.000000 0.000000 0.000000 0.000000 0.040153 0.000000
# 6 0.000000 0.000000 0.000000 0.000000 0.000000 0.033296
#
#
# Mechanical properties :
#
#
# Convention : Reuss Voigt Hill
#
# Bulk Modulus (GPa) = 61.84522 69.88278 65.86400
# Shear Modulus (GPa) = 20.73463 22.49185 21.61324
#
# Velocity S-wave (km/s) = 3.41805 3.55994 3.48972
# Velocity P-wave (km/s) = 7.10102 7.50157 7.30404
#
# Compressibility (1/GPa) = 0.01616940
#
# Stress axis : x y z
#
# Youngs Moduli (GPa) = 42.28848 43.33230 50.42083
#
# Poissons Ratio (x) = 0.27211 0.32741
# Poissons Ratio (y) = 0.26555 0.62627
# Poissons Ratio (z) = 0.27461 0.53823
#
# Static dielectric constant tensor:
#      x y z
#    x 3.310600 0.000000 0.000000 
#    y 0.000000 3.273140 0.000000 
#    z 0.000000 0.000000 3.419320 
# 
# 
# High freq. dielectric constant tensor:
#      x y z
#    x 1.689470 0.000000 0.000000 
#    y 0.000000 1.679100 0.000000 
#    z 0.000000 0.000000 1.691120 
# 
# From -- ./inp_files/76879.got.cif
#   From: 2010.03.12/outbox.cif.g09.slc.cpg/sg65_39_cif.got.tgz:76879.got - 2010.04.10 20:52:16.
