data_PCOD8271546
_publ_section_title
;
Structure prediction by ZEFSAII (Michael W. Deem and Ramdas Pophale) SiO2 
 PCOD8271546
Probable space group: C M M M
;
_chemical_formula_sum "Si O2"
_cell_formula_units_Z 88
_cell_length_a 28.521681
_cell_length_b 8.815093
_cell_length_c 17.970279
_cell_angle_alpha 90.000000
_cell_angle_beta 90.000000
_cell_angle_gamma 90.000000
_cell_volume 4518.110378
_symmetry_space_group_name_H-M "C M M M"
_symmetry_group_IT_number 65
_symmetry_cell_setting 'orthorhombic'
loop_
_space_group_symop_operation_xyz
x,y,z
-x,-y,z
x,-y,-z
-x,y,-z
-x,-y,-z
x,y,-z
-x,y,z
x,-y,z
1/2+x,1/2+y,z
1/2-x,1/2-y,z
1/2+x,1/2-y,-z
1/2-x,1/2+y,-z
1/2-x,1/2-y,-z
1/2+x,1/2+y,-z
1/2-x,1/2+y,z
1/2+x,1/2-y,z
loop_
_atom_site_type_symbol
_atom_site_label
_atom_site_fract_x
_atom_site_fract_y
_atom_site_fract_z
Si Si1 0.447008 0.323843 0.139262
Si Si2 0.301064 0.179765 0.500000
Si Si3 0.148829 0.324273 0.351285
Si Si4 0.551554 0.172571 0.294126
Si Si5 0.199313 0.178636 0.786561
Si Si6 0.357850 0.826214 0.084531
O O1 0.500000 0.285583 0.113905
O O2 0.435586 0.500000 0.128699
O O3 0.439615 0.283949 0.225499
O O4 0.411649 0.228086 0.088873
O O5 0.250000 0.250000 0.500000
O O6 0.329178 0.237545 0.427721
O O7 0.296817 0.000000 0.500000
O O8 0.161954 0.500000 0.339251
O O9 0.092346 0.300744 0.355058
O O10 0.168234 0.229423 0.282736
O O11 0.500000 0.203703 0.329885
O O12 0.554290 0.000000 0.263978
O O13 0.250000 0.250000 0.779220
O O14 0.175385 0.226745 0.863517
O O15 0.204563 0.000000 0.785684
O O16 0.354822 0.000000 0.110772
O O17 0.340306 0.807616 0.000000
#
# Coordination Sequence:
#
# PCOD8271546 Si02
#       6
#    16   8  16  16  16  16
#     4  10  20  34  55  85 119 154 194 240 289 343
#     4  10  22  38  57  85 119 157 196 246 298 345
#     4  10  20  37  60  87 121 155 195 241 289 346
#     4   9  17  31  55  84 115 154 195 235 283 342
#     4  12  25  41  63  87 113 149 194 242 296 354
#     4  11  24  41  60  84 116 153 195 243 293 348
#
# _framework density 19.477170000000001
#
# number of rings (size 3 to 8) (size 9 to 14) (size 15 to 20)
#    0.000    1.636    1.818    3.273    0.000    5.455 
#    0.000    2.273    0.000    2.727    0.000    0.000 
#    0.000    5.091    0.000    0.000    0.000    0.000 
#
# Total GULP energy -545650.834973 kJ/mol
# GULP energy per Si atom -12401.155340 kJ/mol
# Density = 1.943284 g / cm^3
# Si number density = 19.477170 Si / 1000 Ang^3
#
#
#
# Elastic Constant Matrix: (Units=GPa)
#
#
# Indices 1 2 3 4 5 6 
#
# 1 140.8649 43.3297 56.8230 0.0000 0.0000 0.0000
# 2 43.3297 92.0608 36.7463 0.0000 0.0000 0.0000
# 3 56.8230 36.7463 99.6385 0.0000 0.0000 0.0000
# 4 0.0000 0.0000 0.0000 11.6144 0.0000 0.0000
# 5 0.0000 0.0000 0.0000 0.0000 22.9646 0.0000
# 6 0.0000 0.0000 0.0000 0.0000 0.0000 28.3476
#
#
#
# Elastic Compliance Matrix: (Units=1/GPa)
#
#
# Indices 1 2 3 4 5 6 
#
# 1 0.009796 -0.002792 -0.004557 0.000000 0.000000 0.000000
# 2 -0.002792 0.013533 -0.003399 0.000000 0.000000 0.000000
# 3 -0.004557 -0.003399 0.013889 0.000000 0.000000 0.000000
# 4 0.000000 0.000000 0.000000 0.086100 0.000000 0.000000
# 5 0.000000 0.000000 0.000000 0.000000 0.043545 0.000000
# 6 0.000000 0.000000 0.000000 0.000000 0.000000 0.035276
#
#
# Mechanical properties :
#
#
# Convention : Reuss Voigt Hill
#
# Bulk Modulus (GPa) = 63.60315 67.37360 65.48837
# Shear Modulus (GPa) = 21.84601 25.62966 23.73784
#
# Velocity S-wave (km/s) = 3.35269 3.63144 3.49485
# Velocity P-wave (km/s) = 6.90750 7.22837 7.06976
#
# Compressibility (1/GPa) = 0.01572249
#
# Stress axis : x y z
#
# Youngs Moduli (GPa) = 102.08309 73.89352 72.00166
#
# Poissons Ratio (x) = 0.20629 0.32811
# Poissons Ratio (y) = 0.28498 0.24472
# Poissons Ratio (z) = 0.46519 0.25115
#
# Static dielectric constant tensor:
#      x y z
#    x 3.906040 0.000000 0.000000 
#    y 0.000000 3.586080 0.000000 
#    z 0.000000 0.000000 3.402620 
# 
# 
# High freq. dielectric constant tensor:
#      x y z
#    x 1.775820 0.000000 0.000000 
#    y 0.000000 1.760020 0.000000 
#    z 0.000000 0.000000 1.736770 
# 
# From -- ./inp_files/58039.got.cif
#   From: 2010.03.12/outbox.cif.g09.slc.cpg/sg65_30_cif.got.tgz:58039.got - 2010.04.10 20:52:16.
