data_PCOD8271976
_publ_section_title
;
Structure prediction by ZEFSAII (Michael W. Deem and Ramdas Pophale) SiO2 
 PCOD8271976
Probable space group: C M M M
;
_chemical_formula_sum "Si O2"
_cell_formula_units_Z 104
_cell_length_a 28.984493
_cell_length_b 8.729647
_cell_length_c 20.429940
_cell_angle_alpha 90.000000
_cell_angle_beta 90.000000
_cell_angle_gamma 90.000000
_cell_volume 5169.273155
_symmetry_space_group_name_H-M "C M M M"
_symmetry_group_IT_number 65
_symmetry_cell_setting 'orthorhombic'
loop_
_space_group_symop_operation_xyz
x,y,z
-x,-y,z
x,-y,-z
-x,y,-z
-x,-y,-z
x,y,-z
-x,y,z
x,-y,z
1/2+x,1/2+y,z
1/2-x,1/2-y,z
1/2+x,1/2-y,-z
1/2-x,1/2+y,-z
1/2-x,1/2-y,-z
1/2+x,1/2+y,-z
1/2-x,1/2+y,z
1/2+x,1/2-y,z
loop_
_atom_site_type_symbol
_atom_site_label
_atom_site_fract_x
_atom_site_fract_y
_atom_site_fract_z
Si Si1 0.553264 0.681698 0.000000
Si Si2 0.799605 0.818792 0.831635
Si Si3 0.553198 0.324672 0.771124
Si Si4 0.109828 0.679438 0.881205
Si Si5 0.298296 0.320213 0.682546
Si Si6 0.632625 0.678036 0.427495
Si Si7 0.448104 0.825343 0.365507
O O1 0.579721 0.741490 0.063173
O O2 0.554426 0.500000 0.000000
O O3 0.500000 0.739618 0.000000
O O4 0.750000 0.750000 0.851166
O O5 0.838404 0.747663 0.879000
O O6 0.812261 0.773815 0.756569
O O7 0.797883 0.000000 0.841457
O O8 0.500000 0.301849 0.791260
O O9 0.568962 0.500000 0.782767
O O10 0.584436 0.211632 0.813156
O O11 0.561397 0.284059 0.696025
O O12 0.113071 0.500000 0.894943
O O13 0.293687 0.500000 0.676110
O O14 0.250000 0.250000 0.662493
O O15 0.334453 0.256122 0.629539
O O16 0.653880 0.705738 0.500000
O O17 0.622450 0.500000 0.416018
O O18 0.584967 0.771382 0.423743
O O19 0.500000 0.805270 0.391254
O O20 0.438492 0.000000 0.344867
#
# Coordination Sequence:
#
# PCOD8271976 Si02
#       7
#     8  16  16  16  16  16  16
#     4  11  25  45  66  89 122 165 207 241 281 337
#     4  10  20  37  61  88 118 152 194 243 294 346
#     4  10  20  35  57  84 113 147 188 234 287 347
#     4  12  24  38  60  90 123 158 196 239 288 338
#     4   9  19  35  56  82 111 143 182 231 283 336
#     4  10  21  36  53  75 106 146 190 231 277 342
#     4  10  21  36  54  78 107 139 181 236 293 345
#
# _framework density 20.118883
#
# number of rings (size 3 to 8) (size 9 to 14) (size 15 to 20)
#    0.000    1.769    0.000    4.385    0.000    7.692 
#    0.000    1.923    0.000    0.000    0.000    0.000 
#    0.000    0.000    0.000    0.000    0.000    0.000 
#
# Total GULP energy -644919.270946 kJ/mol
# GULP energy per Si atom -12402.293672 kJ/mol
# Density = 2.007309 g / cm^3
# Si number density = 20.118883 Si / 1000 Ang^3
#
#
#
# Elastic Constant Matrix: (Units=GPa)
#
#
# Indices 1 2 3 4 5 6 
#
# 1 140.7800 54.5677 65.9999 0.0000 0.0000 0.0000
# 2 54.5677 79.6155 30.5355 0.0000 0.0000 0.0000
# 3 65.9999 30.5355 71.6437 0.0000 0.0000 0.0000
# 4 0.0000 0.0000 0.0000 21.9312 0.0000 0.0000
# 5 0.0000 0.0000 0.0000 0.0000 34.1820 0.0000
# 6 0.0000 0.0000 0.0000 0.0000 0.0000 37.2209
#
#
#
# Elastic Compliance Matrix: (Units=1/GPa)
#
#
# Indices 1 2 3 4 5 6 
#
# 1 0.014392 -0.005713 -0.010823 0.000000 0.000000 0.000000
# 2 -0.005713 0.017283 -0.002103 0.000000 0.000000 0.000000
# 3 -0.010823 -0.002103 0.024825 0.000000 0.000000 0.000000
# 4 0.000000 0.000000 0.000000 0.045597 0.000000 0.000000
# 5 0.000000 0.000000 0.000000 0.000000 0.029255 0.000000
# 6 0.000000 0.000000 0.000000 0.000000 0.000000 0.026867
#
#
# Mechanical properties :
#
#
# Convention : Reuss Voigt Hill
#
# Bulk Modulus (GPa) = 52.02700 66.02726 59.02713
# Shear Modulus (GPa) = 24.76434 28.06255 26.41344
#
# Velocity S-wave (km/s) = 3.51222 3.73880 3.62728
# Velocity P-wave (km/s) = 6.50873 7.17830 6.85170
#
# Compressibility (1/GPa) = 0.01922079
#
# Stress axis : x y z
#
# Youngs Moduli (GPa) = 69.48468 57.86173 40.28224
#
# Poissons Ratio (x) = 0.33056 0.43598
# Poissons Ratio (y) = 0.39696 0.08472
# Poissons Ratio (z) = 0.75204 0.12170
#
# Static dielectric constant tensor:
#      x y z
#    x 3.806170 0.000000 0.000000 
#    y 0.000000 3.612450 0.000000 
#    z 0.000000 0.000000 3.645940 
# 
# 
# High freq. dielectric constant tensor:
#      x y z
#    x 1.793940 0.000000 0.000000 
#    y 0.000000 1.788340 0.000000 
#    z 0.000000 0.000000 1.772890 
# 
# From -- ./inp_files/65939.got.cif
#   From: 2010.03.12/outbox.cif.g09.slc.cpg/sg65_33_cif.got.tgz:65939.got - 2010.04.10 20:52:16.
