data_PCOD8271031
_publ_section_title
;
Structure prediction by ZEFSAII (Michael W. Deem and Ramdas Pophale) SiO2 
 PCOD8271031
Probable space group: C M M M
;
_chemical_formula_sum "Si O2"
_cell_formula_units_Z 88
_cell_length_a 19.517045
_cell_length_b 9.002616
_cell_length_c 27.770855
_cell_angle_alpha 90.000000
_cell_angle_beta 90.000000
_cell_angle_gamma 90.000000
_cell_volume 4879.463126
_symmetry_space_group_name_H-M "C M M M"
_symmetry_group_IT_number 65
_symmetry_cell_setting 'orthorhombic'
loop_
_space_group_symop_operation_xyz
x,y,z
-x,-y,z
x,-y,-z
-x,y,-z
-x,-y,-z
x,y,-z
-x,y,z
x,-y,z
1/2+x,1/2+y,z
1/2-x,1/2-y,z
1/2+x,1/2-y,-z
1/2-x,1/2+y,-z
1/2-x,1/2-y,-z
1/2+x,1/2+y,-z
1/2-x,1/2+y,z
1/2+x,1/2-y,z
loop_
_atom_site_type_symbol
_atom_site_label
_atom_site_fract_x
_atom_site_fract_y
_atom_site_fract_z
Si Si1 0.079985 0.670887 0.186082
Si Si2 0.824299 0.174928 0.000000
Si Si3 0.421437 0.673298 0.087258
Si Si4 0.180087 0.825521 0.631553
Si Si5 0.679032 0.674598 0.741342
Si Si6 0.076163 0.823618 0.446860
O O1 0.102740 0.500000 0.188388
O O2 0.099537 0.733596 0.133919
O O3 0.118042 0.763653 0.226671
O O4 0.000000 0.690945 0.196098
O O5 0.750000 0.250000 0.000000
O O6 0.868909 0.224468 0.046005
O O7 0.812667 0.000000 0.000000
O O8 0.500000 0.707022 0.071324
O O9 0.413095 0.500000 0.099129
O O10 0.250000 0.750000 0.616040
O O11 0.160330 0.785295 0.686291
O O12 0.123358 0.758496 0.595493
O O13 0.188848 0.000000 0.624995
O O14 0.686498 0.500000 0.749345
O O15 0.750000 0.750000 0.757016
O O16 0.103318 0.776120 0.500000
O O17 0.000000 0.759448 0.439021
O O18 0.074188 0.000000 0.443273
#
# Coordination Sequence:
#
# PCOD8271031 Si02
#       6
#    16   8  16  16  16  16
#     4  10  21  36  54  78 106 134 168 210 254 302
#     4  10  21  35  53  79 107 134 166 206 250 296
#     4   9  18  35  57  77 100 134 174 210 245 290
#     4   9  18  31  48  71  97 126 162 202 244 293
#     4  10  20  34  52  73 100 134 170 210 255 302
#     4   8  14  26  45  69  96 125 159 200 243 287
#
# _framework density 18.034770999999999
#
# number of rings (size 3 to 8) (size 9 to 14) (size 15 to 20)
#    0.000    2.727    0.000    1.909    0.000    5.455 
#    0.000    3.636    0.000    3.273    0.000    1.273 
#    0.000    0.000    0.000    0.000    0.000    0.000 
#
# Total GULP energy -545556.941066 kJ/mol
# GULP energy per Si atom -12399.021388 kJ/mol
# Density = 1.799372 g / cm^3
# Si number density = 18.034771 Si / 1000 Ang^3
#
#
#
# Elastic Constant Matrix: (Units=GPa)
#
#
# Indices 1 2 3 4 5 6 
#
# 1 114.6161 40.7859 90.8117 0.0000 0.0000 0.0000
# 2 40.7859 53.4661 44.2673 0.0000 0.0000 0.0000
# 3 90.8117 44.2673 130.3601 0.0000 0.0000 0.0000
# 4 0.0000 0.0000 0.0000 17.5797 0.0000 0.0000
# 5 0.0000 0.0000 0.0000 0.0000 32.0795 0.0000
# 6 0.0000 0.0000 0.0000 0.0000 0.0000 30.6968
#
#
#
# Elastic Compliance Matrix: (Units=1/GPa)
#
#
# Indices 1 2 3 4 5 6 
#
# 1 0.020500 -0.005306 -0.012479 0.000000 0.000000 0.000000
# 2 -0.005306 0.027392 -0.005605 0.000000 0.000000 0.000000
# 3 -0.012479 -0.005605 0.018268 0.000000 0.000000 0.000000
# 4 0.000000 0.000000 0.000000 0.056884 0.000000 0.000000
# 5 0.000000 0.000000 0.000000 0.000000 0.031173 0.000000
# 6 0.000000 0.000000 0.000000 0.000000 0.000000 0.032577
#
#
# Mechanical properties :
#
#
# Convention : Reuss Voigt Hill
#
# Bulk Modulus (GPa) = 51.60261 72.24134 61.92198
# Shear Modulus (GPa) = 20.83038 24.24305 22.53672
#
# Velocity S-wave (km/s) = 3.40223 3.67036 3.53884
# Velocity P-wave (km/s) = 6.64143 7.62271 7.14893
#
# Compressibility (1/GPa) = 0.01937886
#
# Stress axis : x y z
#
# Youngs Moduli (GPa) = 48.77961 36.50680 54.74157
#
# Poissons Ratio (x) = 0.19372 0.68312
# Poissons Ratio (y) = 0.25884 0.30684
# Poissons Ratio (z) = 0.60872 0.20463
#
# Static dielectric constant tensor:
#      x y z
#    x 3.440480 0.000000 0.000000 
#    y 0.000000 3.166390 0.000000 
#    z 0.000000 0.000000 3.500720 
# 
# 
# High freq. dielectric constant tensor:
#      x y z
#    x 1.698310 0.000000 0.000000 
#    y 0.000000 1.681130 0.000000 
#    z 0.000000 0.000000 1.707070 
# 
# From -- ./inp_files/67525.got.cif
#   From: 2010.03.12/outbox.cif.g09.slc.cpg/sg65_34_cif.got.tgz:67525.got - 2010.04.10 20:52:16.
