data_PCOD8271883
_publ_section_title
;
Structure prediction by ZEFSAII (Michael W. Deem and Ramdas Pophale) SiO2 
 PCOD8271883
Probable space group: C M M M
;
_chemical_formula_sum "Si O2"
_cell_formula_units_Z 104
_cell_length_a 29.737271
_cell_length_b 19.622346
_cell_length_c 9.204178
_cell_angle_alpha 90.000000
_cell_angle_beta 90.000000
_cell_angle_gamma 90.000000
_cell_volume 5370.776116
_symmetry_space_group_name_H-M "C M M M"
_symmetry_group_IT_number 65
_symmetry_cell_setting 'orthorhombic'
loop_
_space_group_symop_operation_xyz
x,y,z
-x,-y,z
x,-y,-z
-x,y,-z
-x,-y,-z
x,y,-z
-x,y,z
x,-y,z
1/2+x,1/2+y,z
1/2-x,1/2-y,z
1/2+x,1/2-y,-z
1/2-x,1/2+y,-z
1/2-x,1/2-y,-z
1/2+x,1/2+y,-z
1/2-x,1/2+y,z
1/2+x,1/2-y,z
loop_
_atom_site_type_symbol
_atom_site_label
_atom_site_fract_x
_atom_site_fract_y
_atom_site_fract_z
Si Si1 0.761035 0.000000 0.672018
Si Si2 0.658737 0.000000 0.671799
Si Si3 0.318693 0.606174 0.837353
Si Si4 0.947847 0.745650 0.669976
Si Si5 0.199662 0.258881 0.832284
Si Si6 0.951098 0.000000 0.346597
Si Si7 0.869232 0.353589 0.329799
Si Si8 0.918827 0.879580 0.832375
O O1 0.710028 0.000000 0.731081
O O2 0.786032 0.932211 0.727283
O O3 0.763072 0.000000 0.500000
O O4 0.632283 0.932237 0.725383
O O5 0.660829 0.000000 0.500000
O O6 0.322956 0.686256 0.809609
O O7 0.370058 0.584523 0.816988
O O8 0.301091 0.590198 0.000000
O O9 0.944665 0.763470 0.500000
O O10 0.918216 0.678204 0.707013
O O11 0.925012 0.806086 0.759490
O O12 0.000000 0.733057 0.715272
O O13 0.250000 0.250000 0.771020
O O14 0.171953 0.314496 0.744509
O O15 0.200535 0.282126 0.000000
O O16 0.949167 0.067329 0.250128
O O17 0.921656 0.000000 0.500000
O O18 0.000000 0.000000 0.410150
O O19 0.859533 0.349531 0.500000
O O20 0.932741 0.871779 0.000000
#
# Coordination Sequence:
#
# PCOD8271883 Si02
#       8
#     8   8  16  16  16   8  16  16
#     4  11  22  34  53  81 113 150 195 234 270 329
#     4   9  20  38  57  83 115 146 183 232 285 337
#     4  10  21  36  52  76 112 147 181 225 273 322
#     4  10  21  37  58  85 114 147 191 242 294 345
#     4  10  20  35  56  82 113 147 185 230 276 328
#     4  11  24  39  54  76 109 145 184 233 278 324
#     4  10  20  37  60  82 112 150 187 232 286 343
#     4  11  22  37  57  81 111 149 190 233 281 336
#
# _framework density 19.364055
#
# number of rings (size 3 to 8) (size 9 to 14) (size 15 to 20)
#    0.000    1.769    1.538    2.769    0.000    6.769 
#    0.000    1.538    0.000    2.308    0.000    0.000 
#    0.000    2.462    0.000    0.000    0.000    0.000 
#
# Total GULP energy -644478.528594 kJ/mol
# GULP energy per Si atom -12393.817858 kJ/mol
# Density = 1.931998 g / cm^3
# Si number density = 19.364055 Si / 1000 Ang^3
#
#
#
# Elastic Constant Matrix: (Units=GPa)
#
#
# Indices 1 2 3 4 5 6 
#
# 1 99.1581 56.9267 42.6192 0.0000 0.0000 0.0000
# 2 56.9267 133.1214 50.8839 0.0000 0.0000 0.0000
# 3 42.6192 50.8839 80.4256 0.0000 0.0000 0.0000
# 4 0.0000 0.0000 0.0000 9.3112 0.0000 0.0000
# 5 0.0000 0.0000 0.0000 0.0000 17.3050 0.0000
# 6 0.0000 0.0000 0.0000 0.0000 0.0000 -37.8734
#
#
#
# Elastic Compliance Matrix: (Units=1/GPa)
#
#
# Indices 1 2 3 4 5 6 
#
# 1 0.014776 -0.004386 -0.005055 0.000000 0.000000 0.000000
# 2 -0.004386 0.011210 -0.004768 0.000000 0.000000 0.000000
# 3 -0.005055 -0.004768 0.018129 0.000000 0.000000 0.000000
# 4 0.000000 0.000000 0.000000 0.107398 0.000000 0.000000
# 5 0.000000 0.000000 0.000000 0.000000 0.057787 0.000000
# 6 0.000000 0.000000 0.000000 0.000000 0.000000 -0.026404
#
#
# Mechanical properties :
#
#
# Convention : Reuss Voigt Hill
#
# Bulk Modulus (GPa) = 63.70796 68.17385 65.94091
# Shear Modulus (GPa) = 23.08971 8.56692 15.82832
#
# Velocity S-wave (km/s) = 3.45686 2.10565 2.86213
# Velocity P-wave (km/s) = 6.99319 6.41829 6.71190
#
# Compressibility (1/GPa) = 0.01569663
#
# Stress axis : x y z
#
# Youngs Moduli (GPa) = 67.67845 89.20411 55.15983
#
# Poissons Ratio (x) = 0.39129 0.27882
# Poissons Ratio (y) = 0.29687 0.26301
# Poissons Ratio (z) = 0.34210 0.42533
#
# Static dielectric constant tensor:
#      x y z
#    x 3.667910 0.000000 0.000000 
#    y 0.000000 3.971200 0.000000 
#    z 0.000000 0.000000 3.424360 
# 
# 
# High freq. dielectric constant tensor:
#      x y z
#    x 1.754930 0.000000 0.000000 
#    y 0.000000 1.755390 0.000000 
#    z 0.000000 0.000000 1.747710 
# 
# From -- ./inp_files/16570.got.cif
#   From: 2010.03.12/outbox.cif.g09.slc.cpg/sg65_9_cif.got.tgz:16570.got - 2010.04.10 20:52:16.
