data_PCOD8271277
_publ_section_title
;
Structure prediction by ZEFSAII (Michael W. Deem and Ramdas Pophale) SiO2 
 PCOD8271277
Probable space group: C M M M
;
_chemical_formula_sum "Si O2"
_cell_formula_units_Z 96
_cell_length_a 24.249864
_cell_length_b 17.158269
_cell_length_c 12.520984
_cell_angle_alpha 90.000000
_cell_angle_beta 90.000000
_cell_angle_gamma 90.000000
_cell_volume 5209.802264
_symmetry_space_group_name_H-M "C M M M"
_symmetry_group_IT_number 65
_symmetry_cell_setting 'orthorhombic'
loop_
_space_group_symop_operation_xyz
x,y,z
-x,-y,z
x,-y,-z
-x,y,-z
-x,-y,-z
x,y,-z
-x,y,z
x,-y,z
1/2+x,1/2+y,z
1/2-x,1/2-y,z
1/2+x,1/2-y,-z
1/2-x,1/2+y,-z
1/2-x,1/2-y,-z
1/2+x,1/2+y,-z
1/2-x,1/2+y,z
1/2+x,1/2-y,z
loop_
_atom_site_type_symbol
_atom_site_label
_atom_site_fract_x
_atom_site_fract_y
_atom_site_fract_z
Si Si1 0.437403 0.792193 0.312273
Si Si2 0.236932 0.159416 0.695783
Si Si3 0.828625 0.909081 0.500000
Si Si4 0.437988 0.684799 0.121120
Si Si5 0.562682 0.326851 0.500000
Si Si6 0.667494 0.410910 0.123683
Si Si7 0.153225 0.590224 0.622550
O O1 0.500000 0.821485 0.323524
O O2 0.424597 0.758796 0.195006
O O3 0.425012 0.724321 0.396157
O O4 0.399570 0.866089 0.331910
O O5 0.250000 0.250000 0.682666
O O6 0.195637 0.132282 0.603831
O O7 0.209019 0.143109 0.809833
O O8 0.293371 0.111396 0.691169
O O9 0.894879 0.898961 0.500000
O O10 0.813042 0.000000 0.500000
O O11 0.500000 0.653404 0.144733
O O12 0.395662 0.614817 0.143684
O O13 0.432451 0.714891 0.000000
O O14 0.500000 0.359043 0.500000
O O15 0.672498 0.500000 0.162222
O O16 0.683774 0.401796 0.000000
O O17 0.164595 0.613908 0.500000
O O18 0.139905 0.500000 0.634359
#
# Coordination Sequence:
#
# PCOD8271277 Si02
#       7
#    16  16   8  16   8  16  16
#     4  10  20  36  57  81 111 143 177 226 280 330
#     4  12  24  38  58  81 109 147 190 232 275 332
#     4  12  23  36  56  80 110 145 182 227 278 327
#     4   9  18  34  57  83 111 148 191 228 266 320
#     4  10  20  34  53  79 110 143 179 218 271 333
#     4  10  21  37  57  83 116 149 183 230 284 330
#     4  11  22  36  56  82 111 141 182 232 280 333
#
# _framework density 18.426803
#
# number of rings (size 3 to 8) (size 9 to 14) (size 15 to 20)
#    0.000    1.500    1.667    4.750    0.000    1.167 
#    0.000    3.333    0.000    6.500    0.000    2.333 
#    0.000    0.000    0.000    0.000    0.000    0.000 
#
# Total GULP energy -595383.401189 kJ/mol
# GULP energy per Si atom -12403.820858 kJ/mol
# Density = 1.838486 g / cm^3
# Si number density = 18.426803 Si / 1000 Ang^3
#
#
#
# Elastic Constant Matrix: (Units=GPa)
#
#
# Indices 1 2 3 4 5 6 
#
# 1 116.5326 60.3272 50.1932 0.0000 0.0000 0.0000
# 2 60.3272 107.5161 49.9351 0.0000 0.0000 0.0000
# 3 50.1932 49.9351 97.6509 0.0000 0.0000 0.0000
# 4 0.0000 0.0000 0.0000 24.8702 0.0000 0.0000
# 5 0.0000 0.0000 0.0000 0.0000 101.6946 0.0000
# 6 0.0000 0.0000 0.0000 0.0000 0.0000 29.1085
#
#
#
# Elastic Compliance Matrix: (Units=1/GPa)
#
#
# Indices 1 2 3 4 5 6 
#
# 1 0.013144 -0.005557 -0.003914 0.000000 0.000000 0.000000
# 2 -0.005557 0.014547 -0.004583 0.000000 0.000000 0.000000
# 3 -0.003914 -0.004583 0.014596 0.000000 0.000000 0.000000
# 4 0.000000 0.000000 0.000000 0.040209 0.000000 0.000000
# 5 0.000000 0.000000 0.000000 0.000000 0.009833 0.000000
# 6 0.000000 0.000000 0.000000 0.000000 0.000000 0.034354
#
#
# Mechanical properties :
#
#
# Convention : Reuss Voigt Hill
#
# Bulk Modulus (GPa) = 70.52611 71.40119 70.96365
# Shear Modulus (GPa) = 31.34426 41.88426 36.61426
#
# Velocity S-wave (km/s) = 4.12881 4.77278 4.46243
# Velocity P-wave (km/s) = 7.81576 8.31897 8.07129
#
# Compressibility (1/GPa) = 0.01417915
#
# Stress axis : x y z
#
# Youngs Moduli (GPa) = 76.07919 68.74080 68.51185
#
# Poissons Ratio (x) = 0.38200 0.26819
# Poissons Ratio (y) = 0.42278 0.31396
# Poissons Ratio (z) = 0.29781 0.31501
#
# Static dielectric constant tensor:
#      x y z
#    x 3.551340 0.000000 0.000000 
#    y 0.000000 3.216190 0.000000 
#    z 0.000000 0.000000 3.538960 
# 
# 
# High freq. dielectric constant tensor:
#      x y z
#    x 1.728490 0.000000 0.000000 
#    y 0.000000 1.699700 0.000000 
#    z 0.000000 0.000000 1.719600 
# 
# From -- ./inp_files/30859.got.cif
#   From: 2010.03.12/outbox.cif.g09.slc.cpg/sg65_16_cif.got.tgz:30859.got - 2010.04.10 20:52:16.
