data_PCOD8271203
_publ_section_title
;
Structure prediction by ZEFSAII (Michael W. Deem and Ramdas Pophale) SiO2 
 PCOD8271203
Probable space group: C M M M
;
_chemical_formula_sum "Si O2"
_cell_formula_units_Z 88
_cell_length_a 9.131376
_cell_length_b 18.802085
_cell_length_c 27.783364
_cell_angle_alpha 90.000000
_cell_angle_beta 90.000000
_cell_angle_gamma 90.000000
_cell_volume 4770.095418
_symmetry_space_group_name_H-M "C M M M"
_symmetry_group_IT_number 65
_symmetry_cell_setting 'orthorhombic'
loop_
_space_group_symop_operation_xyz
x,y,z
-x,-y,z
x,-y,-z
-x,y,-z
-x,-y,-z
x,y,-z
-x,y,z
x,-y,z
1/2+x,1/2+y,z
1/2-x,1/2-y,z
1/2+x,1/2-y,-z
1/2-x,1/2+y,-z
1/2-x,1/2-y,-z
1/2+x,1/2+y,-z
1/2-x,1/2+y,z
1/2+x,1/2-y,z
loop_
_atom_site_type_symbol
_atom_site_label
_atom_site_fract_x
_atom_site_fract_y
_atom_site_fract_z
Si Si1 0.171138 0.417434 0.407767
Si Si2 0.328435 0.174273 0.500000
Si Si3 0.327768 0.323245 0.333257
Si Si4 0.828611 0.177019 0.945816
Si Si5 0.674034 0.421524 0.139172
Si Si6 0.670625 0.321222 0.223015
O O1 0.209280 0.500000 0.416933
O O2 0.218809 0.371844 0.453997
O O3 0.264352 0.389242 0.362899
O O4 0.000000 0.407837 0.396507
O O5 0.500000 0.189268 0.500000
O O6 0.250000 0.250000 0.500000
O O7 0.500000 0.314875 0.342812
O O8 0.250000 0.250000 0.349318
O O9 0.291958 0.341295 0.277880
O O10 0.750000 0.250000 0.933425
O O11 0.769134 0.118558 0.908493
O O12 0.000000 0.190115 0.939040
O O13 0.792066 0.151133 0.000000
O O14 0.500000 0.425731 0.138289
O O15 0.743393 0.500000 0.138929
O O16 0.727383 0.383396 0.188052
O O17 0.500000 0.307459 0.216156
O O18 0.750000 0.250000 0.206688
#
# Coordination Sequence:
#
# PCOD8271203 Si02
#       6
#    16   8  16  16  16  16
#     4  10  21  37  56  78 106 138 169 204 249 298
#     4  10  21  37  57  79 103 134 171 208 246 292
#     4  10  20  34  53  77 103 132 169 210 250 295
#     4   9  17  29  47  70  93 120 156 197 239 284
#     4   9  17  29  46  69  96 125 158 197 241 287
#     4   9  18  32  51  72  95 127 164 202 242 286
#
# _framework density 18.448269
#
# number of rings (size 3 to 8) (size 9 to 14) (size 15 to 20)
#    0.000    2.545    0.000    1.909    0.000    5.455 
#    0.000    3.636    0.000    3.818    0.000    2.545 
#    0.000    0.000    0.000    0.000    0.000    0.000 
#
# Total GULP energy -545635.362931 kJ/mol
# GULP energy per Si atom -12400.803703 kJ/mol
# Density = 1.840628 g / cm^3
# Si number density = 18.448269 Si / 1000 Ang^3
#
#
#
# Elastic Constant Matrix: (Units=GPa)
#
#
# Indices 1 2 3 4 5 6 
#
# 1 40.4211 47.2252 38.5725 0.0000 0.0000 0.0000
# 2 47.2252 172.3745 98.1614 0.0000 0.0000 0.0000
# 3 38.5725 98.1614 131.2486 0.0000 0.0000 0.0000
# 4 0.0000 0.0000 0.0000 28.1471 0.0000 0.0000
# 5 0.0000 0.0000 0.0000 0.0000 20.2121 0.0000
# 6 0.0000 0.0000 0.0000 0.0000 0.0000 27.8646
#
#
#
# Elastic Compliance Matrix: (Units=1/GPa)
#
#
# Indices 1 2 3 4 5 6 
#
# 1 0.038952 -0.007233 -0.006038 0.000000 0.000000 0.000000
# 2 -0.007233 0.011448 -0.006437 0.000000 0.000000 0.000000
# 3 -0.006038 -0.006437 0.014207 0.000000 0.000000 0.000000
# 4 0.000000 0.000000 0.000000 0.035528 0.000000 0.000000
# 5 0.000000 0.000000 0.000000 0.000000 0.049475 0.000000
# 6 0.000000 0.000000 0.000000 0.000000 0.000000 0.035888
#
#
# Mechanical properties :
#
#
# Convention : Reuss Voigt Hill
#
# Bulk Modulus (GPa) = 39.69396 79.10695 59.40046
# Shear Modulus (GPa) = 21.43058 25.91711 23.67384
#
# Velocity S-wave (km/s) = 3.41201 3.75220 3.58614
# Velocity P-wave (km/s) = 6.08978 7.85783 7.02962
#
# Compressibility (1/GPa) = 0.02519275
#
# Stress axis : x y z
#
# Youngs Moduli (GPa) = 25.67256 87.34834 70.38568
#
# Poissons Ratio (x) = 0.63182 0.42497
# Poissons Ratio (y) = 0.18570 0.45304
# Poissons Ratio (z) = 0.15500 0.56222
#
# Static dielectric constant tensor:
#      x y z
#    x 3.178630 0.000000 0.000000 
#    y 0.000000 3.538290 0.000000 
#    z 0.000000 0.000000 3.613080 
# 
# 
# High freq. dielectric constant tensor:
#      x y z
#    x 1.691540 0.000000 0.000000 
#    y 0.000000 1.715490 0.000000 
#    z 0.000000 0.000000 1.730370 
# 
# From -- ./inp_files/76507.got.cif
#   From: 2010.03.12/outbox.cif.g09.slc.cpg/sg65_39_cif.got.tgz:76507.got - 2010.04.10 20:52:16.
