data_PCOD8271755
_publ_section_title
;
Structure prediction by ZEFSAII (Michael W. Deem and Ramdas Pophale) SiO2 
 PCOD8271755
Probable space group: C M M M
;
_chemical_formula_sum "Si O2"
_cell_formula_units_Z 72
_cell_length_a 19.077200
_cell_length_b 22.104384
_cell_length_c 9.213344
_cell_angle_alpha 90.000000
_cell_angle_beta 90.000000
_cell_angle_gamma 90.000000
_cell_volume 3885.172769
_symmetry_space_group_name_H-M "C M M M"
_symmetry_group_IT_number 65
_symmetry_cell_setting 'orthorhombic'
loop_
_space_group_symop_operation_xyz
x,y,z
-x,-y,z
x,-y,-z
-x,y,-z
-x,-y,-z
x,y,-z
-x,y,z
x,-y,z
1/2+x,1/2+y,z
1/2-x,1/2-y,z
1/2+x,1/2-y,-z
1/2-x,1/2+y,-z
1/2-x,1/2-y,-z
1/2+x,1/2+y,-z
1/2-x,1/2+y,z
1/2+x,1/2-y,z
loop_
_atom_site_type_symbol
_atom_site_label
_atom_site_fract_x
_atom_site_fract_y
_atom_site_fract_z
Si Si1 0.339029 0.384798 0.171805
Si Si2 0.810281 0.429656 0.832232
Si Si3 0.418907 0.854132 0.668984
Si Si4 0.581113 0.732626 0.169082
Si Si5 0.920928 0.000000 0.826518
O O1 0.257822 0.391240 0.216442
O O2 0.371191 0.322009 0.230138
O O3 0.382773 0.440733 0.237308
O O4 0.347050 0.386603 0.000000
O O5 0.794486 0.500000 0.805073
O O6 0.875630 0.409534 0.735410
O O7 0.828435 0.417649 0.000000
O O8 0.402710 0.848485 0.500000
O O9 0.500000 0.868139 0.699760
O O10 0.395725 0.791950 0.744441
O O11 0.500000 0.716093 0.197042
O O12 0.595224 0.744908 0.000000
O O13 0.000000 0.000000 0.769197
O O14 0.917876 0.000000 0.000000
#
# Coordination Sequence:
#
# PCOD8271755 Si02
#       5
#    16  16  16  16   8
#     4   9  16  28  47  76 111 141 169 206 253 301
#     4  10  20  35  55  78 107 139 170 210 259 311
#     4  10  22  39  56  74  99 133 174 221 269 313
#     4   9  17  31  53  80 108 138 174 213 252 300
#     4   9  14  22  42  74 110 143 172 204 245 295
#
# _framework density 18.531994000000001
#
# number of rings (size 3 to 8) (size 9 to 14) (size 15 to 20)
#    0.000    2.556    1.111    1.333    0.000    5.778 
#    0.000    7.778    0.000    0.000    0.000    0.000 
#    0.000    5.333    0.000    0.000    0.000    0.000 
#
# Total GULP energy -446441.308109 kJ/mol
# GULP energy per Si atom -12401.147447 kJ/mol
# Density = 1.848981 g / cm^3
# Si number density = 18.531994 Si / 1000 Ang^3
#
#
#
# Elastic Constant Matrix: (Units=GPa)
#
#
# Indices 1 2 3 4 5 6 
#
# 1 94.4064 50.6094 39.4490 0.0000 0.0000 0.0000
# 2 50.6094 80.9582 35.9694 0.0000 0.0000 0.0000
# 3 39.4490 35.9694 51.5954 0.0000 0.0000 0.0000
# 4 0.0000 0.0000 0.0000 1.8769 0.0000 0.0000
# 5 0.0000 0.0000 0.0000 0.0000 14.3382 0.0000
# 6 0.0000 0.0000 0.0000 0.0000 0.0000 40.4275
#
#
#
# Elastic Compliance Matrix: (Units=1/GPa)
#
#
# Indices 1 2 3 4 5 6 
#
# 1 0.018285 -0.007561 -0.008709 0.000000 0.000000 0.000000
# 2 -0.007561 0.021021 -0.008874 0.000000 0.000000 0.000000
# 3 -0.008709 -0.008874 0.032227 0.000000 0.000000 0.000000
# 4 0.000000 0.000000 0.000000 0.532804 0.000000 0.000000
# 5 0.000000 0.000000 0.000000 0.000000 0.069744 0.000000
# 6 0.000000 0.000000 0.000000 0.000000 0.000000 0.024736
#
#
# Mechanical properties :
#
#
# Convention : Reuss Voigt Hill
#
# Bulk Modulus (GPa) = 47.07014 53.22396 50.14705
# Shear Modulus (GPa) = 6.61212 18.05731 12.33472
#
# Velocity S-wave (km/s) = 1.89095 3.12490 2.58270
# Velocity P-wave (km/s) = 5.49747 6.46548 6.00102
#
# Compressibility (1/GPa) = 0.02124489
#
# Stress axis : x y z
#
# Youngs Moduli (GPa) = 54.68907 47.57078 31.02998
#
# Poissons Ratio (x) = 0.35969 0.27025
# Poissons Ratio (y) = 0.41351 0.27535
# Poissons Ratio (z) = 0.47631 0.42213
#
# Static dielectric constant tensor:
#      x y z
#    x 3.442620 0.000000 0.000000 
#    y 0.000000 3.488370 0.000000 
#    z 0.000000 0.000000 3.004270 
# 
# 
# High freq. dielectric constant tensor:
#      x y z
#    x 1.724810 0.000000 0.000000 
#    y 0.000000 1.726640 0.000000 
#    z 0.000000 0.000000 1.672080 
# 
# From -- ./inp_files/11224.got.cif
#   From: 2010.03.12/outbox.cif.g09.slc.cpg/sg65_6_cif.got.tgz:11224.got - 2010.04.10 20:52:16.
