data_PCOD8271501
_publ_section_title
;
Structure prediction by ZEFSAII (Michael W. Deem and Ramdas Pophale) SiO2 
 PCOD8271501
Probable space group: C M M M
;
_chemical_formula_sum "Si O2"
_cell_formula_units_Z 104
_cell_length_a 26.531966
_cell_length_b 9.168754
_cell_length_c 22.732105
_cell_angle_alpha 90.000000
_cell_angle_beta 90.000000
_cell_angle_gamma 90.000000
_cell_volume 5529.927100
_symmetry_space_group_name_H-M "C M M M"
_symmetry_group_IT_number 65
_symmetry_cell_setting 'orthorhombic'
loop_
_space_group_symop_operation_xyz
x,y,z
-x,-y,z
x,-y,-z
-x,y,-z
-x,-y,-z
x,y,-z
-x,y,z
x,-y,z
1/2+x,1/2+y,z
1/2-x,1/2-y,z
1/2+x,1/2-y,-z
1/2-x,1/2+y,-z
1/2-x,1/2-y,-z
1/2+x,1/2+y,-z
1/2-x,1/2+y,z
1/2+x,1/2-y,z
loop_
_atom_site_type_symbol
_atom_site_label
_atom_site_fract_x
_atom_site_fract_y
_atom_site_fract_z
Si Si1 0.556027 0.665538 0.359817
Si Si2 0.300151 0.329443 0.068022
Si Si3 0.201638 0.668813 0.330256
Si Si4 0.348891 0.329960 0.566979
Si Si5 0.102560 0.331172 0.257481
Si Si6 0.500000 0.673270 0.933915
Si Si7 0.099226 0.173275 0.134504
O O1 0.500000 0.686720 0.385319
O O2 0.565021 0.500000 0.337904
O O3 0.594124 0.704075 0.412402
O O4 0.562504 0.771294 0.304265
O O5 0.291808 0.500000 0.077389
O O6 0.250000 0.250000 0.092400
O O7 0.349604 0.274248 0.102459
O O8 0.308888 0.289986 0.000000
O O9 0.213307 0.500000 0.339867
O O10 0.250000 0.750000 0.303545
O O11 0.189365 0.737761 0.393656
O O12 0.158036 0.695256 0.283143
O O13 0.343365 0.277730 0.500000
O O14 0.335888 0.500000 0.573842
O O15 0.091409 0.500000 0.245796
O O16 0.096680 0.243301 0.198046
O O17 0.500000 0.500000 0.935818
O O18 0.449513 0.729087 0.901502
O O19 0.500000 0.736818 0.000000
O O20 0.098424 0.000000 0.140706
#
# Coordination Sequence:
#
# PCOD8271501 Si02
#       7
#    16  16  16  16  16   8  16
#     4   9  18  33  54  77 103 137 175 215 258 307
#     4   9  18  33  53  77 105 137 173 215 263 315
#     4  10  21  37  56  76 102 139 179 219 266 315
#     4   9  18  33  53  79 109 138 172 215 262 314
#     4  10  22  37  52  75 106 138 173 216 264 313
#     4   9  18  34  57  83 109 139 178 223 266 313
#     4  10  20  34  55  81 107 138 178 222 266 317
#
# _framework density 18.806757000000001
#
# number of rings (size 3 to 8) (size 9 to 14) (size 15 to 20)
#    0.000    2.538    0.000    1.385    1.077    6.154 
#    0.000    4.615    0.000    1.846    0.000    4.308 
#    0.000    0.000    0.000    0.000    0.000    0.000 
#
# Total GULP energy -644867.644461 kJ/mol
# GULP energy per Si atom -12401.300855 kJ/mol
# Density = 1.876395 g / cm^3
# Si number density = 18.806757 Si / 1000 Ang^3
#
#
#
# Elastic Constant Matrix: (Units=GPa)
#
#
# Indices 1 2 3 4 5 6 
#
# 1 105.7165 31.2757 28.2901 0.0000 0.0000 0.0000
# 2 31.2757 47.5094 28.8397 0.0000 0.0000 0.0000
# 3 28.2901 28.8397 99.5433 0.0000 0.0000 0.0000
# 4 0.0000 0.0000 0.0000 22.2525 0.0000 0.0000
# 5 0.0000 0.0000 0.0000 0.0000 12.0679 0.0000
# 6 0.0000 0.0000 0.0000 0.0000 0.0000 27.4953
#
#
#
# Elastic Compliance Matrix: (Units=1/GPa)
#
#
# Indices 1 2 3 4 5 6 
#
# 1 0.011895 -0.007011 -0.001349 0.000000 0.000000 0.000000
# 2 -0.007011 0.029673 -0.006604 0.000000 0.000000 0.000000
# 3 -0.001349 -0.006604 0.012343 0.000000 0.000000 0.000000
# 4 0.000000 0.000000 0.000000 0.044939 0.000000 0.000000
# 5 0.000000 0.000000 0.000000 0.000000 0.082865 0.000000
# 6 0.000000 0.000000 0.000000 0.000000 0.000000 0.036370
#
#
# Mechanical properties :
#
#
# Convention : Reuss Voigt Hill
#
# Bulk Modulus (GPa) = 41.69980 47.73112 44.71546
# Shear Modulus (GPa) = 19.53074 23.32070 21.42572
#
# Velocity S-wave (km/s) = 3.22607 3.52521 3.37895
# Velocity P-wave (km/s) = 6.00813 6.48107 6.24908
#
# Compressibility (1/GPa) = 0.02398093
#
# Stress axis : x y z
#
# Youngs Moduli (GPa) = 84.07212 33.70056 81.01956
#
# Poissons Ratio (x) = 0.23629 0.10930
# Poissons Ratio (y) = 0.58946 0.53508
# Poissons Ratio (z) = 0.11342 0.22257
#
# Static dielectric constant tensor:
#      x y z
#    x 3.645540 0.000000 0.000000 
#    y 0.000000 3.357250 0.000000 
#    z 0.000000 0.000000 3.358850 
# 
# 
# High freq. dielectric constant tensor:
#      x y z
#    x 1.742120 0.000000 0.000000 
#    y 0.000000 1.717020 0.000000 
#    z 0.000000 0.000000 1.724410 
# 
# From -- ./inp_files/65844.got.cif
#   From: 2010.03.12/outbox.cif.g09.slc.cpg/sg65_33_cif.got.tgz:65844.got - 2010.04.10 20:52:16.
