data_PCOD8271781
_publ_section_title
;
Structure prediction by ZEFSAII (Michael W. Deem and Ramdas Pophale) SiO2 
 PCOD8271781
Probable space group: C M M M
;
_chemical_formula_sum "Si O2"
_cell_formula_units_Z 88
_cell_length_a 23.892211
_cell_length_b 8.810212
_cell_length_c 22.775377
_cell_angle_alpha 90.000000
_cell_angle_beta 90.000000
_cell_angle_gamma 90.000000
_cell_volume 4794.113095
_symmetry_space_group_name_H-M "C M M M"
_symmetry_group_IT_number 65
_symmetry_cell_setting 'orthorhombic'
loop_
_space_group_symop_operation_xyz
x,y,z
-x,-y,z
x,-y,-z
-x,y,-z
-x,-y,-z
x,y,-z
-x,y,z
x,-y,z
1/2+x,1/2+y,z
1/2-x,1/2-y,z
1/2+x,1/2-y,-z
1/2-x,1/2+y,-z
1/2-x,1/2-y,-z
1/2+x,1/2+y,-z
1/2-x,1/2+y,z
1/2+x,1/2-y,z
loop_
_atom_site_type_symbol
_atom_site_label
_atom_site_fract_x
_atom_site_fract_y
_atom_site_fract_z
Si Si1 0.000000 0.822606 0.314656
Si Si2 0.309817 0.825398 0.433485
Si Si3 0.500000 0.323611 0.181289
Si Si4 0.622070 0.680812 0.667960
Si Si5 0.188771 0.679442 0.223053
Si Si6 0.935414 0.320640 0.000000
Si Si7 0.605406 0.822370 0.123664
O O1 0.000000 0.775746 0.247807
O O2 0.941782 0.758462 0.340547
O O3 0.000000 0.000000 0.324738
O O4 0.332447 0.813751 0.500000
O O5 0.250000 0.750000 0.428094
O O6 0.349756 0.729866 0.392132
O O7 0.306303 0.000000 0.412850
O O8 0.500000 0.500000 0.170264
O O9 0.445004 0.257038 0.154682
O O10 0.624755 0.500000 0.676435
O O11 0.650853 0.754740 0.724761
O O12 0.193382 0.500000 0.231884
O O13 0.250000 0.750000 0.226067
O O14 0.162194 0.720723 0.158968
O O15 0.897888 0.267055 0.055797
O O16 0.941462 0.500000 0.000000
O O17 0.000000 0.254397 0.000000
O O18 0.595321 0.000000 0.127244
#
# Coordination Sequence:
#
# PCOD8271781 Si02
#       7
#     8  16   8  16  16   8  16
#     4   9  20  35  53  81 113 147 176 214 271 326
#     4  10  21  38  59  84 113 146 186 229 272 316
#     4  11  19  32  54  80 113 144 174 220 276 323
#     4  11  21  37  59  83 113 145 182 222 270 324
#     4  11  23  37  55  79 108 142 183 226 273 324
#     4   9  16  30  55  80 106 138 176 224 271 320
#     4  10  20  35  55  80 107 141 184 224 268 326
#
# _framework density 18.355844000000001
#
# number of rings (size 3 to 8) (size 9 to 14) (size 15 to 20)
#    0.000    1.727    2.727    2.455    0.000    1.818 
#    0.000    3.636    0.000    2.727    0.000    0.000 
#    0.000    0.000    0.000    0.000    0.000    0.000 
#
# Total GULP energy -545278.128507 kJ/mol
# GULP energy per Si atom -12392.684739 kJ/mol
# Density = 1.831407 g / cm^3
# Si number density = 18.355844 Si / 1000 Ang^3
#
#
#
# Elastic Constant Matrix: (Units=GPa)
#
#
# Indices 1 2 3 4 5 6 
#
# 1 136.2901 37.9764 64.6762 0.0000 0.0000 0.0000
# 2 37.9764 53.5867 35.3606 0.0000 0.0000 0.0000
# 3 64.6762 35.3606 124.3284 0.0000 0.0000 0.0000
# 4 0.0000 0.0000 0.0000 20.4920 0.0000 0.0000
# 5 0.0000 0.0000 0.0000 0.0000 39.9331 0.0000
# 6 0.0000 0.0000 0.0000 0.0000 0.0000 -17.8216
#
#
#
# Elastic Compliance Matrix: (Units=1/GPa)
#
#
# Indices 1 2 3 4 5 6 
#
# 1 0.010657 -0.004794 -0.004180 0.000000 0.000000 0.000000
# 2 -0.004794 0.025129 -0.004653 0.000000 0.000000 0.000000
# 3 -0.004180 -0.004653 0.011541 0.000000 0.000000 0.000000
# 4 0.000000 0.000000 0.000000 0.048799 0.000000 0.000000
# 5 0.000000 0.000000 0.000000 0.000000 0.025042 0.000000
# 6 0.000000 0.000000 0.000000 0.000000 0.000000 -0.056112
#
#
# Mechanical properties :
#
#
# Convention : Reuss Voigt Hill
#
# Bulk Modulus (GPa) = 49.81949 65.58130 57.70040
# Shear Modulus (GPa) = 50.50352 20.26683 35.38518
#
# Velocity S-wave (km/s) = 5.25103 3.32642 4.39536
# Velocity P-wave (km/s) = 7.99777 7.11046 7.56713
#
# Compressibility (1/GPa) = 0.02007246
#
# Stress axis : x y z
#
# Youngs Moduli (GPa) = 93.83651 39.79411 86.64559
#
# Poissons Ratio (x) = 0.19077 0.36220
# Poissons Ratio (y) = 0.44985 0.40319
# Poissons Ratio (z) = 0.39226 0.18517
#
# Static dielectric constant tensor:
#      x y z
#    x 3.542640 0.000000 0.000000 
#    y 0.000000 3.386360 0.000000 
#    z 0.000000 0.000000 3.713990 
# 
# 
# High freq. dielectric constant tensor:
#      x y z
#    x 1.711900 0.000000 0.000000 
#    y 0.000000 1.707110 0.000000 
#    z 0.000000 0.000000 1.718010 
# 
# From -- ./inp_files/65255.got.cif
#   From: 2010.03.12/outbox.cif.g09.slc.cpg/sg65_33_cif.got.tgz:65255.got - 2010.04.10 20:52:16.
