data_PCOD8271047
_publ_section_title
;
Structure prediction by ZEFSAII (Michael W. Deem and Ramdas Pophale) SiO2 
 PCOD8271047
Probable space group: C M M M
;
_chemical_formula_sum "Si O2"
_cell_formula_units_Z 72
_cell_length_a 32.949323
_cell_length_b 14.340909
_cell_length_c 8.889845
_cell_angle_alpha 90.000000
_cell_angle_beta 90.000000
_cell_angle_gamma 90.000000
_cell_volume 4200.658387
_symmetry_space_group_name_H-M "C M M M"
_symmetry_group_IT_number 65
_symmetry_cell_setting 'orthorhombic'
loop_
_space_group_symop_operation_xyz
x,y,z
-x,-y,z
x,-y,-z
-x,y,-z
-x,-y,-z
x,y,-z
-x,y,z
x,-y,z
1/2+x,1/2+y,z
1/2-x,1/2-y,z
1/2+x,1/2-y,-z
1/2-x,1/2+y,-z
1/2-x,1/2-y,-z
1/2+x,1/2+y,-z
1/2-x,1/2+y,z
1/2+x,1/2-y,z
loop_
_atom_site_type_symbol
_atom_site_label
_atom_site_fract_x
_atom_site_fract_y
_atom_site_fract_z
Si Si1 0.000000 0.610785 0.830458
Si Si2 0.683110 0.394358 0.325246
Si Si3 0.154270 0.717712 0.824269
Si Si4 0.722838 0.107533 0.671404
Si Si5 0.918382 0.392735 0.677202
O O1 0.040145 0.647897 0.747276
O O2 0.000000 0.500000 0.825293
O O3 0.000000 0.649107 0.000000
O O4 0.674248 0.375954 0.500000
O O5 0.671440 0.500000 0.281706
O O6 0.655894 0.325750 0.225003
O O7 0.730285 0.376093 0.290236
O O8 0.196854 0.669398 0.784597
O O9 0.118642 0.667435 0.735909
O O10 0.145759 0.710302 0.000000
O O11 0.713600 0.138459 0.500000
O O12 0.710870 0.000000 0.692968
O O13 0.921566 0.382833 0.500000
O O14 0.911345 0.500000 0.725345
#
# Coordination Sequence:
#
# PCOD8271047 Si02
#       5
#     8  16  16  16  16
#     4   9  17  31  51  75 104 131 154 189 239 289
#     4   9  19  36  54  68  87 123 169 210 247 290
#     4  12  23  31  45  72 102 129 159 201 250 291
#     4   9  18  33  51  69  92 126 166 204 242 289
#     4  10  20  34  52  73  99 133 169 198 228 278
#
# _framework density 17.140170999999999
#
# number of rings (size 3 to 8) (size 9 to 14) (size 15 to 20)
#    0.000    2.111    0.000    5.667    0.000    9.778 
#    0.000    2.222    0.000    0.000    0.000    0.778 
#    0.000    6.222    0.000    0.000    0.000    0.000 
#
# Total GULP energy -446487.721345 kJ/mol
# GULP energy per Si atom -12402.436704 kJ/mol
# Density = 1.710116 g / cm^3
# Si number density = 17.140171 Si / 1000 Ang^3
#
#
#
# Elastic Constant Matrix: (Units=GPa)
#
#
# Indices 1 2 3 4 5 6 
#
# 1 70.2215 44.8680 31.4597 0.0000 0.0000 0.0000
# 2 44.8680 81.7425 32.8333 0.0000 0.0000 0.0000
# 3 31.4597 32.8333 68.8703 0.0000 0.0000 0.0000
# 4 0.0000 0.0000 0.0000 21.0527 0.0000 0.0000
# 5 0.0000 0.0000 0.0000 0.0000 12.3904 0.0000
# 6 0.0000 0.0000 0.0000 0.0000 0.0000 14.1741
#
#
#
# Elastic Compliance Matrix: (Units=1/GPa)
#
#
# Indices 1 2 3 4 5 6 
#
# 1 0.023612 -0.010672 -0.005698 0.000000 0.000000 0.000000
# 2 -0.010672 0.019954 -0.004638 0.000000 0.000000 0.000000
# 3 -0.005698 -0.004638 0.019334 0.000000 0.000000 0.000000
# 4 0.000000 0.000000 0.000000 0.047500 0.000000 0.000000
# 5 0.000000 0.000000 0.000000 0.000000 0.080708 0.000000
# 6 0.000000 0.000000 0.000000 0.000000 0.000000 0.070551
#
#
# Mechanical properties :
#
#
# Convention : Reuss Voigt Hill
#
# Bulk Modulus (GPa) = 47.88318 48.79515 48.33916
# Shear Modulus (GPa) = 16.09593 16.96833 16.53213
#
# Velocity S-wave (km/s) = 3.06776 3.14980 3.10905
# Velocity P-wave (km/s) = 6.36750 6.46207 6.41496
#
# Compressibility (1/GPa) = 0.02088416
#
# Stress axis : x y z
#
# Youngs Moduli (GPa) = 42.35077 50.11462 51.72180
#
# Poissons Ratio (x) = 0.53482 0.29473
# Poissons Ratio (y) = 0.45196 0.23989
# Poissons Ratio (z) = 0.24133 0.23244
#
# Static dielectric constant tensor:
#      x y z
#    x 3.148100 0.000000 0.000000 
#    y 0.000000 3.167320 0.000000 
#    z 0.000000 0.000000 3.180060 
# 
# 
# High freq. dielectric constant tensor:
#      x y z
#    x 1.646820 0.000000 0.000000 
#    y 0.000000 1.646340 0.000000 
#    z 0.000000 0.000000 1.663160 
# 
# From -- ./inp_files/7645.got.cif
#   From: 2010.03.12/outbox.cif.g09.slc.cpg/sg65_4_cif.got.tgz:7645.got - 2010.04.10 20:52:16.
