data_PCOD8271374
_publ_section_title
;
Structure prediction by ZEFSAII (Michael W. Deem and Ramdas Pophale) SiO2 
 PCOD8271374
Probable space group: C M M M
;
_chemical_formula_sum "Si O2"
_cell_formula_units_Z 72
_cell_length_a 28.919197
_cell_length_b 8.786866
_cell_length_c 14.443141
_cell_angle_alpha 90.000000
_cell_angle_beta 90.000000
_cell_angle_gamma 90.000000
_cell_volume 3670.133689
_symmetry_space_group_name_H-M "C M M M"
_symmetry_group_IT_number 65
_symmetry_cell_setting 'orthorhombic'
loop_
_space_group_symop_operation_xyz
x,y,z
-x,-y,z
x,-y,-z
-x,y,-z
-x,-y,-z
x,y,-z
-x,y,z
x,-y,z
1/2+x,1/2+y,z
1/2-x,1/2-y,z
1/2+x,1/2-y,-z
1/2-x,1/2+y,-z
1/2-x,1/2-y,-z
1/2+x,1/2+y,-z
1/2-x,1/2+y,z
1/2+x,1/2-y,z
loop_
_atom_site_type_symbol
_atom_site_label
_atom_site_fract_x
_atom_site_fract_y
_atom_site_fract_z
Si Si1 0.949103 0.820937 0.500000
Si Si2 0.883850 0.178787 0.849441
Si Si3 0.292597 0.165407 0.895218
Si Si4 0.054223 0.324002 0.000000
Si Si5 0.301477 0.181634 0.500000
Si Si6 0.372503 0.319596 0.360632
O O1 0.920080 0.770662 0.410321
O O2 0.000000 0.742779 0.500000
O O3 0.955744 0.000000 0.500000
O O4 0.836601 0.226243 0.897433
O O5 0.880187 0.236226 0.743920
O O6 0.890936 0.000000 0.854520
O O7 0.925990 0.252825 0.905449
O O8 0.250000 0.250000 0.842928
O O9 0.302155 0.000000 0.847943
O O10 0.277445 0.135137 0.000000
O O11 0.067683 0.500000 0.000000
O O12 0.000000 0.294759 0.000000
O O13 0.250000 0.250000 0.500000
O O14 0.328678 0.237335 0.407941
O O15 0.298555 0.000000 0.500000
O O16 0.363639 0.500000 0.367941
#
# Coordination Sequence:
#
# PCOD8271374 Si02
#       6
#     8  16  16   8   8  16
#     4   8  14  30  57  83 108 138 174 222 280 337
#     4  11  22  37  60  86 116 153 196 246 295 347
#     4  10  20  34  54  79 110 147 186 230 279 332
#     4  11  25  43  60  81 116 161 203 247 301 355
#     4  11  22  38  62  88 119 160 198 238 287 346
#     4   9  20  37  57  86 119 150 189 238 290 346
#
# _framework density 19.617813000000002
#
# number of rings (size 3 to 8) (size 9 to 14) (size 15 to 20)
#    0.000    2.000    1.111    3.333    0.000    5.333 
#    0.000    2.222    0.000    5.333    0.000    0.000 
#    0.000    0.000    0.000    0.000    0.000    0.000 
#
# Total GULP energy -446237.144912 kJ/mol
# GULP energy per Si atom -12395.476248 kJ/mol
# Density = 1.957316 g / cm^3
# Si number density = 19.617813 Si / 1000 Ang^3
#
#
#
# Elastic Constant Matrix: (Units=GPa)
#
#
# Indices 1 2 3 4 5 6 
#
# 1 144.6159 56.1715 56.8645 0.0000 0.0000 0.0000
# 2 56.1715 97.4497 55.1727 0.0000 0.0000 0.0000
# 3 56.8645 55.1727 131.4287 0.0000 0.0000 0.0000
# 4 0.0000 0.0000 0.0000 20.0666 0.0000 0.0000
# 5 0.0000 0.0000 0.0000 0.0000 2.9759 0.0000
# 6 0.0000 0.0000 0.0000 0.0000 0.0000 28.8253
#
#
#
# Elastic Compliance Matrix: (Units=1/GPa)
#
#
# Indices 1 2 3 4 5 6 
#
# 1 0.009437 -0.004103 -0.002361 0.000000 0.000000 0.000000
# 2 -0.004103 0.015245 -0.004624 0.000000 0.000000 0.000000
# 3 -0.002361 -0.004624 0.010571 0.000000 0.000000 0.000000
# 4 0.000000 0.000000 0.000000 0.049834 0.000000 0.000000
# 5 0.000000 0.000000 0.000000 0.000000 0.336036 0.000000
# 6 0.000000 0.000000 0.000000 0.000000 0.000000 0.034692
#
#
# Mechanical properties :
#
#
# Convention : Reuss Voigt Hill
#
# Bulk Modulus (GPa) = 76.47032 78.87907 77.67470
# Shear Modulus (GPa) = 10.36591 24.05927 17.21259
#
# Velocity S-wave (km/s) = 2.30117 3.50580 2.96530
# Velocity P-wave (km/s) = 6.79155 7.52879 7.16965
#
# Compressibility (1/GPa) = 0.01307697
#
# Stress axis : x y z
#
# Youngs Moduli (GPa) = 105.96870 65.59538 94.59559
#
# Poissons Ratio (x) = 0.26914 0.22330
# Poissons Ratio (y) = 0.43479 0.43746
# Poissons Ratio (z) = 0.25014 0.30334
#
# Static dielectric constant tensor:
#      x y z
#    x 3.650750 0.000000 0.000000 
#    y 0.000000 3.683180 0.000000 
#    z 0.000000 0.000000 3.666490 
# 
# 
# High freq. dielectric constant tensor:
#      x y z
#    x 1.768370 0.000000 0.000000 
#    y 0.000000 1.762570 0.000000 
#    z 0.000000 0.000000 1.755460 
# 
# From -- ./inp_files/46556.got.cif
#   From: 2010.03.12/outbox.cif.g09.slc.cpg/sg65_24_cif.got.tgz:46556.got - 2010.04.10 20:52:16.
