data_PCOD8271423
_publ_section_title
;
Structure prediction by ZEFSAII (Michael W. Deem and Ramdas Pophale) SiO2 
 PCOD8271423
Probable space group: C M M M
;
_chemical_formula_sum "Si O2"
_cell_formula_units_Z 72
_cell_length_a 28.684338
_cell_length_b 9.021759
_cell_length_c 14.382645
_cell_angle_alpha 90.000000
_cell_angle_beta 90.000000
_cell_angle_gamma 90.000000
_cell_volume 3721.986675
_symmetry_space_group_name_H-M "C M M M"
_symmetry_group_IT_number 65
_symmetry_cell_setting 'orthorhombic'
loop_
_space_group_symop_operation_xyz
x,y,z
-x,-y,z
x,-y,-z
-x,y,-z
-x,-y,-z
x,y,-z
-x,y,z
x,-y,z
1/2+x,1/2+y,z
1/2-x,1/2-y,z
1/2+x,1/2-y,-z
1/2-x,1/2+y,-z
1/2-x,1/2-y,-z
1/2+x,1/2+y,-z
1/2-x,1/2+y,z
1/2+x,1/2-y,z
loop_
_atom_site_type_symbol
_atom_site_label
_atom_site_fract_x
_atom_site_fract_y
_atom_site_fract_z
Si Si1 0.619673 0.826668 0.862145
Si Si2 0.791996 0.161934 0.394688
Si Si3 0.383905 0.825154 0.647140
Si Si4 0.199961 0.327428 0.000000
Si Si5 0.944905 0.170527 0.500000
Si Si6 0.553529 0.325305 0.000000
O O1 0.617639 0.781597 0.754996
O O2 0.577434 0.739076 0.908292
O O3 0.610946 0.000000 0.878036
O O4 0.669456 0.782578 0.908683
O O5 0.776602 0.132892 0.500000
O O6 0.750000 0.250000 0.342642
O O7 0.837215 0.263180 0.397032
O O8 0.800033 0.000000 0.346783
O O9 0.426916 0.749423 0.593881
O O10 0.386976 0.000000 0.631663
O O11 0.250000 0.250000 0.000000
O O12 0.210847 0.500000 0.000000
O O13 0.000000 0.182887 0.500000
O O14 0.927947 0.000000 0.500000
O O15 0.559314 0.500000 0.000000
O O16 0.500000 0.275956 0.000000
#
# Coordination Sequence:
#
# PCOD8271423 Si02
#       6
#    16  16  16   8   8   8
#     4   9  21  39  58  84 116 152 191 233 284 345
#     4  10  20  34  54  80 113 151 191 232 280 331
#     4  11  22  38  61  86 115 151 196 245 291 344
#     4   9  18  36  58  82 117 152 186 226 275 334
#     4  11  25  43  60  81 114 155 195 241 301 359
#     4  10  21  37  59  87 114 142 182 234 290 345
#
# _framework density 19.344508999999999
#
# number of rings (size 3 to 8) (size 9 to 14) (size 15 to 20)
#    0.000    2.000    1.111    2.667    0.000    8.000 
#    0.000    6.667    0.000    0.000    0.000    0.000 
#    0.000    0.000    0.000    0.000    0.000    0.000 
#
# Total GULP energy -446316.502870 kJ/mol
# GULP energy per Si atom -12397.680635 kJ/mol
# Density = 1.930048 g / cm^3
# Si number density = 19.344509 Si / 1000 Ang^3
#
#
#
# Elastic Constant Matrix: (Units=GPa)
#
#
# Indices 1 2 3 4 5 6 
#
# 1 139.8637 65.2572 52.1777 0.0000 0.0000 0.0000
# 2 65.2572 108.9372 52.5424 0.0000 0.0000 0.0000
# 3 52.1777 52.5424 124.4901 0.0000 0.0000 0.0000
# 4 0.0000 0.0000 0.0000 10.5311 0.0000 0.0000
# 5 0.0000 0.0000 0.0000 0.0000 0.4793 0.0000
# 6 0.0000 0.0000 0.0000 0.0000 0.0000 38.4281
#
#
#
# Elastic Compliance Matrix: (Units=1/GPa)
#
#
# Indices 1 2 3 4 5 6 
#
# 1 0.010368 -0.005167 -0.002165 0.000000 0.000000 0.000000
# 2 -0.005167 0.014101 -0.003786 0.000000 0.000000 0.000000
# 3 -0.002165 -0.003786 0.010538 0.000000 0.000000 0.000000
# 4 0.000000 0.000000 0.000000 0.094957 0.000000 0.000000
# 5 0.000000 0.000000 0.000000 0.000000 2.086244 0.000000
# 6 0.000000 0.000000 0.000000 0.000000 0.000000 0.026023
#
#
# Mechanical properties :
#
#
# Convention : Reuss Voigt Hill
#
# Bulk Modulus (GPa) = 78.29707 79.24950 78.77329
# Shear Modulus (GPa) = 2.20388 23.44196 12.82292
#
# Velocity S-wave (km/s) = 1.06853 3.48489 2.57742
# Velocity P-wave (km/s) = 6.48732 7.56631 7.04749
#
# Compressibility (1/GPa) = 0.01277187
#
# Stress axis : x y z
#
# Youngs Moduli (GPa) = 96.44941 70.91912 94.89468
#
# Poissons Ratio (x) = 0.36642 0.20544
# Poissons Ratio (y) = 0.49832 0.35925
# Poissons Ratio (z) = 0.20881 0.26848
#
# Static dielectric constant tensor:
#      x y z
#    x 3.462280 0.000000 0.000000 
#    y 0.000000 3.782470 0.000000 
#    z 0.000000 0.000000 3.981560 
# 
# 
# High freq. dielectric constant tensor:
#      x y z
#    x 1.753900 0.000000 0.000000 
#    y 0.000000 1.766440 0.000000 
#    z 0.000000 0.000000 1.742130 
# 
# From -- ./inp_files/46565.got.cif
#   From: 2010.03.12/outbox.cif.g09.slc.cpg/sg65_24_cif.got.tgz:46565.got - 2010.04.10 20:52:16.
