data_PCOD8271819
_publ_section_title
;
Structure prediction by ZEFSAII (Michael W. Deem and Ramdas Pophale) SiO2 
 PCOD8271819
Probable space group: C M M M
;
_chemical_formula_sum "Si O2"
_cell_formula_units_Z 104
_cell_length_a 9.040520
_cell_length_b 27.835909
_cell_length_c 21.408433
_cell_angle_alpha 90.000000
_cell_angle_beta 90.000000
_cell_angle_gamma 90.000000
_cell_volume 5387.455543
_symmetry_space_group_name_H-M "C M M M"
_symmetry_group_IT_number 65
_symmetry_cell_setting 'orthorhombic'
loop_
_space_group_symop_operation_xyz
x,y,z
-x,-y,z
x,-y,-z
-x,y,-z
-x,-y,-z
x,y,-z
-x,y,z
x,-y,z
1/2+x,1/2+y,z
1/2-x,1/2-y,z
1/2+x,1/2-y,-z
1/2-x,1/2+y,-z
1/2-x,1/2-y,-z
1/2+x,1/2+y,-z
1/2-x,1/2+y,z
1/2+x,1/2-y,z
loop_
_atom_site_type_symbol
_atom_site_label
_atom_site_fract_x
_atom_site_fract_y
_atom_site_fract_z
Si Si1 0.675695 0.801268 0.000000
Si Si2 0.826579 0.053670 0.678966
Si Si3 0.673308 0.798727 0.357937
Si Si4 0.329108 0.648170 0.252034
Si Si5 0.173532 0.393938 0.429228
Si Si6 0.833328 0.554297 0.073359
Si Si7 0.170294 0.856977 0.109447
O O1 0.750000 0.750000 0.000000
O O2 0.724691 0.828396 0.937469
O O3 0.500000 0.796428 0.000000
O O4 0.780536 0.093200 0.731272
O O5 0.752209 0.066323 0.613004
O O6 0.000000 0.054567 0.667680
O O7 0.775393 0.000000 0.700084
O O8 0.500000 0.789722 0.353222
O O9 0.750000 0.750000 0.381095
O O10 0.731947 0.813702 0.289709
O O11 0.714872 0.840202 0.407117
O O12 0.500000 0.655375 0.270213
O O13 0.302516 0.660538 0.179726
O O14 0.228909 0.400205 0.500000
O O15 0.000000 0.402465 0.423281
O O16 0.791270 0.500000 0.090119
O O17 0.713995 0.587088 0.108004
O O18 0.000000 0.566118 0.095938
O O19 0.822652 0.563661 0.000000
O O20 0.000000 0.850649 0.089287
#
# Coordination Sequence:
#
# PCOD8271819 Si02
#       7
#     8  16  16  16  16  16  16
#     4  12  26  44  63  82 109 142 178 223 275 331
#     4   9  18  34  55  79 110 147 185 224 265 310
#     4  10  20  35  56  79 105 139 179 223 272 325
#     4   9  20  37  56  79 109 143 179 223 270 320
#     4   9  19  35  53  77 110 145 182 223 267 318
#     4   9  18  33  53  78 110 146 178 211 259 317
#     4  11  22  37  59  86 112 140 180 226 276 329
#
# _framework density 19.304103000000001
#
# number of rings (size 3 to 8) (size 9 to 14) (size 15 to 20)
#    0.000    2.308    0.769    2.077    0.000    4.615 
#    0.000    3.846    0.000    0.000    0.000    0.000 
#    0.000    0.000    0.000    0.000    0.000    0.000 
#
# Total GULP energy -644823.084786 kJ/mol
# GULP energy per Si atom -12400.443938 kJ/mol
# Density = 1.926017 g / cm^3
# Si number density = 19.304103 Si / 1000 Ang^3
#
#
#
# Elastic Constant Matrix: (Units=GPa)
#
#
# Indices 1 2 3 4 5 6 
#
# 1 71.2995 27.6545 30.4287 0.0000 0.0000 0.0000
# 2 27.6545 78.2956 15.5797 0.0000 0.0000 0.0000
# 3 30.4287 15.5797 81.6239 0.0000 0.0000 0.0000
# 4 0.0000 0.0000 0.0000 14.3185 0.0000 0.0000
# 5 0.0000 0.0000 0.0000 0.0000 27.7825 0.0000
# 6 0.0000 0.0000 0.0000 0.0000 0.0000 36.2952
#
#
#
# Elastic Compliance Matrix: (Units=1/GPa)
#
#
# Indices 1 2 3 4 5 6 
#
# 1 0.018650 -0.005409 -0.005920 0.000000 0.000000 0.000000
# 2 -0.005409 0.014845 -0.000817 0.000000 0.000000 0.000000
# 3 -0.005920 -0.000817 0.014614 0.000000 0.000000 0.000000
# 4 0.000000 0.000000 0.000000 0.069840 0.000000 0.000000
# 5 0.000000 0.000000 0.000000 0.000000 0.035994 0.000000
# 6 0.000000 0.000000 0.000000 0.000000 0.000000 0.027552
#
#
# Mechanical properties :
#
#
# Convention : Reuss Voigt Hill
#
# Bulk Modulus (GPa) = 41.98730 42.06054 42.02392
# Shear Modulus (GPa) = 23.39438 26.18298 24.78868
#
# Velocity S-wave (km/s) = 3.48499 3.68685 3.58734
# Velocity P-wave (km/s) = 6.16370 6.32135 6.24303
#
# Compressibility (1/GPa) = 0.02381672
#
# Stress axis : x y z
#
# Youngs Moduli (GPa) = 53.61953 67.36158 68.42659
#
# Poissons Ratio (x) = 0.36438 0.40509
# Poissons Ratio (y) = 0.29004 0.05591
# Poissons Ratio (z) = 0.31743 0.05504
#
# Static dielectric constant tensor:
#      x y z
#    x 3.503000 0.000000 0.000000 
#    y 0.000000 3.709940 0.000000 
#    z 0.000000 0.000000 3.438380 
# 
# 
# High freq. dielectric constant tensor:
#      x y z
#    x 1.750560 0.000000 0.000000 
#    y 0.000000 1.755520 0.000000 
#    z 0.000000 0.000000 1.741180 
# 
# From -- ./inp_files/60424.got.cif
#   From: 2010.03.12/outbox.cif.g09.slc.cpg/sg65_31_cif.got.tgz:60424.got - 2010.04.10 20:52:16.
