data_PCOD8271702
_publ_section_title
;
Structure prediction by ZEFSAII (Michael W. Deem and Ramdas Pophale) SiO2 
 PCOD8271702
Probable space group: C M M M
;
_chemical_formula_sum "Si O2"
_cell_formula_units_Z 64
_cell_length_a 8.755292
_cell_length_b 28.399595
_cell_length_c 15.636304
_cell_angle_alpha 90.000000
_cell_angle_beta 90.000000
_cell_angle_gamma 90.000000
_cell_volume 3887.916123
_symmetry_space_group_name_H-M "C M M M"
_symmetry_group_IT_number 65
_symmetry_cell_setting 'orthorhombic'
loop_
_space_group_symop_operation_xyz
x,y,z
-x,-y,z
x,-y,-z
-x,y,-z
-x,-y,-z
x,y,-z
-x,y,z
x,-y,z
1/2+x,1/2+y,z
1/2-x,1/2-y,z
1/2+x,1/2-y,-z
1/2-x,1/2+y,-z
1/2-x,1/2-y,-z
1/2+x,1/2+y,-z
1/2-x,1/2+y,z
1/2+x,1/2-y,z
loop_
_atom_site_type_symbol
_atom_site_label
_atom_site_fract_x
_atom_site_fract_y
_atom_site_fract_z
Si Si1 0.174991 0.055700 0.000000
Si Si2 0.321671 0.299236 0.900644
Si Si3 0.833717 0.055544 0.500000
Si Si4 0.181674 0.054372 0.314687
Si Si5 0.680056 0.892639 0.841318
O O1 0.253270 0.074982 0.084445
O O2 0.000000 0.072719 0.000000
O O3 0.188874 0.000000 0.000000
O O4 0.500000 0.298101 0.881208
O O5 0.250000 0.250000 0.871406
O O6 0.243578 0.339911 0.845802
O O7 0.287141 0.309201 0.000000
O O8 0.753941 0.069071 0.590300
O O9 0.000000 0.079716 0.500000
O O10 0.857093 0.000000 0.500000
O O11 0.272057 0.086671 0.249408
O O12 0.000000 0.062819 0.308054
O O13 0.219299 0.000000 0.294739
O O14 0.500000 0.891621 0.850592
#
# Coordination Sequence:
#
# PCOD8271702 Si02
#       5
#     8  16   8  16  16
#     4  11  23  37  50  65  92 133 175 209 243 285
#     4  10  20  35  55  74  96 125 162 206 251 293
#     4   7  12  26  49  73  94 123 166 211 249 287
#     4   9  17  31  51  73  99 132 170 209 248 292
#     4  12  23  33  48  72 102 133 166 202 245 295
#
# _framework density 16.461261
#
# number of rings (size 3 to 8) (size 9 to 14) (size 15 to 20)
#    0.000    2.000    1.250    5.625    0.000    5.500 
#    0.000    0.625    0.000    2.250    0.000    0.875 
#    0.000    0.000    0.000    0.000    0.000    0.000 
#
# Total GULP energy -396689.180134 kJ/mol
# GULP energy per Si atom -12396.536879 kJ/mol
# Density = 1.642379 g / cm^3
# Si number density = 16.461261 Si / 1000 Ang^3
#
#
#
# Elastic Constant Matrix: (Units=GPa)
#
#
# Indices 1 2 3 4 5 6 
#
# 1 103.8591 58.1763 50.7938 0.0000 0.0000 0.0000
# 2 58.1763 100.9061 59.9958 0.0000 0.0000 0.0000
# 3 50.7938 59.9958 127.0241 0.0000 0.0000 0.0000
# 4 0.0000 0.0000 0.0000 5.7055 0.0000 0.0000
# 5 0.0000 0.0000 0.0000 0.0000 -0.5155 0.0000
# 6 0.0000 0.0000 0.0000 0.0000 0.0000 27.4684
#
#
#
# Elastic Compliance Matrix: (Units=1/GPa)
#
#
# Indices 1 2 3 4 5 6 
#
# 1 0.014827 -0.006985 -0.002630 0.000000 0.000000 0.000000
# 2 -0.006985 0.017070 -0.005270 0.000000 0.000000 0.000000
# 3 -0.002630 -0.005270 0.011413 0.000000 0.000000 0.000000
# 4 0.000000 0.000000 0.000000 0.175268 0.000000 0.000000
# 5 0.000000 0.000000 0.000000 0.000000 -1.939713 0.000000
# 6 0.000000 0.000000 0.000000 0.000000 0.000000 0.036405
#
#
# Mechanical properties :
#
#
# Convention : Reuss Voigt Hill
#
# Bulk Modulus (GPa) = 73.84467 74.41349 74.12908
# Shear Modulus (GPa) = -3.02948 17.38657 7.17854
#
# Velocity S-wave (km/s) = -1.35807 3.25347 2.09053
# Velocity P-wave (km/s) = 6.51904 7.70823 7.13844
#
# Compressibility (1/GPa) = 0.01354194
#
# Stress axis : x y z
#
# Youngs Moduli (GPa) = 67.44392 58.58126 87.61840
#
# Poissons Ratio (x) = 0.40917 0.23044
# Poissons Ratio (y) = 0.47108 0.46171
# Poissons Ratio (z) = 0.17738 0.30870
#
# Static dielectric constant tensor:
#      x y z
#    x 3.067310 0.000000 0.000000 
#    y 0.000000 3.031460 0.000000 
#    z 0.000000 0.000000 3.328500 
# 
# 
# High freq. dielectric constant tensor:
#      x y z
#    x 1.631230 0.000000 0.000000 
#    y 0.000000 1.618410 0.000000 
#    z 0.000000 0.000000 1.629130 
# 
# From -- ./inp_files/36361.got.cif
#   From: 2010.03.12/outbox.cif.g09.slc.cpg/sg65_19_cif.got.tgz:36361.got - 2010.04.10 20:52:16.
