data_PCOD8271522
_publ_section_title
;
Structure prediction by ZEFSAII (Michael W. Deem and Ramdas Pophale) SiO2 
 PCOD8271522
Probable space group: C M M M
;
_chemical_formula_sum "Si O2"
_cell_formula_units_Z 96
_cell_length_a 8.731242
_cell_length_b 28.710957
_cell_length_c 20.360027
_cell_angle_alpha 90.000000
_cell_angle_beta 90.000000
_cell_angle_gamma 90.000000
_cell_volume 5103.898674
_symmetry_space_group_name_H-M "C M M M"
_symmetry_group_IT_number 65
_symmetry_cell_setting 'orthorhombic'
loop_
_space_group_symop_operation_xyz
x,y,z
-x,-y,z
x,-y,-z
-x,y,-z
-x,-y,-z
x,y,-z
-x,y,z
x,-y,z
1/2+x,1/2+y,z
1/2-x,1/2-y,z
1/2+x,1/2-y,-z
1/2-x,1/2+y,-z
1/2-x,1/2-y,-z
1/2+x,1/2+y,-z
1/2-x,1/2+y,z
1/2+x,1/2-y,z
loop_
_atom_site_type_symbol
_atom_site_label
_atom_site_fract_x
_atom_site_fract_y
_atom_site_fract_z
Si Si1 0.675274 0.857130 0.926112
Si Si2 0.680218 0.298563 0.425167
Si Si3 0.319518 0.300873 0.810651
Si Si4 0.822351 0.646307 0.687505
Si Si5 0.322221 0.447501 0.884930
Si Si6 0.174043 0.448557 0.251790
O O1 0.500000 0.852491 0.902577
O O2 0.782320 0.828270 0.877405
O O3 0.723048 0.911370 0.926794
O O4 0.694899 0.837637 0.000000
O O5 0.730473 0.308562 0.500000
O O6 0.500000 0.295449 0.417756
O O7 0.750000 0.250000 0.400013
O O8 0.744128 0.339899 0.380664
O O9 0.500000 0.297203 0.802146
O O10 0.250000 0.250000 0.815689
O O11 0.251794 0.327291 0.748436
O O12 0.795133 0.590784 0.693735
O O13 0.000000 0.659494 0.685262
O O14 0.500000 0.437650 0.897620
O O15 0.278001 0.500000 0.906581
O O16 0.289032 0.440181 0.808044
O O17 0.200867 0.500000 0.282888
O O18 0.000000 0.443994 0.225032
#
# Coordination Sequence:
#
# PCOD8271522 Si02
#       6
#    16  16  16  16  16  16
#     4  11  24  41  59  80 109 146 188 233 285 342
#     4  10  21  37  57  83 117 154 192 233 280 333
#     4  12  25  41  61  83 111 144 185 234 282 337
#     4  11  21  35  59  88 118 149 187 231 278 332
#     4  10  20  34  55  83 113 145 183 230 283 337
#     4   9  18  33  55  82 113 148 185 228 277 330
#
# _framework density 18.809151
#
# number of rings (size 3 to 8) (size 9 to 14) (size 15 to 20)
#    0.000    1.500    1.667    4.000    0.000    4.667 
#    0.000    1.667    0.000    0.500    0.000    3.500 
#    0.000    0.000    0.000    0.000    0.000    0.000 
#
# Total GULP energy -595322.491012 kJ/mol
# GULP energy per Si atom -12402.551896 kJ/mol
# Density = 1.876634 g / cm^3
# Si number density = 18.809151 Si / 1000 Ang^3
#
#
#
# Elastic Constant Matrix: (Units=GPa)
#
#
# Indices 1 2 3 4 5 6 
#
# 1 74.2650 25.7976 30.2187 0.0000 0.0000 0.0000
# 2 25.7976 107.4214 46.6524 0.0000 0.0000 0.0000
# 3 30.2187 46.6524 90.1532 0.0000 0.0000 0.0000
# 4 0.0000 0.0000 0.0000 25.8691 0.0000 0.0000
# 5 0.0000 0.0000 0.0000 0.0000 29.8415 0.0000
# 6 0.0000 0.0000 0.0000 0.0000 0.0000 29.3645
#
#
#
# Elastic Compliance Matrix: (Units=1/GPa)
#
#
# Indices 1 2 3 4 5 6 
#
# 1 0.015899 -0.001940 -0.004326 0.000000 0.000000 0.000000
# 2 -0.001940 0.012244 -0.005686 0.000000 0.000000 0.000000
# 3 -0.004326 -0.005686 0.015485 0.000000 0.000000 0.000000
# 4 0.000000 0.000000 0.000000 0.038656 0.000000 0.000000
# 5 0.000000 0.000000 0.000000 0.000000 0.033510 0.000000
# 6 0.000000 0.000000 0.000000 0.000000 0.000000 0.034055
#
#
# Mechanical properties :
#
#
# Convention : Reuss Voigt Hill
#
# Bulk Modulus (GPa) = 50.69572 53.01967 51.85770
# Shear Modulus (GPa) = 27.72740 28.29307 28.01023
#
# Velocity S-wave (km/s) = 3.84362 3.88263 3.86318
# Velocity P-wave (km/s) = 6.83441 6.95336 6.89414
#
# Compressibility (1/GPa) = 0.01972553
#
# Stress axis : x y z
#
# Youngs Moduli (GPa) = 62.89640 81.67030 64.58061
#
# Poissons Ratio (x) = 0.15841 0.27935
# Poissons Ratio (y) = 0.12200 0.36721
# Poissons Ratio (z) = 0.27206 0.46438
#
# Static dielectric constant tensor:
#      x y z
#    x 3.578560 0.000000 0.000000 
#    y 0.000000 3.697110 0.000000 
#    z 0.000000 0.000000 3.303520 
# 
# 
# High freq. dielectric constant tensor:
#      x y z
#    x 1.744750 0.000000 0.000000 
#    y 0.000000 1.736960 0.000000 
#    z 0.000000 0.000000 1.709920 
# 
# From -- ./inp_files/60199.got.cif
#   From: 2010.03.12/outbox.cif.g09.slc.cpg/sg65_31_cif.got.tgz:60199.got - 2010.04.10 20:52:16.
