data_PCOD8271393
_publ_section_title
;
Structure prediction by ZEFSAII (Michael W. Deem and Ramdas Pophale) SiO2 
 PCOD8271393
Probable space group: C M M M
;
_chemical_formula_sum "Si O2"
_cell_formula_units_Z 104
_cell_length_a 18.546136
_cell_length_b 9.102605
_cell_length_c 33.282809
_cell_angle_alpha 90.000000
_cell_angle_beta 90.000000
_cell_angle_gamma 90.000000
_cell_volume 5618.742252
_symmetry_space_group_name_H-M "C M M M"
_symmetry_group_IT_number 65
_symmetry_cell_setting 'orthorhombic'
loop_
_space_group_symop_operation_xyz
x,y,z
-x,-y,z
x,-y,-z
-x,y,-z
-x,-y,-z
x,y,-z
-x,y,z
x,-y,z
1/2+x,1/2+y,z
1/2-x,1/2-y,z
1/2+x,1/2-y,-z
1/2-x,1/2+y,-z
1/2-x,1/2-y,-z
1/2+x,1/2+y,-z
1/2-x,1/2+y,z
1/2+x,1/2-y,z
loop_
_atom_site_type_symbol
_atom_site_label
_atom_site_fract_x
_atom_site_fract_y
_atom_site_fract_z
Si Si1 0.916753 0.328575 0.267160
Si Si2 0.823495 0.828862 0.046620
Si Si3 0.326411 0.826725 0.655685
Si Si4 0.082998 0.327841 0.421091
Si Si5 0.914193 0.165863 0.812115
Si Si6 0.914260 0.834310 0.500000
Si Si7 0.914462 0.666885 0.890323
O O1 0.907247 0.500000 0.258016
O O2 0.870905 0.276959 0.305306
O O3 0.886620 0.240600 0.228810
O O4 0.000000 0.290870 0.276052
O O5 0.750000 0.750000 0.059572
O O6 0.888375 0.756891 0.071125
O O7 0.817153 0.000000 0.056927
O O8 0.840543 0.802231 0.000000
O O9 0.250000 0.750000 0.655911
O O10 0.370914 0.774619 0.616860
O O11 0.315093 0.000000 0.655261
O O12 0.090675 0.500000 0.428781
O O13 0.114673 0.246340 0.460202
O O14 0.000000 0.285091 0.412863
O O15 0.883887 0.256951 0.849971
O O16 0.000000 0.168084 0.812895
O O17 0.884383 0.000000 0.814362
O O18 0.000000 0.827645 0.500000
O O19 0.884969 0.000000 0.500000
O O20 0.885827 0.500000 0.891877
O O21 0.000000 0.670892 0.890782
#
# Coordination Sequence:
#
# PCOD8271393 Si02
#       7
#    16  16  16  16  16   8  16
#     4   9  17  32  54  76  98 128 168 209 248 296
#     4  10  21  37  56  77 104 139 177 217 261 310
#     4  10  21  35  51  73 102 134 166 204 250 297
#     4   9  17  32  54  76  98 129 169 206 242 291
#     4   9  17  30  50  77 106 133 165 209 259 307
#     4   9  17  29  48  77 106 127 155 203 256 295
#     4  10  20  34  54  80 109 140 174 214 260 309
#
# _framework density 18.509481000000001
#
# number of rings (size 3 to 8) (size 9 to 14) (size 15 to 20)
#    0.000    2.538    0.000    2.077    0.000    8.000 
#    0.000    2.692    0.000    6.462    0.000    0.000 
#    0.000    0.000    0.000    0.000    0.000    0.000 
#
# Total GULP energy -644907.001869 kJ/mol
# GULP energy per Si atom -12402.057728 kJ/mol
# Density = 1.846735 g / cm^3
# Si number density = 18.509481 Si / 1000 Ang^3
#
#
#
# Elastic Constant Matrix: (Units=GPa)
#
#
# Indices 1 2 3 4 5 6 
#
# 1 58.3682 38.4368 52.5784 0.0000 0.0000 0.0000
# 2 38.4368 108.3927 78.0448 0.0000 0.0000 0.0000
# 3 52.5784 78.0448 154.2136 0.0000 0.0000 0.0000
# 4 0.0000 0.0000 0.0000 30.7865 0.0000 0.0000
# 5 0.0000 0.0000 0.0000 0.0000 6.3579 0.0000
# 6 0.0000 0.0000 0.0000 0.0000 0.0000 28.2980
#
#
#
# Elastic Compliance Matrix: (Units=1/GPa)
#
#
# Indices 1 2 3 4 5 6 
#
# 1 0.026034 -0.004469 -0.006614 0.000000 0.000000 0.000000
# 2 -0.004469 0.015282 -0.006210 0.000000 0.000000 0.000000
# 3 -0.006614 -0.006210 0.011882 0.000000 0.000000 0.000000
# 4 0.000000 0.000000 0.000000 0.032482 0.000000 0.000000
# 5 0.000000 0.000000 0.000000 0.000000 0.157284 0.000000
# 6 0.000000 0.000000 0.000000 0.000000 0.000000 0.035338
#
#
# Mechanical properties :
#
#
# Convention : Reuss Voigt Hill
#
# Bulk Modulus (GPa) = 53.73220 73.23272 63.48246
# Shear Modulus (GPa) = 15.66939 23.21612 19.44275
#
# Velocity S-wave (km/s) = 2.91273 3.54543 3.24454
# Velocity P-wave (km/s) = 6.35646 7.51072 6.95757
#
# Compressibility (1/GPa) = 0.01861081
#
# Stress axis : x y z
#
# Youngs Moduli (GPa) = 38.41128 65.43637 84.15767
#
# Poissons Ratio (x) = 0.29246 0.55664
# Poissons Ratio (y) = 0.17168 0.52263
# Poissons Ratio (z) = 0.25406 0.40637
#
# Static dielectric constant tensor:
#      x y z
#    x 3.068900 0.000000 0.000000 
#    y 0.000000 3.498330 0.000000 
#    z 0.000000 0.000000 3.584000 
# 
# 
# High freq. dielectric constant tensor:
#      x y z
#    x 1.684250 0.000000 0.000000 
#    y 0.000000 1.723110 0.000000 
#    z 0.000000 0.000000 1.732750 
# 
# From -- ./inp_files/78253.got.cif
#   From: 2010.03.12/outbox.cif.g09.slc.cpg/sg65_40_cif.got.tgz:78253.got - 2010.04.10 20:52:16.
