data_PCOD8271380
_publ_section_title
;
Structure prediction by ZEFSAII (Michael W. Deem and Ramdas Pophale) SiO2 
 PCOD8271380
Probable space group: C M M M
;
_chemical_formula_sum "Si O2"
_cell_formula_units_Z 88
_cell_length_a 8.972504
_cell_length_b 19.550881
_cell_length_c 28.086836
_cell_angle_alpha 90.000000
_cell_angle_beta 90.000000
_cell_angle_gamma 90.000000
_cell_volume 4927.002826
_symmetry_space_group_name_H-M "C M M M"
_symmetry_group_IT_number 65
_symmetry_cell_setting 'orthorhombic'
loop_
_space_group_symop_operation_xyz
x,y,z
-x,-y,z
x,-y,-z
-x,y,-z
-x,-y,-z
x,y,-z
-x,y,z
x,-y,z
1/2+x,1/2+y,z
1/2-x,1/2-y,z
1/2+x,1/2-y,-z
1/2-x,1/2+y,-z
1/2-x,1/2-y,-z
1/2+x,1/2+y,-z
1/2-x,1/2+y,z
1/2+x,1/2-y,z
loop_
_atom_site_type_symbol
_atom_site_label
_atom_site_fract_x
_atom_site_fract_y
_atom_site_fract_z
Si Si1 0.826799 0.919475 0.095412
Si Si2 0.668308 0.918738 0.000000
Si Si3 0.826615 0.680806 0.723160
Si Si4 0.325627 0.580392 0.346851
Si Si5 0.326655 0.580281 0.449781
Si Si6 0.674808 0.820098 0.833499
O O1 0.745866 0.883733 0.139301
O O2 0.000000 0.900304 0.094891
O O3 0.801625 0.000000 0.101488
O O4 0.754443 0.891962 0.046515
O O5 0.500000 0.889734 0.000000
O O6 0.667500 0.000000 0.000000
O O7 0.750000 0.750000 0.704844
O O8 0.765759 0.616712 0.694263
O O9 0.789668 0.667577 0.778230
O O10 0.000000 0.688740 0.713897
O O11 0.500000 0.596936 0.341181
O O12 0.296732 0.500000 0.341745
O O13 0.264917 0.607628 0.398913
O O14 0.256529 0.610308 0.500000
O O15 0.500000 0.597015 0.450457
O O16 0.300058 0.500000 0.449940
O O17 0.500000 0.816139 0.843947
O O18 0.750000 0.750000 0.851362
#
# Coordination Sequence:
#
# PCOD8271380 Si02
#       6
#    16   8  16  16  16  16
#     4  10  20  34  54  80 108 137 169 205 245 290
#     4   9  17  31  52  77 106 139 172 205 243 289
#     4  10  21  36  53  71  95 130 168 206 249 299
#     4   9  17  29  48  75 103 129 160 201 246 292
#     4   7  10  19  38  65  95 125 157 193 235 285
#     4  10  21  37  55  74  98 130 168 208 252 300
#
# _framework density 17.860755999999999
#
# number of rings (size 3 to 8) (size 9 to 14) (size 15 to 20)
#    0.000    2.818    0.000    3.545    0.000    5.455 
#    0.000    4.091    0.000    1.091    0.000    2.545 
#    0.000    0.000    0.000    0.000    0.000    0.000 
#
# Total GULP energy -545239.940325 kJ/mol
# GULP energy per Si atom -12391.816826 kJ/mol
# Density = 1.782010 g / cm^3
# Si number density = 17.860756 Si / 1000 Ang^3
#
#
#
# Elastic Constant Matrix: (Units=GPa)
#
#
# Indices 1 2 3 4 5 6 
#
# 1 93.7561 39.4347 62.6736 0.0000 0.0000 0.0000
# 2 39.4347 54.6210 53.2551 0.0000 0.0000 0.0000
# 3 62.6736 53.2551 117.1424 0.0000 0.0000 0.0000
# 4 0.0000 0.0000 0.0000 5.3079 0.0000 0.0000
# 5 0.0000 0.0000 0.0000 0.0000 22.0458 0.0000
# 6 0.0000 0.0000 0.0000 0.0000 0.0000 28.6080
#
#
#
# Elastic Compliance Matrix: (Units=1/GPa)
#
#
# Indices 1 2 3 4 5 6 
#
# 1 0.017766 -0.006392 -0.006599 0.000000 0.000000 0.000000
# 2 -0.006392 0.035184 -0.012575 0.000000 0.000000 0.000000
# 3 -0.006599 -0.012575 0.017784 0.000000 0.000000 0.000000
# 4 0.000000 0.000000 0.000000 0.188399 0.000000 0.000000
# 5 0.000000 0.000000 0.000000 0.000000 0.045360 0.000000
# 6 0.000000 0.000000 0.000000 0.000000 0.000000 0.034955
#
#
# Mechanical properties :
#
#
# Convention : Reuss Voigt Hill
#
# Bulk Modulus (GPa) = 51.01868 64.02736 57.52302
# Shear Modulus (GPa) = 12.59082 18.53609 15.56345
#
# Velocity S-wave (km/s) = 2.65796 3.22500 2.95511
# Velocity P-wave (km/s) = 6.16817 7.05644 6.62721
#
# Compressibility (1/GPa) = 0.01960066
#
# Stress axis : x y z
#
# Youngs Moduli (GPa) = 56.28732 28.42222 56.23006
#
# Poissons Ratio (x) = 0.18169 0.37106
# Poissons Ratio (y) = 0.35982 0.70710
# Poissons Ratio (z) = 0.37144 0.35741
#
# Static dielectric constant tensor:
#      x y z
#    x 3.221640 0.000000 0.000000 
#    y 0.000000 2.974320 0.000000 
#    z 0.000000 0.000000 3.703280 
# 
# 
# High freq. dielectric constant tensor:
#      x y z
#    x 1.681190 0.000000 0.000000 
#    y 0.000000 1.655430 0.000000 
#    z 0.000000 0.000000 1.710910 
# 
# From -- ./inp_files/67518.got.cif
#   From: 2010.03.12/outbox.cif.g09.slc.cpg/sg65_34_cif.got.tgz:67518.got - 2010.04.10 20:52:16.
