data_PCOD8271091
_publ_section_title
;
Structure prediction by ZEFSAII (Michael W. Deem and Ramdas Pophale) SiO2 
 PCOD8271091
Probable space group: C M M M
;
_chemical_formula_sum "Si O2"
_cell_formula_units_Z 88
_cell_length_a 17.386122
_cell_length_b 27.893004
_cell_length_c 9.300190
_cell_angle_alpha 90.000000
_cell_angle_beta 90.000000
_cell_angle_gamma 90.000000
_cell_volume 4510.138026
_symmetry_space_group_name_H-M "C M M M"
_symmetry_group_IT_number 65
_symmetry_cell_setting 'orthorhombic'
loop_
_space_group_symop_operation_xyz
x,y,z
-x,-y,z
x,-y,-z
-x,y,-z
-x,-y,-z
x,y,-z
-x,y,z
x,-y,z
1/2+x,1/2+y,z
1/2-x,1/2-y,z
1/2+x,1/2-y,-z
1/2-x,1/2+y,-z
1/2-x,1/2-y,-z
1/2+x,1/2+y,-z
1/2-x,1/2+y,z
1/2+x,1/2-y,z
loop_
_atom_site_type_symbol
_atom_site_label
_atom_site_fract_x
_atom_site_fract_y
_atom_site_fract_z
Si Si1 0.585634 0.766949 0.670182
Si Si2 0.660279 0.669724 0.667835
Si Si3 0.589569 0.411389 0.840625
Si Si4 0.407972 0.500000 0.338291
Si Si5 0.411845 0.054887 0.831750
Si Si6 0.332629 0.861098 0.668960
O O1 0.583743 0.770607 0.500000
O O2 0.500000 0.756726 0.731021
O O3 0.644516 0.724690 0.714493
O O4 0.614983 0.817860 0.730395
O O5 0.641581 0.662399 0.500000
O O6 0.601894 0.638475 0.760611
O O7 0.745958 0.653804 0.706052
O O8 0.500000 0.420833 0.856923
O O9 0.625684 0.453857 0.744600
O O10 0.627393 0.411244 0.000000
O O11 0.500000 0.500000 0.342687
O O12 0.374714 0.500000 0.500000
O O13 0.500000 0.065919 0.788101
O O14 0.354579 0.089643 0.746537
O O15 0.391505 0.000000 0.791631
O O16 0.400013 0.063553 0.000000
O O17 0.344189 0.868693 0.500000
#
# Coordination Sequence:
#
# PCOD8271091 Si02
#       6
#    16  16  16   8  16  16
#     4   9  17  31  54  81 108 141 182 226 273 325
#     4  10  20  34  52  77 110 148 182 218 268 328
#     4  10  20  34  52  75 104 138 181 231 276 320
#     4   9  17  31  53  77  99 129 172 221 272 325
#     4   9  19  37  59  81 107 142 183 224 269 327
#     4  10  20  34  54  83 114 142 177 226 277 325
#
# _framework density 19.511597999999999
#
# number of rings (size 3 to 8) (size 9 to 14) (size 15 to 20)
#    0.000    2.455    0.000    3.000    0.000    7.273 
#    1.636    1.818    0.000    5.455    0.000    0.000 
#    0.000    0.000    0.000    0.000    0.000    0.000 
#
# Total GULP energy -545539.668827 kJ/mol
# GULP energy per Si atom -12398.628837 kJ/mol
# Density = 1.946719 g / cm^3
# Si number density = 19.511598 Si / 1000 Ang^3
#
#
#
# Elastic Constant Matrix: (Units=GPa)
#
#
# Indices 1 2 3 4 5 6 
#
# 1 71.5170 48.5275 32.3570 0.0000 0.0000 0.0000
# 2 48.5275 150.2717 54.4379 0.0000 0.0000 0.0000
# 3 32.3570 54.4379 75.4590 0.0000 0.0000 0.0000
# 4 0.0000 0.0000 0.0000 7.7924 0.0000 0.0000
# 5 0.0000 0.0000 0.0000 0.0000 20.9766 0.0000
# 6 0.0000 0.0000 0.0000 0.0000 0.0000 26.4396
#
#
#
# Elastic Compliance Matrix: (Units=1/GPa)
#
#
# Indices 1 2 3 4 5 6 
#
# 1 0.019257 -0.004369 -0.005105 0.000000 0.000000 0.000000
# 2 -0.004369 0.010000 -0.005341 0.000000 0.000000 0.000000
# 3 -0.005105 -0.005341 0.019295 0.000000 0.000000 0.000000
# 4 0.000000 0.000000 0.000000 0.128331 0.000000 0.000000
# 5 0.000000 0.000000 0.000000 0.000000 0.047672 0.000000
# 6 0.000000 0.000000 0.000000 0.000000 0.000000 0.037822
#
#
# Mechanical properties :
#
#
# Convention : Reuss Voigt Hill
#
# Bulk Modulus (GPa) = 52.85175 63.09918 57.97547
# Shear Modulus (GPa) = 16.76076 21.83673 19.29875
#
# Velocity S-wave (km/s) = 2.93408 3.34902 3.14839
# Velocity P-wave (km/s) = 6.21487 6.88216 6.55701
#
# Compressibility (1/GPa) = 0.01892085
#
# Stress axis : x y z
#
# Youngs Moduli (GPa) = 51.92815 99.99561 51.82799
#
# Poissons Ratio (x) = 0.43691 0.26461
# Poissons Ratio (y) = 0.22689 0.27681
# Poissons Ratio (z) = 0.26512 0.53408
#
# Static dielectric constant tensor:
#      x y z
#    x 3.413410 0.000000 0.000000 
#    y 0.000000 3.698310 0.000000 
#    z 0.000000 0.000000 3.396530 
# 
# 
# High freq. dielectric constant tensor:
#      x y z
#    x 1.744140 0.000000 0.000000 
#    y 0.000000 1.773710 0.000000 
#    z 0.000000 0.000000 1.735810 
# 
# From -- ./inp_files/10049.got.cif
#   From: 2010.03.12/outbox.cif.g09.slc.cpg/sg65_6_cif.got.tgz:10049.got - 2010.04.10 20:52:16.
