data_PCOD8271479
_publ_section_title
;
Structure prediction by ZEFSAII (Michael W. Deem and Ramdas Pophale) SiO2 
 PCOD8271479
Probable space group: C M M M
;
_chemical_formula_sum "Si O2"
_cell_formula_units_Z 104
_cell_length_a 29.273395
_cell_length_b 8.934743
_cell_length_c 21.573088
_cell_angle_alpha 90.000000
_cell_angle_beta 90.000000
_cell_angle_gamma 90.000000
_cell_volume 5642.446798
_symmetry_space_group_name_H-M "C M M M"
_symmetry_group_IT_number 65
_symmetry_cell_setting 'orthorhombic'
loop_
_space_group_symop_operation_xyz
x,y,z
-x,-y,z
x,-y,-z
-x,y,-z
-x,-y,-z
x,y,-z
-x,y,z
x,-y,z
1/2+x,1/2+y,z
1/2-x,1/2-y,z
1/2+x,1/2-y,-z
1/2-x,1/2+y,-z
1/2-x,1/2-y,-z
1/2+x,1/2+y,-z
1/2-x,1/2+y,z
1/2+x,1/2-y,z
loop_
_atom_site_type_symbol
_atom_site_label
_atom_site_fract_x
_atom_site_fract_y
_atom_site_fract_z
Si Si1 0.553944 0.832922 0.500000
Si Si2 0.176271 0.674278 0.932799
Si Si3 0.796206 0.678095 0.201231
Si Si4 0.887670 0.326360 0.730247
Si Si5 0.930330 0.331662 0.068719
Si Si6 0.450019 0.666453 0.817893
Si Si7 0.947371 0.177068 0.625490
O O1 0.500000 0.841993 0.500000
O O2 0.570214 0.745131 0.439140
O O3 0.575159 0.000000 0.500000
O O4 0.187304 0.500000 0.932977
O O5 0.197139 0.743984 0.869221
O O6 0.122951 0.703983 0.929718
O O7 0.194463 0.740834 0.000000
O O8 0.792932 0.500000 0.198884
O O9 0.750000 0.750000 0.228314
O O10 0.836514 0.723237 0.249611
O O11 0.889599 0.500000 0.711820
O O12 0.918419 0.295455 0.790099
O O13 0.910106 0.229305 0.675616
O O14 0.939821 0.500000 0.092811
O O15 0.955896 0.209542 0.110374
O O16 0.950036 0.313609 0.000000
O O17 0.500000 0.667395 0.786071
O O18 0.428780 0.500000 0.809950
O O19 0.000000 0.228144 0.640573
O O20 0.945476 0.000000 0.620811
#
# Coordination Sequence:
#
# PCOD8271479 Si02
#       7
#     8  16  16  16  16  16  16
#     4   9  17  31  53  83 118 155 192 223 251 293
#     4   8  14  29  52  73  95 123 158 208 268 325
#     4  10  21  36  54  77 102 131 170 218 273 328
#     4  11  22  37  55  76 103 139 182 222 259 310
#     4   9  17  32  53  71  90 123 167 212 258 312
#     4  11  23  35  48  70 101 134 168 212 265 315
#     4  10  20  34  54  83 119 154 185 220 264 306
#
# _framework density 18.431721
#
# number of rings (size 3 to 8) (size 9 to 14) (size 15 to 20)
#    0.000    2.231    1.538    3.000    0.000    7.077 
#    0.000    1.538    0.000    0.000    0.000    0.538 
#    0.000    0.000    0.000    0.000    0.000    0.000 
#
# Total GULP energy -644242.732698 kJ/mol
# GULP energy per Si atom -12389.283321 kJ/mol
# Density = 1.838977 g / cm^3
# Si number density = 18.431721 Si / 1000 Ang^3
#
#
#
# Elastic Constant Matrix: (Units=GPa)
#
#
# Indices 1 2 3 4 5 6 
#
# 1 94.3063 32.5583 49.1613 0.0000 0.0000 0.0000
# 2 32.5583 59.0484 38.4161 0.0000 0.0000 0.0000
# 3 49.1613 38.4161 111.3257 0.0000 0.0000 0.0000
# 4 0.0000 0.0000 0.0000 25.0652 0.0000 0.0000
# 5 0.0000 0.0000 0.0000 0.0000 19.4637 0.0000
# 6 0.0000 0.0000 0.0000 0.0000 0.0000 22.8814
#
#
#
# Elastic Compliance Matrix: (Units=1/GPa)
#
#
# Indices 1 2 3 4 5 6 
#
# 1 0.014862 -0.005061 -0.004817 0.000000 0.000000 0.000000
# 2 -0.005061 0.023561 -0.005896 0.000000 0.000000 0.000000
# 3 -0.004817 -0.005896 0.013144 0.000000 0.000000 0.000000
# 4 0.000000 0.000000 0.000000 0.039896 0.000000 0.000000
# 5 0.000000 0.000000 0.000000 0.000000 0.051378 0.000000
# 6 0.000000 0.000000 0.000000 0.000000 0.000000 0.043704
#
#
# Mechanical properties :
#
#
# Convention : Reuss Voigt Hill
#
# Bulk Modulus (GPa) = 49.94741 56.10575 53.02658
# Shear Modulus (GPa) = 22.24551 23.11838 22.68195
#
# Velocity S-wave (km/s) = 3.47784 3.54541 3.51179
# Velocity P-wave (km/s) = 6.57910 6.87501 6.72868
#
# Compressibility (1/GPa) = 0.02002106
#
# Stress axis : x y z
#
# Youngs Moduli (GPa) = 67.28649 42.44232 76.07994
#
# Poissons Ratio (x) = 0.21480 0.36644
# Poissons Ratio (y) = 0.34054 0.44854
# Poissons Ratio (z) = 0.32409 0.25022
#
# Static dielectric constant tensor:
#      x y z
#    x 3.223060 0.000000 0.000000 
#    y 0.000000 3.211530 0.000000 
#    z 0.000000 0.000000 3.540670 
# 
# 
# High freq. dielectric constant tensor:
#      x y z
#    x 1.691310 0.000000 0.000000 
#    y 0.000000 1.702080 0.000000 
#    z 0.000000 0.000000 1.706630 
# 
# From -- ./inp_files/66334.got.cif
#   From: 2010.03.12/outbox.cif.g09.slc.cpg/sg65_34_cif.got.tgz:66334.got - 2010.04.10 20:52:16.
