data_PCOD8271741
_publ_section_title
;
Structure prediction by ZEFSAII (Michael W. Deem and Ramdas Pophale) SiO2 
 PCOD8271741
Probable space group: C M M M
;
_chemical_formula_sum "Si O2"
_cell_formula_units_Z 104
_cell_length_a 19.538726
_cell_length_b 8.749567
_cell_length_c 32.804267
_cell_angle_alpha 90.000000
_cell_angle_beta 90.000000
_cell_angle_gamma 90.000000
_cell_volume 5608.066332
_symmetry_space_group_name_H-M "C M M M"
_symmetry_group_IT_number 65
_symmetry_cell_setting 'orthorhombic'
loop_
_space_group_symop_operation_xyz
x,y,z
-x,-y,z
x,-y,-z
-x,y,-z
-x,-y,-z
x,y,-z
-x,y,z
x,-y,z
1/2+x,1/2+y,z
1/2-x,1/2-y,z
1/2+x,1/2-y,-z
1/2-x,1/2+y,-z
1/2-x,1/2-y,-z
1/2+x,1/2+y,-z
1/2-x,1/2+y,z
1/2+x,1/2-y,z
loop_
_atom_site_type_symbol
_atom_site_label
_atom_site_fract_x
_atom_site_fract_y
_atom_site_fract_z
Si Si1 0.820313 0.320423 0.953769
Si Si2 0.420180 0.323266 0.891077
Si Si3 0.921661 0.322044 0.807506
Si Si4 0.419371 0.177373 0.416632
Si Si5 0.677368 0.318973 0.648980
Si Si6 0.081161 0.172041 0.500000
Si Si7 0.321863 0.181109 0.264467
O O1 0.813419 0.500000 0.951504
O O2 0.750000 0.250000 0.936628
O O3 0.883373 0.268204 0.926631
O O4 0.833525 0.264064 0.000000
O O5 0.500000 0.287234 0.895625
O O6 0.402911 0.500000 0.896011
O O7 0.394372 0.268715 0.846828
O O8 0.912602 0.500000 0.816994
O O9 0.878140 0.271158 0.768568
O O10 0.000000 0.279851 0.797778
O O11 0.500000 0.204886 0.411311
O O12 0.381530 0.273784 0.382288
O O13 0.393019 0.237480 0.460306
O O14 0.400356 0.000000 0.412701
O O15 0.684203 0.500000 0.651583
O O16 0.750000 0.250000 0.634845
O O17 0.655553 0.253164 0.692742
O O18 0.000000 0.166575 0.500000
O O19 0.111293 0.000000 0.500000
O O20 0.250000 0.250000 0.249754
O O21 0.315470 0.000000 0.269566
#
# Coordination Sequence:
#
# PCOD8271741 Si02
#       7
#    16  16  16  16  16   8  16
#     4  10  21  37  57  80 107 140 178 221 267 315
#     4  10  21  36  55  80 110 143 178 218 264 314
#     4   9  19  36  56  77 104 139 178 220 264 311
#     4  10  20  35  56  81 109 142 180 220 264 316
#     4  11  22  37  56  78 108 143 179 221 269 318
#     4   9  17  31  52  79 110 141 176 219 265 313
#     4  10  20  35  55  78 104 137 176 217 264 316
#
# _framework density 18.544716000000001
#
# number of rings (size 3 to 8) (size 9 to 14) (size 15 to 20)
#    0.000    2.077    0.000    4.385    0.000    6.462 
#    0.000    5.000    0.000    0.000    0.000    0.000 
#    0.000    0.000    0.000    0.000    0.000    0.000 
#
# Total GULP energy -644991.502106 kJ/mol
# GULP energy per Si atom -12403.682733 kJ/mol
# Density = 1.850251 g / cm^3
# Si number density = 18.544716 Si / 1000 Ang^3
#
#
#
# Elastic Constant Matrix: (Units=GPa)
#
#
# Indices 1 2 3 4 5 6 
#
# 1 69.1610 40.0829 66.7379 0.0000 0.0000 0.0000
# 2 40.0829 104.2765 54.9673 0.0000 0.0000 0.0000
# 3 66.7379 54.9673 125.3455 0.0000 0.0000 0.0000
# 4 0.0000 0.0000 0.0000 34.0545 0.0000 0.0000
# 5 0.0000 0.0000 0.0000 0.0000 12.2947 0.0000
# 6 0.0000 0.0000 0.0000 0.0000 0.0000 32.0980
#
#
#
# Elastic Compliance Matrix: (Units=1/GPa)
#
#
# Indices 1 2 3 4 5 6 
#
# 1 0.031087 -0.004194 -0.014712 0.000000 0.000000 0.000000
# 2 -0.004194 0.013039 -0.003485 0.000000 0.000000 0.000000
# 3 -0.014712 -0.003485 0.017339 0.000000 0.000000 0.000000
# 4 0.000000 0.000000 0.000000 0.029365 0.000000 0.000000
# 5 0.000000 0.000000 0.000000 0.000000 0.081336 0.000000
# 6 0.000000 0.000000 0.000000 0.000000 0.000000 0.031155
#
#
# Mechanical properties :
#
#
# Convention : Reuss Voigt Hill
#
# Bulk Modulus (GPa) = 59.94291 69.15105 64.54698
# Shear Modulus (GPa) = 19.71119 24.82245 22.26682
#
# Velocity S-wave (km/s) = 3.26375 3.66255 3.46888
# Velocity P-wave (km/s) = 6.82615 7.43340 7.13624
#
# Compressibility (1/GPa) = 0.01668254
#
# Stress axis : x y z
#
# Youngs Moduli (GPa) = 32.16830 76.69270 57.67212
#
# Poissons Ratio (x) = 0.32166 0.84848
# Poissons Ratio (y) = 0.13492 0.20098
# Poissons Ratio (z) = 0.47327 0.26727
#
# Static dielectric constant tensor:
#      x y z
#    x 3.297520 0.000000 0.000000 
#    y 0.000000 3.536960 0.000000 
#    z 0.000000 0.000000 3.516580 
# 
# 
# High freq. dielectric constant tensor:
#      x y z
#    x 1.708090 0.000000 0.000000 
#    y 0.000000 1.734860 0.000000 
#    z 0.000000 0.000000 1.726950 
# 
# From -- ./inp_files/78191.got.cif
#   From: 2010.03.12/outbox.cif.g09.slc.cpg/sg65_40_cif.got.tgz:78191.got - 2010.04.10 20:52:16.
