data_PCOD8271346
_publ_section_title
;
Structure prediction by ZEFSAII (Michael W. Deem and Ramdas Pophale) SiO2 
 PCOD8271346
Probable space group: C M M M
;
_chemical_formula_sum "Si O2"
_cell_formula_units_Z 88
_cell_length_a 9.044385
_cell_length_b 19.332357
_cell_length_c 28.233248
_cell_angle_alpha 90.000000
_cell_angle_beta 90.000000
_cell_angle_gamma 90.000000
_cell_volume 4936.563075
_symmetry_space_group_name_H-M "C M M M"
_symmetry_group_IT_number 65
_symmetry_cell_setting 'orthorhombic'
loop_
_space_group_symop_operation_xyz
x,y,z
-x,-y,z
x,-y,-z
-x,y,-z
-x,-y,-z
x,y,-z
-x,y,z
x,-y,z
1/2+x,1/2+y,z
1/2-x,1/2-y,z
1/2+x,1/2-y,-z
1/2-x,1/2+y,-z
1/2-x,1/2-y,-z
1/2+x,1/2+y,-z
1/2-x,1/2+y,z
1/2+x,1/2-y,z
loop_
_atom_site_type_symbol
_atom_site_label
_atom_site_fract_x
_atom_site_fract_y
_atom_site_fract_z
Si Si1 0.326225 0.579542 0.686641
Si Si2 0.326179 0.323845 0.397661
Si Si3 0.670804 0.321692 0.500000
Si Si4 0.833058 0.417758 0.219385
Si Si5 0.670903 0.418320 0.125613
Si Si6 0.671849 0.179678 0.944655
O O1 0.500000 0.587878 0.695117
O O2 0.283973 0.500000 0.677181
O O3 0.268486 0.622797 0.641659
O O4 0.244163 0.609469 0.732852
O O5 0.500000 0.312058 0.391965
O O6 0.250000 0.250000 0.390646
O O7 0.288734 0.358351 0.449737
O O8 0.500000 0.304350 0.500000
O O9 0.750000 0.250000 0.500000
O O10 0.830578 0.500000 0.219387
O O11 0.742476 0.390116 0.174241
O O12 0.000000 0.389121 0.216935
O O13 0.500000 0.396849 0.125188
O O14 0.691568 0.500000 0.120717
O O15 0.754491 0.384704 0.081567
O O16 0.500000 0.184383 0.931615
O O17 0.750000 0.250000 0.927790
O O18 0.697336 0.167047 0.000000
#
# Coordination Sequence:
#
# PCOD8271346 Si02
#       6
#    16  16   8  16  16  16
#     4   9  17  30  47  67  93 124 156 191 236 288
#     4   9  17  29  46  67  91 120 154 193 234 278
#     4   8  14  26  43  63  87 117 153 188 228 278
#     4   9  17  30  49  72  97 126 161 200 242 289
#     4  10  20  34  54  79 105 133 167 208 250 292
#     4  10  21  37  56  77 104 138 172 206 247 296
#
# _framework density 17.826167999999999
#
# number of rings (size 3 to 8) (size 9 to 14) (size 15 to 20)
#    0.000    2.727    0.000    1.636    0.000    5.455 
#    0.000    3.182    0.000    4.909    0.000    0.000 
#    0.000   10.182    0.000    0.000    0.000    0.000 
#
# Total GULP energy -545398.879734 kJ/mol
# GULP energy per Si atom -12395.429085 kJ/mol
# Density = 1.778559 g / cm^3
# Si number density = 17.826168 Si / 1000 Ang^3
#
#
#
# Elastic Constant Matrix: (Units=GPa)
#
#
# Indices 1 2 3 4 5 6 
#
# 1 97.3432 36.9497 67.9340 0.0000 0.0000 0.0000
# 2 36.9497 51.1389 53.1265 0.0000 0.0000 0.0000
# 3 67.9340 53.1265 136.0223 0.0000 0.0000 0.0000
# 4 0.0000 0.0000 0.0000 22.8930 0.0000 0.0000
# 5 0.0000 0.0000 0.0000 0.0000 28.8450 0.0000
# 6 0.0000 0.0000 0.0000 0.0000 0.0000 24.5684
#
#
#
# Elastic Compliance Matrix: (Units=1/GPa)
#
#
# Indices 1 2 3 4 5 6 
#
# 1 0.016710 -0.005728 -0.006108 0.000000 0.000000 0.000000
# 2 -0.005728 0.034870 -0.010759 0.000000 0.000000 0.000000
# 3 -0.006108 -0.010759 0.014604 0.000000 0.000000 0.000000
# 4 0.000000 0.000000 0.000000 0.043682 0.000000 0.000000
# 5 0.000000 0.000000 0.000000 0.000000 0.034668 0.000000
# 6 0.000000 0.000000 0.000000 0.000000 0.000000 0.040703
#
#
# Mechanical properties :
#
#
# Convention : Reuss Voigt Hill
#
# Bulk Modulus (GPa) = 47.63074 66.72496 57.17785
# Shear Modulus (GPa) = 21.05936 23.69424 22.37680
#
# Velocity S-wave (km/s) = 3.44084 3.64975 3.54683
# Velocity P-wave (km/s) = 6.52406 7.43459 6.99416
#
# Compressibility (1/GPa) = 0.02099485
#
# Stress axis : x y z
#
# Youngs Moduli (GPa) = 59.84425 28.67814 68.47220
#
# Poissons Ratio (x) = 0.16426 0.41826
# Poissons Ratio (y) = 0.34277 0.73666
# Poissons Ratio (z) = 0.36556 0.30853
#
# Static dielectric constant tensor:
#      x y z
#    x 3.325020 0.000000 0.000000 
#    y 0.000000 2.960130 0.000000 
#    z 0.000000 0.000000 3.741040 
# 
# 
# High freq. dielectric constant tensor:
#      x y z
#    x 1.697130 0.000000 0.000000 
#    y 0.000000 1.649660 0.000000 
#    z 0.000000 0.000000 1.707820 
# 
# From -- ./inp_files/76532.got.cif
#   From: 2010.03.12/outbox.cif.g09.slc.cpg/sg65_39_cif.got.tgz:76532.got - 2010.04.10 20:52:16.
