data_PCOD8271828
_publ_section_title
;
Structure prediction by ZEFSAII (Michael W. Deem and Ramdas Pophale) SiO2 
 PCOD8271828
Probable space group: C M M M
;
_chemical_formula_sum "Si O2"
_cell_formula_units_Z 120
_cell_length_a 8.972587
_cell_length_b 27.474203
_cell_length_c 26.274385
_cell_angle_alpha 90.000000
_cell_angle_beta 90.000000
_cell_angle_gamma 90.000000
_cell_volume 6477.021523
_symmetry_space_group_name_H-M "C M M M"
_symmetry_group_IT_number 65
_symmetry_cell_setting 'orthorhombic'
loop_
_space_group_symop_operation_xyz
x,y,z
-x,-y,z
x,-y,-z
-x,y,-z
-x,-y,-z
x,y,-z
-x,y,z
x,-y,z
1/2+x,1/2+y,z
1/2-x,1/2-y,z
1/2+x,1/2-y,-z
1/2-x,1/2+y,-z
1/2-x,1/2-y,-z
1/2+x,1/2+y,-z
1/2-x,1/2+y,z
1/2+x,1/2-y,z
loop_
_atom_site_type_symbol
_atom_site_label
_atom_site_fract_x
_atom_site_fract_y
_atom_site_fract_z
Si Si1 0.674617 0.054474 0.896348
Si Si2 0.826868 0.556697 0.307433
Si Si3 0.826751 0.141864 0.056519
Si Si4 0.823123 0.053746 0.500000
Si Si5 0.326809 0.110922 0.204159
Si Si6 0.823780 0.801439 0.154942
Si Si7 0.823364 0.891398 0.400231
Si Si8 0.675081 0.199304 0.558420
O O1 0.500000 0.054896 0.906047
O O2 0.747695 0.089870 0.937660
O O3 0.713796 0.072543 0.839747
O O4 0.738724 0.000000 0.902999
O O5 0.789665 0.500000 0.299641
O O6 0.782848 0.585608 0.256735
O O7 0.725000 0.578055 0.351613
O O8 0.000000 0.564112 0.321042
O O9 0.770837 0.180457 0.098775
O O10 0.000000 0.132270 0.064498
O O11 0.791558 0.162481 0.000000
O O12 0.764968 0.080310 0.550195
O O13 0.000000 0.051628 0.500000
O O14 0.753720 0.000000 0.500000
O O15 0.500000 0.125231 0.202314
O O16 0.231410 0.160072 0.197156
O O17 0.750000 0.750000 0.166633
O O18 0.000000 0.795874 0.158609
O O19 0.744142 0.839133 0.402106
O O20 0.000000 0.884280 0.399943
O O21 0.712858 0.184901 0.500000
O O22 0.500000 0.203418 0.567398
O O23 0.750000 0.250000 0.572487
#
# Coordination Sequence:
#
# PCOD8271828 Si02
#       8
#    16  16  16   8  16  16  16  16
#     4   9  17  30  50  75 101 133 176 221 264 312
#     4  10  21  37  57  82 112 144 179 221 270 321
#     4   9  19  34  49  70 104 142 177 214 259 313
#     4   9  18  32  50  73 104 143 182 217 256 307
#     4   9  18  35  57  78 103 137 175 218 268 321
#     4  10  20  35  56  80 105 135 174 219 266 317
#     4  11  21  35  55  80 113 148 184 223 267 319
#     4  10  20  35  57  82 109 140 179 222 267 315
#
# _framework density 18.527034
#
# number of rings (size 3 to 8) (size 9 to 14) (size 15 to 20)
#    0.000    2.333    0.667    2.000    0.000    5.067 
#    0.000    2.000    0.000    7.200    0.000    0.000 
#    0.000    0.000    0.000    0.000    0.000    0.000 
#
# Total GULP energy -744092.159680 kJ/mol
# GULP energy per Si atom -12401.535995 kJ/mol
# Density = 1.848487 g / cm^3
# Si number density = 18.527034 Si / 1000 Ang^3
#
#
#
# Elastic Constant Matrix: (Units=GPa)
#
#
# Indices 1 2 3 4 5 6 
#
# 1 63.7737 51.7221 34.6053 0.0000 0.0000 0.0000
# 2 51.7221 142.4125 47.8698 0.0000 0.0000 0.0000
# 3 34.6053 47.8698 98.7376 0.0000 0.0000 0.0000
# 4 0.0000 0.0000 0.0000 22.6334 0.0000 0.0000
# 5 0.0000 0.0000 0.0000 0.0000 26.8717 0.0000
# 6 0.0000 0.0000 0.0000 0.0000 0.0000 31.5441
#
#
#
# Elastic Compliance Matrix: (Units=1/GPa)
#
#
# Indices 1 2 3 4 5 6 
#
# 1 0.024154 -0.007081 -0.005033 0.000000 0.000000 0.000000
# 2 -0.007081 0.010465 -0.002592 0.000000 0.000000 0.000000
# 3 -0.005033 -0.002592 0.013148 0.000000 0.000000 0.000000
# 4 0.000000 0.000000 0.000000 0.044182 0.000000 0.000000
# 5 0.000000 0.000000 0.000000 0.000000 0.037214 0.000000
# 6 0.000000 0.000000 0.000000 0.000000 0.000000 0.031702
#
#
# Mechanical properties :
#
#
# Convention : Reuss Voigt Hill
#
# Bulk Modulus (GPa) = 54.47631 63.70202 59.08916
# Shear Modulus (GPa) = 25.45904 27.59161 26.52533
#
# Velocity S-wave (km/s) = 3.71098 3.86328 3.78790
# Velocity P-wave (km/s) = 6.91588 7.37278 7.14798
#
# Compressibility (1/GPa) = 0.01835660
#
# Stress axis : x y z
#
# Youngs Moduli (GPa) = 41.40115 95.55952 76.05595
#
# Poissons Ratio (x) = 0.67663 0.38275
# Poissons Ratio (y) = 0.29315 0.19712
# Poissons Ratio (z) = 0.20835 0.24767
#
# Static dielectric constant tensor:
#      x y z
#    x 3.289900 0.000000 0.000000 
#    y 0.000000 3.488420 0.000000 
#    z 0.000000 0.000000 3.382200 
# 
# 
# High freq. dielectric constant tensor:
#      x y z
#    x 1.712940 0.000000 0.000000 
#    y 0.000000 1.724940 0.000000 
#    z 0.000000 0.000000 1.709150 
# 
# From -- ./inp_files/73966.got.cif
#   From: 2010.03.12/outbox.cif.g09.slc.cpg/sg65_37_cif.got.tgz:73966.got - 2010.04.10 20:52:16.
