data_PCOD8271039
_publ_section_title
;
Structure prediction by ZEFSAII (Michael W. Deem and Ramdas Pophale) SiO2 
 PCOD8271039
Probable space group: C M M M
;
_chemical_formula_sum "Si O2"
_cell_formula_units_Z 88
_cell_length_a 8.914925
_cell_length_b 18.347572
_cell_length_c 28.578963
_cell_angle_alpha 90.000000
_cell_angle_beta 90.000000
_cell_angle_gamma 90.000000
_cell_volume 4674.581766
_symmetry_space_group_name_H-M "C M M M"
_symmetry_group_IT_number 65
_symmetry_cell_setting 'orthorhombic'
loop_
_space_group_symop_operation_xyz
x,y,z
-x,-y,z
x,-y,-z
-x,y,-z
-x,-y,-z
x,y,-z
-x,y,z
x,-y,z
1/2+x,1/2+y,z
1/2-x,1/2-y,z
1/2+x,1/2-y,-z
1/2-x,1/2+y,-z
1/2-x,1/2-y,-z
1/2+x,1/2+y,-z
1/2-x,1/2+y,z
1/2+x,1/2-y,z
loop_
_atom_site_type_symbol
_atom_site_label
_atom_site_fract_x
_atom_site_fract_y
_atom_site_fract_z
Si Si1 0.321860 0.581525 0.551786
Si Si2 0.828451 0.413634 0.721063
Si Si3 0.330853 0.413092 0.000000
Si Si4 0.668927 0.586738 0.814723
Si Si5 0.330763 0.913052 0.907227
Si Si6 0.822039 0.171924 0.360910
O O1 0.268260 0.606933 0.500000
O O2 0.500000 0.579628 0.553801
O O3 0.260406 0.500000 0.562114
O O4 0.260061 0.637279 0.590603
O O5 0.815215 0.500000 0.717169
O O6 0.766100 0.385688 0.770804
O O7 0.726262 0.380074 0.680966
O O8 0.000000 0.387535 0.715969
O O9 0.247897 0.382813 0.953987
O O10 0.328785 0.500000 0.000000
O O11 0.500000 0.383434 0.000000
O O12 0.500000 0.617174 0.810532
O O13 0.667638 0.500000 0.816163
O O14 0.742996 0.617597 0.862107
O O15 0.500000 0.883474 0.905719
O O16 0.328943 0.000000 0.907099
O O17 0.750000 0.250000 0.353962
O O18 0.000000 0.179157 0.361105
#
# Coordination Sequence:
#
# PCOD8271039 Si02
#       6
#    16  16   8  16  16  16
#     4   8  15  30  53  79 104 132 169 210 249 292
#     4  10  20  34  52  73  97 126 163 208 255 302
#     4   9  15  21  29  43  67 103 146 189 234 287
#     4   9  16  26  41  61  84 112 150 195 241 291
#     4   9  15  22  32  48  73 106 145 189 237 288
#     4  11  22  35  52  75 104 137 171 207 250 299
#
# _framework density 18.825215
#
# number of rings (size 3 to 8) (size 9 to 14) (size 15 to 20)
#    0.000    2.636    0.000    3.545    0.000    7.636 
#    0.000    0.000    0.000    1.636    0.000    6.364 
#    0.000    0.000    0.000    0.818    0.000   12.364 
#
# Total GULP energy -545534.568191 kJ/mol
# GULP energy per Si atom -12398.512913 kJ/mol
# Density = 1.878237 g / cm^3
# Si number density = 18.825215 Si / 1000 Ang^3
#
#
#
# Elastic Constant Matrix: (Units=GPa)
#
#
# Indices 1 2 3 4 5 6 
#
# 1 110.7409 22.5203 55.5705 0.0000 0.0000 0.0000
# 2 22.5203 23.0612 28.7336 0.0000 0.0000 0.0000
# 3 55.5705 28.7336 165.0973 0.0000 0.0000 0.0000
# 4 0.0000 0.0000 0.0000 0.2802 0.0000 0.0000
# 5 0.0000 0.0000 0.0000 0.0000 22.3202 0.0000
# 6 0.0000 0.0000 0.0000 0.0000 0.0000 13.1358
#
#
#
# Elastic Compliance Matrix: (Units=1/GPa)
#
#
# Indices 1 2 3 4 5 6 
#
# 1 0.012063 -0.008582 -0.002567 0.000000 0.000000 0.000000
# 2 -0.008582 0.061475 -0.007810 0.000000 0.000000 0.000000
# 3 -0.002567 -0.007810 0.008280 0.000000 0.000000 0.000000
# 4 0.000000 0.000000 0.000000 3.568399 0.000000 0.000000
# 5 0.000000 0.000000 0.000000 0.000000 0.044802 0.000000
# 6 0.000000 0.000000 0.000000 0.000000 0.000000 0.076128
#
#
# Mechanical properties :
#
#
# Convention : Reuss Voigt Hill
#
# Bulk Modulus (GPa) = 22.77901 56.94981 39.86441
# Shear Modulus (GPa) = 1.30763 19.95226 10.62995
#
# Velocity S-wave (km/s) = 0.83434 3.25909 2.37885
# Velocity P-wave (km/s) = 3.61313 6.66932 5.36351
#
# Compressibility (1/GPa) = 0.04390007
#
# Stress axis : x y z
#
# Youngs Moduli (GPa) = 82.89522 16.26665 120.76807
#
# Poissons Ratio (x) = 0.13961 0.30999
# Poissons Ratio (y) = 0.71143 0.94326
# Poissons Ratio (z) = 0.21277 0.12705
#
# Static dielectric constant tensor:
#      x y z
#    x 3.468200 0.000000 0.000000 
#    y 0.000000 2.908670 0.000000 
#    z 0.000000 0.000000 3.797280 
# 
# 
# High freq. dielectric constant tensor:
#      x y z
#    x 1.729620 0.000000 0.000000 
#    y 0.000000 1.667000 0.000000 
#    z 0.000000 0.000000 1.752830 
# 
# From -- ./inp_files/76481.got.cif
#   From: 2010.03.12/outbox.cif.g09.slc.cpg/sg65_39_cif.got.tgz:76481.got - 2010.04.10 20:52:16.
