data_PCOD8271168
_publ_section_title
;
Structure prediction by ZEFSAII (Michael W. Deem and Ramdas Pophale) SiO2 
 PCOD8271168
Probable space group: C M M M
;
_chemical_formula_sum "Si O2"
_cell_formula_units_Z 104
_cell_length_a 19.753412
_cell_length_b 9.335528
_cell_length_c 32.905050
_cell_angle_alpha 90.000000
_cell_angle_beta 90.000000
_cell_angle_gamma 90.000000
_cell_volume 6067.971927
_symmetry_space_group_name_H-M "C M M M"
_symmetry_group_IT_number 65
_symmetry_cell_setting 'orthorhombic'
loop_
_space_group_symop_operation_xyz
x,y,z
-x,-y,z
x,-y,-z
-x,y,-z
-x,-y,-z
x,y,-z
-x,y,z
x,-y,z
1/2+x,1/2+y,z
1/2-x,1/2-y,z
1/2+x,1/2-y,-z
1/2-x,1/2+y,-z
1/2-x,1/2-y,-z
1/2+x,1/2+y,-z
1/2-x,1/2+y,z
1/2+x,1/2-y,z
loop_
_atom_site_type_symbol
_atom_site_label
_atom_site_fract_x
_atom_site_fract_y
_atom_site_fract_z
Si Si1 0.317427 0.831722 0.599175
Si Si2 0.078646 0.162837 0.546942
Si Si3 0.184388 0.665683 0.307512
Si Si4 0.425833 0.170065 0.000000
Si Si5 0.418865 0.161305 0.087158
Si Si6 0.077499 0.666802 0.240907
Si Si7 0.080606 0.838684 0.837110
O O1 0.250000 0.750000 0.584777
O O2 0.380259 0.775678 0.573434
O O3 0.333287 0.796300 0.646081
O O4 0.307633 0.000000 0.591507
O O5 0.096864 0.187550 0.500000
O O6 0.000000 0.192956 0.554760
O O7 0.096822 0.000000 0.559561
O O8 0.201705 0.500000 0.302511
O O9 0.250000 0.750000 0.292133
O O10 0.120287 0.710635 0.280419
O O11 0.389651 0.213713 0.957214
O O12 0.500000 0.241933 0.000000
O O13 0.433823 0.000000 0.000000
O O14 0.500000 0.165428 0.085447
O O15 0.390061 0.264343 0.122263
O O16 0.394565 0.000000 0.096918
O O17 0.084512 0.500000 0.230304
O O18 0.106187 0.753967 0.202475
O O19 0.000000 0.707756 0.250488
O O20 0.000000 0.834889 0.838419
O O21 0.108503 0.000000 0.835194
#
# Coordination Sequence:
#
# PCOD8271168 Si02
#       7
#    16  16  16   8  16  16  16
#     4  10  20  34  53  76 101 129 162 199 238 283
#     4   9  19  36  55  75 102 134 165 199 240 283
#     4   9  19  34  51  71  95 123 153 189 233 277
#     4   7  10  16  27  43  61  87 130 175 208 249
#     4   8  12  19  31  45  64  95 134 173 213 258
#     4   9  17  30  47  65  86 115 151 186 221 266
#     4   9  16  24  34  52  78 105 136 177 222 264
#
# _framework density 17.13917
#
# number of rings (size 3 to 8) (size 9 to 14) (size 15 to 20)
#    0.000    3.154    0.000    2.308    0.000    4.615 
#    0.000    2.692    0.000    4.154    0.000    0.000 
#    0.000    0.000    0.000    0.692    0.000    8.923 
#
# Total GULP energy -644535.866222 kJ/mol
# GULP energy per Si atom -12394.920504 kJ/mol
# Density = 1.710016 g / cm^3
# Si number density = 17.139170 Si / 1000 Ang^3
#
#
#
# Elastic Constant Matrix: (Units=GPa)
#
#
# Indices 1 2 3 4 5 6 
#
# 1 55.8983 39.8115 53.7037 0.0000 0.0000 0.0000
# 2 39.8115 88.4554 61.9764 0.0000 0.0000 0.0000
# 3 53.7037 61.9764 115.5050 0.0000 0.0000 0.0000
# 4 0.0000 0.0000 0.0000 20.5672 0.0000 0.0000
# 5 0.0000 0.0000 0.0000 0.0000 1.8834 0.0000
# 6 0.0000 0.0000 0.0000 0.0000 0.0000 21.6994
#
#
#
# Elastic Compliance Matrix: (Units=1/GPa)
#
#
# Indices 1 2 3 4 5 6 
#
# 1 0.034796 -0.006931 -0.012459 0.000000 0.000000 0.000000
# 2 -0.006931 0.019496 -0.007238 0.000000 0.000000 0.000000
# 3 -0.012459 -0.007238 0.018335 0.000000 0.000000 0.000000
# 4 0.000000 0.000000 0.000000 0.048621 0.000000 0.000000
# 5 0.000000 0.000000 0.000000 0.000000 0.530944 0.000000
# 6 0.000000 0.000000 0.000000 0.000000 0.000000 0.046084
#
#
# Mechanical properties :
#
#
# Convention : Reuss Voigt Hill
#
# Bulk Modulus (GPa) = 51.62876 63.42686 57.52781
# Shear Modulus (GPa) = 6.59638 15.78781 11.19210
#
# Velocity S-wave (km/s) = 1.96394 3.03834 2.55818
# Velocity P-wave (km/s) = 5.94402 7.02823 6.50874
#
# Compressibility (1/GPa) = 0.01936905
#
# Stress axis : x y z
#
# Youngs Moduli (GPa) = 28.73857 51.29160 54.54190
#
# Poissons Ratio (x) = 0.35552 0.67956
# Poissons Ratio (y) = 0.19920 0.39480
# Poissons Ratio (z) = 0.35807 0.37127
#
# Static dielectric constant tensor:
#      x y z
#    x 2.771720 0.000000 0.000000 
#    y 0.000000 3.184280 0.000000 
#    z 0.000000 0.000000 3.459480 
# 
# 
# High freq. dielectric constant tensor:
#      x y z
#    x 1.608540 0.000000 0.000000 
#    y 0.000000 1.656630 0.000000 
#    z 0.000000 0.000000 1.674780 
# 
# From -- ./inp_files/78255.got.cif
#   From: 2010.03.12/outbox.cif.g09.slc.cpg/sg65_40_cif.got.tgz:78255.got - 2010.04.10 20:52:16.
