data_PCOD8271224
_publ_section_title
;
Structure prediction by ZEFSAII (Michael W. Deem and Ramdas Pophale) SiO2 
 PCOD8271224
Probable space group: C M M M
;
_chemical_formula_sum "Si O2"
_cell_formula_units_Z 88
_cell_length_a 14.995255
_cell_length_b 24.036461
_cell_length_c 13.551579
_cell_angle_alpha 90.000000
_cell_angle_beta 90.000000
_cell_angle_gamma 90.000000
_cell_volume 4884.434403
_symmetry_space_group_name_H-M "C M M M"
_symmetry_group_IT_number 65
_symmetry_cell_setting 'orthorhombic'
loop_
_space_group_symop_operation_xyz
x,y,z
-x,-y,z
x,-y,-z
-x,y,-z
-x,-y,-z
x,y,-z
-x,y,z
x,-y,z
1/2+x,1/2+y,z
1/2-x,1/2-y,z
1/2+x,1/2-y,-z
1/2-x,1/2+y,-z
1/2-x,1/2-y,-z
1/2+x,1/2+y,-z
1/2-x,1/2+y,z
1/2+x,1/2-y,z
loop_
_atom_site_type_symbol
_atom_site_label
_atom_site_fract_x
_atom_site_fract_y
_atom_site_fract_z
Si Si1 0.246157 0.141892 0.886864
Si Si2 0.604916 0.603719 0.605805
Si Si3 0.396255 0.562946 0.188184
Si Si4 0.397693 0.267870 0.612076
Si Si5 0.400341 0.062155 0.882777
Si Si6 0.250000 0.250000 0.242910
O O1 0.157832 0.103847 0.882672
O O2 0.329460 0.106908 0.842061
O O3 0.230327 0.197292 0.825159
O O4 0.263511 0.158701 0.000000
O O5 0.645782 0.583135 0.500000
O O6 0.500000 0.596816 0.598530
O O7 0.640147 0.568609 0.698933
O O8 0.629557 0.667855 0.621751
O O9 0.500000 0.579852 0.181842
O O10 0.381237 0.500000 0.152362
O O11 0.381675 0.247020 0.500000
O O12 0.500000 0.257989 0.642910
O O13 0.334776 0.235042 0.688155
O O14 0.500000 0.079342 0.848223
O O15 0.377362 0.000000 0.843126
O O16 0.395155 0.061224 0.000000
#
# Coordination Sequence:
#
# PCOD8271224 Si02
#       6
#    16  16  16  16  16   8
#     4  11  23  36  49  71 104 140 179 219 257 301
#     4   8  14  28  50  74 101 131 163 205 257 308
#     4  10  20  34  53  77 105 139 177 214 256 309
#     4   9  18  34  56  79 103 133 170 212 258 311
#     4   8  15  31  54  73  88 114 160 218 269 303
#     4  12  22  34  54  76 104 142 174 208 258 310
#
# _framework density 18.016414999999999
#
# number of rings (size 3 to 8) (size 9 to 14) (size 15 to 20)
#    0.000    2.545    1.818    2.727    0.000    2.545 
#    0.000    2.727    0.000    3.273    0.000    0.000 
#    0.000    0.000    0.000   12.000    0.000    1.091 
#
# Total GULP energy -545358.898477 kJ/mol
# GULP energy per Si atom -12394.520420 kJ/mol
# Density = 1.797541 g / cm^3
# Si number density = 18.016415 Si / 1000 Ang^3
#
#
#
# Elastic Constant Matrix: (Units=GPa)
#
#
# Indices 1 2 3 4 5 6 
#
# 1 90.4375 38.4818 34.4818 0.0000 0.0000 0.0000
# 2 38.4818 63.7487 28.6897 0.0000 0.0000 0.0000
# 3 34.4818 28.6897 63.7974 0.0000 0.0000 0.0000
# 4 0.0000 0.0000 0.0000 7.8148 0.0000 0.0000
# 5 0.0000 0.0000 0.0000 0.0000 23.9385 0.0000
# 6 0.0000 0.0000 0.0000 0.0000 0.0000 24.7739
#
#
#
# Elastic Compliance Matrix: (Units=1/GPa)
#
#
# Indices 1 2 3 4 5 6 
#
# 1 0.016282 -0.007357 -0.005492 0.000000 0.000000 0.000000
# 2 -0.007357 0.022991 -0.006363 0.000000 0.000000 0.000000
# 3 -0.005492 -0.006363 0.021504 0.000000 0.000000 0.000000
# 4 0.000000 0.000000 0.000000 0.127963 0.000000 0.000000
# 5 0.000000 0.000000 0.000000 0.000000 0.041774 0.000000
# 6 0.000000 0.000000 0.000000 0.000000 0.000000 0.040365
#
#
# Mechanical properties :
#
#
# Convention : Reuss Voigt Hill
#
# Bulk Modulus (GPa) = 44.73426 46.81001 45.77214
# Shear Modulus (GPa) = 15.78521 19.06080 17.42301
#
# Velocity S-wave (km/s) = 2.96321 3.25617 3.11314
# Velocity P-wave (km/s) = 6.04906 6.33839 6.19541
#
# Compressibility (1/GPa) = 0.02235423
#
# Stress axis : x y z
#
# Youngs Moduli (GPa) = 61.41901 43.49513 46.50272
#
# Poissons Ratio (x) = 0.31999 0.25538
# Poissons Ratio (y) = 0.45185 0.29589
# Poissons Ratio (z) = 0.33729 0.27675
#
# Static dielectric constant tensor:
#      x y z
#    x 3.292780 0.000000 0.000000 
#    y 0.000000 3.229990 0.000000 
#    z 0.000000 0.000000 3.251580 
# 
# 
# High freq. dielectric constant tensor:
#      x y z
#    x 1.682880 0.000000 0.000000 
#    y 0.000000 1.679320 0.000000 
#    z 0.000000 0.000000 1.685710 
# 
# From -- ./inp_files/25094.got.cif
#   From: 2010.03.12/outbox.cif.g09.slc.cpg/sg65_13_cif.got.tgz:25094.got - 2010.04.10 20:52:16.
