data_PCOD8271081
_publ_section_title
;
Structure prediction by ZEFSAII (Michael W. Deem and Ramdas Pophale) SiO2 
 PCOD8271081
Probable space group: C M M M
;
_chemical_formula_sum "Si O2"
_cell_formula_units_Z 88
_cell_length_a 8.978683
_cell_length_b 17.841191
_cell_length_c 29.096554
_cell_angle_alpha 90.000000
_cell_angle_beta 90.000000
_cell_angle_gamma 90.000000
_cell_volume 4660.988575
_symmetry_space_group_name_H-M "C M M M"
_symmetry_group_IT_number 65
_symmetry_cell_setting 'orthorhombic'
loop_
_space_group_symop_operation_xyz
x,y,z
-x,-y,z
x,-y,-z
-x,y,-z
-x,-y,-z
x,y,-z
-x,y,z
x,-y,z
1/2+x,1/2+y,z
1/2-x,1/2-y,z
1/2+x,1/2-y,-z
1/2-x,1/2+y,-z
1/2-x,1/2-y,-z
1/2+x,1/2+y,-z
1/2-x,1/2+y,z
1/2+x,1/2-y,z
loop_
_atom_site_type_symbol
_atom_site_label
_atom_site_fract_x
_atom_site_fract_y
_atom_site_fract_z
Si Si1 0.831938 0.589795 0.853102
Si Si2 0.669555 0.911095 0.326767
Si Si3 0.822934 0.584140 0.048651
Si Si4 0.176731 0.169489 0.590449
Si Si5 0.823191 0.084069 0.500000
Si Si6 0.833014 0.910755 0.763988
O O1 0.828405 0.500000 0.854561
O O2 0.769628 0.621067 0.902798
O O3 0.730357 0.621522 0.811990
O O4 0.000000 0.617552 0.843990
O O5 0.500000 0.883009 0.332373
O O6 0.773453 0.878027 0.365975
O O7 0.730977 0.882045 0.277860
O O8 0.679429 0.000000 0.329896
O O9 0.759832 0.500000 0.046436
O O10 0.000000 0.581500 0.051290
O O11 0.773494 0.624637 0.000000
O O12 0.250000 0.250000 0.591989
O O13 0.234693 0.127327 0.544914
O O14 0.000000 0.177731 0.590766
O O15 0.000000 0.080312 0.500000
O O16 0.756464 0.000000 0.500000
O O17 0.000000 0.880233 0.757161
O O18 0.831095 0.000000 0.765404
#
# Coordination Sequence:
#
# PCOD8271081 Si02
#       6
#    16  16  16  16   8  16
#     4   8  12  18  29  45  66  94 131 178 229 277
#     4  10  20  34  52  74  99 127 164 209 253 297
#     4   7   9  13  22  37  57  84 123 171 220 270
#     4  11  22  37  57  80 109 141 172 205 244 291
#     4   9  19  36  59  85 110 139 174 209 244 284
#     4   9  16  25  38  57  81 110 145 187 237 290
#
# _framework density 18.880115
#
# number of rings (size 3 to 8) (size 9 to 14) (size 15 to 20)
#    0.000    3.000    0.000    4.091    0.000    4.000 
#    0.000    1.364    0.000    3.818    0.000    3.818 
#    0.000    0.000    0.000    0.000    0.000    0.909 
#
# Total GULP energy -545109.576538 kJ/mol
# GULP energy per Si atom -12388.854012 kJ/mol
# Density = 1.883714 g / cm^3
# Si number density = 18.880115 Si / 1000 Ang^3
#
#
#
# Elastic Constant Matrix: (Units=GPa)
#
#
# Indices 1 2 3 4 5 6 
#
# 1 79.7027 18.3299 49.6071 0.0000 0.0000 0.0000
# 2 18.3299 16.5000 24.7430 0.0000 0.0000 0.0000
# 3 49.6071 24.7430 192.9897 0.0000 0.0000 0.0000
# 4 0.0000 0.0000 0.0000 -1.4251 0.0000 0.0000
# 5 0.0000 0.0000 0.0000 0.0000 22.6511 0.0000
# 6 0.0000 0.0000 0.0000 0.0000 0.0000 10.9760
#
#
#
# Elastic Compliance Matrix: (Units=1/GPa)
#
#
# Indices 1 2 3 4 5 6 
#
# 1 0.017793 -0.015980 -0.002525 0.000000 0.000000 0.000000
# 2 -0.015980 0.089383 -0.007352 0.000000 0.000000 0.000000
# 3 -0.002525 -0.007352 0.006773 0.000000 0.000000 0.000000
# 4 0.000000 0.000000 0.000000 -0.701701 0.000000 0.000000
# 5 0.000000 0.000000 0.000000 0.000000 0.044148 0.000000
# 6 0.000000 0.000000 0.000000 0.000000 0.000000 0.091108
#
#
# Mechanical properties :
#
#
# Convention : Reuss Voigt Hill
#
# Bulk Modulus (GPa) = 16.06801 52.72805 34.39803
# Shear Modulus (GPa) = -13.15667 19.54123 3.19228
#
# Velocity S-wave (km/s) = -2.64266 3.22066 1.30172
# Velocity P-wave (km/s) = 0.88460 6.46673 4.52969
#
# Compressibility (1/GPa) = 0.06223545
#
# Stress axis : x y z
#
# Youngs Moduli (GPa) = 56.20132 11.18776 147.64001
#
# Poissons Ratio (x) = 0.17878 0.37277
# Poissons Ratio (y) = 0.89811 1.08547
# Poissons Ratio (z) = 0.14190 0.08225
#
# Static dielectric constant tensor:
#      x y z
#    x 3.315550 0.000000 0.000000 
#    y 0.000000 2.865250 0.000000 
#    z 0.000000 0.000000 4.153690 
# 
# 
# High freq. dielectric constant tensor:
#      x y z
#    x 1.711240 0.000000 0.000000 
#    y 0.000000 1.661330 0.000000 
#    z 0.000000 0.000000 1.767780 
# 
# From -- ./inp_files/76471.got.cif
#   From: 2010.03.12/outbox.cif.g09.slc.cpg/sg65_39_cif.got.tgz:76471.got - 2010.04.10 20:52:16.
