data_PCOD8271477
_publ_section_title
;
Structure prediction by ZEFSAII (Michael W. Deem and Ramdas Pophale) SiO2 
 PCOD8271477
Probable space group: C M M M
;
_chemical_formula_sum "Si O2"
_cell_formula_units_Z 88
_cell_length_a 27.547772
_cell_length_b 18.616311
_cell_length_c 8.976527
_cell_angle_alpha 90.000000
_cell_angle_beta 90.000000
_cell_angle_gamma 90.000000
_cell_volume 4603.503174
_symmetry_space_group_name_H-M "C M M M"
_symmetry_group_IT_number 65
_symmetry_cell_setting 'orthorhombic'
loop_
_space_group_symop_operation_xyz
x,y,z
-x,-y,z
x,-y,-z
-x,y,-z
-x,-y,-z
x,y,-z
-x,y,z
x,-y,z
1/2+x,1/2+y,z
1/2-x,1/2-y,z
1/2+x,1/2-y,-z
1/2-x,1/2+y,-z
1/2-x,1/2-y,-z
1/2+x,1/2+y,-z
1/2-x,1/2+y,z
1/2+x,1/2-y,z
loop_
_atom_site_type_symbol
_atom_site_label
_atom_site_fract_x
_atom_site_fract_y
_atom_site_fract_z
Si Si1 0.944087 0.311158 0.171321
Si Si2 0.375697 0.083133 0.326353
Si Si3 0.500000 0.415153 0.668040
Si Si4 0.409208 0.653685 0.173889
Si Si5 0.279125 0.085274 0.832445
Si Si6 0.818303 0.083754 0.674844
O O1 0.922834 0.373838 0.273646
O O2 0.915436 0.237988 0.203008
O O3 0.000000 0.299178 0.214855
O O4 0.938886 0.334571 0.000000
O O5 0.367031 0.094667 0.500000
O O6 0.328409 0.114212 0.242201
O O7 0.384740 0.000000 0.287737
O O8 0.500000 0.500000 0.665067
O O9 0.500000 0.384331 0.500000
O O10 0.452438 0.389748 0.752133
O O11 0.358930 0.630375 0.245679
O O12 0.409157 0.635245 0.000000
O O13 0.233145 0.111535 0.737267
O O14 0.280499 0.000000 0.832600
O O15 0.275342 0.115875 0.000000
O O16 0.819873 0.098113 0.500000
O O17 0.826628 0.000000 0.711774
#
# Coordination Sequence:
#
# PCOD8271477 Si02
#       6
#    16  16   8  16  16  16
#     4  10  22  41  60  80 110 148 189 233 284 337
#     4  10  21  37  59  88 117 144 180 228 281 339
#     4  11  23  37  55  81 112 147 190 237 283 332
#     4  11  22  38  57  80 111 149 193 237 280 331
#     4   9  17  32  56  84 113 148 187 227 277 333
#     4  10  20  34  54  83 118 152 188 233 282 332
#
# _framework density 19.115877000000001
#
# number of rings (size 3 to 8) (size 9 to 14) (size 15 to 20)
#    0.000    1.909    0.909    3.000    0.000    9.455 
#    0.000    2.727    0.000    5.455    0.000    0.000 
#    0.000    0.000    0.000    0.000    0.000    0.000 
#
# Total GULP energy -545781.531890 kJ/mol
# GULP energy per Si atom -12404.125725 kJ/mol
# Density = 1.907237 g / cm^3
# Si number density = 19.115877 Si / 1000 Ang^3
#
#
#
# Elastic Constant Matrix: (Units=GPa)
#
#
# Indices 1 2 3 4 5 6 
#
# 1 110.2743 47.3124 60.1458 0.0000 0.0000 0.0000
# 2 47.3124 63.7828 53.2610 0.0000 0.0000 0.0000
# 3 60.1458 53.2610 127.6972 0.0000 0.0000 0.0000
# 4 0.0000 0.0000 0.0000 26.0190 0.0000 0.0000
# 5 0.0000 0.0000 0.0000 0.0000-1207.0080 0.0000
# 6 0.0000 0.0000 0.0000 0.0000 0.0000 -71.2582
#
#
#
# Elastic Compliance Matrix: (Units=1/GPa)
#
#
# Indices 1 2 3 4 5 6 
#
# 1 0.014273 -0.007632 -0.003540 0.000000 0.000000 0.000000
# 2 -0.007632 0.028137 -0.008141 0.000000 0.000000 0.000000
# 3 -0.003540 -0.008141 0.012894 0.000000 0.000000 0.000000
# 4 0.000000 0.000000 0.000000 0.038433 0.000000 0.000000
# 5 0.000000 0.000000 0.000000 0.000000 -0.000828 0.000000
# 6 0.000000 0.000000 0.000000 0.000000 0.000000 -0.014033
#
#
# Mechanical properties :
#
#
# Convention : Reuss Voigt Hill
#
# Bulk Modulus (GPa) = 59.95465 69.24362 64.59914
# Shear Modulus (GPa) = 40.63026 -241.04712 -100.20843
#
# Velocity S-wave (km/s) = 4.61529 -11.24151 -7.24813
# Velocity P-wave (km/s) = 7.73518 11.49755 6.01501
#
# Compressibility (1/GPa) = 0.01667927
#
# Stress axis : x y z
#
# Youngs Moduli (GPa) = 70.06118 35.53979 77.55664
#
# Poissons Ratio (x) = 0.27123 0.27452
# Poissons Ratio (y) = 0.53469 0.63141
# Poissons Ratio (z) = 0.24799 0.28934
#
# Static dielectric constant tensor:
#      x y z
#    x 3.504770 0.000000 0.000000 
#    y 0.000000 3.268770 0.000000 
#    z 0.000000 0.000000 3.697060 
# 
# 
# High freq. dielectric constant tensor:
#      x y z
#    x 1.756030 0.000000 0.000000 
#    y 0.000000 1.719460 0.000000 
#    z 0.000000 0.000000 1.758370 
# 
# From -- ./inp_files/11803.got.cif
#   From: 2010.03.12/outbox.cif.g09.slc.cpg/sg65_6_cif.got.tgz:11803.got - 2010.04.10 20:52:16.
