data_PCOD8271482
_publ_section_title
;
Structure prediction by ZEFSAII (Michael W. Deem and Ramdas Pophale) SiO2 
 PCOD8271482
Probable space group: C M M M
;
_chemical_formula_sum "Si O2"
_cell_formula_units_Z 104
_cell_length_a 8.878015
_cell_length_b 28.515025
_cell_length_c 20.421818
_cell_angle_alpha 90.000000
_cell_angle_beta 90.000000
_cell_angle_gamma 90.000000
_cell_volume 5169.922497
_symmetry_space_group_name_H-M "C M M M"
_symmetry_group_IT_number 65
_symmetry_cell_setting 'orthorhombic'
loop_
_space_group_symop_operation_xyz
x,y,z
-x,-y,z
x,-y,-z
-x,y,-z
-x,-y,-z
x,y,-z
-x,y,z
x,-y,z
1/2+x,1/2+y,z
1/2-x,1/2-y,z
1/2+x,1/2-y,-z
1/2-x,1/2+y,-z
1/2-x,1/2-y,-z
1/2+x,1/2+y,-z
1/2-x,1/2+y,z
1/2+x,1/2-y,z
loop_
_atom_site_type_symbol
_atom_site_label
_atom_site_fract_x
_atom_site_fract_y
_atom_site_fract_z
Si Si1 0.829483 0.645709 0.803706
Si Si2 0.177503 0.800344 0.689465
Si Si3 0.177472 0.404641 0.073752
Si Si4 0.825870 0.052688 0.399038
Si Si5 0.331364 0.500000 0.077735
Si Si6 0.832403 0.449058 0.732830
Si Si7 0.673271 0.855960 0.427896
O O1 0.722687 0.678159 0.759889
O O2 0.782016 0.641109 0.880444
O O3 0.814650 0.591430 0.784922
O O4 0.000000 0.664657 0.794928
O O5 0.250000 0.750000 0.680853
O O6 0.228672 0.831742 0.628293
O O7 0.000000 0.795370 0.687264
O O8 0.251141 0.452336 0.101527
O O9 0.000000 0.413288 0.075922
O O10 0.232668 0.392825 0.000000
O O11 0.793453 0.057807 0.322209
O O12 0.724296 0.090212 0.436954
O O13 0.000000 0.064113 0.412101
O O14 0.786618 0.000000 0.423436
O O15 0.500000 0.500000 0.106339
O O16 0.329876 0.500000 0.000000
O O17 0.808849 0.500000 0.767018
O O18 0.000000 0.446559 0.700719
O O19 0.694004 0.832131 0.500000
O O20 0.500000 0.853461 0.405602
#
# Coordination Sequence:
#
# PCOD8271482 Si02
#       7
#    16  16  16  16   8  16  16
#     4  10  20  35  59  87 118 154 197 244 292 347
#     4  12  26  45  69  92 117 146 185 239 299 360
#     4   9  18  32  52  80 116 160 205 245 288 343
#     4  10  20  34  54  83 120 160 201 244 287 334
#     4   9  17  29  45  71 113 163 208 249 290 335
#     4   9  17  29  49  77 112 155 198 239 285 339
#     4  11  24  42  64  90 121 157 197 238 285 345
#
# _framework density 20.116357000000001
#
# number of rings (size 3 to 8) (size 9 to 14) (size 15 to 20)
#    0.000    1.923    1.538    2.538    1.077    4.308 
#    0.000    1.538    0.000    0.462    0.000    0.000 
#    0.000    0.000    0.000    0.000    0.000    0.000 
#
# Total GULP energy -644448.549307 kJ/mol
# GULP energy per Si atom -12393.241333 kJ/mol
# Density = 2.007057 g / cm^3
# Si number density = 20.116357 Si / 1000 Ang^3
#
#
#
# Elastic Constant Matrix: (Units=GPa)
#
#
# Indices 1 2 3 4 5 6 
#
# 1 109.5132 42.0185 39.5409 0.0000 0.0000 0.0000
# 2 42.0185 86.9688 38.0820 0.0000 0.0000 0.0000
# 3 39.5409 38.0820 92.0423 0.0000 0.0000 0.0000
# 4 0.0000 0.0000 0.0000 9.2443 0.0000 0.0000
# 5 0.0000 0.0000 0.0000 0.0000 11.5040 0.0000
# 6 0.0000 0.0000 0.0000 0.0000 0.0000 30.1613
#
#
#
# Elastic Compliance Matrix: (Units=1/GPa)
#
#
# Indices 1 2 3 4 5 6 
#
# 1 0.012007 -0.004326 -0.003368 0.000000 0.000000 0.000000
# 2 -0.004326 0.015601 -0.004596 0.000000 0.000000 0.000000
# 3 -0.003368 -0.004596 0.014213 0.000000 0.000000 0.000000
# 4 0.000000 0.000000 0.000000 0.108175 0.000000 0.000000
# 5 0.000000 0.000000 0.000000 0.000000 0.086926 0.000000
# 6 0.000000 0.000000 0.000000 0.000000 0.000000 0.033155
#
#
# Mechanical properties :
#
#
# Convention : Reuss Voigt Hill
#
# Bulk Modulus (GPa) = 58.00494 58.64523 58.32509
# Shear Modulus (GPa) = 16.64409 21.44079 19.04244
#
# Velocity S-wave (km/s) = 2.87956 3.26826 3.08005
# Velocity P-wave (km/s) = 6.32085 6.59229 6.45800
#
# Compressibility (1/GPa) = 0.01723991
#
# Stress axis : x y z
#
# Youngs Moduli (GPa) = 83.28151 64.09716 70.35666
#
# Poissons Ratio (x) = 0.27731 0.23698
# Poissons Ratio (y) = 0.36031 0.32338
# Poissons Ratio (z) = 0.28052 0.29461
#
# Static dielectric constant tensor:
#      x y z
#    x 3.683340 0.000000 0.000000 
#    y 0.000000 3.571230 0.000000 
#    z 0.000000 0.000000 3.795760 
# 
# 
# High freq. dielectric constant tensor:
#      x y z
#    x 1.781460 0.000000 0.000000 
#    y 0.000000 1.760900 0.000000 
#    z 0.000000 0.000000 1.787660 
# 
# From -- ./inp_files/60368.got.cif
#   From: 2010.03.12/outbox.cif.g09.slc.cpg/sg65_31_cif.got.tgz:60368.got - 2010.04.10 20:52:16.
