data_PCOD8271779
_publ_section_title
;
Structure prediction by ZEFSAII (Michael W. Deem and Ramdas Pophale) SiO2 
 PCOD8271779
Probable space group: C M M M
;
_chemical_formula_sum "Si O2"
_cell_formula_units_Z 104
_cell_length_a 17.253183
_cell_length_b 27.447737
_cell_length_c 11.641021
_cell_angle_alpha 90.000000
_cell_angle_beta 90.000000
_cell_angle_gamma 90.000000
_cell_volume 5512.731560
_symmetry_space_group_name_H-M "C M M M"
_symmetry_group_IT_number 65
_symmetry_cell_setting 'orthorhombic'
loop_
_space_group_symop_operation_xyz
x,y,z
-x,-y,z
x,-y,-z
-x,y,-z
-x,-y,-z
x,y,-z
-x,y,z
x,-y,z
1/2+x,1/2+y,z
1/2-x,1/2-y,z
1/2+x,1/2-y,-z
1/2-x,1/2+y,-z
1/2-x,1/2-y,-z
1/2+x,1/2+y,-z
1/2-x,1/2+y,z
1/2+x,1/2-y,z
loop_
_atom_site_type_symbol
_atom_site_label
_atom_site_fract_x
_atom_site_fract_y
_atom_site_fract_z
Si Si1 0.367897 0.258852 0.500000
Si Si2 0.413572 0.864486 0.865285
Si Si3 0.726893 0.167357 0.500000
Si Si4 0.206418 0.443772 0.132499
Si Si5 0.669816 0.769944 0.134187
Si Si6 0.693560 0.609540 0.685584
Si Si7 0.914940 0.803937 0.731529
Si Si8 0.909774 0.057645 0.500000
O O1 0.351393 0.200046 0.500000
O O2 0.292847 0.292331 0.500000
O O3 0.414797 0.272982 0.613640
O O4 0.500000 0.863262 0.809439
O O5 0.374121 0.916395 0.839769
O O6 0.356302 0.822492 0.815027
O O7 0.422422 0.855246 0.000000
O O8 0.735583 0.131824 0.389628
O O9 0.191326 0.500000 0.159454
O O10 0.274719 0.424310 0.213186
O O11 0.231315 0.435288 0.000000
O O12 0.750000 0.750000 0.192843
O O13 0.601872 0.732369 0.163239
O O14 0.683232 0.774160 0.000000
O O15 0.646945 0.653457 0.741871
O O16 0.632834 0.578554 0.611355
O O17 0.000000 0.826325 0.748160
O O18 0.000000 0.074239 0.500000
O O19 0.902501 0.000000 0.500000
#
# Coordination Sequence:
#
# PCOD8271779 Si02
#       8
#     8  16   8  16  16  16  16   8
#     4   9  19  32  50  73 110 139 175 217 267 314
#     4   9  18  33  52  75 105 141 185 234 274 315
#     4   8  18  32  51  76  98 141 180 222 259 313
#     4  10  21  36  56  83 112 144 184 233 291 347
#     4  10  21  35  52  76 108 146 186 224 266 322
#     4  10  20  35  55  79 113 143 182 231 274 331
#     4  11  22  33  52  78 110 145 178 218 266 327
#     4  10  20  36  60  83 103 136 186 245 296 329
#
# _framework density 18.865421000000001
#
# number of rings (size 3 to 8) (size 9 to 14) (size 15 to 20)
#    0.000    2.231    0.000    3.000    6.462    3.077 
#    0.000    1.538    0.000    1.385    0.000    7.000 
#    0.000    5.538    0.000    0.000    0.000    0.000 
#
# Total GULP energy -644559.822276 kJ/mol
# GULP energy per Si atom -12395.381198 kJ/mol
# Density = 1.882248 g / cm^3
# Si number density = 18.865421 Si / 1000 Ang^3
#
#
#
# Elastic Constant Matrix: (Units=GPa)
#
#
# Indices 1 2 3 4 5 6 
#
# 1 112.3206 61.0046 34.1406 0.0000 0.0000 0.0000
# 2 61.0046 141.3865 40.7857 0.0000 0.0000 0.0000
# 3 34.1406 40.7857 41.9795 0.0000 0.0000 0.0000
# 4 0.0000 0.0000 0.0000 27.3988 0.0000 0.0000
# 5 0.0000 0.0000 0.0000 0.0000 15.7512 0.0000
# 6 0.0000 0.0000 0.0000 0.0000 0.0000 28.8364
#
#
#
# Elastic Compliance Matrix: (Units=1/GPa)
#
#
# Indices 1 2 3 4 5 6 
#
# 1 0.012997 -0.003555 -0.007116 0.000000 0.000000 0.000000
# 2 -0.003555 0.010799 -0.007601 0.000000 0.000000 0.000000
# 3 -0.007116 -0.007601 0.036993 0.000000 0.000000 0.000000
# 4 0.000000 0.000000 0.000000 0.036498 0.000000 0.000000
# 5 0.000000 0.000000 0.000000 0.000000 0.063487 0.000000
# 6 0.000000 0.000000 0.000000 0.000000 0.000000 0.034678
#
#
# Mechanical properties :
#
#
# Convention : Reuss Voigt Hill
#
# Bulk Modulus (GPa) = 41.24512 63.06095 52.15304
# Shear Modulus (GPa) = 20.82645 25.04764 22.93705
#
# Velocity S-wave (km/s) = 3.32618 3.64772 3.49065
# Velocity P-wave (km/s) = 6.05488 7.15824 6.62955
#
# Compressibility (1/GPa) = 0.02424529
#
# Stress axis : x y z
#
# Youngs Moduli (GPa) = 76.94145 92.59758 27.03199
#
# Poissons Ratio (x) = 0.32919 0.19236
# Poissons Ratio (y) = 0.27353 0.20547
# Poissons Ratio (z) = 0.54751 0.70384
#
# Static dielectric constant tensor:
#      x y z
#    x 3.483570 0.000000 0.000000 
#    y 0.000000 3.586960 0.000000 
#    z 0.000000 0.000000 3.292080 
# 
# 
# High freq. dielectric constant tensor:
#      x y z
#    x 1.724330 0.000000 0.000000 
#    y 0.000000 1.735160 0.000000 
#    z 0.000000 0.000000 1.716620 
# 
# From -- ./inp_files/27537.got.cif
#   From: 2010.03.12/outbox.cif.g09.slc.cpg/sg65_14_cif.got.tgz:27537.got - 2010.04.10 20:52:16.
