data_PCOD8271611
_publ_section_title
;
Structure prediction by ZEFSAII (Michael W. Deem and Ramdas Pophale) SiO2 
 PCOD8271611
Probable space group: C M M M
;
_chemical_formula_sum "Si O2"
_cell_formula_units_Z 96
_cell_length_a 8.748346
_cell_length_b 27.371398
_cell_length_c 24.475157
_cell_angle_alpha 90.000000
_cell_angle_beta 90.000000
_cell_angle_gamma 90.000000
_cell_volume 5860.685508
_symmetry_space_group_name_H-M "C M M M"
_symmetry_group_IT_number 65
_symmetry_cell_setting 'orthorhombic'
loop_
_space_group_symop_operation_xyz
x,y,z
-x,-y,z
x,-y,-z
-x,y,-z
-x,-y,-z
x,y,-z
-x,y,z
x,-y,z
1/2+x,1/2+y,z
1/2-x,1/2-y,z
1/2+x,1/2-y,-z
1/2-x,1/2+y,-z
1/2-x,1/2-y,-z
1/2+x,1/2+y,-z
1/2-x,1/2+y,z
1/2+x,1/2-y,z
loop_
_atom_site_type_symbol
_atom_site_label
_atom_site_fract_x
_atom_site_fract_y
_atom_site_fract_z
Si Si1 0.322543 0.554830 0.375000
Si Si2 0.819710 0.147071 0.559741
Si Si3 0.318784 0.554690 0.057705
Si Si4 0.321743 0.442151 0.823832
Si Si5 0.681106 0.301592 0.332617
Si Si6 0.178534 0.607313 0.722305
O O1 0.500000 0.561989 0.359409
O O2 0.287987 0.500000 0.395098
O O3 0.275666 0.591646 0.423514
O O4 0.226121 0.565848 0.320897
O O5 0.746371 0.158611 0.500000
O O6 0.758646 0.183991 0.606363
O O7 0.000000 0.152192 0.555528
O O8 0.500000 0.552287 0.059308
O O9 0.252991 0.500000 0.055825
O O10 0.268162 0.577876 0.115809
O O11 0.266361 0.581183 0.000000
O O12 0.500000 0.431485 0.812894
O O13 0.289777 0.500000 0.818523
O O14 0.220389 0.411683 0.782050
O O15 0.500000 0.298805 0.331322
O O16 0.750000 0.250000 0.315363
O O17 0.734655 0.342041 0.289477
O O18 0.000000 0.617395 0.718412
#
# Coordination Sequence:
#
# PCOD8271611 Si02
#       6
#    16  16  16  16  16  16
#     4   9  17  29  45  64  88 119 151 183 219 256
#     4   8  15  28  46  69  93 114 139 172 210 258
#     4   7  10  18  34  57  84 115 152 189 220 251
#     4   9  16  26  42  64  91 123 156 189 223 257
#     4  10  20  35  53  70  88 110 137 173 220 270
#     4  11  21  31  44  63  88 117 150 186 221 261
#
# _framework density 16.380336
#
# number of rings (size 3 to 8) (size 9 to 14) (size 15 to 20)
#    0.000    3.000    0.000    5.000    0.000    3.333 
#    0.000    1.667    0.000   12.500    0.000    7.000 
#    0.000    0.667    0.000    1.833    0.000    2.667 
#
# Total GULP energy -594633.790395 kJ/mol
# GULP energy per Si atom -12388.203967 kJ/mol
# Density = 1.634305 g / cm^3
# Si number density = 16.380336 Si / 1000 Ang^3
#
#
#
# Elastic Constant Matrix: (Units=GPa)
#
#
# Indices 1 2 3 4 5 6 
#
# 1 50.7047 21.3485 22.1095 0.0000 0.0000 0.0000
# 2 21.3485 73.3234 23.5225 0.0000 0.0000 0.0000
# 3 22.1095 23.5225 115.4764 0.0000 0.0000 0.0000
# 4 0.0000 0.0000 0.0000 11.5437 0.0000 0.0000
# 5 0.0000 0.0000 0.0000 0.0000 6.7464 0.0000
# 6 0.0000 0.0000 0.0000 0.0000 0.0000 19.6495
#
#
#
# Elastic Compliance Matrix: (Units=1/GPa)
#
#
# Indices 1 2 3 4 5 6 
#
# 1 0.023623 -0.005806 -0.003340 0.000000 0.000000 0.000000
# 2 -0.005806 0.016019 -0.002151 0.000000 0.000000 0.000000
# 3 -0.003340 -0.002151 0.009738 0.000000 0.000000 0.000000
# 4 0.000000 0.000000 0.000000 0.086627 0.000000 0.000000
# 5 0.000000 0.000000 0.000000 0.000000 0.148228 0.000000
# 6 0.000000 0.000000 0.000000 0.000000 0.000000 0.050892
#
#
# Mechanical properties :
#
#
# Convention : Reuss Voigt Hill
#
# Bulk Modulus (GPa) = 37.33613 41.49615 39.41614
# Shear Modulus (GPa) = 13.63696 19.08952 16.36324
#
# Velocity S-wave (km/s) = 2.88847 3.41749 3.16406
# Velocity P-wave (km/s) = 5.82813 6.40002 6.12076
#
# Compressibility (1/GPa) = 0.02678371
#
# Stress axis : x y z
#
# Youngs Moduli (GPa) = 42.33122 62.42605 102.69546
#
# Poissons Ratio (x) = 0.36248 0.34302
# Poissons Ratio (y) = 0.24580 0.22093
# Poissons Ratio (z) = 0.14139 0.13430
#
# Static dielectric constant tensor:
#      x y z
#    x 2.787960 0.000000 0.000000 
#    y 0.000000 2.884140 0.000000 
#    z 0.000000 0.000000 3.548670 
# 
# 
# High freq. dielectric constant tensor:
#      x y z
#    x 1.602750 0.000000 0.000000 
#    y 0.000000 1.594420 0.000000 
#    z 0.000000 0.000000 1.636980 
# 
# From -- ./inp_files/68065.got.cif
#   From: 2010.03.12/outbox.cif.g09.slc.cpg/sg65_35_cif.got.tgz:68065.got - 2010.04.10 20:52:16.
