data_PCOD8271003
_publ_section_title
;
Structure prediction by ZEFSAII (Michael W. Deem and Ramdas Pophale) SiO2 
 PCOD8271003
Probable space group: C M M M
;
_chemical_formula_sum "Si O2"
_cell_formula_units_Z 80
_cell_length_a 28.134305
_cell_length_b 9.002232
_cell_length_c 20.723724
_cell_angle_alpha 90.000000
_cell_angle_beta 90.000000
_cell_angle_gamma 90.000000
_cell_volume 5248.729508
_symmetry_space_group_name_H-M "C M M M"
_symmetry_group_IT_number 65
_symmetry_cell_setting 'orthorhombic'
loop_
_space_group_symop_operation_xyz
x,y,z
-x,-y,z
x,-y,-z
-x,y,-z
-x,-y,-z
x,y,-z
-x,y,z
x,-y,z
1/2+x,1/2+y,z
1/2-x,1/2-y,z
1/2+x,1/2-y,-z
1/2-x,1/2+y,-z
1/2-x,1/2-y,-z
1/2+x,1/2+y,-z
1/2-x,1/2+y,z
1/2+x,1/2-y,z
loop_
_atom_site_type_symbol
_atom_site_label
_atom_site_fract_x
_atom_site_fract_y
_atom_site_fract_z
Si Si1 0.108043 0.324549 0.383489
Si Si2 0.056604 0.167277 0.873934
Si Si3 0.943726 0.170103 0.500000
Si Si4 0.554156 0.172805 0.253566
Si Si5 0.200860 0.172421 0.424708
Si Si6 0.556716 0.832642 0.000000
O O1 0.110981 0.500000 0.395913
O O2 0.074753 0.252245 0.436966
O O3 0.085932 0.285107 0.314569
O O4 0.160216 0.253958 0.384277
O O5 0.075305 0.242329 0.808333
O O6 0.077022 0.252255 0.936323
O O7 0.000000 0.173527 0.875014
O O8 0.075703 0.000000 0.876434
O O9 0.000000 0.177245 0.500000
O O10 0.925211 0.000000 0.500000
O O11 0.500000 0.221685 0.268294
O O12 0.556475 0.000000 0.237386
O O13 0.189086 0.193537 0.500000
O O14 0.250000 0.250000 0.406106
O O15 0.203594 0.000000 0.405804
O O16 0.500000 0.828002 0.000000
O O17 0.575809 0.000000 0.000000
#
# Coordination Sequence:
#
# PCOD8271003 Si02
#       6
#    16  16   8  16  16   8
#     4  11  21  33  50  68  88 115 148 185 226 270
#     4   9  16  25  38  57  80 108 144 184 221 256
#     4  11  23  35  46  63  88 117 151 189 225 261
#     4   9  18  31  44  60  85 118 153 184 217 261
#     4  10  20  34  52  71  91 111 138 178 226 276
#     4   9  15  23  37  55  77 107 142 181 220 257
#
# _framework density 15.241785
#
# number of rings (size 3 to 8) (size 9 to 14) (size 15 to 20)
#    0.000    2.200    1.000    3.000    0.000    7.600 
#    0.000    2.000    0.000    0.000    0.000    0.000 
#    0.000    0.000    0.000    0.900    0.000   12.100 
#
# Total GULP energy -496076.368374 kJ/mol
# GULP energy per Si atom -12401.909209 kJ/mol
# Density = 1.520709 g / cm^3
# Si number density = 15.241785 Si / 1000 Ang^3
#
#
#
# Elastic Constant Matrix: (Units=GPa)
#
#
# Indices 1 2 3 4 5 6 
#
# 1 66.5741 44.1573 46.4755 0.0000 0.0000 0.0000
# 2 44.1573 123.0262 80.6995 0.0000 0.0000 0.0000
# 3 46.4755 80.6995 133.7433 0.0000 0.0000 0.0000
# 4 0.0000 0.0000 0.0000 21.1886 0.0000 0.0000
# 5 0.0000 0.0000 0.0000 0.0000 3.5847 0.0000
# 6 0.0000 0.0000 0.0000 0.0000 0.0000 21.7140
#
#
#
# Elastic Compliance Matrix: (Units=1/GPa)
#
#
# Indices 1 2 3 4 5 6 
#
# 1 0.021308 -0.004619 -0.004617 0.000000 0.000000 0.000000
# 2 -0.004619 0.014454 -0.007116 0.000000 0.000000 0.000000
# 3 -0.004617 -0.007116 0.013375 0.000000 0.000000 0.000000
# 4 0.000000 0.000000 0.000000 0.047195 0.000000 0.000000
# 5 0.000000 0.000000 0.000000 0.000000 0.278960 0.000000
# 6 0.000000 0.000000 0.000000 0.000000 0.000000 0.046053
#
#
# Mechanical properties :
#
#
# Convention : Reuss Voigt Hill
#
# Bulk Modulus (GPa) = 60.85715 74.00091 67.42903
# Shear Modulus (GPa) = 10.88068 19.43155 15.15612
#
# Velocity S-wave (km/s) = 2.67474 3.57443 3.15680
# Velocity P-wave (km/s) = 7.03942 8.10507 7.59097
#
# Compressibility (1/GPa) = 0.01643192
#
# Stress axis : x y z
#
# Youngs Moduli (GPa) = 46.93060 69.18299 74.76362
#
# Poissons Ratio (x) = 0.31958 0.34520
# Poissons Ratio (y) = 0.21679 0.53205
# Poissons Ratio (z) = 0.21669 0.49234
#
# Static dielectric constant tensor:
#      x y z
#    x 2.618390 0.000000 0.000000 
#    y 0.000000 3.127600 0.000000 
#    z 0.000000 0.000000 2.970720 
# 
# 
# High freq. dielectric constant tensor:
#      x y z
#    x 1.537060 0.000000 0.000000 
#    y 0.000000 1.604230 0.000000 
#    z 0.000000 0.000000 1.580430 
# 
# From -- ./inp_files/60046.got.cif
#   From: 2010.03.12/outbox.cif.g09.slc.cpg/sg65_31_cif.got.tgz:60046.got - 2010.04.10 20:52:16.
