data_PCOD8271074
_publ_section_title
;
Structure prediction by ZEFSAII (Michael W. Deem and Ramdas Pophale) SiO2 
 PCOD8271074
Probable space group: C M M M
;
_chemical_formula_sum "Si O2"
_cell_formula_units_Z 120
_cell_length_a 28.517488
_cell_length_b 8.629925
_cell_length_c 28.255674
_cell_angle_alpha 90.000000
_cell_angle_beta 90.000000
_cell_angle_gamma 90.000000
_cell_volume 6953.828252
_symmetry_space_group_name_H-M "C M M M"
_symmetry_group_IT_number 65
_symmetry_cell_setting 'orthorhombic'
loop_
_space_group_symop_operation_xyz
x,y,z
-x,-y,z
x,-y,-z
-x,y,-z
-x,-y,-z
x,y,-z
-x,y,z
x,-y,z
1/2+x,1/2+y,z
1/2-x,1/2-y,z
1/2+x,1/2-y,-z
1/2-x,1/2+y,-z
1/2-x,1/2-y,-z
1/2+x,1/2+y,-z
1/2-x,1/2+y,z
1/2+x,1/2-y,z
loop_
_atom_site_type_symbol
_atom_site_label
_atom_site_fract_x
_atom_site_fract_y
_atom_site_fract_z
Si Si1 0.299480 0.183321 0.287646
Si Si2 0.947515 0.184105 0.052289
Si Si3 0.893913 0.181105 0.315232
Si Si4 0.054622 0.679520 0.226652
Si Si5 0.201421 0.681239 0.821142
Si Si6 0.609186 0.682139 0.141011
Si Si7 0.444755 0.179210 0.402438
Si Si8 0.944421 0.174251 0.500000
O O1 0.250000 0.250000 0.305706
O O2 0.340067 0.263929 0.318138
O O3 0.307681 0.231602 0.233019
O O4 0.300650 0.000000 0.294917
O O5 0.913042 0.249982 0.092557
O O6 0.000000 0.248393 0.061416
O O7 0.948762 0.000000 0.055256
O O8 0.930133 0.236836 0.000000
O O9 0.920489 0.277672 0.275279
O O10 0.918040 0.214721 0.365043
O O11 0.896778 0.000000 0.303539
O O12 0.064652 0.500000 0.215898
O O13 0.074832 0.779865 0.184087
O O14 0.000000 0.715804 0.232056
O O15 0.204701 0.500000 0.825642
O O16 0.250000 0.750000 0.840255
O O17 0.159741 0.741597 0.853670
O O18 0.616117 0.500000 0.138427
O O19 0.500000 0.206748 0.396317
O O20 0.427066 0.232728 0.453991
O O21 0.431711 0.000000 0.394889
O O22 0.000000 0.167019 0.500000
O O23 0.923606 0.000000 0.500000
#
# Coordination Sequence:
#
# PCOD8271074 Si02
#       8
#    16  16  16  16  16  16  16   8
#     4  10  20  35  54  74 101 134 170 211 256 304
#     4   8  15  29  49  74 103 133 167 208 251 296
#     4  12  23  34  51  75 104 137 174 214 257 306
#     4  11  23  36  48  67 101 141 174 206 249 302
#     4  10  20  34  53  74 101 132 166 208 254 302
#     4  11  20  31  52  78 102 130 168 209 253 304
#     4  10  20  34  52  74 104 142 180 218 263 311
#     4   9  17  31  51  75 102 133 176 225 265 305
#
# _framework density 17.256682000000001
#
# number of rings (size 3 to 8) (size 9 to 14) (size 15 to 20)
#    0.000    1.800    1.333    4.600    0.000    5.867 
#    0.000    0.000    0.000    2.000    0.000    5.133 
#    0.000    0.000    0.000    0.000    0.000    0.000 
#
# Total GULP energy -744166.424012 kJ/mol
# GULP energy per Si atom -12402.773734 kJ/mol
# Density = 1.721741 g / cm^3
# Si number density = 17.256682 Si / 1000 Ang^3
#
#
#
# Elastic Constant Matrix: (Units=GPa)
#
#
# Indices 1 2 3 4 5 6 
#
# 1 102.5447 28.7255 43.2338 0.0000 0.0000 0.0000
# 2 28.7255 48.5950 8.8745 0.0000 0.0000 0.0000
# 3 43.2338 8.8745 95.2936 0.0000 0.0000 0.0000
# 4 0.0000 0.0000 0.0000 12.3008 0.0000 0.0000
# 5 0.0000 0.0000 0.0000 0.0000 9.3867 0.0000
# 6 0.0000 0.0000 0.0000 0.0000 0.0000 28.9813
#
#
#
# Elastic Compliance Matrix: (Units=1/GPa)
#
#
# Indices 1 2 3 4 5 6 
#
# 1 0.014253 -0.007370 -0.005780 0.000000 0.000000 0.000000
# 2 -0.007370 0.024745 0.001039 0.000000 0.000000 0.000000
# 3 -0.005780 0.001039 0.013020 0.000000 0.000000 0.000000
# 4 0.000000 0.000000 0.000000 0.081296 0.000000 0.000000
# 5 0.000000 0.000000 0.000000 0.000000 0.106534 0.000000
# 6 0.000000 0.000000 0.000000 0.000000 0.000000 0.034505
#
#
# Mechanical properties :
#
#
# Convention : Reuss Voigt Hill
#
# Bulk Modulus (GPa) = 35.97642 45.34454 40.66048
# Shear Modulus (GPa) = 16.24220 21.17371 18.70795
#
# Velocity S-wave (km/s) = 3.07125 3.50664 3.29614
# Velocity P-wave (km/s) = 5.78531 6.53673 6.17247
#
# Compressibility (1/GPa) = 0.02779599
#
# Stress axis : x y z
#
# Youngs Moduli (GPa) = 70.15892 40.41232 76.80751
#
# Poissons Ratio (x) = 0.29783 0.44397
# Poissons Ratio (y) = 0.51706 -0.07982
# Poissons Ratio (z) = 0.40554 -0.04200
#
# Static dielectric constant tensor:
#      x y z
#    x 3.261360 0.000000 0.000000 
#    y 0.000000 3.226420 0.000000 
#    z 0.000000 0.000000 3.308550 
# 
# 
# High freq. dielectric constant tensor:
#      x y z
#    x 1.658740 0.000000 0.000000 
#    y 0.000000 1.672000 0.000000 
#    z 0.000000 0.000000 1.651380 
# 
# From -- ./inp_files/76108.got.cif
#   From: 2010.03.12/outbox.cif.g09.slc.cpg/sg65_39_cif.got.tgz:76108.got - 2010.04.10 20:52:16.
