data_PCOD8271232
_publ_section_title
;
Structure prediction by ZEFSAII (Michael W. Deem and Ramdas Pophale) SiO2 
 PCOD8271232
Probable space group: C M M M
;
_chemical_formula_sum "Si O2"
_cell_formula_units_Z 104
_cell_length_a 29.431608
_cell_length_b 23.536075
_cell_length_c 8.449084
_cell_angle_alpha 90.000000
_cell_angle_beta 90.000000
_cell_angle_gamma 90.000000
_cell_volume 5852.718789
_symmetry_space_group_name_H-M "C M M M"
_symmetry_group_IT_number 65
_symmetry_cell_setting 'orthorhombic'
loop_
_space_group_symop_operation_xyz
x,y,z
-x,-y,z
x,-y,-z
-x,y,-z
-x,-y,-z
x,y,-z
-x,y,z
x,-y,z
1/2+x,1/2+y,z
1/2-x,1/2-y,z
1/2+x,1/2-y,-z
1/2-x,1/2+y,-z
1/2-x,1/2-y,-z
1/2+x,1/2+y,-z
1/2-x,1/2+y,z
1/2+x,1/2-y,z
loop_
_atom_site_type_symbol
_atom_site_label
_atom_site_fract_x
_atom_site_fract_y
_atom_site_fract_z
Si Si1 0.623979 0.437062 0.183983
Si Si2 0.448498 0.647566 0.316840
Si Si3 0.551404 0.234846 0.180141
Si Si4 0.691308 0.936321 0.181671
Si Si5 0.596038 0.883037 0.184827
Si Si6 0.783445 0.066933 0.320889
Si Si7 0.449107 0.066797 0.500000
O O1 0.618526 0.500000 0.263391
O O2 0.582666 0.397252 0.229657
O O3 0.672276 0.408831 0.231590
O O4 0.623348 0.444806 0.000000
O O5 0.445236 0.634228 0.500000
O O6 0.500000 0.640320 0.253698
O O7 0.432402 0.712171 0.285801
O O8 0.500000 0.215411 0.224942
O O9 0.585966 0.183299 0.208925
O O10 0.553238 0.255536 0.000000
O O11 0.649247 0.894324 0.209392
O O12 0.735415 0.907605 0.262638
O O13 0.680114 0.000000 0.248986
O O14 0.703590 0.942023 0.000000
O O15 0.572033 0.914809 0.330833
O O16 0.581841 0.901148 0.000000
O O17 0.790314 0.084589 0.500000
O O18 0.780379 0.000000 0.291556
O O19 0.500000 0.090745 0.500000
O O20 0.447163 0.000000 0.500000
#
# Coordination Sequence:
#
# PCOD8271232 Si02
#       7
#    16  16  16  16  16  16   8
#     4  10  20  34  53  77 107 141 174 209 255 316
#     4  10  21  35  53  78 106 137 173 217 265 311
#     4   9  18  34  55  76  99 133 180 227 268 314
#     4   9  17  30  49  74 104 137 175 219 267 320
#     4  10  21  36  55  78 106 143 184 230 278 324
#     4   9  17  29  48  74 103 136 172 212 259 312
#     4  11  24  36  50  76 108 143 181 225 278 337
#
# _framework density 17.769518999999999
#
# number of rings (size 3 to 8) (size 9 to 14) (size 15 to 20)
#    0.000    2.385    0.000    2.308    2.154    5.846 
#    0.000    2.308    0.000    0.923    0.000    6.462 
#    0.000    0.000    0.000    0.000    0.000    0.000 
#
# Total GULP energy -644375.771313 kJ/mol
# GULP energy per Si atom -12391.841756 kJ/mol
# Density = 1.772908 g / cm^3
# Si number density = 17.769519 Si / 1000 Ang^3
#
#
#
# Elastic Constant Matrix: (Units=GPa)
#
#
# Indices 1 2 3 4 5 6 
#
# 1 129.9506 61.6345 51.1188 0.0000 0.0000 0.0000
# 2 61.6345 69.7528 29.2016 0.0000 0.0000 0.0000
# 3 51.1188 29.2016 83.1838 0.0000 0.0000 0.0000
# 4 0.0000 0.0000 0.0000 24.3512 0.0000 0.0000
# 5 0.0000 0.0000 0.0000 0.0000 31.1439 0.0000
# 6 0.0000 0.0000 0.0000 0.0000 0.0000 18.1798
#
#
#
# Elastic Compliance Matrix: (Units=1/GPa)
#
#
# Indices 1 2 3 4 5 6 
#
# 1 0.015047 -0.011048 -0.005368 0.000000 0.000000 0.000000
# 2 -0.011048 0.024919 -0.001958 0.000000 0.000000 0.000000
# 3 -0.005368 -0.001958 0.016008 0.000000 0.000000 0.000000
# 4 0.000000 0.000000 0.000000 0.041066 0.000000 0.000000
# 5 0.000000 0.000000 0.000000 0.000000 0.032109 0.000000
# 6 0.000000 0.000000 0.000000 0.000000 0.000000 0.055006
#
#
# Mechanical properties :
#
#
# Convention : Reuss Voigt Hill
#
# Bulk Modulus (GPa) = 52.01831 62.97742 57.49787
# Shear Modulus (GPa) = 21.99615 24.13046 23.06331
#
# Velocity S-wave (km/s) = 3.52214 3.68906 3.60657
# Velocity P-wave (km/s) = 6.77333 7.32556 7.05485
#
# Compressibility (1/GPa) = 0.01922400
#
# Stress axis : x y z
#
# Youngs Moduli (GPa) = 66.45755 40.13055 62.46890
#
# Poissons Ratio (x) = 0.44338 0.33536
# Poissons Ratio (y) = 0.73425 0.12232
# Poissons Ratio (z) = 0.35677 0.07858
#
# Static dielectric constant tensor:
#      x y z
#    x 3.415370 0.000000 0.000000 
#    y 0.000000 3.143560 0.000000 
#    z 0.000000 0.000000 3.456630 
# 
# 
# High freq. dielectric constant tensor:
#      x y z
#    x 1.689590 0.000000 0.000000 
#    y 0.000000 1.653470 0.000000 
#    z 0.000000 0.000000 1.699740 
# 
# From -- ./inp_files/16757.got.cif
#   From: 2010.03.12/outbox.cif.g09.slc.cpg/sg65_9_cif.got.tgz:16757.got - 2010.04.10 20:52:16.
