data_PCOD8271322
_publ_section_title
;
Structure prediction by ZEFSAII (Michael W. Deem and Ramdas Pophale) SiO2 
 PCOD8271322
Probable space group: C M M M
;
_chemical_formula_sum "Si O2"
_cell_formula_units_Z 72
_cell_length_a 9.022878
_cell_length_b 18.130666
_cell_length_c 23.027763
_cell_angle_alpha 90.000000
_cell_angle_beta 90.000000
_cell_angle_gamma 90.000000
_cell_volume 3767.129881
_symmetry_space_group_name_H-M "C M M M"
_symmetry_group_IT_number 65
_symmetry_cell_setting 'orthorhombic'
loop_
_space_group_symop_operation_xyz
x,y,z
-x,-y,z
x,-y,-z
-x,y,-z
-x,-y,-z
x,y,-z
-x,y,z
x,-y,z
1/2+x,1/2+y,z
1/2-x,1/2-y,z
1/2+x,1/2-y,-z
1/2-x,1/2+y,-z
1/2-x,1/2-y,-z
1/2+x,1/2+y,-z
1/2-x,1/2+y,z
1/2+x,1/2-y,z
loop_
_atom_site_type_symbol
_atom_site_label
_atom_site_fract_x
_atom_site_fract_y
_atom_site_fract_z
Si Si1 0.323753 0.417982 0.326735
Si Si2 0.326076 0.673897 0.565038
Si Si3 0.329282 0.413952 0.898278
Si Si4 0.672443 0.327090 0.217785
Si Si5 0.824663 0.670669 0.000000
O O1 0.500000 0.421402 0.322452
O O2 0.257200 0.500000 0.319556
O O3 0.272284 0.387541 0.389373
O O4 0.262121 0.365356 0.275762
O O5 0.281147 0.648227 0.500000
O O6 0.500000 0.687019 0.569845
O O7 0.250000 0.750000 0.582014
O O8 0.500000 0.400448 0.916267
O O9 0.291033 0.500000 0.897805
O O10 0.296051 0.382384 0.834847
O O11 0.222820 0.373910 0.943288
O O12 0.500000 0.310693 0.225120
O O13 0.750000 0.250000 0.205519
O O14 0.750000 0.750000 0.000000
O O15 0.000000 0.681063 0.000000
#
# Coordination Sequence:
#
# PCOD8271322 Si02
#       5
#    16  16  16  16   8
#     4   9  17  30  49  73 100 130 168 213 256 300
#     4   9  17  29  47  71  98 130 167 207 252 301
#     4  10  21  38  59  82 109 140 174 214 262 313
#     4  10  20  34  54  78 103 135 173 212 256 306
#     4  12  25  40  59  83 111 143 179 216 257 306
#
# _framework density 19.112694000000001
#
# number of rings (size 3 to 8) (size 9 to 14) (size 15 to 20)
#    0.000    2.222    0.000    3.333    0.000    7.556 
#    0.000    2.222    0.000    4.000    0.000    3.111 
#    0.000    0.000    0.000    0.000    0.000    0.000 
#
# Total GULP energy -446448.617494 kJ/mol
# GULP energy per Si atom -12401.350486 kJ/mol
# Density = 1.906919 g / cm^3
# Si number density = 19.112694 Si / 1000 Ang^3
#
#
#
# Elastic Constant Matrix: (Units=GPa)
#
#
# Indices 1 2 3 4 5 6 
#
# 1 55.7975 50.7430 44.4010 0.0000 0.0000 0.0000
# 2 50.7430 154.6296 68.6628 0.0000 0.0000 0.0000
# 3 44.4010 68.6628 124.1212 0.0000 0.0000 0.0000
# 4 0.0000 0.0000 0.0000 39.1610 0.0000 0.0000
# 5 0.0000 0.0000 0.0000 0.0000 4.7874 0.0000
# 6 0.0000 0.0000 0.0000 0.0000 0.0000 26.9648
#
#
#
# Elastic Compliance Matrix: (Units=1/GPa)
#
#
# Indices 1 2 3 4 5 6 
#
# 1 0.029379 -0.006594 -0.006862 0.000000 0.000000 0.000000
# 2 -0.006594 0.010053 -0.003202 0.000000 0.000000 0.000000
# 3 -0.006862 -0.003202 0.012283 0.000000 0.000000 0.000000
# 4 0.000000 0.000000 0.000000 0.025536 0.000000 0.000000
# 5 0.000000 0.000000 0.000000 0.000000 0.208884 0.000000
# 6 0.000000 0.000000 0.000000 0.000000 0.000000 0.037085
#
#
# Mechanical properties :
#
#
# Convention : Reuss Voigt Hill
#
# Bulk Modulus (GPa) = 54.35275 73.57356 63.96315
# Shear Modulus (GPa) = 13.78670 25.56541 19.67606
#
# Velocity S-wave (km/s) = 2.68869 3.66131 3.21203
# Velocity P-wave (km/s) = 6.17564 7.51344 6.87714
#
# Compressibility (1/GPa) = 0.01839833
#
# Stress axis : x y z
#
# Youngs Moduli (GPa) = 34.03808 99.47334 81.41478
#
# Poissons Ratio (x) = 0.65592 0.55865
# Poissons Ratio (y) = 0.22445 0.26072
# Poissons Ratio (z) = 0.23356 0.31855
#
# Static dielectric constant tensor:
#      x y z
#    x 3.235000 0.000000 0.000000 
#    y 0.000000 3.697220 0.000000 
#    z 0.000000 0.000000 3.772660 
# 
# 
# High freq. dielectric constant tensor:
#      x y z
#    x 1.707620 0.000000 0.000000 
#    y 0.000000 1.753070 0.000000 
#    z 0.000000 0.000000 1.762600 
# 
# From -- ./inp_files/67010.got.cif
#   From: 2010.03.12/outbox.cif.g09.slc.cpg/sg65_34_cif.got.tgz:67010.got - 2010.04.10 20:52:16.
