data_PCOD8271846
_publ_section_title
;
Structure prediction by ZEFSAII (Michael W. Deem and Ramdas Pophale) SiO2 
 PCOD8271846
Probable space group: C M M M
;
_chemical_formula_sum "Si O2"
_cell_formula_units_Z 104
_cell_length_a 28.430101
_cell_length_b 8.852215
_cell_length_c 23.120452
_cell_angle_alpha 90.000000
_cell_angle_beta 90.000000
_cell_angle_gamma 90.000000
_cell_volume 5818.709509
_symmetry_space_group_name_H-M "C M M M"
_symmetry_group_IT_number 65
_symmetry_cell_setting 'orthorhombic'
loop_
_space_group_symop_operation_xyz
x,y,z
-x,-y,z
x,-y,-z
-x,y,-z
-x,-y,-z
x,y,-z
-x,y,z
x,-y,z
1/2+x,1/2+y,z
1/2-x,1/2-y,z
1/2+x,1/2-y,-z
1/2-x,1/2+y,-z
1/2-x,1/2-y,-z
1/2+x,1/2+y,-z
1/2-x,1/2+y,z
1/2+x,1/2-y,z
loop_
_atom_site_type_symbol
_atom_site_label
_atom_site_fract_x
_atom_site_fract_y
_atom_site_fract_z
Si Si1 0.051163 0.178141 0.500000
Si Si2 0.056112 0.172833 0.624966
Si Si3 0.701401 0.324106 0.892912
Si Si4 0.107931 0.322634 0.727822
Si Si5 0.298543 0.324483 0.757899
Si Si6 0.891098 0.673361 0.065980
Si Si7 0.944876 0.174821 0.834227
O O1 0.076340 0.220567 0.560938
O O2 0.000000 0.256784 0.500000
O O3 0.043651 0.000000 0.500000
O O4 0.078846 0.285093 0.670581
O O5 0.000000 0.190677 0.626203
O O6 0.069855 0.000000 0.640158
O O7 0.703224 0.500000 0.907567
O O8 0.750000 0.250000 0.913292
O O9 0.692260 0.293937 0.825417
O O10 0.659956 0.247512 0.928522
O O11 0.113002 0.500000 0.734781
O O12 0.159472 0.250663 0.721989
O O13 0.081416 0.259551 0.783335
O O14 0.296260 0.500000 0.743318
O O15 0.250000 0.250000 0.737516
O O16 0.887936 0.500000 0.086030
O O17 0.929577 0.759245 0.104218
O O18 0.908073 0.686952 0.000000
O O19 0.000000 0.198334 0.826038
O O20 0.930349 0.000000 0.831640
#
# Coordination Sequence:
#
# PCOD8271846 Si02
#       7
#     8  16  16  16  16  16  16
#     4   7  12  26  49  75 104 143 188 229 267 307
#     4   9  17  31  52  78 110 148 189 229 267 311
#     4  10  20  35  58  82 107 137 170 211 262 318
#     4  12  23  34  53  81 113 145 178 218 266 317
#     4  10  20  35  56  81 108 138 173 214 264 318
#     4  11  24  40  58  80 106 136 172 215 265 322
#     4  11  24  41  59  78 102 136 178 223 269 315
#
# _framework density 17.873380000000001
#
# number of rings (size 3 to 8) (size 9 to 14) (size 15 to 20)
#    0.000    1.769    1.538    4.615    0.000    6.462 
#    0.000    1.923    0.000    1.385    0.000    0.538 
#    0.000    0.000    0.000    0.000    0.000    0.000 
#
# Total GULP energy -644840.188004 kJ/mol
# GULP energy per Si atom -12400.772846 kJ/mol
# Density = 1.783270 g / cm^3
# Si number density = 17.873380 Si / 1000 Ang^3
#
#
#
# Elastic Constant Matrix: (Units=GPa)
#
#
# Indices 1 2 3 4 5 6 
#
# 1 76.8770 50.7977 38.8509 0.0000 0.0000 0.0000
# 2 50.7977 117.7970 39.7457 0.0000 0.0000 0.0000
# 3 38.8509 39.7457 89.9314 0.0000 0.0000 0.0000
# 4 0.0000 0.0000 0.0000 18.9544 0.0000 0.0000
# 5 0.0000 0.0000 0.0000 0.0000 9.5251 0.0000
# 6 0.0000 0.0000 0.0000 0.0000 0.0000 32.5411
#
#
#
# Elastic Compliance Matrix: (Units=1/GPa)
#
#
# Indices 1 2 3 4 5 6 
#
# 1 0.020487 -0.006873 -0.005813 0.000000 0.000000 0.000000
# 2 -0.006873 0.012283 -0.002459 0.000000 0.000000 0.000000
# 3 -0.005813 -0.002459 0.014718 0.000000 0.000000 0.000000
# 4 0.000000 0.000000 0.000000 0.052758 0.000000 0.000000
# 5 0.000000 0.000000 0.000000 0.000000 0.104986 0.000000
# 6 0.000000 0.000000 0.000000 0.000000 0.000000 0.030730
#
#
# Mechanical properties :
#
#
# Convention : Reuss Voigt Hill
#
# Bulk Modulus (GPa) = 58.15003 60.37712 59.26358
# Shear Modulus (GPa) = 18.38337 22.55151 20.46744
#
# Velocity S-wave (km/s) = 3.21055 3.55595 3.38766
# Velocity P-wave (km/s) = 6.80798 7.12134 6.96642
#
# Compressibility (1/GPa) = 0.01719689
#
# Stress axis : x y z
#
# Youngs Moduli (GPa) = 48.81126 81.41372 67.94579
#
# Poissons Ratio (x) = 0.55959 0.39496
# Poissons Ratio (y) = 0.33550 0.16709
# Poissons Ratio (z) = 0.28373 0.20021
#
# Static dielectric constant tensor:
#      x y z
#    x 3.268260 0.000000 0.000000 
#    y 0.000000 3.368310 0.000000 
#    z 0.000000 0.000000 3.387650 
# 
# 
# High freq. dielectric constant tensor:
#      x y z
#    x 1.682060 0.000000 0.000000 
#    y 0.000000 1.698290 0.000000 
#    z 0.000000 0.000000 1.681020 
# 
# From -- ./inp_files/65861.got.cif
#   From: 2010.03.12/outbox.cif.g09.slc.cpg/sg65_33_cif.got.tgz:65861.got - 2010.04.10 20:52:16.
