data_PCOD8271064
_publ_section_title
;
Structure prediction by ZEFSAII (Michael W. Deem and Ramdas Pophale) SiO2 
 PCOD8271064
Probable space group: C M M M
;
_chemical_formula_sum "Si O2"
_cell_formula_units_Z 96
_cell_length_a 8.845646
_cell_length_b 20.039198
_cell_length_c 29.667557
_cell_angle_alpha 90.000000
_cell_angle_beta 90.000000
_cell_angle_gamma 90.000000
_cell_volume 5258.860819
_symmetry_space_group_name_H-M "C M M M"
_symmetry_group_IT_number 65
_symmetry_cell_setting 'orthorhombic'
loop_
_space_group_symop_operation_xyz
x,y,z
-x,-y,z
x,-y,-z
-x,y,-z
-x,-y,-z
x,y,-z
-x,y,z
x,-y,z
1/2+x,1/2+y,z
1/2-x,1/2-y,z
1/2+x,1/2-y,-z
1/2-x,1/2+y,-z
1/2-x,1/2-y,-z
1/2+x,1/2+y,-z
1/2-x,1/2+y,z
1/2+x,1/2-y,z
loop_
_atom_site_type_symbol
_atom_site_label
_atom_site_fract_x
_atom_site_fract_y
_atom_site_fract_z
Si Si1 0.820305 0.074206 0.449875
Si Si2 0.175117 0.681329 0.052943
Si Si3 0.178227 0.819496 0.722836
Si Si4 0.323317 0.577168 0.883174
Si Si5 0.321836 0.681513 0.619739
Si Si6 0.323141 0.922578 0.789360
O O1 0.768887 0.097042 0.500000
O O2 0.753839 0.123693 0.412147
O O3 0.000000 0.073513 0.447250
O O4 0.758005 0.000000 0.439769
O O5 0.250000 0.750000 0.069918
O O6 0.257005 0.619193 0.075831
O O7 0.000000 0.682439 0.066401
O O8 0.199199 0.672306 0.000000
O O9 0.250000 0.750000 0.739675
O O10 0.224206 0.833600 0.671167
O O11 0.242484 0.880900 0.750718
O O12 0.000000 0.814850 0.729536
O O13 0.500000 0.591183 0.877936
O O14 0.289492 0.500000 0.893827
O O15 0.242240 0.599881 0.837387
O O16 0.500000 0.687439 0.614550
O O17 0.250000 0.750000 0.602797
O O18 0.500000 0.907564 0.788897
O O19 0.287046 0.000000 0.780195
#
# Coordination Sequence:
#
# PCOD8271064 Si02
#       6
#    16  16  16  16  16  16
#     4   8  14  26  45  69  96 126 163 205 245 289
#     4  10  21  37  57  81 110 143 179 219 261 306
#     4  10  20  34  52  74 102 134 170 212 256 305
#     4  10  21  37  57  81 109 140 175 215 258 306
#     4   9  18  31  48  71  98 128 162 203 249 296
#     4  10  21  37  56  78 105 135 169 211 258 308
#
# _framework density 18.254904
#
# number of rings (size 3 to 8) (size 9 to 14) (size 15 to 20)
#    0.000    2.500    0.000    2.500    0.000    5.667 
#    0.000    6.667    0.000    0.500    0.000    1.167 
#    0.000    0.000    0.000    0.000    0.000    0.000 
#
# Total GULP energy -595281.363907 kJ/mol
# GULP energy per Si atom -12401.695081 kJ/mol
# Density = 1.821335 g / cm^3
# Si number density = 18.254904 Si / 1000 Ang^3
#
#
#
# Elastic Constant Matrix: (Units=GPa)
#
#
# Indices 1 2 3 4 5 6 
#
# 1 70.1326 45.4869 36.8026 0.0000 0.0000 0.0000
# 2 45.4869 113.0498 69.9626 0.0000 0.0000 0.0000
# 3 36.8026 69.9626 83.4798 0.0000 0.0000 0.0000
# 4 0.0000 0.0000 0.0000 37.8624 0.0000 0.0000
# 5 0.0000 0.0000 0.0000 0.0000 19.8120 0.0000
# 6 0.0000 0.0000 0.0000 0.0000 0.0000 33.0344
#
#
#
# Elastic Compliance Matrix: (Units=1/GPa)
#
#
# Indices 1 2 3 4 5 6 
#
# 1 0.020013 -0.005386 -0.004309 0.000000 0.000000 0.000000
# 2 -0.005386 0.019826 -0.014242 0.000000 0.000000 0.000000
# 3 -0.004309 -0.014242 0.025814 0.000000 0.000000 0.000000
# 4 0.000000 0.000000 0.000000 0.026411 0.000000 0.000000
# 5 0.000000 0.000000 0.000000 0.000000 0.050474 0.000000
# 6 0.000000 0.000000 0.000000 0.000000 0.000000 0.030272
#
#
# Mechanical properties :
#
#
# Convention : Reuss Voigt Hill
#
# Bulk Modulus (GPa) = 56.24144 63.46293 59.85218
# Shear Modulus (GPa) = 22.06422 25.76911 23.91666
#
# Velocity S-wave (km/s) = 3.48037 3.76124 3.62353
# Velocity P-wave (km/s) = 6.85758 7.32823 7.09681
#
# Compressibility (1/GPa) = 0.01778048
#
# Stress axis : x y z
#
# Youngs Moduli (GPa) = 49.96731 50.43806 38.73805
#
# Poissons Ratio (x) = 0.27164 0.16694
# Poissons Ratio (y) = 0.26910 0.55170
# Poissons Ratio (z) = 0.21533 0.71832
#
# Static dielectric constant tensor:
#      x y z
#    x 3.305460 0.000000 0.000000 
#    y 0.000000 3.506030 0.000000 
#    z 0.000000 0.000000 3.444080 
# 
# 
# High freq. dielectric constant tensor:
#      x y z
#    x 1.701790 0.000000 0.000000 
#    y 0.000000 1.712280 0.000000 
#    z 0.000000 0.000000 1.709100 
# 
# From -- ./inp_files/73093.got.cif
#   From: 2010.03.12/outbox.cif.g09.slc.cpg/sg65_37_cif.got.tgz:73093.got - 2010.04.10 20:52:16.
