data_PCOD8271809
_publ_section_title
;
Structure prediction by ZEFSAII (Michael W. Deem and Ramdas Pophale) SiO2 
 PCOD8271809
Probable space group: C M M M
;
_chemical_formula_sum "Si O2"
_cell_formula_units_Z 88
_cell_length_a 17.104163
_cell_length_b 11.689502
_cell_length_c 23.041662
_cell_angle_alpha 90.000000
_cell_angle_beta 90.000000
_cell_angle_gamma 90.000000
_cell_volume 4606.930259
_symmetry_space_group_name_H-M "C M M M"
_symmetry_group_IT_number 65
_symmetry_cell_setting 'orthorhombic'
loop_
_space_group_symop_operation_xyz
x,y,z
-x,-y,z
x,-y,-z
-x,y,-z
-x,-y,-z
x,y,-z
-x,y,z
x,-y,z
1/2+x,1/2+y,z
1/2-x,1/2-y,z
1/2+x,1/2-y,-z
1/2-x,1/2+y,-z
1/2-x,1/2-y,-z
1/2+x,1/2+y,-z
1/2-x,1/2+y,z
1/2+x,1/2-y,z
loop_
_atom_site_type_symbol
_atom_site_label
_atom_site_fract_x
_atom_site_fract_y
_atom_site_fract_z
Si Si1 0.592979 0.130125 0.563436
Si Si2 0.593170 0.000000 0.121753
Si Si3 0.841923 0.257976 0.108517
Si Si4 0.907081 0.720429 0.318626
Si Si5 0.092835 0.872620 0.217074
Si Si6 0.092840 0.500000 0.253583
Si Si7 0.088224 0.135243 0.000000
O O1 0.624636 0.170405 0.500000
O O2 0.500000 0.132564 0.562626
O O3 0.624254 0.215227 0.614554
O O4 0.620418 0.000000 0.576243
O O5 0.629445 0.886205 0.092922
O O6 0.500000 0.000000 0.113817
O O7 0.621725 0.000000 0.187868
O O8 0.750000 0.250000 0.114402
O O9 0.878415 0.215711 0.168881
O O10 0.867971 0.175829 0.057168
O O11 0.880222 0.831433 0.281745
O O12 0.872780 0.610769 0.285295
O O13 0.000000 0.714118 0.319681
O O14 0.000000 0.873905 0.213280
O O15 0.126949 0.000000 0.206968
O O16 0.000000 0.500000 0.255597
O O17 0.000000 0.183056 0.000000
O O18 0.088658 0.000000 0.000000
#
# Coordination Sequence:
#
# PCOD8271809 Si02
#       7
#    16   8  16  16  16   8   8
#     4   8  12  17  29  55  93 134 174 222 285 345
#     4  11  22  39  64  90 118 155 197 237 291 358
#     4  12  26  41  62  91 124 148 183 242 299 338
#     4   9  14  23  41  66  96 134 181 233 279 331
#     4  10  20  35  56  78 106 148 196 233 272 343
#     4   9  14  24  44  72 100 132 177 229 279 333
#     4  11  25  47  71  87 113 159 201 227 265 339
#
# _framework density 19.101656999999999
#
# number of rings (size 3 to 8) (size 9 to 14) (size 15 to 20)
#    0.000    2.091    2.727    3.000    2.545    1.818 
#    0.000    0.909    0.000    0.545    0.000    3.818 
#    0.000    0.727    0.000    1.273    0.000    2.364 
#
# Total GULP energy -545283.602023 kJ/mol
# GULP energy per Si atom -12392.809137 kJ/mol
# Density = 1.905818 g / cm^3
# Si number density = 19.101657 Si / 1000 Ang^3
#
#
#
# Elastic Constant Matrix: (Units=GPa)
#
#
# Indices 1 2 3 4 5 6 
#
# 1 35.0794 26.7167 17.2748 0.0000 0.0000 0.0000
# 2 26.7167 102.1577 31.5542 0.0000 0.0000 0.0000
# 3 17.2748 31.5542 128.4212 0.0000 0.0000 0.0000
# 4 0.0000 0.0000 0.0000 -101.1222 0.0000 0.0000
# 5 0.0000 0.0000 0.0000 0.0000 4.9728 0.0000
# 6 0.0000 0.0000 0.0000 0.0000 0.0000 13.6860
#
#
#
# Elastic Compliance Matrix: (Units=1/GPa)
#
#
# Indices 1 2 3 4 5 6 
#
# 1 0.036488 -0.008686 -0.002774 0.000000 0.000000 0.000000
# 2 -0.008686 0.012660 -0.001942 0.000000 0.000000 0.000000
# 3 -0.002774 -0.001942 0.008637 0.000000 0.000000 0.000000
# 4 0.000000 0.000000 0.000000 -0.009889 0.000000 0.000000
# 5 0.000000 0.000000 0.000000 0.000000 0.201092 0.000000
# 6 0.000000 0.000000 0.000000 0.000000 0.000000 0.073067
#
#
# Mechanical properties :
#
#
# Convention : Reuss Voigt Hill
#
# Bulk Modulus (GPa) = 32.27758 46.30554 39.29156
# Shear Modulus (GPa) = 13.92032 -3.81849 5.05092
#
# Velocity S-wave (km/s) = 2.70246 -1.41541 1.62787
# Velocity P-wave (km/s) = 5.16452 4.65006 4.91403
#
# Compressibility (1/GPa) = 0.03098126
#
# Stress axis : x y z
#
# Youngs Moduli (GPa) = 27.40635 78.98746 115.77698
#
# Poissons Ratio (x) = 0.68605 0.32118
# Poissons Ratio (y) = 0.23804 0.22488
# Poissons Ratio (z) = 0.07603 0.15342
#
# Static dielectric constant tensor:
#      x y z
#    x 3.535650 0.000000 0.000000 
#    y 0.000000 3.654580 0.000000 
#    z 0.000000 0.000000 3.924660 
# 
# 
# High freq. dielectric constant tensor:
#      x y z
#    x 1.687550 0.000000 0.000000 
#    y 0.000000 1.736900 0.000000 
#    z 0.000000 0.000000 1.755900 
# 
# From -- ./inp_files/69837.got.cif
#   From: 2010.03.12/outbox.cif.g09.slc.cpg/sg65_35_cif.got.tgz:69837.got - 2010.04.10 20:52:16.
