data_PCOD8271389
_publ_section_title
;
Structure prediction by ZEFSAII (Michael W. Deem and Ramdas Pophale) SiO2 
 PCOD8271389
Probable space group: C M M M
;
_chemical_formula_sum "Si O2"
_cell_formula_units_Z 72
_cell_length_a 14.101536
_cell_length_b 29.766580
_cell_length_c 8.719259
_cell_angle_alpha 90.000000
_cell_angle_beta 90.000000
_cell_angle_gamma 90.000000
_cell_volume 3659.948197
_symmetry_space_group_name_H-M "C M M M"
_symmetry_group_IT_number 65
_symmetry_cell_setting 'orthorhombic'
loop_
_space_group_symop_operation_xyz
x,y,z
-x,-y,z
x,-y,-z
-x,y,-z
-x,-y,-z
x,y,-z
-x,y,z
x,-y,z
1/2+x,1/2+y,z
1/2-x,1/2-y,z
1/2+x,1/2-y,-z
1/2-x,1/2+y,-z
1/2-x,1/2-y,-z
1/2+x,1/2+y,-z
1/2-x,1/2+y,z
1/2+x,1/2-y,z
loop_
_atom_site_type_symbol
_atom_site_label
_atom_site_fract_x
_atom_site_fract_y
_atom_site_fract_z
Si Si1 0.285317 0.814185 0.317432
Si Si2 0.107048 0.500000 0.683419
Si Si3 0.609194 0.732461 0.818559
Si Si4 0.893899 0.948441 0.824295
Si Si5 0.716349 0.913978 0.321134
O O1 0.286912 0.808198 0.500000
O O2 0.362338 0.781788 0.240920
O O3 0.178563 0.803889 0.259281
O O4 0.315573 0.864529 0.265833
O O5 0.112849 0.500000 0.500000
O O6 0.156452 0.544950 0.753082
O O7 0.000000 0.500000 0.742408
O O8 0.500000 0.722427 0.773409
O O9 0.623602 0.730569 0.000000
O O10 0.826731 0.918969 0.718194
O O11 0.000000 0.930066 0.801621
O O12 0.887849 0.000000 0.772220
O O13 0.862174 0.943377 0.000000
O O14 0.701947 0.916979 0.500000
#
# Coordination Sequence:
#
# PCOD8271389 Si02
#       5
#    16   8  16  16  16
#     4  10  21  35  55  84 112 141 179 224 274 325
#     4   9  18  34  54  75 104 142 181 219 258 305
#     4  10  21  38  59  81 107 142 180 220 272 331
#     4   9  18  32  50  73 102 139 179 217 264 316
#     4  10  20  34  54  80 108 141 181 223 267 312
#
# _framework density 19.672409999999999
#
# number of rings (size 3 to 8) (size 9 to 14) (size 15 to 20)
#    0.000    2.333    1.111    3.333    0.000    5.778 
#    0.000    7.778    0.000    1.333    0.000    0.000 
#    0.000    0.000    0.000    0.000    0.000    0.000 
#
# Total GULP energy -446270.341710 kJ/mol
# GULP energy per Si atom -12396.398381 kJ/mol
# Density = 1.962763 g / cm^3
# Si number density = 19.672410 Si / 1000 Ang^3
#
#
#
# Elastic Constant Matrix: (Units=GPa)
#
#
# Indices 1 2 3 4 5 6 
#
# 1 91.8425 31.2387 14.1098 0.0000 0.0000 0.0000
# 2 31.2387 122.8013 22.4000 0.0000 0.0000 0.0000
# 3 14.1098 22.4000 20.4915 0.0000 0.0000 0.0000
# 4 0.0000 0.0000 0.0000 15.6080 0.0000 0.0000
# 5 0.0000 0.0000 0.0000 0.0000 27.3031 0.0000
# 6 0.0000 0.0000 0.0000 0.0000 0.0000 16.8947
#
#
#
# Elastic Compliance Matrix: (Units=1/GPa)
#
#
# Indices 1 2 3 4 5 6 
#
# 1 0.012565 -0.002021 -0.006443 0.000000 0.000000 0.000000
# 2 -0.002021 0.010497 -0.010082 0.000000 0.000000 0.000000
# 3 -0.006443 -0.010082 0.064258 0.000000 0.000000 0.000000
# 4 0.000000 0.000000 0.000000 0.064070 0.000000 0.000000
# 5 0.000000 0.000000 0.000000 0.000000 0.036626 0.000000
# 6 0.000000 0.000000 0.000000 0.000000 0.000000 0.059190
#
#
# Mechanical properties :
#
#
# Convention : Reuss Voigt Hill
#
# Bulk Modulus (GPa) = 19.90928 41.18137 30.54533
# Shear Modulus (GPa) = 16.60900 23.12027 19.86464
#
# Velocity S-wave (km/s) = 2.90880 3.43193 3.18114
# Velocity P-wave (km/s) = 4.62859 6.05667 5.39013
#
# Compressibility (1/GPa) = 0.05022782
#
# Stress axis : x y z
#
# Youngs Moduli (GPa) = 79.58301 95.26973 15.56217
#
# Poissons Ratio (x) = 0.19257 0.10026
# Poissons Ratio (y) = 0.16086 0.15690
# Poissons Ratio (z) = 0.51273 0.96054
#
# Static dielectric constant tensor:
#      x y z
#    x 3.640560 0.000000 0.000000 
#    y 0.000000 3.824370 0.000000 
#    z 0.000000 0.000000 3.372620 
# 
# 
# High freq. dielectric constant tensor:
#      x y z
#    x 1.762780 0.000000 0.000000 
#    y 0.000000 1.770670 0.000000 
#    z 0.000000 0.000000 1.749550 
# 
# From -- ./inp_files/7656.got.cif
#   From: 2010.03.12/outbox.cif.g09.slc.cpg/sg65_4_cif.got.tgz:7656.got - 2010.04.10 20:52:16.
