data_PCOD8271320
_publ_section_title
;
Structure prediction by ZEFSAII (Michael W. Deem and Ramdas Pophale) SiO2 
 PCOD8271320
Probable space group: C M M M
;
_chemical_formula_sum "Si O2"
_cell_formula_units_Z 80
_cell_length_a 19.448717
_cell_length_b 25.246743
_cell_length_c 9.023576
_cell_angle_alpha 90.000000
_cell_angle_beta 90.000000
_cell_angle_gamma 90.000000
_cell_volume 4430.727049
_symmetry_space_group_name_H-M "C M M M"
_symmetry_group_IT_number 65
_symmetry_cell_setting 'orthorhombic'
loop_
_space_group_symop_operation_xyz
x,y,z
-x,-y,z
x,-y,-z
-x,y,-z
-x,-y,-z
x,y,-z
-x,y,z
x,-y,z
1/2+x,1/2+y,z
1/2-x,1/2-y,z
1/2+x,1/2-y,-z
1/2-x,1/2+y,-z
1/2-x,1/2-y,-z
1/2+x,1/2+y,-z
1/2-x,1/2+y,z
1/2+x,1/2-y,z
loop_
_atom_site_type_symbol
_atom_site_label
_atom_site_fract_x
_atom_site_fract_y
_atom_site_fract_z
Si Si1 0.579697 0.938873 0.169588
Si Si2 0.668564 0.245489 0.163386
Si Si3 0.176646 0.358250 0.325611
Si Si4 0.920738 0.938810 0.331313
Si Si5 0.177843 0.139360 0.174539
O O1 0.500000 0.927643 0.201556
O O2 0.624020 0.903828 0.280490
O O3 0.597210 0.000000 0.200724
O O4 0.597752 0.924419 0.000000
O O5 0.750000 0.250000 0.154263
O O6 0.646321 0.198719 0.273856
O O7 0.643932 0.303618 0.218728
O O8 0.638485 0.232464 0.000000
O O9 0.185062 0.357231 0.500000
O O10 0.250213 0.370729 0.255123
O O11 0.905025 0.921662 0.500000
O O12 0.875218 0.905772 0.218364
O O13 0.000000 0.928520 0.292913
O O14 0.902119 0.000000 0.308712
O O15 0.192331 0.137602 0.000000
#
# Coordination Sequence:
#
# PCOD8271320 Si02
#       5
#    16  16  16  16  16
#     4   9  19  37  58  76  98 133 173 211 254 302
#     4   8  16  32  51  72 101 135 169 207 252 299
#     4  11  21  32  52  80 107 135 167 207 255 304
#     4   9  19  36  55  75 103 137 169 207 259 310
#     4  10  20  34  54  78 103 134 173 214 252 295
#
# _framework density 18.055727999999998
#
# number of rings (size 3 to 8) (size 9 to 14) (size 15 to 20)
#    0.000    2.600    0.000    4.800    0.000    6.800 
#    0.000    3.000    0.000    1.200    0.000    0.000 
#    0.000    0.000    0.000    0.000    0.000    0.000 
#
# Total GULP energy -495919.514635 kJ/mol
# GULP energy per Si atom -12397.987866 kJ/mol
# Density = 1.801463 g / cm^3
# Si number density = 18.055728 Si / 1000 Ang^3
#
#
#
# Elastic Constant Matrix: (Units=GPa)
#
#
# Indices 1 2 3 4 5 6 
#
# 1 61.9400 58.4041 48.1472 0.0000 0.0000 0.0000
# 2 58.4041 115.2518 64.4419 0.0000 0.0000 0.0000
# 3 48.1472 64.4419 113.1437 0.0000 0.0000 0.0000
# 4 0.0000 0.0000 0.0000 24.6601 0.0000 0.0000
# 5 0.0000 0.0000 0.0000 0.0000 28.5854 0.0000
# 6 0.0000 0.0000 0.0000 0.0000 0.0000 -32.2334
#
#
#
# Elastic Compliance Matrix: (Units=1/GPa)
#
#
# Indices 1 2 3 4 5 6 
#
# 1 0.034210 -0.013493 -0.006872 0.000000 0.000000 0.000000
# 2 -0.013493 0.018053 -0.004540 0.000000 0.000000 0.000000
# 3 -0.006872 -0.004540 0.014349 0.000000 0.000000 0.000000
# 4 0.000000 0.000000 0.000000 0.040551 0.000000 0.000000
# 5 0.000000 0.000000 0.000000 0.000000 0.034983 0.000000
# 6 0.000000 0.000000 0.000000 0.000000 0.000000 -0.031024
#
#
# Mechanical properties :
#
#
# Convention : Reuss Voigt Hill
#
# Bulk Modulus (GPa) = 59.52538 70.25799 64.89169
# Shear Modulus (GPa) = 30.02393 12.15857 21.09125
#
# Velocity S-wave (km/s) = 4.08223 2.59779 3.42148
# Velocity P-wave (km/s) = 7.43361 6.92779 7.18515
#
# Compressibility (1/GPa) = 0.01679956
#
# Stress axis : x y z
#
# Youngs Moduli (GPa) = 29.23153 55.39230 69.69208
#
# Poissons Ratio (x) = 0.74742 0.47896
# Poissons Ratio (y) = 0.39443 0.31643
# Poissons Ratio (z) = 0.20089 0.25150
#
# Static dielectric constant tensor:
#      x y z
#    x 3.033870 0.000000 0.000000 
#    y 0.000000 3.723700 0.000000 
#    z 0.000000 0.000000 3.261310 
# 
# 
# High freq. dielectric constant tensor:
#      x y z
#    x 1.672230 0.000000 0.000000 
#    y 0.000000 1.712250 0.000000 
#    z 0.000000 0.000000 1.697610 
# 
# From -- ./inp_files/9659.got.cif
#   From: 2010.03.12/outbox.cif.g09.slc.cpg/sg65_5_cif.got.tgz:9659.got - 2010.04.10 20:52:16.
