data_PCOD8271540
_publ_section_title
;
Structure prediction by ZEFSAII (Michael W. Deem and Ramdas Pophale) SiO2 
 PCOD8271540
Probable space group: C M M M
;
_chemical_formula_sum "Si O2"
_cell_formula_units_Z 96
_cell_length_a 28.691603
_cell_length_b 8.725665
_cell_length_c 20.337114
_cell_angle_alpha 90.000000
_cell_angle_beta 90.000000
_cell_angle_gamma 90.000000
_cell_volume 5091.463930
_symmetry_space_group_name_H-M "C M M M"
_symmetry_group_IT_number 65
_symmetry_cell_setting 'orthorhombic'
loop_
_space_group_symop_operation_xyz
x,y,z
-x,-y,z
x,-y,-z
-x,y,-z
-x,-y,-z
x,y,-z
-x,y,z
x,-y,z
1/2+x,1/2+y,z
1/2-x,1/2-y,z
1/2+x,1/2-y,-z
1/2-x,1/2+y,-z
1/2-x,1/2-y,-z
1/2+x,1/2+y,-z
1/2-x,1/2+y,z
1/2+x,1/2-y,z
loop_
_atom_site_type_symbol
_atom_site_label
_atom_site_fract_x
_atom_site_fract_y
_atom_site_fract_z
Si Si1 0.142196 0.320823 0.186790
Si Si2 0.552455 0.676834 0.771928
Si Si3 0.551426 0.825400 0.634449
Si Si4 0.147314 0.677653 0.425869
Si Si5 0.700962 0.321036 0.924056
Si Si6 0.699237 0.319553 0.306035
O O1 0.150813 0.500000 0.192451
O O2 0.087373 0.281949 0.186287
O O3 0.161322 0.259476 0.118049
O O4 0.165804 0.240566 0.248991
O O5 0.500000 0.713765 0.795640
O O6 0.565103 0.500000 0.783368
O O7 0.558026 0.711537 0.695006
O O8 0.500000 0.800865 0.602145
O O9 0.592004 0.789491 0.582289
O O10 0.556149 0.000000 0.660512
O O11 0.160978 0.723731 0.500000
O O12 0.158293 0.500000 0.412125
O O13 0.178388 0.777166 0.376906
O O14 0.702346 0.500000 0.908472
O O15 0.750000 0.250000 0.902692
O O16 0.689997 0.286973 0.000000
O O17 0.703231 0.500000 0.300032
O O18 0.750000 0.250000 0.296600
#
# Coordination Sequence:
#
# PCOD8271540 Si02
#       6
#    16  16  16  16  16  16
#     4  12  23  37  60  88 119 152 190 233 281 335
#     4  10  20  34  55  84 116 149 187 233 283 334
#     4   9  17  31  53  80 111 146 183 226 278 336
#     4  10  21  37  56  80 112 148 187 232 285 344
#     4  10  21  38  60  88 123 159 194 232 278 332
#     4  12  25  41  60  81 108 143 188 239 289 340
#
# _framework density 18.855087999999999
#
# number of rings (size 3 to 8) (size 9 to 14) (size 15 to 20)
#    0.000    1.500    1.667    4.500    0.000    3.000 
#    0.000    1.667    0.000    0.500    0.000    7.000 
#    0.000    0.000    0.000    0.000    0.000    0.000 
#
# Total GULP energy -595320.823750 kJ/mol
# GULP energy per Si atom -12402.517161 kJ/mol
# Density = 1.881217 g / cm^3
# Si number density = 18.855088 Si / 1000 Ang^3
#
#
#
# Elastic Constant Matrix: (Units=GPa)
#
#
# Indices 1 2 3 4 5 6 
#
# 1 109.2509 49.8938 44.5972 0.0000 0.0000 0.0000
# 2 49.8938 117.7499 44.8288 0.0000 0.0000 0.0000
# 3 44.5972 44.8288 83.2227 0.0000 0.0000 0.0000
# 4 0.0000 0.0000 0.0000 28.7589 0.0000 0.0000
# 5 0.0000 0.0000 0.0000 0.0000 30.0733 0.0000
# 6 0.0000 0.0000 0.0000 0.0000 0.0000 29.2269
#
#
#
# Elastic Compliance Matrix: (Units=1/GPa)
#
#
# Indices 1 2 3 4 5 6 
#
# 1 0.012787 -0.003534 -0.004949 0.000000 0.000000 0.000000
# 2 -0.003534 0.011660 -0.004387 0.000000 0.000000 0.000000
# 3 -0.004949 -0.004387 0.017031 0.000000 0.000000 0.000000
# 4 0.000000 0.000000 0.000000 0.034772 0.000000 0.000000
# 5 0.000000 0.000000 0.000000 0.000000 0.033252 0.000000
# 6 0.000000 0.000000 0.000000 0.000000 0.000000 0.034215
#
#
# Mechanical properties :
#
#
# Convention : Reuss Voigt Hill
#
# Bulk Modulus (GPa) = 63.53777 65.42924 64.48350
# Shear Modulus (GPa) = 28.61982 29.00540 28.81261
#
# Velocity S-wave (km/s) = 3.90023 3.92641 3.91334
# Velocity P-wave (km/s) = 7.35211 7.43855 7.39546
#
# Compressibility (1/GPa) = 0.01573867
#
# Stress axis : x y z
#
# Youngs Moduli (GPa) = 78.20171 85.76067 58.71658
#
# Poissons Ratio (x) = 0.30311 0.29057
# Poissons Ratio (y) = 0.27639 0.25759
# Poissons Ratio (z) = 0.38700 0.37623
#
# Static dielectric constant tensor:
#      x y z
#    x 3.726080 0.000000 0.000000 
#    y 0.000000 3.532730 0.000000 
#    z 0.000000 0.000000 3.265120 
# 
# 
# High freq. dielectric constant tensor:
#      x y z
#    x 1.743350 0.000000 0.000000 
#    y 0.000000 1.741050 0.000000 
#    z 0.000000 0.000000 1.709960 
# 
# From -- ./inp_files/60197.got.cif
#   From: 2010.03.12/outbox.cif.g09.slc.cpg/sg65_31_cif.got.tgz:60197.got - 2010.04.10 20:52:16.
