data_PCOD8271429
_publ_section_title
;
Structure prediction by ZEFSAII (Michael W. Deem and Ramdas Pophale) SiO2 
 PCOD8271429
Probable space group: C M M M
;
_chemical_formula_sum "Si O2"
_cell_formula_units_Z 104
_cell_length_a 26.819694
_cell_length_b 9.098460
_cell_length_c 22.683652
_cell_angle_alpha 90.000000
_cell_angle_beta 90.000000
_cell_angle_gamma 90.000000
_cell_volume 5535.217422
_symmetry_space_group_name_H-M "C M M M"
_symmetry_group_IT_number 65
_symmetry_cell_setting 'orthorhombic'
loop_
_space_group_symop_operation_xyz
x,y,z
-x,-y,z
x,-y,-z
-x,y,-z
-x,-y,-z
x,y,-z
-x,y,z
x,-y,z
1/2+x,1/2+y,z
1/2-x,1/2-y,z
1/2+x,1/2-y,-z
1/2-x,1/2+y,-z
1/2-x,1/2-y,-z
1/2+x,1/2+y,-z
1/2-x,1/2+y,z
1/2+x,1/2-y,z
loop_
_atom_site_type_symbol
_atom_site_label
_atom_site_fract_x
_atom_site_fract_y
_atom_site_fract_z
Si Si1 0.444408 0.829691 0.872064
Si Si2 0.699695 0.327874 0.432064
Si Si3 0.886462 0.328063 0.754916
Si Si4 0.598587 0.674365 0.634760
Si Si5 0.140338 0.828511 0.065574
Si Si6 0.000000 0.826109 0.434516
Si Si7 0.801400 0.173773 0.820740
O O1 0.500000 0.767935 0.877852
O O2 0.427061 0.799713 0.805472
O O3 0.411740 0.748344 0.920750
O O4 0.441389 0.000000 0.887293
O O5 0.690816 0.283871 0.500000
O O6 0.708294 0.500000 0.424823
O O7 0.750000 0.250000 0.407584
O O8 0.650353 0.277830 0.396629
O O9 0.873734 0.500000 0.748231
O O10 0.907885 0.262597 0.695047
O O11 0.837430 0.236865 0.771033
O O12 0.597805 0.500000 0.646186
O O13 0.550803 0.725991 0.597035
O O14 0.181331 0.779378 0.113445
O O15 0.130406 0.000000 0.070477
O O16 0.158804 0.783904 0.000000
O O17 0.000000 0.757833 0.500000
O O18 0.000000 0.000000 0.438093
O O19 0.750000 0.250000 0.807959
O O20 0.797087 0.000000 0.813572
#
# Coordination Sequence:
#
# PCOD8271429 Si02
#       7
#    16  16  16  16  16   8  16
#     4   9  19  35  53  73 100 137 177 218 265 315
#     4   9  18  33  53  76 103 135 171 213 261 313
#     4  10  21  36  54  76 105 140 178 220 267 316
#     4  10  20  34  54  81 109 139 179 226 272 326
#     4   9  19  35  53  77 108 138 172 216 264 317
#     4   9  18  34  57  83 111 145 184 227 278 335
#     4  10  20  36  57  79 107 141 178 219 266 319
#
# _framework density 18.788782000000001
#
# number of rings (size 3 to 8) (size 9 to 14) (size 15 to 20)
#    0.000    2.538    0.000    1.385    1.077    5.538 
#    0.000    3.077    0.000    1.846    0.000    0.000 
#    0.000    0.000    0.000    0.000    0.000    0.000 
#
# Total GULP energy -644784.503506 kJ/mol
# GULP energy per Si atom -12399.701990 kJ/mol
# Density = 1.874602 g / cm^3
# Si number density = 18.788782 Si / 1000 Ang^3
#
#
#
# Elastic Constant Matrix: (Units=GPa)
#
#
# Indices 1 2 3 4 5 6 
#
# 1 103.0618 22.2155 22.7548 0.0000 0.0000 0.0000
# 2 22.2155 41.4782 25.0354 0.0000 0.0000 0.0000
# 3 22.7548 25.0354 92.6200 0.0000 0.0000 0.0000
# 4 0.0000 0.0000 0.0000 28.2382 0.0000 0.0000
# 5 0.0000 0.0000 0.0000 0.0000 30.1062 0.0000
# 6 0.0000 0.0000 0.0000 0.0000 0.0000 29.2951
#
#
#
# Elastic Compliance Matrix: (Units=1/GPa)
#
#
# Indices 1 2 3 4 5 6 
#
# 1 0.011107 -0.005140 -0.001339 0.000000 0.000000 0.000000
# 2 -0.005140 0.031188 -0.007167 0.000000 0.000000 0.000000
# 3 -0.001339 -0.007167 0.013063 0.000000 0.000000 0.000000
# 4 0.000000 0.000000 0.000000 0.035413 0.000000 0.000000
# 5 0.000000 0.000000 0.000000 0.000000 0.033216 0.000000
# 6 0.000000 0.000000 0.000000 0.000000 0.000000 0.034135
#
#
# Mechanical properties :
#
#
# Convention : Reuss Voigt Hill
#
# Bulk Modulus (GPa) = 35.63260 41.90794 38.77027
# Shear Modulus (GPa) = 25.67121 28.67153 27.17137
#
# Velocity S-wave (km/s) = 3.70037 3.91063 3.80695
# Velocity P-wave (km/s) = 6.10434 6.53788 6.32483
#
# Compressibility (1/GPa) = 0.02806419
#
# Stress axis : x y z
#
# Youngs Moduli (GPa) = 90.03639 32.06339 76.55103
#
# Poissons Ratio (x) = 0.16482 0.10252
# Poissons Ratio (y) = 0.46281 0.54867
# Poissons Ratio (z) = 0.12058 0.22981
#
# Static dielectric constant tensor:
#      x y z
#    x 3.489700 0.000000 0.000000 
#    y 0.000000 3.328960 0.000000 
#    z 0.000000 0.000000 3.561800 
# 
# 
# High freq. dielectric constant tensor:
#      x y z
#    x 1.734700 0.000000 0.000000 
#    y 0.000000 1.718400 0.000000 
#    z 0.000000 0.000000 1.732270 
# 
# From -- ./inp_files/60382.got.cif
#   From: 2010.03.12/outbox.cif.g09.slc.cpg/sg65_31_cif.got.tgz:60382.got - 2010.04.10 20:52:16.
