data_PCOD8271794
_publ_section_title
;
Structure prediction by ZEFSAII (Michael W. Deem and Ramdas Pophale) SiO2 
 PCOD8271794
Probable space group: C M M M
;
_chemical_formula_sum "Si O2"
_cell_formula_units_Z 80
_cell_length_a 17.541404
_cell_length_b 10.909925
_cell_length_c 23.047670
_cell_angle_alpha 90.000000
_cell_angle_beta 90.000000
_cell_angle_gamma 90.000000
_cell_volume 4410.757112
_symmetry_space_group_name_H-M "C M M M"
_symmetry_group_IT_number 65
_symmetry_cell_setting 'orthorhombic'
loop_
_space_group_symop_operation_xyz
x,y,z
-x,-y,z
x,-y,-z
-x,y,-z
-x,-y,-z
x,y,-z
-x,y,z
x,-y,z
1/2+x,1/2+y,z
1/2-x,1/2-y,z
1/2+x,1/2-y,-z
1/2-x,1/2+y,-z
1/2-x,1/2-y,-z
1/2+x,1/2+y,-z
1/2-x,1/2+y,z
1/2+x,1/2-y,z
loop_
_atom_site_type_symbol
_atom_site_label
_atom_site_fract_x
_atom_site_fract_y
_atom_site_fract_z
Si Si1 0.160107 0.746148 0.391737
Si Si2 0.586217 0.359905 0.718551
Si Si3 0.084491 0.855049 0.935552
Si Si4 0.417124 0.359692 0.500000
Si Si5 0.911337 0.500000 0.568380
Si Si6 0.812132 0.855825 0.169843
O O1 0.250000 0.750000 0.393467
O O2 0.132729 0.785230 0.328716
O O3 0.129350 0.832290 0.442367
O O4 0.129816 0.611960 0.402043
O O5 0.500000 0.309639 0.722874
O O6 0.586061 0.500000 0.698321
O O7 0.624847 0.345015 0.780648
O O8 0.147894 0.812817 0.889784
O O9 0.000000 0.802354 0.920331
O O10 0.079162 0.000000 0.933975
O O11 0.108839 0.809883 0.000000
O O12 0.435968 0.500000 0.500000
O O13 0.500000 0.289028 0.500000
O O14 0.896418 0.500000 0.500000
O O15 0.000000 0.500000 0.583614
O O16 0.750000 0.750000 0.182421
O O17 0.782152 0.000000 0.167255
#
# Coordination Sequence:
#
# PCOD8271794 Si02
#       6
#    16  16  16   8   8  16
#     4  12  25  38  60  85 115 142 182 231 279 334
#     4  10  21  39  61  80 105 141 186 232 280 333
#     4   8  14  27  51  82 112 146 193 240 276 319
#     4  11  23  39  61  83 109 141 181 227 275 325
#     4  11  24  42  62  82 116 156 185 217 279 356
#     4  10  20  35  55  82 115 148 185 230 284 335
#
# _framework density 18.137474999999998
#
# number of rings (size 3 to 8) (size 9 to 14) (size 15 to 20)
#    0.000    1.800    1.000    4.500    2.800    4.400 
#    1.800    0.000    0.000    1.800    0.000    1.400 
#    0.000    0.000    0.000    0.000    0.000    0.000 
#
# Total GULP energy -495811.946431 kJ/mol
# GULP energy per Si atom -12395.298661 kJ/mol
# Density = 1.809619 g / cm^3
# Si number density = 18.137475 Si / 1000 Ang^3
#
#
#
# Elastic Constant Matrix: (Units=GPa)
#
#
# Indices 1 2 3 4 5 6 
#
# 1 143.6579 47.5047 54.2064 0.0000 0.0000 0.0000
# 2 47.5047 75.1944 31.1168 0.0000 0.0000 0.0000
# 3 54.2064 31.1168 107.8741 0.0000 0.0000 0.0000
# 4 0.0000 0.0000 0.0000 30.9873 0.0000 0.0000
# 5 0.0000 0.0000 0.0000 0.0000 -177.0664 0.0000
# 6 0.0000 0.0000 0.0000 0.0000 0.0000 23.8066
#
#
#
# Elastic Compliance Matrix: (Units=1/GPa)
#
#
# Indices 1 2 3 4 5 6 
#
# 1 0.009893 -0.004761 -0.003598 0.000000 0.000000 0.000000
# 2 -0.004761 0.017393 -0.002625 0.000000 0.000000 0.000000
# 3 -0.003598 -0.002625 0.011835 0.000000 0.000000 0.000000
# 4 0.000000 0.000000 0.000000 0.032271 0.000000 0.000000
# 5 0.000000 0.000000 0.000000 0.000000 -0.005648 0.000000
# 6 0.000000 0.000000 0.000000 0.000000 0.000000 0.042005
#
#
# Mechanical properties :
#
#
# Convention : Reuss Voigt Hill
#
# Bulk Modulus (GPa) = 58.29621 65.82024 62.05823
# Shear Modulus (GPa) = 36.91818 -11.52794 12.69512
#
# Velocity S-wave (km/s) = 4.51651 -2.52382 2.64851
# Velocity P-wave (km/s) = 7.70776 5.27973 6.60625
#
# Compressibility (1/GPa) = 0.01715377
#
# Stress axis : x y z
#
# Youngs Moduli (GPa) = 101.08219 57.49484 84.49488
#
# Poissons Ratio (x) = 0.27374 0.30400
# Poissons Ratio (y) = 0.48126 0.22177
# Poissons Ratio (z) = 0.36367 0.15090
#
# Static dielectric constant tensor:
#      x y z
#    x 3.512110 0.000000 0.000000 
#    y 0.000000 3.248070 0.000000 
#    z 0.000000 0.000000 3.608520 
# 
# 
# High freq. dielectric constant tensor:
#      x y z
#    x 1.711000 0.000000 0.000000 
#    y 0.000000 1.680560 0.000000 
#    z 0.000000 0.000000 1.716180 
# 
# From -- ./inp_files/63515.got.cif
#   From: 2010.03.12/outbox.cif.g09.slc.cpg/sg65_32_cif.got.tgz:63515.got - 2010.04.10 20:52:16.
