data_PCOD8271155
_publ_section_title
;
Structure prediction by ZEFSAII (Michael W. Deem and Ramdas Pophale) SiO2 
 PCOD8271155
Probable space group: C M M M
;
_chemical_formula_sum "Si O2"
_cell_formula_units_Z 56
_cell_length_a 9.266921
_cell_length_b 17.931752
_cell_length_c 19.395397
_cell_angle_alpha 90.000000
_cell_angle_beta 90.000000
_cell_angle_gamma 90.000000
_cell_volume 3222.974416
_symmetry_space_group_name_H-M "C M M M"
_symmetry_group_IT_number 65
_symmetry_cell_setting 'orthorhombic'
loop_
_space_group_symop_operation_xyz
x,y,z
-x,-y,z
x,-y,-z
-x,y,-z
-x,-y,-z
x,y,-z
-x,y,z
x,-y,z
1/2+x,1/2+y,z
1/2-x,1/2-y,z
1/2+x,1/2-y,-z
1/2-x,1/2+y,-z
1/2-x,1/2-y,-z
1/2+x,1/2+y,-z
1/2-x,1/2+y,z
1/2+x,1/2-y,z
loop_
_atom_site_type_symbol
_atom_site_label
_atom_site_fract_x
_atom_site_fract_y
_atom_site_fract_z
Si Si1 0.832199 0.675088 0.580150
Si Si2 0.341633 0.321277 0.182329
Si Si3 0.668764 0.585714 0.688265
Si Si4 0.500000 0.587868 0.079751
O O1 0.809194 0.657542 0.500000
O O2 0.750000 0.750000 0.602456
O O3 0.762151 0.606968 0.621556
O O4 0.000000 0.684044 0.598641
O O5 0.500000 0.291934 0.204189
O O6 0.250000 0.250000 0.160679
O O7 0.274544 0.365872 0.246883
O O8 0.357443 0.377062 0.116449
O O9 0.500000 0.599466 0.673299
O O10 0.698069 0.500000 0.706046
O O11 0.500000 0.500000 0.091738
O O12 0.500000 0.609666 0.000000
#
# Coordination Sequence:
#
# PCOD8271155 Si02
#       4
#    16  16  16   8
#     4  10  21  36  53  74 101 135 178 226 275 326
#     4   9  19  33  53  81 109 138 178 221 263 310
#     4  10  20  34  53  75 105 141 177 221 270 325
#     4   9  18  34  58  82 108 146 182 213 262 324
#
# _framework density 17.375254000000002
#
# number of rings (size 3 to 8) (size 9 to 14) (size 15 to 20)
#    0.857    1.571    0.000    2.571    0.000    6.857 
#    0.000    2.857    0.000    2.571    0.000    2.000 
#    0.000    0.000    0.000    0.000    0.000    0.000 
#
# Total GULP energy -347096.146712 kJ/mol
# GULP energy per Si atom -12396.290954 kJ/mol
# Density = 1.733571 g / cm^3
# Si number density = 17.375254 Si / 1000 Ang^3
#
#
#
# Elastic Constant Matrix: (Units=GPa)
#
#
# Indices 1 2 3 4 5 6 
#
# 1 68.4878 53.1613 43.0334 0.0000 0.0000 0.0000
# 2 53.1613 114.9848 61.5310 0.0000 0.0000 0.0000
# 3 43.0334 61.5310 105.3131 0.0000 0.0000 0.0000
# 4 0.0000 0.0000 0.0000 34.5084 0.0000 0.0000
# 5 0.0000 0.0000 0.0000 0.0000 15.8796 0.0000
# 6 0.0000 0.0000 0.0000 0.0000 0.0000 35.5912
#
#
#
# Elastic Compliance Matrix: (Units=1/GPa)
#
#
# Indices 1 2 3 4 5 6 
#
# 1 0.024408 -0.008653 -0.004918 0.000000 0.000000 0.000000
# 2 -0.008653 0.015720 -0.005649 0.000000 0.000000 0.000000
# 3 -0.004918 -0.005649 0.014806 0.000000 0.000000 0.000000
# 4 0.000000 0.000000 0.000000 0.028978 0.000000 0.000000
# 5 0.000000 0.000000 0.000000 0.000000 0.062974 0.000000
# 6 0.000000 0.000000 0.000000 0.000000 0.000000 0.028097
#
#
# Mechanical properties :
#
#
# Convention : Reuss Voigt Hill
#
# Bulk Modulus (GPa) = 60.62860 67.13745 63.88303
# Shear Modulus (GPa) = 22.83934 25.93318 24.38626
#
# Velocity S-wave (km/s) = 3.62950 3.86753 3.75040
# Velocity P-wave (km/s) = 7.24802 7.65945 7.45658
#
# Compressibility (1/GPa) = 0.01649387
#
# Stress axis : x y z
#
# Youngs Moduli (GPa) = 40.97065 63.61234 67.54153
#
# Poissons Ratio (x) = 0.55042 0.33217
# Poissons Ratio (y) = 0.35451 0.38155
# Poissons Ratio (z) = 0.20150 0.35935
#
# Static dielectric constant tensor:
#      x y z
#    x 3.068830 0.000000 0.000000 
#    y 0.000000 3.125140 0.000000 
#    z 0.000000 0.000000 3.161580 
# 
# 
# High freq. dielectric constant tensor:
#      x y z
#    x 1.650150 0.000000 0.000000 
#    y 0.000000 1.674030 0.000000 
#    z 0.000000 0.000000 1.670640 
# 
# From -- ./inp_files/53911.got.cif
#   From: 2010.03.12/outbox.cif.g09.slc.cpg/sg65_27_cif.got.tgz:53911.got - 2010.04.10 20:52:16.
