data_PCOD8271887
_publ_section_title
;
Structure prediction by ZEFSAII (Michael W. Deem and Ramdas Pophale) SiO2 
 PCOD8271887
Probable space group: C M M M
;
_chemical_formula_sum "Si O2"
_cell_formula_units_Z 88
_cell_length_a 24.333770
_cell_length_b 9.193548
_cell_length_c 21.494647
_cell_angle_alpha 90.000000
_cell_angle_beta 90.000000
_cell_angle_gamma 90.000000
_cell_volume 4808.646635
_symmetry_space_group_name_H-M "C M M M"
_symmetry_group_IT_number 65
_symmetry_cell_setting 'orthorhombic'
loop_
_space_group_symop_operation_xyz
x,y,z
-x,-y,z
x,-y,-z
-x,y,-z
-x,-y,-z
x,y,-z
-x,y,z
x,-y,z
1/2+x,1/2+y,z
1/2-x,1/2-y,z
1/2+x,1/2-y,-z
1/2-x,1/2+y,-z
1/2-x,1/2-y,-z
1/2+x,1/2+y,-z
1/2-x,1/2+y,z
1/2+x,1/2-y,z
loop_
_atom_site_type_symbol
_atom_site_label
_atom_site_fract_x
_atom_site_fract_y
_atom_site_fract_z
Si Si1 0.807760 0.170228 0.000000
Si Si2 0.104564 0.164822 0.100589
Si Si3 0.307439 0.330088 0.429929
Si Si4 0.397433 0.826964 0.647792
Si Si5 0.000000 0.672216 0.568474
Si Si6 0.435975 0.664963 0.233440
Si Si7 0.500000 0.847020 0.069701
O O1 0.750000 0.250000 0.000000
O O2 0.840856 0.216074 0.936794
O O3 0.795356 0.000000 0.000000
O O4 0.106345 0.179167 0.175485
O O5 0.054042 0.258181 0.080468
O O6 0.092429 0.000000 0.080668
O O7 0.331593 0.309776 0.500000
O O8 0.300353 0.500000 0.414117
O O9 0.250000 0.250000 0.425547
O O10 0.344421 0.254689 0.377812
O O11 0.446694 0.773092 0.604242
O O12 0.412263 0.778050 0.717115
O O13 0.388339 0.000000 0.646471
O O14 0.000000 0.500000 0.564583
O O15 0.000000 0.742252 0.500000
O O16 0.500000 0.703044 0.215475
O O17 0.433958 0.500000 0.259432
O O18 0.500000 0.000000 0.108778
O O19 0.500000 0.895850 0.000000
#
# Coordination Sequence:
#
# PCOD8271887 Si02
#       7
#     8  16  16  16   8  16   8
#     4  10  22  39  62  85 113 148 190 236 285 342
#     4  10  20  37  60  83 109 152 196 232 279 344
#     4  10  21  38  60  85 111 143 188 242 294 343
#     4  11  21  35  55  81 117 156 192 233 286 344
#     4   9  18  31  49  76 110 148 189 230 276 336
#     4  10  20  35  56  82 114 152 192 234 282 337
#     4  11  21  30  49  86 120 141 170 229 290 331
#
# _framework density 18.300367000000001
#
# number of rings (size 3 to 8) (size 9 to 14) (size 15 to 20)
#    0.000    1.818    2.727    1.909    0.000    3.636 
#    0.000    0.909    0.000    4.364    0.000    0.000 
#    0.000    0.000    0.000    0.000    0.000    0.000 
#
# Total GULP energy -545309.465329 kJ/mol
# GULP energy per Si atom -12393.396939 kJ/mol
# Density = 1.825871 g / cm^3
# Si number density = 18.300367 Si / 1000 Ang^3
#
#
#
# Elastic Constant Matrix: (Units=GPa)
#
#
# Indices 1 2 3 4 5 6 
#
# 1 116.7659 60.5989 55.8471 0.0000 0.0000 0.0000
# 2 60.5989 97.3051 47.9851 0.0000 0.0000 0.0000
# 3 55.8471 47.9851 112.2548 0.0000 0.0000 0.0000
# 4 0.0000 0.0000 0.0000 23.8917 0.0000 0.0000
# 5 0.0000 0.0000 0.0000 0.0000 17.3156 0.0000
# 6 0.0000 0.0000 0.0000 0.0000 0.0000 32.4061
#
#
#
# Elastic Compliance Matrix: (Units=1/GPa)
#
#
# Indices 1 2 3 4 5 6 
#
# 1 0.014002 -0.006697 -0.004104 0.000000 0.000000 0.000000
# 2 -0.006697 0.016225 -0.003604 0.000000 0.000000 0.000000
# 3 -0.004104 -0.003604 0.012490 0.000000 0.000000 0.000000
# 4 0.000000 0.000000 0.000000 0.041855 0.000000 0.000000
# 5 0.000000 0.000000 0.000000 0.000000 0.057752 0.000000
# 6 0.000000 0.000000 0.000000 0.000000 0.000000 0.030858
#
#
# Mechanical properties :
#
#
# Convention : Reuss Voigt Hill
#
# Bulk Modulus (GPa) = 71.89531 72.79868 72.34699
# Shear Modulus (GPa) = 24.19820 25.51567 24.85693
#
# Velocity S-wave (km/s) = 3.64026 3.73804 3.68948
# Velocity P-wave (km/s) = 7.55250 7.64833 7.60056
#
# Compressibility (1/GPa) = 0.01390911
#
# Stress axis : x y z
#
# Youngs Moduli (GPa) = 71.41754 61.63481 80.06141
#
# Poissons Ratio (x) = 0.41274 0.32854
# Poissons Ratio (y) = 0.47825 0.28854
# Poissons Ratio (z) = 0.29307 0.22213
#
# Static dielectric constant tensor:
#      x y z
#    x 3.072630 0.000000 0.000000 
#    y 0.000000 3.375980 0.000000 
#    z 0.000000 0.000000 3.599600 
# 
# 
# High freq. dielectric constant tensor:
#      x y z
#    x 1.694720 0.000000 0.000000 
#    y 0.000000 1.714280 0.000000 
#    z 0.000000 0.000000 1.712770 
# 
# From -- ./inp_files/65251.got.cif
#   From: 2010.03.12/outbox.cif.g09.slc.cpg/sg65_33_cif.got.tgz:65251.got - 2010.04.10 20:52:16.
