data_PCOD8271840
_publ_section_title
;
Structure prediction by ZEFSAII (Michael W. Deem and Ramdas Pophale) SiO2 
 PCOD8271840
Probable space group: C M M M
;
_chemical_formula_sum "Si O2"
_cell_formula_units_Z 88
_cell_length_a 19.885307
_cell_length_b 24.592770
_cell_length_c 8.843348
_cell_angle_alpha 90.000000
_cell_angle_beta 90.000000
_cell_angle_gamma 90.000000
_cell_volume 4324.704756
_symmetry_space_group_name_H-M "C M M M"
_symmetry_group_IT_number 65
_symmetry_cell_setting 'orthorhombic'
loop_
_space_group_symop_operation_xyz
x,y,z
-x,-y,z
x,-y,-z
-x,y,-z
-x,-y,-z
x,y,-z
-x,y,z
x,-y,z
1/2+x,1/2+y,z
1/2-x,1/2-y,z
1/2+x,1/2-y,-z
1/2-x,1/2+y,-z
1/2-x,1/2-y,-z
1/2+x,1/2+y,-z
1/2-x,1/2+y,z
1/2+x,1/2-y,z
loop_
_atom_site_type_symbol
_atom_site_label
_atom_site_fract_x
_atom_site_fract_y
_atom_site_fract_z
Si Si1 0.073492 0.102752 0.670589
Si Si2 0.192789 0.939410 0.834103
Si Si3 0.167391 0.603208 0.820501
Si Si4 0.924410 0.214035 0.828872
Si Si5 0.921652 0.500000 0.179859
Si Si6 0.183115 0.281625 0.324314
O O1 0.086319 0.123691 0.500000
O O2 0.130910 0.060699 0.717811
O O3 0.077314 0.150758 0.790998
O O4 0.000000 0.074546 0.681072
O O5 0.256247 0.907483 0.767645
O O6 0.219204 0.000000 0.852112
O O7 0.171624 0.916782 0.000000
O O8 0.116134 0.555521 0.760887
O O9 0.156729 0.663235 0.755007
O O10 0.160795 0.605527 0.000000
O O11 0.878551 0.241794 0.703964
O O12 0.000000 0.236951 0.814161
O O13 0.897549 0.222927 0.000000
O O14 0.000000 0.500000 0.235650
O O15 0.919201 0.500000 0.000000
O O16 0.193609 0.293930 0.500000
O O17 0.250000 0.250000 0.260686
#
# Coordination Sequence:
#
# PCOD8271840 Si02
#       6
#    16  16  16  16   8  16
#     4  10  21  36  54  79 113 150 186 230 285 341
#     4  10  20  35  56  80 109 147 191 238 285 333
#     4  10  20  37  60  86 117 151 195 247 297 351
#     4  10  21  38  60  84 110 145 191 237 285 343
#     4   9  18  36  63  91 118 151 194 248 305 359
#     4  11  24  39  57  86 123 159 197 241 296 361
#
# _framework density 20.348209000000001
#
# number of rings (size 3 to 8) (size 9 to 14) (size 15 to 20)
#    0.000    1.909    0.909    2.727    0.000    8.727 
#    0.000    4.091    0.000    0.545    0.000    0.000 
#    0.000    0.000    0.000    0.000    0.000    0.000 
#
# Total GULP energy -545181.136942 kJ/mol
# GULP energy per Si atom -12390.480385 kJ/mol
# Density = 2.030190 g / cm^3
# Si number density = 20.348209 Si / 1000 Ang^3
#
#
#
# Elastic Constant Matrix: (Units=GPa)
#
#
# Indices 1 2 3 4 5 6 
#
# 1 105.0332 32.8605 38.5172 0.0000 0.0000 0.0000
# 2 32.8605 74.6993 9.7856 0.0000 0.0000 0.0000
# 3 38.5172 9.7856 46.4990 0.0000 0.0000 0.0000
# 4 0.0000 0.0000 0.0000 18.8374 0.0000 0.0000
# 5 0.0000 0.0000 0.0000 0.0000 26.2759 0.0000
# 6 0.0000 0.0000 0.0000 0.0000 0.0000 33.8959
#
#
#
# Elastic Compliance Matrix: (Units=1/GPa)
#
#
# Indices 1 2 3 4 5 6 
#
# 1 0.015458 -0.005268 -0.011696 0.000000 0.000000 0.000000
# 2 -0.005268 0.015562 0.001089 0.000000 0.000000 0.000000
# 3 -0.011696 0.001089 0.030965 0.000000 0.000000 0.000000
# 4 0.000000 0.000000 0.000000 0.053086 0.000000 0.000000
# 5 0.000000 0.000000 0.000000 0.000000 0.038058 0.000000
# 6 0.000000 0.000000 0.000000 0.000000 0.000000 0.029502
#
#
# Mechanical properties :
#
#
# Convention : Reuss Voigt Hill
#
# Bulk Modulus (GPa) = 33.07482 43.17314 38.12398
# Shear Modulus (GPa) = 22.27583 25.47307 23.87445
#
# Velocity S-wave (km/s) = 3.31226 3.54200 3.42906
# Velocity P-wave (km/s) = 5.56038 6.16368 5.86978
#
# Compressibility (1/GPa) = 0.03023448
#
# Stress axis : x y z
#
# Youngs Moduli (GPa) = 64.69167 64.26014 32.29454
#
# Poissons Ratio (x) = 0.33851 0.37771
# Poissons Ratio (y) = 0.34079 -0.03516
# Poissons Ratio (z) = 0.75663 -0.06996
#
# Static dielectric constant tensor:
#      x y z
#    x 3.896340 0.000000 0.000000 
#    y 0.000000 3.571150 0.000000 
#    z 0.000000 0.000000 3.455590 
# 
# 
# High freq. dielectric constant tensor:
#      x y z
#    x 1.802840 0.000000 0.000000 
#    y 0.000000 1.789960 0.000000 
#    z 0.000000 0.000000 1.777580 
# 
# From -- ./inp_files/11793.got.cif
#   From: 2010.03.12/outbox.cif.g09.slc.cpg/sg65_6_cif.got.tgz:11793.got - 2010.04.10 20:52:16.
