data_PCOD8271649
_publ_section_title
;
Structure prediction by ZEFSAII (Michael W. Deem and Ramdas Pophale) SiO2 
 PCOD8271649
Probable space group: C M M M
;
_chemical_formula_sum "Si O2"
_cell_formula_units_Z 72
_cell_length_a 9.161825
_cell_length_b 27.091584
_cell_length_c 16.074184
_cell_angle_alpha 90.000000
_cell_angle_beta 90.000000
_cell_angle_gamma 90.000000
_cell_volume 3989.746714
_symmetry_space_group_name_H-M "C M M M"
_symmetry_group_IT_number 65
_symmetry_cell_setting 'orthorhombic'
loop_
_space_group_symop_operation_xyz
x,y,z
-x,-y,z
x,-y,-z
-x,y,-z
-x,-y,-z
x,y,-z
-x,y,z
x,-y,z
1/2+x,1/2+y,z
1/2-x,1/2-y,z
1/2+x,1/2-y,-z
1/2-x,1/2+y,-z
1/2-x,1/2-y,-z
1/2+x,1/2+y,-z
1/2-x,1/2+y,z
1/2+x,1/2-y,z
loop_
_atom_site_type_symbol
_atom_site_label
_atom_site_fract_x
_atom_site_fract_y
_atom_site_fract_z
Si Si1 0.668856 0.642466 0.407589
Si Si2 0.173021 0.801206 0.754719
Si Si3 0.830133 0.389160 0.164640
Si Si4 0.826795 0.444564 0.000000
Si Si5 0.830966 0.555293 0.332451
O O1 0.702146 0.663559 0.500000
O O2 0.500000 0.630768 0.395095
O O3 0.719355 0.682246 0.338803
O O4 0.750479 0.590729 0.396989
O O5 0.250000 0.750000 0.774563
O O6 0.233055 0.840614 0.820930
O O7 0.000000 0.795733 0.764591
O O8 0.773050 0.414964 0.080885
O O9 0.803507 0.428069 0.238031
O O10 0.000000 0.373773 0.158846
O O11 0.760546 0.500000 0.000000
O O12 0.000000 0.448442 0.000000
O O13 0.769384 0.500000 0.342598
O O14 0.000000 0.557308 0.355085
#
# Coordination Sequence:
#
# PCOD8271649 Si02
#       5
#    16  16  16   8  16
#     4   9  19  34  49  68  95 125 159 200 244 291
#     4  10  20  35  54  73  95 125 161 201 246 293
#     4   9  17  31  51  75 102 130 162 199 239 284
#     4   9  16  28  52  83 108 131 162 199 236 277
#     4   9  17  29  46  69  98 131 164 198 237 282
#
# _framework density 18.046258000000002
#
# number of rings (size 3 to 8) (size 9 to 14) (size 15 to 20)
#    0.000    2.778    0.000    1.333    0.000    5.333 
#    0.000    3.333    0.000    2.667    0.000    0.000 
#    0.000    0.000    0.000    0.000    0.000    0.000 
#
# Total GULP energy -446398.157531 kJ/mol
# GULP energy per Si atom -12399.948820 kJ/mol
# Density = 1.800518 g / cm^3
# Si number density = 18.046258 Si / 1000 Ang^3
#
#
#
# Elastic Constant Matrix: (Units=GPa)
#
#
# Indices 1 2 3 4 5 6 
#
# 1 48.7268 44.3160 25.7738 0.0000 0.0000 0.0000
# 2 44.3160 135.1920 44.6341 0.0000 0.0000 0.0000
# 3 25.7738 44.6341 102.2361 0.0000 0.0000 0.0000
# 4 0.0000 0.0000 0.0000 16.8880 0.0000 0.0000
# 5 0.0000 0.0000 0.0000 0.0000 20.7923 0.0000
# 6 0.0000 0.0000 0.0000 0.0000 0.0000 29.2602
#
#
#
# Elastic Compliance Matrix: (Units=1/GPa)
#
#
# Indices 1 2 3 4 5 6 
#
# 1 0.030505 -0.008717 -0.003885 0.000000 0.000000 0.000000
# 2 -0.008717 0.011134 -0.002663 0.000000 0.000000 0.000000
# 3 -0.003885 -0.002663 0.011923 0.000000 0.000000 0.000000
# 4 0.000000 0.000000 0.000000 0.059214 0.000000 0.000000
# 5 0.000000 0.000000 0.000000 0.000000 0.048095 0.000000
# 6 0.000000 0.000000 0.000000 0.000000 0.000000 0.034176
#
#
# Mechanical properties :
#
#
# Convention : Reuss Voigt Hill
#
# Bulk Modulus (GPa) = 43.41713 57.28919 50.35316
# Shear Modulus (GPa) = 21.43584 24.81683 23.12634
#
# Velocity S-wave (km/s) = 3.45023 3.71236 3.58369
# Velocity P-wave (km/s) = 6.32322 7.08450 6.71466
#
# Compressibility (1/GPa) = 0.02303238
#
# Stress axis : x y z
#
# Youngs Moduli (GPa) = 32.78109 89.81827 83.86954
#
# Poissons Ratio (x) = 0.78296 0.32581
# Poissons Ratio (y) = 0.28576 0.22335
# Poissons Ratio (z) = 0.12735 0.23920
#
# Static dielectric constant tensor:
#      x y z
#    x 3.186410 0.000000 0.000000 
#    y 0.000000 3.334360 0.000000 
#    z 0.000000 0.000000 3.401060 
# 
# 
# High freq. dielectric constant tensor:
#      x y z
#    x 1.682950 0.000000 0.000000 
#    y 0.000000 1.697550 0.000000 
#    z 0.000000 0.000000 1.695250 
# 
# From -- ./inp_files/36537.got.cif
#   From: 2010.03.12/outbox.cif.g09.slc.cpg/sg65_19_cif.got.tgz:36537.got - 2010.04.10 20:52:16.
