data_PCOD8271448
_publ_section_title
;
Structure prediction by ZEFSAII (Michael W. Deem and Ramdas Pophale) SiO2 
 PCOD8271448
Probable space group: C M M M
;
_chemical_formula_sum "Si O2"
_cell_formula_units_Z 104
_cell_length_a 29.035020
_cell_length_b 8.757097
_cell_length_c 20.258560
_cell_angle_alpha 90.000000
_cell_angle_beta 90.000000
_cell_angle_gamma 90.000000
_cell_volume 5150.991839
_symmetry_space_group_name_H-M "C M M M"
_symmetry_group_IT_number 65
_symmetry_cell_setting 'orthorhombic'
loop_
_space_group_symop_operation_xyz
x,y,z
-x,-y,z
x,-y,-z
-x,y,-z
-x,-y,-z
x,y,-z
-x,y,z
x,-y,z
1/2+x,1/2+y,z
1/2-x,1/2-y,z
1/2+x,1/2-y,-z
1/2-x,1/2+y,-z
1/2-x,1/2-y,-z
1/2+x,1/2+y,-z
1/2-x,1/2+y,z
1/2+x,1/2-y,z
loop_
_atom_site_type_symbol
_atom_site_label
_atom_site_fract_x
_atom_site_fract_y
_atom_site_fract_z
Si Si1 0.553343 0.681207 0.000000
Si Si2 0.799071 0.818747 0.832994
Si Si3 0.552959 0.325537 0.770762
Si Si4 0.109911 0.679200 0.880544
Si Si5 0.297364 0.321879 0.682803
Si Si6 0.642934 0.824629 0.426970
Si Si7 0.449407 0.827799 0.364740
O O1 0.579191 0.743320 0.936259
O O2 0.555810 0.500000 0.000000
O O3 0.500000 0.735970 0.000000
O O4 0.750000 0.750000 0.855152
O O5 0.838605 0.748790 0.879637
O O6 0.809860 0.769188 0.757184
O O7 0.797824 0.000000 0.841565
O O8 0.500000 0.301084 0.791888
O O9 0.568441 0.500000 0.783701
O O10 0.585156 0.212310 0.811461
O O11 0.560336 0.289521 0.694215
O O12 0.113434 0.500000 0.893657
O O13 0.290776 0.500000 0.681300
O O14 0.250000 0.250000 0.658270
O O15 0.336075 0.275006 0.631188
O O16 0.658082 0.767947 0.500000
O O17 0.587789 0.805001 0.422345
O O18 0.657794 0.000000 0.417093
O O19 0.500000 0.796767 0.395217
O O20 0.446514 0.000000 0.335938
#
# Coordination Sequence:
#
# PCOD8271448 Si02
#       7
#     8  16  16  16  16  16  16
#     4  11  25  45  66  89 122 163 203 241 283 331
#     4  10  21  39  63  91 120 150 189 236 287 340
#     4  10  20  34  54  81 112 146 186 234 288 342
#     4  12  24  38  60  89 121 157 195 235 282 335
#     4  10  21  37  59  84 110 142 181 229 283 338
#     4  10  21  35  51  74 106 144 185 229 279 338
#     4   9  18  33  53  77 105 139 182 232 284 338
#
# _framework density 20.190284999999999
#
# number of rings (size 3 to 8) (size 9 to 14) (size 15 to 20)
#    0.000    1.769    0.000    4.385    0.000    9.231 
#    0.000    1.923    0.000    0.000    0.000    3.231 
#    0.000    0.000    0.000    0.000    0.000    0.000 
#
# Total GULP energy -644853.944453 kJ/mol
# GULP energy per Si atom -12401.037393 kJ/mol
# Density = 2.014433 g / cm^3
# Si number density = 20.190285 Si / 1000 Ang^3
#
#
#
# Elastic Constant Matrix: (Units=GPa)
#
#
# Indices 1 2 3 4 5 6 
#
# 1 132.2827 49.1475 51.3575 0.0000 0.0000 0.0000
# 2 49.1475 85.4938 27.6576 0.0000 0.0000 0.0000
# 3 51.3575 27.6576 60.8403 0.0000 0.0000 0.0000
# 4 0.0000 0.0000 0.0000 27.7875 0.0000 0.0000
# 5 0.0000 0.0000 0.0000 0.0000 28.9831 0.0000
# 6 0.0000 0.0000 0.0000 0.0000 0.0000 32.4246
#
#
#
# Elastic Compliance Matrix: (Units=1/GPa)
#
#
# Indices 1 2 3 4 5 6 
#
# 1 0.012531 -0.004434 -0.008562 0.000000 0.000000 0.000000
# 2 -0.004434 0.015282 -0.003205 0.000000 0.000000 0.000000
# 3 -0.008562 -0.003205 0.025121 0.000000 0.000000 0.000000
# 4 0.000000 0.000000 0.000000 0.035987 0.000000 0.000000
# 5 0.000000 0.000000 0.000000 0.000000 0.034503 0.000000
# 6 0.000000 0.000000 0.000000 0.000000 0.000000 0.030841
#
#
# Mechanical properties :
#
#
# Convention : Reuss Voigt Hill
#
# Bulk Modulus (GPa) = 48.70194 59.43799 54.06996
# Shear Modulus (GPa) = 25.83828 27.86931 26.85380
#
# Velocity S-wave (km/s) = 3.58122 3.71931 3.65092
# Velocity P-wave (km/s) = 6.42449 6.92439 6.67912
#
# Compressibility (1/GPa) = 0.02053306
#
# Stress axis : x y z
#
# Youngs Moduli (GPa) = 79.80124 65.43538 39.80716
#
# Poissons Ratio (x) = 0.29012 0.34085
# Poissons Ratio (y) = 0.35382 0.12756
# Poissons Ratio (z) = 0.68329 0.20969
#
# Static dielectric constant tensor:
#      x y z
#    x 3.866200 0.000000 0.000000 
#    y 0.000000 3.682380 0.000000 
#    z 0.000000 0.000000 3.551320 
# 
# 
# High freq. dielectric constant tensor:
#      x y z
#    x 1.801180 0.000000 0.000000 
#    y 0.000000 1.790420 0.000000 
#    z 0.000000 0.000000 1.769300 
# 
# From -- ./inp_files/60373.got.cif
#   From: 2010.03.12/outbox.cif.g09.slc.cpg/sg65_31_cif.got.tgz:60373.got - 2010.04.10 20:52:16.
