data_PCOD8271077
_publ_section_title
;
Structure prediction by ZEFSAII (Michael W. Deem and Ramdas Pophale) SiO2 
 PCOD8271077
Probable space group: C M M M
;
_chemical_formula_sum "Si O2"
_cell_formula_units_Z 88
_cell_length_a 11.931121
_cell_length_b 17.054718
_cell_length_c 22.711834
_cell_angle_alpha 90.000000
_cell_angle_beta 90.000000
_cell_angle_gamma 90.000000
_cell_volume 4621.447227
_symmetry_space_group_name_H-M "C M M M"
_symmetry_group_IT_number 65
_symmetry_cell_setting 'orthorhombic'
loop_
_space_group_symop_operation_xyz
x,y,z
-x,-y,z
x,-y,-z
-x,y,-z
-x,-y,-z
x,y,-z
-x,y,z
x,-y,z
1/2+x,1/2+y,z
1/2-x,1/2-y,z
1/2+x,1/2-y,-z
1/2-x,1/2+y,-z
1/2-x,1/2-y,-z
1/2+x,1/2+y,-z
1/2-x,1/2+y,z
1/2+x,1/2-y,z
loop_
_atom_site_type_symbol
_atom_site_label
_atom_site_fract_x
_atom_site_fract_y
_atom_site_fract_z
Si Si1 0.628584 0.408263 0.933557
Si Si2 0.000000 0.912676 0.632206
Si Si3 0.500000 0.410905 0.771211
Si Si4 0.126446 0.406621 0.500000
Si Si5 0.722868 0.659512 0.821925
Si Si6 0.242496 0.094037 0.614225
Si Si7 0.875106 0.407628 0.727202
O O1 0.500000 0.390426 0.914845
O O2 0.652534 0.500000 0.929164
O O3 0.714605 0.363472 0.890728
O O4 0.650050 0.378649 0.000000
O O5 0.000000 0.916832 0.701936
O O6 0.115262 0.871384 0.610480
O O7 0.000000 0.000000 0.605601
O O8 0.500000 0.500000 0.797878
O O9 0.392472 0.362825 0.790918
O O10 0.125180 0.500000 0.500000
O O11 0.189708 0.375124 0.557796
O O12 0.000000 0.373802 0.500000
O O13 0.750000 0.750000 0.815458
O O14 0.822478 0.612755 0.790302
O O15 0.302141 0.127106 0.673134
O O16 0.238600 0.000000 0.616933
O O17 0.880895 0.500000 0.720709
O O18 0.000000 0.371678 0.723731
#
# Coordination Sequence:
#
# PCOD8271077 Si02
#       7
#    16   8   8   8  16  16  16
#     4   9  18  35  61  88 111 145 197 242 278 338
#     4   9  16  27  48  74 100 134 189 239 284 336
#     4  11  20  38  62  82 111 158 203 237 288 356
#     4   9  16  25  39  63 102 144 180 225 294 360
#     4  12  24  34  56  85 120 146 185 240 298 338
#     4   9  16  27  44  70 100 137 182 236 289 342
#     4  10  20  34  52  74 106 147 189 227 276 352
#
# _framework density 19.041654000000001
#
# number of rings (size 3 to 8) (size 9 to 14) (size 15 to 20)
#    0.000    2.091    2.727    2.727    1.273    2.909 
#    0.000    1.818    0.000    0.545    0.000    3.182 
#    0.000    0.000    0.000    0.000    0.000    0.000 
#
# Total GULP energy -545454.833789 kJ/mol
# GULP energy per Si atom -12396.700768 kJ/mol
# Density = 1.899831 g / cm^3
# Si number density = 19.041654 Si / 1000 Ang^3
#
#
#
# Elastic Constant Matrix: (Units=GPa)
#
#
# Indices 1 2 3 4 5 6 
#
# 1 180.0950 31.4318 75.9290 0.0000 0.0000 0.0000
# 2 31.4318 40.6556 18.8779 0.0000 0.0000 0.0000
# 3 75.9290 18.8779 124.3263 0.0000 0.0000 0.0000
# 4 0.0000 0.0000 0.0000 22.7267 0.0000 0.0000
# 5 0.0000 0.0000 0.0000 0.0000 35.3852 0.0000
# 6 0.0000 0.0000 0.0000 0.0000 0.0000 9.1267
#
#
#
# Elastic Compliance Matrix: (Units=1/GPa)
#
#
# Indices 1 2 3 4 5 6 
#
# 1 0.008114 -0.004274 -0.004307 0.000000 0.000000 0.000000
# 2 -0.004274 0.028713 -0.001750 0.000000 0.000000 0.000000
# 3 -0.004307 -0.001750 0.010939 0.000000 0.000000 0.000000
# 4 0.000000 0.000000 0.000000 0.044001 0.000000 0.000000
# 5 0.000000 0.000000 0.000000 0.000000 0.028260 0.000000
# 6 0.000000 0.000000 0.000000 0.000000 0.000000 0.109569
#
#
# Mechanical properties :
#
#
# Convention : Reuss Voigt Hill
#
# Bulk Modulus (GPa) = 36.89137 66.39491 51.64314
# Shear Modulus (GPa) = 19.28322 28.03693 23.66007
#
# Velocity S-wave (km/s) = 3.18573 3.84135 3.52880
# Velocity P-wave (km/s) = 5.74002 7.39044 6.61689
#
# Compressibility (1/GPa) = 0.02710661
#
# Stress axis : x y z
#
# Youngs Moduli (GPa) = 123.24113 34.82692 91.41417
#
# Poissons Ratio (x) = 0.14883 0.39369
# Poissons Ratio (y) = 0.52667 0.15997
# Poissons Ratio (z) = 0.53075 0.06095
#
# Static dielectric constant tensor:
#      x y z
#    x 3.747720 0.000000 0.000000 
#    y 0.000000 2.514280 0.000000 
#    z 0.000000 0.000000 3.679400 
# 
# 
# High freq. dielectric constant tensor:
#      x y z
#    x 1.746480 0.000000 0.000000 
#    y 0.000000 1.684510 0.000000 
#    z 0.000000 0.000000 1.748770 
# 
# From -- ./inp_files/68967.got.cif
#   From: 2010.03.12/outbox.cif.g09.slc.cpg/sg65_35_cif.got.tgz:68967.got - 2010.04.10 20:52:16.
