data_PCOD8271128
_publ_section_title
;
Structure prediction by ZEFSAII (Michael W. Deem and Ramdas Pophale) SiO2 
 PCOD8271128
Probable space group: C M M M
;
_chemical_formula_sum "Si O2"
_cell_formula_units_Z 104
_cell_length_a 18.171401
_cell_length_b 17.412160
_cell_length_c 18.026685
_cell_angle_alpha 90.000000
_cell_angle_beta 90.000000
_cell_angle_gamma 90.000000
_cell_volume 5703.703373
_symmetry_space_group_name_H-M "C M M M"
_symmetry_group_IT_number 65
_symmetry_cell_setting 'orthorhombic'
loop_
_space_group_symop_operation_xyz
x,y,z
-x,-y,z
x,-y,-z
-x,y,-z
-x,-y,-z
x,y,-z
-x,y,z
x,-y,z
1/2+x,1/2+y,z
1/2-x,1/2-y,z
1/2+x,1/2-y,-z
1/2-x,1/2+y,-z
1/2-x,1/2-y,-z
1/2+x,1/2+y,-z
1/2-x,1/2+y,z
1/2+x,1/2-y,z
loop_
_atom_site_type_symbol
_atom_site_label
_atom_site_fract_x
_atom_site_fract_y
_atom_site_fract_z
Si Si1 0.228696 0.590764 0.415910
Si Si2 0.912816 0.000000 0.083575
Si Si3 0.915352 0.148847 0.826977
Si Si4 0.920039 0.590350 0.653649
Si Si5 0.784305 0.834235 0.723341
Si Si6 0.584004 0.196905 0.084818
Si Si7 0.156040 0.411066 0.803077
O O1 0.249808 0.611392 0.500000
O O2 0.234315 0.500000 0.400539
O O3 0.145167 0.620509 0.399726
O O4 0.284499 0.635065 0.361438
O O5 0.886318 0.074478 0.128905
O O6 0.000000 0.000000 0.076690
O O7 0.879062 0.000000 0.000000
O O8 0.867724 0.164112 0.752918
O O9 0.904922 0.218992 0.882544
O O10 0.000000 0.139322 0.801508
O O11 0.925118 0.500000 0.643923
O O12 0.901860 0.611343 0.738619
O O13 0.000000 0.626982 0.633121
O O14 0.750000 0.750000 0.727419
O O15 0.737462 0.891378 0.774856
O O16 0.500000 0.169289 0.093413
O O17 0.637099 0.136378 0.124013
O O18 0.608537 0.200338 0.000000
O O19 0.152213 0.500000 0.823761
#
# Coordination Sequence:
#
# PCOD8271128 Si02
#       7
#    16   8  16  16  16  16  16
#     4   9  19  34  53  80 111 142 174 217 273 328
#     4   9  18  34  58  84 107 137 184 241 291 325
#     4  10  21  37  58  82 108 142 187 235 279 324
#     4   8  14  26  47  74 104 141 181 218 256 305
#     4  11  21  37  58  80 106 144 185 223 271 328
#     4  10  20  35  55  79 111 149 185 224 273 329
#     4  10  20  34  52  77 111 148 187 227 269 323
#
# _framework density 18.233767
#
# number of rings (size 3 to 8) (size 9 to 14) (size 15 to 20)
#    0.000    2.385    1.538    2.308    2.154    3.692 
#    0.000    4.615    0.000    0.462    0.000    1.077 
#    0.000    0.000    0.000    0.000    0.000    0.000 
#
# Total GULP energy -644724.155894 kJ/mol
# GULP energy per Si atom -12398.541460 kJ/mol
# Density = 1.819227 g / cm^3
# Si number density = 18.233767 Si / 1000 Ang^3
#
#
#
# Elastic Constant Matrix: (Units=GPa)
#
#
# Indices 1 2 3 4 5 6 
#
# 1 68.1626 29.0247 57.1616 0.0000 0.0000 0.0000
# 2 29.0247 89.2066 50.5412 0.0000 0.0000 0.0000
# 3 57.1616 50.5412 134.0375 0.0000 0.0000 0.0000
# 4 0.0000 0.0000 0.0000 28.4198 0.0000 0.0000
# 5 0.0000 0.0000 0.0000 0.0000 13.3240 0.0000
# 6 0.0000 0.0000 0.0000 0.0000 0.0000 21.7020
#
#
#
# Elastic Compliance Matrix: (Units=1/GPa)
#
#
# Indices 1 2 3 4 5 6 
#
# 1 0.023261 -0.002477 -0.008986 0.000000 0.000000 0.000000
# 2 -0.002477 0.014519 -0.004418 0.000000 0.000000 0.000000
# 3 -0.008986 -0.004418 0.012959 0.000000 0.000000 0.000000
# 4 0.000000 0.000000 0.000000 0.035187 0.000000 0.000000
# 5 0.000000 0.000000 0.000000 0.000000 0.075053 0.000000
# 6 0.000000 0.000000 0.000000 0.000000 0.000000 0.046079
#
#
# Mechanical properties :
#
#
# Convention : Reuss Voigt Hill
#
# Bulk Modulus (GPa) = 52.69739 62.76241 57.72990
# Shear Modulus (GPa) = 20.39604 23.00110 21.69857
#
# Velocity S-wave (km/s) = 3.34816 3.55555 3.45341
# Velocity P-wave (km/s) = 6.62651 7.16601 6.90153
#
# Compressibility (1/GPa) = 0.01897627
#
# Stress axis : x y z
#
# Youngs Moduli (GPa) = 42.98982 68.87449 77.16831
#
# Poissons Ratio (x) = 0.17063 0.69343
# Poissons Ratio (y) = 0.10650 0.34095
# Poissons Ratio (z) = 0.38630 0.30430
#
# Static dielectric constant tensor:
#      x y z
#    x 3.407290 0.000000 0.000000 
#    y 0.000000 3.319470 0.000000 
#    z 0.000000 0.000000 3.314950 
# 
# 
# High freq. dielectric constant tensor:
#      x y z
#    x 1.689450 0.000000 0.000000 
#    y 0.000000 1.700930 0.000000 
#    z 0.000000 0.000000 1.697200 
# 
# From -- ./inp_files/54595.got.cif
#   From: 2010.03.12/outbox.cif.g09.slc.cpg/sg65_28_cif.got.tgz:54595.got - 2010.04.10 20:52:16.
