data_PCOD8271553
_publ_section_title
;
Structure prediction by ZEFSAII (Michael W. Deem and Ramdas Pophale) SiO2 
 PCOD8271553
Probable space group: C M M M
;
_chemical_formula_sum "Si O2"
_cell_formula_units_Z 72
_cell_length_a 10.331803
_cell_length_b 14.189931
_cell_length_c 24.121660
_cell_angle_alpha 90.000000
_cell_angle_beta 90.000000
_cell_angle_gamma 90.000000
_cell_volume 3536.417997
_symmetry_space_group_name_H-M "C M M M"
_symmetry_group_IT_number 65
_symmetry_cell_setting 'orthorhombic'
loop_
_space_group_symop_operation_xyz
x,y,z
-x,-y,z
x,-y,-z
-x,y,-z
-x,-y,-z
x,y,-z
-x,y,z
x,-y,z
1/2+x,1/2+y,z
1/2-x,1/2-y,z
1/2+x,1/2-y,-z
1/2-x,1/2+y,-z
1/2-x,1/2-y,-z
1/2+x,1/2+y,-z
1/2-x,1/2+y,z
1/2+x,1/2-y,z
loop_
_atom_site_type_symbol
_atom_site_label
_atom_site_fract_x
_atom_site_fract_y
_atom_site_fract_z
Si Si1 0.145894 0.612092 0.439906
Si Si2 0.500000 0.612030 0.731772
Si Si3 0.500000 0.264820 0.836662
Si Si4 0.756758 0.388575 0.325520
Si Si5 0.653171 0.889276 0.000000
Si Si6 0.500000 0.110683 0.252321
Si Si7 0.750000 0.250000 0.090065
O O1 0.204483 0.643627 0.500000
O O2 0.143114 0.500000 0.436560
O O3 0.228725 0.651972 0.388203
O O4 0.000000 0.650305 0.434438
O O5 0.500000 0.500000 0.734557
O O6 0.500000 0.649706 0.793697
O O7 0.624844 0.652493 0.699582
O O8 0.500000 0.163522 0.806373
O O9 0.372583 0.276753 0.873140
O O10 0.751241 0.500000 0.327373
O O11 0.875451 0.356770 0.287122
O O12 0.716523 0.841890 0.053857
O O13 0.500000 0.870644 0.000000
O O14 0.685623 0.000000 0.000000
O O15 0.500000 0.000000 0.239401
#
# Coordination Sequence:
#
# PCOD8271553 Si02
#       7
#    16   8   8  16   8   8   8
#     4   8  12  20  40  70  98 126 173 240 300 347
#     4  10  22  36  50  72 113 159 192 231 288 348
#     4  12  24  39  60  90 127 160 198 244 296 332
#     4   9  16  30  48  71 104 143 188 238 291 354
#     4  10  22  45  74  99 128 171 205 236 296 352
#     4  10  20  34  56  82 109 149 200 241 284 350
#     4  11  24  42  66 100 130 158 201 256 284 342
#
# _framework density 20.359584999999999
#
# number of rings (size 3 to 8) (size 9 to 14) (size 15 to 20)
#    0.000    2.333    2.222    2.000    0.000    1.778 
#    0.000    1.111    0.000    3.333    0.000    4.667 
#    0.000    0.000    0.000    0.000    0.000    0.000 
#
# Total GULP energy -446260.830683 kJ/mol
# GULP energy per Si atom -12396.134186 kJ/mol
# Density = 2.031325 g / cm^3
# Si number density = 20.359585 Si / 1000 Ang^3
#
#
#
# Elastic Constant Matrix: (Units=GPa)
#
#
# Indices 1 2 3 4 5 6 
#
# 1 179.1894 32.4989 101.2841 0.0000 0.0000 0.0000
# 2 32.4989 80.0293 42.1947 0.0000 0.0000 0.0000
# 3 101.2841 42.1947 185.8272 0.0000 0.0000 0.0000
# 4 0.0000 0.0000 0.0000********** 0.0000 0.0000
# 5 0.0000 0.0000 0.0000 0.0000 -12.5941 0.0000
# 6 0.0000 0.0000 0.0000 0.0000 0.0000 7.8432
#
#
#
# Elastic Compliance Matrix: (Units=1/GPa)
#
#
# Indices 1 2 3 4 5 6 
#
# 1 0.008150 -0.001099 -0.004192 0.000000 0.000000 0.000000
# 2 -0.001099 0.014343 -0.002658 0.000000 0.000000 0.000000
# 3 -0.004192 -0.002658 0.008270 0.000000 0.000000 0.000000
# 4 0.000000 0.000000 0.000000 -0.000042 0.000000 0.000000
# 5 0.000000 0.000000 0.000000 0.000000 -0.079402 0.000000
# 6 0.000000 0.000000 0.000000 0.000000 0.000000 0.127499
#
#
# Mechanical properties :
#
#
# Convention : Reuss Voigt Hill
#
# Bulk Modulus (GPa) = 67.27594 88.55571 77.91582
# Shear Modulus (GPa) = 50.16520 -4724.89495 -2337.36488
#
# Velocity S-wave (km/s) = 4.96921 -48.22614 -33.91952
# Velocity P-wave (km/s) = 8.12648 55.29398 38.67418
#
# Compressibility (1/GPa) = 0.01486416
#
# Stress axis : x y z
#
# Youngs Moduli (GPa) = 122.70367 69.72032 120.92106
#
# Poissons Ratio (x) = 0.07663 0.50695
# Poissons Ratio (y) = 0.13486 0.32137
# Poissons Ratio (z) = 0.51442 0.18530
#
# Static dielectric constant tensor:
#      x y z
#    x 3.929430 0.000000 0.000000 
#    y 0.000000 3.324840 0.000000 
#    z 0.000000 0.000000 4.008430 
# 
# 
# High freq. dielectric constant tensor:
#      x y z
#    x 1.794920 0.000000 0.000000 
#    y 0.000000 1.780490 0.000000 
#    z 0.000000 0.000000 1.807820 
# 
# From -- ./inp_files/72668.got.cif
#   From: 2010.03.12/outbox.cif.g09.slc.cpg/sg65_37_cif.got.tgz:72668.got - 2010.04.10 20:52:16.
