data_PCOD8271808
_publ_section_title
;
Structure prediction by ZEFSAII (Michael W. Deem and Ramdas Pophale) SiO2 
 PCOD8271808
Probable space group: C M M M
;
_chemical_formula_sum "Si O2"
_cell_formula_units_Z 112
_cell_length_a 13.626222
_cell_length_b 14.901961
_cell_length_c 26.900459
_cell_angle_alpha 90.000000
_cell_angle_beta 90.000000
_cell_angle_gamma 90.000000
_cell_volume 5462.338039
_symmetry_space_group_name_H-M "C M M M"
_symmetry_group_IT_number 65
_symmetry_cell_setting 'orthorhombic'
loop_
_space_group_symop_operation_xyz
x,y,z
-x,-y,z
x,-y,-z
-x,y,-z
-x,-y,-z
x,y,-z
-x,y,z
x,-y,z
1/2+x,1/2+y,z
1/2-x,1/2-y,z
1/2+x,1/2-y,-z
1/2-x,1/2+y,-z
1/2-x,1/2-y,-z
1/2+x,1/2+y,-z
1/2-x,1/2+y,z
1/2+x,1/2-y,z
loop_
_atom_site_type_symbol
_atom_site_label
_atom_site_fract_x
_atom_site_fract_y
_atom_site_fract_z
Si Si1 0.780643 0.654473 0.289116
Si Si2 0.611524 0.727709 0.942819
Si Si3 0.108583 0.601339 0.806758
Si Si4 0.278414 0.890585 0.096212
Si Si5 0.107006 0.898340 0.353904
Si Si6 0.277015 0.649745 0.553671
Si Si7 0.391340 0.100420 0.619914
O O1 0.750000 0.750000 0.267472
O O2 0.837314 0.603094 0.246105
O O3 0.681344 0.606359 0.307433
O O4 0.852023 0.666616 0.336858
O O5 0.500000 0.726762 0.923457
O O6 0.652201 0.830546 0.939737
O O7 0.669787 0.652024 0.910612
O O8 0.618327 0.697923 0.000000
O O9 0.087022 0.500000 0.820617
O O10 0.182411 0.637092 0.848997
O O11 0.000000 0.649783 0.805670
O O12 0.280273 0.000000 0.085856
O O13 0.139663 0.848050 0.404082
O O14 0.000000 0.861726 0.337269
O O15 0.100170 0.000000 0.370985
O O16 0.310113 0.607664 0.500000
O O17 0.250000 0.750000 0.542942
O O18 0.179900 0.598533 0.572632
O O19 0.500000 0.131026 0.603552
O O20 0.392752 0.000000 0.642738
#
# Coordination Sequence:
#
# PCOD8271808 Si02
#       7
#    16  16  16  16  16  16  16
#     4  11  22  34  55  83 108 140 179 222 275 330
#     4  10  22  39  61  91 128 168 210 258 309 364
#     4  10  21  38  60  84 112 148 190 236 287 343
#     4  10  21  38  61  89 123 164 209 259 311 364
#     4  10  21  37  55  74 102 140 179 220 263 317
#     4  10  21  35  52  76 104 134 170 215 268 324
#     4  10  20  35  56  78 103 136 173 218 271 327
#
# _framework density 20.504041000000001
#
# number of rings (size 3 to 8) (size 9 to 14) (size 15 to 20)
#    0.000    1.857    0.000    6.000    2.000    8.000 
#    0.000    5.000    0.000    0.857    0.000    0.000 
#    0.000    0.000    0.000    0.000    0.000    0.000 
#
# Total GULP energy -693761.396729 kJ/mol
# GULP energy per Si atom -12388.596370 kJ/mol
# Density = 2.045737 g / cm^3
# Si number density = 20.504041 Si / 1000 Ang^3
#
#
#
# Elastic Constant Matrix: (Units=GPa)
#
#
# Indices 1 2 3 4 5 6 
#
# 1 178.6020 30.0038 53.9761 0.0000 0.0000 0.0000
# 2 30.0038 78.4786 15.2066 0.0000 0.0000 0.0000
# 3 53.9761 15.2066 104.9160 0.0000 0.0000 0.0000
# 4 0.0000 0.0000 0.0000 26.9403 0.0000 0.0000
# 5 0.0000 0.0000 0.0000 0.0000 18.4507 0.0000
# 6 0.0000 0.0000 0.0000 0.0000 0.0000 16.0451
#
#
#
# Elastic Compliance Matrix: (Units=1/GPa)
#
#
# Indices 1 2 3 4 5 6 
#
# 1 0.006926 -0.002014 -0.003271 0.000000 0.000000 0.000000
# 2 -0.002014 0.013696 -0.000949 0.000000 0.000000 0.000000
# 3 -0.003271 -0.000949 0.011352 0.000000 0.000000 0.000000
# 4 0.000000 0.000000 0.000000 0.037119 0.000000 0.000000
# 5 0.000000 0.000000 0.000000 0.000000 0.054198 0.000000
# 6 0.000000 0.000000 0.000000 0.000000 0.000000 0.062325
#
#
# Mechanical properties :
#
#
# Convention : Reuss Voigt Hill
#
# Bulk Modulus (GPa) = 51.26752 62.26331 56.76542
# Shear Modulus (GPa) = 24.43951 29.80790 27.12370
#
# Velocity S-wave (km/s) = 3.45619 3.81695 3.64104
# Velocity P-wave (km/s) = 6.40194 7.06100 6.73954
#
# Compressibility (1/GPa) = 0.01950553
#
# Stress axis : x y z
#
# Youngs Moduli (GPa) = 144.38288 73.01287 88.09046
#
# Poissons Ratio (x) = 0.14705 0.28817
# Poissons Ratio (y) = 0.29080 0.08359
# Poissons Ratio (z) = 0.47232 0.06929
#
# Static dielectric constant tensor:
#      x y z
#    x 4.118890 0.000000 0.000000 
#    y 0.000000 3.688460 0.000000 
#    z 0.000000 0.000000 3.571570 
# 
# 
# High freq. dielectric constant tensor:
#      x y z
#    x 1.808710 0.000000 0.000000 
#    y 0.000000 1.794990 0.000000 
#    z 0.000000 0.000000 1.788420 
# 
# From -- ./inp_files/74867.got.cif
#   From: 2010.03.12/outbox.cif.g09.slc.cpg/sg65_38_cif.got.tgz:74867.got - 2010.04.10 20:52:16.
