data_PCOD8271022
_publ_section_title
;
Structure prediction by ZEFSAII (Michael W. Deem and Ramdas Pophale) SiO2 
 PCOD8271022
Probable space group: C M M M
;
_chemical_formula_sum "Si O2"
_cell_formula_units_Z 88
_cell_length_a 9.102264
_cell_length_b 29.834154
_cell_length_c 17.630751
_cell_angle_alpha 90.000000
_cell_angle_beta 90.000000
_cell_angle_gamma 90.000000
_cell_volume 4787.777579
_symmetry_space_group_name_H-M "C M M M"
_symmetry_group_IT_number 65
_symmetry_cell_setting 'orthorhombic'
loop_
_space_group_symop_operation_xyz
x,y,z
-x,-y,z
x,-y,-z
-x,y,-z
-x,-y,-z
x,y,-z
-x,y,z
x,-y,z
1/2+x,1/2+y,z
1/2-x,1/2-y,z
1/2+x,1/2-y,-z
1/2-x,1/2+y,-z
1/2-x,1/2-y,-z
1/2+x,1/2+y,-z
1/2-x,1/2+y,z
1/2+x,1/2-y,z
loop_
_atom_site_type_symbol
_atom_site_label
_atom_site_fract_x
_atom_site_fract_y
_atom_site_fract_z
Si Si1 0.332151 0.321782 0.413924
Si Si2 0.173194 0.389279 0.794448
Si Si3 0.669660 0.449220 0.911175
Si Si4 0.832083 0.081311 0.648096
Si Si5 0.659087 0.000000 0.413584
Si Si6 0.172431 0.293486 0.266493
O O1 0.283021 0.309733 0.500000
O O2 0.500000 0.306469 0.399491
O O3 0.317918 0.374771 0.403037
O O4 0.227616 0.297718 0.353360
O O5 0.232808 0.410744 0.871941
O O6 0.249031 0.416003 0.727372
O O7 0.213900 0.336503 0.785270
O O8 0.000000 0.396005 0.789991
O O9 0.500000 0.440980 0.890566
O O10 0.714985 0.500000 0.886300
O O11 0.696517 0.443624 0.000000
O O12 0.000000 0.069205 0.665527
O O13 0.756010 0.042869 0.601865
O O14 0.500000 0.000000 0.370054
O O15 0.619266 0.000000 0.500000
O O16 0.250000 0.250000 0.229299
O O17 0.000000 0.285700 0.268727
#
# Coordination Sequence:
#
# PCOD8271022 Si02
#       6
#    16  16  16  16   8  16
#     4   9  18  33  52  73  98 130 172 222 273 324
#     4  10  21  36  55  81 111 141 175 219 269 317
#     4   9  19  36  58  85 116 148 181 214 252 306
#     4  10  20  34  52  72  97 135 180 222 264 316
#     4  11  23  35  47  67  98 135 176 225 275 317
#     4  10  21  36  54  77 104 137 178 222 271 323
#
# _framework density 18.380134999999999
#
# number of rings (size 3 to 8) (size 9 to 14) (size 15 to 20)
#    0.000    2.273    0.000    3.000    1.273    5.818 
#    0.000    0.909    0.000    0.545    0.000    0.000 
#    0.000    0.000    0.000    0.000    0.000    0.000 
#
# Total GULP energy -545501.597356 kJ/mol
# GULP energy per Si atom -12397.763576 kJ/mol
# Density = 1.833830 g / cm^3
# Si number density = 18.380135 Si / 1000 Ang^3
#
#
#
# Elastic Constant Matrix: (Units=GPa)
#
#
# Indices 1 2 3 4 5 6 
#
# 1 108.3623 66.3011 43.7757 0.0000 0.0000 0.0000
# 2 66.3011 111.8283 42.1500 0.0000 0.0000 0.0000
# 3 43.7757 42.1500 68.8063 0.0000 0.0000 0.0000
# 4 0.0000 0.0000 0.0000 16.9671 0.0000 0.0000
# 5 0.0000 0.0000 0.0000 0.0000 27.9998 0.0000
# 6 0.0000 0.0000 0.0000 0.0000 0.0000 34.6122
#
#
#
# Elastic Compliance Matrix: (Units=1/GPa)
#
#
# Indices 1 2 3 4 5 6 
#
# 1 0.016030 -0.007359 -0.005690 0.000000 0.000000 0.000000
# 2 -0.007359 0.015005 -0.004510 0.000000 0.000000 0.000000
# 3 -0.005690 -0.004510 0.020917 0.000000 0.000000 0.000000
# 4 0.000000 0.000000 0.000000 0.058938 0.000000 0.000000
# 5 0.000000 0.000000 0.000000 0.000000 0.035715 0.000000
# 6 0.000000 0.000000 0.000000 0.000000 0.000000 0.028892
#
#
# Mechanical properties :
#
#
# Convention : Reuss Voigt Hill
#
# Bulk Modulus (GPa) = 59.40805 65.93895 62.67350
# Shear Modulus (GPa) = 23.12408 25.03382 24.07895
#
# Velocity S-wave (km/s) = 3.55082 3.69454 3.62339
# Velocity P-wave (km/s) = 7.01450 7.35884 7.18873
#
# Compressibility (1/GPa) = 0.01683274
#
# Stress axis : x y z
#
# Youngs Moduli (GPa) = 62.38478 66.64360 47.80864
#
# Poissons Ratio (x) = 0.49042 0.27205
# Poissons Ratio (y) = 0.45908 0.21563
# Poissons Ratio (z) = 0.35499 0.30058
#
# Static dielectric constant tensor:
#      x y z
#    x 3.475300 0.000000 0.000000 
#    y 0.000000 3.468320 0.000000 
#    z 0.000000 0.000000 3.158800 
# 
# 
# High freq. dielectric constant tensor:
#      x y z
#    x 1.723680 0.000000 0.000000 
#    y 0.000000 1.718080 0.000000 
#    z 0.000000 0.000000 1.688350 
# 
# From -- ./inp_files/50313.got.cif
#   From: 2010.03.12/outbox.cif.g09.slc.cpg/sg65_26_cif.got.tgz:50313.got - 2010.04.10 20:52:16.
