data_PCOD8271172
_publ_section_title
;
Structure prediction by ZEFSAII (Michael W. Deem and Ramdas Pophale) SiO2 
 PCOD8271172
Probable space group: C M M M
;
_chemical_formula_sum "Si O2"
_cell_formula_units_Z 88
_cell_length_a 9.185277
_cell_length_b 19.857845
_cell_length_c 27.500846
_cell_angle_alpha 90.000000
_cell_angle_beta 90.000000
_cell_angle_gamma 90.000000
_cell_volume 5016.149001
_symmetry_space_group_name_H-M "C M M M"
_symmetry_group_IT_number 65
_symmetry_cell_setting 'orthorhombic'
loop_
_space_group_symop_operation_xyz
x,y,z
-x,-y,z
x,-y,-z
-x,y,-z
-x,-y,-z
x,y,-z
-x,y,z
x,-y,z
1/2+x,1/2+y,z
1/2-x,1/2-y,z
1/2+x,1/2-y,-z
1/2-x,1/2+y,-z
1/2-x,1/2-y,-z
1/2+x,1/2+y,-z
1/2-x,1/2+y,z
1/2+x,1/2-y,z
loop_
_atom_site_type_symbol
_atom_site_label
_atom_site_fract_x
_atom_site_fract_y
_atom_site_fract_z
Si Si1 0.164840 0.419625 0.500000
Si Si2 0.829004 0.317637 0.120288
Si Si3 0.164379 0.080128 0.406302
Si Si4 0.333874 0.578058 0.943946
Si Si5 0.830155 0.422845 0.310968
Si Si6 0.169412 0.316436 0.768559
O O1 0.165135 0.500000 0.500000
O O2 0.247606 0.391413 0.452538
O O3 0.000000 0.392136 0.500000
O O4 0.750000 0.250000 0.102145
O O5 0.776563 0.380089 0.088631
O O6 0.786963 0.333129 0.176089
O O7 0.000000 0.307866 0.113151
O O8 0.241935 0.105094 0.357185
O O9 0.000000 0.108229 0.407826
O O10 0.164876 0.000000 0.407989
O O11 0.500000 0.595320 0.929787
O O12 0.301345 0.500000 0.934358
O O13 0.305800 0.596157 0.000000
O O14 0.789497 0.500000 0.299304
O O15 0.783592 0.379773 0.264125
O O16 0.000000 0.415509 0.323179
O O17 0.250000 0.250000 0.749529
O O18 0.000000 0.301512 0.763902
#
# Coordination Sequence:
#
# PCOD8271172 Si02
#       6
#     8  16  16  16  16  16
#     4   9  15  23  37  57  84 121 158 189 230 283
#     4  10  20  34  53  76 101 130 166 207 248 291
#     4   9  16  25  38  60  90 120 152 193 237 278
#     4   9  19  36  55  75 102 134 165 200 245 295
#     4   9  17  30  47  67  93 124 157 193 235 283
#     4   9  19  34  51  71  96 127 161 199 241 285
#
# _framework density 17.543340000000001
#
# number of rings (size 3 to 8) (size 9 to 14) (size 15 to 20)
#    0.000    2.818    0.000    1.909    0.000    6.545 
#    0.000    2.727    0.000    2.182    0.000    0.636 
#    0.000    0.000    0.000    0.000    0.000    0.000 
#
# Total GULP energy -545641.535679 kJ/mol
# GULP energy per Si atom -12400.943993 kJ/mol
# Density = 1.750341 g / cm^3
# Si number density = 17.543340 Si / 1000 Ang^3
#
#
#
# Elastic Constant Matrix: (Units=GPa)
#
#
# Indices 1 2 3 4 5 6 
#
# 1 96.8233 44.9174 60.1517 0.0000 0.0000 0.0000
# 2 44.9174 71.7065 59.7545 0.0000 0.0000 0.0000
# 3 60.1517 59.7545 108.0435 0.0000 0.0000 0.0000
# 4 0.0000 0.0000 0.0000 4.1069 0.0000 0.0000
# 5 0.0000 0.0000 0.0000 0.0000 29.4388 0.0000
# 6 0.0000 0.0000 0.0000 0.0000 0.0000 25.8488
#
#
#
# Elastic Compliance Matrix: (Units=1/GPa)
#
#
# Indices 1 2 3 4 5 6 
#
# 1 0.016716 -0.005037 -0.006520 0.000000 0.000000 0.000000
# 2 -0.005037 0.027385 -0.012341 0.000000 0.000000 0.000000
# 3 -0.006520 -0.012341 0.019711 0.000000 0.000000 0.000000
# 4 0.000000 0.000000 0.000000 0.243491 0.000000 0.000000
# 5 0.000000 0.000000 0.000000 0.000000 0.033969 0.000000
# 6 0.000000 0.000000 0.000000 0.000000 0.000000 0.038687
#
#
# Mechanical properties :
#
#
# Convention : Reuss Voigt Hill
#
# Bulk Modulus (GPa) = 62.44398 67.35785 64.90091
# Shear Modulus (GPa) = 11.54482 19.32888 15.43685
#
# Velocity S-wave (km/s) = 2.56808 3.32291 2.96957
# Velocity P-wave (km/s) = 6.66819 7.29388 6.98804
#
# Compressibility (1/GPa) = 0.01601435
#
# Stress axis : x y z
#
# Youngs Moduli (GPa) = 59.82389 36.51583 50.73288
#
# Poissons Ratio (x) = 0.18394 0.33079
# Poissons Ratio (y) = 0.30135 0.62611
# Poissons Ratio (z) = 0.39007 0.45065
#
# Static dielectric constant tensor:
#      x y z
#    x 3.319710 0.000000 0.000000 
#    y 0.000000 2.966010 0.000000 
#    z 0.000000 0.000000 3.354000 
# 
# 
# High freq. dielectric constant tensor:
#      x y z
#    x 1.684800 0.000000 0.000000 
#    y 0.000000 1.642190 0.000000 
#    z 0.000000 0.000000 1.683740 
# 
# From -- ./inp_files/70938.got.cif
#   From: 2010.03.12/outbox.cif.g09.slc.cpg/sg65_36_cif.got.tgz:70938.got - 2010.04.10 20:52:16.
