data_PCOD8271226
_publ_section_title
;
Structure prediction by ZEFSAII (Michael W. Deem and Ramdas Pophale) SiO2 
 PCOD8271226
Probable space group: C M M M
;
_chemical_formula_sum "Si O2"
_cell_formula_units_Z 112
_cell_length_a 14.431195
_cell_length_b 17.234915
_cell_length_c 23.378741
_cell_angle_alpha 90.000000
_cell_angle_beta 90.000000
_cell_angle_gamma 90.000000
_cell_volume 5814.770261
_symmetry_space_group_name_H-M "C M M M"
_symmetry_group_IT_number 65
_symmetry_cell_setting 'orthorhombic'
loop_
_space_group_symop_operation_xyz
x,y,z
-x,-y,z
x,-y,-z
-x,y,-z
-x,-y,-z
x,y,-z
-x,y,z
x,-y,z
1/2+x,1/2+y,z
1/2-x,1/2-y,z
1/2+x,1/2-y,-z
1/2-x,1/2+y,-z
1/2-x,1/2-y,-z
1/2+x,1/2+y,-z
1/2-x,1/2+y,z
1/2+x,1/2-y,z
loop_
_atom_site_type_symbol
_atom_site_label
_atom_site_fract_x
_atom_site_fract_y
_atom_site_fract_z
Si Si1 0.766870 0.160546 0.935039
Si Si2 0.393580 0.849938 0.248261
Si Si3 0.392467 0.327474 0.276123
Si Si4 0.603402 0.092201 0.435839
Si Si5 0.108769 0.911447 0.159953
Si Si6 0.761934 0.588930 0.338263
Si Si7 0.895766 0.410378 0.126067
O O1 0.750000 0.250000 0.922465
O O2 0.847206 0.130905 0.893942
O O3 0.671881 0.113683 0.924934
O O4 0.798854 0.146021 0.000000
O O5 0.500000 0.872728 0.259422
O O6 0.371776 0.762706 0.267590
O O7 0.329780 0.907884 0.283893
O O8 0.369932 0.859300 0.181503
O O9 0.500000 0.343411 0.290281
O O10 0.360518 0.371538 0.218848
O O11 0.330563 0.360037 0.328346
O O12 0.628680 0.119736 0.500000
O O13 0.500000 0.123104 0.419292
O O14 0.681581 0.124118 0.392539
O O15 0.602022 0.000000 0.432348
O O16 0.000000 0.904658 0.151594
O O17 0.142884 0.000000 0.162190
O O18 0.732082 0.500000 0.348594
O O19 0.883189 0.500000 0.142276
O O20 0.000000 0.392833 0.105408
#
# Coordination Sequence:
#
# PCOD8271226 Si02
#       7
#    16  16  16  16  16  16  16
#     4  11  24  39  55  76 103 136 172 210 255 313
#     4  10  20  34  53  77 106 137 169 208 256 312
#     4  10  21  36  53  74 105 144 178 208 249 309
#     4   8  15  29  49  75 107 140 175 217 264 310
#     4  10  21  38  59  79 100 130 172 221 265 301
#     4  11  20  30  51  80 108 136 170 217 264 305
#     4  10  21  37  57  80 106 135 168 211 263 317
#
# _framework density 19.261293999999999
#
# number of rings (size 3 to 8) (size 9 to 14) (size 15 to 20)
#    0.000    2.000    0.000    4.286    0.000    5.714 
#    0.000    2.857    0.000    2.143    0.000    4.000 
#    0.000    0.000    0.000    0.000    0.000    0.000 
#
# Total GULP energy -694510.557428 kJ/mol
# GULP energy per Si atom -12401.974240 kJ/mol
# Density = 1.921745 g / cm^3
# Si number density = 19.261294 Si / 1000 Ang^3
#
#
#
# Elastic Constant Matrix: (Units=GPa)
#
#
# Indices 1 2 3 4 5 6 
#
# 1 78.8685 24.4909 48.0733 0.0000 0.0000 0.0000
# 2 24.4909 64.1949 27.4016 0.0000 0.0000 0.0000
# 3 48.0733 27.4016 88.8234 0.0000 0.0000 0.0000
# 4 0.0000 0.0000 0.0000 34.4325 0.0000 0.0000
# 5 0.0000 0.0000 0.0000 0.0000 32.8716 0.0000
# 6 0.0000 0.0000 0.0000 0.0000 0.0000 29.6523
#
#
#
# Elastic Compliance Matrix: (Units=1/GPa)
#
#
# Indices 1 2 3 4 5 6 
#
# 1 0.019540 -0.003387 -0.009531 0.000000 0.000000 0.000000
# 2 -0.003387 0.018527 -0.003883 0.000000 0.000000 0.000000
# 3 -0.009531 -0.003883 0.017614 0.000000 0.000000 0.000000
# 4 0.000000 0.000000 0.000000 0.029042 0.000000 0.000000
# 5 0.000000 0.000000 0.000000 0.000000 0.030421 0.000000
# 6 0.000000 0.000000 0.000000 0.000000 0.000000 0.033724
#
#
# Mechanical properties :
#
#
# Convention : Reuss Voigt Hill
#
# Bulk Modulus (GPa) = 45.28677 47.97981 46.63329
# Shear Modulus (GPa) = 26.33930 28.18602 27.26266
#
# Velocity S-wave (km/s) = 3.70195 3.82953 3.76628
# Velocity P-wave (km/s) = 6.46803 6.67216 6.57089
#
# Compressibility (1/GPa) = 0.02208151
#
# Stress axis : x y z
#
# Youngs Moduli (GPa) = 51.17587 53.97581 56.77153
#
# Poissons Ratio (x) = 0.18279 0.54109
# Poissons Ratio (y) = 0.17331 0.22042
# Poissons Ratio (z) = 0.48776 0.20956
#
# Static dielectric constant tensor:
#      x y z
#    x 3.677650 0.000000 0.000000 
#    y 0.000000 3.331780 0.000000 
#    z 0.000000 0.000000 3.480210 
# 
# 
# High freq. dielectric constant tensor:
#      x y z
#    x 1.757610 0.000000 0.000000 
#    y 0.000000 1.741910 0.000000 
#    z 0.000000 0.000000 1.732750 
# 
# From -- ./inp_files/69958.got.cif
#   From: 2010.03.12/outbox.cif.g09.slc.cpg/sg65_35_cif.got.tgz:69958.got - 2010.04.10 20:52:16.
