data_PCOD8271686
_publ_section_title
;
Structure prediction by ZEFSAII (Michael W. Deem and Ramdas Pophale) SiO2 
 PCOD8271686
Probable space group: C M M M
;
_chemical_formula_sum "Si O2"
_cell_formula_units_Z 104
_cell_length_a 17.281908
_cell_length_b 18.171861
_cell_length_c 18.339425
_cell_angle_alpha 90.000000
_cell_angle_beta 90.000000
_cell_angle_gamma 90.000000
_cell_volume 5759.394270
_symmetry_space_group_name_H-M "C M M M"
_symmetry_group_IT_number 65
_symmetry_cell_setting 'orthorhombic'
loop_
_space_group_symop_operation_xyz
x,y,z
-x,-y,z
x,-y,-z
-x,y,-z
-x,-y,-z
x,y,-z
-x,y,z
x,-y,z
1/2+x,1/2+y,z
1/2-x,1/2-y,z
1/2+x,1/2-y,-z
1/2-x,1/2+y,-z
1/2-x,1/2-y,-z
1/2+x,1/2+y,-z
1/2-x,1/2+y,z
1/2+x,1/2-y,z
loop_
_atom_site_type_symbol
_atom_site_label
_atom_site_fract_x
_atom_site_fract_y
_atom_site_fract_z
Si Si1 0.280104 0.915875 0.833712
Si Si2 0.680848 0.692371 0.082287
Si Si3 0.587331 0.802090 0.830449
Si Si4 0.648568 0.669068 0.586419
Si Si5 0.282064 0.083628 0.664845
Si Si6 0.500000 0.581704 0.413339
Si Si7 0.411254 0.191877 0.337472
O O1 0.208163 0.882517 0.878593
O O2 0.358614 0.871203 0.851052
O O3 0.257740 0.910868 0.749018
O O4 0.293495 0.000000 0.858069
O O5 0.750000 0.750000 0.084013
O O6 0.609185 0.728740 0.124867
O O7 0.655273 0.673774 0.000000
O O8 0.500000 0.825235 0.850345
O O9 0.594382 0.780968 0.745647
O O10 0.655118 0.668176 0.500000
O O11 0.725774 0.634463 0.618356
O O12 0.575737 0.622644 0.615806
O O13 0.636834 0.752170 0.612574
O O14 0.369848 0.112673 0.654461
O O15 0.278472 0.000000 0.636341
O O16 0.500000 0.500000 0.380426
O O17 0.500000 0.580008 0.500000
O O18 0.500000 0.184693 0.363857
#
# Coordination Sequence:
#
# PCOD8271686 Si02
#       7
#    16  16  16  16  16   8  16
#     4   9  18  33  52  75 104 135 170 211 253 300
#     4   9  17  30  49  73 102 136 171 204 243 296
#     4   9  18  32  52  77 103 134 170 210 254 301
#     4  11  21  35  54  76 102 132 173 219 263 313
#     4  10  21  35  53  77 105 138 173 213 260 310
#     4   9  18  32  50  72  99 127 156 204 265 312
#     4  10  20  35  54  77 105 137 173 213 259 311
#
# _framework density 18.057454
#
# number of rings (size 3 to 8) (size 9 to 14) (size 15 to 20)
#    0.000    2.385    0.769    1.846    0.000    5.846 
#    0.000    3.077    0.000    0.462    0.000    7.538 
#    0.000    0.000    0.000    0.000    0.000    0.000 
#
# Total GULP energy -644845.544909 kJ/mol
# GULP energy per Si atom -12400.875864 kJ/mol
# Density = 1.801635 g / cm^3
# Si number density = 18.057454 Si / 1000 Ang^3
#
#
#
# Elastic Constant Matrix: (Units=GPa)
#
#
# Indices 1 2 3 4 5 6 
#
# 1 95.1611 57.9872 46.4615 0.0000 0.0000 0.0000
# 2 57.9872 96.9644 35.6115 0.0000 0.0000 0.0000
# 3 46.4615 35.6115 66.9525 0.0000 0.0000 0.0000
# 4 0.0000 0.0000 0.0000 18.5968 0.0000 0.0000
# 5 0.0000 0.0000 0.0000 0.0000 20.2793 0.0000
# 6 0.0000 0.0000 0.0000 0.0000 0.0000 25.1610
#
#
#
# Elastic Compliance Matrix: (Units=1/GPa)
#
#
# Indices 1 2 3 4 5 6 
#
# 1 0.020522 -0.008752 -0.009586 0.000000 0.000000 0.000000
# 2 -0.008752 0.016549 -0.002729 0.000000 0.000000 0.000000
# 3 -0.009586 -0.002729 0.023040 0.000000 0.000000 0.000000
# 4 0.000000 0.000000 0.000000 0.053773 0.000000 0.000000
# 5 0.000000 0.000000 0.000000 0.000000 0.049311 0.000000
# 6 0.000000 0.000000 0.000000 0.000000 0.000000 0.039744
#
#
# Mechanical properties :
#
#
# Convention : Reuss Voigt Hill
#
# Bulk Modulus (GPa) = 55.62713 59.91093 57.76903
# Shear Modulus (GPa) = 19.91515 20.74193 20.32854
#
# Velocity S-wave (km/s) = 3.32456 3.39287 3.35889
# Velocity P-wave (km/s) = 6.75348 6.97128 6.86324
#
# Compressibility (1/GPa) = 0.01797684
#
# Stress axis : x y z
#
# Youngs Moduli (GPa) = 48.72849 60.42565 43.40344
#
# Poissons Ratio (x) = 0.52885 0.41606
# Poissons Ratio (y) = 0.42647 0.11845
# Poissons Ratio (z) = 0.46711 0.16490
#
# Static dielectric constant tensor:
#      x y z
#    x 3.354940 0.000000 0.000000 
#    y 0.000000 3.364780 0.000000 
#    z 0.000000 0.000000 3.273680 
# 
# 
# High freq. dielectric constant tensor:
#      x y z
#    x 1.695950 0.000000 0.000000 
#    y 0.000000 1.695200 0.000000 
#    z 0.000000 0.000000 1.687940 
# 
# From -- ./inp_files/54599.got.cif
#   From: 2010.03.12/outbox.cif.g09.slc.cpg/sg65_28_cif.got.tgz:54599.got - 2010.04.10 20:52:16.
