data_PCOD8271929
_publ_section_title
;
Structure prediction by ZEFSAII (Michael W. Deem and Ramdas Pophale) SiO2 
 PCOD8271929
Probable space group: C M M M
;
_chemical_formula_sum "Si O2"
_cell_formula_units_Z 80
_cell_length_a 9.135391
_cell_length_b 29.113272
_cell_length_c 16.059946
_cell_angle_alpha 90.000000
_cell_angle_beta 90.000000
_cell_angle_gamma 90.000000
_cell_volume 4271.321274
_symmetry_space_group_name_H-M "C M M M"
_symmetry_group_IT_number 65
_symmetry_cell_setting 'orthorhombic'
loop_
_space_group_symop_operation_xyz
x,y,z
-x,-y,z
x,-y,-z
-x,y,-z
-x,-y,-z
x,y,-z
-x,y,z
x,-y,z
1/2+x,1/2+y,z
1/2-x,1/2-y,z
1/2+x,1/2-y,-z
1/2-x,1/2+y,-z
1/2-x,1/2-y,-z
1/2+x,1/2+y,-z
1/2-x,1/2+y,z
1/2+x,1/2-y,z
loop_
_atom_site_type_symbol
_atom_site_label
_atom_site_fract_x
_atom_site_fract_y
_atom_site_fract_z
Si Si1 0.326550 0.868438 0.765676
Si Si2 0.836824 0.183129 0.500000
Si Si3 0.169403 0.947259 0.680796
Si Si4 0.667504 0.292404 0.322252
Si Si5 0.174232 0.083431 0.500000
Si Si6 0.829112 0.296823 0.905197
O O1 0.500000 0.871166 0.756267
O O2 0.258387 0.918928 0.752239
O O3 0.253261 0.839253 0.692456
O O4 0.281765 0.841572 0.851026
O O5 0.814924 0.215421 0.420621
O O6 0.752123 0.134440 0.500000
O O7 0.000000 0.163377 0.500000
O O8 0.229840 0.940270 0.586153
O O9 0.000000 0.931975 0.685971
O O10 0.190131 0.000000 0.705892
O O11 0.500000 0.294517 0.291445
O O12 0.750000 0.250000 0.277059
O O13 0.000000 0.079140 0.500000
O O14 0.750000 0.250000 0.875630
O O15 0.000000 0.287373 0.894840
O O16 0.786017 0.308621 0.000000
#
# Coordination Sequence:
#
# PCOD8271929 Si02
#       6
#    16   8  16  16   8  16
#     4  11  22  35  53  78 107 137 169 213 264 313
#     4   9  17  30  49  68  95 136 176 215 253 299
#     4  10  20  35  57  80 103 136 178 223 268 313
#     4  11  21  34  50  71 101 138 178 215 254 303
#     4   9  15  31  54  76  98 132 180 224 265 307
#     4   9  19  36  57  81 108 138 172 208 251 307
#
# _framework density 18.729568
#
# number of rings (size 3 to 8) (size 9 to 14) (size 15 to 20)
#    0.000    2.000    2.000    2.400    0.000    4.800 
#    0.000    3.000    0.000    1.800    0.000    4.200 
#    0.000    0.000    0.000    0.000    0.000    0.000 
#
# Total GULP energy -495562.429343 kJ/mol
# GULP energy per Si atom -12389.060734 kJ/mol
# Density = 1.868694 g / cm^3
# Si number density = 18.729568 Si / 1000 Ang^3
#
#
#
# Elastic Constant Matrix: (Units=GPa)
#
#
# Indices 1 2 3 4 5 6 
#
# 1 75.7166 53.0743 42.0003 0.0000 0.0000 0.0000
# 2 53.0743 117.4456 40.5109 0.0000 0.0000 0.0000
# 3 42.0003 40.5109 98.5059 0.0000 0.0000 0.0000
# 4 0.0000 0.0000 0.0000 20.2092 0.0000 0.0000
# 5 0.0000 0.0000 0.0000 0.0000 20.3902 0.0000
# 6 0.0000 0.0000 0.0000 0.0000 0.0000 33.0297
#
#
#
# Elastic Compliance Matrix: (Units=1/GPa)
#
#
# Indices 1 2 3 4 5 6 
#
# 1 0.022177 -0.007878 -0.006216 0.000000 0.000000 0.000000
# 2 -0.007878 0.012721 -0.001872 0.000000 0.000000 0.000000
# 3 -0.006216 -0.001872 0.013572 0.000000 0.000000 0.000000
# 4 0.000000 0.000000 0.000000 0.049483 0.000000 0.000000
# 5 0.000000 0.000000 0.000000 0.000000 0.049043 0.000000
# 6 0.000000 0.000000 0.000000 0.000000 0.000000 0.030276
#
#
# Mechanical properties :
#
#
# Convention : Reuss Voigt Hill
#
# Bulk Modulus (GPa) = 60.46977 62.53768 61.50373
# Shear Modulus (GPa) = 23.28652 25.13130 24.20891
#
# Velocity S-wave (km/s) = 3.52987 3.66703 3.59911
# Velocity P-wave (km/s) = 6.99780 7.16881 7.08382
#
# Compressibility (1/GPa) = 0.01653719
#
# Stress axis : x y z
#
# Youngs Moduli (GPa) = 45.09120 78.61306 73.68090
#
# Poissons Ratio (x) = 0.61931 0.45800
# Poissons Ratio (y) = 0.35523 0.13796
# Poissons Ratio (z) = 0.28029 0.14720
#
# Static dielectric constant tensor:
#      x y z
#    x 3.286800 0.000000 0.000000 
#    y 0.000000 3.367190 0.000000 
#    z 0.000000 0.000000 3.400920 
# 
# 
# High freq. dielectric constant tensor:
#      x y z
#    x 1.708160 0.000000 0.000000 
#    y 0.000000 1.722790 0.000000 
#    z 0.000000 0.000000 1.716470 
# 
# From -- ./inp_files/50152.got.cif
#   From: 2010.03.12/outbox.cif.g09.slc.cpg/sg65_26_cif.got.tgz:50152.got - 2010.04.10 20:52:16.
