data_PCOD8271299
_publ_section_title
;
Structure prediction by ZEFSAII (Michael W. Deem and Ramdas Pophale) SiO2 
 PCOD8271299
Probable space group: C M M M
;
_chemical_formula_sum "Si O2"
_cell_formula_units_Z 104
_cell_length_a 26.238508
_cell_length_b 9.026234
_cell_length_c 22.743664
_cell_angle_alpha 90.000000
_cell_angle_beta 90.000000
_cell_angle_gamma 90.000000
_cell_volume 5386.493685
_symmetry_space_group_name_H-M "C M M M"
_symmetry_group_IT_number 65
_symmetry_cell_setting 'orthorhombic'
loop_
_space_group_symop_operation_xyz
x,y,z
-x,-y,z
x,-y,-z
-x,y,-z
-x,-y,-z
x,y,-z
-x,y,z
x,-y,z
1/2+x,1/2+y,z
1/2-x,1/2-y,z
1/2+x,1/2-y,-z
1/2-x,1/2+y,-z
1/2-x,1/2-y,-z
1/2+x,1/2+y,-z
1/2-x,1/2+y,z
1/2+x,1/2-y,z
loop_
_atom_site_type_symbol
_atom_site_label
_atom_site_fract_x
_atom_site_fract_y
_atom_site_fract_z
Si Si1 0.556514 0.829706 0.828356
Si Si2 0.109722 0.822944 0.433971
Si Si3 0.500000 0.337840 0.430249
Si Si4 0.196874 0.175649 0.345940
Si Si5 0.843191 0.668861 0.233423
Si Si6 0.801390 0.330087 0.105387
Si Si7 0.899602 0.829764 0.934152
O O1 0.500000 0.808267 0.801451
O O2 0.598386 0.781233 0.780058
O O3 0.560030 0.735967 0.888097
O O4 0.567595 0.000000 0.845528
O O5 0.122490 0.767731 0.500000
O O6 0.153860 0.765366 0.390955
O O7 0.053881 0.758285 0.412883
O O8 0.106446 0.000000 0.432950
O O9 0.500000 0.500000 0.400539
O O10 0.500000 0.355571 0.500000
O O11 0.250000 0.250000 0.364126
O O12 0.180531 0.221129 0.280708
O O13 0.203342 0.000000 0.348680
O O14 0.841030 0.500000 0.256921
O O15 0.810167 0.686731 0.174909
O O16 0.797789 0.500000 0.086547
O O17 0.750000 0.250000 0.086631
O O18 0.846609 0.256175 0.069284
O O19 0.889763 0.000000 0.917994
O O20 0.921917 0.812812 0.000000
#
# Coordination Sequence:
#
# PCOD8271299 Si02
#       7
#    16  16   8  16  16  16  16
#     4   9  19  37  59  79 101 134 174 213 258 315
#     4   8  15  29  49  74 104 138 176 217 263 314
#     4   7  10  22  46  70  95 129 165 207 256 301
#     4  11  22  34  51  77 107 141 178 219 264 316
#     4   9  19  36  55  75 101 133 171 213 258 311
#     4  10  20  34  54  76  98 132 174 217 263 313
#     4  10  21  35  51  75 107 139 171 210 257 309
#
# _framework density 19.307552000000001
#
# number of rings (size 3 to 8) (size 9 to 14) (size 15 to 20)
#    0.000    2.692    0.000    3.692    0.000    6.769 
#    1.385    1.538    0.000    1.385    0.000    0.000 
#    0.000    7.385    0.000    0.000    0.000    0.000 
#
# Total GULP energy -644579.289966 kJ/mol
# GULP energy per Si atom -12395.755576 kJ/mol
# Density = 1.926361 g / cm^3
# Si number density = 19.307552 Si / 1000 Ang^3
#
#
#
# Elastic Constant Matrix: (Units=GPa)
#
#
# Indices 1 2 3 4 5 6 
#
# 1 134.5919 30.2873 27.5907 0.0000 0.0000 0.0000
# 2 30.2873 71.0495 18.9531 0.0000 0.0000 0.0000
# 3 27.5907 18.9531 58.8197 0.0000 0.0000 0.0000
# 4 0.0000 0.0000 0.0000 15.3193 0.0000 0.0000
# 5 0.0000 0.0000 0.0000 0.0000 18.0535 0.0000
# 6 0.0000 0.0000 0.0000 0.0000 0.0000 23.6730
#
#
#
# Elastic Compliance Matrix: (Units=1/GPa)
#
#
# Indices 1 2 3 4 5 6 
#
# 1 0.008726 -0.002875 -0.003167 0.000000 0.000000 0.000000
# 2 -0.002875 0.016346 -0.003918 0.000000 0.000000 0.000000
# 3 -0.003167 -0.003918 0.019749 0.000000 0.000000 0.000000
# 4 0.000000 0.000000 0.000000 0.065277 0.000000 0.000000
# 5 0.000000 0.000000 0.000000 0.000000 0.055391 0.000000
# 6 0.000000 0.000000 0.000000 0.000000 0.000000 0.042242
#
#
# Mechanical properties :
#
#
# Convention : Reuss Voigt Hill
#
# Bulk Modulus (GPa) = 40.15984 46.45814 43.30899
# Shear Modulus (GPa) = 21.19081 23.91781 22.55431
#
# Velocity S-wave (km/s) = 3.31651 3.52345 3.42154
# Velocity P-wave (km/s) = 5.95910 6.37709 6.17164
#
# Compressibility (1/GPa) = 0.02490050
#
# Stress axis : x y z
#
# Youngs Moduli (GPa) = 114.60006 61.17883 50.63521
#
# Poissons Ratio (x) = 0.17589 0.16035
# Poissons Ratio (y) = 0.32948 0.19841
# Poissons Ratio (z) = 0.36291 0.23972
#
# Static dielectric constant tensor:
#      x y z
#    x 3.861210 0.000000 0.000000 
#    y 0.000000 3.322260 0.000000 
#    z 0.000000 0.000000 3.322080 
# 
# 
# High freq. dielectric constant tensor:
#      x y z
#    x 1.766260 0.000000 0.000000 
#    y 0.000000 1.729100 0.000000 
#    z 0.000000 0.000000 1.729220 
# 
# From -- ./inp_files/65925.got.cif
#   From: 2010.03.12/outbox.cif.g09.slc.cpg/sg65_33_cif.got.tgz:65925.got - 2010.04.10 20:52:16.
