data_PCOD8271286
_publ_section_title
;
Structure prediction by ZEFSAII (Michael W. Deem and Ramdas Pophale) SiO2 
 PCOD8271286
Probable space group: C M M M
;
_chemical_formula_sum "Si O2"
_cell_formula_units_Z 96
_cell_length_a 29.828797
_cell_length_b 14.789439
_cell_length_c 11.257488
_cell_angle_alpha 90.000000
_cell_angle_beta 90.000000
_cell_angle_gamma 90.000000
_cell_volume 4966.254044
_symmetry_space_group_name_H-M "C M M M"
_symmetry_group_IT_number 65
_symmetry_cell_setting 'orthorhombic'
loop_
_space_group_symop_operation_xyz
x,y,z
-x,-y,z
x,-y,-z
-x,y,-z
-x,-y,-z
x,y,-z
-x,y,z
x,-y,z
1/2+x,1/2+y,z
1/2-x,1/2-y,z
1/2+x,1/2-y,-z
1/2-x,1/2+y,-z
1/2-x,1/2-y,-z
1/2+x,1/2+y,-z
1/2-x,1/2+y,z
1/2+x,1/2-y,z
loop_
_atom_site_type_symbol
_atom_site_label
_atom_site_fract_x
_atom_site_fract_y
_atom_site_fract_z
Si Si1 0.800199 0.777438 0.500000
Si Si2 0.385313 0.897261 0.759420
Si Si3 0.296345 0.394733 0.727743
Si Si4 0.140377 0.601490 0.500000
Si Si5 0.449634 0.754497 0.859039
Si Si6 0.791455 0.607533 0.134722
Si Si7 0.114083 0.900391 0.140164
O O1 0.750000 0.750000 0.500000
O O2 0.811351 0.837478 0.614220
O O3 0.824075 0.680952 0.500000
O O4 0.389965 0.889071 0.617168
O O5 0.426705 0.846655 0.818125
O O6 0.337382 0.857508 0.804089
O O7 0.389240 0.000000 0.802745
O O8 0.291250 0.500000 0.692039
O O9 0.250334 0.357191 0.786472
O O10 0.335286 0.378901 0.823066
O O11 0.163314 0.500000 0.500000
O O12 0.500000 0.749737 0.807858
O O13 0.421310 0.670647 0.805568
O O14 0.450431 0.751356 0.000000
O O15 0.789815 0.500000 0.132683
O O16 0.788580 0.645401 0.000000
O O17 0.099739 0.000000 0.185397
O O18 0.112752 0.895143 0.000000
#
# Coordination Sequence:
#
# PCOD8271286 Si02
#       7
#     8  16  16   8  16  16  16
#     4  12  23  33  50  74 105 145 186 221 260 310
#     4  10  20  36  57  79 105 138 177 220 268 319
#     4  10  20  34  53  80 112 142 176 218 262 310
#     4  10  22  39  57  75  99 136 180 226 268 310
#     4  10  21  36  55  81 111 140 173 216 264 315
#     4   9  17  30  51  79 111 146 178 209 252 310
#     4   9  18  34  56  80 108 142 177 215 260 311
#
# _framework density 19.330463999999999
#
# number of rings (size 3 to 8) (size 9 to 14) (size 15 to 20)
#    0.000    2.167    0.000    3.250    0.000    5.667 
#    0.000    2.917    0.000    6.500    0.000    0.000 
#    0.000    6.667    0.000    0.000    0.000    0.000 
#
# Total GULP energy -595149.160266 kJ/mol
# GULP energy per Si atom -12398.940839 kJ/mol
# Density = 1.928647 g / cm^3
# Si number density = 19.330464 Si / 1000 Ang^3
#
#
#
# Elastic Constant Matrix: (Units=GPa)
#
#
# Indices 1 2 3 4 5 6 
#
# 1 132.5869 49.2630 19.1660 0.0000 0.0000 0.0000
# 2 49.2630 82.7792 20.0280 0.0000 0.0000 0.0000
# 3 19.1660 20.0280 60.0580 0.0000 0.0000 0.0000
# 4 0.0000 0.0000 0.0000 21.7529 0.0000 0.0000
# 5 0.0000 0.0000 0.0000 0.0000 15.2318 0.0000
# 6 0.0000 0.0000 0.0000 0.0000 0.0000 29.8154
#
#
#
# Elastic Compliance Matrix: (Units=1/GPa)
#
#
# Indices 1 2 3 4 5 6 
#
# 1 0.009773 -0.005506 -0.001283 0.000000 0.000000 0.000000
# 2 -0.005506 0.016242 -0.003659 0.000000 0.000000 0.000000
# 3 -0.001283 -0.003659 0.018280 0.000000 0.000000 0.000000
# 4 0.000000 0.000000 0.000000 0.045971 0.000000 0.000000
# 5 0.000000 0.000000 0.000000 0.000000 0.065652 0.000000
# 6 0.000000 0.000000 0.000000 0.000000 0.000000 0.033540
#
#
# Mechanical properties :
#
#
# Convention : Reuss Voigt Hill
#
# Bulk Modulus (GPa) = 42.73551 50.25982 46.49766
# Shear Modulus (GPa) = 22.91950 25.82449 24.37199
#
# Velocity S-wave (km/s) = 3.44709 3.65903 3.55464
# Velocity P-wave (km/s) = 6.16434 6.62632 6.39950
#
# Compressibility (1/GPa) = 0.02339974
#
# Stress axis : x y z
#
# Youngs Moduli (GPa) = 102.31861 61.56754 54.70375
#
# Poissons Ratio (x) = 0.33898 0.07018
# Poissons Ratio (y) = 0.56336 0.20018
# Poissons Ratio (z) = 0.13126 0.22530
#
# Static dielectric constant tensor:
#      x y z
#    x 3.490060 0.000000 0.000000 
#    y 0.000000 3.573610 0.000000 
#    z 0.000000 0.000000 3.433840 
# 
# 
# High freq. dielectric constant tensor:
#      x y z
#    x 1.732440 0.000000 0.000000 
#    y 0.000000 1.760420 0.000000 
#    z 0.000000 0.000000 1.744180 
# 
# From -- ./inp_files/33888.got.cif
#   From: 2010.03.12/outbox.cif.g09.slc.cpg/sg65_17_cif.got.tgz:33888.got - 2010.04.10 20:52:16.
