data_PCOD8271692
_publ_section_title
;
Structure prediction by ZEFSAII (Michael W. Deem and Ramdas Pophale) SiO2 
 PCOD8271692
Probable space group: C M M M
;
_chemical_formula_sum "Si O2"
_cell_formula_units_Z 88
_cell_length_a 8.995387
_cell_length_b 30.344576
_cell_length_c 17.373479
_cell_angle_alpha 90.000000
_cell_angle_beta 90.000000
_cell_angle_gamma 90.000000
_cell_volume 4742.285754
_symmetry_space_group_name_H-M "C M M M"
_symmetry_group_IT_number 65
_symmetry_cell_setting 'orthorhombic'
loop_
_space_group_symop_operation_xyz
x,y,z
-x,-y,z
x,-y,-z
-x,y,-z
-x,-y,-z
x,y,-z
-x,y,z
x,-y,z
1/2+x,1/2+y,z
1/2-x,1/2-y,z
1/2+x,1/2-y,-z
1/2-x,1/2+y,-z
1/2-x,1/2-y,-z
1/2+x,1/2+y,-z
1/2-x,1/2+y,z
1/2+x,1/2-y,z
loop_
_atom_site_type_symbol
_atom_site_label
_atom_site_fract_x
_atom_site_fract_y
_atom_site_fract_z
Si Si1 0.176289 0.136559 0.119029
Si Si2 0.679447 0.201269 0.000000
Si Si3 0.167456 0.548607 0.882840
Si Si4 0.674192 0.632874 0.703925
Si Si5 0.666539 0.952336 0.700360
Si Si6 0.325144 0.295442 0.586720
O O1 0.262866 0.175170 0.074964
O O2 0.226410 0.088212 0.087644
O O3 0.223432 0.141826 0.208298
O O4 0.000000 0.141406 0.105992
O O5 0.750000 0.250000 0.000000
O O6 0.500000 0.204183 0.000000
O O7 0.220389 0.500000 0.913186
O O8 0.169688 0.547576 0.791753
O O9 0.000000 0.557867 0.912478
O O10 0.500000 0.631754 0.698188
O O11 0.729746 0.586440 0.669893
O O12 0.740388 0.669870 0.647731
O O13 0.500000 0.944060 0.670486
O O14 0.724193 0.000000 0.670256
O O15 0.283534 0.310320 0.500000
O O16 0.500000 0.289643 0.596004
O O17 0.250000 0.250000 0.608560
#
# Coordination Sequence:
#
# PCOD8271692 Si02
#       6
#    16   8  16  16  16  16
#     4  10  20  35  54  78 106 132 166 209 252 298
#     4  12  26  44  61  74  95 130 170 209 255 303
#     4   8  14  27  48  74 104 136 168 202 245 296
#     4   9  18  31  50  77 104 131 165 205 246 291
#     4   8  14  25  43  69 100 133 168 204 242 287
#     4   9  18  33  51  72 100 131 163 201 247 298
#
# _framework density 18.556453999999999
#
# number of rings (size 3 to 8) (size 9 to 14) (size 15 to 20)
#    0.000    2.909    0.000    2.455    0.000    2.909 
#    0.000    5.909    0.000    3.273    0.000    3.818 
#    0.000    0.000    0.000    0.000    0.000    0.000 
#
# Total GULP energy -545254.298681 kJ/mol
# GULP energy per Si atom -12392.143152 kJ/mol
# Density = 1.851422 g / cm^3
# Si number density = 18.556454 Si / 1000 Ang^3
#
#
#
# Elastic Constant Matrix: (Units=GPa)
#
#
# Indices 1 2 3 4 5 6 
#
# 1 58.6693 59.8939 30.5326 0.0000 0.0000 0.0000
# 2 59.8939 182.0981 73.1957 0.0000 0.0000 0.0000
# 3 30.5326 73.1957 76.5621 0.0000 0.0000 0.0000
# 4 0.0000 0.0000 0.0000 -21.6813 0.0000 0.0000
# 5 0.0000 0.0000 0.0000 0.0000 15.6780 0.0000
# 6 0.0000 0.0000 0.0000 0.0000 0.0000 39.0333
#
#
#
# Elastic Compliance Matrix: (Units=1/GPa)
#
#
# Indices 1 2 3 4 5 6 
#
# 1 0.026257 -0.007190 -0.003597 0.000000 0.000000 0.000000
# 2 -0.007190 0.010888 -0.007542 0.000000 0.000000 0.000000
# 3 -0.003597 -0.007542 0.021706 0.000000 0.000000 0.000000
# 4 0.000000 0.000000 0.000000 -0.046123 0.000000 0.000000
# 5 0.000000 0.000000 0.000000 0.000000 0.063784 0.000000
# 6 0.000000 0.000000 0.000000 0.000000 0.000000 0.025619
#
#
# Mechanical properties :
#
#
# Convention : Reuss Voigt Hill
#
# Bulk Modulus (GPa) = 45.05979 71.61934 58.33957
# Shear Modulus (GPa) = 34.20275 16.85315 25.52795
#
# Velocity S-wave (km/s) = 4.29788 3.01692 3.71305
# Velocity P-wave (km/s) = 6.99745 7.12846 7.06326
#
# Compressibility (1/GPa) = 0.02219273
#
# Stress axis : x y z
#
# Youngs Moduli (GPa) = 38.08494 91.84410 46.07038
#
# Poissons Ratio (x) = 0.66040 0.16571
# Poissons Ratio (y) = 0.27385 0.34745
# Poissons Ratio (z) = 0.13699 0.69267
#
# Static dielectric constant tensor:
#      x y z
#    x 3.405020 0.000000 0.000000 
#    y 0.000000 3.922220 0.000000 
#    z 0.000000 0.000000 3.347310 
# 
# 
# High freq. dielectric constant tensor:
#      x y z
#    x 1.711660 0.000000 0.000000 
#    y 0.000000 1.731350 0.000000 
#    z 0.000000 0.000000 1.692610 
# 
# From -- ./inp_files/50326.got.cif
#   From: 2010.03.12/outbox.cif.g09.slc.cpg/sg65_26_cif.got.tgz:50326.got - 2010.04.10 20:52:16.
