data_PCOD8271893
_publ_section_title
;
Structure prediction by ZEFSAII (Michael W. Deem and Ramdas Pophale) SiO2 
 PCOD8271893
Probable space group: C M M M
;
_chemical_formula_sum "Si O2"
_cell_formula_units_Z 72
_cell_length_a 15.656880
_cell_length_b 9.845683
_cell_length_c 24.805447
_cell_angle_alpha 90.000000
_cell_angle_beta 90.000000
_cell_angle_gamma 90.000000
_cell_volume 3823.826065
_symmetry_space_group_name_H-M "C M M M"
_symmetry_group_IT_number 65
_symmetry_cell_setting 'orthorhombic'
loop_
_space_group_symop_operation_xyz
x,y,z
-x,-y,z
x,-y,-z
-x,y,-z
-x,-y,-z
x,y,-z
-x,y,z
x,-y,z
1/2+x,1/2+y,z
1/2-x,1/2-y,z
1/2+x,1/2-y,-z
1/2-x,1/2+y,-z
1/2-x,1/2-y,-z
1/2+x,1/2+y,-z
1/2-x,1/2+y,z
1/2+x,1/2-y,z
loop_
_atom_site_type_symbol
_atom_site_label
_atom_site_fract_x
_atom_site_fract_y
_atom_site_fract_z
Si Si1 0.330658 0.659369 0.877576
Si Si2 0.669079 0.844073 0.558705
Si Si3 0.000000 0.838955 0.061005
Si Si4 0.598621 0.148928 0.670567
Si Si5 0.900631 0.845713 0.238722
O O1 0.312529 0.500000 0.889330
O O2 0.250000 0.750000 0.896107
O O3 0.413876 0.712615 0.909866
O O4 0.347011 0.684886 0.814619
O O5 0.623945 0.820799 0.500000
O O6 0.750000 0.750000 0.563551
O O7 0.608020 0.804129 0.608352
O O8 0.698636 0.000000 0.563528
O O9 0.000000 0.000000 0.063587
O O10 0.000000 0.784080 0.000000
O O11 0.500000 0.141258 0.683672
O O12 0.638911 0.254420 0.713034
O O13 0.640543 0.000000 0.679478
O O14 0.000000 0.815114 0.226544
O O15 0.889128 0.000000 0.257591
#
# Coordination Sequence:
#
# PCOD8271893 Si02
#       5
#    16  16   8  16  16
#     4  10  20  35  56  83 111 143 184 224 266 318
#     4   9  18  32  48  65  89 123 160 200 248 301
#     4   9  18  36  61  83 109 149 188 221 262 316
#     4   9  18  31  48  72  98 124 160 206 254 302
#     4   9  17  32  52  71  98 136 173 208 252 310
#
# _framework density 18.829308000000001
#
# number of rings (size 3 to 8) (size 9 to 14) (size 15 to 20)
#    0.000    2.778    1.111    0.000    0.000    3.556 
#    0.000    7.222    0.000    0.667    0.000    6.222 
#    0.000    0.000    0.000    0.000    0.000    0.000 
#
# Total GULP energy -446133.189709 kJ/mol
# GULP energy per Si atom -12392.588603 kJ/mol
# Density = 1.878645 g / cm^3
# Si number density = 18.829308 Si / 1000 Ang^3
#
#
#
# Elastic Constant Matrix: (Units=GPa)
#
#
# Indices 1 2 3 4 5 6 
#
# 1 82.8769 43.9631 47.6499 0.0000 0.0000 0.0000
# 2 43.9631 66.5143 55.5171 0.0000 0.0000 0.0000
# 3 47.6499 55.5171 129.5848 0.0000 0.0000 0.0000
# 4 0.0000 0.0000 0.0000 21.6318 0.0000 0.0000
# 5 0.0000 0.0000 0.0000 0.0000 18.4537 0.0000
# 6 0.0000 0.0000 0.0000 0.0000 0.0000 26.2652
#
#
#
# Elastic Compliance Matrix: (Units=1/GPa)
#
#
# Indices 1 2 3 4 5 6 
#
# 1 0.019092 -0.010522 -0.002513 0.000000 0.000000 0.000000
# 2 -0.010522 0.029202 -0.008642 0.000000 0.000000 0.000000
# 3 -0.002513 -0.008642 0.012343 0.000000 0.000000 0.000000
# 4 0.000000 0.000000 0.000000 0.046228 0.000000 0.000000
# 5 0.000000 0.000000 0.000000 0.000000 0.054190 0.000000
# 6 0.000000 0.000000 0.000000 0.000000 0.000000 0.038073
#
#
# Mechanical properties :
#
#
# Convention : Reuss Voigt Hill
#
# Bulk Modulus (GPa) = 57.85453 63.69291 60.77372
# Shear Modulus (GPa) = 20.14159 22.05985 21.10072
#
# Velocity S-wave (km/s) = 3.27417 3.42653 3.35122
# Velocity P-wave (km/s) = 6.71461 7.03951 6.87898
#
# Compressibility (1/GPa) = 0.01728473
#
# Stress axis : x y z
#
# Youngs Moduli (GPa) = 52.37734 34.24443 81.01668
#
# Poissons Ratio (x) = 0.36032 0.20356
# Poissons Ratio (y) = 0.55111 0.70012
# Poissons Ratio (z) = 0.13160 0.29593
#
# Static dielectric constant tensor:
#      x y z
#    x 3.212750 0.000000 0.000000 
#    y 0.000000 3.496330 0.000000 
#    z 0.000000 0.000000 3.714590 
# 
# 
# High freq. dielectric constant tensor:
#      x y z
#    x 1.708720 0.000000 0.000000 
#    y 0.000000 1.715940 0.000000 
#    z 0.000000 0.000000 1.741510 
# 
# From -- ./inp_files/67000.got.cif
#   From: 2010.03.12/outbox.cif.g09.slc.cpg/sg65_34_cif.got.tgz:67000.got - 2010.04.10 20:52:16.
