data_PCOD8271562
_publ_section_title
;
Structure prediction by ZEFSAII (Michael W. Deem and Ramdas Pophale) SiO2 
 PCOD8271562
Probable space group: C M M M
;
_chemical_formula_sum "Si O2"
_cell_formula_units_Z 104
_cell_length_a 26.736907
_cell_length_b 8.850689
_cell_length_c 22.813050
_cell_angle_alpha 90.000000
_cell_angle_beta 90.000000
_cell_angle_gamma 90.000000
_cell_volume 5398.481263
_symmetry_space_group_name_H-M "C M M M"
_symmetry_group_IT_number 65
_symmetry_cell_setting 'orthorhombic'
loop_
_space_group_symop_operation_xyz
x,y,z
-x,-y,z
x,-y,-z
-x,y,-z
-x,-y,-z
x,y,-z
-x,y,z
x,-y,z
1/2+x,1/2+y,z
1/2-x,1/2-y,z
1/2+x,1/2-y,-z
1/2-x,1/2+y,-z
1/2-x,1/2-y,-z
1/2+x,1/2+y,-z
1/2-x,1/2+y,z
1/2+x,1/2-y,z
loop_
_atom_site_type_symbol
_atom_site_label
_atom_site_fract_x
_atom_site_fract_y
_atom_site_fract_z
Si Si1 0.886841 0.673075 0.239744
Si Si2 0.601579 0.823215 0.373700
Si Si3 0.500000 0.179418 0.433394
Si Si4 0.801982 0.822586 0.567899
Si Si5 0.446194 0.175749 0.127948
Si Si6 0.300038 0.677126 0.174133
Si Si7 0.348620 0.820446 0.066347
O O1 0.868211 0.500000 0.233861
O O2 0.904383 0.710344 0.304994
O O3 0.933066 0.702981 0.196174
O O4 0.842358 0.783062 0.221045
O O5 0.550770 0.758678 0.403170
O O6 0.650665 0.740437 0.397193
O O7 0.607920 0.000000 0.387261
O O8 0.500000 0.236770 0.500000
O O9 0.500000 0.000000 0.428872
O O10 0.809870 0.781068 0.500000
O O11 0.750000 0.750000 0.590936
O O12 0.798327 0.000000 0.578485
O O13 0.500000 0.253858 0.115230
O O14 0.403519 0.241592 0.085110
O O15 0.450830 0.000000 0.114654
O O16 0.294365 0.500000 0.168442
O O17 0.250000 0.750000 0.199788
O O18 0.308813 0.744871 0.109287
O O19 0.345615 0.000000 0.074238
O O20 0.337285 0.770468 0.000000
#
# Coordination Sequence:
#
# PCOD8271562 Si02
#       7
#    16  16   8  16  16  16  16
#     4   9  19  34  52  78 108 138 177 220 264 313
#     4  10  20  34  56  84 115 149 186 229 276 329
#     4   9  18  32  53  85 121 153 186 227 276 329
#     4  10  21  37  57  80 107 141 182 228 279 333
#     4   8  14  26  48  76 105 136 170 214 260 303
#     4  11  22  37  57  77 103 139 178 221 272 324
#     4   9  18  33  52  78 111 141 175 219 264 316
#
# _framework density 19.264676999999999
#
# number of rings (size 3 to 8) (size 9 to 14) (size 15 to 20)
#    0.000    2.538    0.000    3.231    1.077    3.692 
#    0.000    1.923    0.000    8.769    0.000    4.308 
#    0.000    0.000    0.000    0.000    0.000    0.000 
#
# Total GULP energy -644675.130127 kJ/mol
# GULP energy per Si atom -12397.598656 kJ/mol
# Density = 1.922083 g / cm^3
# Si number density = 19.264677 Si / 1000 Ang^3
#
#
#
# Elastic Constant Matrix: (Units=GPa)
#
#
# Indices 1 2 3 4 5 6 
#
# 1 105.6132 28.0973 20.6075 0.0000 0.0000 0.0000
# 2 28.0973 59.8831 25.2305 0.0000 0.0000 0.0000
# 3 20.6075 25.2305 93.2521 0.0000 0.0000 0.0000
# 4 0.0000 0.0000 0.0000 22.0705 0.0000 0.0000
# 5 0.0000 0.0000 0.0000 0.0000 7.7529 0.0000
# 6 0.0000 0.0000 0.0000 0.0000 0.0000 23.2341
#
#
#
# Elastic Compliance Matrix: (Units=1/GPa)
#
#
# Indices 1 2 3 4 5 6 
#
# 1 0.010929 -0.004639 -0.001160 0.000000 0.000000 0.000000
# 2 -0.004639 0.020817 -0.004607 0.000000 0.000000 0.000000
# 3 -0.001160 -0.004607 0.012226 0.000000 0.000000 0.000000
# 4 0.000000 0.000000 0.000000 0.045309 0.000000 0.000000
# 5 0.000000 0.000000 0.000000 0.000000 0.128984 0.000000
# 6 0.000000 0.000000 0.000000 0.000000 0.000000 0.043040
#
#
# Mechanical properties :
#
#
# Convention : Reuss Voigt Hill
#
# Bulk Modulus (GPa) = 43.17793 45.17989 44.17891
# Shear Modulus (GPa) = 17.25099 22.93238 20.09169
#
# Velocity S-wave (km/s) = 2.99569 3.45394 3.23294
# Velocity P-wave (km/s) = 5.86747 6.27769 6.07604
#
# Compressibility (1/GPa) = 0.02315998
#
# Stress axis : x y z
#
# Youngs Moduli (GPa) = 91.49907 48.03755 81.78970
#
# Poissons Ratio (x) = 0.22286 0.09487
# Poissons Ratio (y) = 0.42448 0.37681
# Poissons Ratio (z) = 0.10614 0.22131
#
# Static dielectric constant tensor:
#      x y z
#    x 3.806140 0.000000 0.000000 
#    y 0.000000 3.189580 0.000000 
#    z 0.000000 0.000000 3.555590 
# 
# 
# High freq. dielectric constant tensor:
#      x y z
#    x 1.760210 0.000000 0.000000 
#    y 0.000000 1.715740 0.000000 
#    z 0.000000 0.000000 1.749350 
# 
# From -- ./inp_files/71866.got.cif
#   From: 2010.03.12/outbox.cif.g09.slc.cpg/sg65_36_cif.got.tgz:71866.got - 2010.04.10 20:52:16.
