data_PCOD8271041
_publ_section_title
;
Structure prediction by ZEFSAII (Michael W. Deem and Ramdas Pophale) SiO2 
 PCOD8271041
Probable space group: C M M M
;
_chemical_formula_sum "Si O2"
_cell_formula_units_Z 80
_cell_length_a 9.028638
_cell_length_b 18.942335
_cell_length_c 25.724404
_cell_angle_alpha 90.000000
_cell_angle_beta 90.000000
_cell_angle_gamma 90.000000
_cell_volume 4399.477237
_symmetry_space_group_name_H-M "C M M M"
_symmetry_group_IT_number 65
_symmetry_cell_setting 'orthorhombic'
loop_
_space_group_symop_operation_xyz
x,y,z
-x,-y,z
x,-y,-z
-x,y,-z
-x,-y,-z
x,y,-z
-x,y,z
x,-y,z
1/2+x,1/2+y,z
1/2-x,1/2-y,z
1/2+x,1/2-y,-z
1/2-x,1/2+y,-z
1/2-x,1/2-y,-z
1/2+x,1/2+y,-z
1/2-x,1/2+y,z
1/2+x,1/2-y,z
loop_
_atom_site_type_symbol
_atom_site_label
_atom_site_fract_x
_atom_site_fract_y
_atom_site_fract_z
Si Si1 0.822525 0.921501 0.388961
Si Si2 0.673822 0.918094 0.098993
Si Si3 0.173988 0.326156 0.000000
Si Si4 0.325693 0.323766 0.181003
Si Si5 0.826553 0.821556 0.299388
Si Si6 0.163325 0.915672 0.500000
O O1 0.762079 0.877905 0.340064
O O2 0.759705 0.892463 0.445141
O O3 0.000000 0.920777 0.391149
O O4 0.762857 0.000000 0.379618
O O5 0.500000 0.910241 0.109660
O O6 0.762809 0.888726 0.148156
O O7 0.716012 0.000000 0.089657
O O8 0.723352 0.871933 0.049577
O O9 0.250000 0.250000 0.000000
O O10 0.000000 0.312870 0.000000
O O11 0.500000 0.315603 0.171503
O O12 0.250000 0.250000 0.164360
O O13 0.287130 0.343256 0.240488
O O14 0.750000 0.750000 0.315340
O O15 0.000000 0.811738 0.305923
O O16 0.000000 0.882191 0.500000
O O17 0.151873 0.000000 0.500000
#
# Coordination Sequence:
#
# PCOD8271041 Si02
#       6
#    16  16   8  16  16   8
#     4   8  13  23  41  64  88 116 153 195 236 277
#     4  10  21  37  56  78 105 134 163 200 245 289
#     4  10  21  37  57  79 103 134 169 200 236 286
#     4  10  20  34  52  73  98 131 169 205 243 291
#     4   9  18  31  47  67  94 126 156 192 237 284
#     4   7  10  18  35  60  87 113 146 191 236 276
#
# _framework density 18.183979000000001
#
# number of rings (size 3 to 8) (size 9 to 14) (size 15 to 20)
#    0.000    2.900    0.000    2.700    0.000    5.600 
#    0.000    2.500    0.000    2.400    0.000    0.000 
#    0.000    2.400    0.000    0.000    0.000    0.000 
#
# Total GULP energy -495696.571446 kJ/mol
# GULP energy per Si atom -12392.414286 kJ/mol
# Density = 1.814259 g / cm^3
# Si number density = 18.183979 Si / 1000 Ang^3
#
#
#
# Elastic Constant Matrix: (Units=GPa)
#
#
# Indices 1 2 3 4 5 6 
#
# 1 29.7642 36.9385 34.7085 0.0000 0.0000 0.0000
# 2 36.9385 133.5525 93.3010 0.0000 0.0000 0.0000
# 3 34.7085 93.3010 148.1186 0.0000 0.0000 0.0000
# 4 0.0000 0.0000 0.0000 380.8280 0.0000 0.0000
# 5 0.0000 0.0000 0.0000 0.0000 13.1302 0.0000
# 6 0.0000 0.0000 0.0000 0.0000 0.0000 25.4018
#
#
#
# Elastic Compliance Matrix: (Units=1/GPa)
#
#
# Indices 1 2 3 4 5 6 
#
# 1 0.053787 -0.010843 -0.005774 0.000000 0.000000 0.000000
# 2 -0.010843 0.015558 -0.007259 0.000000 0.000000 0.000000
# 3 -0.005774 -0.007259 0.012677 0.000000 0.000000 0.000000
# 4 0.000000 0.000000 0.000000 0.002626 0.000000 0.000000
# 5 0.000000 0.000000 0.000000 0.000000 0.076160 0.000000
# 6 0.000000 0.000000 0.000000 0.000000 0.000000 0.039367
#
#
# Mechanical properties :
#
#
# Convention : Reuss Voigt Hill
#
# Bulk Modulus (GPa) = 29.18025 71.25904 50.21965
# Shear Modulus (GPa) = 19.27890 93.63781 56.45835
#
# Velocity S-wave (km/s) = 3.25962 7.18376 5.57815
# Velocity P-wave (km/s) = 5.49990 10.39623 8.31656
#
# Compressibility (1/GPa) = 0.03426975
#
# Stress axis : x y z
#
# Youngs Moduli (GPa) = 18.59195 64.27497 78.88275
#
# Poissons Ratio (x) = 0.69693 0.45545
# Poissons Ratio (y) = 0.20159 0.57264
# Poissons Ratio (z) = 0.10735 0.46660
#
# Static dielectric constant tensor:
#      x y z
#    x 3.003220 0.000000 0.000000 
#    y 0.000000 3.492460 0.000000 
#    z 0.000000 0.000000 3.789860 
# 
# 
# High freq. dielectric constant tensor:
#      x y z
#    x 1.666910 0.000000 0.000000 
#    y 0.000000 1.692150 0.000000 
#    z 0.000000 0.000000 1.726690 
# 
# From -- ./inp_files/72914.got.cif
#   From: 2010.03.12/outbox.cif.g09.slc.cpg/sg65_37_cif.got.tgz:72914.got - 2010.04.10 20:52:16.
