data_PCOD8271615
_publ_section_title
;
Structure prediction by ZEFSAII (Michael W. Deem and Ramdas Pophale) SiO2 
 PCOD8271615
Probable space group: C M M M
;
_chemical_formula_sum "Si O2"
_cell_formula_units_Z 88
_cell_length_a 27.512349
_cell_length_b 8.001538
_cell_length_c 23.073633
_cell_angle_alpha 90.000000
_cell_angle_beta 90.000000
_cell_angle_gamma 90.000000
_cell_volume 5079.455088
_symmetry_space_group_name_H-M "C M M M"
_symmetry_group_IT_number 65
_symmetry_cell_setting 'orthorhombic'
loop_
_space_group_symop_operation_xyz
x,y,z
-x,-y,z
x,-y,-z
-x,y,-z
-x,-y,-z
x,y,-z
-x,y,z
x,-y,z
1/2+x,1/2+y,z
1/2-x,1/2-y,z
1/2+x,1/2-y,-z
1/2-x,1/2+y,-z
1/2-x,1/2-y,-z
1/2+x,1/2+y,-z
1/2-x,1/2+y,z
1/2+x,1/2-y,z
loop_
_atom_site_type_symbol
_atom_site_label
_atom_site_fract_x
_atom_site_fract_y
_atom_site_fract_z
Si Si1 0.057535 0.000000 0.564646
Si Si2 0.102212 0.697756 0.236212
Si Si3 0.057350 0.306495 0.643900
Si Si4 0.803362 0.309239 0.177753
Si Si5 0.649459 0.692650 0.935556
Si Si6 0.445753 0.802615 0.120091
O O1 0.074410 0.173456 0.595214
O O2 0.079896 0.000000 0.500000
O O3 0.000000 0.000000 0.561911
O O4 0.104876 0.500000 0.238282
O O5 0.084270 0.760386 0.298463
O O6 0.155144 0.775700 0.218598
O O7 0.064256 0.752480 0.186456
O O8 0.071356 0.500000 0.627448
O O9 0.000000 0.296302 0.654948
O O10 0.804953 0.500000 0.193075
O O11 0.750000 0.250000 0.194001
O O12 0.816051 0.286012 0.110084
O O13 0.663174 0.500000 0.931916
O O14 0.592355 0.715561 0.922554
O O15 0.660250 0.762734 0.000000
O O16 0.500000 0.745164 0.103025
O O17 0.439233 0.000000 0.113416
#
# Coordination Sequence:
#
# PCOD8271615 Si02
#       6
#     8  16  16  16  16  16
#     4   9  18  30  42  66 104 138 173 207 229 265
#     4   8  15  29  48  68  92 121 151 190 232 284
#     4   9  16  28  47  69  97 135 170 200 236 276
#     4  10  20  35  53  71  92 117 145 188 245 294
#     4  10  21  35  48  64  88 118 155 194 233 282
#     4   9  17  30  48  68  91 120 153 191 238 285
#
# _framework density 17.324694000000001
#
# number of rings (size 3 to 8) (size 9 to 14) (size 15 to 20)
#    0.000    2.818    0.000    2.727    0.000    5.091 
#    8.182    3.636    0.000    0.000    0.000    0.000 
#    0.000    0.727    0.364    0.000    0.000    0.000 
#
# Total GULP energy -545225.346225 kJ/mol
# GULP energy per Si atom -12391.485141 kJ/mol
# Density = 1.728526 g / cm^3
# Si number density = 17.324694 Si / 1000 Ang^3
#
#
#
# Elastic Constant Matrix: (Units=GPa)
#
#
# Indices 1 2 3 4 5 6 
#
# 1 66.0148 11.7715 20.3079 0.0000 0.0000 0.0000
# 2 11.7715 54.1985 31.1806 0.0000 0.0000 0.0000
# 3 20.3079 31.1806 103.3874 0.0000 0.0000 0.0000
# 4 0.0000 0.0000 0.0000 23.6082 0.0000 0.0000
# 5 0.0000 0.0000 0.0000 0.0000 15.3490 0.0000
# 6 0.0000 0.0000 0.0000 0.0000 0.0000 21.5640
#
#
#
# Elastic Compliance Matrix: (Units=1/GPa)
#
#
# Indices 1 2 3 4 5 6 
#
# 1 0.016310 -0.002056 -0.002584 0.000000 0.000000 0.000000
# 2 -0.002056 0.022583 -0.006407 0.000000 0.000000 0.000000
# 3 -0.002584 -0.006407 0.012112 0.000000 0.000000 0.000000
# 4 0.000000 0.000000 0.000000 0.042358 0.000000 0.000000
# 5 0.000000 0.000000 0.000000 0.000000 0.065151 0.000000
# 6 0.000000 0.000000 0.000000 0.000000 0.000000 0.046374
#
#
# Mechanical properties :
#
#
# Convention : Reuss Voigt Hill
#
# Bulk Modulus (GPa) = 34.58802 38.90231 36.74516
# Shear Modulus (GPa) = 21.13114 22.79363 21.96239
#
# Velocity S-wave (km/s) = 3.49623 3.63116 3.56433
# Velocity P-wave (km/s) = 6.02545 6.33119 6.18021
#
# Compressibility (1/GPa) = 0.02891175
#
# Stress axis : x y z
#
# Youngs Moduli (GPa) = 61.31395 44.28068 82.56197
#
# Poissons Ratio (x) = 0.09104 0.21330
# Poissons Ratio (y) = 0.12606 0.52898
# Poissons Ratio (z) = 0.15841 0.28371
#
# Static dielectric constant tensor:
#      x y z
#    x 2.623930 0.000000 0.000000 
#    y 0.000000 3.178010 0.000000 
#    z 0.000000 0.000000 3.319380 
# 
# 
# High freq. dielectric constant tensor:
#      x y z
#    x 1.647790 0.000000 0.000000 
#    y 0.000000 1.665290 0.000000 
#    z 0.000000 0.000000 1.647340 
# 
# From -- ./inp_files/65743.got.cif
#   From: 2010.03.12/outbox.cif.g09.slc.cpg/sg65_33_cif.got.tgz:65743.got - 2010.04.10 20:52:16.
