data_PCOD8271427
_publ_section_title
;
Structure prediction by ZEFSAII (Michael W. Deem and Ramdas Pophale) SiO2 
 PCOD8271427
Probable space group: C M M M
;
_chemical_formula_sum "Si O2"
_cell_formula_units_Z 56
_cell_length_a 9.080515
_cell_length_b 33.313253
_cell_length_c 10.155215
_cell_angle_alpha 90.000000
_cell_angle_beta 90.000000
_cell_angle_gamma 90.000000
_cell_volume 3071.967705
_symmetry_space_group_name_H-M "C M M M"
_symmetry_group_IT_number 65
_symmetry_cell_setting 'orthorhombic'
loop_
_space_group_symop_operation_xyz
x,y,z
-x,-y,z
x,-y,-z
-x,y,-z
-x,-y,-z
x,y,-z
-x,y,z
x,-y,z
1/2+x,1/2+y,z
1/2-x,1/2-y,z
1/2+x,1/2-y,-z
1/2-x,1/2+y,-z
1/2-x,1/2-y,-z
1/2+x,1/2+y,-z
1/2-x,1/2+y,z
1/2+x,1/2-y,z
loop_
_atom_site_type_symbol
_atom_site_label
_atom_site_fract_x
_atom_site_fract_y
_atom_site_fract_z
Si Si1 0.329048 0.791693 0.000000
Si Si2 0.170987 0.578312 0.150330
Si Si3 0.675453 0.293559 0.500000
Si Si4 0.171628 0.337095 0.737066
Si Si5 0.165901 0.000000 0.843428
O O1 0.250000 0.750000 0.000000
O O2 0.282469 0.816368 0.127484
O O3 0.500000 0.782889 0.000000
O O4 0.204930 0.615743 0.245605
O O5 0.256240 0.540138 0.210080
O O6 0.000000 0.567665 0.151691
O O7 0.220134 0.588197 0.000000
O O8 0.500000 0.288161 0.500000
O O9 0.750000 0.250000 0.500000
O O10 0.724870 0.318749 0.373799
O O11 0.000000 0.329748 0.702165
O O12 0.000000 0.000000 0.791432
O O13 0.176514 0.000000 0.000000
#
# Coordination Sequence:
#
# PCOD8271427 Si02
#       5
#     8  16   8  16   8
#     4  10  20  34  54  81 108 135 173 222 277 328
#     4   9  16  30  53  80 109 143 181 221 268 324
#     4  12  26  42  58  79 108 147 190 228 273 330
#     4  10  20  37  59  82 110 142 181 229 276 327
#     4   9  17  27  43  74 115 150 179 218 264 316
#
# _framework density 18.229357
#
# number of rings (size 3 to 8) (size 9 to 14) (size 15 to 20)
#    0.000    2.143    1.429    2.571    0.000    6.286 
#    0.000    0.000    0.000    0.857    0.000    6.000 
#    0.000    0.000    0.000    0.000    0.000    0.000 
#
# Total GULP energy -347199.968516 kJ/mol
# GULP energy per Si atom -12399.998876 kJ/mol
# Density = 1.818787 g / cm^3
# Si number density = 18.229357 Si / 1000 Ang^3
#
#
#
# Elastic Constant Matrix: (Units=GPa)
#
#
# Indices 1 2 3 4 5 6 
#
# 1 99.7114 79.7671 55.2477 0.0000 0.0000 0.0000
# 2 79.7671 163.7198 55.9207 0.0000 0.0000 0.0000
# 3 55.2477 55.9207 96.2086 0.0000 0.0000 0.0000
# 4 0.0000 0.0000 0.0000 22.1342 0.0000 0.0000
# 5 0.0000 0.0000 0.0000 0.0000 15.8705 0.0000
# 6 0.0000 0.0000 0.0000 0.0000 0.0000 34.4336
#
#
#
# Elastic Compliance Matrix: (Units=1/GPa)
#
#
# Indices 1 2 3 4 5 6 
#
# 1 0.019732 -0.007166 -0.007166 0.000000 0.000000 0.000000
# 2 -0.007166 0.010224 -0.001827 0.000000 0.000000 0.000000
# 3 -0.007166 -0.001827 0.015571 0.000000 0.000000 0.000000
# 4 0.000000 0.000000 0.000000 0.045179 0.000000 0.000000
# 5 0.000000 0.000000 0.000000 0.000000 0.063010 0.000000
# 6 0.000000 0.000000 0.000000 0.000000 0.000000 0.029041
#
#
# Mechanical properties :
#
#
# Convention : Reuss Voigt Hill
#
# Bulk Modulus (GPa) = 75.70992 82.39011 79.05002
# Shear Modulus (GPa) = 22.78123 25.73461 24.25792
#
# Velocity S-wave (km/s) = 3.53894 3.76135 3.65184
# Velocity P-wave (km/s) = 7.63681 8.00988 7.82557
#
# Compressibility (1/GPa) = 0.01320831
#
# Stress axis : x y z
#
# Youngs Moduli (GPa) = 50.67840 97.81251 64.22140
#
# Poissons Ratio (x) = 0.70095 0.46020
# Poissons Ratio (y) = 0.36318 0.11734
# Poissons Ratio (z) = 0.36316 0.17872
#
# Static dielectric constant tensor:
#      x y z
#    x 3.311590 0.000000 0.000000 
#    y 0.000000 3.530550 0.000000 
#    z 0.000000 0.000000 3.146980 
# 
# 
# High freq. dielectric constant tensor:
#      x y z
#    x 1.700370 0.000000 0.000000 
#    y 0.000000 1.724620 0.000000 
#    z 0.000000 0.000000 1.676050 
# 
# From -- ./inp_files/20826.got.cif
#   From: 2010.03.12/outbox.cif.g09.slc.cpg/sg65_11_cif.got.tgz:20826.got - 2010.04.10 20:52:16.
