data_PCOD8271115
_publ_section_title
;
Structure prediction by ZEFSAII (Michael W. Deem and Ramdas Pophale) SiO2 
 PCOD8271115
Probable space group: C M M M
;
_chemical_formula_sum "Si O2"
_cell_formula_units_Z 64
_cell_length_a 8.863982
_cell_length_b 18.010110
_cell_length_c 20.772277
_cell_angle_alpha 90.000000
_cell_angle_beta 90.000000
_cell_angle_gamma 90.000000
_cell_volume 3316.113114
_symmetry_space_group_name_H-M "C M M M"
_symmetry_group_IT_number 65
_symmetry_cell_setting 'orthorhombic'
loop_
_space_group_symop_operation_xyz
x,y,z
-x,-y,z
x,-y,-z
-x,y,-z
-x,-y,-z
x,y,-z
-x,y,z
x,-y,z
1/2+x,1/2+y,z
1/2-x,1/2-y,z
1/2+x,1/2-y,-z
1/2-x,1/2+y,-z
1/2-x,1/2-y,-z
1/2+x,1/2+y,-z
1/2-x,1/2+y,z
1/2+x,1/2-y,z
loop_
_atom_site_type_symbol
_atom_site_label
_atom_site_fract_x
_atom_site_fract_y
_atom_site_fract_z
Si Si1 0.670375 0.588622 0.500000
Si Si2 0.169827 0.411669 0.372024
Si Si3 0.678524 0.830361 0.125457
Si Si4 0.673010 0.587804 0.242349
Si Si5 0.679346 0.083393 0.000000
O O1 0.671953 0.500000 0.500000
O O2 0.500000 0.618676 0.500000
O O3 0.754487 0.619893 0.436897
O O4 0.168406 0.500000 0.374357
O O5 0.266621 0.384013 0.311212
O O6 0.000000 0.380578 0.366592
O O7 0.500000 0.822623 0.124238
O O8 0.750000 0.750000 0.125774
O O9 0.726040 0.875094 0.188181
O O10 0.739242 0.874144 0.062994
O O11 0.500000 0.612829 0.235134
O O12 0.690929 0.500000 0.235862
O O13 0.500000 0.080489 0.000000
O O14 0.745946 0.000000 0.000000
#
# Coordination Sequence:
#
# PCOD8271115 Si02
#       5
#     8  16  16  16   8
#     4   9  15  23  37  61  96 135 172 215 268 319
#     4   9  16  26  42  66  97 134 175 218 266 320
#     4  11  22  37  57  80 109 143 179 219 264 316
#     4  10  20  34  52  76 106 139 178 224 272 322
#     4   9  19  36  59  85 110 139 176 217 262 314
#
# _framework density 19.299703999999998
#
# number of rings (size 3 to 8) (size 9 to 14) (size 15 to 20)
#    0.000    2.250    0.000    3.750    0.000    7.000 
#    0.000    1.875    0.000    4.500    0.000    0.875 
#    0.000    0.000    0.000    0.000    0.000    0.000 
#
# Total GULP energy -396858.724754 kJ/mol
# GULP energy per Si atom -12401.835149 kJ/mol
# Density = 1.925578 g / cm^3
# Si number density = 19.299704 Si / 1000 Ang^3
#
#
#
# Elastic Constant Matrix: (Units=GPa)
#
#
# Indices 1 2 3 4 5 6 
#
# 1 105.2899 28.8392 48.6954 0.0000 0.0000 0.0000
# 2 28.8392 31.4751 39.7990 0.0000 0.0000 0.0000
# 3 48.6954 39.7990 175.1015 0.0000 0.0000 0.0000
# 4 0.0000 0.0000 0.0000 -1.7378 0.0000 0.0000
# 5 0.0000 0.0000 0.0000 0.0000 26.8425 0.0000
# 6 0.0000 0.0000 0.0000 0.0000 0.0000 13.4689
#
#
#
# Elastic Compliance Matrix: (Units=1/GPa)
#
#
# Indices 1 2 3 4 5 6 
#
# 1 0.012875 -0.010202 -0.001262 0.000000 0.000000 0.000000
# 2 -0.010202 0.052668 -0.009134 0.000000 0.000000 0.000000
# 3 -0.001262 -0.009134 0.008138 0.000000 0.000000 0.000000
# 4 0.000000 0.000000 0.000000 -0.575440 0.000000 0.000000
# 5 0.000000 0.000000 0.000000 0.000000 0.037254 0.000000
# 6 0.000000 0.000000 0.000000 0.000000 0.000000 0.074245
#
#
# Mechanical properties :
#
#
# Convention : Reuss Voigt Hill
#
# Bulk Modulus (GPa) = 30.78199 60.72598 45.75398
# Shear Modulus (GPa) = -14.78260 20.68356 2.95048
#
# Velocity S-wave (km/s) = -2.77058 3.27724 1.23778
# Velocity P-wave (km/s) = 2.39776 6.77152 5.07950
#
# Compressibility (1/GPa) = 0.03248653
#
# Stress axis : x y z
#
# Youngs Moduli (GPa) = 77.66717 18.98690 122.88083
#
# Poissons Ratio (x) = 0.19370 0.15507
# Poissons Ratio (y) = 0.79233 1.12238
# Poissons Ratio (z) = 0.09801 0.17342
#
# Static dielectric constant tensor:
#      x y z
#    x 3.591380 0.000000 0.000000 
#    y 0.000000 3.154380 0.000000 
#    z 0.000000 0.000000 3.830370 
# 
# 
# High freq. dielectric constant tensor:
#      x y z
#    x 1.755860 0.000000 0.000000 
#    y 0.000000 1.705820 0.000000 
#    z 0.000000 0.000000 1.772200 
# 
# From -- ./inp_files/55341.got.cif
#   From: 2010.03.12/outbox.cif.g09.slc.cpg/sg65_28_cif.got.tgz:55341.got - 2010.04.10 20:52:16.
