data_PCOD8271420
_publ_section_title
;
Structure prediction by ZEFSAII (Michael W. Deem and Ramdas Pophale) SiO2 
 PCOD8271420
Probable space group: C M M M
;
_chemical_formula_sum "Si O2"
_cell_formula_units_Z 104
_cell_length_a 19.134220
_cell_length_b 31.091646
_cell_length_c 9.092886
_cell_angle_alpha 90.000000
_cell_angle_beta 90.000000
_cell_angle_gamma 90.000000
_cell_volume 5409.488771
_symmetry_space_group_name_H-M "C M M M"
_symmetry_group_IT_number 65
_symmetry_cell_setting 'orthorhombic'
loop_
_space_group_symop_operation_xyz
x,y,z
-x,-y,z
x,-y,-z
-x,y,-z
-x,-y,-z
x,y,-z
-x,y,z
x,-y,z
1/2+x,1/2+y,z
1/2-x,1/2-y,z
1/2+x,1/2-y,-z
1/2-x,1/2+y,-z
1/2-x,1/2-y,-z
1/2+x,1/2+y,-z
1/2-x,1/2+y,z
1/2+x,1/2-y,z
loop_
_atom_site_type_symbol
_atom_site_label
_atom_site_fract_x
_atom_site_fract_y
_atom_site_fract_z
Si Si1 0.709913 0.793241 0.827479
Si Si2 0.079348 0.410739 0.831100
Si Si3 0.082955 0.000000 0.163881
Si Si4 0.713774 0.369956 0.330863
Si Si5 0.578632 0.584419 0.329596
Si Si6 0.196897 0.452371 0.331715
Si Si7 0.579079 0.178298 0.673118
O O1 0.750000 0.750000 0.785867
O O2 0.755183 0.833477 0.772591
O O3 0.634338 0.789834 0.749025
O O4 0.697975 0.798106 0.000000
O O5 0.129117 0.448181 0.772247
O O6 0.094837 0.368941 0.733606
O O7 0.000000 0.426497 0.812421
O O8 0.096133 0.399506 0.000000
O O9 0.108330 0.957020 0.244943
O O10 0.000000 0.000000 0.162469
O O11 0.114314 0.000000 0.000000
O O12 0.728373 0.357181 0.500000
O O13 0.630567 0.375317 0.300390
O O14 0.746876 0.416139 0.291314
O O15 0.579810 0.571647 0.500000
O O16 0.500000 0.597527 0.279473
O O17 0.172464 0.447539 0.500000
O O18 0.229077 0.500000 0.303783
O O19 0.591740 0.177970 0.500000
O O20 0.500000 0.192924 0.712188
#
# Coordination Sequence:
#
# PCOD8271420 Si02
#       7
#    16  16   8  16  16  16  16
#     4  11  24  41  62  89 119 151 188 232 287 347
#     4  10  20  34  54  80 112 151 193 238 284 332
#     4   9  17  29  47  75 109 145 188 233 276 329
#     4  10  21  37  59  83 111 149 190 237 287 338
#     4   9  18  33  54  79 108 146 190 234 283 338
#     4  10  21  35  52  78 113 153 195 236 283 339
#     4  10  20  36  61  90 117 149 191 236 283 337
#
# _framework density 19.225476
#
# number of rings (size 3 to 8) (size 9 to 14) (size 15 to 20)
#    0.000    2.077    1.538    1.615    1.077    5.231 
#    0.000    2.308    0.000    2.769    0.000    0.000 
#    0.000    0.000    0.000    0.000    0.000    0.000 
#
# Total GULP energy -644790.150321 kJ/mol
# GULP energy per Si atom -12399.810583 kJ/mol
# Density = 1.918172 g / cm^3
# Si number density = 19.225476 Si / 1000 Ang^3
#
#
#
# Elastic Constant Matrix: (Units=GPa)
#
#
# Indices 1 2 3 4 5 6 
#
# 1 115.3065 58.3290 51.5433 0.0000 0.0000 0.0000
# 2 58.3290 102.0465 50.1169 0.0000 0.0000 0.0000
# 3 51.5433 50.1169 88.4632 0.0000 0.0000 0.0000
# 4 0.0000 0.0000 0.0000 27.8773 0.0000 0.0000
# 5 0.0000 0.0000 0.0000 0.0000 25.8138 0.0000
# 6 0.0000 0.0000 0.0000 0.0000 0.0000 27.6378
#
#
#
# Elastic Compliance Matrix: (Units=1/GPa)
#
#
# Indices 1 2 3 4 5 6 
#
# 1 0.013558 -0.005362 -0.004862 0.000000 0.000000 0.000000
# 2 -0.005362 0.015698 -0.005769 0.000000 0.000000 0.000000
# 3 -0.004862 -0.005769 0.017405 0.000000 0.000000 0.000000
# 4 0.000000 0.000000 0.000000 0.035872 0.000000 0.000000
# 5 0.000000 0.000000 0.000000 0.000000 0.038739 0.000000
# 6 0.000000 0.000000 0.000000 0.000000 0.000000 0.036182
#
#
# Mechanical properties :
#
#
# Convention : Reuss Voigt Hill
#
# Bulk Modulus (GPa) = 68.14220 69.53273 68.83746
# Shear Modulus (GPa) = 25.72919 25.98757 25.85838
#
# Velocity S-wave (km/s) = 3.66223 3.68057 3.67141
# Velocity P-wave (km/s) = 7.30775 7.36937 7.33862
#
# Compressibility (1/GPa) = 0.01467519
#
# Stress axis : x y z
#
# Youngs Moduli (GPa) = 73.75516 63.70428 57.45372
#
# Poissons Ratio (x) = 0.34158 0.27935
# Poissons Ratio (y) = 0.39547 0.33145
# Poissons Ratio (z) = 0.35861 0.36750
#
# Static dielectric constant tensor:
#      x y z
#    x 3.752270 0.000000 0.000000 
#    y 0.000000 3.265900 0.000000 
#    z 0.000000 0.000000 3.555870 
# 
# 
# High freq. dielectric constant tensor:
#      x y z
#    x 1.757440 0.000000 0.000000 
#    y 0.000000 1.718530 0.000000 
#    z 0.000000 0.000000 1.750740 
# 
# From -- ./inp_files/12418.got.cif
#   From: 2010.03.12/outbox.cif.g09.slc.cpg/sg65_7_cif.got.tgz:12418.got - 2010.04.10 20:52:16.
