data_PCOD8271960
_publ_section_title
;
Structure prediction by ZEFSAII (Michael W. Deem and Ramdas Pophale) SiO2 
 PCOD8271960
Probable space group: C M M M
;
_chemical_formula_sum "Si O2"
_cell_formula_units_Z 104
_cell_length_a 8.772546
_cell_length_b 27.984514
_cell_length_c 21.448241
_cell_angle_alpha 90.000000
_cell_angle_beta 90.000000
_cell_angle_gamma 90.000000
_cell_volume 5265.445283
_symmetry_space_group_name_H-M "C M M M"
_symmetry_group_IT_number 65
_symmetry_cell_setting 'orthorhombic'
loop_
_space_group_symop_operation_xyz
x,y,z
-x,-y,z
x,-y,-z
-x,y,-z
-x,-y,-z
x,y,-z
-x,y,z
x,-y,z
1/2+x,1/2+y,z
1/2-x,1/2-y,z
1/2+x,1/2-y,-z
1/2-x,1/2+y,-z
1/2-x,1/2-y,-z
1/2+x,1/2+y,-z
1/2-x,1/2+y,z
1/2+x,1/2-y,z
loop_
_atom_site_type_symbol
_atom_site_label
_atom_site_fract_x
_atom_site_fract_y
_atom_site_fract_z
Si Si1 0.679704 0.611823 0.255149
Si Si2 0.680036 0.106166 0.616705
Si Si3 0.320850 0.553526 0.865807
Si Si4 0.172136 0.943579 0.500000
Si Si5 0.674641 0.700465 0.426690
Si Si6 0.319102 0.801953 0.187194
Si Si7 0.678464 0.138816 0.930597
O O1 0.500000 0.619073 0.261961
O O2 0.748312 0.589195 0.318063
O O3 0.723273 0.574164 0.201725
O O4 0.755603 0.663123 0.240683
O O5 0.500000 0.101084 0.618473
O O6 0.743141 0.073588 0.561605
O O7 0.727292 0.160830 0.607684
O O8 0.500000 0.552866 0.874973
O O9 0.253709 0.500000 0.871955
O O10 0.252201 0.587097 0.919203
O O11 0.000000 0.922731 0.500000
O O12 0.170713 0.000000 0.500000
O O13 0.685933 0.691365 0.500000
O O14 0.500000 0.699169 0.403947
O O15 0.750000 0.750000 0.407234
O O16 0.500000 0.799151 0.192384
O O17 0.250000 0.750000 0.197385
O O18 0.264644 0.822001 0.119555
O O19 0.500000 0.131672 0.923670
O O20 0.723758 0.156496 0.000000
#
# Coordination Sequence:
#
# PCOD8271960 Si02
#       7
#    16  16  16   8  16  16  16
#     4  10  21  38  59  82 111 148 191 234 281 338
#     4  12  24  39  61  88 119 150 186 234 289 343
#     4   9  19  36  57  81 109 143 185 234 284 333
#     4  11  25  45  66  87 114 151 193 235 283 341
#     4  10  20  35  57  83 114 147 183 222 270 329
#     4  10  20  36  57  82 114 151 193 238 283 332
#     4   9  19  35  54  80 115 152 189 230 278 334
#
# _framework density 19.751415000000001
#
# number of rings (size 3 to 8) (size 9 to 14) (size 15 to 20)
#    0.000    1.923    0.769    3.000    0.000    4.923 
#    0.000    6.154    0.000    0.000    0.000    0.000 
#    0.000    0.000    0.000    0.000    0.000    0.000 
#
# Total GULP energy -644954.177013 kJ/mol
# GULP energy per Si atom -12402.964943 kJ/mol
# Density = 1.970646 g / cm^3
# Si number density = 19.751415 Si / 1000 Ang^3
#
#
#
# Elastic Constant Matrix: (Units=GPa)
#
#
# Indices 1 2 3 4 5 6 
#
# 1 91.4635 24.6637 31.0163 0.0000 0.0000 0.0000
# 2 24.6637 69.0377 14.6850 0.0000 0.0000 0.0000
# 3 31.0163 14.6850 96.7337 0.0000 0.0000 0.0000
# 4 0.0000 0.0000 0.0000 -1.8881 0.0000 0.0000
# 5 0.0000 0.0000 0.0000 0.0000 31.3868 0.0000
# 6 0.0000 0.0000 0.0000 0.0000 0.0000 30.7434
#
#
#
# Elastic Compliance Matrix: (Units=1/GPa)
#
#
# Indices 1 2 3 4 5 6 
#
# 1 0.013235 -0.003953 -0.003643 0.000000 0.000000 0.000000
# 2 -0.003953 0.016149 -0.001184 0.000000 0.000000 0.000000
# 3 -0.003643 -0.001184 0.011686 0.000000 0.000000 0.000000
# 4 0.000000 0.000000 0.000000 -0.529641 0.000000 0.000000
# 5 0.000000 0.000000 0.000000 0.000000 0.031861 0.000000
# 6 0.000000 0.000000 0.000000 0.000000 0.000000 0.032527
#
#
# Mechanical properties :
#
#
# Convention : Reuss Voigt Hill
#
# Bulk Modulus (GPa) = 42.53840 44.21834 43.37837
# Shear Modulus (GPa) = -12.53803 24.50641 5.98419
#
# Velocity S-wave (km/s) = -2.52224 3.52624 1.74251
# Velocity P-wave (km/s) = 3.61958 6.24621 5.10473
#
# Compressibility (1/GPa) = 0.02350817
#
# Stress axis : x y z
#
# Youngs Moduli (GPa) = 75.55813 61.92350 85.57520
#
# Poissons Ratio (x) = 0.24479 0.31179
# Poissons Ratio (y) = 0.29869 0.10132
# Poissons Ratio (z) = 0.27529 0.07332
#
# Static dielectric constant tensor:
#      x y z
#    x 3.636250 0.000000 0.000000 
#    y 0.000000 3.631570 0.000000 
#    z 0.000000 0.000000 3.755590 
# 
# 
# High freq. dielectric constant tensor:
#      x y z
#    x 1.776160 0.000000 0.000000 
#    y 0.000000 1.767490 0.000000 
#    z 0.000000 0.000000 1.773500 
# 
# From -- ./inp_files/60451.got.cif
#   From: 2010.03.12/outbox.cif.g09.slc.cpg/sg65_31_cif.got.tgz:60451.got - 2010.04.10 20:52:16.
