data_PCOD8271258
_publ_section_title
;
Structure prediction by ZEFSAII (Michael W. Deem and Ramdas Pophale) SiO2 
 PCOD8271258
Probable space group: C M M M
;
_chemical_formula_sum "Si O2"
_cell_formula_units_Z 88
_cell_length_a 19.185641
_cell_length_b 8.991177
_cell_length_c 27.406347
_cell_angle_alpha 90.000000
_cell_angle_beta 90.000000
_cell_angle_gamma 90.000000
_cell_volume 4727.635805
_symmetry_space_group_name_H-M "C M M M"
_symmetry_group_IT_number 65
_symmetry_cell_setting 'orthorhombic'
loop_
_space_group_symop_operation_xyz
x,y,z
-x,-y,z
x,-y,-z
-x,y,-z
-x,-y,-z
x,y,-z
-x,y,z
x,-y,z
1/2+x,1/2+y,z
1/2-x,1/2-y,z
1/2+x,1/2-y,-z
1/2-x,1/2+y,-z
1/2-x,1/2-y,-z
1/2+x,1/2+y,-z
1/2-x,1/2+y,z
1/2+x,1/2-y,z
loop_
_atom_site_type_symbol
_atom_site_label
_atom_site_fract_x
_atom_site_fract_y
_atom_site_fract_z
Si Si1 0.917132 0.168201 0.000000
Si Si2 0.179113 0.326637 0.556611
Si Si3 0.417514 0.828638 0.097361
Si Si4 0.321989 0.676054 0.826474
Si Si5 0.420087 0.325632 0.370027
Si Si6 0.819963 0.826930 0.284630
O O1 0.889510 0.254489 0.952452
O O2 0.000000 0.167079 0.000000
O O3 0.887739 0.000000 0.000000
O O4 0.166185 0.291827 0.500000
O O5 0.186210 0.500000 0.567210
O O6 0.250000 0.250000 0.575185
O O7 0.113456 0.261698 0.585129
O O8 0.500000 0.812431 0.101810
O O9 0.385135 0.741738 0.142652
O O10 0.394207 0.000000 0.097784
O O11 0.317423 0.500000 0.833899
O O12 0.250000 0.750000 0.844080
O O13 0.337784 0.721141 0.770550
O O14 0.500000 0.276893 0.365792
O O15 0.412163 0.500000 0.380262
O O16 0.383666 0.279546 0.319229
O O17 0.750000 0.750000 0.303920
O O18 0.805186 0.000000 0.287317
#
# Coordination Sequence:
#
# PCOD8271258 Si02
#       6
#     8  16  16  16  16  16
#     4   9  17  31  52  77 104 137 178 217 257 311
#     4  10  21  37  57  80 106 138 178 221 263 312
#     4  10  20  34  53  78 108 140 175 217 263 310
#     4  10  20  35  55  78 106 139 175 216 263 314
#     4  10  21  36  54  79 111 143 175 215 264 314
#     4   9  19  35  55  77 102 136 176 217 260 310
#
# _framework density 18.613955000000001
#
# number of rings (size 3 to 8) (size 9 to 14) (size 15 to 20)
#    0.000    2.273    0.000    2.455    0.000    7.636 
#    0.000    4.091    0.000    0.000    0.000    0.000 
#    0.000    0.000    0.000    0.000    0.000    0.000 
#
# Total GULP energy -545767.144272 kJ/mol
# GULP energy per Si atom -12403.798733 kJ/mol
# Density = 1.857159 g / cm^3
# Si number density = 18.613955 Si / 1000 Ang^3
#
#
#
# Elastic Constant Matrix: (Units=GPa)
#
#
# Indices 1 2 3 4 5 6 
#
# 1 110.8940 54.1049 68.7602 0.0000 0.0000 0.0000
# 2 54.1049 97.4648 56.9123 0.0000 0.0000 0.0000
# 3 68.7602 56.9123 108.7392 0.0000 0.0000 0.0000
# 4 0.0000 0.0000 0.0000 31.7973 0.0000 0.0000
# 5 0.0000 0.0000 0.0000 0.0000 30.0766 0.0000
# 6 0.0000 0.0000 0.0000 0.0000 0.0000 32.4241
#
#
#
# Elastic Compliance Matrix: (Units=1/GPa)
#
#
# Indices 1 2 3 4 5 6 
#
# 1 0.015984 -0.004279 -0.007868 0.000000 0.000000 0.000000
# 2 -0.004279 0.015921 -0.005627 0.000000 0.000000 0.000000
# 3 -0.007868 -0.005627 0.017117 0.000000 0.000000 0.000000
# 4 0.000000 0.000000 0.000000 0.031449 0.000000 0.000000
# 5 0.000000 0.000000 0.000000 0.000000 0.033248 0.000000
# 6 0.000000 0.000000 0.000000 0.000000 0.000000 0.030841
#
#
# Mechanical properties :
#
#
# Convention : Reuss Voigt Hill
#
# Bulk Modulus (GPa) = 74.21670 75.18366 74.70018
# Shear Modulus (GPa) = 27.08574 28.01430 27.55002
#
# Velocity S-wave (km/s) = 3.81876 3.88366 3.85135
# Velocity P-wave (km/s) = 7.70727 7.78390 7.74568
#
# Compressibility (1/GPa) = 0.01347406
#
# Stress axis : x y z
#
# Youngs Moduli (GPa) = 62.56441 62.80909 58.42289
#
# Poissons Ratio (x) = 0.26874 0.45965
# Poissons Ratio (y) = 0.26769 0.32876
# Poissons Ratio (z) = 0.49223 0.35345
#
# Static dielectric constant tensor:
#      x y z
#    x 3.315640 0.000000 0.000000 
#    y 0.000000 3.506710 0.000000 
#    z 0.000000 0.000000 3.571300 
# 
# 
# High freq. dielectric constant tensor:
#      x y z
#    x 1.707620 0.000000 0.000000 
#    y 0.000000 1.731030 0.000000 
#    z 0.000000 0.000000 1.731890 
# 
# From -- ./inp_files/75349.got.cif
#   From: 2010.03.12/outbox.cif.g09.slc.cpg/sg65_38_cif.got.tgz:75349.got - 2010.04.10 20:52:16.
