data_PCOD8271746
_publ_section_title
;
Structure prediction by ZEFSAII (Michael W. Deem and Ramdas Pophale) SiO2 
 PCOD8271746
Probable space group: C M M M
;
_chemical_formula_sum "Si O2"
_cell_formula_units_Z 96
_cell_length_a 9.254228
_cell_length_b 27.748899
_cell_length_c 19.131316
_cell_angle_alpha 90.000000
_cell_angle_beta 90.000000
_cell_angle_gamma 90.000000
_cell_volume 4912.819369
_symmetry_space_group_name_H-M "C M M M"
_symmetry_group_IT_number 65
_symmetry_cell_setting 'orthorhombic'
loop_
_space_group_symop_operation_xyz
x,y,z
-x,-y,z
x,-y,-z
-x,y,-z
-x,-y,-z
x,y,-z
-x,y,z
x,-y,z
1/2+x,1/2+y,z
1/2-x,1/2-y,z
1/2+x,1/2-y,-z
1/2-x,1/2+y,-z
1/2-x,1/2-y,-z
1/2+x,1/2+y,-z
1/2-x,1/2+y,z
1/2+x,1/2-y,z
loop_
_atom_site_type_symbol
_atom_site_label
_atom_site_fract_x
_atom_site_fract_y
_atom_site_fract_z
Si Si1 0.169341 0.555166 0.806914
Si Si2 0.168693 0.386401 0.674601
Si Si3 0.156323 0.943718 0.423790
Si Si4 0.668447 0.391218 0.918471
Si Si5 0.836822 0.295725 0.082904
Si Si6 0.829586 0.299336 0.419787
O O1 0.199613 0.500000 0.781687
O O2 0.222958 0.596002 0.751025
O O3 0.262092 0.564199 0.876804
O O4 0.000000 0.561588 0.823305
O O5 0.211021 0.429693 0.624220
O O6 0.230448 0.337383 0.638812
O O7 0.000000 0.381779 0.677092
O O8 0.178118 0.920117 0.500000
O O9 0.000000 0.926651 0.393093
O O10 0.157136 0.000000 0.431639
O O11 0.500000 0.385334 0.900810
O O12 0.751234 0.343147 0.893962
O O13 0.692523 0.401533 0.000000
O O14 0.750000 0.250000 0.113786
O O15 0.000000 0.296856 0.113802
O O16 0.844225 0.291700 0.000000
O O17 0.794793 0.315783 0.500000
O O18 0.750000 0.250000 0.402022
O O19 0.000000 0.291683 0.411013
#
# Coordination Sequence:
#
# PCOD8271746 Si02
#       6
#    16  16  16  16  16  16
#     4  10  22  39  57  78 106 141 180 225 283 347
#     4  10  20  35  55  78 105 139 180 223 268 321
#     4   9  18  31  47  72 106 140 174 213 258 309
#     4  10  21  37  57  81 108 140 183 233 284 341
#     4   9  16  28  50  80 112 142 171 208 258 316
#     4   9  18  33  54  81 112 145 182 223 264 308
#
# _framework density 19.540714999999999
#
# number of rings (size 3 to 8) (size 9 to 14) (size 15 to 20)
#    0.000    2.500    0.000    2.500    0.000    7.000 
#    0.000    5.000    0.000    2.000    0.000    0.000 
#    0.000    0.000    0.000    0.000    0.000    0.000 
#
# Total GULP energy -594735.065839 kJ/mol
# GULP energy per Si atom -12390.313872 kJ/mol
# Density = 1.949624 g / cm^3
# Si number density = 19.540715 Si / 1000 Ang^3
#
#
#
# Elastic Constant Matrix: (Units=GPa)
#
#
# Indices 1 2 3 4 5 6 
#
# 1 51.7827 57.4912 39.5841 0.0000 0.0000 0.0000
# 2 57.4912 103.9420 60.5669 0.0000 0.0000 0.0000
# 3 39.5841 60.5669 82.3761 0.0000 0.0000 0.0000
# 4 0.0000 0.0000 0.0000 26.9901 0.0000 0.0000
# 5 0.0000 0.0000 0.0000 0.0000 21.0060 0.0000
# 6 0.0000 0.0000 0.0000 0.0000 0.0000 35.6549
#
#
#
# Elastic Compliance Matrix: (Units=1/GPa)
#
#
# Indices 1 2 3 4 5 6 
#
# 1 0.052090 -0.024889 -0.006731 0.000000 0.000000 0.000000
# 2 -0.024889 0.028725 -0.009160 0.000000 0.000000 0.000000
# 3 -0.006731 -0.009160 0.022108 0.000000 0.000000 0.000000
# 4 0.000000 0.000000 0.000000 0.037051 0.000000 0.000000
# 5 0.000000 0.000000 0.000000 0.000000 0.047605 0.000000
# 6 0.000000 0.000000 0.000000 0.000000 0.000000 0.028047
#
#
# Mechanical properties :
#
#
# Convention : Reuss Voigt Hill
#
# Bulk Modulus (GPa) = 46.80945 61.48727 54.14836
# Shear Modulus (GPa) = 16.43083 22.09412 19.26247
#
# Velocity S-wave (km/s) = 2.90289 3.36619 3.14309
# Velocity P-wave (km/s) = 5.93654 6.82956 6.39865
#
# Compressibility (1/GPa) = 0.02136321
#
# Stress axis : x y z
#
# Youngs Moduli (GPa) = 19.19761 34.81347 45.23157
#
# Poissons Ratio (x) = 0.86648 0.30445
# Poissons Ratio (y) = 0.47781 0.41431
# Poissons Ratio (z) = 0.12922 0.31888
#
# Static dielectric constant tensor:
#      x y z
#    x 3.691230 0.000000 0.000000 
#    y 0.000000 3.602570 0.000000 
#    z 0.000000 0.000000 3.518470 
# 
# 
# High freq. dielectric constant tensor:
#      x y z
#    x 1.759890 0.000000 0.000000 
#    y 0.000000 1.758910 0.000000 
#    z 0.000000 0.000000 1.739300 
# 
# From -- ./inp_files/60193.got.cif
#   From: 2010.03.12/outbox.cif.g09.slc.cpg/sg65_31_cif.got.tgz:60193.got - 2010.04.10 20:52:16.
