data_PCOD8271062
_publ_section_title
;
Structure prediction by ZEFSAII (Michael W. Deem and Ramdas Pophale) SiO2 
 PCOD8271062
Probable space group: C M M M
;
_chemical_formula_sum "Si O2"
_cell_formula_units_Z 88
_cell_length_a 17.930414
_cell_length_b 8.949285
_cell_length_c 28.691205
_cell_angle_alpha 90.000000
_cell_angle_beta 90.000000
_cell_angle_gamma 90.000000
_cell_volume 4603.916567
_symmetry_space_group_name_H-M "C M M M"
_symmetry_group_IT_number 65
_symmetry_cell_setting 'orthorhombic'
loop_
_space_group_symop_operation_xyz
x,y,z
-x,-y,z
x,-y,-z
-x,y,-z
-x,-y,-z
x,y,-z
-x,y,z
x,-y,z
1/2+x,1/2+y,z
1/2-x,1/2-y,z
1/2+x,1/2-y,-z
1/2-x,1/2+y,-z
1/2-x,1/2-y,-z
1/2+x,1/2+y,-z
1/2-x,1/2+y,z
1/2+x,1/2-y,z
loop_
_atom_site_type_symbol
_atom_site_label
_atom_site_fract_x
_atom_site_fract_y
_atom_site_fract_z
Si Si1 0.915539 0.176340 0.857950
Si Si2 0.588580 0.830734 0.949265
Si Si3 0.583318 0.322908 0.323407
Si Si4 0.588313 0.828385 0.500000
Si Si5 0.670270 0.677558 0.767196
Si Si6 0.669397 0.678298 0.415080
O O1 0.879317 0.234051 0.906431
O O2 0.866906 0.236112 0.814923
O O3 0.000000 0.236292 0.851711
O O4 0.915129 0.000000 0.859236
O O5 0.500000 0.820058 0.949155
O O6 0.615187 0.000000 0.941905
O O7 0.617657 0.772270 0.000000
O O8 0.500000 0.255161 0.327990
O O9 0.578383 0.500000 0.323199
O O10 0.619368 0.265639 0.275401
O O11 0.634113 0.268827 0.366211
O O12 0.500000 0.821718 0.500000
O O13 0.616843 0.741627 0.455007
O O14 0.616780 0.000000 0.500000
O O15 0.678258 0.500000 0.766911
O O16 0.750000 0.750000 0.761359
O O17 0.674970 0.500000 0.419216
O O18 0.750000 0.750000 0.420260
#
# Coordination Sequence:
#
# PCOD8271062 Si02
#       6
#    16  16  16   8  16  16
#     4   9  17  29  47  71  97 127 164 205 247 293
#     4   8  14  25  42  66  96 127 158 197 248 301
#     4   9  18  34  57  82 106 136 175 217 260 308
#     4  11  24  41  60  83 113 147 184 229 276 317
#     4  10  20  34  52  74 102 134 168 207 252 304
#     4  11  22  37  59  85 114 147 184 223 265 317
#
# _framework density 19.114159999999998
#
# number of rings (size 3 to 8) (size 9 to 14) (size 15 to 20)
#    0.000    2.455    0.000    3.273    0.000    4.727 
#    0.000    2.727    0.000    4.364    0.000    0.000 
#    0.000    0.000    0.000    0.000    0.000    0.000 
#
# Total GULP energy -545508.990397 kJ/mol
# GULP energy per Si atom -12397.931600 kJ/mol
# Density = 1.907066 g / cm^3
# Si number density = 19.114160 Si / 1000 Ang^3
#
#
#
# Elastic Constant Matrix: (Units=GPa)
#
#
# Indices 1 2 3 4 5 6 
#
# 1 89.8277 26.3549 45.7557 0.0000 0.0000 0.0000
# 2 26.3549 45.6570 37.3961 0.0000 0.0000 0.0000
# 3 45.7557 37.3961 167.8085 0.0000 0.0000 0.0000
# 4 0.0000 0.0000 0.0000 -65.5988 0.0000 0.0000
# 5 0.0000 0.0000 0.0000 0.0000 12.4197 0.0000
# 6 0.0000 0.0000 0.0000 0.0000 0.0000 23.5682
#
#
#
# Elastic Compliance Matrix: (Units=1/GPa)
#
#
# Indices 1 2 3 4 5 6 
#
# 1 0.014213 -0.006153 -0.002504 0.000000 0.000000 0.000000
# 2 -0.006153 0.029457 -0.004887 0.000000 0.000000 0.000000
# 3 -0.002504 -0.004887 0.007731 0.000000 0.000000 0.000000
# 4 0.000000 0.000000 0.000000 -0.015244 0.000000 0.000000
# 5 0.000000 0.000000 0.000000 0.000000 0.080517 0.000000
# 6 0.000000 0.000000 0.000000 0.000000 0.000000 0.042430
#
#
# Mechanical properties :
#
#
# Convention : Reuss Voigt Hill
#
# Bulk Modulus (GPa) = 41.13063 58.03404 49.58233
# Shear Modulus (GPa) = 25.73382 6.99693 16.36538
#
# Velocity S-wave (km/s) = 3.67321 1.91535 2.92925
# Velocity P-wave (km/s) = 6.28928 5.94299 6.11859
#
# Compressibility (1/GPa) = 0.02431278
#
# Stress axis : x y z
#
# Youngs Moduli (GPa) = 70.35636 33.94793 129.34972
#
# Poissons Ratio (x) = 0.20889 0.32392
# Poissons Ratio (y) = 0.43293 0.63209
# Poissons Ratio (z) = 0.17619 0.16589
#
# Static dielectric constant tensor:
#      x y z
#    x 3.390990 0.000000 0.000000 
#    y 0.000000 3.313720 0.000000 
#    z 0.000000 0.000000 4.037390 
# 
# 
# High freq. dielectric constant tensor:
#      x y z
#    x 1.728360 0.000000 0.000000 
#    y 0.000000 1.718650 0.000000 
#    z 0.000000 0.000000 1.767550 
# 
# From -- ./inp_files/77925.got.cif
#   From: 2010.03.12/outbox.cif.g09.slc.cpg/sg65_39_cif.got.tgz:77925.got - 2010.04.10 20:52:16.
