data_PCOD8271565
_publ_section_title
;
Structure prediction by ZEFSAII (Michael W. Deem and Ramdas Pophale) SiO2 
 PCOD8271565
Probable space group: C M M M
;
_chemical_formula_sum "Si O2"
_cell_formula_units_Z 56
_cell_length_a 12.391971
_cell_length_b 24.913790
_cell_length_c 9.133335
_cell_angle_alpha 90.000000
_cell_angle_beta 90.000000
_cell_angle_gamma 90.000000
_cell_volume 2819.743312
_symmetry_space_group_name_H-M "C M M M"
_symmetry_group_IT_number 65
_symmetry_cell_setting 'orthorhombic'
loop_
_space_group_symop_operation_xyz
x,y,z
-x,-y,z
x,-y,-z
-x,y,-z
-x,-y,-z
x,y,-z
-x,y,z
x,-y,z
1/2+x,1/2+y,z
1/2-x,1/2-y,z
1/2+x,1/2-y,-z
1/2-x,1/2+y,-z
1/2-x,1/2-y,-z
1/2+x,1/2+y,-z
1/2-x,1/2+y,z
1/2+x,1/2-y,z
loop_
_atom_site_type_symbol
_atom_site_label
_atom_site_fract_x
_atom_site_fract_y
_atom_site_fract_z
Si Si1 0.123351 0.000000 0.826931
Si Si2 0.500000 0.761371 0.670051
Si Si3 0.717055 0.093902 0.826956
Si Si4 0.000000 0.383737 0.324401
Si Si5 0.673008 0.702571 0.843447
O O1 0.192064 0.948435 0.774859
O O2 0.000000 0.000000 0.761303
O O3 0.112995 0.000000 0.000000
O O4 0.500000 0.768894 0.500000
O O5 0.500000 0.821847 0.735766
O O6 0.598904 0.724760 0.716371
O O7 0.605276 0.085796 0.739112
O O8 0.763043 0.151684 0.781777
O O9 0.693008 0.088854 0.000000
O O10 0.000000 0.387373 0.500000
O O11 0.750000 0.750000 0.886095
O O12 0.614646 0.687307 0.000000
#
# Coordination Sequence:
#
# PCOD8271565 Si02
#       5
#     8   8  16   8  16
#     4   9  20  39  63  90 116 145 188 241 292 341
#     4  11  23  35  52  81 120 158 189 232 287 348
#     4  10  21  38  62  88 116 152 194 241 288 341
#     4  11  23  38  58  85 121 157 192 238 289 346
#     4  10  20  34  56  85 114 147 190 238 287 340
#
# _framework density 19.859964000000002
#
# number of rings (size 3 to 8) (size 9 to 14) (size 15 to 20)
#    0.000    1.857    2.857    0.857    2.000    3.429 
#    0.000    3.571    0.000    0.857    0.000    0.000 
#    0.000    0.000    0.000    0.000    0.000    0.000 
#
# Total GULP energy -346927.410224 kJ/mol
# GULP energy per Si atom -12390.264651 kJ/mol
# Density = 1.981476 g / cm^3
# Si number density = 19.859964 Si / 1000 Ang^3
#
#
#
# Elastic Constant Matrix: (Units=GPa)
#
#
# Indices 1 2 3 4 5 6 
#
# 1 164.3361 67.2320 45.3318 0.0000 0.0000 0.0000
# 2 67.2320 119.2743 18.3201 0.0000 0.0000 0.0000
# 3 45.3318 18.3201 56.8441 0.0000 0.0000 0.0000
# 4 0.0000 0.0000 0.0000 20.6080 0.0000 0.0000
# 5 0.0000 0.0000 0.0000 0.0000 9.2884 0.0000
# 6 0.0000 0.0000 0.0000 0.0000 0.0000 31.9098
#
#
#
# Elastic Compliance Matrix: (Units=1/GPa)
#
#
# Indices 1 2 3 4 5 6 
#
# 1 0.009638 -0.004473 -0.006244 0.000000 0.000000 0.000000
# 2 -0.004473 0.010897 0.000055 0.000000 0.000000 0.000000
# 3 -0.006244 0.000055 0.022554 0.000000 0.000000 0.000000
# 4 0.000000 0.000000 0.000000 0.048525 0.000000 0.000000
# 5 0.000000 0.000000 0.000000 0.000000 0.107662 0.000000
# 6 0.000000 0.000000 0.000000 0.000000 0.000000 0.031338
#
#
# Mechanical properties :
#
#
# Convention : Reuss Voigt Hill
#
# Bulk Modulus (GPa) = 45.94692 66.91360 56.43026
# Shear Modulus (GPa) = 19.29072 26.33260 22.81166
#
# Velocity S-wave (km/s) = 3.12001 3.64526 3.39281
# Velocity P-wave (km/s) = 6.01373 7.17517 6.61997
#
# Compressibility (1/GPa) = 0.02176424
#
# Stress axis : x y z
#
# Youngs Moduli (GPa) = 103.75986 91.76766 44.33889
#
# Poissons Ratio (x) = 0.41052 0.27685
# Poissons Ratio (y) = 0.46416 -0.00246
# Poissons Ratio (z) = 0.64788 -0.00509
#
# Static dielectric constant tensor:
#      x y z
#    x 3.601730 0.000000 0.000000 
#    y 0.000000 3.672790 0.000000 
#    z 0.000000 0.000000 3.243630 
# 
# 
# High freq. dielectric constant tensor:
#      x y z
#    x 1.778090 0.000000 0.000000 
#    y 0.000000 1.774970 0.000000 
#    z 0.000000 0.000000 1.747050 
# 
# From -- ./inp_files/4459.got.cif
#   From: 2010.03.12/outbox.cif.g09.slc.cpg/sg65_3_cif.got.tgz:4459.got - 2010.04.10 20:52:16.
