data_PCOD8271845
_publ_section_title
;
Structure prediction by ZEFSAII (Michael W. Deem and Ramdas Pophale) SiO2 
 PCOD8271845
Probable space group: C M M M
;
_chemical_formula_sum "Si O2"
_cell_formula_units_Z 64
_cell_length_a 8.766895
_cell_length_b 18.407181
_cell_length_c 20.950886
_cell_angle_alpha 90.000000
_cell_angle_beta 90.000000
_cell_angle_gamma 90.000000
_cell_volume 3380.924571
_symmetry_space_group_name_H-M "C M M M"
_symmetry_group_IT_number 65
_symmetry_cell_setting 'orthorhombic'
loop_
_space_group_symop_operation_xyz
x,y,z
-x,-y,z
x,-y,-z
-x,y,-z
-x,-y,-z
x,y,-z
-x,y,z
x,-y,z
1/2+x,1/2+y,z
1/2-x,1/2-y,z
1/2+x,1/2-y,-z
1/2-x,1/2+y,-z
1/2-x,1/2-y,-z
1/2+x,1/2+y,-z
1/2-x,1/2+y,z
1/2+x,1/2-y,z
loop_
_atom_site_type_symbol
_atom_site_label
_atom_site_fract_x
_atom_site_fract_y
_atom_site_fract_z
Si Si1 0.672085 0.413638 0.000000
Si Si2 0.317335 0.418361 0.636874
Si Si3 0.680190 0.328576 0.756597
Si Si4 0.674909 0.913975 0.129587
Si Si5 0.833002 0.913787 0.500000
O O1 0.760646 0.385007 0.937756
O O2 0.670302 0.500000 0.000000
O O3 0.500000 0.382797 0.000000
O O4 0.500000 0.418336 0.633869
O O5 0.259732 0.500000 0.652612
O O6 0.255994 0.364362 0.691285
O O7 0.251017 0.391970 0.567184
O O8 0.500000 0.322189 0.754443
O O9 0.750000 0.250000 0.765583
O O10 0.725954 0.379222 0.814947
O O11 0.500000 0.889337 0.135699
O O12 0.692293 0.000000 0.134739
O O13 0.000000 0.877252 0.500000
O O14 0.850908 0.000000 0.500000
#
# Coordination Sequence:
#
# PCOD8271845 Si02
#       5
#     8  16  16  16   8
#     4   9  17  31  54  83 110 135 166 205 249 299
#     4   8  14  26  47  73  98 127 166 212 259 307
#     4  11  22  35  50  71 103 140 178 217 258 305
#     4  10  20  35  56  81 107 135 169 210 256 305
#     4   7  10  20  41  70  99 123 156 207 260 305
#
# _framework density 18.929732000000001
#
# number of rings (size 3 to 8) (size 9 to 14) (size 15 to 20)
#    0.000    2.750    0.000    4.125    0.000    4.000 
#    0.000    1.250    0.000    0.000    0.000    2.625 
#    0.000   14.000    0.000    0.000    0.000    0.000 
#
# Total GULP energy -396579.114230 kJ/mol
# GULP energy per Si atom -12393.097320 kJ/mol
# Density = 1.888665 g / cm^3
# Si number density = 18.929732 Si / 1000 Ang^3
#
#
#
# Elastic Constant Matrix: (Units=GPa)
#
#
# Indices 1 2 3 4 5 6 
#
# 1 56.8312 21.8802 31.9122 0.0000 0.0000 0.0000
# 2 21.8802 36.1068 34.5540 0.0000 0.0000 0.0000
# 3 31.9122 34.5540 170.5267 0.0000 0.0000 0.0000
# 4 0.0000 0.0000 0.0000 0.2860 0.0000 0.0000
# 5 0.0000 0.0000 0.0000 0.0000 8.1696 0.0000
# 6 0.0000 0.0000 0.0000 0.0000 0.0000 15.9566
#
#
#
# Elastic Compliance Matrix: (Units=1/GPa)
#
#
# Indices 1 2 3 4 5 6 
#
# 1 0.023421 -0.012404 -0.001870 0.000000 0.000000 0.000000
# 2 -0.012404 0.040927 -0.005972 0.000000 0.000000 0.000000
# 3 -0.001870 -0.005972 0.007424 0.000000 0.000000 0.000000
# 4 0.000000 0.000000 0.000000 3.496594 0.000000 0.000000
# 5 0.000000 0.000000 0.000000 0.000000 0.122404 0.000000
# 6 0.000000 0.000000 0.000000 0.000000 0.000000 0.062670
#
#
# Mechanical properties :
#
#
# Convention : Reuss Voigt Hill
#
# Bulk Modulus (GPa) = 31.96720 48.90638 40.43679
# Shear Modulus (GPa) = 1.31428 16.55700 8.93564
#
# Velocity S-wave (km/s) = 0.83415 2.96067 2.17501
# Velocity P-wave (km/s) = 4.22513 6.13019 5.26455
#
# Compressibility (1/GPa) = 0.03128207
#
# Stress axis : x y z
#
# Youngs Moduli (GPa) = 42.69622 24.43370 134.69542
#
# Poissons Ratio (x) = 0.30307 0.25184
# Poissons Ratio (y) = 0.52959 0.80438
# Poissons Ratio (z) = 0.07983 0.14592
#
# Static dielectric constant tensor:
#      x y z
#    x 3.199880 0.000000 0.000000 
#    y 0.000000 3.156110 0.000000 
#    z 0.000000 0.000000 4.026320 
# 
# 
# High freq. dielectric constant tensor:
#      x y z
#    x 1.704660 0.000000 0.000000 
#    y 0.000000 1.698510 0.000000 
#    z 0.000000 0.000000 1.763840 
# 
# From -- ./inp_files/55290.got.cif
#   From: 2010.03.12/outbox.cif.g09.slc.cpg/sg65_28_cif.got.tgz:55290.got - 2010.04.10 20:52:16.
