data_PCOD8271750
_publ_section_title
;
Structure prediction by ZEFSAII (Michael W. Deem and Ramdas Pophale) SiO2 
 PCOD8271750
Probable space group: C M M M
;
_chemical_formula_sum "Si O2"
_cell_formula_units_Z 72
_cell_length_a 15.425137
_cell_length_b 26.474931
_cell_length_c 9.007735
_cell_angle_alpha 90.000000
_cell_angle_beta 90.000000
_cell_angle_gamma 90.000000
_cell_volume 3678.573755
_symmetry_space_group_name_H-M "C M M M"
_symmetry_group_IT_number 65
_symmetry_cell_setting 'orthorhombic'
loop_
_space_group_symop_operation_xyz
x,y,z
-x,-y,z
x,-y,-z
-x,y,-z
-x,-y,-z
x,y,-z
-x,y,z
x,-y,z
1/2+x,1/2+y,z
1/2-x,1/2-y,z
1/2+x,1/2-y,-z
1/2-x,1/2+y,-z
1/2-x,1/2-y,-z
1/2+x,1/2+y,-z
1/2-x,1/2+y,z
1/2+x,1/2-y,z
loop_
_atom_site_type_symbol
_atom_site_label
_atom_site_fract_x
_atom_site_fract_y
_atom_site_fract_z
Si Si1 0.000000 0.380108 0.823179
Si Si2 0.676918 0.393678 0.324090
Si Si3 0.172449 0.211644 0.172276
Si Si4 0.000000 0.943199 0.323563
Si Si5 0.500000 0.766343 0.823612
Si Si6 0.835295 0.441796 0.170786
O O1 0.000000 0.323193 0.759297
O O2 0.085701 0.408482 0.764908
O O3 0.000000 0.381302 0.000000
O O4 0.679689 0.392722 0.500000
O O5 0.694080 0.338047 0.263584
O O6 0.584478 0.413782 0.264830
O O7 0.750148 0.431449 0.266372
O O8 0.250000 0.250000 0.199382
O O9 0.084424 0.236784 0.233842
O O10 0.163505 0.197273 0.000000
O O11 0.000000 0.945217 0.500000
O O12 0.000000 0.000000 0.258710
O O13 0.500000 0.769888 0.000000
O O14 0.861906 0.500000 0.186695
O O15 0.815966 0.427584 0.000000
#
# Coordination Sequence:
#
# PCOD8271750 Si02
#       6
#     8  16  16   8   8  16
#     4   9  17  33  57  83 110 141 178 217 263 322
#     4  11  22  36  56  80 108 144 183 225 271 319
#     4  10  20  35  55  78 106 140 177 220 269 319
#     4   9  19  36  55  75 104 145 186 219 263 325
#     4   9  17  30  52  79 104 135 176 221 266 313
#     4  10  20  35  57  84 112 143 180 221 265 317
#
# _framework density 19.572801999999999
#
# number of rings (size 3 to 8) (size 9 to 14) (size 15 to 20)
#    0.000    2.111    0.000    3.667    0.000    6.667 
#    0.000    2.222    0.000    6.667    0.000    0.000 
#    0.000    0.000    0.000    0.000    0.000    0.000 
#
# Total GULP energy -446542.307976 kJ/mol
# GULP energy per Si atom -12403.952999 kJ/mol
# Density = 1.952825 g / cm^3
# Si number density = 19.572802 Si / 1000 Ang^3
#
#
#
# Elastic Constant Matrix: (Units=GPa)
#
#
# Indices 1 2 3 4 5 6 
#
# 1 121.1210 20.3647 25.5310 0.0000 0.0000 0.0000
# 2 20.3647 94.9440 26.1296 0.0000 0.0000 0.0000
# 3 25.5310 26.1296 42.3940 0.0000 0.0000 0.0000
# 4 0.0000 0.0000 0.0000 18.7073 0.0000 0.0000
# 5 0.0000 0.0000 0.0000 0.0000 18.0286 0.0000
# 6 0.0000 0.0000 0.0000 0.0000 0.0000 37.6071
#
#
#
# Elastic Compliance Matrix: (Units=1/GPa)
#
#
# Indices 1 2 3 4 5 6 
#
# 1 0.009481 -0.000557 -0.005367 0.000000 0.000000 0.000000
# 2 -0.000557 0.012717 -0.007503 0.000000 0.000000 0.000000
# 3 -0.005367 -0.007503 0.031445 0.000000 0.000000 0.000000
# 4 0.000000 0.000000 0.000000 0.053455 0.000000 0.000000
# 5 0.000000 0.000000 0.000000 0.000000 0.055468 0.000000
# 6 0.000000 0.000000 0.000000 0.000000 0.000000 0.026591
#
#
# Mechanical properties :
#
#
# Convention : Reuss Voigt Hill
#
# Bulk Modulus (GPa) = 37.32713 44.72331 41.02522
# Shear Modulus (GPa) = 22.22835 27.29752 24.76293
#
# Velocity S-wave (km/s) = 3.37363 3.73857 3.56078
# Velocity P-wave (km/s) = 5.85556 6.44478 6.15722
#
# Compressibility (1/GPa) = 0.02679016
#
# Stress axis : x y z
#
# Youngs Moduli (GPa) = 105.47368 78.63639 31.80195
#
# Poissons Ratio (x) = 0.04377 0.17067
# Poissons Ratio (y) = 0.05871 0.23860
# Poissons Ratio (z) = 0.56605 0.58999
#
# Static dielectric constant tensor:
#      x y z
#    x 3.790750 0.000000 0.000000 
#    y 0.000000 3.658080 0.000000 
#    z 0.000000 0.000000 3.162790 
# 
# 
# High freq. dielectric constant tensor:
#      x y z
#    x 1.780810 0.000000 0.000000 
#    y 0.000000 1.778770 0.000000 
#    z 0.000000 0.000000 1.717620 
# 
# From -- ./inp_files/7430.got.cif
#   From: 2010.03.12/outbox.cif.g09.slc.cpg/sg65_4_cif.got.tgz:7430.got - 2010.04.10 20:52:16.
