data_PCOD8271751
_publ_section_title
;
Structure prediction by ZEFSAII (Michael W. Deem and Ramdas Pophale) SiO2 
 PCOD8271751
Probable space group: C M M M
;
_chemical_formula_sum "Si O2"
_cell_formula_units_Z 72
_cell_length_a 8.914004
_cell_length_b 18.017565
_cell_length_c 23.014150
_cell_angle_alpha 90.000000
_cell_angle_beta 90.000000
_cell_angle_gamma 90.000000
_cell_volume 3696.271481
_symmetry_space_group_name_H-M "C M M M"
_symmetry_group_IT_number 65
_symmetry_cell_setting 'orthorhombic'
loop_
_space_group_symop_operation_xyz
x,y,z
-x,-y,z
x,-y,-z
-x,y,-z
-x,-y,-z
x,y,-z
-x,y,z
x,-y,z
1/2+x,1/2+y,z
1/2-x,1/2-y,z
1/2+x,1/2-y,-z
1/2-x,1/2+y,-z
1/2-x,1/2-y,-z
1/2+x,1/2+y,-z
1/2-x,1/2+y,z
1/2+x,1/2-y,z
loop_
_atom_site_type_symbol
_atom_site_label
_atom_site_fract_x
_atom_site_fract_y
_atom_site_fract_z
Si Si1 0.830736 0.588459 0.384786
Si Si2 0.823148 0.329058 0.833460
Si Si3 0.672608 0.585134 0.067102
Si Si4 0.330287 0.588113 0.730689
Si Si5 0.169355 0.088530 0.500000
O O1 0.829821 0.500000 0.385398
O O2 0.739897 0.618652 0.329224
O O3 0.752943 0.619469 0.442991
O O4 0.000000 0.618945 0.381914
O O5 0.750000 0.250000 0.822460
O O6 0.777276 0.360855 0.896091
O O7 0.768633 0.384974 0.784137
O O8 0.000000 0.320796 0.830825
O O9 0.500000 0.597502 0.085297
O O10 0.718328 0.500000 0.078704
O O11 0.696593 0.605561 0.000000
O O12 0.500000 0.618162 0.736061
O O13 0.327952 0.500000 0.731389
O O14 0.000000 0.118693 0.500000
O O15 0.170952 0.000000 0.500000
#
# Coordination Sequence:
#
# PCOD8271751 Si02
#       5
#    16  16  16  16   8
#     4   9  16  26  42  67  99 134 173 217 265 317
#     4  12  25  39  56  79 109 144 182 224 269 317
#     4   9  19  38  63  88 114 144 177 215 262 316
#     4  10  20  35  55  78 106 140 178 221 270 324
#     4   9  15  23  37  61  96 135 172 213 266 321
#
# _framework density 19.479088999999998
#
# number of rings (size 3 to 8) (size 9 to 14) (size 15 to 20)
#    0.000    2.111    0.000    5.000    0.000    9.333 
#    0.000    1.111    0.000    0.000    0.000    0.778 
#    0.000    0.000    0.000    0.000    0.000    0.000 
#
# Total GULP energy -446498.307139 kJ/mol
# GULP energy per Si atom -12402.730754 kJ/mol
# Density = 1.943475 g / cm^3
# Si number density = 19.479089 Si / 1000 Ang^3
#
#
#
# Elastic Constant Matrix: (Units=GPa)
#
#
# Indices 1 2 3 4 5 6 
#
# 1 168.4582 26.3913 63.2316 0.0000 0.0000 0.0000
# 2 26.3913 22.2416 18.9611 0.0000 0.0000 0.0000
# 3 63.2316 18.9611 124.1651 0.0000 0.0000 0.0000
# 4 0.0000 0.0000 0.0000 1.0996 0.0000 0.0000
# 5 0.0000 0.0000 0.0000 0.0000 35.0785 0.0000
# 6 0.0000 0.0000 0.0000 0.0000 0.0000 21.7508
#
#
#
# Elastic Compliance Matrix: (Units=1/GPa)
#
#
# Indices 1 2 3 4 5 6 
#
# 1 0.008211 -0.007103 -0.003097 0.000000 0.000000 0.000000
# 2 -0.007103 0.057835 -0.005214 0.000000 0.000000 0.000000
# 3 -0.003097 -0.005214 0.010427 0.000000 0.000000 0.000000
# 4 0.000000 0.000000 0.000000 0.909411 0.000000 0.000000
# 5 0.000000 0.000000 0.000000 0.000000 0.028507 0.000000
# 6 0.000000 0.000000 0.000000 0.000000 0.000000 0.045975
#
#
# Mechanical properties :
#
#
# Convention : Reuss Voigt Hill
#
# Bulk Modulus (GPa) = 21.90874 59.11478 40.51176
# Shear Modulus (GPa) = 4.51911 25.33785 14.92848
#
# Velocity S-wave (km/s) = 1.52480 3.61053 2.77137
# Velocity P-wave (km/s) = 3.79101 6.91339 5.57525
#
# Compressibility (1/GPa) = 0.04564388
#
# Stress axis : x y z
#
# Youngs Moduli (GPa) = 121.78049 17.29065 95.90258
#
# Poissons Ratio (x) = 0.12282 0.29701
# Poissons Ratio (y) = 0.86505 0.50008
# Poissons Ratio (z) = 0.37715 0.09016
#
# Static dielectric constant tensor:
#      x y z
#    x 3.732040 0.000000 0.000000 
#    y 0.000000 3.092120 0.000000 
#    z 0.000000 0.000000 3.723080 
# 
# 
# High freq. dielectric constant tensor:
#      x y z
#    x 1.770410 0.000000 0.000000 
#    y 0.000000 1.709740 0.000000 
#    z 0.000000 0.000000 1.776600 
# 
# From -- ./inp_files/64355.got.cif
#   From: 2010.03.12/outbox.cif.g09.slc.cpg/sg65_33_cif.got.tgz:64355.got - 2010.04.10 20:52:16.
