data_PCOD8271362
_publ_section_title
;
Structure prediction by ZEFSAII (Michael W. Deem and Ramdas Pophale) SiO2 
 PCOD8271362
Probable space group: C M M M
;
_chemical_formula_sum "Si O2"
_cell_formula_units_Z 104
_cell_length_a 9.657571
_cell_length_b 29.620002
_cell_length_c 19.831985
_cell_angle_alpha 90.000000
_cell_angle_beta 90.000000
_cell_angle_gamma 90.000000
_cell_volume 5673.083534
_symmetry_space_group_name_H-M "C M M M"
_symmetry_group_IT_number 65
_symmetry_cell_setting 'orthorhombic'
loop_
_space_group_symop_operation_xyz
x,y,z
-x,-y,z
x,-y,-z
-x,y,-z
-x,-y,-z
x,y,-z
-x,y,z
x,-y,z
1/2+x,1/2+y,z
1/2-x,1/2-y,z
1/2+x,1/2-y,-z
1/2-x,1/2+y,-z
1/2-x,1/2-y,-z
1/2+x,1/2+y,-z
1/2-x,1/2+y,z
1/2+x,1/2-y,z
loop_
_atom_site_type_symbol
_atom_site_label
_atom_site_fract_x
_atom_site_fract_y
_atom_site_fract_z
Si Si1 0.664052 0.207120 0.781169
Si Si2 0.500000 0.227228 0.425473
Si Si3 0.849001 0.574509 0.321880
Si Si4 0.341641 0.448445 0.921246
Si Si5 0.500000 0.674618 0.419848
Si Si6 0.163783 0.606641 0.819782
Si Si7 0.717309 0.830781 0.360495
Si Si8 0.665775 0.000000 0.577726
O O1 0.500000 0.218154 0.780074
O O2 0.750000 0.250000 0.811848
O O3 0.693204 0.160595 0.821720
O O4 0.722482 0.199227 0.706528
O O5 0.500000 0.245226 0.500000
O O6 0.500000 0.274877 0.387141
O O7 0.360452 0.199282 0.415302
O O8 0.776370 0.581575 0.248307
O O9 0.871497 0.624393 0.350718
O O10 0.775869 0.542701 0.378257
O O11 0.000000 0.553018 0.309414
O O12 0.500000 0.437647 0.901584
O O13 0.305722 0.500000 0.902085
O O14 0.239996 0.414713 0.883129
O O15 0.318008 0.440439 0.000000
O O16 0.500000 0.668490 0.500000
O O17 0.635429 0.651978 0.387948
O O18 0.000000 0.598132 0.824702
O O19 0.500000 0.000000 0.571828
O O20 0.724786 0.000000 0.500000
#
# Coordination Sequence:
#
# PCOD8271362 Si02
#       8
#    16   8  16  16   8  16  16   8
#     4  10  20  34  54  79 107 138 178 226 271 321
#     4  11  20  32  50  67  89 127 168 210 267 329
#     4   9  18  35  52  75 104 132 174 224 271 318
#     4   9  19  36  57  85 120 154 186 222 265 318
#     4  11  24  34  44  69  97 125 166 214 271 335
#     4   9  19  34  54  83 115 145 182 226 274 324
#     4  11  20  35  50  69  96 130 168 216 271 322
#     4   9  18  30  50  77 100 131 178 226 275 329
#
# _framework density 18.332182
#
# number of rings (size 3 to 8) (size 9 to 14) (size 15 to 20)
#    0.000    2.231    1.538    3.231    2.154    3.692 
#    4.154    0.769    0.000    0.923    0.000    1.077 
#    0.000    0.000    0.000    0.000    0.000    0.000 
#
# Total GULP energy -644180.922864 kJ/mol
# GULP energy per Si atom -12388.094670 kJ/mol
# Density = 1.829046 g / cm^3
# Si number density = 18.332182 Si / 1000 Ang^3
#
#
#
# Elastic Constant Matrix: (Units=GPa)
#
#
# Indices 1 2 3 4 5 6 
#
# 1 81.7973 28.6785 38.4113 0.0000 0.0000 0.0000
# 2 28.6785 101.5845 52.6981 0.0000 0.0000 0.0000
# 3 38.4113 52.6981 77.4592 0.0000 0.0000 0.0000
# 4 0.0000 0.0000 0.0000 24.7724 0.0000 0.0000
# 5 0.0000 0.0000 0.0000 0.0000 26.0029 0.0000
# 6 0.0000 0.0000 0.0000 0.0000 0.0000 -7.4732
#
#
#
# Elastic Compliance Matrix: (Units=1/GPa)
#
#
# Indices 1 2 3 4 5 6 
#
# 1 0.015961 -0.000618 -0.007495 0.000000 0.000000 0.000000
# 2 -0.000618 0.015237 -0.010060 0.000000 0.000000 0.000000
# 3 -0.007495 -0.010060 0.023471 0.000000 0.000000 0.000000
# 4 0.000000 0.000000 0.000000 0.040367 0.000000 0.000000
# 5 0.000000 0.000000 0.000000 0.000000 0.038457 0.000000
# 6 0.000000 0.000000 0.000000 0.000000 0.000000 -0.133811
#
#
# Mechanical properties :
#
#
# Convention : Reuss Voigt Hill
#
# Bulk Modulus (GPa) = 54.57313 55.60185 55.08749
# Shear Modulus (GPa) = 118.66425 18.06396 68.36411
#
# Velocity S-wave (km/s) = 8.05423 3.14246 6.11333
# Velocity P-wave (km/s) = 10.78553 6.60021 8.94121
#
# Compressibility (1/GPa) = 0.01832404
#
# Stress axis : x y z
#
# Youngs Moduli (GPa) = 62.65092 65.62882 42.60661
#
# Poissons Ratio (x) = 0.04057 0.31932
# Poissons Ratio (y) = 0.03873 0.42861
# Poissons Ratio (z) = 0.46954 0.66021
#
# Static dielectric constant tensor:
#      x y z
#    x 3.148320 0.000000 0.000000 
#    y 0.000000 3.386380 0.000000 
#    z 0.000000 0.000000 3.190560 
# 
# 
# High freq. dielectric constant tensor:
#      x y z
#    x 1.689150 0.000000 0.000000 
#    y 0.000000 1.714510 0.000000 
#    z 0.000000 0.000000 1.688390 
# 
# From -- ./inp_files/60941.got.cif
#   From: 2010.03.12/outbox.cif.g09.slc.cpg/sg65_31_cif.got.tgz:60941.got - 2010.04.10 20:52:16.
