data_PCOD8271204
_publ_section_title
;
Structure prediction by ZEFSAII (Michael W. Deem and Ramdas Pophale) SiO2 
 PCOD8271204
Probable space group: C M M M
;
_chemical_formula_sum "Si O2"
_cell_formula_units_Z 88
_cell_length_a 9.015718
_cell_length_b 17.870508
_cell_length_c 28.694176
_cell_angle_alpha 90.000000
_cell_angle_beta 90.000000
_cell_angle_gamma 90.000000
_cell_volume 4623.075384
_symmetry_space_group_name_H-M "C M M M"
_symmetry_group_IT_number 65
_symmetry_cell_setting 'orthorhombic'
loop_
_space_group_symop_operation_xyz
x,y,z
-x,-y,z
x,-y,-z
-x,y,-z
-x,-y,-z
x,y,-z
-x,y,z
x,-y,z
1/2+x,1/2+y,z
1/2-x,1/2-y,z
1/2+x,1/2-y,-z
1/2-x,1/2+y,-z
1/2-x,1/2-y,-z
1/2+x,1/2+y,-z
1/2-x,1/2+y,z
1/2+x,1/2-y,z
loop_
_atom_site_type_symbol
_atom_site_label
_atom_site_fract_x
_atom_site_fract_y
_atom_site_fract_z
Si Si1 0.323668 0.329810 0.766774
Si Si2 0.832092 0.410756 0.500000
Si Si3 0.325315 0.584763 0.858456
Si Si4 0.832211 0.588891 0.050767
Si Si5 0.168366 0.588827 0.316117
Si Si6 0.332148 0.589164 0.408185
O O1 0.500000 0.323042 0.764033
O O2 0.250000 0.250000 0.760482
O O3 0.270176 0.364867 0.815676
O O4 0.267773 0.383707 0.726323
O O5 0.832390 0.500000 0.500000
O O6 0.747409 0.379913 0.454534
O O7 0.000000 0.380149 0.500000
O O8 0.500000 0.584556 0.861857
O O9 0.265803 0.500000 0.851111
O O10 0.264237 0.620831 0.906507
O O11 0.822742 0.500000 0.051006
O O12 0.000000 0.616014 0.058220
O O13 0.774183 0.617832 0.000000
O O14 0.169667 0.500000 0.315468
O O15 0.240788 0.619274 0.363818
O O16 0.000000 0.619302 0.312394
O O17 0.500000 0.620104 0.406153
O O18 0.333151 0.500000 0.408628
#
# Coordination Sequence:
#
# PCOD8271204 Si02
#       6
#    16   8  16  16  16  16
#     4  11  23  38  54  73 100 133 170 212 258 307
#     4   9  15  23  37  61  96 133 166 203 248 297
#     4   9  18  32  51  75 101 130 164 203 248 297
#     4   8  14  25  43  70 102 131 159 195 240 289
#     4  10  20  34  53  77 103 132 169 211 255 304
#     4   9  16  26  42  66  97 132 167 204 249 299
#
# _framework density 19.034946999999999
#
# number of rings (size 3 to 8) (size 9 to 14) (size 15 to 20)
#    0.000    2.636    0.000    3.000    0.000    6.909 
#    0.000    3.636    0.000    0.545    0.000    0.636 
#    0.000    0.000    0.000    0.000    0.000    0.000 
#
# Total GULP energy -545496.865150 kJ/mol
# GULP energy per Si atom -12397.656026 kJ/mol
# Density = 1.899162 g / cm^3
# Si number density = 19.034947 Si / 1000 Ang^3
#
#
#
# Elastic Constant Matrix: (Units=GPa)
#
#
# Indices 1 2 3 4 5 6 
#
# 1 96.5201 17.6855 62.1833 0.0000 0.0000 0.0000
# 2 17.6855 14.5628 15.8692 0.0000 0.0000 0.0000
# 3 62.1833 15.8692 175.5456 0.0000 0.0000 0.0000
# 4 0.0000 0.0000 0.0000 -0.3090 0.0000 0.0000
# 5 0.0000 0.0000 0.0000 0.0000 42.1811 0.0000
# 6 0.0000 0.0000 0.0000 0.0000 0.0000 17.3418
#
#
#
# Elastic Compliance Matrix: (Units=1/GPa)
#
#
# Indices 1 2 3 4 5 6 
#
# 1 0.015771 -0.014493 -0.004276 0.000000 0.000000 0.000000
# 2 -0.014493 0.089490 -0.002956 0.000000 0.000000 0.000000
# 3 -0.004276 -0.002956 0.007479 0.000000 0.000000 0.000000
# 4 0.000000 0.000000 0.000000 -3.236549 0.000000 0.000000
# 5 0.000000 0.000000 0.000000 0.000000 0.023707 0.000000
# 6 0.000000 0.000000 0.000000 0.000000 0.000000 0.057664
#
#
# Mechanical properties :
#
#
# Convention : Reuss Voigt Hill
#
# Bulk Modulus (GPa) = 14.43232 53.12272 33.77752
# Shear Modulus (GPa) = -1.68017 24.56882 11.44433
#
# Velocity S-wave (km/s) = -0.94053 3.59656 2.45465
# Velocity P-wave (km/s) = 2.53358 6.72425 5.08107
#
# Compressibility (1/GPa) = 0.06928893
#
# Stress axis : x y z
#
# Youngs Moduli (GPa) = 63.40671 11.17445 133.71503
#
# Poissons Ratio (x) = 0.16195 0.57183
# Poissons Ratio (y) = 0.91895 0.39526
# Poissons Ratio (z) = 0.27116 0.03303
#
# Static dielectric constant tensor:
#      x y z
#    x 3.628800 0.000000 0.000000 
#    y 0.000000 2.937550 0.000000 
#    z 0.000000 0.000000 3.930030 
# 
# 
# High freq. dielectric constant tensor:
#      x y z
#    x 1.746730 0.000000 0.000000 
#    y 0.000000 1.677110 0.000000 
#    z 0.000000 0.000000 1.762480 
# 
# From -- ./inp_files/76540.got.cif
#   From: 2010.03.12/outbox.cif.g09.slc.cpg/sg65_39_cif.got.tgz:76540.got - 2010.04.10 20:52:16.
