data_PCOD8271405
_publ_section_title
;
Structure prediction by ZEFSAII (Michael W. Deem and Ramdas Pophale) SiO2 
 PCOD8271405
Probable space group: C M M M
;
_chemical_formula_sum "Si O2"
_cell_formula_units_Z 88
_cell_length_a 28.528325
_cell_length_b 9.104374
_cell_length_c 17.877913
_cell_angle_alpha 90.000000
_cell_angle_beta 90.000000
_cell_angle_gamma 90.000000
_cell_volume 4643.475760
_symmetry_space_group_name_H-M "C M M M"
_symmetry_group_IT_number 65
_symmetry_cell_setting 'orthorhombic'
loop_
_space_group_symop_operation_xyz
x,y,z
-x,-y,z
x,-y,-z
-x,y,-z
-x,-y,-z
x,y,-z
-x,y,z
x,-y,z
1/2+x,1/2+y,z
1/2-x,1/2-y,z
1/2+x,1/2-y,-z
1/2-x,1/2+y,-z
1/2-x,1/2-y,-z
1/2+x,1/2+y,-z
1/2-x,1/2+y,z
1/2+x,1/2-y,z
loop_
_atom_site_type_symbol
_atom_site_label
_atom_site_fract_x
_atom_site_fract_y
_atom_site_fract_z
Si Si1 0.052486 0.671370 0.184500
Si Si2 0.352177 0.171570 0.585362
Si Si3 0.299553 0.673644 0.000000
Si Si4 0.858889 0.828158 0.858417
Si Si5 0.298748 0.326161 0.285085
Si Si6 0.949374 0.325893 0.353714
O O1 0.063458 0.500000 0.180832
O O2 0.090318 0.753806 0.133671
O O3 0.057640 0.730496 0.269209
O O4 0.000000 0.704689 0.154634
O O5 0.337457 0.199003 0.500000
O O6 0.317516 0.265447 0.636291
O O7 0.405847 0.227894 0.596082
O O8 0.347891 0.000000 0.606915
O O9 0.250000 0.750000 0.000000
O O10 0.327228 0.727393 0.073250
O O11 0.291953 0.500000 0.000000
O O12 0.834658 0.782976 0.780473
O O13 0.866831 0.000000 0.863767
O O14 0.291357 0.500000 0.291139
O O15 0.250000 0.250000 0.265243
O O16 0.951383 0.500000 0.353306
O O17 0.000000 0.267011 0.384504
#
# Coordination Sequence:
#
# PCOD8271405 Si02
#       6
#    16  16   8  16  16  16
#     4   9  17  31  55  84 112 145 184 223 263 313
#     4  10  20  34  54  80 109 142 180 223 271 320
#     4  10  22  40  59  84 115 143 180 227 277 328
#     4  10  21  37  58  84 112 143 178 221 272 327
#     4  11  23  38  57  79 103 137 180 224 273 326
#     4   8  14  27  49  78 109 139 174 217 262 309
#
# _framework density 18.951319999999999
#
# number of rings (size 3 to 8) (size 9 to 14) (size 15 to 20)
#    0.000    2.364    1.818    2.182    0.000    2.909 
#    0.000    2.273    0.000    3.273    0.000    1.273 
#    0.000    0.000    0.000    0.000    0.000    0.000 
#
# Total GULP energy -545531.680449 kJ/mol
# GULP energy per Si atom -12398.447283 kJ/mol
# Density = 1.890819 g / cm^3
# Si number density = 18.951320 Si / 1000 Ang^3
#
#
#
# Elastic Constant Matrix: (Units=GPa)
#
#
# Indices 1 2 3 4 5 6 
#
# 1 135.6721 52.3260 51.0031 0.0000 0.0000 0.0000
# 2 52.3260 50.6204 36.8468 0.0000 0.0000 0.0000
# 3 51.0031 36.8468 94.8065 0.0000 0.0000 0.0000
# 4 0.0000 0.0000 0.0000 22.0506 0.0000 0.0000
# 5 0.0000 0.0000 0.0000 0.0000 27.6497 0.0000
# 6 0.0000 0.0000 0.0000 0.0000 0.0000 31.1163
#
#
#
# Elastic Compliance Matrix: (Units=1/GPa)
#
#
# Indices 1 2 3 4 5 6 
#
# 1 0.012637 -0.011316 -0.002401 0.000000 0.000000 0.000000
# 2 -0.011316 0.037681 -0.008557 0.000000 0.000000 0.000000
# 3 -0.002401 -0.008557 0.015165 0.000000 0.000000 0.000000
# 4 0.000000 0.000000 0.000000 0.045350 0.000000 0.000000
# 5 0.000000 0.000000 0.000000 0.000000 0.036167 0.000000
# 6 0.000000 0.000000 0.000000 0.000000 0.000000 0.032137
#
#
# Mechanical properties :
#
#
# Convention : Reuss Voigt Hill
#
# Bulk Modulus (GPa) = 47.76458 62.38340 55.07399
# Shear Modulus (GPa) = 21.67658 25.55819 23.61739
#
# Velocity S-wave (km/s) = 3.38568 3.67634 3.53400
# Velocity P-wave (km/s) = 6.36729 7.14212 6.76580
#
# Compressibility (1/GPa) = 0.02093602
#
# Stress axis : x y z
#
# Youngs Moduli (GPa) = 79.12969 26.53875 65.94115
#
# Poissons Ratio (x) = 0.30031 0.15830
# Poissons Ratio (y) = 0.89542 0.56427
# Poissons Ratio (z) = 0.18996 0.22710
#
# Static dielectric constant tensor:
#      x y z
#    x 3.833300 0.000000 0.000000 
#    y 0.000000 3.164120 0.000000 
#    z 0.000000 0.000000 3.410530 
# 
# 
# High freq. dielectric constant tensor:
#      x y z
#    x 1.752960 0.000000 0.000000 
#    y 0.000000 1.708040 0.000000 
#    z 0.000000 0.000000 1.722880 
# 
# From -- ./inp_files/50452.got.cif
#   From: 2010.03.12/outbox.cif.g09.slc.cpg/sg65_26_cif.got.tgz:50452.got - 2010.04.10 20:52:16.
