data_PCOD8271535
_publ_section_title
;
Structure prediction by ZEFSAII (Michael W. Deem and Ramdas Pophale) SiO2 
 PCOD8271535
Probable space group: C M M M
;
_chemical_formula_sum "Si O2"
_cell_formula_units_Z 88
_cell_length_a 19.429423
_cell_length_b 7.956194
_cell_length_c 29.186942
_cell_angle_alpha 90.000000
_cell_angle_beta 90.000000
_cell_angle_gamma 90.000000
_cell_volume 4511.841793
_symmetry_space_group_name_H-M "C M M M"
_symmetry_group_IT_number 65
_symmetry_cell_setting 'orthorhombic'
loop_
_space_group_symop_operation_xyz
x,y,z
-x,-y,z
x,-y,-z
-x,y,-z
-x,-y,-z
x,y,-z
-x,y,z
x,-y,z
1/2+x,1/2+y,z
1/2-x,1/2-y,z
1/2+x,1/2-y,-z
1/2-x,1/2+y,-z
1/2-x,1/2-y,-z
1/2+x,1/2+y,-z
1/2-x,1/2+y,z
1/2+x,1/2-y,z
loop_
_atom_site_type_symbol
_atom_site_label
_atom_site_fract_x
_atom_site_fract_y
_atom_site_fract_z
Si Si1 0.675002 0.303074 0.705945
Si Si2 0.079904 0.310992 0.111834
Si Si3 0.423818 0.195297 0.628702
Si Si4 0.825486 0.301182 0.551081
Si Si5 0.674881 0.302219 0.810353
Si Si6 0.418252 0.500000 0.948773
O O1 0.666815 0.500000 0.702069
O O2 0.750000 0.250000 0.687309
O O3 0.615347 0.218869 0.676434
O O4 0.665837 0.240692 0.758098
O O5 0.091722 0.500000 0.091966
O O6 0.118610 0.294398 0.159910
O O7 0.107928 0.169786 0.076482
O O8 0.000000 0.279018 0.121896
O O9 0.500000 0.278370 0.631028
O O10 0.380713 0.277043 0.586627
O O11 0.431844 0.000000 0.619096
O O12 0.839540 0.228381 0.500000
O O13 0.831018 0.500000 0.550541
O O14 0.750000 0.250000 0.568275
O O15 0.663791 0.500000 0.815274
O O16 0.750000 0.250000 0.828459
O O17 0.500000 0.500000 0.951039
O O18 0.387162 0.500000 0.000000
#
# Coordination Sequence:
#
# PCOD8271535 Si02
#       6
#    16  16  16  16  16   8
#     4  10  21  36  55  77 104 138 178 220 262 318
#     4  10  20  34  55  84 114 147 188 232 280 331
#     4  10  21  35  51  74 105 139 173 215 268 319
#     4   9  18  33  53  75  98 129 172 218 265 318
#     4  10  20  35  55  80 108 142 182 225 275 328
#     4   9  18  34  56  82 114 150 189 235 280 328
#
# _framework density 19.504231999999998
#
# number of rings (size 3 to 8) (size 9 to 14) (size 15 to 20)
#    0.000    2.273    0.909    1.636    0.000    6.182 
#    0.000    7.273    0.000    0.545    0.000    3.818 
#    0.000    0.000    0.000    0.000    0.000    0.000 
#
# Total GULP energy -545571.913808 kJ/mol
# GULP energy per Si atom -12399.361677 kJ/mol
# Density = 1.945984 g / cm^3
# Si number density = 19.504232 Si / 1000 Ang^3
#
#
#
# Elastic Constant Matrix: (Units=GPa)
#
#
# Indices 1 2 3 4 5 6 
#
# 1 127.2649 27.9378 74.2457 0.0000 0.0000 0.0000
# 2 27.9378 71.5565 34.5662 0.0000 0.0000 0.0000
# 3 74.2457 34.5662 119.3938 0.0000 0.0000 0.0000
# 4 0.0000 0.0000 0.0000 21.7119 0.0000 0.0000
# 5 0.0000 0.0000 0.0000 0.0000 27.8241 0.0000
# 6 0.0000 0.0000 0.0000 0.0000 0.0000 24.8558
#
#
#
# Elastic Compliance Matrix: (Units=1/GPa)
#
#
# Indices 1 2 3 4 5 6 
#
# 1 0.012435 -0.001302 -0.007356 0.000000 0.000000 0.000000
# 2 -0.001302 0.016383 -0.003934 0.000000 0.000000 0.000000
# 3 -0.007356 -0.003934 0.014089 0.000000 0.000000 0.000000
# 4 0.000000 0.000000 0.000000 0.046058 0.000000 0.000000
# 5 0.000000 0.000000 0.000000 0.000000 0.035940 0.000000
# 6 0.000000 0.000000 0.000000 0.000000 0.000000 0.040232
#
#
# Mechanical properties :
#
#
# Convention : Reuss Voigt Hill
#
# Bulk Modulus (GPa) = 56.41903 65.74608 61.08255
# Shear Modulus (GPa) = 25.48065 26.97604 26.22835
#
# Velocity S-wave (km/s) = 3.61836 3.72302 3.67106
# Velocity P-wave (km/s) = 6.81513 7.22931 7.02528
#
# Compressibility (1/GPa) = 0.01772452
#
# Stress axis : x y z
#
# Youngs Moduli (GPa) = 80.42036 61.03727 70.97861
#
# Poissons Ratio (x) = 0.07945 0.52210
# Poissons Ratio (y) = 0.10467 0.27922
# Poissons Ratio (z) = 0.59155 0.24011
#
# Static dielectric constant tensor:
#      x y z
#    x 3.597830 0.000000 0.000000 
#    y 0.000000 3.566910 0.000000 
#    z 0.000000 0.000000 3.706630 
# 
# 
# High freq. dielectric constant tensor:
#      x y z
#    x 1.746890 0.000000 0.000000 
#    y 0.000000 1.759280 0.000000 
#    z 0.000000 0.000000 1.755300 
# 
# From -- ./inp_files/77844.got.cif
#   From: 2010.03.12/outbox.cif.g09.slc.cpg/sg65_39_cif.got.tgz:77844.got - 2010.04.10 20:52:16.
