data_PCOD8271288
_publ_section_title
;
Structure prediction by ZEFSAII (Michael W. Deem and Ramdas Pophale) SiO2 
 PCOD8271288
Probable space group: C M M M
;
_chemical_formula_sum "Si O2"
_cell_formula_units_Z 104
_cell_length_a 27.210318
_cell_length_b 22.778184
_cell_length_c 8.171783
_cell_angle_alpha 90.000000
_cell_angle_beta 90.000000
_cell_angle_gamma 90.000000
_cell_volume 5064.884424
_symmetry_space_group_name_H-M "C M M M"
_symmetry_group_IT_number 65
_symmetry_cell_setting 'orthorhombic'
loop_
_space_group_symop_operation_xyz
x,y,z
-x,-y,z
x,-y,-z
-x,y,-z
-x,-y,-z
x,y,-z
-x,y,z
x,-y,z
1/2+x,1/2+y,z
1/2-x,1/2-y,z
1/2+x,1/2-y,-z
1/2-x,1/2+y,-z
1/2-x,1/2-y,-z
1/2+x,1/2+y,-z
1/2-x,1/2+y,z
1/2+x,1/2-y,z
loop_
_atom_site_type_symbol
_atom_site_label
_atom_site_fract_x
_atom_site_fract_y
_atom_site_fract_z
Si Si1 0.945980 0.121820 0.823732
Si Si2 0.944912 0.363540 0.193236
Si Si3 0.778770 0.333754 0.309809
Si Si4 0.149509 0.432901 0.805940
Si Si5 0.941607 0.933326 0.500000
Si Si6 0.579670 0.264770 0.687351
Si Si7 0.683496 0.713327 0.811014
O O1 0.918103 0.094323 0.665937
O O2 0.953512 0.191563 0.794408
O O3 0.000000 0.093338 0.836354
O O4 0.919028 0.110201 0.000000
O O5 0.904237 0.410356 0.255715
O O6 0.925705 0.300647 0.248426
O O7 0.000000 0.376975 0.264015
O O8 0.947614 0.365237 0.000000
O O9 0.786457 0.319045 0.500000
O O10 0.806284 0.394448 0.268771
O O11 0.720871 0.335159 0.264970
O O12 0.798750 0.280549 0.200588
O O13 0.155910 0.500000 0.746374
O O14 0.152571 0.428134 0.000000
O O15 0.000000 0.922057 0.500000
O O16 0.926332 0.000000 0.500000
O O17 0.562919 0.267139 0.500000
O O18 0.634278 0.290499 0.706301
O O19 0.673529 0.698301 0.000000
#
# Coordination Sequence:
#
# PCOD8271288 Si02
#       7
#    16  16  16  16   8  16  16
#     4  10  20  34  53  80 114 153 196 240 289 348
#     4  10  21  36  55  82 118 161 208 256 305 359
#     4  11  21  36  57  86 116 145 185 236 295 353
#     4  10  21  38  60  84 115 159 207 251 298 358
#     4   9  18  34  54  78 108 143 187 237 283 336
#     4  12  22  34  54  84 120 157 194 243 304 364
#     4  11  21  35  58  85 115 146 182 236 292 353
#
# _framework density 20.533538
#
# number of rings (size 3 to 8) (size 9 to 14) (size 15 to 20)
#    0.000    1.462    2.308    5.538    0.000    3.077 
#    0.000    3.077    0.000    0.923    0.000    2.154 
#    0.000    0.000    0.000    0.000    0.000    0.000 
#
# Total GULP energy -644391.737147 kJ/mol
# GULP energy per Si atom -12392.148791 kJ/mol
# Density = 2.048680 g / cm^3
# Si number density = 20.533538 Si / 1000 Ang^3
#
#
#
# Elastic Constant Matrix: (Units=GPa)
#
#
# Indices 1 2 3 4 5 6 
#
# 1 106.4935 49.3915 -34.8870 0.0000 0.0000 0.0000
# 2 49.3915 114.4884 100.6289 0.0000 0.0000 0.0000
# 3 -34.8870 100.6289 -294.9966 0.0000 0.0000 0.0000
# 4 0.0000 0.0000 0.0000 21.9469 0.0000 0.0000
# 5 0.0000 0.0000 0.0000 0.0000 16.3619 0.0000
# 6 0.0000 0.0000 0.0000 0.0000 0.0000 31.9983
#
#
#
# Elastic Compliance Matrix: (Units=1/GPa)
#
#
# Indices 1 2 3 4 5 6 
#
# 1 0.009884 -0.002490 -0.002018 0.000000 0.000000 0.000000
# 2 -0.002490 0.007347 0.002801 0.000000 0.000000 0.000000
# 3 -0.002018 0.002801 -0.002196 0.000000 0.000000 0.000000
# 4 0.000000 0.000000 0.000000 0.045565 0.000000 0.000000
# 5 0.000000 0.000000 0.000000 0.000000 0.061118 0.000000
# 6 0.000000 0.000000 0.000000 0.000000 0.000000 0.031252
#
#
# Mechanical properties :
#
#
# Convention : Reuss Voigt Hill
#
# Bulk Modulus (GPa) = 86.05926 17.36137 51.71032
# Shear Modulus (GPa) = 31.19973 1.45153 16.32563
#
# Velocity S-wave (km/s) = 3.90224 0.84169 2.82276
# Velocity P-wave (km/s) = 7.89341 3.06889 5.98849
#
# Compressibility (1/GPa) = 0.01161990
#
# Stress axis : x y z
#
# Youngs Moduli (GPa) = 101.17426 136.10848 -455.41381
#
# Poissons Ratio (x) = 0.33892 -0.91916
# Poissons Ratio (y) = 0.25193 1.27548
# Poissons Ratio (z) = 0.20420 -0.38120
#
# Static dielectric constant tensor:
#      x y z
#    x 3.638620 0.000000 0.000000 
#    y 0.000000 3.621500 0.000000 
#    z 0.000000 0.000000 3.839710 
# 
# 
# High freq. dielectric constant tensor:
#      x y z
#    x 1.790240 0.000000 0.000000 
#    y 0.000000 1.777280 0.000000 
#    z 0.000000 0.000000 1.812640 
# 
# From -- ./inp_files/18612.got.cif
#   From: 2010.03.12/outbox.cif.g09.slc.cpg/sg65_10_cif.got.tgz:18612.got - 2010.04.10 20:52:16.
