data_PCOD8271399
_publ_section_title
;
Structure prediction by ZEFSAII (Michael W. Deem and Ramdas Pophale) SiO2 
 PCOD8271399
Probable space group: C M M M
;
_chemical_formula_sum "Si O2"
_cell_formula_units_Z 104
_cell_length_a 8.975270
_cell_length_b 19.708559
_cell_length_c 32.286296
_cell_angle_alpha 90.000000
_cell_angle_beta 90.000000
_cell_angle_gamma 90.000000
_cell_volume 5711.111223
_symmetry_space_group_name_H-M "C M M M"
_symmetry_group_IT_number 65
_symmetry_cell_setting 'orthorhombic'
loop_
_space_group_symop_operation_xyz
x,y,z
-x,-y,z
x,-y,-z
-x,y,-z
-x,-y,-z
x,y,-z
-x,y,z
x,-y,z
1/2+x,1/2+y,z
1/2-x,1/2-y,z
1/2+x,1/2-y,-z
1/2-x,1/2+y,-z
1/2-x,1/2-y,-z
1/2+x,1/2+y,-z
1/2-x,1/2+y,z
1/2+x,1/2-y,z
loop_
_atom_site_type_symbol
_atom_site_label
_atom_site_fract_x
_atom_site_fract_y
_atom_site_fract_z
Si Si1 0.827140 0.181058 0.259887
Si Si2 0.673232 0.920809 0.200282
Si Si3 0.173871 0.579613 0.416925
Si Si4 0.673488 0.319335 0.356715
Si Si5 0.168173 0.080588 0.500000
Si Si6 0.326193 0.577734 0.116229
Si Si7 0.175224 0.819075 0.953301
O O1 0.750000 0.250000 0.244362
O O2 0.756440 0.117288 0.236996
O O3 0.798933 0.169737 0.308277
O O4 0.000000 0.186141 0.248948
O O5 0.500000 0.903306 0.202085
O O6 0.736215 0.896465 0.156120
O O7 0.705323 0.000000 0.206739
O O8 0.203294 0.500000 0.410971
O O9 0.251238 0.616993 0.378847
O O10 0.245792 0.607002 0.459495
O O11 0.000000 0.596619 0.417907
O O12 0.500000 0.315998 0.367913
O O13 0.750000 0.250000 0.372076
O O14 0.000000 0.109426 0.500000
O O15 0.167465 0.000000 0.500000
O O16 0.500000 0.588059 0.125589
O O17 0.288366 0.500000 0.105976
O O18 0.272730 0.620494 0.076624
O O19 0.250000 0.750000 0.937710
O O20 0.000000 0.808578 0.951295
O O21 0.227044 0.837123 0.000000
#
# Coordination Sequence:
#
# PCOD8271399 Si02
#       7
#    16  16  16  16   8  16  16
#     4  10  21  37  57  79 104 136 174 215 259 310
#     4  10  21  36  54  77 106 138 172 213 259 307
#     4  10  20  34  54  80 109 141 177 216 259 309
#     4  10  21  37  56  78 106 139 174 214 261 311
#     4   9  17  31  52  77 106 139 176 219 263 307
#     4   9  18  33  52  73  99 132 169 209 253 301
#     4   9  18  32  50  73 100 130 165 206 252 301
#
# _framework density 18.210114999999998
#
# number of rings (size 3 to 8) (size 9 to 14) (size 15 to 20)
#    0.000    2.385    0.000    2.077    0.000    6.769 
#    0.000    6.538    0.000    0.000    0.000    4.308 
#    0.000    0.000    0.000    0.000    0.000    0.000 
#
# Total GULP energy -644987.296234 kJ/mol
# GULP energy per Si atom -12403.601851 kJ/mol
# Density = 1.816867 g / cm^3
# Si number density = 18.210115 Si / 1000 Ang^3
#
#
#
# Elastic Constant Matrix: (Units=GPa)
#
#
# Indices 1 2 3 4 5 6 
#
# 1 113.9897 56.8777 64.1335 0.0000 0.0000 0.0000
# 2 56.8777 82.7897 63.0846 0.0000 0.0000 0.0000
# 3 64.1335 63.0846 94.2834 0.0000 0.0000 0.0000
# 4 0.0000 0.0000 0.0000 21.4976 0.0000 0.0000
# 5 0.0000 0.0000 0.0000 0.0000 30.9104 0.0000
# 6 0.0000 0.0000 0.0000 0.0000 0.0000 33.4743
#
#
#
# Elastic Compliance Matrix: (Units=1/GPa)
#
#
# Indices 1 2 3 4 5 6 
#
# 1 0.015254 -0.005250 -0.006863 0.000000 0.000000 0.000000
# 2 -0.005250 0.026449 -0.014126 0.000000 0.000000 0.000000
# 3 -0.006863 -0.014126 0.024727 0.000000 0.000000 0.000000
# 4 0.000000 0.000000 0.000000 0.046517 0.000000 0.000000
# 5 0.000000 0.000000 0.000000 0.000000 0.032352 0.000000
# 6 0.000000 0.000000 0.000000 0.000000 0.000000 0.029874
#
#
# Mechanical properties :
#
#
# Convention : Reuss Voigt Hill
#
# Bulk Modulus (GPa) = 71.67810 73.25053 72.46431
# Shear Modulus (GPa) = 21.52383 24.30758 22.91570
#
# Velocity S-wave (km/s) = 3.44171 3.65751 3.55125
# Velocity P-wave (km/s) = 7.43243 7.62555 7.52961
#
# Compressibility (1/GPa) = 0.01395126
#
# Stress axis : x y z
#
# Youngs Moduli (GPa) = 65.55807 37.80798 40.44225
#
# Poissons Ratio (x) = 0.19848 0.27756
# Poissons Ratio (y) = 0.34417 0.57130
# Poissons Ratio (z) = 0.44994 0.53408
#
# Static dielectric constant tensor:
#      x y z
#    x 3.473460 0.000000 0.000000 
#    y 0.000000 3.304520 0.000000 
#    z 0.000000 0.000000 3.429270 
# 
# 
# High freq. dielectric constant tensor:
#      x y z
#    x 1.716430 0.000000 0.000000 
#    y 0.000000 1.696570 0.000000 
#    z 0.000000 0.000000 1.708810 
# 
# From -- ./inp_files/73311.got.cif
#   From: 2010.03.12/outbox.cif.g09.slc.cpg/sg65_37_cif.got.tgz:73311.got - 2010.04.10 20:52:16.
