data_PCOD8271528
_publ_section_title
;
Structure prediction by ZEFSAII (Michael W. Deem and Ramdas Pophale) SiO2 
 PCOD8271528
Probable space group: C M M M
;
_chemical_formula_sum "Si O2"
_cell_formula_units_Z 80
_cell_length_a 9.409847
_cell_length_b 26.483190
_cell_length_c 16.939755
_cell_angle_alpha 90.000000
_cell_angle_beta 90.000000
_cell_angle_gamma 90.000000
_cell_volume 4221.433801
_symmetry_space_group_name_H-M "C M M M"
_symmetry_group_IT_number 65
_symmetry_cell_setting 'orthorhombic'
loop_
_space_group_symop_operation_xyz
x,y,z
-x,-y,z
x,-y,-z
-x,y,-z
-x,-y,-z
x,y,-z
-x,y,z
x,-y,z
1/2+x,1/2+y,z
1/2-x,1/2-y,z
1/2+x,1/2-y,-z
1/2-x,1/2+y,-z
1/2-x,1/2-y,-z
1/2+x,1/2+y,-z
1/2-x,1/2+y,z
1/2+x,1/2-y,z
loop_
_atom_site_type_symbol
_atom_site_label
_atom_site_fract_x
_atom_site_fract_y
_atom_site_fract_z
Si Si1 0.500000 0.444913 0.909034
Si Si2 0.500000 0.939640 0.906506
Si Si3 0.663701 0.442358 0.651082
Si Si4 0.164914 0.353069 0.409761
Si Si5 0.235632 0.099878 0.184055
Si Si6 0.328334 0.699496 0.274115
O O1 0.500000 0.500000 0.866433
O O2 0.631728 0.411391 0.886727
O O3 0.500000 0.455227 0.000000
O O4 0.380096 0.912078 0.857905
O O5 0.500000 0.000000 0.895233
O O6 0.500000 0.926589 0.000000
O O7 0.500000 0.424391 0.640057
O O8 0.681978 0.500000 0.624337
O O9 0.769033 0.409109 0.597664
O O10 0.706580 0.436791 0.742237
O O11 0.172828 0.335227 0.500000
O O12 0.261479 0.315011 0.358979
O O13 0.000000 0.353322 0.380642
O O14 0.217070 0.157594 0.210745
O O15 0.500000 0.705284 0.280305
O O16 0.250000 0.750000 0.245212
#
# Coordination Sequence:
#
# PCOD8271528 Si02
#       6
#     8   8  16  16  16  16
#     4  11  20  34  61  91 122 159 195 237 291 349
#     4  11  24  38  57  91 130 165 197 235 293 355
#     4  10  20  34  55  83 117 162 208 247 293 350
#     4  10  22  39  58  86 122 155 194 245 299 356
#     4  11  21  38  58  87 123 158 199 249 291 349
#     4  11  24  42  67  92 114 153 203 251 304 355
#
# _framework density 18.950906
#
# number of rings (size 3 to 8) (size 9 to 14) (size 15 to 20)
#    0.000    1.400    2.000    4.800    7.000    4.400 
#    0.000    2.000    0.000    3.600    0.000    0.000 
#    0.000    0.000    0.000    0.000    0.000    0.000 
#
# Total GULP energy -495704.599977 kJ/mol
# GULP energy per Si atom -12392.614999 kJ/mol
# Density = 1.890777 g / cm^3
# Si number density = 18.950906 Si / 1000 Ang^3
#
#
#
# Elastic Constant Matrix: (Units=GPa)
#
#
# Indices 1 2 3 4 5 6 
#
# 1 181.9782 62.6765 51.9037 0.0000 0.0000 0.0000
# 2 62.6765 125.1048 43.8506 0.0000 0.0000 0.0000
# 3 51.9037 43.8506 80.6227 0.0000 0.0000 0.0000
# 4 0.0000 0.0000 0.0000 19.6445 0.0000 0.0000
# 5 0.0000 0.0000 0.0000 0.0000 36.2347 0.0000
# 6 0.0000 0.0000 0.0000 0.0000 0.0000 30.8248
#
#
#
# Elastic Compliance Matrix: (Units=1/GPa)
#
#
# Indices 1 2 3 4 5 6 
#
# 1 0.007308 -0.002486 -0.003352 0.000000 0.000000 0.000000
# 2 -0.002486 0.010722 -0.004231 0.000000 0.000000 0.000000
# 3 -0.003352 -0.004231 0.016863 0.000000 0.000000 0.000000
# 4 0.000000 0.000000 0.000000 0.050905 0.000000 0.000000
# 5 0.000000 0.000000 0.000000 0.000000 0.027598 0.000000
# 6 0.000000 0.000000 0.000000 0.000000 0.000000 0.032441
#
#
# Mechanical properties :
#
#
# Convention : Reuss Voigt Hill
#
# Bulk Modulus (GPa) = 67.78123 78.28526 73.03324
# Shear Modulus (GPa) = 29.25803 32.62579 30.94191
#
# Velocity S-wave (km/s) = 3.93349 4.15371 4.04510
# Velocity P-wave (km/s) = 7.51493 8.02519 7.77425
#
# Compressibility (1/GPa) = 0.01475335
#
# Stress axis : x y z
#
# Youngs Moduli (GPa) = 136.84502 93.26776 59.30155
#
# Poissons Ratio (x) = 0.23186 0.19880
# Poissons Ratio (y) = 0.34019 0.25091
# Poissons Ratio (z) = 0.45875 0.39463
#
# Static dielectric constant tensor:
#      x y z
#    x 3.926940 0.000000 0.000000 
#    y 0.000000 3.472930 0.000000 
#    z 0.000000 0.000000 3.378710 
# 
# 
# High freq. dielectric constant tensor:
#      x y z
#    x 1.758590 0.000000 0.000000 
#    y 0.000000 1.731550 0.000000 
#    z 0.000000 0.000000 1.728340 
# 
# From -- ./inp_files/49981.got.cif
#   From: 2010.03.12/outbox.cif.g09.slc.cpg/sg65_25_cif.got.tgz:49981.got - 2010.04.10 20:52:16.
