data_PCOD8271717
_publ_section_title
;
Structure prediction by ZEFSAII (Michael W. Deem and Ramdas Pophale) SiO2 
 PCOD8271717
Probable space group: C M M M
;
_chemical_formula_sum "Si O2"
_cell_formula_units_Z 104
_cell_length_a 9.379659
_cell_length_b 28.825511
_cell_length_c 20.674119
_cell_angle_alpha 90.000000
_cell_angle_beta 90.000000
_cell_angle_gamma 90.000000
_cell_volume 5589.733163
_symmetry_space_group_name_H-M "C M M M"
_symmetry_group_IT_number 65
_symmetry_cell_setting 'orthorhombic'
loop_
_space_group_symop_operation_xyz
x,y,z
-x,-y,z
x,-y,-z
-x,y,-z
-x,-y,-z
x,y,-z
-x,y,z
x,-y,z
1/2+x,1/2+y,z
1/2-x,1/2-y,z
1/2+x,1/2-y,-z
1/2-x,1/2+y,-z
1/2-x,1/2-y,-z
1/2+x,1/2+y,-z
1/2-x,1/2+y,z
1/2+x,1/2-y,z
loop_
_atom_site_type_symbol
_atom_site_label
_atom_site_fract_x
_atom_site_fract_y
_atom_site_fract_z
Si Si1 0.170245 0.946449 0.000000
Si Si2 0.330737 0.392566 0.125262
Si Si3 0.667071 0.703499 0.672639
Si Si4 0.838024 0.946067 0.247910
Si Si5 0.665387 0.295944 0.178394
Si Si6 0.336848 0.854696 0.572210
Si Si7 0.338126 0.051029 0.627837
O O1 0.230721 0.917772 0.061496
O O2 0.000000 0.946806 0.000000
O O3 0.225567 0.000000 0.000000
O O4 0.500000 0.396968 0.124711
O O5 0.269366 0.419298 0.187402
O O6 0.286688 0.338284 0.131503
O O7 0.500000 0.710309 0.659171
O O8 0.750000 0.750000 0.654968
O O9 0.696036 0.689497 0.747167
O O10 0.728324 0.664845 0.624875
O O11 0.752994 0.932350 0.311351
O O12 0.000000 0.929868 0.259642
O O13 0.828615 0.000000 0.231643
O O14 0.500000 0.284372 0.169246
O O15 0.750000 0.250000 0.157871
O O16 0.297965 0.837238 0.500000
O O17 0.500000 0.840790 0.589484
O O18 0.320237 0.910717 0.572006
O O19 0.500000 0.048422 0.651986
O O20 0.288562 0.000000 0.602545
#
# Coordination Sequence:
#
# PCOD8271717 Si02
#       7
#     8  16  16  16  16  16  16
#     4   9  16  26  43  70 103 135 165 195 230 277
#     4   9  16  27  44  68  99 131 160 194 238 282
#     4  10  20  35  55  76  98 125 158 199 247 295
#     4   9  16  27  46  71  96 121 153 197 247 294
#     4   9  18  32  50  72  97 124 157 198 241 283
#     4  10  21  35  50  70  97 129 164 200 240 290
#     4   9  18  32  49  70  96 126 162 203 245 289
#
# _framework density 18.605539
#
# number of rings (size 3 to 8) (size 9 to 14) (size 15 to 20)
#    0.000    2.692    0.000    1.846    0.000    5.231 
#    0.000    2.692    0.000    0.000    0.000    4.846 
#    0.000    4.923    0.000    0.000    0.000    0.000 
#
# Total GULP energy -644563.857345 kJ/mol
# GULP energy per Si atom -12395.458795 kJ/mol
# Density = 1.856319 g / cm^3
# Si number density = 18.605539 Si / 1000 Ang^3
#
#
#
# Elastic Constant Matrix: (Units=GPa)
#
#
# Indices 1 2 3 4 5 6 
#
# 1 52.9562 36.0191 28.9221 0.0000 0.0000 0.0000
# 2 36.0191 112.5147 57.4081 0.0000 0.0000 0.0000
# 3 28.9221 57.4081 74.4163 0.0000 0.0000 0.0000
# 4 0.0000 0.0000 0.0000 27.5149 0.0000 0.0000
# 5 0.0000 0.0000 0.0000 0.0000 6.4736 0.0000
# 6 0.0000 0.0000 0.0000 0.0000 0.0000 24.9140
#
#
#
# Elastic Compliance Matrix: (Units=1/GPa)
#
#
# Indices 1 2 3 4 5 6 
#
# 1 0.025666 -0.005157 -0.005997 0.000000 0.000000 0.000000
# 2 -0.005157 0.015693 -0.010102 0.000000 0.000000 0.000000
# 3 -0.005997 -0.010102 0.023562 0.000000 0.000000 0.000000
# 4 0.000000 0.000000 0.000000 0.036344 0.000000 0.000000
# 5 0.000000 0.000000 0.000000 0.000000 0.154473 0.000000
# 6 0.000000 0.000000 0.000000 0.000000 0.000000 0.040138
#
#
# Mechanical properties :
#
#
# Convention : Reuss Voigt Hill
#
# Bulk Modulus (GPa) = 44.62429 53.84286 49.23358
# Shear Modulus (GPa) = 14.45681 19.61636 17.03659
#
# Velocity S-wave (km/s) = 2.79053 3.25057 3.02929
# Velocity P-wave (km/s) = 5.86679 6.56431 6.22533
#
# Compressibility (1/GPa) = 0.02240932
#
# Stress axis : x y z
#
# Youngs Moduli (GPa) = 38.96172 63.72342 42.44129
#
# Poissons Ratio (x) = 0.32859 0.25453
# Poissons Ratio (y) = 0.20091 0.42874
# Poissons Ratio (z) = 0.23366 0.64374
#
# Static dielectric constant tensor:
#      x y z
#    x 3.185340 0.000000 0.000000 
#    y 0.000000 3.544470 0.000000 
#    z 0.000000 0.000000 3.371220 
# 
# 
# High freq. dielectric constant tensor:
#      x y z
#    x 1.689240 0.000000 0.000000 
#    y 0.000000 1.734580 0.000000 
#    z 0.000000 0.000000 1.707340 
# 
# From -- ./inp_files/60796.got.cif
#   From: 2010.03.12/outbox.cif.g09.slc.cpg/sg65_31_cif.got.tgz:60796.got - 2010.04.10 20:52:16.
