data_PCOD8271361
_publ_section_title
;
Structure prediction by ZEFSAII (Michael W. Deem and Ramdas Pophale) SiO2 
 PCOD8271361
Probable space group: C M M M
;
_chemical_formula_sum "Si O2"
_cell_formula_units_Z 72
_cell_length_a 19.545841
_cell_length_b 22.004932
_cell_length_c 8.848209
_cell_angle_alpha 90.000000
_cell_angle_beta 90.000000
_cell_angle_gamma 90.000000
_cell_volume 3805.658066
_symmetry_space_group_name_H-M "C M M M"
_symmetry_group_IT_number 65
_symmetry_cell_setting 'orthorhombic'
loop_
_space_group_symop_operation_xyz
x,y,z
-x,-y,z
x,-y,-z
-x,y,-z
-x,-y,-z
x,y,-z
-x,y,z
x,-y,z
1/2+x,1/2+y,z
1/2-x,1/2-y,z
1/2+x,1/2-y,-z
1/2-x,1/2+y,-z
1/2-x,1/2-y,-z
1/2+x,1/2+y,-z
1/2-x,1/2+y,z
1/2+x,1/2-y,z
loop_
_atom_site_type_symbol
_atom_site_label
_atom_site_fract_x
_atom_site_fract_y
_atom_site_fract_z
Si Si1 0.662118 0.385576 0.678322
Si Si2 0.796617 0.430802 0.179663
Si Si3 0.578947 0.718697 0.175141
Si Si4 0.076404 0.000000 0.320303
Si Si5 0.424909 0.856253 0.179374
O O1 0.670876 0.388971 0.500000
O O2 0.736168 0.390287 0.753416
O O3 0.627495 0.322574 0.723195
O O4 0.615392 0.440616 0.740060
O O5 0.791390 0.500000 0.238231
O O6 0.867810 0.402584 0.240919
O O7 0.793125 0.427834 0.000000
O O8 0.500000 0.701062 0.203244
O O9 0.592671 0.787565 0.228903
O O10 0.598168 0.709804 0.000000
O O11 0.073529 0.000000 0.500000
O O12 0.000000 0.000000 0.252137
O O13 0.500000 0.875141 0.242935
O O14 0.427590 0.858259 0.000000
#
# Coordination Sequence:
#
# PCOD8271361 Si02
#       5
#    16  16  16   8  16
#     4  11  21  34  52  74 106 143 176 213 257 312
#     4  10  20  34  54  79 107 137 174 220 261 305
#     4   9  18  34  55  78 105 136 173 217 262 309
#     4   9  18  32  49  69  94 131 174 210 249 297
#     4   8  16  33  56  80 105 135 171 214 266 316
#
# _framework density 18.919197
#
# number of rings (size 3 to 8) (size 9 to 14) (size 15 to 20)
#    0.000    2.556    1.111    2.667    0.000    2.667 
#    0.000    7.778    0.000    4.667    0.000    1.556 
#    0.000    0.000    0.000    0.000    0.000    0.000 
#
# Total GULP energy -446391.745610 kJ/mol
# GULP energy per Si atom -12399.770711 kJ/mol
# Density = 1.887614 g / cm^3
# Si number density = 18.919197 Si / 1000 Ang^3
#
#
#
# Elastic Constant Matrix: (Units=GPa)
#
#
# Indices 1 2 3 4 5 6 
#
# 1 143.3221 60.4223 24.9196 0.0000 0.0000 0.0000
# 2 60.4223 84.6277 19.1034 0.0000 0.0000 0.0000
# 3 24.9196 19.1034 24.0937 0.0000 0.0000 0.0000
# 4 0.0000 0.0000 0.0000 16.3651 0.0000 0.0000
# 5 0.0000 0.0000 0.0000 0.0000 11.9117 0.0000
# 6 0.0000 0.0000 0.0000 0.0000 0.0000 33.7992
#
#
#
# Elastic Compliance Matrix: (Units=1/GPa)
#
#
# Indices 1 2 3 4 5 6 
#
# 1 0.010667 -0.006243 -0.006083 0.000000 0.000000 0.000000
# 2 -0.006243 0.018046 -0.007852 0.000000 0.000000 0.000000
# 3 -0.006083 -0.007852 0.054021 0.000000 0.000000 0.000000
# 4 0.000000 0.000000 0.000000 0.061105 0.000000 0.000000
# 5 0.000000 0.000000 0.000000 0.000000 0.083951 0.000000
# 6 0.000000 0.000000 0.000000 0.000000 0.000000 0.029587
#
#
# Mechanical properties :
#
#
# Convention : Reuss Voigt Hill
#
# Bulk Modulus (GPa) = 23.59605 51.21489 37.40547
# Shear Modulus (GPa) = 16.03298 22.25509 19.14404
#
# Velocity S-wave (km/s) = 2.91425 3.43348 3.18446
# Velocity P-wave (km/s) = 4.88087 6.54580 5.77366
#
# Compressibility (1/GPa) = 0.04237997
#
# Stress axis : x y z
#
# Youngs Moduli (GPa) = 93.74947 55.41389 18.51128
#
# Poissons Ratio (x) = 0.34594 0.11260
# Poissons Ratio (y) = 0.58525 0.14534
# Poissons Ratio (z) = 0.57024 0.43509
#
# Static dielectric constant tensor:
#      x y z
#    x 3.762970 0.000000 0.000000 
#    y 0.000000 3.572200 0.000000 
#    z 0.000000 0.000000 3.005620 
# 
# 
# High freq. dielectric constant tensor:
#      x y z
#    x 1.745980 0.000000 0.000000 
#    y 0.000000 1.738340 0.000000 
#    z 0.000000 0.000000 1.694610 
# 
# From -- ./inp_files/7311.got.cif
#   From: 2010.03.12/outbox.cif.g09.slc.cpg/sg65_4_cif.got.tgz:7311.got - 2010.04.10 20:52:16.
