data_PCOD8271058
_publ_section_title
;
Structure prediction by ZEFSAII (Michael W. Deem and Ramdas Pophale) SiO2 
 PCOD8271058
Probable space group: C M M M
;
_chemical_formula_sum "Si O2"
_cell_formula_units_Z 72
_cell_length_a 18.461807
_cell_length_b 8.848770
_cell_length_c 23.323561
_cell_angle_alpha 90.000000
_cell_angle_beta 90.000000
_cell_angle_gamma 90.000000
_cell_volume 3810.236841
_symmetry_space_group_name_H-M "C M M M"
_symmetry_group_IT_number 65
_symmetry_cell_setting 'orthorhombic'
loop_
_space_group_symop_operation_xyz
x,y,z
-x,-y,z
x,-y,-z
-x,y,-z
-x,-y,-z
x,y,-z
-x,y,z
x,-y,z
1/2+x,1/2+y,z
1/2-x,1/2-y,z
1/2+x,1/2-y,-z
1/2-x,1/2+y,-z
1/2-x,1/2-y,-z
1/2+x,1/2+y,-z
1/2-x,1/2+y,z
1/2+x,1/2-y,z
loop_
_atom_site_type_symbol
_atom_site_label
_atom_site_fract_x
_atom_site_fract_y
_atom_site_fract_z
Si Si1 0.414349 0.826665 0.270279
Si Si2 0.413548 0.829366 0.500000
Si Si3 0.418941 0.679537 0.936500
Si Si4 0.586157 0.670055 0.385898
Si Si5 0.672043 0.321128 0.169683
O O1 0.500000 0.808267 0.264511
O O2 0.386931 0.767463 0.331831
O O3 0.378548 0.724505 0.222057
O O4 0.390080 0.000000 0.263432
O O5 0.500000 0.827709 0.500000
O O6 0.383007 0.745248 0.556220
O O7 0.384230 0.000000 0.500000
O O8 0.500000 0.741098 0.923825
O O9 0.420517 0.500000 0.933834
O O10 0.363654 0.743031 0.889022
O O11 0.393820 0.733259 0.000000
O O12 0.500000 0.668565 0.388080
O O13 0.616518 0.500000 0.380803
O O14 0.679331 0.500000 0.168088
O O15 0.750000 0.250000 0.177597
#
# Coordination Sequence:
#
# PCOD8271058 Si02
#       5
#    16   8  16  16  16
#     4  10  20  34  52  74 101 133 171 216 264 313
#     4   9  15  23  37  61  96 133 166 205 256 307
#     4   8  15  30  53  79 104 132 169 211 254 303
#     4   9  16  26  42  66  96 130 168 209 255 308
#     4  11  22  35  52  75 104 138 175 214 258 307
#
# _framework density 18.896464000000002
#
# number of rings (size 3 to 8) (size 9 to 14) (size 15 to 20)
#    0.000    2.556    0.000    3.667    0.000    6.667 
#    0.000    0.000    0.000    2.000    0.000    8.556 
#    0.000    0.000    0.000    0.000    0.000    0.000 
#
# Total GULP energy -446357.598526 kJ/mol
# GULP energy per Si atom -12398.822181 kJ/mol
# Density = 1.885345 g / cm^3
# Si number density = 18.896464 Si / 1000 Ang^3
#
#
#
# Elastic Constant Matrix: (Units=GPa)
#
#
# Indices 1 2 3 4 5 6 
#
# 1 33.8015 25.9825 37.1937 0.0000 0.0000 0.0000
# 2 25.9825 87.1586 42.4927 0.0000 0.0000 0.0000
# 3 37.1937 42.4927 157.4422 0.0000 0.0000 0.0000
# 4 0.0000 0.0000 0.0000 18.7677 0.0000 0.0000
# 5 0.0000 0.0000 0.0000 0.0000 0.5138 0.0000
# 6 0.0000 0.0000 0.0000 0.0000 0.0000 15.3361
#
#
#
# Elastic Compliance Matrix: (Units=1/GPa)
#
#
# Indices 1 2 3 4 5 6 
#
# 1 0.046176 -0.009727 -0.008283 0.000000 0.000000 0.000000
# 2 -0.009727 0.015261 -0.001821 0.000000 0.000000 0.000000
# 3 -0.008283 -0.001821 0.008800 0.000000 0.000000 0.000000
# 4 0.000000 0.000000 0.000000 0.053283 0.000000 0.000000
# 5 0.000000 0.000000 0.000000 0.000000 1.946428 0.000000
# 6 0.000000 0.000000 0.000000 0.000000 0.000000 0.065205
#
#
# Mechanical properties :
#
#
# Convention : Reuss Voigt Hill
#
# Bulk Modulus (GPa) = 32.70723 54.41557 43.56140
# Shear Modulus (GPa) = 2.28832 18.43907 10.36369
#
# Velocity S-wave (km/s) = 1.10164 3.12716 2.34443
# Velocity P-wave (km/s) = 4.35481 6.47287 5.51645
#
# Compressibility (1/GPa) = 0.03057428
#
# Stress axis : x y z
#
# Youngs Moduli (GPa) = 21.65628 65.52750 113.63892
#
# Poissons Ratio (x) = 0.63738 0.94130
# Poissons Ratio (y) = 0.21065 0.20693
# Poissons Ratio (z) = 0.17938 0.11932
#
# Static dielectric constant tensor:
#      x y z
#    x 3.074780 0.000000 0.000000 
#    y 0.000000 3.402740 0.000000 
#    z 0.000000 0.000000 3.811200 
# 
# 
# High freq. dielectric constant tensor:
#      x y z
#    x 1.686190 0.000000 0.000000 
#    y 0.000000 1.726630 0.000000 
#    z 0.000000 0.000000 1.754920 
# 
# From -- ./inp_files/59239.got.cif
#   From: 2010.03.12/outbox.cif.g09.slc.cpg/sg65_30_cif.got.tgz:59239.got - 2010.04.10 20:52:16.
