data_PCOD8271659
_publ_section_title
;
Structure prediction by ZEFSAII (Michael W. Deem and Ramdas Pophale) SiO2 
 PCOD8271659
Probable space group: C M M M
;
_chemical_formula_sum "Si O2"
_cell_formula_units_Z 104
_cell_length_a 9.180338
_cell_length_b 33.423888
_cell_length_c 20.213306
_cell_angle_alpha 90.000000
_cell_angle_beta 90.000000
_cell_angle_gamma 90.000000
_cell_volume 6202.303148
_symmetry_space_group_name_H-M "C M M M"
_symmetry_group_IT_number 65
_symmetry_cell_setting 'orthorhombic'
loop_
_space_group_symop_operation_xyz
x,y,z
-x,-y,z
x,-y,-z
-x,y,-z
-x,-y,-z
x,y,-z
-x,y,z
x,-y,z
1/2+x,1/2+y,z
1/2-x,1/2-y,z
1/2+x,1/2-y,-z
1/2-x,1/2+y,-z
1/2-x,1/2-y,-z
1/2+x,1/2+y,-z
1/2-x,1/2+y,z
1/2+x,1/2-y,z
loop_
_atom_site_type_symbol
_atom_site_label
_atom_site_fract_x
_atom_site_fract_y
_atom_site_fract_z
Si Si1 0.167104 0.420392 0.572980
Si Si2 0.829133 0.207503 0.356082
Si Si3 0.669366 0.926278 0.194760
Si Si4 0.665337 0.709800 0.500000
Si Si5 0.662154 0.500000 0.251735
Si Si6 0.669038 0.546126 0.075231
Si Si7 0.838814 0.000000 0.593728
Si Si8 0.330999 0.135035 0.692580
O O1 0.180824 0.399604 0.500000
O O2 0.255684 0.461102 0.569087
O O3 0.227185 0.392130 0.631634
O O4 0.000000 0.431085 0.589212
O O5 0.750000 0.250000 0.347737
O O6 0.800767 0.188089 0.429977
O O7 0.760535 0.176014 0.304917
O O8 0.000000 0.213055 0.341277
O O9 0.500000 0.936602 0.188716
O O10 0.738381 0.923692 0.121197
O O11 0.694340 0.885837 0.236367
O O12 0.750122 0.960979 0.233096
O O13 0.500000 0.723415 0.500000
O O14 0.750000 0.750000 0.500000
O O15 0.500000 0.500000 0.218826
O O16 0.646862 0.500000 0.328834
O O17 0.500000 0.557070 0.081327
O O18 0.695853 0.500000 0.097829
O O19 0.722011 0.551828 0.000000
O O20 0.000000 0.000000 0.562182
O O21 0.500000 0.145323 0.681452
#
# Coordination Sequence:
#
# PCOD8271659 Si02
#       8
#    16  16  16   8   8  16   8  16
#     4  10  21  36  51  66  90 127 166 208 257 304
#     4  10  20  35  54  74  98 127 160 201 253 311
#     4  11  21  33  51  73  99 131 169 212 248 287
#     4   8  16  30  48  72  94 117 150 191 242 300
#     4  11  21  32  47  66  92 129 166 204 251 298
#     4   9  18  32  50  74 105 138 169 204 246 293
#     4  11  22  34  49  67  89 121 166 217 260 298
#     4  10  22  36  50  72  99 127 164 208 253 299
#
# _framework density 16.767963999999999
#
# number of rings (size 3 to 8) (size 9 to 14) (size 15 to 20)
#    0.000    2.000    2.308    2.077    1.077    4.615 
#    0.000    0.769    0.000    0.000    0.000    0.000 
#    0.000    0.615    0.000    2.000    0.000    2.923 
#
# Total GULP energy -644498.322814 kJ/mol
# GULP energy per Si atom -12394.198516 kJ/mol
# Density = 1.672980 g / cm^3
# Si number density = 16.767964 Si / 1000 Ang^3
#
#
#
# Elastic Constant Matrix: (Units=GPa)
#
#
# Indices 1 2 3 4 5 6 
#
# 1 90.4923 49.0894 44.3812 0.0000 0.0000 0.0000
# 2 49.0894 79.4082 38.2952 0.0000 0.0000 0.0000
# 3 44.3812 38.2952 95.3688 0.0000 0.0000 0.0000
# 4 0.0000 0.0000 0.0000 16.1558 0.0000 0.0000
# 5 0.0000 0.0000 0.0000 0.0000 25.7589 0.0000
# 6 0.0000 0.0000 0.0000 0.0000 0.0000 28.0031
#
#
#
# Elastic Compliance Matrix: (Units=1/GPa)
#
#
# Indices 1 2 3 4 5 6 
#
# 1 0.018325 -0.008949 -0.004935 0.000000 0.000000 0.000000
# 2 -0.008949 0.019987 -0.003862 0.000000 0.000000 0.000000
# 3 -0.004935 -0.003862 0.014333 0.000000 0.000000 0.000000
# 4 0.000000 0.000000 0.000000 0.061897 0.000000 0.000000
# 5 0.000000 0.000000 0.000000 0.000000 0.038822 0.000000
# 6 0.000000 0.000000 0.000000 0.000000 0.000000 0.035710
#
#
# Mechanical properties :
#
#
# Convention : Reuss Voigt Hill
#
# Bulk Modulus (GPa) = 58.28996 58.75566 58.52281
# Shear Modulus (GPa) = 21.71245 22.88377 22.29811
#
# Velocity S-wave (km/s) = 3.60234 3.69824 3.65060
# Velocity P-wave (km/s) = 7.22085 7.30427 7.26268
#
# Compressibility (1/GPa) = 0.01715561
#
# Stress axis : x y z
#
# Youngs Moduli (GPa) = 54.56963 50.03138 69.77130
#
# Poissons Ratio (x) = 0.44772 0.34429
# Poissons Ratio (y) = 0.48833 0.26942
# Poissons Ratio (z) = 0.26928 0.19320
#
# Static dielectric constant tensor:
#      x y z
#    x 3.219460 0.000000 0.000000 
#    y 0.000000 2.861090 0.000000 
#    z 0.000000 0.000000 3.942650 
# 
# 
# High freq. dielectric constant tensor:
#      x y z
#    x 1.656900 0.000000 0.000000 
#    y 0.000000 1.609480 0.000000 
#    z 0.000000 0.000000 1.640040 
# 
# From -- ./inp_files/60951.got.cif
#   From: 2010.03.12/outbox.cif.g09.slc.cpg/sg65_31_cif.got.tgz:60951.got - 2010.04.10 20:52:16.
