data_PCOD8271622
_publ_section_title
;
Structure prediction by ZEFSAII (Michael W. Deem and Ramdas Pophale) SiO2 
 PCOD8271622
Probable space group: C M M M
;
_chemical_formula_sum "Si O2"
_cell_formula_units_Z 104
_cell_length_a 8.567665
_cell_length_b 29.811151
_cell_length_c 22.959661
_cell_angle_alpha 90.000000
_cell_angle_beta 90.000000
_cell_angle_gamma 90.000000
_cell_volume 5864.171903
_symmetry_space_group_name_H-M "C M M M"
_symmetry_group_IT_number 65
_symmetry_cell_setting 'orthorhombic'
loop_
_space_group_symop_operation_xyz
x,y,z
-x,-y,z
x,-y,-z
-x,y,-z
-x,-y,-z
x,y,-z
-x,y,z
x,-y,z
1/2+x,1/2+y,z
1/2-x,1/2-y,z
1/2+x,1/2-y,-z
1/2-x,1/2+y,-z
1/2-x,1/2-y,-z
1/2+x,1/2+y,-z
1/2-x,1/2+y,z
1/2+x,1/2-y,z
loop_
_atom_site_type_symbol
_atom_site_label
_atom_site_fract_x
_atom_site_fract_y
_atom_site_fract_z
Si Si1 0.813608 0.298176 0.835299
Si Si2 0.174211 0.951724 0.068963
Si Si3 0.314862 0.699847 0.500000
Si Si4 0.318637 0.862234 0.064680
Si Si5 0.814290 0.355683 0.392284
Si Si6 0.185206 0.799240 0.289063
Si Si7 0.814894 0.450881 0.565735
O O1 0.750000 0.250000 0.851898
O O2 0.748701 0.328696 0.887755
O O3 0.739043 0.314510 0.774916
O O4 0.000000 0.298523 0.829298
O O5 0.288530 0.912253 0.089136
O O6 0.000000 0.941502 0.091933
O O7 0.232091 0.000000 0.093880
O O8 0.173282 0.954476 0.000000
O O9 0.500000 0.702075 0.500000
O O10 0.250000 0.750000 0.500000
O O11 0.256862 0.673911 0.443432
O O12 0.500000 0.853843 0.059300
O O13 0.242540 0.855008 0.000000
O O14 0.752779 0.336727 0.331636
O O15 0.757062 0.407851 0.396996
O O16 0.000000 0.352249 0.395617
O O17 0.250000 0.750000 0.305047
O O18 0.000000 0.797454 0.293165
O O19 0.751683 0.444931 0.500000
O O20 0.757383 0.500000 0.590211
O O21 0.000000 0.450722 0.564812
#
# Coordination Sequence:
#
# PCOD8271622 Si02
#       7
#    16  16   8  16  16  16  16
#     4  10  20  35  53  73  98 130 169 209 249 299
#     4   8  14  25  42  66  96 128 161 196 237 290
#     4  12  24  36  49  72 107 139 170 207 253 302
#     4   9  18  31  48  73 103 131 162 204 253 303
#     4  11  20  34  55  79 105 135 170 209 254 298
#     4  11  22  37  55  75  99 131 171 212 253 303
#     4   8  14  27  50  79 106 133 168 206 244 292
#
# _framework density 17.734815000000001
#
# number of rings (size 3 to 8) (size 9 to 14) (size 15 to 20)
#    0.000    2.308    0.769    5.308    0.000    1.846 
#    0.000    1.538    0.000    3.231    0.000    2.154 
#    0.000    0.000    0.000    0.000    0.000    0.000 
#
# Total GULP energy -644393.344407 kJ/mol
# GULP energy per Si atom -12392.179700 kJ/mol
# Density = 1.769445 g / cm^3
# Si number density = 17.734815 Si / 1000 Ang^3
#
#
#
# Elastic Constant Matrix: (Units=GPa)
#
#
# Indices 1 2 3 4 5 6 
#
# 1 72.8973 40.6094 27.1366 0.0000 0.0000 0.0000
# 2 40.6094 166.9575 92.7202 0.0000 0.0000 0.0000
# 3 27.1366 92.7202 98.6934 0.0000 0.0000 0.0000
# 4 0.0000 0.0000 0.0000 14.5988 0.0000 0.0000
# 5 0.0000 0.0000 0.0000 0.0000 19.0432 0.0000
# 6 0.0000 0.0000 0.0000 0.0000 0.0000 25.3844
#
#
#
# Elastic Compliance Matrix: (Units=1/GPa)
#
#
# Indices 1 2 3 4 5 6 
#
# 1 0.015981 -0.003025 -0.001552 0.000000 0.000000 0.000000
# 2 -0.003025 0.013096 -0.011472 0.000000 0.000000 0.000000
# 3 -0.001552 -0.011472 0.021337 0.000000 0.000000 0.000000
# 4 0.000000 0.000000 0.000000 0.068499 0.000000 0.000000
# 5 0.000000 0.000000 0.000000 0.000000 0.052512 0.000000
# 6 0.000000 0.000000 0.000000 0.000000 0.000000 0.039394
#
#
# Mechanical properties :
#
#
# Convention : Reuss Voigt Hill
#
# Bulk Modulus (GPa) = 54.59765 73.27560 63.93662
# Shear Modulus (GPa) = 20.07852 23.67743 21.87797
#
# Velocity S-wave (km/s) = 3.36840 3.65784 3.51610
# Velocity P-wave (km/s) = 6.78090 7.69719 7.25353
#
# Compressibility (1/GPa) = 0.01831581
#
# Stress axis : x y z
#
# Youngs Moduli (GPa) = 62.57463 76.35754 46.86760
#
# Poissons Ratio (x) = 0.23099 0.07274
# Poissons Ratio (y) = 0.18930 0.53766
# Poissons Ratio (z) = 0.09712 0.87596
#
# Static dielectric constant tensor:
#      x y z
#    x 3.225750 0.000000 0.000000 
#    y 0.000000 3.835510 0.000000 
#    z 0.000000 0.000000 3.316120 
# 
# 
# High freq. dielectric constant tensor:
#      x y z
#    x 1.677180 0.000000 0.000000 
#    y 0.000000 1.698060 0.000000 
#    z 0.000000 0.000000 1.658720 
# 
# From -- ./inp_files/68233.got.cif
#   From: 2010.03.12/outbox.cif.g09.slc.cpg/sg65_35_cif.got.tgz:68233.got - 2010.04.10 20:52:16.
