data_PCOD8271263
_publ_section_title
;
Structure prediction by ZEFSAII (Michael W. Deem and Ramdas Pophale) SiO2 
 PCOD8271263
Probable space group: C M M M
;
_chemical_formula_sum "Si O2"
_cell_formula_units_Z 104
_cell_length_a 27.260236
_cell_length_b 8.875464
_cell_length_c 23.429122
_cell_angle_alpha 90.000000
_cell_angle_beta 90.000000
_cell_angle_gamma 90.000000
_cell_volume 5668.611480
_symmetry_space_group_name_H-M "C M M M"
_symmetry_group_IT_number 65
_symmetry_cell_setting 'orthorhombic'
loop_
_space_group_symop_operation_xyz
x,y,z
-x,-y,z
x,-y,-z
-x,y,-z
-x,-y,-z
x,y,-z
-x,y,z
x,-y,z
1/2+x,1/2+y,z
1/2-x,1/2-y,z
1/2+x,1/2-y,-z
1/2-x,1/2+y,-z
1/2-x,1/2-y,-z
1/2+x,1/2+y,-z
1/2-x,1/2+y,z
1/2+x,1/2-y,z
loop_
_atom_site_type_symbol
_atom_site_label
_atom_site_fract_x
_atom_site_fract_y
_atom_site_fract_z
Si Si1 0.802536 0.676144 0.817681
Si Si2 0.630545 0.178149 0.713300
Si Si3 0.942953 0.178729 0.000000
Si Si4 0.556379 0.669261 0.210905
Si Si5 0.877432 0.822849 0.592745
Si Si6 0.442106 0.173961 0.500000
Si Si7 0.700094 0.330759 0.500000
Si Si8 0.104270 0.322853 0.109521
O O1 0.793887 0.500000 0.819646
O O2 0.750000 0.750000 0.828911
O O3 0.824451 0.723084 0.755665
O O4 0.841232 0.722859 0.867632
O O5 0.581758 0.260775 0.734013
O O6 0.637764 0.237068 0.649953
O O7 0.622508 0.000000 0.714284
O O8 0.911281 0.234923 0.053235
O O9 0.000000 0.237886 0.000000
O O10 0.943943 0.000000 0.000000
O O11 0.500000 0.664711 0.226261
O O12 0.575926 0.500000 0.198080
O O13 0.565066 0.777025 0.157161
O O14 0.923374 0.753707 0.558187
O O15 0.829881 0.790000 0.555852
O O16 0.887359 0.000000 0.603242
O O17 0.500000 0.189487 0.500000
O O18 0.425210 0.000000 0.500000
O O19 0.715568 0.500000 0.500000
O O20 0.750000 0.250000 0.500000
O O21 0.101043 0.500000 0.097840
#
# Coordination Sequence:
#
# PCOD8271263 Si02
#       8
#    16  16   8  16  16   8   8  16
#     4   9  20  37  57  81 108 141 181 224 270 322
#     4  10  21  36  54  79 108 139 178 221 265 316
#     4  11  23  37  56  85 116 147 186 227 268 317
#     4  10  20  34  53  78 108 142 178 217 264 316
#     4  10  21  37  55  78 107 138 175 218 265 317
#     4  10  21  37  57  79 104 140 182 222 270 325
#     4   9  20  36  54  76 101 132 168 208 259 316
#     4  10  21  37  56  81 112 145 183 224 268 319
#
# _framework density 18.346644999999999
#
# number of rings (size 3 to 8) (size 9 to 14) (size 15 to 20)
#    0.000    2.154    0.000    4.154    0.000   11.077 
#    0.000    3.462    0.000    0.000    0.000    0.000 
#    0.000    0.000    0.000    0.000    0.000    0.000 
#
# Total GULP energy -644584.486245 kJ/mol
# GULP energy per Si atom -12395.855505 kJ/mol
# Density = 1.830489 g / cm^3
# Si number density = 18.346645 Si / 1000 Ang^3
#
#
#
# Elastic Constant Matrix: (Units=GPa)
#
#
# Indices 1 2 3 4 5 6 
#
# 1 126.1960 65.7917 62.8230 0.0000 0.0000 0.0000
# 2 65.7917 71.7688 35.3020 0.0000 0.0000 0.0000
# 3 62.8230 35.3020 118.1308 0.0000 0.0000 0.0000
# 4 0.0000 0.0000 0.0000 44.8075 0.0000 0.0000
# 5 0.0000 0.0000 0.0000 0.0000 -1.9599 0.0000
# 6 0.0000 0.0000 0.0000 0.0000 0.0000 34.1204
#
#
#
# Elastic Compliance Matrix: (Units=1/GPa)
#
#
# Indices 1 2 3 4 5 6 
#
# 1 0.017644 -0.013551 -0.005334 0.000000 0.000000 0.000000
# 2 -0.013551 0.026742 -0.000785 0.000000 0.000000 0.000000
# 3 -0.005334 -0.000785 0.011536 0.000000 0.000000 0.000000
# 4 0.000000 0.000000 0.000000 0.022318 0.000000 0.000000
# 5 0.000000 0.000000 0.000000 0.000000 -0.510222 0.000000
# 6 0.000000 0.000000 0.000000 0.000000 0.000000 0.029308
#
#
# Mechanical properties :
#
#
# Convention : Reuss Voigt Hill
#
# Bulk Modulus (GPa) = 60.30254 71.54768 65.92511
# Shear Modulus (GPa) = -13.97406 25.53887 5.78240
#
# Velocity S-wave (km/s) = -2.76283 3.73502 1.77724
# Velocity P-wave (km/s) = 4.77097 7.59493 6.34212
#
# Compressibility (1/GPa) = 0.01658305
#
# Stress axis : x y z
#
# Youngs Moduli (GPa) = 56.67543 37.39374 86.68274
#
# Poissons Ratio (x) = 0.50673 0.46235
# Poissons Ratio (y) = 0.76802 0.06805
# Poissons Ratio (z) = 0.30229 0.02935
#
# Static dielectric constant tensor:
#      x y z
#    x 3.381930 0.000000 0.000000 
#    y 0.000000 3.624470 0.000000 
#    z 0.000000 0.000000 3.755120 
# 
# 
# High freq. dielectric constant tensor:
#      x y z
#    x 1.708160 0.000000 0.000000 
#    y 0.000000 1.726080 0.000000 
#    z 0.000000 0.000000 1.713190 
# 
# From -- ./inp_files/65976.got.cif
#   From: 2010.03.12/outbox.cif.g09.slc.cpg/sg65_33_cif.got.tgz:65976.got - 2010.04.10 20:52:16.
