data_PCOD8271350
_publ_section_title
;
Structure prediction by ZEFSAII (Michael W. Deem and Ramdas Pophale) SiO2 
 PCOD8271350
Probable space group: C M M M
;
_chemical_formula_sum "Si O2"
_cell_formula_units_Z 72
_cell_length_a 9.306539
_cell_length_b 15.162971
_cell_length_c 26.381681
_cell_angle_alpha 90.000000
_cell_angle_beta 90.000000
_cell_angle_gamma 90.000000
_cell_volume 3722.845136
_symmetry_space_group_name_H-M "C M M M"
_symmetry_group_IT_number 65
_symmetry_cell_setting 'orthorhombic'
loop_
_space_group_symop_operation_xyz
x,y,z
-x,-y,z
x,-y,-z
-x,y,-z
-x,-y,-z
x,y,-z
-x,y,z
x,-y,z
1/2+x,1/2+y,z
1/2-x,1/2-y,z
1/2+x,1/2-y,-z
1/2-x,1/2+y,-z
1/2-x,1/2-y,-z
1/2+x,1/2+y,-z
1/2-x,1/2+y,z
1/2+x,1/2-y,z
loop_
_atom_site_type_symbol
_atom_site_label
_atom_site_fract_x
_atom_site_fract_y
_atom_site_fract_z
Si Si1 0.168463 0.167063 0.752117
Si Si2 0.169178 0.500000 0.076104
Si Si3 0.833586 0.339306 0.554981
Si Si4 0.169698 0.653994 0.000000
Si Si5 0.166508 0.000000 0.180509
Si Si6 0.662031 0.099098 0.661955
O O1 0.250000 0.250000 0.777084
O O2 0.208045 0.084605 0.786726
O O3 0.227319 0.155669 0.694944
O O4 0.000000 0.184683 0.749358
O O5 0.212922 0.408586 0.047647
O O6 0.243843 0.500000 0.129766
O O7 0.000000 0.500000 0.083380
O O8 0.794588 0.383295 0.500000
O O9 0.750000 0.250000 0.562589
O O10 0.793915 0.401306 0.602452
O O11 0.000000 0.315377 0.556027
O O12 0.250000 0.750000 0.000000
O O13 0.000000 0.674524 0.000000
O O14 0.000000 0.000000 0.165837
O O15 0.500000 0.136274 0.669388
O O16 0.670918 0.000000 0.681799
#
# Coordination Sequence:
#
# PCOD8271350 Si02
#       6
#    16   8  16   8   8  16
#     4  11  23  40  59  82 112 149 190 238 291 344
#     4   9  20  38  60  86 122 161 197 239 286 334
#     4   9  18  32  49  71 100 133 171 219 274 334
#     4   9  19  37  60  90 124 161 201 239 282 334
#     4  10  23  41  59  84 119 153 194 242 290 339
#     4  10  20  34  54  79 105 138 182 229 280 342
#
# _framework density 19.340046000000001
#
# number of rings (size 3 to 8) (size 9 to 14) (size 15 to 20)
#    0.000    2.222    1.111    2.000    0.000    6.667 
#    0.000    7.778    0.000    0.000    0.000    4.667 
#    0.000    0.000    0.000    0.000    0.000    0.000 
#
# Total GULP energy -446137.789627 kJ/mol
# GULP energy per Si atom -12392.716379 kJ/mol
# Density = 1.929603 g / cm^3
# Si number density = 19.340046 Si / 1000 Ang^3
#
#
#
# Elastic Constant Matrix: (Units=GPa)
#
#
# Indices 1 2 3 4 5 6 
#
# 1 76.3583 60.6436 62.7585 0.0000 0.0000 0.0000
# 2 60.6436 135.0654 59.6214 0.0000 0.0000 0.0000
# 3 62.7585 59.6214 134.7902 0.0000 0.0000 0.0000
# 4 0.0000 0.0000 0.0000 -42.5649 0.0000 0.0000
# 5 0.0000 0.0000 0.0000 0.0000 33.6204 0.0000
# 6 0.0000 0.0000 0.0000 0.0000 0.0000 32.9142
#
#
#
# Elastic Compliance Matrix: (Units=1/GPa)
#
#
# Indices 1 2 3 4 5 6 
#
# 1 0.026889 -0.008135 -0.008921 0.000000 0.000000 0.000000
# 2 -0.008135 0.011661 -0.001370 0.000000 0.000000 0.000000
# 3 -0.008921 -0.001370 0.012179 0.000000 0.000000 0.000000
# 4 0.000000 0.000000 0.000000 -0.023494 0.000000 0.000000
# 5 0.000000 0.000000 0.000000 0.000000 0.029744 0.000000
# 6 0.000000 0.000000 0.000000 0.000000 0.000000 0.030382
#
#
# Mechanical properties :
#
#
# Convention : Reuss Voigt Hill
#
# Bulk Modulus (GPa) = 72.06721 79.14009 75.60365
# Shear Modulus (GPa) = 38.80745 15.67330 27.24038
#
# Velocity S-wave (km/s) = 4.48435 2.84985 3.75706
# Velocity P-wave (km/s) = 8.00978 7.19986 7.61560
#
# Compressibility (1/GPa) = 0.01387594
#
# Stress axis : x y z
#
# Youngs Moduli (GPa) = 37.18931 85.75323 82.10895
#
# Poissons Ratio (x) = 0.69761 0.73253
# Poissons Ratio (y) = 0.30254 0.11253
# Poissons Ratio (z) = 0.33178 0.11752
#
# Static dielectric constant tensor:
#      x y z
#    x 3.459600 0.000000 0.000000 
#    y 0.000000 3.432070 0.000000 
#    z 0.000000 0.000000 3.623840 
# 
# 
# High freq. dielectric constant tensor:
#      x y z
#    x 1.746600 0.000000 0.000000 
#    y 0.000000 1.753380 0.000000 
#    z 0.000000 0.000000 1.754440 
# 
# From -- ./inp_files/76377.got.cif
#   From: 2010.03.12/outbox.cif.g09.slc.cpg/sg65_39_cif.got.tgz:76377.got - 2010.04.10 20:52:16.
