data_PCOD8271008
_publ_section_title
;
Structure prediction by ZEFSAII (Michael W. Deem and Ramdas Pophale) SiO2 
 PCOD8271008
Probable space group: C M M M
;
_chemical_formula_sum "Si O2"
_cell_formula_units_Z 96
_cell_length_a 15.421820
_cell_length_b 19.807683
_cell_length_c 16.913928
_cell_angle_alpha 90.000000
_cell_angle_beta 90.000000
_cell_angle_gamma 90.000000
_cell_volume 5166.706413
_symmetry_space_group_name_H-M "C M M M"
_symmetry_group_IT_number 65
_symmetry_cell_setting 'orthorhombic'
loop_
_space_group_symop_operation_xyz
x,y,z
-x,-y,z
x,-y,-z
-x,y,-z
-x,-y,-z
x,y,-z
-x,y,z
x,-y,z
1/2+x,1/2+y,z
1/2-x,1/2-y,z
1/2+x,1/2-y,-z
1/2-x,1/2+y,-z
1/2-x,1/2-y,-z
1/2+x,1/2+y,-z
1/2-x,1/2+y,z
1/2+x,1/2-y,z
loop_
_atom_site_type_symbol
_atom_site_label
_atom_site_fract_x
_atom_site_fract_y
_atom_site_fract_z
Si Si1 0.399474 0.576400 0.092486
Si Si2 0.203825 0.184385 0.805342
Si Si3 0.100479 0.621667 0.592156
Si Si4 0.098001 0.899176 0.589417
Si Si5 0.758058 0.428099 0.301959
Si Si6 0.597061 0.260958 0.660473
O O1 0.500000 0.586657 0.112997
O O2 0.371516 0.500000 0.119461
O O3 0.347969 0.637353 0.133771
O O4 0.382198 0.583779 0.000000
O O5 0.250000 0.250000 0.847044
O O6 0.269057 0.133121 0.760202
O O7 0.144599 0.218999 0.740131
O O8 0.115663 0.611930 0.500000
O O9 0.161472 0.569733 0.637779
O O10 0.135771 0.695056 0.618523
O O11 0.000000 0.609433 0.614052
O O12 0.121028 0.921459 0.500000
O O13 0.166447 0.928399 0.651398
O O14 0.101912 0.818369 0.593995
O O15 0.000000 0.923893 0.611356
O O16 0.760844 0.500000 0.256460
O O17 0.500000 0.245643 0.687333
#
# Coordination Sequence:
#
# PCOD8271008 Si02
#       6
#    16  16  16  16  16  16
#     4   9  19  37  61  88 117 148 178 210 257 323
#     4  11  20  34  54  82 109 142 176 215 267 317
#     4  10  20  34  52  71  94 133 186 240 286 322
#     4   9  18  31  48  70  97 130 169 218 278 339
#     4  11  23  36  49  72 104 139 179 226 279 332
#     4   9  17  31  49  72 100 131 172 221 269 321
#
# _framework density 18.580501999999999
#
# number of rings (size 3 to 8) (size 9 to 14) (size 15 to 20)
#    0.000    2.167    1.667    2.500    0.000    5.000 
#    0.000    4.167    0.000    0.000    0.000    0.000 
#    0.000    0.000    0.000   11.000    0.000    0.000 
#
# Total GULP energy -594675.553959 kJ/mol
# GULP energy per Si atom -12389.074041 kJ/mol
# Density = 1.853821 g / cm^3
# Si number density = 18.580502 Si / 1000 Ang^3
#
#
#
# Elastic Constant Matrix: (Units=GPa)
#
#
# Indices 1 2 3 4 5 6 
#
# 1 73.3020 45.7091 34.6768 0.0000 0.0000 0.0000
# 2 45.7091 136.6389 35.1841 0.0000 0.0000 0.0000
# 3 34.6768 35.1841 56.5184 0.0000 0.0000 0.0000
# 4 0.0000 0.0000 0.0000 10.5623 0.0000 0.0000
# 5 0.0000 0.0000 0.0000 0.0000 26.5284 0.0000
# 6 0.0000 0.0000 0.0000 0.0000 0.0000 38.7215
#
#
#
# Elastic Compliance Matrix: (Units=1/GPa)
#
#
# Indices 1 2 3 4 5 6 
#
# 1 0.021297 -0.004477 -0.010279 0.000000 0.000000 0.000000
# 2 -0.004477 0.009657 -0.003265 0.000000 0.000000 0.000000
# 3 -0.010279 -0.003265 0.026033 0.000000 0.000000 0.000000
# 4 0.000000 0.000000 0.000000 0.094676 0.000000 0.000000
# 5 0.000000 0.000000 0.000000 0.000000 0.037695 0.000000
# 6 0.000000 0.000000 0.000000 0.000000 0.000000 0.025825
#
#
# Mechanical properties :
#
#
# Convention : Reuss Voigt Hill
#
# Bulk Modulus (GPa) = 47.74716 55.28881 51.51798
# Shear Modulus (GPa) = 19.36424 25.22175 22.29299
#
# Velocity S-wave (km/s) = 3.23178 3.68833 3.46758
# Velocity P-wave (km/s) = 6.29914 6.92527 6.61961
#
# Compressibility (1/GPa) = 0.02094365
#
# Stress axis : x y z
#
# Youngs Moduli (GPa) = 46.95477 103.55182 38.41344
#
# Poissons Ratio (x) = 0.46365 0.39487
# Poissons Ratio (y) = 0.21024 0.12540
# Poissons Ratio (z) = 0.48267 0.33805
#
# Static dielectric constant tensor:
#      x y z
#    x 3.446910 0.000000 0.000000 
#    y 0.000000 3.674830 0.000000 
#    z 0.000000 0.000000 3.102650 
# 
# 
# High freq. dielectric constant tensor:
#      x y z
#    x 1.714340 0.000000 0.000000 
#    y 0.000000 1.738340 0.000000 
#    z 0.000000 0.000000 1.685390 
# 
# From -- ./inp_files/40383.got.cif
#   From: 2010.03.12/outbox.cif.g09.slc.cpg/sg65_21_cif.got.tgz:40383.got - 2010.04.10 20:52:16.
