data_PCOD8271142
_publ_section_title
;
Structure prediction by ZEFSAII (Michael W. Deem and Ramdas Pophale) SiO2 
 PCOD8271142
Probable space group: C M M M
;
_chemical_formula_sum "Si O2"
_cell_formula_units_Z 112
_cell_length_a 18.327522
_cell_length_b 14.003734
_cell_length_c 25.723394
_cell_angle_alpha 90.000000
_cell_angle_beta 90.000000
_cell_angle_gamma 90.000000
_cell_volume 6602.005352
_symmetry_space_group_name_H-M "C M M M"
_symmetry_group_IT_number 65
_symmetry_cell_setting 'orthorhombic'
loop_
_space_group_symop_operation_xyz
x,y,z
-x,-y,z
x,-y,-z
-x,y,-z
-x,-y,-z
x,y,-z
-x,y,z
x,-y,z
1/2+x,1/2+y,z
1/2-x,1/2-y,z
1/2+x,1/2-y,-z
1/2-x,1/2+y,-z
1/2-x,1/2-y,-z
1/2+x,1/2+y,-z
1/2-x,1/2+y,z
1/2+x,1/2-y,z
loop_
_atom_site_type_symbol
_atom_site_label
_atom_site_fract_x
_atom_site_fract_y
_atom_site_fract_z
Si Si1 0.916030 0.393309 0.288808
Si Si2 0.673773 0.611314 0.639383
Si Si3 0.331630 0.721705 0.747154
Si Si4 0.164927 0.606842 0.602861
Si Si5 0.415998 0.278079 0.558632
Si Si6 0.417180 0.386112 0.166837
Si Si7 0.913481 0.893391 0.054986
O O1 0.905210 0.500000 0.265978
O O2 0.878687 0.318492 0.250305
O O3 0.880174 0.385490 0.344724
O O4 0.000000 0.366561 0.294880
O O5 0.665867 0.500000 0.652937
O O6 0.662411 0.671887 0.691272
O O7 0.752058 0.635258 0.614921
O O8 0.612611 0.641061 0.597843
O O9 0.250000 0.750000 0.761329
O O10 0.361640 0.650323 0.790155
O O11 0.160413 0.500000 0.579307
O O12 0.130904 0.680809 0.562286
O O13 0.407811 0.317163 0.500000
O O14 0.500000 0.255798 0.571948
O O15 0.500000 0.352319 0.179432
O O16 0.414304 0.500000 0.165753
O O17 0.390172 0.345127 0.110004
O O18 0.000000 0.899567 0.056802
O O19 0.880961 0.000000 0.053199
O O20 0.889224 0.841430 0.000000
#
# Coordination Sequence:
#
# PCOD8271142 Si02
#       7
#    16  16  16  16  16  16  16
#     4  10  20  34  53  74  96 125 163 205 245 285
#     4  11  23  39  57  75  98 132 168 199 237 291
#     4  12  21  33  52  74 104 135 165 202 243 299
#     4  10  20  37  58  79  98 123 162 205 245 286
#     4  11  24  40  57  79 105 129 157 196 243 297
#     4   9  18  30  46  74 107 136 168 207 251 297
#     4   7  10  20  40  65  95 131 169 208 248 288
#
# _framework density 16.964542000000002
#
# number of rings (size 3 to 8) (size 9 to 14) (size 15 to 20)
#    0.000    2.000    2.857    3.000    0.000    4.000 
#    0.000    2.857    0.000    0.429    0.000    0.000 
#    0.000    0.571    0.000    5.286    0.000    0.286 
#
# Total GULP energy -694020.374704 kJ/mol
# GULP energy per Si atom -12393.220977 kJ/mol
# Density = 1.692593 g / cm^3
# Si number density = 16.964542 Si / 1000 Ang^3
#
#
#
# Elastic Constant Matrix: (Units=GPa)
#
#
# Indices 1 2 3 4 5 6 
#
# 1 75.2242 32.8773 50.5114 0.0000 0.0000 0.0000
# 2 32.8773 64.2363 22.0938 0.0000 0.0000 0.0000
# 3 50.5114 22.0938 94.8773 0.0000 0.0000 0.0000
# 4 0.0000 0.0000 0.0000 14.6626 0.0000 0.0000
# 5 0.0000 0.0000 0.0000 0.0000 5.4469 0.0000
# 6 0.0000 0.0000 0.0000 0.0000 0.0000 24.4928
#
#
#
# Elastic Compliance Matrix: (Units=1/GPa)
#
#
# Indices 1 2 3 4 5 6 
#
# 1 0.024517 -0.008761 -0.011013 0.000000 0.000000 0.000000
# 2 -0.008761 0.020053 -0.000006 0.000000 0.000000 0.000000
# 3 -0.011013 -0.000006 0.016404 0.000000 0.000000 0.000000
# 4 0.000000 0.000000 0.000000 0.068201 0.000000 0.000000
# 5 0.000000 0.000000 0.000000 0.000000 0.183590 0.000000
# 6 0.000000 0.000000 0.000000 0.000000 0.000000 0.040828
#
#
# Mechanical properties :
#
#
# Convention : Reuss Voigt Hill
#
# Bulk Modulus (GPa) = 46.69205 49.47807 48.08506
# Shear Modulus (GPa) = 12.49092 17.51082 15.00087
#
# Velocity S-wave (km/s) = 2.71642 3.21627 2.97686
# Velocity P-wave (km/s) = 6.11732 6.55907 6.34205
#
# Compressibility (1/GPa) = 0.02141692
#
# Stress axis : x y z
#
# Youngs Moduli (GPa) = 40.78775 49.86704 60.96003
#
# Poissons Ratio (x) = 0.43687 0.67133
# Poissons Ratio (y) = 0.35733 0.00035
# Poissons Ratio (z) = 0.44918 0.00029
#
# Static dielectric constant tensor:
#      x y z
#    x 3.211880 0.000000 0.000000 
#    y 0.000000 3.185760 0.000000 
#    z 0.000000 0.000000 3.352320 
# 
# 
# High freq. dielectric constant tensor:
#      x y z
#    x 1.647090 0.000000 0.000000 
#    y 0.000000 1.640210 0.000000 
#    z 0.000000 0.000000 1.644520 
# 
# From -- ./inp_files/70056.got.cif
#   From: 2010.03.12/outbox.cif.g09.slc.cpg/sg65_36_cif.got.tgz:70056.got - 2010.04.10 20:52:16.
