data_PCOD8271770
_publ_section_title
;
Structure prediction by ZEFSAII (Michael W. Deem and Ramdas Pophale) SiO2 
 PCOD8271770
Probable space group: C M M M
;
_chemical_formula_sum "Si O2"
_cell_formula_units_Z 104
_cell_length_a 28.735570
_cell_length_b 9.288244
_cell_length_c 20.471346
_cell_angle_alpha 90.000000
_cell_angle_beta 90.000000
_cell_angle_gamma 90.000000
_cell_volume 5463.863367
_symmetry_space_group_name_H-M "C M M M"
_symmetry_group_IT_number 65
_symmetry_cell_setting 'orthorhombic'
loop_
_space_group_symop_operation_xyz
x,y,z
-x,-y,z
x,-y,-z
-x,y,-z
-x,-y,-z
x,y,-z
-x,y,z
x,-y,z
1/2+x,1/2+y,z
1/2-x,1/2-y,z
1/2+x,1/2-y,-z
1/2-x,1/2+y,-z
1/2-x,1/2-y,-z
1/2+x,1/2+y,-z
1/2-x,1/2+y,z
1/2+x,1/2-y,z
loop_
_atom_site_type_symbol
_atom_site_label
_atom_site_fract_x
_atom_site_fract_y
_atom_site_fract_z
Si Si1 0.635135 0.167220 0.119275
Si Si2 0.799326 0.330326 0.000000
Si Si3 0.294784 0.832387 0.621400
Si Si4 0.553598 0.330929 0.827319
Si Si5 0.445931 0.836864 0.695892
Si Si6 0.392567 0.829246 0.428833
Si Si7 0.705676 0.834437 0.770513
O O1 0.587257 0.259183 0.118258
O O2 0.660076 0.201046 0.187816
O O3 0.621900 0.000000 0.111133
O O4 0.670142 0.216287 0.062370
O O5 0.750000 0.250000 0.000000
O O6 0.788890 0.500000 0.000000
O O7 0.250000 0.750000 0.593944
O O8 0.338870 0.784085 0.579091
O O9 0.305295 0.789399 0.696374
O O10 0.284488 0.000000 0.614627
O O11 0.500000 0.298805 0.846677
O O12 0.563247 0.500000 0.823576
O O13 0.565793 0.261883 0.757458
O O14 0.500000 0.840417 0.680834
O O15 0.422409 0.766950 0.631362
O O16 0.427465 0.000000 0.709980
O O17 0.409695 0.771498 0.500000
O O18 0.397607 0.000000 0.426661
O O19 0.750000 0.750000 0.798649
O O20 0.719220 0.000000 0.776937
#
# Coordination Sequence:
#
# PCOD8271770 Si02
#       7
#    16   8  16  16  16  16  16
#     4  10  20  35  55  79 108 142 178 213 252 302
#     4  10  22  38  57  84 117 151 184 215 251 302
#     4   9  17  29  44  63  89 122 160 203 249 292
#     4  10  21  36  55  80 106 133 171 218 266 314
#     4   9  17  31  53  78 102 129 162 205 258 312
#     4   9  17  29  46  69  97 129 165 205 250 302
#     4   9  17  29  47  71  98 128 165 209 254 301
#
# _framework density 19.034151999999999
#
# number of rings (size 3 to 8) (size 9 to 14) (size 15 to 20)
#    0.000    2.615    0.000    1.846    0.000    5.231 
#    0.000    5.769    0.000    3.692    0.000    2.154 
#    0.000    0.000    0.000    0.000    0.000    0.000 
#
# Total GULP energy -644706.649631 kJ/mol
# GULP energy per Si atom -12398.204801 kJ/mol
# Density = 1.899083 g / cm^3
# Si number density = 19.034152 Si / 1000 Ang^3
#
#
#
# Elastic Constant Matrix: (Units=GPa)
#
#
# Indices 1 2 3 4 5 6 
#
# 1 108.3606 51.3482 54.8344 0.0000 0.0000 0.0000
# 2 51.3482 61.7197 34.8495 0.0000 0.0000 0.0000
# 3 54.8344 34.8495 81.1108 0.0000 0.0000 0.0000
# 4 0.0000 0.0000 0.0000 13.5881 0.0000 0.0000
# 5 0.0000 0.0000 0.0000 0.0000 26.7523 0.0000
# 6 0.0000 0.0000 0.0000 0.0000 0.0000 33.1842
#
#
#
# Elastic Compliance Matrix: (Units=1/GPa)
#
#
# Indices 1 2 3 4 5 6 
#
# 1 0.018258 -0.010853 -0.007680 0.000000 0.000000 0.000000
# 2 -0.010853 0.027844 -0.004626 0.000000 0.000000 0.000000
# 3 -0.007680 -0.004626 0.019508 0.000000 0.000000 0.000000
# 4 0.000000 0.000000 0.000000 0.073594 0.000000 0.000000
# 5 0.000000 0.000000 0.000000 0.000000 0.037380 0.000000
# 6 0.000000 0.000000 0.000000 0.000000 0.000000 0.030135
#
#
# Mechanical properties :
#
#
# Convention : Reuss Voigt Hill
#
# Bulk Modulus (GPa) = 51.83581 59.25060 55.54320
# Shear Modulus (GPa) = 19.27028 22.04884 20.65956
#
# Velocity S-wave (km/s) = 3.18528 3.40720 3.29811
# Velocity P-wave (km/s) = 6.38907 6.83189 6.61419
#
# Compressibility (1/GPa) = 0.01929168
#
# Stress axis : x y z
#
# Youngs Moduli (GPa) = 54.77135 35.91470 51.26042
#
# Poissons Ratio (x) = 0.38979 0.39367
# Poissons Ratio (y) = 0.59445 0.23712
# Poissons Ratio (z) = 0.42064 0.16614
#
# Static dielectric constant tensor:
#      x y z
#    x 3.579690 0.000000 0.000000 
#    y 0.000000 3.258540 0.000000 
#    z 0.000000 0.000000 3.546190 
# 
# 
# High freq. dielectric constant tensor:
#      x y z
#    x 1.746950 0.000000 0.000000 
#    y 0.000000 1.709550 0.000000 
#    z 0.000000 0.000000 1.733930 
# 
# From -- ./inp_files/65852.got.cif
#   From: 2010.03.12/outbox.cif.g09.slc.cpg/sg65_33_cif.got.tgz:65852.got - 2010.04.10 20:52:16.
