data_PCOD8271158
_publ_section_title
;
Structure prediction by ZEFSAII (Michael W. Deem and Ramdas Pophale) SiO2 
 PCOD8271158
Probable space group: C M M M
;
_chemical_formula_sum "Si O2"
_cell_formula_units_Z 88
_cell_length_a 9.393003
_cell_length_b 19.742289
_cell_length_c 27.724358
_cell_angle_alpha 90.000000
_cell_angle_beta 90.000000
_cell_angle_gamma 90.000000
_cell_volume 5141.187753
_symmetry_space_group_name_H-M "C M M M"
_symmetry_group_IT_number 65
_symmetry_cell_setting 'orthorhombic'
loop_
_space_group_symop_operation_xyz
x,y,z
-x,-y,z
x,-y,-z
-x,y,-z
-x,-y,-z
x,y,-z
-x,y,z
x,-y,z
1/2+x,1/2+y,z
1/2-x,1/2-y,z
1/2+x,1/2-y,-z
1/2-x,1/2+y,-z
1/2-x,1/2-y,-z
1/2+x,1/2+y,-z
1/2-x,1/2+y,z
1/2+x,1/2-y,z
loop_
_atom_site_type_symbol
_atom_site_label
_atom_site_fract_x
_atom_site_fract_y
_atom_site_fract_z
Si Si1 0.166745 0.423013 0.306090
Si Si2 0.335228 0.815584 0.227952
Si Si3 0.832960 0.682709 0.883143
Si Si4 0.830685 0.925649 0.500000
Si Si5 0.659737 0.580969 0.603194
Si Si6 0.661675 0.421304 0.055800
O O1 0.216515 0.500000 0.296118
O O2 0.213618 0.379364 0.259905
O O3 0.239976 0.392570 0.353986
O O4 0.000000 0.419165 0.315148
O O5 0.500000 0.798970 0.235491
O O6 0.250000 0.750000 0.245338
O O7 0.301581 0.833500 0.172663
O O8 0.750000 0.750000 0.899605
O O9 0.775142 0.619855 0.913287
O O10 0.000000 0.692632 0.893344
O O11 0.786987 0.889259 0.550781
O O12 0.000000 0.933158 0.500000
O O13 0.759977 0.000000 0.500000
O O14 0.500000 0.606005 0.614474
O O15 0.664262 0.500000 0.599873
O O16 0.500000 0.402908 0.071082
O O17 0.691306 0.500000 0.065254
O O18 0.684992 0.403401 0.000000
#
# Coordination Sequence:
#
# PCOD8271158 Si02
#       6
#    16  16  16   8  16  16
#     4   9  17  29  44  64  92 121 147 181 228 276
#     4   9  19  34  50  68  92 123 156 191 231 274
#     4  10  20  34  53  75  98 126 162 202 240 281
#     4   7  10  18  33  53  80 113 144 177 219 263
#     4   8  13  22  37  58  84 114 148 183 219 263
#     4   9  19  36  55  75 102 133 161 193 236 282
#
# _framework density 17.116668000000001
#
# number of rings (size 3 to 8) (size 9 to 14) (size 15 to 20)
#    0.000    3.182    0.000    2.182    0.000    3.273 
#    0.000    3.182    0.000    4.909    0.000    0.636 
#    0.000    0.000    0.000    0.000    0.000    0.000 
#
# Total GULP energy -545334.015921 kJ/mol
# GULP energy per Si atom -12393.954907 kJ/mol
# Density = 1.707771 g / cm^3
# Si number density = 17.116668 Si / 1000 Ang^3
#
#
#
# Elastic Constant Matrix: (Units=GPa)
#
#
# Indices 1 2 3 4 5 6 
#
# 1 68.3508 44.7184 54.2317 0.0000 0.0000 0.0000
# 2 44.7184 71.0266 60.4819 0.0000 0.0000 0.0000
# 3 54.2317 60.4819 106.9269 0.0000 0.0000 0.0000
# 4 0.0000 0.0000 0.0000 4.2008 0.0000 0.0000
# 5 0.0000 0.0000 0.0000 0.0000 31.1846 0.0000
# 6 0.0000 0.0000 0.0000 0.0000 0.0000 25.7620
#
#
#
# Elastic Compliance Matrix: (Units=1/GPa)
#
#
# Indices 1 2 3 4 5 6 
#
# 1 0.028178 -0.010748 -0.008212 0.000000 0.000000 0.000000
# 2 -0.010748 0.031262 -0.012232 0.000000 0.000000 0.000000
# 3 -0.008212 -0.012232 0.020436 0.000000 0.000000 0.000000
# 4 0.000000 0.000000 0.000000 0.238049 0.000000 0.000000
# 5 0.000000 0.000000 0.000000 0.000000 0.032067 0.000000
# 6 0.000000 0.000000 0.000000 0.000000 0.000000 0.038817
#
#
# Mechanical properties :
#
#
# Convention : Reuss Voigt Hill
#
# Bulk Modulus (GPa) = 57.16771 62.79648 59.98210
# Shear Modulus (GPa) = 10.94038 18.02098 14.48068
#
# Velocity S-wave (km/s) = 2.53091 3.24826 2.91176
# Velocity P-wave (km/s) = 6.48167 7.12988 6.81349
#
# Compressibility (1/GPa) = 0.01749239
#
# Stress axis : x y z
#
# Youngs Moduli (GPa) = 35.48885 31.98770 48.93366
#
# Poissons Ratio (x) = 0.34381 0.40184
# Poissons Ratio (y) = 0.38144 0.59854
# Poissons Ratio (z) = 0.29143 0.39126
#
# Static dielectric constant tensor:
#      x y z
#    x 3.120450 0.000000 0.000000 
#    y 0.000000 2.931250 0.000000 
#    z 0.000000 0.000000 3.473140 
# 
# 
# High freq. dielectric constant tensor:
#      x y z
#    x 1.651880 0.000000 0.000000 
#    y 0.000000 1.623990 0.000000 
#    z 0.000000 0.000000 1.672110 
# 
# From -- ./inp_files/67547.got.cif
#   From: 2010.03.12/outbox.cif.g09.slc.cpg/sg65_34_cif.got.tgz:67547.got - 2010.04.10 20:52:16.
