data_PCOD8271752
_publ_section_title
;
Structure prediction by ZEFSAII (Michael W. Deem and Ramdas Pophale) SiO2 
 PCOD8271752
Probable space group: C M M M
;
_chemical_formula_sum "Si O2"
_cell_formula_units_Z 88
_cell_length_a 30.218437
_cell_length_b 9.066685
_cell_length_c 17.232875
_cell_angle_alpha 90.000000
_cell_angle_beta 90.000000
_cell_angle_gamma 90.000000
_cell_volume 4721.481178
_symmetry_space_group_name_H-M "C M M M"
_symmetry_group_IT_number 65
_symmetry_cell_setting 'orthorhombic'
loop_
_space_group_symop_operation_xyz
x,y,z
-x,-y,z
x,-y,-z
-x,y,-z
-x,-y,-z
x,y,-z
-x,y,z
x,-y,z
1/2+x,1/2+y,z
1/2-x,1/2-y,z
1/2+x,1/2-y,-z
1/2-x,1/2+y,-z
1/2-x,1/2-y,-z
1/2+x,1/2+y,-z
1/2-x,1/2+y,z
1/2+x,1/2-y,z
loop_
_atom_site_type_symbol
_atom_site_label
_atom_site_fract_x
_atom_site_fract_y
_atom_site_fract_z
Si Si1 0.833047 0.668953 0.085072
Si Si2 0.415173 0.334874 0.137115
Si Si3 0.950030 0.668675 0.591406
Si Si4 0.500000 0.173744 0.088077
Si Si5 0.121320 0.166510 0.692073
Si Si6 0.704992 0.826175 0.248092
O O1 0.848018 0.500000 0.096681
O O2 0.876548 0.768776 0.084168
O O3 0.801527 0.714516 0.156629
O O4 0.809826 0.689948 0.000000
O O5 0.425241 0.500000 0.107806
O O6 0.457671 0.233809 0.131793
O O7 0.402237 0.333577 0.226007
O O8 0.943949 0.684136 0.500000
O O9 0.942817 0.500000 0.617715
O O10 0.912934 0.769236 0.630295
O O11 0.000000 0.719013 0.614820
O O12 0.500000 0.000000 0.093770
O O13 0.500000 0.229955 0.000000
O O14 0.165704 0.264296 0.697977
O O15 0.134136 0.000000 0.667364
O O16 0.750000 0.750000 0.275900
O O17 0.708412 0.000000 0.261081
#
# Coordination Sequence:
#
# PCOD8271752 Si02
#       6
#    16  16  16   8  16  16
#     4   9  18  33  51  71  98 133 174 220 271 326
#     4  10  21  34  48  70  99 132 173 221 268 313
#     4   9  19  36  58  86 118 149 180 214 256 310
#     4  11  23  35  47  65  92 131 178 223 267 318
#     4  10  21  36  55  80 110 142 179 220 264 316
#     4  10  20  35  55  78 106 140 180 225 275 325
#
# _framework density 18.638218999999999
#
# number of rings (size 3 to 8) (size 9 to 14) (size 15 to 20)
#    0.000    2.273    0.000    3.000    1.273    7.273 
#    0.000    0.909    0.000    0.545    0.000    0.000 
#    0.000    0.000    0.000    0.000    0.000    0.000 
#
# Total GULP energy -545542.706237 kJ/mol
# GULP energy per Si atom -12398.697869 kJ/mol
# Density = 1.859580 g / cm^3
# Si number density = 18.638219 Si / 1000 Ang^3
#
#
#
# Elastic Constant Matrix: (Units=GPa)
#
#
# Indices 1 2 3 4 5 6 
#
# 1 127.6579 61.8256 32.6764 0.0000 0.0000 0.0000
# 2 61.8256 104.0033 28.6654 0.0000 0.0000 0.0000
# 3 32.6764 28.6654 46.2920 0.0000 0.0000 0.0000
# 4 0.0000 0.0000 0.0000 25.9337 0.0000 0.0000
# 5 0.0000 0.0000 0.0000 0.0000 34.1709 0.0000
# 6 0.0000 0.0000 0.0000 0.0000 0.0000 37.8627
#
#
#
# Elastic Compliance Matrix: (Units=1/GPa)
#
#
# Indices 1 2 3 4 5 6 
#
# 1 0.011829 -0.005704 -0.004818 0.000000 0.000000 0.000000
# 2 -0.005704 0.014344 -0.004856 0.000000 0.000000 0.000000
# 3 -0.004818 -0.004856 0.028010 0.000000 0.000000 0.000000
# 4 0.000000 0.000000 0.000000 0.038560 0.000000 0.000000
# 5 0.000000 0.000000 0.000000 0.000000 0.029265 0.000000
# 6 0.000000 0.000000 0.000000 0.000000 0.000000 0.026411
#
#
# Mechanical properties :
#
#
# Convention : Reuss Voigt Hill
#
# Bulk Modulus (GPa) = 42.68504 58.25421 50.46963
# Shear Modulus (GPa) = 26.74026 29.91252 28.32639
#
# Velocity S-wave (km/s) = 3.79185 4.01047 3.90269
# Velocity P-wave (km/s) = 6.49018 7.26418 6.88806
#
# Compressibility (1/GPa) = 0.02342741
#
# Stress axis : x y z
#
# Youngs Moduli (GPa) = 84.53692 69.71391 35.70184
#
# Poissons Ratio (x) = 0.39765 0.17200
# Poissons Ratio (y) = 0.48220 0.17337
# Poissons Ratio (z) = 0.40728 0.33854
#
# Static dielectric constant tensor:
#      x y z
#    x 3.257750 0.000000 0.000000 
#    y 0.000000 3.622830 0.000000 
#    z 0.000000 0.000000 3.242530 
# 
# 
# High freq. dielectric constant tensor:
#      x y z
#    x 1.717400 0.000000 0.000000 
#    y 0.000000 1.734600 0.000000 
#    z 0.000000 0.000000 1.704470 
# 
# From -- ./inp_files/57962.got.cif
#   From: 2010.03.12/outbox.cif.g09.slc.cpg/sg65_29_cif.got.tgz:57962.got - 2010.04.10 20:52:16.
