data_PCOD8271019
_publ_section_title
;
Structure prediction by ZEFSAII (Michael W. Deem and Ramdas Pophale) SiO2 
 PCOD8271019
Probable space group: C M M M
;
_chemical_formula_sum "Si O2"
_cell_formula_units_Z 80
_cell_length_a 19.443560
_cell_length_b 9.131200
_cell_length_c 25.012838
_cell_angle_alpha 90.000000
_cell_angle_beta 90.000000
_cell_angle_gamma 90.000000
_cell_volume 4440.855174
_symmetry_space_group_name_H-M "C M M M"
_symmetry_group_IT_number 65
_symmetry_cell_setting 'orthorhombic'
loop_
_space_group_symop_operation_xyz
x,y,z
-x,-y,z
x,-y,-z
-x,y,-z
-x,-y,-z
x,y,-z
-x,y,z
x,-y,z
1/2+x,1/2+y,z
1/2-x,1/2-y,z
1/2+x,1/2-y,-z
1/2-x,1/2+y,-z
1/2-x,1/2-y,-z
1/2+x,1/2+y,-z
1/2-x,1/2+y,z
1/2+x,1/2-y,z
loop_
_atom_site_type_symbol
_atom_site_label
_atom_site_fract_x
_atom_site_fract_y
_atom_site_fract_z
Si Si1 0.678986 0.171868 0.768355
Si Si2 0.681758 0.670511 0.060385
Si Si3 0.423655 0.173819 0.558930
Si Si4 0.079684 0.171164 0.152700
Si Si5 0.680947 0.170996 0.354321
O O1 0.750000 0.250000 0.785486
O O2 0.614983 0.235747 0.800786
O O3 0.661095 0.204950 0.706760
O O4 0.687266 0.000000 0.779789
O O5 0.698086 0.500000 0.062530
O O6 0.750000 0.750000 0.082435
O O7 0.616306 0.710691 0.096663
O O8 0.664728 0.722102 0.000000
O O9 0.395814 0.220066 0.500000
O O10 0.500000 0.238099 0.567172
O O11 0.376751 0.237245 0.606354
O O12 0.426224 0.000000 0.563007
O O13 0.000000 0.216695 0.148128
O O14 0.087621 0.000000 0.166150
O O15 0.750000 0.250000 0.371188
O O16 0.691747 0.000000 0.363514
#
# Coordination Sequence:
#
# PCOD8271019 Si02
#       5
#    16  16  16  16  16
#     4  10  20  34  52  72  97 130 166 204 245 291
#     4   9  18  33  53  75  98 127 163 200 239 285
#     4   8  14  26  45  68  93 122 157 195 233 276
#     4  10  21  35  51  74 103 132 163 201 244 289
#     4   9  18  31  48  71  96 122 155 196 240 284
#
# _framework density 18.014548000000001
#
# number of rings (size 3 to 8) (size 9 to 14) (size 15 to 20)
#    0.000    2.800    0.000    1.800    0.000    5.200 
#    0.000    4.000    0.000    0.600    0.000    5.600 
#    0.000    0.000    0.000    0.000    0.000    0.000 
#
# Total GULP energy -495941.652719 kJ/mol
# GULP energy per Si atom -12398.541318 kJ/mol
# Density = 1.797355 g / cm^3
# Si number density = 18.014548 Si / 1000 Ang^3
#
#
#
# Elastic Constant Matrix: (Units=GPa)
#
#
# Indices 1 2 3 4 5 6 
#
# 1 158.6706 49.9954 93.7658 0.0000 0.0000 0.0000
# 2 49.9954 42.8111 41.4235 0.0000 0.0000 0.0000
# 3 93.7658 41.4235 117.9027 0.0000 0.0000 0.0000
# 4 0.0000 0.0000 0.0000 17.1984 0.0000 0.0000
# 5 0.0000 0.0000 0.0000 0.0000 34.8440 0.0000
# 6 0.0000 0.0000 0.0000 0.0000 0.0000 27.4543
#
#
#
# Elastic Compliance Matrix: (Units=1/GPa)
#
#
# Indices 1 2 3 4 5 6 
#
# 1 0.013548 -0.008176 -0.007902 0.000000 0.000000 0.000000
# 2 -0.008176 0.040323 -0.007665 0.000000 0.000000 0.000000
# 3 -0.007902 -0.007665 0.017459 0.000000 0.000000 0.000000
# 4 0.000000 0.000000 0.000000 0.058145 0.000000 0.000000
# 5 0.000000 0.000000 0.000000 0.000000 0.028699 0.000000
# 6 0.000000 0.000000 0.000000 0.000000 0.000000 0.036424
#
#
# Mechanical properties :
#
#
# Convention : Reuss Voigt Hill
#
# Bulk Modulus (GPa) = 41.93879 76.63934 59.28906
# Shear Modulus (GPa) = 19.99745 24.84597 22.42171
#
# Velocity S-wave (km/s) = 3.33539 3.71781 3.53178
# Velocity P-wave (km/s) = 6.17771 7.81440 7.04376
#
# Compressibility (1/GPa) = 0.02384428
#
# Stress axis : x y z
#
# Youngs Moduli (GPa) = 73.81025 24.80004 57.27710
#
# Poissons Ratio (x) = 0.20276 0.45262
# Poissons Ratio (y) = 0.60345 0.43902
# Poissons Ratio (z) = 0.58327 0.19009
#
# Static dielectric constant tensor:
#      x y z
#    x 3.456480 0.000000 0.000000 
#    y 0.000000 3.106700 0.000000 
#    z 0.000000 0.000000 3.586220 
# 
# 
# High freq. dielectric constant tensor:
#      x y z
#    x 1.694150 0.000000 0.000000 
#    y 0.000000 1.673550 0.000000 
#    z 0.000000 0.000000 1.708980 
# 
# From -- ./inp_files/72767.got.cif
#   From: 2010.03.12/outbox.cif.g09.slc.cpg/sg65_37_cif.got.tgz:72767.got - 2010.04.10 20:52:16.
