data_PCOD8271579
_publ_section_title
;
Structure prediction by ZEFSAII (Michael W. Deem and Ramdas Pophale) SiO2 
 PCOD8271579
Probable space group: C M M M
;
_chemical_formula_sum "Si O2"
_cell_formula_units_Z 64
_cell_length_a 14.423818
_cell_length_b 26.574350
_cell_length_c 7.786033
_cell_angle_alpha 90.000000
_cell_angle_beta 90.000000
_cell_angle_gamma 90.000000
_cell_volume 2984.414384
_symmetry_space_group_name_H-M "C M M M"
_symmetry_group_IT_number 65
_symmetry_cell_setting 'orthorhombic'
loop_
_space_group_symop_operation_xyz
x,y,z
-x,-y,z
x,-y,-z
-x,y,-z
-x,-y,-z
x,y,-z
-x,y,z
x,-y,z
1/2+x,1/2+y,z
1/2-x,1/2-y,z
1/2+x,1/2-y,-z
1/2-x,1/2+y,-z
1/2-x,1/2-y,-z
1/2+x,1/2+y,-z
1/2-x,1/2+y,z
1/2+x,1/2-y,z
loop_
_atom_site_type_symbol
_atom_site_label
_atom_site_fract_x
_atom_site_fract_y
_atom_site_fract_z
Si Si1 0.206187 0.058009 0.000000
Si Si2 0.888166 0.390297 0.000000
Si Si3 0.108245 0.116681 0.694970
Si Si4 0.649586 0.274517 0.194023
Si Si5 0.601526 0.827055 0.683188
O O1 0.164671 0.082596 0.828174
O O2 0.319868 0.061717 0.000000
O O3 0.178721 0.000000 0.000000
O O4 0.851668 0.357213 0.838760
O O5 0.000000 0.402517 0.000000
O O6 0.124198 0.096976 0.500000
O O7 0.143795 0.174140 0.700633
O O8 0.000000 0.114634 0.744141
O O9 0.750000 0.250000 0.206185
O O10 0.585199 0.231790 0.275815
O O11 0.618780 0.286136 0.000000
O O12 0.654894 0.834656 0.500000
O O13 0.500000 0.850835 0.663893
#
# Coordination Sequence:
#
# PCOD8271579 Si02
#       5
#     8   8  16  16  16
#     4  12  27  46  69  94 119 156 210 274 337 387
#     4  10  22  41  64  93 129 165 205 255 313 383
#     4  11  25  44  67  95 128 169 215 263 317 376
#     4  11  21  33  55  90 130 169 206 246 296 359
#     4  10  20  34  56  87 123 163 201 236 284 354
#
# _framework density 21.444744
#
# number of rings (size 3 to 8) (size 9 to 14) (size 15 to 20)
#    0.000    1.250    2.500    3.375    0.000    9.750 
#    0.000    1.250    0.000    0.000    0.000    5.250 
#    0.000    0.000    0.000    0.000    0.000    0.000 
#
# Total GULP energy -396511.756682 kJ/mol
# GULP energy per Si atom -12390.992396 kJ/mol
# Density = 2.139593 g / cm^3
# Si number density = 21.444744 Si / 1000 Ang^3
#
#
#
# Elastic Constant Matrix: (Units=GPa)
#
#
# Indices 1 2 3 4 5 6 
#
# 1 95.1639 39.4399 45.2730 0.0000 0.0000 0.0000
# 2 39.4399 98.0238 37.5179 0.0000 0.0000 0.0000
# 3 45.2730 37.5179 166.1538 0.0000 0.0000 0.0000
# 4 0.0000 0.0000 0.0000 9.7930 0.0000 0.0000
# 5 0.0000 0.0000 0.0000 0.0000 -24.0690 0.0000
# 6 0.0000 0.0000 0.0000 0.0000 0.0000 21.1583
#
#
#
# Elastic Compliance Matrix: (Units=1/GPa)
#
#
# Indices 1 2 3 4 5 6 
#
# 1 0.013643 -0.004451 -0.002712 0.000000 0.000000 0.000000
# 2 -0.004451 0.012619 -0.001637 0.000000 0.000000 0.000000
# 3 -0.002712 -0.001637 0.007127 0.000000 0.000000 0.000000
# 4 0.000000 0.000000 0.000000 0.102114 0.000000 0.000000
# 5 0.000000 0.000000 0.000000 0.000000 -0.041547 0.000000
# 6 0.000000 0.000000 0.000000 0.000000 0.000000 0.047263
#
#
# Mechanical properties :
#
#
# Convention : Reuss Voigt Hill
#
# Bulk Modulus (GPa) = 63.33497 67.08922 65.21209
# Shear Modulus (GPa) = 30.47252 17.18383 23.82817
#
# Velocity S-wave (km/s) = 3.77368 2.83381 3.33700
# Velocity P-wave (km/s) = 6.97034 6.48536 6.73222
#
# Compressibility (1/GPa) = 0.01578907
#
# Stress axis : x y z
#
# Youngs Moduli (GPa) = 73.29574 79.24593 140.30929
#
# Poissons Ratio (x) = 0.35274 0.38057
# Poissons Ratio (y) = 0.32626 0.22962
# Poissons Ratio (z) = 0.19881 0.12969
#
# Static dielectric constant tensor:
#      x y z
#    x 4.217880 0.000000 0.000000 
#    y 0.000000 3.475510 0.000000 
#    z 0.000000 0.000000 4.290160 
# 
# 
# High freq. dielectric constant tensor:
#      x y z
#    x 1.851870 0.000000 0.000000 
#    y 0.000000 1.792710 0.000000 
#    z 0.000000 0.000000 1.862960 
# 
# From -- ./inp_files/6800.got.cif
#   From: 2010.03.12/outbox.cif.g09.slc.cpg/sg65_4_cif.got.tgz:6800.got - 2010.04.10 20:52:16.
