data_PCOD8271990
_publ_section_title
;
Structure prediction by ZEFSAII (Michael W. Deem and Ramdas Pophale) SiO2 
 PCOD8271990
Probable space group: C M M M
;
_chemical_formula_sum "Si O2"
_cell_formula_units_Z 72
_cell_length_a 17.532378
_cell_length_b 23.639707
_cell_length_c 9.037626
_cell_angle_alpha 90.000000
_cell_angle_beta 90.000000
_cell_angle_gamma 90.000000
_cell_volume 3745.736993
_symmetry_space_group_name_H-M "C M M M"
_symmetry_group_IT_number 65
_symmetry_cell_setting 'orthorhombic'
loop_
_space_group_symop_operation_xyz
x,y,z
-x,-y,z
x,-y,-z
-x,y,-z
-x,-y,-z
x,y,-z
-x,y,z
x,-y,z
1/2+x,1/2+y,z
1/2-x,1/2-y,z
1/2+x,1/2-y,-z
1/2-x,1/2+y,-z
1/2-x,1/2-y,-z
1/2+x,1/2+y,-z
1/2-x,1/2+y,z
1/2+x,1/2-y,z
loop_
_atom_site_type_symbol
_atom_site_label
_atom_site_fract_x
_atom_site_fract_y
_atom_site_fract_z
Si Si1 0.273194 0.690357 0.669668
Si Si2 0.000000 0.433618 0.174313
Si Si3 0.104475 0.000000 0.161394
Si Si4 0.585104 0.383332 0.328327
Si Si5 0.351180 0.901207 0.330712
Si Si6 0.779141 0.500000 0.161513
O O1 0.295206 0.701880 0.500000
O O2 0.250000 0.750000 0.747597
O O3 0.347999 0.658061 0.738803
O O4 0.194418 0.656631 0.684055
O O5 0.071213 0.399869 0.239299
O O6 0.000000 0.500000 0.222684
O O7 0.000000 0.427790 0.000000
O O8 0.081876 0.943916 0.249724
O O9 0.192112 0.000000 0.127499
O O10 0.063635 0.000000 0.000000
O O11 0.604266 0.394655 0.500000
O O12 0.500000 0.355748 0.310082
O O13 0.369593 0.916513 0.500000
O O14 0.296335 0.946620 0.259841
O O15 0.822849 0.500000 0.000000
#
# Coordination Sequence:
#
# PCOD8271990 Si02
#       6
#    16   8   8  16  16   8
#     4   9  19  37  58  83 113 145 186 237 286 327
#     4  11  23  37  55  83 122 156 180 225 286 343
#     4  11  22  34  54  83 117 152 183 222 280 341
#     4  10  20  35  57  85 114 147 185 228 279 333
#     4  11  21  35  59  85 110 146 192 237 280 335
#     4  11  21  33  53  81 113 152 186 225 287 344
#
# _framework density 19.22185
#
# number of rings (size 3 to 8) (size 9 to 14) (size 15 to 20)
#    0.000    1.667    3.333    2.000    0.000    3.111 
#    2.000    0.000    0.000    6.000    0.000    0.000 
#    0.000    0.000    0.000    0.000    0.000    0.000 
#
# Total GULP energy -446053.660405 kJ/mol
# GULP energy per Si atom -12390.379456 kJ/mol
# Density = 1.917810 g / cm^3
# Si number density = 19.221850 Si / 1000 Ang^3
#
#
#
# Elastic Constant Matrix: (Units=GPa)
#
#
# Indices 1 2 3 4 5 6 
#
# 1 142.5101 50.2685 37.9770 0.0000 0.0000 0.0000
# 2 50.2685 119.9027 39.9911 0.0000 0.0000 0.0000
# 3 37.9770 39.9911 83.9216 0.0000 0.0000 0.0000
# 4 0.0000 0.0000 0.0000 6.7840 0.0000 0.0000
# 5 0.0000 0.0000 0.0000 0.0000 69.9774 0.0000
# 6 0.0000 0.0000 0.0000 0.0000 0.0000 14.9971
#
#
#
# Elastic Compliance Matrix: (Units=1/GPa)
#
#
# Indices 1 2 3 4 5 6 
#
# 1 0.008691 -0.002773 -0.002612 0.000000 0.000000 0.000000
# 2 -0.002773 0.010801 -0.003892 0.000000 0.000000 0.000000
# 3 -0.002612 -0.003892 0.014952 0.000000 0.000000 0.000000
# 4 0.000000 0.000000 0.000000 0.147406 0.000000 0.000000
# 5 0.000000 0.000000 0.000000 0.000000 0.014290 0.000000
# 6 0.000000 0.000000 0.000000 0.000000 0.000000 0.066680
#
#
# Mechanical properties :
#
#
# Convention : Reuss Voigt Hill
#
# Bulk Modulus (GPa) = 62.92771 66.97860 64.95316
# Shear Modulus (GPa) = 17.44165 32.89155 25.16660
#
# Velocity S-wave (km/s) = 3.01555 4.14110 3.62231
# Velocity P-wave (km/s) = 6.70324 7.60168 7.16655
#
# Compressibility (1/GPa) = 0.01589125
#
# Stress axis : x y z
#
# Youngs Moduli (GPa) = 115.06123 92.58723 66.87849
#
# Poissons Ratio (x) = 0.25670 0.17467
# Poissons Ratio (y) = 0.31902 0.26030
# Poissons Ratio (z) = 0.30051 0.36036
#
# Static dielectric constant tensor:
#      x y z
#    x 3.860230 0.000000 0.000000 
#    y 0.000000 3.506810 0.000000 
#    z 0.000000 0.000000 3.477500 
# 
# 
# High freq. dielectric constant tensor:
#      x y z
#    x 1.770750 0.000000 0.000000 
#    y 0.000000 1.728310 0.000000 
#    z 0.000000 0.000000 1.731580 
# 
# From -- ./inp_files/9338.got.cif
#   From: 2010.03.12/outbox.cif.g09.slc.cpg/sg65_5_cif.got.tgz:9338.got - 2010.04.10 20:52:16.
