data_PCOD8271778
_publ_section_title
;
Structure prediction by ZEFSAII (Michael W. Deem and Ramdas Pophale) SiO2 
 PCOD8271778
Probable space group: C M M M
;
_chemical_formula_sum "Si O2"
_cell_formula_units_Z 72
_cell_length_a 17.896742
_cell_length_b 23.606925
_cell_length_c 8.876139
_cell_angle_alpha 90.000000
_cell_angle_beta 90.000000
_cell_angle_gamma 90.000000
_cell_volume 3750.053747
_symmetry_space_group_name_H-M "C M M M"
_symmetry_group_IT_number 65
_symmetry_cell_setting 'orthorhombic'
loop_
_space_group_symop_operation_xyz
x,y,z
-x,-y,z
x,-y,-z
-x,y,-z
-x,-y,-z
x,y,-z
-x,y,z
x,-y,z
1/2+x,1/2+y,z
1/2-x,1/2-y,z
1/2+x,1/2-y,-z
1/2-x,1/2+y,-z
1/2-x,1/2-y,-z
1/2+x,1/2+y,-z
1/2-x,1/2+y,z
1/2+x,1/2-y,z
loop_
_atom_site_type_symbol
_atom_site_label
_atom_site_fract_x
_atom_site_fract_y
_atom_site_fract_z
Si Si1 0.086753 0.265600 0.324614
Si Si2 0.139405 0.624539 0.178735
Si Si3 0.500000 0.066916 0.329620
Si Si4 0.288996 0.563340 0.178670
Si Si5 0.414811 0.648041 0.175959
O O1 0.104738 0.268585 0.500000
O O2 0.136902 0.311376 0.238441
O O3 0.109135 0.204012 0.265061
O O4 0.000000 0.278773 0.290400
O O5 0.216028 0.596400 0.236453
O O6 0.072787 0.587727 0.244465
O O7 0.133452 0.624969 0.000000
O O8 0.500000 0.091357 0.500000
O O9 0.500000 0.000000 0.330034
O O10 0.290802 0.500000 0.248047
O O11 0.362830 0.596735 0.232422
O O12 0.287312 0.559454 0.000000
O O13 0.500000 0.630859 0.212092
O O14 0.403298 0.660586 0.000000
#
# Coordination Sequence:
#
# PCOD8271778 Si02
#       5
#    16  16   8  16  16
#     4  10  20  35  55  79 112 146 181 228 279 329
#     4  11  21  34  56  81 109 146 187 229 272 325
#     4  11  23  37  53  77 111 149 188 227 270 323
#     4   9  19  35  54  81 114 143 179 231 281 324
#     4   9  18  34  58  84 109 141 183 227 275 331
#
# _framework density 19.199725000000001
#
# number of rings (size 3 to 8) (size 9 to 14) (size 15 to 20)
#    0.000    2.111    1.111    2.333    0.000    4.000 
#    0.000    8.889    0.000    3.333    0.000    3.111 
#    0.000    0.000    0.000    0.000    0.000    0.000 
#
# Total GULP energy -446504.906429 kJ/mol
# GULP energy per Si atom -12402.914067 kJ/mol
# Density = 1.915603 g / cm^3
# Si number density = 19.199725 Si / 1000 Ang^3
#
#
#
# Elastic Constant Matrix: (Units=GPa)
#
#
# Indices 1 2 3 4 5 6 
#
# 1 137.0971 94.4371 39.2767 0.0000 0.0000 0.0000
# 2 94.4371 163.5529 50.1028 0.0000 0.0000 0.0000
# 3 39.2767 50.1028 69.5944 0.0000 0.0000 0.0000
# 4 0.0000 0.0000 0.0000 20.2757 0.0000 0.0000
# 5 0.0000 0.0000 0.0000 0.0000 3.3627 0.0000
# 6 0.0000 0.0000 0.0000 0.0000 0.0000 6.1114
#
#
#
# Elastic Compliance Matrix: (Units=1/GPa)
#
#
# Indices 1 2 3 4 5 6 
#
# 1 0.012408 -0.006439 -0.002367 0.000000 0.000000 0.000000
# 2 -0.006439 0.011186 -0.004419 0.000000 0.000000 0.000000
# 3 -0.002367 -0.004419 0.018886 0.000000 0.000000 0.000000
# 4 0.000000 0.000000 0.000000 0.049320 0.000000 0.000000
# 5 0.000000 0.000000 0.000000 0.000000 0.297380 0.000000
# 6 0.000000 0.000000 0.000000 0.000000 0.000000 0.163629
#
#
# Mechanical properties :
#
#
# Convention : Reuss Voigt Hill
#
# Bulk Modulus (GPa) = 62.38378 81.98639 72.18508
# Shear Modulus (GPa) = 8.55282 18.37848 13.46565
#
# Velocity S-wave (km/s) = 2.11290 3.09726 2.65117
# Velocity P-wave (km/s) = 6.20604 7.45555 6.85931
#
# Compressibility (1/GPa) = 0.01602981
#
# Stress axis : x y z
#
# Youngs Moduli (GPa) = 80.59461 89.39660 52.94932
#
# Poissons Ratio (x) = 0.57566 0.12531
# Poissons Ratio (y) = 0.51898 0.23398
# Poissons Ratio (z) = 0.19074 0.39504
#
# Static dielectric constant tensor:
#      x y z
#    x 3.586120 0.000000 0.000000 
#    y 0.000000 3.719160 0.000000 
#    z 0.000000 0.000000 3.363960 
# 
# 
# High freq. dielectric constant tensor:
#      x y z
#    x 1.744910 0.000000 0.000000 
#    y 0.000000 1.759540 0.000000 
#    z 0.000000 0.000000 1.729100 
# 
# From -- ./inp_files/9214.got.cif
#   From: 2010.03.12/outbox.cif.g09.slc.cpg/sg65_5_cif.got.tgz:9214.got - 2010.04.10 20:52:16.
