data_PCOD8271669
_publ_section_title
;
Structure prediction by ZEFSAII (Michael W. Deem and Ramdas Pophale) SiO2 
 PCOD8271669
Probable space group: C M M M
;
_chemical_formula_sum "Si O2"
_cell_formula_units_Z 104
_cell_length_a 30.100202
_cell_length_b 20.737224
_cell_length_c 9.068226
_cell_angle_alpha 90.000000
_cell_angle_beta 90.000000
_cell_angle_gamma 90.000000
_cell_volume 5660.337985
_symmetry_space_group_name_H-M "C M M M"
_symmetry_group_IT_number 65
_symmetry_cell_setting 'orthorhombic'
loop_
_space_group_symop_operation_xyz
x,y,z
-x,-y,z
x,-y,-z
-x,y,-z
-x,-y,-z
x,y,-z
-x,y,z
x,-y,z
1/2+x,1/2+y,z
1/2-x,1/2-y,z
1/2+x,1/2-y,-z
1/2-x,1/2+y,-z
1/2-x,1/2-y,-z
1/2+x,1/2+y,-z
1/2-x,1/2+y,z
1/2+x,1/2-y,z
loop_
_atom_site_type_symbol
_atom_site_label
_atom_site_fract_x
_atom_site_fract_y
_atom_site_fract_z
Si Si1 0.448957 0.871043 0.826772
Si Si2 0.726657 0.186021 0.171837
Si Si3 0.288271 0.426601 0.826147
Si Si4 0.052552 0.500000 0.335208
Si Si5 0.129963 0.722182 0.828621
Si Si6 0.867036 0.856364 0.325071
Si Si7 0.951657 0.071474 0.675019
O O1 0.500000 0.853115 0.781653
O O2 0.431665 0.935928 0.748892
O O3 0.414966 0.814605 0.778141
O O4 0.445827 0.883562 0.000000
O O5 0.750000 0.250000 0.243801
O O6 0.749149 0.120542 0.232351
O O7 0.673977 0.179708 0.202536
O O8 0.736388 0.189946 0.000000
O O9 0.275658 0.500000 0.784695
O O10 0.332664 0.406531 0.742631
O O11 0.296383 0.419352 0.000000
O O12 0.072619 0.500000 0.500000
O O13 0.000000 0.500000 0.340157
O O14 0.138654 0.784758 0.732558
O O15 0.126693 0.741349 0.000000
O O16 0.862168 0.857260 0.500000
O O17 0.915229 0.878794 0.267594
O O18 0.950641 0.068316 0.500000
O O19 0.000000 0.095519 0.730081
O O20 0.941957 0.000000 0.737938
#
# Coordination Sequence:
#
# PCOD8271669 Si02
#       7
#    16  16  16   8  16  16  16
#     4   9  18  33  53  78 107 137 172 217 267 315
#     4   9  16  32  56  76  98 132 173 214 251 297
#     4  10  20  35  56  79 101 129 169 217 261 306
#     4   9  17  31  53  77 103 139 177 213 257 313
#     4  10  20  35  54  75 102 138 176 212 254 305
#     4  11  21  32  51  78 105 134 170 211 256 308
#     4   8  15  29  47  67  95 131 168 205 245 291
#
# _framework density 18.373462
#
# number of rings (size 3 to 8) (size 9 to 14) (size 15 to 20)
#    0.000    2.538    1.538    1.615    0.000    3.077 
#    1.385    1.538    0.000    1.385    0.000    5.385 
#    0.000    0.000    0.000    0.000    0.000    0.000 
#
# Total GULP energy -644519.321947 kJ/mol
# GULP energy per Si atom -12394.602345 kJ/mol
# Density = 1.833164 g / cm^3
# Si number density = 18.373462 Si / 1000 Ang^3
#
#
#
# Elastic Constant Matrix: (Units=GPa)
#
#
# Indices 1 2 3 4 5 6 
#
# 1 120.8144 65.5357 24.7381 0.0000 0.0000 0.0000
# 2 65.5357 131.1584 32.8150 0.0000 0.0000 0.0000
# 3 24.7381 32.8150 37.8007 0.0000 0.0000 0.0000
# 4 0.0000 0.0000 0.0000 13.2809 0.0000 0.0000
# 5 0.0000 0.0000 0.0000 0.0000 17.5638 0.0000
# 6 0.0000 0.0000 0.0000 0.0000 0.0000 36.7514
#
#
#
# Elastic Compliance Matrix: (Units=1/GPa)
#
#
# Indices 1 2 3 4 5 6 
#
# 1 0.011666 -0.005006 -0.003289 0.000000 0.000000 0.000000
# 2 -0.005006 0.011888 -0.007044 0.000000 0.000000 0.000000
# 3 -0.003289 -0.007044 0.034722 0.000000 0.000000 0.000000
# 4 0.000000 0.000000 0.000000 0.075296 0.000000 0.000000
# 5 0.000000 0.000000 0.000000 0.000000 0.056935 0.000000
# 6 0.000000 0.000000 0.000000 0.000000 0.000000 0.027210
#
#
# Mechanical properties :
#
#
# Convention : Reuss Voigt Hill
#
# Bulk Modulus (GPa) = 36.23437 59.55011 47.89224
# Shear Modulus (GPa) = 19.41030 24.63152 22.02091
#
# Velocity S-wave (km/s) = 3.25381 3.66540 3.46572
# Velocity P-wave (km/s) = 5.82067 7.09893 6.49134
#
# Compressibility (1/GPa) = 0.02759811
#
# Stress axis : x y z
#
# Youngs Moduli (GPa) = 85.71685 84.11644 28.80055
#
# Poissons Ratio (x) = 0.42113 0.09472
# Poissons Ratio (y) = 0.42914 0.20287
# Poissons Ratio (z) = 0.28189 0.59250
#
# Static dielectric constant tensor:
#      x y z
#    x 3.646530 0.000000 0.000000 
#    y 0.000000 3.489980 0.000000 
#    z 0.000000 0.000000 3.103000 
# 
# 
# High freq. dielectric constant tensor:
#      x y z
#    x 1.716300 0.000000 0.000000 
#    y 0.000000 1.712870 0.000000 
#    z 0.000000 0.000000 1.678380 
# 
# From -- ./inp_files/18688.got.cif
#   From: 2010.03.12/outbox.cif.g09.slc.cpg/sg65_10_cif.got.tgz:18688.got - 2010.04.10 20:52:16.
