data_PCOD8271301
_publ_section_title
;
Structure prediction by ZEFSAII (Michael W. Deem and Ramdas Pophale) SiO2 
 PCOD8271301
Probable space group: C M M M
;
_chemical_formula_sum "Si O2"
_cell_formula_units_Z 80
_cell_length_a 13.782200
_cell_length_b 17.244471
_cell_length_c 18.587582
_cell_angle_alpha 90.000000
_cell_angle_beta 90.000000
_cell_angle_gamma 90.000000
_cell_volume 4417.650171
_symmetry_space_group_name_H-M "C M M M"
_symmetry_group_IT_number 65
_symmetry_cell_setting 'orthorhombic'
loop_
_space_group_symop_operation_xyz
x,y,z
-x,-y,z
x,-y,-z
-x,y,-z
-x,-y,-z
x,y,-z
-x,y,z
x,-y,z
1/2+x,1/2+y,z
1/2-x,1/2-y,z
1/2+x,1/2-y,-z
1/2-x,1/2+y,-z
1/2-x,1/2-y,-z
1/2+x,1/2+y,-z
1/2-x,1/2+y,z
1/2+x,1/2-y,z
loop_
_atom_site_type_symbol
_atom_site_label
_atom_site_fract_x
_atom_site_fract_y
_atom_site_fract_z
Si Si1 0.727039 0.660617 0.918432
Si Si2 0.110400 0.410119 0.416968
Si Si3 0.110136 0.589912 0.833327
Si Si4 0.610003 0.590238 0.206109
Si Si5 0.274630 0.839552 0.707506
O O1 0.750000 0.750000 0.905299
O O2 0.823500 0.610841 0.901625
O O3 0.640246 0.636700 0.865508
O O4 0.694543 0.644089 0.000000
O O5 0.135242 0.395338 0.500000
O O6 0.122303 0.500000 0.397050
O O7 0.186934 0.360727 0.371357
O O8 0.000000 0.383909 0.400337
O O9 0.122744 0.500000 0.813084
O O10 0.141841 0.640754 0.764981
O O11 0.000000 0.610136 0.853477
O O12 0.500000 0.611864 0.226020
O O13 0.622329 0.500000 0.189210
O O14 0.677214 0.612710 0.273765
O O15 0.250000 0.750000 0.710834
#
# Coordination Sequence:
#
# PCOD8271301 Si02
#       5
#    16  16  16  16  16
#     4  10  21  35  51  73 101 132 165 207 260 312
#     4   9  18  34  57  82 106 134 168 206 249 297
#     4  10  20  34  54  77 100 130 168 211 259 309
#     4  10  21  36  53  72  96 132 177 215 245 287
#     4  11  21  32  52  78 106 136 165 205 253 299
#
# _framework density 18.109173999999999
#
# number of rings (size 3 to 8) (size 9 to 14) (size 15 to 20)
#    0.000    2.000    0.000    7.200    0.000    8.400 
#    0.000    4.000    0.000    0.600    0.000    2.800 
#    0.000    0.000    0.000    0.000    0.000    0.000 
#
# Total GULP energy -496062.282768 kJ/mol
# GULP energy per Si atom -12401.557069 kJ/mol
# Density = 1.806796 g / cm^3
# Si number density = 18.109174 Si / 1000 Ang^3
#
#
#
# Elastic Constant Matrix: (Units=GPa)
#
#
# Indices 1 2 3 4 5 6 
#
# 1 120.9136 35.9028 44.8979 0.0000 0.0000 0.0000
# 2 35.9028 92.8409 42.2439 0.0000 0.0000 0.0000
# 3 44.8979 42.2439 98.8417 0.0000 0.0000 0.0000
# 4 0.0000 0.0000 0.0000 109.5238 0.0000 0.0000
# 5 0.0000 0.0000 0.0000 0.0000 19.7364 0.0000
# 6 0.0000 0.0000 0.0000 0.0000 0.0000 19.5174
#
#
#
# Elastic Compliance Matrix: (Units=1/GPa)
#
#
# Indices 1 2 3 4 5 6 
#
# 1 0.010332 -0.002309 -0.003706 0.000000 0.000000 0.000000
# 2 -0.002309 0.013888 -0.004886 0.000000 0.000000 0.000000
# 3 -0.003706 -0.004886 0.013889 0.000000 0.000000 0.000000
# 4 0.000000 0.000000 0.000000 0.009130 0.000000 0.000000
# 5 0.000000 0.000000 0.000000 0.000000 0.050668 0.000000
# 6 0.000000 0.000000 0.000000 0.000000 0.000000 0.051236
#
#
# Mechanical properties :
#
#
# Convention : Reuss Voigt Hill
#
# Bulk Modulus (GPa) = 61.33115 62.07612 61.70364
# Shear Modulus (GPa) = 28.34744 42.39229 35.36987
#
# Velocity S-wave (km/s) = 3.96076 4.84356 4.42424
# Velocity P-wave (km/s) = 7.40660 8.10144 7.76180
#
# Compressibility (1/GPa) = 0.01630493
#
# Stress axis : x y z
#
# Youngs Moduli (GPa) = 96.78379 72.00716 71.99826
#
# Poissons Ratio (x) = 0.16628 0.26686
# Poissons Ratio (y) = 0.22349 0.35182
# Poissons Ratio (z) = 0.35872 0.35186
#
# Static dielectric constant tensor:
#      x y z
#    x 3.468630 0.000000 0.000000 
#    y 0.000000 3.418060 0.000000 
#    z 0.000000 0.000000 3.277160 
# 
# 
# High freq. dielectric constant tensor:
#      x y z
#    x 1.701580 0.000000 0.000000 
#    y 0.000000 1.707290 0.000000 
#    z 0.000000 0.000000 1.690870 
# 
# From -- ./inp_files/52888.got.cif
#   From: 2010.03.12/outbox.cif.g09.slc.cpg/sg65_27_cif.got.tgz:52888.got - 2010.04.10 20:52:16.
