data_PCOD8271463
_publ_section_title
;
Structure prediction by ZEFSAII (Michael W. Deem and Ramdas Pophale) SiO2 
 PCOD8271463
Probable space group: C M M M
;
_chemical_formula_sum "Si O2"
_cell_formula_units_Z 64
_cell_length_a 15.599663
_cell_length_b 7.930939
_cell_length_c 24.177821
_cell_angle_alpha 90.000000
_cell_angle_beta 90.000000
_cell_angle_gamma 90.000000
_cell_volume 2991.279426
_symmetry_space_group_name_H-M "C M M M"
_symmetry_group_IT_number 65
_symmetry_cell_setting 'orthorhombic'
loop_
_space_group_symop_operation_xyz
x,y,z
-x,-y,z
x,-y,-z
-x,y,-z
-x,-y,-z
x,y,-z
-x,y,z
x,-y,z
1/2+x,1/2+y,z
1/2-x,1/2-y,z
1/2+x,1/2-y,-z
1/2-x,1/2+y,-z
1/2-x,1/2-y,-z
1/2+x,1/2+y,-z
1/2-x,1/2+y,z
1/2+x,1/2-y,z
loop_
_atom_site_type_symbol
_atom_site_label
_atom_site_fract_x
_atom_site_fract_y
_atom_site_fract_z
Si Si1 0.099579 0.803382 0.749560
Si Si2 0.500000 0.701458 0.062287
Si Si3 0.342482 0.698512 0.866495
Si Si4 0.102490 0.000000 0.437450
Si Si5 0.898124 0.686130 0.367448
O O1 0.147502 0.731455 0.803890
O O2 0.135754 0.709328 0.695247
O O3 0.000000 0.765691 0.758858
O O4 0.115836 0.000000 0.740205
O O5 0.500000 0.500000 0.062115
O O6 0.584350 0.772871 0.093322
O O7 0.500000 0.772367 0.000000
O O8 0.353854 0.500000 0.864574
O O9 0.250000 0.750000 0.890342
O O10 0.139147 0.168005 0.407344
O O11 0.136809 0.000000 0.500000
O O12 0.000000 0.000000 0.436061
O O13 0.870112 0.500000 0.388832
O O14 0.000000 0.703320 0.366656
#
# Coordination Sequence:
#
# PCOD8271463 Si02
#       5
#    16   8  16   8  16
#     4   9  15  28  49  68  95 136 182 226 281 349
#     4   9  18  36  59  81 109 153 203 234 273 346
#     4  10  20  34  54  82 111 146 187 238 293 344
#     4   9  16  26  38  58  96 142 182 229 282 337
#     4   9  16  25  40  65  93 131 183 230 282 343
#
# _framework density 21.395527999999999
#
# number of rings (size 3 to 8) (size 9 to 14) (size 15 to 20)
#    0.000    2.750    2.500    0.000    0.000    2.000 
#    0.000    3.125    0.000    0.750    0.000    0.000 
#    0.000    1.000    0.500    0.000    0.000    0.000 
#
# Total GULP energy -396678.406418 kJ/mol
# GULP energy per Si atom -12396.200201 kJ/mol
# Density = 2.134683 g / cm^3
# Si number density = 21.395528 Si / 1000 Ang^3
#
#
#
# Elastic Constant Matrix: (Units=GPa)
#
#
# Indices 1 2 3 4 5 6 
#
# 1 82.2248 21.8424 50.2878 0.0000 0.0000 0.0000
# 2 21.8424 91.9399 63.9583 0.0000 0.0000 0.0000
# 3 50.2878 63.9583 179.4683 0.0000 0.0000 0.0000
# 4 0.0000 0.0000 0.0000 11.9879 0.0000 0.0000
# 5 0.0000 0.0000 0.0000 0.0000 6.8833 0.0000
# 6 0.0000 0.0000 0.0000 0.0000 0.0000 16.2712
#
#
#
# Elastic Compliance Matrix: (Units=1/GPa)
#
#
# Indices 1 2 3 4 5 6 
#
# 1 0.014725 -0.000835 -0.003828 0.000000 0.000000 0.000000
# 2 -0.000835 0.014509 -0.004937 0.000000 0.000000 0.000000
# 3 -0.003828 -0.004937 0.008404 0.000000 0.000000 0.000000
# 4 0.000000 0.000000 0.000000 0.083418 0.000000 0.000000
# 5 0.000000 0.000000 0.000000 0.000000 0.145280 0.000000
# 6 0.000000 0.000000 0.000000 0.000000 0.000000 0.061458
#
#
# Mechanical properties :
#
#
# Convention : Reuss Voigt Hill
#
# Bulk Modulus (GPa) = 54.23584 69.53444 61.88514
# Shear Modulus (GPa) = 14.15866 21.53144 17.84505
#
# Velocity S-wave (km/s) = 2.57526 3.17575 2.89113
# Velocity P-wave (km/s) = 5.85207 6.78360 6.33498
#
# Compressibility (1/GPa) = 0.01843799
#
# Stress axis : x y z
#
# Youngs Moduli (GPa) = 67.91162 68.92095 118.98911
#
# Poissons Ratio (x) = 0.05755 0.45554
# Poissons Ratio (y) = 0.05671 0.58743
# Poissons Ratio (z) = 0.26000 0.34025
#
# Static dielectric constant tensor:
#      x y z
#    x 3.533780 0.000000 0.000000 
#    y 0.000000 3.660480 0.000000 
#    z 0.000000 0.000000 4.050490 
# 
# 
# High freq. dielectric constant tensor:
#      x y z
#    x 1.801640 0.000000 0.000000 
#    y 0.000000 1.821100 0.000000 
#    z 0.000000 0.000000 1.836310 
# 
# From -- ./inp_files/69550.got.cif
#   From: 2010.03.12/outbox.cif.g09.slc.cpg/sg65_35_cif.got.tgz:69550.got - 2010.04.10 20:52:16.
