data_PCOD8271314
_publ_section_title
;
Structure prediction by ZEFSAII (Michael W. Deem and Ramdas Pophale) SiO2 
 PCOD8271314
Probable space group: C M M M
;
_chemical_formula_sum "Si O2"
_cell_formula_units_Z 56
_cell_length_a 9.398809
_cell_length_b 36.402711
_cell_length_c 9.013743
_cell_angle_alpha 90.000000
_cell_angle_beta 90.000000
_cell_angle_gamma 90.000000
_cell_volume 3083.981209
_symmetry_space_group_name_H-M "C M M M"
_symmetry_group_IT_number 65
_symmetry_cell_setting 'orthorhombic'
loop_
_space_group_symop_operation_xyz
x,y,z
-x,-y,z
x,-y,-z
-x,y,-z
-x,-y,-z
x,y,-z
-x,y,z
x,-y,z
1/2+x,1/2+y,z
1/2-x,1/2-y,z
1/2+x,1/2-y,-z
1/2-x,1/2+y,-z
1/2-x,1/2-y,-z
1/2+x,1/2+y,-z
1/2-x,1/2+y,z
1/2+x,1/2-y,z
loop_
_atom_site_type_symbol
_atom_site_label
_atom_site_fract_x
_atom_site_fract_y
_atom_site_fract_z
Si Si1 0.834073 0.564532 0.326977
Si Si2 0.835108 0.000000 0.175149
Si Si3 0.168855 0.636858 0.164735
Si Si4 0.157916 0.716811 0.176798
O O1 0.805236 0.559668 0.500000
O O2 0.739959 0.535827 0.238822
O O3 0.783686 0.605154 0.278106
O O4 0.000000 0.558079 0.288677
O O5 0.000000 0.000000 0.222383
O O6 0.816630 0.000000 0.000000
O O7 0.224434 0.676856 0.220538
O O8 0.000000 0.639741 0.156041
O O9 0.228741 0.627680 0.000000
O O10 0.250000 0.750000 0.245036
O O11 0.000000 0.721108 0.243188
O O12 0.153031 0.719262 0.000000
#
# Coordination Sequence:
#
# PCOD8271314 Si02
#       4
#    16   8  16  16
#     4  10  20  34  54  78 100 126 163 202 241 288
#     4  11  24  39  54  74 100 129 160 195 240 292
#     4   8  14  26  45  68  94 124 158 198 242 283
#     4   8  13  22  38  61  88 118 153 194 239 281
#
# _framework density 18.158346999999999
#
# number of rings (size 3 to 8) (size 9 to 14) (size 15 to 20)
#    0.000    3.000    0.000    3.429    0.000    4.571 
#    0.000    1.429    0.000    6.000    0.000    0.000 
#    0.000    0.000    0.000    0.000    0.000    0.000 
#
# Total GULP energy -347023.305692 kJ/mol
# GULP energy per Si atom -12393.689489 kJ/mol
# Density = 1.811702 g / cm^3
# Si number density = 18.158347 Si / 1000 Ang^3
#
#
#
# Elastic Constant Matrix: (Units=GPa)
#
#
# Indices 1 2 3 4 5 6 
#
# 1 69.9131 66.5010 37.2987 0.0000 0.0000 0.0000
# 2 66.5010 177.2289 49.5628 0.0000 0.0000 0.0000
# 3 37.2987 49.5628 59.7876 0.0000 0.0000 0.0000
# 4 0.0000 0.0000 0.0000 -1.6220 0.0000 0.0000
# 5 0.0000 0.0000 0.0000 0.0000 15.8499 0.0000
# 6 0.0000 0.0000 0.0000 0.0000 0.0000 27.3032
#
#
#
# Elastic Compliance Matrix: (Units=1/GPa)
#
#
# Indices 1 2 3 4 5 6 
#
# 1 0.026777 -0.006998 -0.010904 0.000000 0.000000 0.000000
# 2 -0.006998 0.009174 -0.003239 0.000000 0.000000 0.000000
# 3 -0.010904 -0.003239 0.026214 0.000000 0.000000 0.000000
# 4 0.000000 0.000000 0.000000 -0.616534 0.000000 0.000000
# 5 0.000000 0.000000 0.000000 0.000000 0.063092 0.000000
# 6 0.000000 0.000000 0.000000 0.000000 0.000000 0.036626
#
#
# Mechanical properties :
#
#
# Convention : Reuss Voigt Hill
#
# Bulk Modulus (GPa) = 50.29558 68.18384 59.23971
# Shear Modulus (GPa) = -12.32314 18.54401 3.11043
#
# Velocity S-wave (km/s) = -2.60792 3.19915 1.31022
# Velocity P-wave (km/s) = 4.32321 7.16081 5.91470
#
# Compressibility (1/GPa) = 0.01988246
#
# Stress axis : x y z
#
# Youngs Moduli (GPa) = 37.34493 109.00027 38.14818
#
# Poissons Ratio (x) = 0.76282 0.41596
# Poissons Ratio (y) = 0.26135 0.12358
# Poissons Ratio (z) = 0.40720 0.35309
#
# Static dielectric constant tensor:
#      x y z
#    x 3.185590 0.000000 0.000000 
#    y 0.000000 3.879770 0.000000 
#    z 0.000000 0.000000 3.085130 
# 
# 
# High freq. dielectric constant tensor:
#      x y z
#    x 1.665040 0.000000 0.000000 
#    y 0.000000 1.727200 0.000000 
#    z 0.000000 0.000000 1.672200 
# 
# From -- ./inp_files/4728.got.cif
#   From: 2010.03.12/outbox.cif.g09.slc.cpg/sg65_3_cif.got.tgz:4728.got - 2010.04.10 20:52:16.
