data_PCOD8271885
_publ_section_title
;
Structure prediction by ZEFSAII (Michael W. Deem and Ramdas Pophale) SiO2 
 PCOD8271885
Probable space group: C M M M
;
_chemical_formula_sum "Si O2"
_cell_formula_units_Z 88
_cell_length_a 31.483097
_cell_length_b 8.117888
_cell_length_c 17.204146
_cell_angle_alpha 90.000000
_cell_angle_beta 90.000000
_cell_angle_gamma 90.000000
_cell_volume 4396.971211
_symmetry_space_group_name_H-M "C M M M"
_symmetry_group_IT_number 65
_symmetry_cell_setting 'orthorhombic'
loop_
_space_group_symop_operation_xyz
x,y,z
-x,-y,z
x,-y,-z
-x,y,-z
-x,-y,-z
x,y,-z
-x,y,z
x,-y,z
1/2+x,1/2+y,z
1/2-x,1/2-y,z
1/2+x,1/2-y,-z
1/2-x,1/2+y,-z
1/2-x,1/2-y,-z
1/2+x,1/2+y,-z
1/2-x,1/2+y,z
1/2+x,1/2-y,z
loop_
_atom_site_type_symbol
_atom_site_label
_atom_site_fract_x
_atom_site_fract_y
_atom_site_fract_z
Si Si1 0.627669 0.193165 0.262830
Si Si2 0.599883 0.314341 0.412144
Si Si3 0.794800 0.307361 0.838176
Si Si4 0.081736 0.195736 0.000000
Si Si5 0.545441 0.000000 0.590919
Si Si6 0.176718 0.807193 0.000000
Si Si7 0.548355 0.305030 0.165061
O O1 0.634838 0.292545 0.344535
O O2 0.665029 0.265616 0.208631
O O3 0.581580 0.224270 0.224593
O O4 0.632714 0.000000 0.279381
O O5 0.617416 0.282080 0.500000
O O6 0.580208 0.500000 0.408525
O O7 0.567293 0.171683 0.385623
O O8 0.797874 0.500000 0.834378
O O9 0.750000 0.250000 0.801388
O O10 0.796571 0.248171 0.926221
O O11 0.057826 0.258488 0.922610
O O12 0.129424 0.270810 0.000000
O O13 0.082675 0.000000 0.000000
O O14 0.500000 0.000000 0.633037
O O15 0.539758 0.000000 0.500000
O O16 0.172036 0.000000 0.000000
O O17 0.500000 0.253639 0.186651
O O18 0.554133 0.500000 0.170213
#
# Coordination Sequence:
#
# PCOD8271885 Si02
#       7
#    16  16  16   8   8   8  16
#     4  11  23  39  59  84 119 156 194 247 304 360
#     4  10  21  38  62  88 115 156 204 246 301 366
#     4  11  24  40  60  87 118 153 195 243 300 361
#     4   9  17  32  55  80 109 151 197 243 293 340
#     4   9  18  34  56  84 120 155 195 251 299 346
#     4  11  20  35  61  84 113 156 196 241 299 353
#     4  10  20  35  56  82 113 153 202 249 292 345
#
# _framework density 20.013774999999999
#
# number of rings (size 3 to 8) (size 9 to 14) (size 15 to 20)
#    0.000    1.727    2.727    1.909    0.000    4.727 
#    0.000    2.273    0.000    1.636    0.000    0.000 
#    0.000    0.000    0.000    0.000    0.000    0.000 
#
# Total GULP energy -545282.706236 kJ/mol
# GULP energy per Si atom -12392.788778 kJ/mol
# Density = 1.996822 g / cm^3
# Si number density = 20.013775 Si / 1000 Ang^3
#
#
#
# Elastic Constant Matrix: (Units=GPa)
#
#
# Indices 1 2 3 4 5 6 
#
# 1 130.7080 26.8136 52.1052 0.0000 0.0000 0.0000
# 2 26.8136 83.7746 29.8519 0.0000 0.0000 0.0000
# 3 52.1052 29.8519 139.1304 0.0000 0.0000 0.0000
# 4 0.0000 0.0000 0.0000 25.2068 0.0000 0.0000
# 5 0.0000 0.0000 0.0000 0.0000 11.9281 0.0000
# 6 0.0000 0.0000 0.0000 0.0000 0.0000 22.2928
#
#
#
# Elastic Compliance Matrix: (Units=1/GPa)
#
#
# Indices 1 2 3 4 5 6 
#
# 1 0.009256 -0.001870 -0.003065 0.000000 0.000000 0.000000
# 2 -0.001870 0.013303 -0.002154 0.000000 0.000000 0.000000
# 3 -0.003065 -0.002154 0.008798 0.000000 0.000000 0.000000
# 4 0.000000 0.000000 0.000000 0.039672 0.000000 0.000000
# 5 0.000000 0.000000 0.000000 0.000000 0.083836 0.000000
# 6 0.000000 0.000000 0.000000 0.000000 0.000000 0.044858
#
#
# Mechanical properties :
#
#
# Convention : Reuss Voigt Hill
#
# Bulk Modulus (GPa) = 58.21427 63.46160 60.83793
# Shear Modulus (GPa) = 22.76592 28.20836 25.48714
#
# Velocity S-wave (km/s) = 3.37636 3.75833 3.57246
# Velocity P-wave (km/s) = 6.65958 7.11416 6.89062
#
# Compressibility (1/GPa) = 0.01717792
#
# Stress axis : x y z
#
# Youngs Moduli (GPa) = 108.03520 75.17141 113.66782
#
# Poissons Ratio (x) = 0.14060 0.34842
# Poissons Ratio (y) = 0.20207 0.24482
# Poissons Ratio (z) = 0.33115 0.16191
#
# Static dielectric constant tensor:
#      x y z
#    x 3.594180 0.000000 0.000000 
#    y 0.000000 3.584240 0.000000 
#    z 0.000000 0.000000 3.831480 
# 
# 
# High freq. dielectric constant tensor:
#      x y z
#    x 1.759120 0.000000 0.000000 
#    y 0.000000 1.780330 0.000000 
#    z 0.000000 0.000000 1.786710 
# 
# From -- ./inp_files/58077.got.cif
#   From: 2010.03.12/outbox.cif.g09.slc.cpg/sg65_30_cif.got.tgz:58077.got - 2010.04.10 20:52:16.
