data_PCOD8271157
_publ_section_title
;
Structure prediction by ZEFSAII (Michael W. Deem and Ramdas Pophale) SiO2 
 PCOD8271157
Probable space group: C M M M
;
_chemical_formula_sum "Si O2"
_cell_formula_units_Z 104
_cell_length_a 18.001913
_cell_length_b 18.740660
_cell_length_c 17.999244
_cell_angle_alpha 90.000000
_cell_angle_beta 90.000000
_cell_angle_gamma 90.000000
_cell_volume 6072.364106
_symmetry_space_group_name_H-M "C M M M"
_symmetry_group_IT_number 65
_symmetry_cell_setting 'orthorhombic'
loop_
_space_group_symop_operation_xyz
x,y,z
-x,-y,z
x,-y,-z
-x,y,-z
-x,-y,-z
x,y,-z
-x,y,z
x,-y,z
1/2+x,1/2+y,z
1/2-x,1/2-y,z
1/2+x,1/2-y,-z
1/2-x,1/2+y,-z
1/2-x,1/2-y,-z
1/2+x,1/2+y,-z
1/2-x,1/2+y,z
1/2+x,1/2-y,z
loop_
_atom_site_type_symbol
_atom_site_label
_atom_site_fract_x
_atom_site_fract_y
_atom_site_fract_z
Si Si1 0.416916 0.802520 0.184897
Si Si2 0.363358 0.081337 0.083907
Si Si3 0.710236 0.418003 0.161434
Si Si4 0.719892 0.173376 0.287143
Si Si5 0.339369 0.915065 0.585124
Si Si6 0.500000 0.077002 0.412923
Si Si7 0.086252 0.167133 0.086519
O O1 0.500000 0.790384 0.216567
O O2 0.417860 0.873196 0.134912
O O3 0.361236 0.814311 0.252587
O O4 0.391356 0.737525 0.132389
O O5 0.277383 0.092983 0.104297
O O6 0.387181 0.000000 0.095270
O O7 0.374490 0.106594 0.000000
O O8 0.704618 0.500000 0.188268
O O9 0.723788 0.366623 0.231732
O O10 0.634523 0.397756 0.119108
O O11 0.750000 0.250000 0.310739
O O12 0.717158 0.125181 0.361016
O O13 0.318933 0.896793 0.500000
O O14 0.422134 0.884556 0.606724
O O15 0.335622 0.000000 0.598204
O O16 0.500000 0.062810 0.500000
O O17 0.500000 0.000000 0.372422
O O18 0.000000 0.147463 0.097402
O O19 0.104707 0.179955 0.000000
#
# Coordination Sequence:
#
# PCOD8271157 Si02
#       7
#    16  16  16  16  16   8  16
#     4  10  21  35  49  70 102 137 171 210 254 306
#     4   9  18  31  48  70  96 130 170 209 252 303
#     4  10  20  35  51  72 102 133 167 212 263 316
#     4  11  21  35  53  76 102 139 174 205 250 303
#     4   9  18  33  54  80 109 137 167 205 247 295
#     4   7  12  26  48  76 106 132 158 190 235 288
#     4  10  20  34  53  75  97 129 175 225 273 313
#
# _framework density 17.126771999999999
#
# number of rings (size 3 to 8) (size 9 to 14) (size 15 to 20)
#    0.000    2.385    1.538    2.308    1.077    3.385 
#    0.000    3.846    0.000    0.000    0.000    0.000 
#    0.000    0.000    0.000    5.231    0.000    0.000 
#
# Total GULP energy -644582.921922 kJ/mol
# GULP energy per Si atom -12395.825422 kJ/mol
# Density = 1.708779 g / cm^3
# Si number density = 17.126772 Si / 1000 Ang^3
#
#
#
# Elastic Constant Matrix: (Units=GPa)
#
#
# Indices 1 2 3 4 5 6 
#
# 1 56.7290 28.5057 31.7211 0.0000 0.0000 0.0000
# 2 28.5057 78.1703 37.9782 0.0000 0.0000 0.0000
# 3 31.7211 37.9782 87.7852 0.0000 0.0000 0.0000
# 4 0.0000 0.0000 0.0000 29.6750 0.0000 0.0000
# 5 0.0000 0.0000 0.0000 0.0000 19.5171 0.0000
# 6 0.0000 0.0000 0.0000 0.0000 0.0000 21.3321
#
#
#
# Elastic Compliance Matrix: (Units=1/GPa)
#
#
# Indices 1 2 3 4 5 6 
#
# 1 0.023965 -0.005738 -0.006177 0.000000 0.000000 0.000000
# 2 -0.005738 0.017571 -0.005528 0.000000 0.000000 0.000000
# 3 -0.006177 -0.005528 0.016015 0.000000 0.000000 0.000000
# 4 0.000000 0.000000 0.000000 0.033698 0.000000 0.000000
# 5 0.000000 0.000000 0.000000 0.000000 0.051237 0.000000
# 6 0.000000 0.000000 0.000000 0.000000 0.000000 0.046878
#
#
# Mechanical properties :
#
#
# Convention : Reuss Voigt Hill
#
# Bulk Modulus (GPa) = 44.12252 46.56605 45.34429
# Shear Modulus (GPa) = 21.56973 22.40347 21.98660
#
# Velocity S-wave (km/s) = 3.55268 3.62069 3.58684
# Velocity P-wave (km/s) = 6.53046 6.68784 6.60962
#
# Compressibility (1/GPa) = 0.02266416
#
# Stress axis : x y z
#
# Youngs Moduli (GPa) = 41.72729 56.91268 62.44039
#
# Poissons Ratio (x) = 0.32656 0.38572
# Poissons Ratio (y) = 0.23943 0.34518
# Poissons Ratio (z) = 0.25777 0.31462
#
# Static dielectric constant tensor:
#      x y z
#    x 3.159580 0.000000 0.000000 
#    y 0.000000 3.137510 0.000000 
#    z 0.000000 0.000000 3.037910 
# 
# 
# High freq. dielectric constant tensor:
#      x y z
#    x 1.652740 0.000000 0.000000 
#    y 0.000000 1.654150 0.000000 
#    z 0.000000 0.000000 1.647650 
# 
# From -- ./inp_files/54574.got.cif
#   From: 2010.03.12/outbox.cif.g09.slc.cpg/sg65_28_cif.got.tgz:54574.got - 2010.04.10 20:52:16.
