data_PCOD8271900
_publ_section_title
;
Structure prediction by ZEFSAII (Michael W. Deem and Ramdas Pophale) SiO2 
 PCOD8271900
Probable space group: C M M M
;
_chemical_formula_sum "Si O2"
_cell_formula_units_Z 64
_cell_length_a 8.665039
_cell_length_b 14.756699
_cell_length_c 26.267057
_cell_angle_alpha 90.000000
_cell_angle_beta 90.000000
_cell_angle_gamma 90.000000
_cell_volume 3358.699558
_symmetry_space_group_name_H-M "C M M M"
_symmetry_group_IT_number 65
_symmetry_cell_setting 'orthorhombic'
loop_
_space_group_symop_operation_xyz
x,y,z
-x,-y,z
x,-y,-z
-x,y,-z
-x,-y,-z
x,y,-z
-x,y,z
x,-y,z
1/2+x,1/2+y,z
1/2-x,1/2-y,z
1/2+x,1/2-y,-z
1/2-x,1/2+y,-z
1/2-x,1/2-y,-z
1/2+x,1/2+y,-z
1/2-x,1/2+y,z
1/2+x,1/2-y,z
loop_
_atom_site_type_symbol
_atom_site_label
_atom_site_fract_x
_atom_site_fract_y
_atom_site_fract_z
Si Si1 0.182366 0.500000 0.056459
Si Si2 0.182396 0.157987 0.606040
Si Si3 0.683482 0.851477 0.135939
Si Si4 0.183192 0.000000 0.323193
Si Si5 0.674167 0.893144 0.500000
Si Si6 0.183954 0.000000 0.207739
O O1 0.234602 0.408442 0.085769
O O2 0.000000 0.500000 0.052496
O O3 0.257157 0.500000 0.000000
O O4 0.250000 0.250000 0.628062
O O5 0.247845 0.085267 0.645756
O O6 0.239758 0.142900 0.549150
O O7 0.000000 0.158393 0.604987
O O8 0.500000 0.845982 0.141015
O O9 0.750000 0.750000 0.133416
O O10 0.750151 0.907527 0.183516
O O11 0.244092 0.000000 0.265667
O O12 0.000000 0.000000 0.322808
O O13 0.500000 0.855557 0.500000
O O14 0.677973 0.000000 0.500000
O O15 0.000000 0.000000 0.202916
#
# Coordination Sequence:
#
# PCOD8271900 Si02
#       6
#     8  16  16   8   8   8
#     4   8  16  32  53  79 114 151 188 232 278 326
#     4  11  22  39  59  82 110 142 178 217 268 323
#     4  10  20  35  56  83 113 149 191 231 278 331
#     4   9  21  39  59  81 109 142 178 223 277 330
#     4  11  22  37  58  84 110 140 180 219 263 319
#     4  10  20  38  60  82 110 143 185 235 284 332
#
# _framework density 19.054994000000001
#
# number of rings (size 3 to 8) (size 9 to 14) (size 15 to 20)
#    0.000    2.000    1.250    3.375    0.000    2.000 
#    0.000    7.500    0.000   12.750    0.000    0.000 
#    0.000    0.000    0.000    0.000    0.000    0.000 
#
# Total GULP energy -396729.294688 kJ/mol
# GULP energy per Si atom -12397.790459 kJ/mol
# Density = 1.901162 g / cm^3
# Si number density = 19.054994 Si / 1000 Ang^3
#
#
#
# Elastic Constant Matrix: (Units=GPa)
#
#
# Indices 1 2 3 4 5 6 
#
# 1 83.2857 50.4750 39.6327 0.0000 0.0000 0.0000
# 2 50.4750 190.1483 96.1137 0.0000 0.0000 0.0000
# 3 39.6327 96.1137 179.7989 0.0000 0.0000 0.0000
# 4 0.0000 0.0000 0.0000 56.4948 0.0000 0.0000
# 5 0.0000 0.0000 0.0000 0.0000 24.3621 0.0000
# 6 0.0000 0.0000 0.0000 0.0000 0.0000 32.5027
#
#
#
# Elastic Compliance Matrix: (Units=1/GPa)
#
#
# Indices 1 2 3 4 5 6 
#
# 1 0.014627 -0.003087 -0.001574 0.000000 0.000000 0.000000
# 2 -0.003087 0.007858 -0.003520 0.000000 0.000000 0.000000
# 3 -0.001574 -0.003520 0.007790 0.000000 0.000000 0.000000
# 4 0.000000 0.000000 0.000000 0.017701 0.000000 0.000000
# 5 0.000000 0.000000 0.000000 0.000000 0.041047 0.000000
# 6 0.000000 0.000000 0.000000 0.000000 0.000000 0.030767
#
#
# Mechanical properties :
#
#
# Convention : Reuss Voigt Hill
#
# Bulk Modulus (GPa) = 71.87579 91.74174 81.80877
# Shear Modulus (GPa) = 35.51407 40.47269 37.99338
#
# Velocity S-wave (km/s) = 4.32182 4.61368 4.47013
# Velocity P-wave (km/s) = 7.91873 8.75395 8.34679
#
# Compressibility (1/GPa) = 0.01391289
#
# Stress axis : x y z
#
# Youngs Moduli (GPa) = 68.36778 127.26264 128.36410
#
# Poissons Ratio (x) = 0.39288 0.20203
# Poissons Ratio (y) = 0.21106 0.45184
# Poissons Ratio (z) = 0.10760 0.44796
#
# Static dielectric constant tensor:
#      x y z
#    x 3.407340 0.000000 0.000000 
#    y 0.000000 3.803140 0.000000 
#    z 0.000000 0.000000 3.718690 
# 
# 
# High freq. dielectric constant tensor:
#      x y z
#    x 1.733160 0.000000 0.000000 
#    y 0.000000 1.755560 0.000000 
#    z 0.000000 0.000000 1.742200 
# 
# From -- ./inp_files/66872.got.cif
#   From: 2010.03.12/outbox.cif.g09.slc.cpg/sg65_34_cif.got.tgz:66872.got - 2010.04.10 20:52:16.
