data_PCOD8271739
_publ_section_title
;
Structure prediction by ZEFSAII (Michael W. Deem and Ramdas Pophale) SiO2 
 PCOD8271739
Probable space group: C M M M
;
_chemical_formula_sum "Si O2"
_cell_formula_units_Z 72
_cell_length_a 17.377663
_cell_length_b 9.021207
_cell_length_c 23.492896
_cell_angle_alpha 90.000000
_cell_angle_beta 90.000000
_cell_angle_gamma 90.000000
_cell_volume 3682.922459
_symmetry_space_group_name_H-M "C M M M"
_symmetry_group_IT_number 65
_symmetry_cell_setting 'orthorhombic'
loop_
_space_group_symop_operation_xyz
x,y,z
-x,-y,z
x,-y,-z
-x,y,-z
-x,-y,-z
x,y,-z
-x,y,z
x,-y,z
1/2+x,1/2+y,z
1/2-x,1/2-y,z
1/2+x,1/2-y,-z
1/2-x,1/2+y,-z
1/2-x,1/2-y,-z
1/2+x,1/2+y,-z
1/2-x,1/2+y,z
1/2+x,1/2-y,z
loop_
_atom_site_type_symbol
_atom_site_label
_atom_site_fract_x
_atom_site_fract_y
_atom_site_fract_z
Si Si1 0.908610 0.331656 0.605056
Si Si2 0.408122 0.166264 0.828182
Si Si3 0.908482 0.833225 0.937504
Si Si4 0.408342 0.666954 0.717175
Si Si5 0.667425 0.323659 0.500000
O O1 0.877816 0.500000 0.598449
O O2 0.878116 0.265330 0.664598
O O3 0.878247 0.228015 0.555298
O O4 0.000000 0.329807 0.602874
O O5 0.500000 0.169360 0.828735
O O6 0.374599 0.230646 0.887447
O O7 0.376450 0.262757 0.775581
O O8 0.377192 0.000000 0.821145
O O9 0.000000 0.832057 0.934660
O O10 0.878377 0.000000 0.927929
O O11 0.881721 0.774995 0.000000
O O12 0.500000 0.666274 0.717782
O O13 0.376405 0.500000 0.711453
O O14 0.674464 0.500000 0.500000
O O15 0.750000 0.250000 0.500000
#
# Coordination Sequence:
#
# PCOD8271739 Si02
#       5
#    16  16  16  16   8
#     4  10  20  35  55  78 103 129 160 200 244 288
#     4   9  15  21  30  46  69  97 131 175 225 271
#     4   8  13  20  28  38  56  87 128 172 217 266
#     4   9  16  26  41  61  84 111 145 185 229 276
#     4  12  25  40  57  77 103 133 165 198 237 286
#
# _framework density 19.549690999999999
#
# number of rings (size 3 to 8) (size 9 to 14) (size 15 to 20)
#    0.000    2.667    0.000    4.000    0.000    8.444 
#    0.000    2.222    0.000    0.000    0.000    0.000 
#    0.000    0.000    0.000    0.000    0.000    1.111 
#
# Total GULP energy -446286.028730 kJ/mol
# GULP energy per Si atom -12396.834131 kJ/mol
# Density = 1.950519 g / cm^3
# Si number density = 19.549691 Si / 1000 Ang^3
#
#
#
# Elastic Constant Matrix: (Units=GPa)
#
#
# Indices 1 2 3 4 5 6 
#
# 1 7.0329 15.1706 13.7383 0.0000 0.0000 0.0000
# 2 15.1706 176.3022 91.7003 0.0000 0.0000 0.0000
# 3 13.7383 91.7003 187.4941 0.0000 0.0000 0.0000
# 4 0.0000 0.0000 0.0000 44.0055 0.0000 0.0000
# 5 0.0000 0.0000 0.0000 0.0000 -3.3264 0.0000
# 6 0.0000 0.0000 0.0000 0.0000 0.0000 12.6750
#
#
#
# Elastic Compliance Matrix: (Units=1/GPa)
#
#
# Indices 1 2 3 4 5 6 
#
# 1 0.182387 -0.011726 -0.007629 0.000000 0.000000 0.000000
# 2 -0.011726 0.008361 -0.003230 0.000000 0.000000 0.000000
# 3 -0.007629 -0.003230 0.007472 0.000000 0.000000 0.000000
# 4 0.000000 0.000000 0.000000 0.022724 0.000000 0.000000
# 5 0.000000 0.000000 0.000000 0.000000 -0.300629 0.000000
# 6 0.000000 0.000000 0.000000 0.000000 0.000000 0.078895
#
#
# Mechanical properties :
#
#
# Convention : Reuss Voigt Hill
#
# Bulk Modulus (GPa) = 6.53381 68.00529 37.26955
# Shear Modulus (GPa) = 52.41136 27.35215 39.88176
#
# Velocity S-wave (km/s) = 5.18339 3.74452 4.52156
# Velocity P-wave (km/s) = 6.25881 7.31824 6.80916
#
# Compressibility (1/GPa) = 0.15305013
#
# Stress axis : x y z
#
# Youngs Moduli (GPa) = 5.48284 119.60051 133.82748
#
# Poissons Ratio (x) = 1.40244 1.02099
# Poissons Ratio (y) = 0.06429 0.43228
# Poissons Ratio (z) = 0.04183 0.38632
#
# Static dielectric constant tensor:
#      x y z
#    x 2.810720 0.000000 0.000000 
#    y 0.000000 3.834100 0.000000 
#    z 0.000000 0.000000 3.944680 
# 
# 
# High freq. dielectric constant tensor:
#      x y z
#    x 1.675200 0.000000 0.000000 
#    y 0.000000 1.774290 0.000000 
#    z 0.000000 0.000000 1.785020 
# 
# From -- ./inp_files/66977.got.cif
#   From: 2010.03.12/outbox.cif.g09.slc.cpg/sg65_34_cif.got.tgz:66977.got - 2010.04.10 20:52:16.
