data_PCOD8271200
_publ_section_title
;
Structure prediction by ZEFSAII (Michael W. Deem and Ramdas Pophale) SiO2 
 PCOD8271200
Probable space group: C M M M
;
_chemical_formula_sum "Si O2"
_cell_formula_units_Z 88
_cell_length_a 16.764646
_cell_length_b 9.261467
_cell_length_c 28.744316
_cell_angle_alpha 90.000000
_cell_angle_beta 90.000000
_cell_angle_gamma 90.000000
_cell_volume 4462.992424
_symmetry_space_group_name_H-M "C M M M"
_symmetry_group_IT_number 65
_symmetry_cell_setting 'orthorhombic'
loop_
_space_group_symop_operation_xyz
x,y,z
-x,-y,z
x,-y,-z
-x,y,-z
-x,-y,-z
x,y,-z
-x,y,z
x,-y,z
1/2+x,1/2+y,z
1/2-x,1/2-y,z
1/2+x,1/2-y,-z
1/2-x,1/2+y,-z
1/2-x,1/2-y,-z
1/2+x,1/2+y,-z
1/2-x,1/2+y,z
1/2+x,1/2-y,z
loop_
_atom_site_type_symbol
_atom_site_label
_atom_site_fract_x
_atom_site_fract_y
_atom_site_fract_z
Si Si1 0.165408 0.673810 0.000000
Si Si2 0.094829 0.338038 0.724889
Si Si3 0.404609 0.338302 0.361916
Si Si4 0.905497 0.837439 0.085400
Si Si5 0.094855 0.662251 0.551151
Si Si6 0.405092 0.162467 0.172404
O O1 0.250000 0.750000 0.000000
O O2 0.118549 0.727694 0.045085
O O3 0.171676 0.500000 0.000000
O O4 0.125346 0.500000 0.715654
O O5 0.130293 0.236699 0.684534
O O6 0.123283 0.285771 0.776203
O O7 0.000000 0.334597 0.722951
O O8 0.500000 0.332738 0.361941
O O9 0.372188 0.500000 0.362146
O O10 0.369610 0.261949 0.408098
O O11 0.871121 0.773196 0.133872
O O12 0.000000 0.845465 0.086866
O O13 0.870866 0.000000 0.077839
O O14 0.122368 0.718497 0.500000
O O15 0.126105 0.500000 0.559137
O O16 0.000000 0.663811 0.553620
O O17 0.500000 0.161314 0.170354
O O18 0.373738 0.000000 0.162392
#
# Coordination Sequence:
#
# PCOD8271200 Si02
#       6
#     8  16  16  16  16  16
#     4  12  25  40  57  75  99 129 161 196 233 274
#     4   8  13  21  32  45  64  90 118 149 187 236
#     4   9  15  19  24  36  53  73  99 135 182 234
#     4  10  20  34  53  77 103 128 156 191 230 274
#     4   8  13  20  27  32  40  60  93 132 175 226
#     4   8  14  25  41  61  83 108 139 172 208 252
#
# _framework density 19.717711000000001
#
# number of rings (size 3 to 8) (size 9 to 14) (size 15 to 20)
#    0.000    3.091    0.000    3.818    0.000    5.455 
#    0.000    5.455    0.000    0.000    0.000    0.000 
#    0.000    0.000    0.000    0.000    0.000    0.000 
#
# Total GULP energy -545251.883254 kJ/mol
# GULP energy per Si atom -12392.088256 kJ/mol
# Density = 1.967283 g / cm^3
# Si number density = 19.717711 Si / 1000 Ang^3
#
#
#
# Elastic Constant Matrix: (Units=GPa)
#
#
# Indices 1 2 3 4 5 6 
#
# 1 4.6580 9.0645 7.3134 0.0000 0.0000 0.0000
# 2 9.0645 162.7787 113.1617 0.0000 0.0000 0.0000
# 3 7.3134 113.1617 207.1668 0.0000 0.0000 0.0000
# 4 0.0000 0.0000 0.0000 25.7484 0.0000 0.0000
# 5 0.0000 0.0000 0.0000 0.0000 -2.8710 0.0000
# 6 0.0000 0.0000 0.0000 0.0000 0.0000 9.9272
#
#
#
# Elastic Compliance Matrix: (Units=1/GPa)
#
#
# Indices 1 2 3 4 5 6 
#
# 1 0.241239 -0.012113 -0.001900 0.000000 0.000000 0.000000
# 2 -0.012113 0.010513 -0.005315 0.000000 0.000000 0.000000
# 3 -0.001900 -0.005315 0.007797 0.000000 0.000000 0.000000
# 4 0.000000 0.000000 0.000000 0.038837 0.000000 0.000000
# 5 0.000000 0.000000 0.000000 0.000000 -0.348307 0.000000
# 6 0.000000 0.000000 0.000000 0.000000 0.000000 0.100733
#
#
# Mechanical properties :
#
#
# Convention : Reuss Voigt Hill
#
# Bulk Modulus (GPa) = 4.52707 70.40919 37.46813
# Shear Modulus (GPa) = 30.65643 22.89851 26.77747
#
# Velocity S-wave (km/s) = 3.94733 3.41151 3.68916
# Velocity P-wave (km/s) = 4.80376 7.16268 6.09836
#
# Compressibility (1/GPa) = 0.22089345
#
# Stress axis : x y z
#
# Youngs Moduli (GPa) = 4.14528 95.12444 128.25174
#
# Poissons Ratio (x) = 1.15224 0.24364
# Poissons Ratio (y) = 0.05021 0.68162
# Poissons Ratio (z) = 0.00787 0.50556
#
# Static dielectric constant tensor:
#      x y z
#    x 2.741450 0.000000 0.000000 
#    y 0.000000 3.957940 0.000000 
#    z 0.000000 0.000000 4.101180 
# 
# 
# High freq. dielectric constant tensor:
#      x y z
#    x 1.681780 0.000000 0.000000 
#    y 0.000000 1.770060 0.000000 
#    z 0.000000 0.000000 1.791830 
# 
# From -- ./inp_files/77942.got.cif
#   From: 2010.03.12/outbox.cif.g09.slc.cpg/sg65_39_cif.got.tgz:77942.got - 2010.04.10 20:52:16.
