data_PCOD8271395
_publ_section_title
;
Structure prediction by ZEFSAII (Michael W. Deem and Ramdas Pophale) SiO2 
 PCOD8271395
Probable space group: C M M M
;
_chemical_formula_sum "Si O2"
_cell_formula_units_Z 96
_cell_length_a 18.707554
_cell_length_b 9.012863
_cell_length_c 30.003845
_cell_angle_alpha 90.000000
_cell_angle_beta 90.000000
_cell_angle_gamma 90.000000
_cell_volume 5058.906938
_symmetry_space_group_name_H-M "C M M M"
_symmetry_group_IT_number 65
_symmetry_cell_setting 'orthorhombic'
loop_
_space_group_symop_operation_xyz
x,y,z
-x,-y,z
x,-y,-z
-x,y,-z
-x,-y,-z
x,y,-z
-x,y,z
x,-y,z
1/2+x,1/2+y,z
1/2-x,1/2-y,z
1/2+x,1/2-y,-z
1/2-x,1/2+y,-z
1/2-x,1/2-y,-z
1/2+x,1/2+y,-z
1/2-x,1/2+y,z
1/2+x,1/2-y,z
loop_
_atom_site_type_symbol
_atom_site_label
_atom_site_fract_x
_atom_site_fract_y
_atom_site_fract_z
Si Si1 0.417161 0.327346 0.199721
Si Si2 0.322343 0.326125 0.618551
Si Si3 0.081721 0.829184 0.948043
Si Si4 0.178470 0.827771 0.718794
Si Si5 0.326968 0.824178 0.123993
Si Si6 0.915721 0.667154 0.549790
O O1 0.500000 0.284368 0.199312
O O2 0.405560 0.500000 0.187642
O O3 0.387283 0.290035 0.248819
O O4 0.376750 0.226821 0.164318
O O5 0.311603 0.500000 0.616124
O O6 0.250000 0.250000 0.601867
O O7 0.341372 0.273728 0.668907
O O8 0.385328 0.280223 0.585771
O O9 0.135860 0.723376 0.922075
O O10 0.000000 0.791602 0.934736
O O11 0.098104 0.000000 0.935970
O O12 0.093943 0.800100 0.000000
O O13 0.250000 0.750000 0.736778
O O14 0.196033 0.000000 0.718800
O O15 0.250000 0.750000 0.128556
O O16 0.317688 0.000000 0.124934
O O17 0.889661 0.710575 0.500000
O O18 0.890665 0.500000 0.560987
O O19 0.000000 0.678979 0.552327
#
# Coordination Sequence:
#
# PCOD8271395 Si02
#       6
#    16  16  16  16  16  16
#     4  10  21  38  59  82 111 145 179 219 270 325
#     4  10  20  34  54  80 109 140 177 220 265 317
#     4   9  19  38  63  88 115 148 184 223 271 326
#     4   9  19  35  55  79 107 141 178 218 266 318
#     4  12  25  39  57  82 113 148 187 230 274 321
#     4   9  19  36  55  75 103 139 177 219 269 322
#
# _framework density 18.976431000000002
#
# number of rings (size 3 to 8) (size 9 to 14) (size 15 to 20)
#    0.000    2.167    0.000    4.000    0.000    7.667 
#    0.000    3.333    0.000    0.000    0.000    0.000 
#    0.000    0.000    0.000    0.000    0.000    0.000 
#
# Total GULP energy -595296.302058 kJ/mol
# GULP energy per Si atom -12402.006293 kJ/mol
# Density = 1.893324 g / cm^3
# Si number density = 18.976431 Si / 1000 Ang^3
#
#
#
# Elastic Constant Matrix: (Units=GPa)
#
#
# Indices 1 2 3 4 5 6 
#
# 1 120.9360 60.4891 66.4445 0.0000 0.0000 0.0000
# 2 60.4891 96.0863 53.4454 0.0000 0.0000 0.0000
# 3 66.4445 53.4454 105.6187 0.0000 0.0000 0.0000
# 4 0.0000 0.0000 0.0000 31.7430 0.0000 0.0000
# 5 0.0000 0.0000 0.0000 0.0000 36.2665 0.0000
# 6 0.0000 0.0000 0.0000 0.0000 0.0000 33.4753
#
#
#
# Elastic Compliance Matrix: (Units=1/GPa)
#
#
# Indices 1 2 3 4 5 6 
#
# 1 0.014560 -0.005666 -0.006293 0.000000 0.000000 0.000000
# 2 -0.005666 0.016689 -0.004881 0.000000 0.000000 0.000000
# 3 -0.006293 -0.004881 0.015896 0.000000 0.000000 0.000000
# 4 0.000000 0.000000 0.000000 0.031503 0.000000 0.000000
# 5 0.000000 0.000000 0.000000 0.000000 0.027574 0.000000
# 6 0.000000 0.000000 0.000000 0.000000 0.000000 0.029873
#
#
# Mechanical properties :
#
#
# Convention : Reuss Voigt Hill
#
# Bulk Modulus (GPa) = 74.25474 75.93322 75.09398
# Shear Modulus (GPa) = 28.69246 29.78109 29.23677
#
# Velocity S-wave (km/s) = 3.89267 3.96583 3.92942
# Velocity P-wave (km/s) = 7.70836 7.81484 7.76178
#
# Compressibility (1/GPa) = 0.01346715
#
# Stress axis : x y z
#
# Youngs Moduli (GPa) = 68.68110 59.92044 62.90743
#
# Poissons Ratio (x) = 0.33950 0.39585
# Poissons Ratio (y) = 0.38914 0.30702
# Poissons Ratio (z) = 0.43219 0.29244
#
# Static dielectric constant tensor:
#      x y z
#    x 3.461350 0.000000 0.000000 
#    y 0.000000 3.465960 0.000000 
#    z 0.000000 0.000000 3.668760 
# 
# 
# High freq. dielectric constant tensor:
#      x y z
#    x 1.736470 0.000000 0.000000 
#    y 0.000000 1.731920 0.000000 
#    z 0.000000 0.000000 1.749210 
# 
# From -- ./inp_files/73083.got.cif
#   From: 2010.03.12/outbox.cif.g09.slc.cpg/sg65_37_cif.got.tgz:73083.got - 2010.04.10 20:52:16.
