data_PCOD8271738
_publ_section_title
;
Structure prediction by ZEFSAII (Michael W. Deem and Ramdas Pophale) SiO2 
 PCOD8271738
Probable space group: C M M M
;
_chemical_formula_sum "Si O2"
_cell_formula_units_Z 80
_cell_length_a 8.189472
_cell_length_b 27.218527
_cell_length_c 22.265372
_cell_angle_alpha 90.000000
_cell_angle_beta 90.000000
_cell_angle_gamma 90.000000
_cell_volume 4963.070867
_symmetry_space_group_name_H-M "C M M M"
_symmetry_group_IT_number 65
_symmetry_cell_setting 'orthorhombic'
loop_
_space_group_symop_operation_xyz
x,y,z
-x,-y,z
x,-y,-z
-x,y,-z
-x,-y,-z
x,y,-z
-x,y,z
x,-y,z
1/2+x,1/2+y,z
1/2-x,1/2-y,z
1/2+x,1/2-y,-z
1/2-x,1/2+y,-z
1/2-x,1/2-y,-z
1/2+x,1/2+y,-z
1/2-x,1/2+y,z
1/2+x,1/2-y,z
loop_
_atom_site_type_symbol
_atom_site_label
_atom_site_fract_x
_atom_site_fract_y
_atom_site_fract_z
Si Si1 0.689195 0.602532 0.129883
Si Si2 0.189462 0.944945 0.746389
Si Si3 0.809681 0.555278 0.622321
Si Si4 0.810031 0.944924 0.500000
Si Si5 0.192398 0.303938 0.069321
Si Si6 0.000000 0.442433 0.933864
O O1 0.500000 0.586102 0.115323
O O2 0.729747 0.592324 0.199600
O O3 0.709164 0.659641 0.113177
O O4 0.828120 0.573080 0.094654
O O5 0.256860 0.919729 0.685143
O O6 0.000000 0.951459 0.738606
O O7 0.265844 0.000000 0.757882
O O8 0.736123 0.500000 0.623796
O O9 0.745370 0.582446 0.561667
O O10 0.000000 0.555064 0.618332
O O11 0.000000 0.947814 0.500000
O O12 0.731620 0.000000 0.500000
O O13 0.250000 0.250000 0.087983
O O14 0.000000 0.310656 0.079737
O O15 0.239456 0.314406 0.000000
O O16 0.000000 0.500000 0.935880
O O17 0.000000 0.418740 0.000000
#
# Coordination Sequence:
#
# PCOD8271738 Si02
#       6
#    16  16  16   8  16   8
#     4  11  22  36  54  74  99 129 162 203 249 296
#     4   9  18  31  45  63  88 122 162 196 231 280
#     4   9  16  24  37  57  80 110 150 194 234 272
#     4   9  15  23  35  51  77 111 146 189 234 273
#     4  10  20  35  55  78 100 122 153 196 248 306
#     4  11  24  38  52  72  98 129 167 205 242 291
#
# _framework density 16.119050999999999
#
# number of rings (size 3 to 8) (size 9 to 14) (size 15 to 20)
#    0.000    2.200    1.000    2.700    1.400    7.200 
#    0.000    1.000    0.000    0.000    0.000    0.000 
#    0.000    0.000    0.000    0.900    0.000   12.100 
#
# Total GULP energy -495578.710573 kJ/mol
# GULP energy per Si atom -12389.467764 kJ/mol
# Density = 1.608236 g / cm^3
# Si number density = 16.119051 Si / 1000 Ang^3
#
#
#
# Elastic Constant Matrix: (Units=GPa)
#
#
# Indices 1 2 3 4 5 6 
#
# 1 78.5588 20.8413 63.3721 0.0000 0.0000 0.0000
# 2 20.8413 52.9105 43.5496 0.0000 0.0000 0.0000
# 3 63.3721 43.5496 159.0842 0.0000 0.0000 0.0000
# 4 0.0000 0.0000 0.0000 -10.4407 0.0000 0.0000
# 5 0.0000 0.0000 0.0000 0.0000 29.9982 0.0000
# 6 0.0000 0.0000 0.0000 0.0000 0.0000 18.9069
#
#
#
# Elastic Compliance Matrix: (Units=1/GPa)
#
#
# Indices 1 2 3 4 5 6 
#
# 1 0.018862 -0.001607 -0.007074 0.000000 0.000000 0.000000
# 2 -0.001607 0.024534 -0.006076 0.000000 0.000000 0.000000
# 3 -0.007074 -0.006076 0.010767 0.000000 0.000000 0.000000
# 4 0.000000 0.000000 0.000000 -0.095779 0.000000 0.000000
# 5 0.000000 0.000000 0.000000 0.000000 0.033335 0.000000
# 6 0.000000 0.000000 0.000000 0.000000 0.000000 0.052891
#
#
# Mechanical properties :
#
#
# Convention : Reuss Voigt Hill
#
# Bulk Modulus (GPa) = 40.56964 60.67550 50.62257
# Shear Modulus (GPa) = 60.72310 18.54557 39.63433
#
# Velocity S-wave (km/s) = 6.14438 3.39564 4.96406
# Velocity P-wave (km/s) = 8.69260 7.28681 8.02056
#
# Compressibility (1/GPa) = 0.02464898
#
# Stress axis : x y z
#
# Youngs Moduli (GPa) = 53.01643 40.75992 92.87510
#
# Poissons Ratio (x) = 0.06552 0.65698
# Poissons Ratio (y) = 0.08522 0.56430
# Poissons Ratio (z) = 0.37503 0.24765
#
# Static dielectric constant tensor:
#      x y z
#    x 3.119950 0.000000 0.000000 
#    y 0.000000 2.754380 0.000000 
#    z 0.000000 0.000000 3.195450 
# 
# 
# High freq. dielectric constant tensor:
#      x y z
#    x 1.637760 0.000000 0.000000 
#    y 0.000000 1.555210 0.000000 
#    z 0.000000 0.000000 1.629190 
# 
# From -- ./inp_files/60047.got.cif
#   From: 2010.03.12/outbox.cif.g09.slc.cpg/sg65_31_cif.got.tgz:60047.got - 2010.04.10 20:52:16.
