data_PCOD8271748
_publ_section_title
;
Structure prediction by ZEFSAII (Michael W. Deem and Ramdas Pophale) SiO2 
 PCOD8271748
Probable space group: C M M M
;
_chemical_formula_sum "Si O2"
_cell_formula_units_Z 72
_cell_length_a 25.477386
_cell_length_b 8.659001
_cell_length_c 16.928732
_cell_angle_alpha 90.000000
_cell_angle_beta 90.000000
_cell_angle_gamma 90.000000
_cell_volume 3734.625743
_symmetry_space_group_name_H-M "C M M M"
_symmetry_group_IT_number 65
_symmetry_cell_setting 'orthorhombic'
loop_
_space_group_symop_operation_xyz
x,y,z
-x,-y,z
x,-y,-z
-x,y,-z
-x,-y,-z
x,y,-z
-x,y,z
x,-y,z
1/2+x,1/2+y,z
1/2-x,1/2-y,z
1/2+x,1/2-y,-z
1/2-x,1/2+y,-z
1/2-x,1/2-y,-z
1/2+x,1/2+y,-z
1/2-x,1/2+y,z
1/2+x,1/2-y,z
loop_
_atom_site_type_symbol
_atom_site_label
_atom_site_fract_x
_atom_site_fract_y
_atom_site_fract_z
Si Si1 0.804064 0.316586 0.245389
Si Si2 0.409968 0.319769 0.193206
Si Si3 0.000000 0.322955 0.093173
Si Si4 0.057250 0.324112 0.649589
Si Si5 0.335256 0.180330 0.415654
O O1 0.803267 0.500000 0.244324
O O2 0.750000 0.250000 0.209983
O O3 0.852478 0.259732 0.192041
O O4 0.809369 0.250485 0.336064
O O5 0.401835 0.500000 0.180358
O O6 0.446742 0.255993 0.123928
O O7 0.438588 0.288271 0.275844
O O8 0.000000 0.500000 0.120984
O O9 0.000000 0.305739 0.000000
O O10 0.064776 0.500000 0.680674
O O11 0.102162 0.286649 0.586195
O O12 0.000000 0.301884 0.609950
O O13 0.314866 0.252260 0.500000
O O14 0.323455 0.000000 0.416952
#
# Coordination Sequence:
#
# PCOD8271748 Si02
#       5
#    16  16   8  16  16
#     4  10  20  35  55  78 105 142 188 235 278 326
#     4  11  21  34  55  82 112 145 180 221 264 317
#     4  11  23  39  61  89 120 149 174 207 257 314
#     4   9  16  27  46  69  99 140 182 224 271 324
#     4   8  15  27  43  68 101 137 180 230 281 329
#
# _framework density 19.279040999999999
#
# number of rings (size 3 to 8) (size 9 to 14) (size 15 to 20)
#    0.000    2.333    1.111    4.333    0.000    1.778 
#    0.000    2.222    0.000   16.667    0.000    6.222 
#    0.000    0.000    0.000    0.000    0.000    0.000 
#
# Total GULP energy -446091.375918 kJ/mol
# GULP energy per Si atom -12391.427109 kJ/mol
# Density = 1.923516 g / cm^3
# Si number density = 19.279041 Si / 1000 Ang^3
#
#
#
# Elastic Constant Matrix: (Units=GPa)
#
#
# Indices 1 2 3 4 5 6 
#
# 1 147.5652 42.6564 26.2797 0.0000 0.0000 0.0000
# 2 42.6564 95.5216 26.3716 0.0000 0.0000 0.0000
# 3 26.2797 26.3716 61.1148 0.0000 0.0000 0.0000
# 4 0.0000 0.0000 0.0000 9.5032 0.0000 0.0000
# 5 0.0000 0.0000 0.0000 0.0000 5.5469 0.0000
# 6 0.0000 0.0000 0.0000 0.0000 0.0000 29.0297
#
#
#
# Elastic Compliance Matrix: (Units=1/GPa)
#
#
# Indices 1 2 3 4 5 6 
#
# 1 0.008025 -0.002987 -0.002162 0.000000 0.000000 0.000000
# 2 -0.002987 0.012996 -0.004324 0.000000 0.000000 0.000000
# 3 -0.002162 -0.004324 0.019158 0.000000 0.000000 0.000000
# 4 0.000000 0.000000 0.000000 0.105228 0.000000 0.000000
# 5 0.000000 0.000000 0.000000 0.000000 0.180282 0.000000
# 6 0.000000 0.000000 0.000000 0.000000 0.000000 0.034447
#
#
# Mechanical properties :
#
#
# Convention : Reuss Voigt Hill
#
# Bulk Modulus (GPa) = 47.09329 54.97967 51.03648
# Shear Modulus (GPa) = 12.94801 22.74222 17.84511
#
# Velocity S-wave (km/s) = 2.59436 3.43831 3.04570
# Velocity P-wave (km/s) = 5.78398 6.65901 6.23686
#
# Compressibility (1/GPa) = 0.02123445
#
# Stress axis : x y z
#
# Youngs Moduli (GPa) = 124.60924 76.94485 52.19742
#
# Poissons Ratio (x) = 0.22982 0.11285
# Poissons Ratio (y) = 0.37219 0.22569
# Poissons Ratio (z) = 0.26940 0.33269
#
# Static dielectric constant tensor:
#      x y z
#    x 3.730250 0.000000 0.000000 
#    y 0.000000 3.307370 0.000000 
#    z 0.000000 0.000000 3.299870 
# 
# 
# High freq. dielectric constant tensor:
#      x y z
#    x 1.763240 0.000000 0.000000 
#    y 0.000000 1.730710 0.000000 
#    z 0.000000 0.000000 1.709760 
# 
# From -- ./inp_files/46507.got.cif
#   From: 2010.03.12/outbox.cif.g09.slc.cpg/sg65_24_cif.got.tgz:46507.got - 2010.04.10 20:52:16.
