data_PCOD8271451
_publ_section_title
;
Structure prediction by ZEFSAII (Michael W. Deem and Ramdas Pophale) SiO2 
 PCOD8271451
Probable space group: C M M M
;
_chemical_formula_sum "Si O2"
_cell_formula_units_Z 88
_cell_length_a 9.408924
_cell_length_b 18.867092
_cell_length_c 24.705293
_cell_angle_alpha 90.000000
_cell_angle_beta 90.000000
_cell_angle_gamma 90.000000
_cell_volume 4385.659766
_symmetry_space_group_name_H-M "C M M M"
_symmetry_group_IT_number 65
_symmetry_cell_setting 'orthorhombic'
loop_
_space_group_symop_operation_xyz
x,y,z
-x,-y,z
x,-y,-z
-x,y,-z
-x,-y,-z
x,y,-z
-x,y,z
x,-y,z
1/2+x,1/2+y,z
1/2-x,1/2-y,z
1/2+x,1/2-y,-z
1/2-x,1/2+y,-z
1/2-x,1/2-y,-z
1/2+x,1/2+y,-z
1/2-x,1/2+y,z
1/2+x,1/2-y,z
loop_
_atom_site_type_symbol
_atom_site_label
_atom_site_fract_x
_atom_site_fract_y
_atom_site_fract_z
Si Si1 0.837713 0.315847 0.827274
Si Si2 0.655451 0.500000 0.063681
Si Si3 0.831275 0.920904 0.439437
Si Si4 0.666092 0.322448 0.655820
Si Si5 0.159532 0.630829 0.939819
Si Si6 0.163371 0.917644 0.240386
O O1 0.750000 0.250000 0.802836
O O2 0.831865 0.310101 0.893041
O O3 0.766185 0.388215 0.806569
O O4 0.000000 0.311343 0.806733
O O5 0.500000 0.500000 0.091634
O O6 0.738427 0.569403 0.081615
O O7 0.639774 0.500000 0.000000
O O8 0.782970 0.899026 0.500000
O O9 0.773400 0.862368 0.397531
O O10 0.000000 0.923311 0.435219
O O11 0.773025 0.000000 0.425622
O O12 0.500000 0.304407 0.650422
O O13 0.750000 0.250000 0.664801
O O14 0.695973 0.375445 0.704990
O O15 0.000000 0.600072 0.943044
O O16 0.203458 0.659915 0.000000
O O17 0.000000 0.907407 0.222379
O O18 0.198658 0.000000 0.249806
#
# Coordination Sequence:
#
# PCOD8271451 Si02
#       6
#    16   8  16  16  16  16
#     4  11  24  40  59  83 112 145 182 225 275 331
#     4   9  17  29  49  79 109 137 173 217 260 307
#     4   8  14  27  50  79 109 144 189 236 274 315
#     4  10  20  34  54  81 113 147 184 226 277 332
#     4   9  19  36  56  78 108 145 180 217 268 328
#     4  10  22  40  61  83 108 142 184 232 282 332
#
# _framework density 20.065397000000001
#
# number of rings (size 3 to 8) (size 9 to 14) (size 15 to 20)
#    0.000    2.455    0.000    2.455    1.273    8.000 
#    0.000    0.000    0.000    1.636    0.000    1.273 
#    0.000    0.000    0.000    0.000    0.000    0.000 
#
# Total GULP energy -545379.654844 kJ/mol
# GULP energy per Si atom -12394.992156 kJ/mol
# Density = 2.001973 g / cm^3
# Si number density = 20.065397 Si / 1000 Ang^3
#
#
#
# Elastic Constant Matrix: (Units=GPa)
#
#
# Indices 1 2 3 4 5 6 
#
# 1 95.5339 60.3659 40.5119 0.0000 0.0000 0.0000
# 2 60.3659 129.4415 50.3914 0.0000 0.0000 0.0000
# 3 40.5119 50.3914 105.2407 0.0000 0.0000 0.0000
# 4 0.0000 0.0000 0.0000 28.1326 0.0000 0.0000
# 5 0.0000 0.0000 0.0000 0.0000 17.4978 0.0000
# 6 0.0000 0.0000 0.0000 0.0000 0.0000 30.8290
#
#
#
# Elastic Compliance Matrix: (Units=1/GPa)
#
#
# Indices 1 2 3 4 5 6 
#
# 1 0.015625 -0.006078 -0.003104 0.000000 0.000000 0.000000
# 2 -0.006078 0.011860 -0.003339 0.000000 0.000000 0.000000
# 3 -0.003104 -0.003339 0.012296 0.000000 0.000000 0.000000
# 4 0.000000 0.000000 0.000000 0.035546 0.000000 0.000000
# 5 0.000000 0.000000 0.000000 0.000000 0.057150 0.000000
# 6 0.000000 0.000000 0.000000 0.000000 0.000000 0.032437
#
#
# Mechanical properties :
#
#
# Convention : Reuss Voigt Hill
#
# Bulk Modulus (GPa) = 67.85445 70.30607 69.08026
# Shear Modulus (GPa) = 25.65833 27.22168 26.44000
#
# Velocity S-wave (km/s) = 3.57982 3.68727 3.63394
# Velocity P-wave (km/s) = 7.13981 7.29674 7.21870
#
# Compressibility (1/GPa) = 0.01473743
#
# Stress axis : x y z
#
# Youngs Moduli (GPa) = 64.00200 84.31733 81.32856
#
# Poissons Ratio (x) = 0.51249 0.25246
# Poissons Ratio (y) = 0.38901 0.27156
# Poissons Ratio (z) = 0.19868 0.28154
#
# Static dielectric constant tensor:
#      x y z
#    x 3.558460 0.000000 0.000000 
#    y 0.000000 3.531920 0.000000 
#    z 0.000000 0.000000 3.786460 
# 
# 
# High freq. dielectric constant tensor:
#      x y z
#    x 1.758920 0.000000 0.000000 
#    y 0.000000 1.774480 0.000000 
#    z 0.000000 0.000000 1.790150 
# 
# From -- ./inp_files/67499.got.cif
#   From: 2010.03.12/outbox.cif.g09.slc.cpg/sg65_34_cif.got.tgz:67499.got - 2010.04.10 20:52:16.
