data_PCOD8271518
_publ_section_title
;
Structure prediction by ZEFSAII (Michael W. Deem and Ramdas Pophale) SiO2 
 PCOD8271518
Probable space group: C M M M
;
_chemical_formula_sum "Si O2"
_cell_formula_units_Z 96
_cell_length_a 28.834541
_cell_length_b 9.168908
_cell_length_c 20.177160
_cell_angle_alpha 90.000000
_cell_angle_beta 90.000000
_cell_angle_gamma 90.000000
_cell_volume 5334.462856
_symmetry_space_group_name_H-M "C M M M"
_symmetry_group_IT_number 65
_symmetry_cell_setting 'orthorhombic'
loop_
_space_group_symop_operation_xyz
x,y,z
-x,-y,z
x,-y,-z
-x,y,-z
-x,-y,-z
x,y,-z
-x,y,z
x,-y,z
1/2+x,1/2+y,z
1/2-x,1/2-y,z
1/2+x,1/2-y,-z
1/2-x,1/2+y,-z
1/2-x,1/2-y,-z
1/2+x,1/2+y,-z
1/2-x,1/2+y,z
1/2+x,1/2-y,z
loop_
_atom_site_type_symbol
_atom_site_label
_atom_site_fract_x
_atom_site_fract_y
_atom_site_fract_z
Si Si1 0.145083 0.833247 0.321368
Si Si2 0.550631 0.828685 0.126569
Si Si3 0.051293 0.165762 0.260580
Si Si4 0.647477 0.169599 0.925049
Si Si5 0.296579 0.830160 0.423766
Si Si6 0.298389 0.671494 0.189332
O O1 0.089948 0.804306 0.316282
O O2 0.161579 0.727841 0.379536
O O3 0.168713 0.794010 0.251473
O O4 0.156050 0.000000 0.340917
O O5 0.500000 0.771451 0.100348
O O6 0.561321 0.767756 0.198798
O O7 0.593071 0.783758 0.078960
O O8 0.548345 0.000000 0.133645
O O9 0.000000 0.194866 0.290835
O O10 0.055942 0.000000 0.234944
O O11 0.678589 0.267148 0.877278
O O12 0.653493 0.000000 0.905428
O O13 0.664182 0.197790 0.000000
O O14 0.308249 0.795458 0.500000
O O15 0.250000 0.750000 0.400734
O O16 0.289313 0.000000 0.411093
O O17 0.290102 0.500000 0.179958
O O18 0.250000 0.750000 0.202903
#
# Coordination Sequence:
#
# PCOD8271518 Si02
#       6
#    16  16  16  16  16  16
#     4  10  20  34  55  83 109 138 175 214 259 306
#     4   9  17  30  50  76 104 134 169 210 259 313
#     4   9  17  31  52  78 108 138 170 211 257 306
#     4  10  21  36  53  74 102 137 175 216 264 315
#     4  10  21  36  55  81 112 145 178 213 257 308
#     4  11  23  38  55  77 102 132 173 219 266 315
#
# _framework density 17.996188
#
# number of rings (size 3 to 8) (size 9 to 14) (size 15 to 20)
#    0.000    2.167    1.667    1.500    0.000    5.333 
#    0.000    1.667    0.000    0.500    0.000    7.000 
#    0.000    0.000    0.000    0.000    0.000    0.000 
#
# Total GULP energy -595133.973678 kJ/mol
# GULP energy per Si atom -12398.624452 kJ/mol
# Density = 1.795523 g / cm^3
# Si number density = 17.996188 Si / 1000 Ang^3
#
#
#
# Elastic Constant Matrix: (Units=GPa)
#
#
# Indices 1 2 3 4 5 6 
#
# 1 111.5906 42.1179 43.3274 0.0000 0.0000 0.0000
# 2 42.1179 42.2714 29.2532 0.0000 0.0000 0.0000
# 3 43.3274 29.2532 71.8729 0.0000 0.0000 0.0000
# 4 0.0000 0.0000 0.0000 28.2342 0.0000 0.0000
# 5 0.0000 0.0000 0.0000 0.0000 23.1021 0.0000
# 6 0.0000 0.0000 0.0000 0.0000 0.0000 24.6515
#
#
#
# Elastic Compliance Matrix: (Units=1/GPa)
#
#
# Indices 1 2 3 4 5 6 
#
# 1 0.015214 -0.012267 -0.004179 0.000000 0.000000 0.000000
# 2 -0.012267 0.042823 -0.010035 0.000000 0.000000 0.000000
# 3 -0.004179 -0.010035 0.020517 0.000000 0.000000 0.000000
# 4 0.000000 0.000000 0.000000 0.035418 0.000000 0.000000
# 5 0.000000 0.000000 0.000000 0.000000 0.043286 0.000000
# 6 0.000000 0.000000 0.000000 0.000000 0.000000 0.040566
#
#
# Mechanical properties :
#
#
# Convention : Reuss Voigt Hill
#
# Bulk Modulus (GPa) = 39.07255 50.57020 44.82137
# Shear Modulus (GPa) = 19.28160 22.59999 20.94080
#
# Velocity S-wave (km/s) = 3.27682 3.54760 3.41489
# Velocity P-wave (km/s) = 6.00628 6.70389 6.36465
#
# Compressibility (1/GPa) = 0.02559342
#
# Stress axis : x y z
#
# Youngs Moduli (GPa) = 65.73077 23.35180 48.74061
#
# Poissons Ratio (x) = 0.28645 0.20367
# Poissons Ratio (y) = 0.80630 0.48911
# Poissons Ratio (z) = 0.27466 0.23433
#
# Static dielectric constant tensor:
#      x y z
#    x 3.684030 0.000000 0.000000 
#    y 0.000000 3.341880 0.000000 
#    z 0.000000 0.000000 3.090690 
# 
# 
# High freq. dielectric constant tensor:
#      x y z
#    x 1.708560 0.000000 0.000000 
#    y 0.000000 1.698210 0.000000 
#    z 0.000000 0.000000 1.672080 
# 
# From -- ./inp_files/60194.got.cif
#   From: 2010.03.12/outbox.cif.g09.slc.cpg/sg65_31_cif.got.tgz:60194.got - 2010.04.10 20:52:16.
