data_PCOD8271499
_publ_section_title
;
Structure prediction by ZEFSAII (Michael W. Deem and Ramdas Pophale) SiO2 
 PCOD8271499
Probable space group: C M M M
;
_chemical_formula_sum "Si O2"
_cell_formula_units_Z 72
_cell_length_a 17.255027
_cell_length_b 26.981674
_cell_length_c 7.793096
_cell_angle_alpha 90.000000
_cell_angle_beta 90.000000
_cell_angle_gamma 90.000000
_cell_volume 3628.227912
_symmetry_space_group_name_H-M "C M M M"
_symmetry_group_IT_number 65
_symmetry_cell_setting 'orthorhombic'
loop_
_space_group_symop_operation_xyz
x,y,z
-x,-y,z
x,-y,-z
-x,y,-z
-x,-y,-z
x,y,-z
-x,y,z
x,-y,z
1/2+x,1/2+y,z
1/2-x,1/2-y,z
1/2+x,1/2-y,-z
1/2-x,1/2+y,-z
1/2-x,1/2-y,-z
1/2+x,1/2+y,-z
1/2-x,1/2+y,z
1/2+x,1/2-y,z
loop_
_atom_site_type_symbol
_atom_site_label
_atom_site_fract_x
_atom_site_fract_y
_atom_site_fract_z
Si Si1 0.591975 0.602835 0.500000
Si Si2 0.089671 0.213801 0.500000
Si Si3 0.000000 0.443396 0.205437
Si Si4 0.283259 0.445232 0.690680
Si Si5 0.835029 0.728245 0.800514
Si Si6 0.853996 0.617014 0.806594
O O1 0.500000 0.595538 0.500000
O O2 0.624254 0.658677 0.500000
O O3 0.629467 0.577329 0.671197
O O4 0.110333 0.240851 0.676333
O O5 0.000000 0.206384 0.500000
O O6 0.924027 0.414491 0.279466
O O7 0.000000 0.500000 0.275816
O O8 0.000000 0.445267 0.000000
O O9 0.245630 0.447455 0.500000
O O10 0.288829 0.500000 0.772926
O O11 0.227327 0.411908 0.805306
O O12 0.750000 0.750000 0.775770
O O13 0.840759 0.671823 0.729377
O O14 0.861030 0.733358 0.000000
O O15 0.879672 0.625407 0.000000
#
# Coordination Sequence:
#
# PCOD8271499 Si02
#       6
#     8   8   8  16  16  16
#     4   9  19  37  57  80 109 144 186 230 290 356
#     4  11  23  36  58  84 112 153 190 241 299 346
#     4   9  18  32  51  75 107 149 189 227 277 335
#     4   9  19  33  54  82 107 139 184 227 279 343
#     4  10  22  38  58  85 115 152 198 244 293 352
#     4  10  20  34  55  80 111 149 189 234 285 341
#
# _framework density 19.844398999999999
#
# number of rings (size 3 to 8) (size 9 to 14) (size 15 to 20)
#    0.667    1.667    0.000    2.333    3.111    2.667 
#    0.000    0.556    0.000    4.000    0.000    1.556 
#    0.000    0.000    0.000    0.000    0.000    0.000 
#
# Total GULP energy -446007.073304 kJ/mol
# GULP energy per Si atom -12389.085370 kJ/mol
# Density = 1.979923 g / cm^3
# Si number density = 19.844399 Si / 1000 Ang^3
#
#
#
# Elastic Constant Matrix: (Units=GPa)
#
#
# Indices 1 2 3 4 5 6 
#
# 1 108.0329 61.5096 5.3141 0.0000 0.0000 0.0000
# 2 61.5096 175.9913 19.9890 0.0000 0.0000 0.0000
# 3 5.3141 19.9890 37.6704 0.0000 0.0000 0.0000
# 4 0.0000 0.0000 0.0000 8.1862 0.0000 0.0000
# 5 0.0000 0.0000 0.0000 0.0000 16.7311 0.0000
# 6 0.0000 0.0000 0.0000 0.0000 0.0000 40.2757
#
#
#
# Elastic Compliance Matrix: (Units=1/GPa)
#
#
# Indices 1 2 3 4 5 6 
#
# 1 0.011567 -0.004105 0.000546 0.000000 0.000000 0.000000
# 2 -0.004105 0.007503 -0.003402 0.000000 0.000000 0.000000
# 3 0.000546 -0.003402 0.028274 0.000000 0.000000 0.000000
# 4 0.000000 0.000000 0.000000 0.122156 0.000000 0.000000
# 5 0.000000 0.000000 0.000000 0.000000 0.059769 0.000000
# 6 0.000000 0.000000 0.000000 0.000000 0.000000 0.024829
#
#
# Mechanical properties :
#
#
# Convention : Reuss Voigt Hill
#
# Bulk Modulus (GPa) = 29.91968 55.03557 42.47763
# Shear Modulus (GPa) = 17.91084 28.69738 23.30411
#
# Velocity S-wave (km/s) = 3.00753 3.80691 3.43059
# Velocity P-wave (km/s) = 5.21250 6.86420 6.09456
#
# Compressibility (1/GPa) = 0.03342281
#
# Stress axis : x y z
#
# Youngs Moduli (GPa) = 86.45608 133.27797 35.36774
#
# Poissons Ratio (x) = 0.54705 -0.01932
# Poissons Ratio (y) = 0.35487 0.12033
# Poissons Ratio (z) = -0.04723 0.45346
#
# Static dielectric constant tensor:
#      x y z
#    x 3.628410 0.000000 0.000000 
#    y 0.000000 4.421730 0.000000 
#    z 0.000000 0.000000 3.251340 
# 
# 
# High freq. dielectric constant tensor:
#      x y z
#    x 1.765200 0.000000 0.000000 
#    y 0.000000 1.796650 0.000000 
#    z 0.000000 0.000000 1.739840 
# 
# From -- ./inp_files/7426.got.cif
#   From: 2010.03.12/outbox.cif.g09.slc.cpg/sg65_4_cif.got.tgz:7426.got - 2010.04.10 20:52:16.
