data_PCOD8271650
_publ_section_title
;
Structure prediction by ZEFSAII (Michael W. Deem and Ramdas Pophale) SiO2 
 PCOD8271650
Probable space group: C M M M
;
_chemical_formula_sum "Si O2"
_cell_formula_units_Z 72
_cell_length_a 8.887419
_cell_length_b 27.207453
_cell_length_c 16.114521
_cell_angle_alpha 90.000000
_cell_angle_beta 90.000000
_cell_angle_gamma 90.000000
_cell_volume 3896.556196
_symmetry_space_group_name_H-M "C M M M"
_symmetry_group_IT_number 65
_symmetry_cell_setting 'orthorhombic'
loop_
_space_group_symop_operation_xyz
x,y,z
-x,-y,z
x,-y,-z
-x,y,-z
-x,-y,-z
x,y,-z
-x,y,z
x,-y,z
1/2+x,1/2+y,z
1/2-x,1/2-y,z
1/2+x,1/2-y,-z
1/2-x,1/2+y,-z
1/2-x,1/2-y,-z
1/2+x,1/2+y,-z
1/2-x,1/2+y,z
1/2+x,1/2-y,z
loop_
_atom_site_type_symbol
_atom_site_label
_atom_site_fract_x
_atom_site_fract_y
_atom_site_fract_z
Si Si1 0.678119 0.300832 0.743799
Si Si2 0.176467 0.944315 0.663433
Si Si3 0.673673 0.852574 0.405516
Si Si4 0.177000 0.897598 0.167307
Si Si5 0.819886 0.055995 0.000000
O O1 0.500000 0.295620 0.740366
O O2 0.750000 0.250000 0.773633
O O3 0.734063 0.315242 0.652084
O O4 0.730379 0.342431 0.809649
O O5 0.267205 0.908338 0.603154
O O6 0.223978 0.934402 0.758774
O O7 0.000000 0.933651 0.651785
O O8 0.217733 0.000000 0.639839
O O9 0.696455 0.835473 0.500000
O O10 0.500000 0.850806 0.379204
O O11 0.247987 0.916292 0.080853
O O12 0.000000 0.898003 0.156719
O O13 0.000000 0.056966 0.000000
O O14 0.762284 0.000000 0.000000
#
# Coordination Sequence:
#
# PCOD8271650 Si02
#       5
#    16  16  16  16   8
#     4  10  20  35  54  73  96 127 163 202 246 296
#     4   9  17  30  48  70  99 135 171 204 242 290
#     4  10  21  35  50  71  98 126 161 205 250 297
#     4   8  15  27  44  70 101 130 162 201 241 283
#     4   9  14  22  43  74 105 133 161 197 238 277
#
# _framework density 18.477855999999999
#
# number of rings (size 3 to 8) (size 9 to 14) (size 15 to 20)
#    0.000    2.778    0.000    3.333    0.000    5.778 
#    0.000    2.778    0.000    0.000    0.000   18.667 
#    0.000   29.333    0.000    0.000    0.000    0.000 
#
# Total GULP energy -446314.958798 kJ/mol
# GULP energy per Si atom -12397.637744 kJ/mol
# Density = 1.843580 g / cm^3
# Si number density = 18.477856 Si / 1000 Ang^3
#
#
#
# Elastic Constant Matrix: (Units=GPa)
#
#
# Indices 1 2 3 4 5 6 
#
# 1 53.4723 32.5526 24.8486 0.0000 0.0000 0.0000
# 2 32.5526 122.6617 41.2714 0.0000 0.0000 0.0000
# 3 24.8486 41.2714 95.3444 0.0000 0.0000 0.0000
# 4 0.0000 0.0000 0.0000 16.3819 0.0000 0.0000
# 5 0.0000 0.0000 0.0000 0.0000 10.9155 0.0000
# 6 0.0000 0.0000 0.0000 0.0000 0.0000 29.8305
#
#
#
# Elastic Compliance Matrix: (Units=1/GPa)
#
#
# Indices 1 2 3 4 5 6 
#
# 1 0.023550 -0.004898 -0.004017 0.000000 0.000000 0.000000
# 2 -0.004898 0.010561 -0.003295 0.000000 0.000000 0.000000
# 3 -0.004017 -0.003295 0.012962 0.000000 0.000000 0.000000
# 4 0.000000 0.000000 0.000000 0.061043 0.000000 0.000000
# 5 0.000000 0.000000 0.000000 0.000000 0.091613 0.000000
# 6 0.000000 0.000000 0.000000 0.000000 0.000000 0.033523
#
#
# Mechanical properties :
#
#
# Convention : Reuss Voigt Hill
#
# Bulk Modulus (GPa) = 44.14677 52.09150 48.11913
# Shear Modulus (GPa) = 18.85208 22.94597 20.89902
#
# Velocity S-wave (km/s) = 3.19760 3.52775 3.36673
# Velocity P-wave (km/s) = 6.12997 6.69671 6.41959
#
# Compressibility (1/GPa) = 0.02265172
#
# Stress axis : x y z
#
# Youngs Moduli (GPa) = 42.46286 94.68769 77.15117
#
# Poissons Ratio (x) = 0.46379 0.30994
# Poissons Ratio (y) = 0.20799 0.25421
# Poissons Ratio (z) = 0.17059 0.31199
#
# Static dielectric constant tensor:
#      x y z
#    x 3.103980 0.000000 0.000000 
#    y 0.000000 3.564110 0.000000 
#    z 0.000000 0.000000 3.512220 
# 
# 
# High freq. dielectric constant tensor:
#      x y z
#    x 1.685380 0.000000 0.000000 
#    y 0.000000 1.721070 0.000000 
#    z 0.000000 0.000000 1.709200 
# 
# From -- ./inp_files/37008.got.cif
#   From: 2010.03.12/outbox.cif.g09.slc.cpg/sg65_19_cif.got.tgz:37008.got - 2010.04.10 20:52:16.
