data_PCOD8271148
_publ_section_title
;
Structure prediction by ZEFSAII (Michael W. Deem and Ramdas Pophale) SiO2 
 PCOD8271148
Probable space group: C M M M
;
_chemical_formula_sum "Si O2"
_cell_formula_units_Z 88
_cell_length_a 18.103342
_cell_length_b 9.032619
_cell_length_c 28.218273
_cell_angle_alpha 90.000000
_cell_angle_beta 90.000000
_cell_angle_gamma 90.000000
_cell_volume 4614.268675
_symmetry_space_group_name_H-M "C M M M"
_symmetry_group_IT_number 65
_symmetry_cell_setting 'orthorhombic'
loop_
_space_group_symop_operation_xyz
x,y,z
-x,-y,z
x,-y,-z
-x,y,-z
-x,-y,-z
x,y,-z
-x,y,z
x,-y,z
1/2+x,1/2+y,z
1/2-x,1/2-y,z
1/2+x,1/2-y,-z
1/2-x,1/2+y,-z
1/2-x,1/2-y,-z
1/2+x,1/2+y,-z
1/2-x,1/2+y,z
1/2+x,1/2-y,z
loop_
_atom_site_type_symbol
_atom_site_label
_atom_site_fract_x
_atom_site_fract_y
_atom_site_fract_z
Si Si1 0.582107 0.323944 0.858488
Si Si2 0.582982 0.824352 0.500000
Si Si3 0.672894 0.672306 0.230520
Si Si4 0.913835 0.829730 0.325245
Si Si5 0.326195 0.673687 0.946938
Si Si6 0.670746 0.824544 0.407939
O O1 0.500000 0.257428 0.852576
O O2 0.578694 0.500000 0.855022
O O3 0.634782 0.262435 0.816876
O O4 0.612471 0.272467 0.909625
O O5 0.500000 0.757771 0.500000
O O6 0.625987 0.767459 0.453740
O O7 0.578840 0.000000 0.500000
O O8 0.689319 0.500000 0.224621
O O9 0.750000 0.750000 0.240615
O O10 0.617524 0.704110 0.273448
O O11 0.874129 0.721809 0.361762
O O12 0.000000 0.792282 0.324743
O O13 0.899223 0.000000 0.339693
O O14 0.312897 0.500000 0.942908
O O15 0.250000 0.750000 0.933293
O O16 0.352195 0.718088 0.000000
O O17 0.750000 0.750000 0.407993
O O18 0.680968 0.000000 0.408149
#
# Coordination Sequence:
#
# PCOD8271148 Si02
#       6
#    16   8  16  16  16  16
#     4   9  17  30  49  72  97 127 165 207 250 296
#     4   9  19  36  57  81 108 139 176 217 260 306
#     4  10  20  34  53  75 100 133 170 208 252 302
#     4  10  21  37  56  79 107 137 172 215 261 309
#     4   9  17  29  47  71  97 126 161 202 247 295
#     4  11  22  37  58  82 110 143 178 215 257 306
#
# _framework density 19.071278
#
# number of rings (size 3 to 8) (size 9 to 14) (size 15 to 20)
#    0.000    2.273    0.000    3.000    0.000    5.818 
#    0.000    3.182    0.000    6.545    0.000    2.545 
#    0.000    0.000    0.000    0.000    0.000    0.000 
#
# Total GULP energy -545667.222568 kJ/mol
# GULP energy per Si atom -12401.527786 kJ/mol
# Density = 1.902787 g / cm^3
# Si number density = 19.071278 Si / 1000 Ang^3
#
#
#
# Elastic Constant Matrix: (Units=GPa)
#
#
# Indices 1 2 3 4 5 6 
#
# 1 159.5247 41.3788 69.1005 0.0000 0.0000 0.0000
# 2 41.3788 39.9501 36.4654 0.0000 0.0000 0.0000
# 3 69.1005 36.4654 126.5552 0.0000 0.0000 0.0000
# 4 0.0000 0.0000 0.0000 19.9083 0.0000 0.0000
# 5 0.0000 0.0000 0.0000 0.0000 39.9880 0.0000
# 6 0.0000 0.0000 0.0000 0.0000 0.0000 16.2750
#
#
#
# Elastic Compliance Matrix: (Units=1/GPa)
#
#
# Indices 1 2 3 4 5 6 
#
# 1 0.009421 -0.006870 -0.003165 0.000000 0.000000 0.000000
# 2 -0.006870 0.038973 -0.007479 0.000000 0.000000 0.000000
# 3 -0.003165 -0.007479 0.011785 0.000000 0.000000 0.000000
# 4 0.000000 0.000000 0.000000 0.050230 0.000000 0.000000
# 5 0.000000 0.000000 0.000000 0.000000 0.025007 0.000000
# 6 0.000000 0.000000 0.000000 0.000000 0.000000 0.061444
#
#
# Mechanical properties :
#
#
# Convention : Reuss Voigt Hill
#
# Bulk Modulus (GPa) = 39.75715 68.87991 54.31853
# Shear Modulus (GPa) = 20.80986 27.17329 23.99158
#
# Velocity S-wave (km/s) = 3.30686 3.77878 3.55067
# Velocity P-wave (km/s) = 5.95586 7.43199 6.73449
#
# Compressibility (1/GPa) = 0.02515271
#
# Stress axis : x y z
#
# Youngs Moduli (GPa) = 106.14147 25.65888 84.85649
#
# Poissons Ratio (x) = 0.17627 0.26855
# Poissons Ratio (y) = 0.72915 0.63462
# Poissons Ratio (z) = 0.33592 0.19190
#
# Static dielectric constant tensor:
#      x y z
#    x 3.697140 0.000000 0.000000 
#    y 0.000000 3.201140 0.000000 
#    z 0.000000 0.000000 3.765270 
# 
# 
# High freq. dielectric constant tensor:
#      x y z
#    x 1.753390 0.000000 0.000000 
#    y 0.000000 1.706790 0.000000 
#    z 0.000000 0.000000 1.759850 
# 
# From -- ./inp_files/77801.got.cif
#   From: 2010.03.12/outbox.cif.g09.slc.cpg/sg65_39_cif.got.tgz:77801.got - 2010.04.10 20:52:16.
