data_PCOD8271504
_publ_section_title
;
Structure prediction by ZEFSAII (Michael W. Deem and Ramdas Pophale) SiO2 
 PCOD8271504
Probable space group: C M M M
;
_chemical_formula_sum "Si O2"
_cell_formula_units_Z 64
_cell_length_a 8.215655
_cell_length_b 18.110031
_cell_length_c 22.218038
_cell_angle_alpha 90.000000
_cell_angle_beta 90.000000
_cell_angle_gamma 90.000000
_cell_volume 3305.727819
_symmetry_space_group_name_H-M "C M M M"
_symmetry_group_IT_number 65
_symmetry_cell_setting 'orthorhombic'
loop_
_space_group_symop_operation_xyz
x,y,z
-x,-y,z
x,-y,-z
-x,y,-z
-x,-y,-z
x,y,-z
-x,y,z
x,-y,z
1/2+x,1/2+y,z
1/2-x,1/2-y,z
1/2+x,1/2-y,-z
1/2-x,1/2+y,-z
1/2-x,1/2-y,-z
1/2+x,1/2+y,-z
1/2-x,1/2+y,z
1/2+x,1/2-y,z
loop_
_atom_site_type_symbol
_atom_site_label
_atom_site_fract_x
_atom_site_fract_y
_atom_site_fract_z
Si Si1 0.188024 0.581359 0.124556
Si Si2 0.312969 0.669235 0.764062
Si Si3 0.000000 0.412176 0.567957
Si Si4 0.185003 0.086961 0.000000
Si Si5 0.815613 0.912552 0.641255
O O1 0.273004 0.500000 0.133465
O O2 0.224532 0.636414 0.178413
O O3 0.239558 0.619479 0.061459
O O4 0.000000 0.567514 0.122239
O O5 0.500000 0.673022 0.780599
O O6 0.250000 0.750000 0.748187
O O7 0.278181 0.617726 0.707153
O O8 0.831409 0.383024 0.598573
O O9 0.000000 0.500000 0.569434
O O10 0.000000 0.381983 0.500000
O O11 0.000000 0.110104 0.000000
O O12 0.217134 0.000000 0.000000
O O13 0.000000 0.888235 0.619650
O O14 0.808414 0.000000 0.644612
#
# Coordination Sequence:
#
# PCOD8271504 Si02
#       5
#    16  16   8   8  16
#     4  10  20  34  55  81 109 141 181 226 273 328
#     4  11  23  37  54  79 108 145 184 228 278 329
#     4   9  18  32  56  88 116 143 178 224 275 327
#     4   9  17  31  52  77 106 141 178 223 273 323
#     4   9  19  35  56  83 113 146 184 227 276 330
#
# _framework density 19.360336
#
# number of rings (size 3 to 8) (size 9 to 14) (size 15 to 20)
#    0.000    2.250    0.000    2.625    3.500    4.500 
#    0.000    3.125    0.000    0.750    0.000    0.000 
#    0.000    0.000    0.000    0.000    0.000    0.000 
#
# Total GULP energy -396612.618853 kJ/mol
# GULP energy per Si atom -12394.144339 kJ/mol
# Density = 1.931627 g / cm^3
# Si number density = 19.360336 Si / 1000 Ang^3
#
#
#
# Elastic Constant Matrix: (Units=GPa)
#
#
# Indices 1 2 3 4 5 6 
#
# 1 131.6241 20.2090 78.5669 0.0000 0.0000 0.0000
# 2 20.2090 16.4672 14.0465 0.0000 0.0000 0.0000
# 3 78.5669 14.0465 135.6441 0.0000 0.0000 0.0000
# 4 0.0000 0.0000 0.0000 -7.1814 0.0000 0.0000
# 5 0.0000 0.0000 0.0000 0.0000 37.2425 0.0000
# 6 0.0000 0.0000 0.0000 0.0000 0.0000 21.2968
#
#
#
# Elastic Compliance Matrix: (Units=1/GPa)
#
#
# Indices 1 2 3 4 5 6 
#
# 1 0.013088 -0.010525 -0.006491 0.000000 0.000000 0.000000
# 2 -0.010525 0.075075 -0.001678 0.000000 0.000000 0.000000
# 3 -0.006491 -0.001678 0.011305 0.000000 0.000000 0.000000
# 4 0.000000 0.000000 0.000000 -0.139248 0.000000 0.000000
# 5 0.000000 0.000000 0.000000 0.000000 0.026851 0.000000
# 6 0.000000 0.000000 0.000000 0.000000 0.000000 0.046955
#
#
# Mechanical properties :
#
#
# Convention : Reuss Voigt Hill
#
# Bulk Modulus (GPa) = 16.10809 56.59780 36.35294
# Shear Modulus (GPa) = 54.28465 21.66578 37.97521
#
# Velocity S-wave (km/s) = 5.30094 3.34890 4.43368
# Velocity P-wave (km/s) = 6.76793 6.65213 6.71028
#
# Compressibility (1/GPa) = 0.06208061
#
# Stress axis : x y z
#
# Youngs Moduli (GPa) = 76.40793 13.32002 88.45277
#
# Poissons Ratio (x) = 0.14019 0.57411
# Poissons Ratio (y) = 0.80420 0.14843
# Poissons Ratio (z) = 0.49594 0.02235
#
# Static dielectric constant tensor:
#      x y z
#    x 3.868040 0.000000 0.000000 
#    y 0.000000 3.176770 0.000000 
#    z 0.000000 0.000000 3.620320 
# 
# 
# High freq. dielectric constant tensor:
#      x y z
#    x 1.771490 0.000000 0.000000 
#    y 0.000000 1.714220 0.000000 
#    z 0.000000 0.000000 1.756700 
# 
# From -- ./inp_files/49104.got.cif
#   From: 2010.03.12/outbox.cif.g09.slc.cpg/sg65_25_cif.got.tgz:49104.got - 2010.04.10 20:52:16.
