data_PCOD8271789
_publ_section_title
;
Structure prediction by ZEFSAII (Michael W. Deem and Ramdas Pophale) SiO2 
 PCOD8271789
Probable space group: C M M M
;
_chemical_formula_sum "Si O2"
_cell_formula_units_Z 104
_cell_length_a 31.000489
_cell_length_b 9.270414
_cell_length_c 18.849484
_cell_angle_alpha 90.000000
_cell_angle_beta 90.000000
_cell_angle_gamma 90.000000
_cell_volume 5417.103580
_symmetry_space_group_name_H-M "C M M M"
_symmetry_group_IT_number 65
_symmetry_cell_setting 'orthorhombic'
loop_
_space_group_symop_operation_xyz
x,y,z
-x,-y,z
x,-y,-z
-x,y,-z
-x,-y,-z
x,y,-z
-x,y,z
x,-y,z
1/2+x,1/2+y,z
1/2-x,1/2-y,z
1/2+x,1/2-y,-z
1/2-x,1/2+y,-z
1/2-x,1/2-y,-z
1/2+x,1/2+y,-z
1/2-x,1/2+y,z
1/2+x,1/2-y,z
loop_
_atom_site_type_symbol
_atom_site_label
_atom_site_fract_x
_atom_site_fract_y
_atom_site_fract_z
Si Si1 0.000000 0.328386 0.084252
Si Si2 0.149129 0.336954 0.799574
Si Si3 0.435717 0.666253 0.815925
Si Si4 0.877510 0.670625 0.580352
Si Si5 0.794560 0.667942 0.666441
Si Si6 0.288711 0.162336 0.078460
Si Si7 0.047165 0.836316 0.657482
O O1 0.957874 0.260057 0.121865
O O2 0.000000 0.500000 0.096293
O O3 0.000000 0.292311 0.000000
O O4 0.132212 0.500000 0.783609
O O5 0.111793 0.221042 0.797572
O O6 0.186694 0.296502 0.744156
O O7 0.167636 0.325064 0.878168
O O8 0.434648 0.500000 0.841285
O O9 0.460195 0.682714 0.741665
O O10 0.881506 0.726869 0.500000
O O11 0.881798 0.500000 0.585246
O O12 0.830936 0.719098 0.610209
O O13 0.916356 0.732701 0.626950
O O14 0.784290 0.500000 0.657680
O O15 0.750000 0.750000 0.652461
O O16 0.250000 0.250000 0.115027
O O17 0.272160 0.000000 0.075248
O O18 0.298675 0.223684 0.000000
O O19 0.000000 0.801425 0.623399
O O20 0.061068 0.000000 0.639932
#
# Coordination Sequence:
#
# PCOD8271789 Si02
#       7
#     8  16  16  16  16  16  16
#     4  11  25  43  63  89 122 161 202 243 293 356
#     4  10  20  35  55  81 112 148 192 239 292 351
#     4  11  22  38  61  88 117 152 193 241 293 345
#     4  10  22  40  60  86 120 156 199 249 298 358
#     4  10  21  36  56  83 115 155 201 250 303 361
#     4   9  18  32  50  73 104 140 178 224 277 334
#     4  10  21  39  62  89 120 153 192 238 296 360
#
# _framework density 19.198450999999999
#
# number of rings (size 3 to 8) (size 9 to 14) (size 15 to 20)
#    0.000    1.923    2.308    1.154    0.000    4.923 
#    0.000    3.077    0.000    0.000    0.000    0.000 
#    0.000    0.000    0.000    0.000    0.000    0.000 
#
# Total GULP energy -644631.069937 kJ/mol
# GULP energy per Si atom -12396.751345 kJ/mol
# Density = 1.915475 g / cm^3
# Si number density = 19.198451 Si / 1000 Ang^3
#
#
#
# Elastic Constant Matrix: (Units=GPa)
#
#
# Indices 1 2 3 4 5 6 
#
# 1 131.8377 58.5917 42.2334 0.0000 0.0000 0.0000
# 2 58.5917 79.0916 40.8585 0.0000 0.0000 0.0000
# 3 42.2334 40.8585 96.9566 0.0000 0.0000 0.0000
# 4 0.0000 0.0000 0.0000 24.7693 0.0000 0.0000
# 5 0.0000 0.0000 0.0000 0.0000 21.6083 0.0000
# 6 0.0000 0.0000 0.0000 0.0000 0.0000 37.5869
#
#
#
# Elastic Compliance Matrix: (Units=1/GPa)
#
#
# Indices 1 2 3 4 5 6 
#
# 1 0.011555 -0.007618 -0.001823 0.000000 0.000000 0.000000
# 2 -0.007618 0.021185 -0.005609 0.000000 0.000000 0.000000
# 3 -0.001823 -0.005609 0.013472 0.000000 0.000000 0.000000
# 4 0.000000 0.000000 0.000000 0.040373 0.000000 0.000000
# 5 0.000000 0.000000 0.000000 0.000000 0.046279 0.000000
# 6 0.000000 0.000000 0.000000 0.000000 0.000000 0.026605
#
#
# Mechanical properties :
#
#
# Convention : Reuss Voigt Hill
#
# Bulk Modulus (GPa) = 62.06912 65.69481 63.88196
# Shear Modulus (GPa) = 25.64924 27.87306 26.76115
#
# Velocity S-wave (km/s) = 3.65911 3.81443 3.73758
# Velocity P-wave (km/s) = 7.08890 7.32755 7.20921
#
# Compressibility (1/GPa) = 0.01611107
#
# Stress axis : x y z
#
# Youngs Moduli (GPa) = 86.54498 47.20361 74.23035
#
# Poissons Ratio (x) = 0.35961 0.13530
# Poissons Ratio (y) = 0.65932 0.41636
# Poissons Ratio (z) = 0.15775 0.26477
#
# Static dielectric constant tensor:
#      x y z
#    x 3.475730 0.000000 0.000000 
#    y 0.000000 3.457440 0.000000 
#    z 0.000000 0.000000 3.701020 
# 
# 
# High freq. dielectric constant tensor:
#      x y z
#    x 1.750330 0.000000 0.000000 
#    y 0.000000 1.742010 0.000000 
#    z 0.000000 0.000000 1.747200 
# 
# From -- ./inp_files/66401.got.cif
#   From: 2010.03.12/outbox.cif.g09.slc.cpg/sg65_34_cif.got.tgz:66401.got - 2010.04.10 20:52:16.
