data_PCOD8271469
_publ_section_title
;
Structure prediction by ZEFSAII (Michael W. Deem and Ramdas Pophale) SiO2 
 PCOD8271469
Probable space group: C M M M
;
_chemical_formula_sum "Si O2"
_cell_formula_units_Z 112
_cell_length_a 15.778242
_cell_length_b 15.295263
_cell_length_c 23.150103
_cell_angle_alpha 90.000000
_cell_angle_beta 90.000000
_cell_angle_gamma 90.000000
_cell_volume 5586.869016
_symmetry_space_group_name_H-M "C M M M"
_symmetry_group_IT_number 65
_symmetry_cell_setting 'orthorhombic'
loop_
_space_group_symop_operation_xyz
x,y,z
-x,-y,z
x,-y,-z
-x,y,-z
-x,-y,-z
x,y,-z
-x,y,z
x,-y,z
1/2+x,1/2+y,z
1/2-x,1/2-y,z
1/2+x,1/2-y,-z
1/2-x,1/2+y,-z
1/2-x,1/2-y,-z
1/2+x,1/2+y,-z
1/2-x,1/2+y,z
1/2+x,1/2-y,z
loop_
_atom_site_type_symbol
_atom_site_label
_atom_site_fract_x
_atom_site_fract_y
_atom_site_fract_z
Si Si1 0.345623 0.595651 0.850459
Si Si2 0.202533 0.404649 0.237733
Si Si3 0.404959 0.212140 0.159514
Si Si4 0.095085 0.896760 0.564842
Si Si5 0.755044 0.654310 0.640790
Si Si6 0.712823 0.845507 0.063697
Si Si7 0.093897 0.398796 0.566406
O O1 0.393678 0.500000 0.852075
O O2 0.293615 0.603251 0.791696
O O3 0.403900 0.682272 0.849871
O O4 0.282697 0.594279 0.905499
O O5 0.161442 0.500000 0.222612
O O6 0.145411 0.323254 0.215791
O O7 0.220178 0.407086 0.306055
O O8 0.500000 0.182307 0.168629
O O9 0.370740 0.161228 0.103144
O O10 0.116431 0.861758 0.500000
O O11 0.166126 0.868249 0.610481
O O12 0.000000 0.863483 0.582899
O O13 0.094528 0.000000 0.563319
O O14 0.750000 0.750000 0.667708
O O15 0.832740 0.656445 0.595970
O O16 0.750000 0.750000 0.057559
O O17 0.690690 0.883409 0.000000
O O18 0.093344 0.371998 0.500000
O O19 0.116747 0.500000 0.574212
O O20 0.000000 0.379094 0.592541
#
# Coordination Sequence:
#
# PCOD8271469 Si02
#       7
#    16  16  16  16  16  16  16
#     4   9  18  34  55  78 108 147 185 221 268 329
#     4  10  21  39  59  74  97 138 186 233 275 321
#     4  10  20  34  54  82 115 145 178 228 285 337
#     4   9  19  37  59  81 107 140 177 218 268 331
#     4  12  23  34  54  82 110 140 176 223 280 342
#     4   8  15  30  52  77 107 147 193 232 264 308
#     4   9  19  36  55  75 103 141 185 229 269 317
#
# _framework density 20.047006
#
# number of rings (size 3 to 8) (size 9 to 14) (size 15 to 20)
#    0.000    2.429    0.000    4.714    0.000    4.571 
#    0.000    3.571    0.000    0.857    0.000    8.000 
#    0.000    0.000    0.000    0.000    0.000    0.000 
#
# Total GULP energy -693795.788755 kJ/mol
# GULP energy per Si atom -12389.210513 kJ/mol
# Density = 2.000138 g / cm^3
# Si number density = 20.047006 Si / 1000 Ang^3
#
#
#
# Elastic Constant Matrix: (Units=GPa)
#
#
# Indices 1 2 3 4 5 6 
#
# 1 104.1288 14.4596 48.8999 0.0000 0.0000 0.0000
# 2 14.4596 76.4314 14.5182 0.0000 0.0000 0.0000
# 3 48.8999 14.5182 112.5895 0.0000 0.0000 0.0000
# 4 0.0000 0.0000 0.0000 14.9112 0.0000 0.0000
# 5 0.0000 0.0000 0.0000 0.0000 10.5367 0.0000
# 6 0.0000 0.0000 0.0000 0.0000 0.0000 13.9893
#
#
#
# Elastic Compliance Matrix: (Units=1/GPa)
#
#
# Indices 1 2 3 4 5 6 
#
# 1 0.012195 -0.001334 -0.005125 0.000000 0.000000 0.000000
# 2 -0.001334 0.013558 -0.001169 0.000000 0.000000 0.000000
# 3 -0.005125 -0.001169 0.011258 0.000000 0.000000 0.000000
# 4 0.000000 0.000000 0.000000 0.067064 0.000000 0.000000
# 5 0.000000 0.000000 0.000000 0.000000 0.094907 0.000000
# 6 0.000000 0.000000 0.000000 0.000000 0.000000 0.071483
#
#
# Mechanical properties :
#
#
# Convention : Reuss Voigt Hill
#
# Bulk Modulus (GPa) = 45.96271 49.87838 47.92054
# Shear Modulus (GPa) = 17.06645 22.23889 19.65267
#
# Velocity S-wave (km/s) = 2.92091 3.33428 3.13442
# Velocity P-wave (km/s) = 5.86113 6.30539 6.08732
#
# Compressibility (1/GPa) = 0.02175677
#
# Stress axis : x y z
#
# Youngs Moduli (GPa) = 81.99884 73.75713 88.82321
#
# Poissons Ratio (x) = 0.09837 0.45519
# Poissons Ratio (y) = 0.10936 0.10384
# Poissons Ratio (z) = 0.42022 0.08622
#
# Static dielectric constant tensor:
#      x y z
#    x 3.639370 0.000000 0.000000 
#    y 0.000000 3.728590 0.000000 
#    z 0.000000 0.000000 3.788360 
# 
# 
# High freq. dielectric constant tensor:
#      x y z
#    x 1.759360 0.000000 0.000000 
#    y 0.000000 1.786710 0.000000 
#    z 0.000000 0.000000 1.775430 
# 
# From -- ./inp_files/70002.got.cif
#   From: 2010.03.12/outbox.cif.g09.slc.cpg/sg65_36_cif.got.tgz:70002.got - 2010.04.10 20:52:16.
