data_PCOD8271165
_publ_section_title
;
Structure prediction by ZEFSAII (Michael W. Deem and Ramdas Pophale) SiO2 
 PCOD8271165
Probable space group: C M M M
;
_chemical_formula_sum "Si O2"
_cell_formula_units_Z 88
_cell_length_a 9.109130
_cell_length_b 17.820936
_cell_length_c 28.521743
_cell_angle_alpha 90.000000
_cell_angle_beta 90.000000
_cell_angle_gamma 90.000000
_cell_volume 4630.026460
_symmetry_space_group_name_H-M "C M M M"
_symmetry_group_IT_number 65
_symmetry_cell_setting 'orthorhombic'
loop_
_space_group_symop_operation_xyz
x,y,z
-x,-y,z
x,-y,-z
-x,y,-z
-x,-y,-z
x,y,-z
-x,y,z
x,-y,z
1/2+x,1/2+y,z
1/2-x,1/2-y,z
1/2+x,1/2-y,-z
1/2-x,1/2+y,-z
1/2-x,1/2-y,-z
1/2+x,1/2+y,-z
1/2-x,1/2+y,z
1/2+x,1/2-y,z
loop_
_atom_site_type_symbol
_atom_site_label
_atom_site_fract_x
_atom_site_fract_y
_atom_site_fract_z
Si Si1 0.665055 0.910753 0.948360
Si Si2 0.833701 0.410955 0.768024
Si Si3 0.328793 0.586020 0.591598
Si Si4 0.665638 0.910739 0.500000
Si Si5 0.335140 0.589513 0.859177
Si Si6 0.173891 0.829464 0.314287
O O1 0.500000 0.881457 0.939480
O O2 0.770320 0.878006 0.907938
O O3 0.665660 0.000000 0.946121
O O4 0.720214 0.884419 0.000000
O O5 0.832943 0.500000 0.767316
O O6 0.764138 0.380602 0.816422
O O7 0.733863 0.383767 0.725589
O O8 0.000000 0.380098 0.763725
O O9 0.500000 0.591880 0.580796
O O10 0.283087 0.500000 0.601553
O O11 0.244784 0.619727 0.546626
O O12 0.282136 0.635097 0.635987
O O13 0.500000 0.880790 0.500000
O O14 0.674441 0.000000 0.500000
O O15 0.500000 0.620357 0.853134
O O16 0.334578 0.500000 0.859901
O O17 0.250000 0.750000 0.309220
O O18 0.000000 0.821524 0.308790
#
# Coordination Sequence:
#
# PCOD8271165 Si02
#       6
#    16  16  16   8  16  16
#     4   8  13  21  33  51  80 119 158 195 240 295
#     4  10  20  34  53  75  99 130 169 212 257 305
#     4   9  18  34  56  79 104 136 171 206 247 297
#     4   9  17  29  50  81 110 133 163 207 250 289
#     4   9  16  25  39  61  89 121 159 203 248 296
#     4  11  23  38  55  76 104 136 171 211 257 307
#
# _framework density 19.006371999999999
#
# number of rings (size 3 to 8) (size 9 to 14) (size 15 to 20)
#    0.000    2.636    0.000    3.000    0.000    6.909 
#    0.000    4.091    0.000    0.000    0.000    0.000 
#    0.000    0.727    0.000    2.727    0.000    6.364 
#
# Total GULP energy -545541.923225 kJ/mol
# GULP energy per Si atom -12398.680073 kJ/mol
# Density = 1.896311 g / cm^3
# Si number density = 19.006372 Si / 1000 Ang^3
#
#
#
# Elastic Constant Matrix: (Units=GPa)
#
#
# Indices 1 2 3 4 5 6 
#
# 1 115.5346 18.1804 80.7108 0.0000 0.0000 0.0000
# 2 18.1804 13.8266 14.3025 0.0000 0.0000 0.0000
# 3 80.7108 14.3025 167.0031 0.0000 0.0000 0.0000
# 4 0.0000 0.0000 0.0000 -1.2874 0.0000 0.0000
# 5 0.0000 0.0000 0.0000 0.0000 41.1140 0.0000
# 6 0.0000 0.0000 0.0000 0.0000 0.0000 18.0961
#
#
#
# Elastic Compliance Matrix: (Units=1/GPa)
#
#
# Indices 1 2 3 4 5 6 
#
# 1 0.015048 -0.013456 -0.006120 0.000000 0.000000 0.000000
# 2 -0.013456 0.091387 -0.001323 0.000000 0.000000 0.000000
# 3 -0.006120 -0.001323 0.009059 0.000000 0.000000 0.000000
# 4 0.000000 0.000000 0.000000 -0.776783 0.000000 0.000000
# 5 0.000000 0.000000 0.000000 0.000000 0.024323 0.000000
# 6 0.000000 0.000000 0.000000 0.000000 0.000000 0.055261
#
#
# Mechanical properties :
#
#
# Convention : Reuss Voigt Hill
#
# Bulk Modulus (GPa) = 13.56949 58.08352 35.82650
# Shear Modulus (GPa) = -9.70231 23.79592 7.04680
#
# Velocity S-wave (km/s) = -2.26182 3.54220 1.92760
# Velocity P-wave (km/s) = 0.57776 6.88156 4.88312
#
# Compressibility (1/GPa) = 0.07369476
#
# Stress axis : x y z
#
# Youngs Moduli (GPa) = 66.45210 10.94251 110.38573
#
# Poissons Ratio (x) = 0.14724 0.67560
# Poissons Ratio (y) = 0.89418 0.14608
# Poissons Ratio (z) = 0.40671 0.01448
#
# Static dielectric constant tensor:
#      x y z
#    x 3.666940 0.000000 0.000000 
#    y 0.000000 2.917180 0.000000 
#    z 0.000000 0.000000 3.783040 
# 
# 
# High freq. dielectric constant tensor:
#      x y z
#    x 1.747300 0.000000 0.000000 
#    y 0.000000 1.676850 0.000000 
#    z 0.000000 0.000000 1.758670 
# 
# From -- ./inp_files/76454.got.cif
#   From: 2010.03.12/outbox.cif.g09.slc.cpg/sg65_39_cif.got.tgz:76454.got - 2010.04.10 20:52:16.
