data_PCOD8271799
_publ_section_title
;
Structure prediction by ZEFSAII (Michael W. Deem and Ramdas Pophale) SiO2 
 PCOD8271799
Probable space group: C M M M
;
_chemical_formula_sum "Si O2"
_cell_formula_units_Z 88
_cell_length_a 22.195617
_cell_length_b 23.463734
_cell_length_c 8.045581
_cell_angle_alpha 90.000000
_cell_angle_beta 90.000000
_cell_angle_gamma 90.000000
_cell_volume 4190.074649
_symmetry_space_group_name_H-M "C M M M"
_symmetry_group_IT_number 65
_symmetry_cell_setting 'orthorhombic'
loop_
_space_group_symop_operation_xyz
x,y,z
-x,-y,z
x,-y,-z
-x,y,-z
-x,-y,-z
x,y,-z
-x,y,z
x,-y,z
1/2+x,1/2+y,z
1/2-x,1/2-y,z
1/2+x,1/2-y,-z
1/2-x,1/2+y,-z
1/2-x,1/2-y,-z
1/2+x,1/2+y,-z
1/2-x,1/2+y,z
1/2+x,1/2-y,z
loop_
_atom_site_type_symbol
_atom_site_label
_atom_site_fract_x
_atom_site_fract_y
_atom_site_fract_z
Si Si1 0.352120 0.609970 0.809156
Si Si2 0.070670 0.066994 0.500000
Si Si3 0.372574 0.273864 0.691302
Si Si4 0.500000 0.728453 0.812776
Si Si5 0.624792 0.148758 0.687519
Si Si6 0.222087 0.564281 0.191922
Si Si7 0.500000 0.863430 0.819314
O O1 0.400914 0.592437 0.670040
O O2 0.336032 0.677519 0.791550
O O3 0.291722 0.575188 0.770027
O O4 0.373756 0.597256 0.000000
O O5 0.000000 0.081472 0.500000
O O6 0.082395 0.000000 0.500000
O O7 0.352350 0.276618 0.500000
O O8 0.442307 0.292410 0.710793
O O9 0.362799 0.210742 0.774256
O O10 0.500000 0.796034 0.821484
O O11 0.500000 0.702793 0.000000
O O12 0.615517 0.166981 0.500000
O O13 0.680568 0.106875 0.705194
O O14 0.562902 0.116577 0.738104
O O15 0.206889 0.500000 0.246593
O O16 0.207091 0.574500 0.000000
O O17 0.500000 0.891132 0.000000
#
# Coordination Sequence:
#
# PCOD8271799 Si02
#       7
#    16   8  16   8  16  16   8
#     4  11  24  42  66  95 127 166 211 262 316 376
#     4  11  26  46  68  95 128 169 216 267 320 371
#     4  10  20  35  55  87 128 163 199 251 313 375
#     4   9  17  29  51  82 116 162 206 238 294 371
#     4  10  21  36  60  92 126 163 204 255 312 373
#     4  10  23  43  64  86 116 160 213 261 310 374
#     4   9  17  33  56  84 123 161 200 247 299 364
#
# _framework density 21.002012000000001
#
# number of rings (size 3 to 8) (size 9 to 14) (size 15 to 20)
#    0.000    1.909    0.909    2.182    2.545    6.909 
#    0.000    5.000    0.000    2.727    0.000    0.000 
#    0.000    0.000    0.000    0.000    0.000    0.000 
#
# Total GULP energy -545297.712172 kJ/mol
# GULP energy per Si atom -12393.129822 kJ/mol
# Density = 2.095421 g / cm^3
# Si number density = 21.002012 Si / 1000 Ang^3
#
#
#
# Elastic Constant Matrix: (Units=GPa)
#
#
# Indices 1 2 3 4 5 6 
#
# 1 81.3256 40.2231 44.1989 0.0000 0.0000 0.0000
# 2 40.2231 106.2118 28.7223 0.0000 0.0000 0.0000
# 3 44.1989 28.7223 101.4976 0.0000 0.0000 0.0000
# 4 0.0000 0.0000 0.0000 24.9677 0.0000 0.0000
# 5 0.0000 0.0000 0.0000 0.0000 33.5156 0.0000
# 6 0.0000 0.0000 0.0000 0.0000 0.0000 30.1187
#
#
#
# Elastic Compliance Matrix: (Units=1/GPa)
#
#
# Indices 1 2 3 4 5 6 
#
# 1 0.018434 -0.005209 -0.006553 0.000000 0.000000 0.000000
# 2 -0.005209 0.011667 -0.001033 0.000000 0.000000 0.000000
# 3 -0.006553 -0.001033 0.012999 0.000000 0.000000 0.000000
# 4 0.000000 0.000000 0.000000 0.040052 0.000000 0.000000
# 5 0.000000 0.000000 0.000000 0.000000 0.029837 0.000000
# 6 0.000000 0.000000 0.000000 0.000000 0.000000 0.033202
#
#
# Mechanical properties :
#
#
# Convention : Reuss Voigt Hill
#
# Bulk Modulus (GPa) = 57.11443 57.25816 57.18630
# Shear Modulus (GPa) = 28.15023 29.44645 28.79834
#
# Velocity S-wave (km/s) = 3.66506 3.74849 3.70701
# Velocity P-wave (km/s) = 6.72042 6.78655 6.75357
#
# Compressibility (1/GPa) = 0.01750871
#
# Stress axis : x y z
#
# Youngs Moduli (GPa) = 54.24693 85.71006 76.93094
#
# Poissons Ratio (x) = 0.44646 0.50416
# Poissons Ratio (y) = 0.28257 0.07949
# Poissons Ratio (z) = 0.35550 0.08857
#
# Static dielectric constant tensor:
#      x y z
#    x 3.725880 0.000000 0.000000 
#    y 0.000000 3.774170 0.000000 
#    z 0.000000 0.000000 3.783120 
# 
# 
# High freq. dielectric constant tensor:
#      x y z
#    x 1.810440 0.000000 0.000000 
#    y 0.000000 1.816460 0.000000 
#    z 0.000000 0.000000 1.821950 
# 
# From -- ./inp_files/11891.got.cif
#   From: 2010.03.12/outbox.cif.g09.slc.cpg/sg65_6_cif.got.tgz:11891.got - 2010.04.10 20:52:16.
