data_PCOD8271114
_publ_section_title
;
Structure prediction by ZEFSAII (Michael W. Deem and Ramdas Pophale) SiO2 
 PCOD8271114
Probable space group: C M M M
;
_chemical_formula_sum "Si O2"
_cell_formula_units_Z 96
_cell_length_a 11.106527
_cell_length_b 26.572138
_cell_length_c 18.514063
_cell_angle_alpha 90.000000
_cell_angle_beta 90.000000
_cell_angle_gamma 90.000000
_cell_volume 5463.947442
_symmetry_space_group_name_H-M "C M M M"
_symmetry_group_IT_number 65
_symmetry_cell_setting 'orthorhombic'
loop_
_space_group_symop_operation_xyz
x,y,z
-x,-y,z
x,-y,-z
-x,y,-z
-x,-y,-z
x,y,-z
-x,y,z
x,-y,z
1/2+x,1/2+y,z
1/2-x,1/2-y,z
1/2+x,1/2-y,-z
1/2-x,1/2+y,-z
1/2-x,1/2-y,-z
1/2+x,1/2+y,-z
1/2-x,1/2+y,z
1/2+x,1/2-y,z
loop_
_atom_site_type_symbol
_atom_site_label
_atom_site_fract_x
_atom_site_fract_y
_atom_site_fract_z
Si Si1 0.500000 0.864758 0.917607
Si Si2 0.255123 0.192296 0.081954
Si Si3 0.137459 0.146321 0.787965
Si Si4 0.000000 0.443279 0.787216
Si Si5 0.252620 0.057778 0.714317
Si Si6 0.358456 0.288378 0.655969
Si Si7 0.137277 0.891522 0.418160
O O1 0.387876 0.828422 0.904849
O O2 0.500000 0.908816 0.858749
O O3 0.500000 0.886717 0.000000
O O4 0.250000 0.250000 0.105751
O O5 0.162774 0.160915 0.129932
O O6 0.211896 0.185665 0.000000
O O7 0.184097 0.090309 0.774091
O O8 0.186911 0.188263 0.732378
O O9 0.000000 0.143367 0.770673
O O10 0.108659 0.433486 0.732774
O O11 0.000000 0.500000 0.817925
O O12 0.225184 0.076798 0.633521
O O13 0.213165 0.000000 0.722443
O O14 0.500000 0.267218 0.658978
O O15 0.250000 0.250000 0.635194
O O16 0.353860 0.332011 0.596163
O O17 0.177669 0.902256 0.500000
O O18 0.000000 0.909487 0.404787
#
# Coordination Sequence:
#
# PCOD8271114 Si02
#       7
#     8  16  16   8  16  16  16
#     4  10  20  37  58  81 109 146 189 227 265 317
#     4  10  21  35  52  77 108 142 179 219 264 316
#     4  10  20  34  52  76 106 138 174 219 271 319
#     4  10  20  37  59  82 108 145 183 227 279 316
#     4  10  20  36  57  80 105 135 175 221 270 322
#     4   9  18  34  52  77 108 142 182 223 267 318
#     4   9  19  36  56  78 108 141 174 219 269 320
#
# _framework density 17.569714999999999
#
# number of rings (size 3 to 8) (size 9 to 14) (size 15 to 20)
#    0.000    2.333    1.667    2.000    1.167    2.500 
#    7.500    1.250    0.000    2.000    0.000    1.167 
#    0.000    0.000    0.000    0.000    0.000    0.000 
#
# Total GULP energy -594870.585078 kJ/mol
# GULP energy per Si atom -12393.137189 kJ/mol
# Density = 1.752973 g / cm^3
# Si number density = 17.569715 Si / 1000 Ang^3
#
#
#
# Elastic Constant Matrix: (Units=GPa)
#
#
# Indices 1 2 3 4 5 6 
#
# 1 59.8692 45.9604 44.6464 0.0000 0.0000 0.0000
# 2 45.9604 108.6112 65.6507 0.0000 0.0000 0.0000
# 3 44.6464 65.6507 119.5355 0.0000 0.0000 0.0000
# 4 0.0000 0.0000 0.0000 20.3563 0.0000 0.0000
# 5 0.0000 0.0000 0.0000 0.0000 28.1822 0.0000
# 6 0.0000 0.0000 0.0000 0.0000 0.0000 29.6113
#
#
#
# Elastic Compliance Matrix: (Units=1/GPa)
#
#
# Indices 1 2 3 4 5 6 
#
# 1 0.027131 -0.008017 -0.005730 0.000000 0.000000 0.000000
# 2 -0.008017 0.016152 -0.005876 0.000000 0.000000 0.000000
# 3 -0.005730 -0.005876 0.013733 0.000000 0.000000 0.000000
# 4 0.000000 0.000000 0.000000 0.049125 0.000000 0.000000
# 5 0.000000 0.000000 0.000000 0.000000 0.035483 0.000000
# 6 0.000000 0.000000 0.000000 0.000000 0.000000 0.033771
#
#
# Mechanical properties :
#
#
# Convention : Reuss Voigt Hill
#
# Bulk Modulus (GPa) = 56.27949 66.72567 61.50258
# Shear Modulus (GPa) = 22.66902 24.41387 23.54145
#
# Velocity S-wave (km/s) = 3.59588 3.73170 3.66442
# Velocity P-wave (km/s) = 7.02439 7.52513 7.27907
#
# Compressibility (1/GPa) = 0.01776846
#
# Stress axis : x y z
#
# Youngs Moduli (GPa) = 36.85834 61.91278 72.81554
#
# Poissons Ratio (x) = 0.49637 0.41725
# Poissons Ratio (y) = 0.29550 0.42789
# Poissons Ratio (z) = 0.21121 0.36382
#
# Static dielectric constant tensor:
#      x y z
#    x 4.005830 0.000000 0.000000 
#    y 0.000000 3.310120 0.000000 
#    z 0.000000 0.000000 3.302640 
# 
# 
# High freq. dielectric constant tensor:
#      x y z
#    x 1.680420 0.000000 0.000000 
#    y 0.000000 1.672770 0.000000 
#    z 0.000000 0.000000 1.680640 
# 
# From -- ./inp_files/51707.got.cif
#   From: 2010.03.12/outbox.cif.g09.slc.cpg/sg65_26_cif.got.tgz:51707.got - 2010.04.10 20:52:16.
