data_PCOD8271968
_publ_section_title
;
Structure prediction by ZEFSAII (Michael W. Deem and Ramdas Pophale) SiO2 
 PCOD8271968
Probable space group: C M M M
;
_chemical_formula_sum "Si O2"
_cell_formula_units_Z 72
_cell_length_a 9.000598
_cell_length_b 17.886471
_cell_length_c 23.463232
_cell_angle_alpha 90.000000
_cell_angle_beta 90.000000
_cell_angle_gamma 90.000000
_cell_volume 3777.320734
_symmetry_space_group_name_H-M "C M M M"
_symmetry_group_IT_number 65
_symmetry_cell_setting 'orthorhombic'
loop_
_space_group_symop_operation_xyz
x,y,z
-x,-y,z
x,-y,-z
-x,y,-z
-x,-y,-z
x,y,-z
-x,y,z
x,-y,z
1/2+x,1/2+y,z
1/2-x,1/2-y,z
1/2+x,1/2-y,-z
1/2-x,1/2+y,-z
1/2-x,1/2-y,-z
1/2+x,1/2+y,-z
1/2-x,1/2+y,z
1/2+x,1/2-y,z
loop_
_atom_site_type_symbol
_atom_site_label
_atom_site_fract_x
_atom_site_fract_y
_atom_site_fract_z
Si Si1 0.168080 0.588809 0.062069
Si Si2 0.823300 0.829885 0.285321
Si Si3 0.331114 0.911234 0.612949
Si Si4 0.825024 0.915363 0.826748
Si Si5 0.168475 0.910960 0.500000
O O1 0.177555 0.500000 0.062353
O O2 0.264489 0.620677 0.114390
O O3 0.000000 0.615923 0.071105
O O4 0.226371 0.617727 0.000000
O O5 0.750000 0.750000 0.293019
O O6 0.766177 0.883854 0.334512
O O7 0.769944 0.864726 0.225422
O O8 0.000000 0.823478 0.288969
O O9 0.500000 0.880829 0.616485
O O10 0.255436 0.880571 0.555265
O O11 0.330035 0.000000 0.613585
O O12 0.000000 0.915947 0.830689
O O13 0.764918 0.000000 0.817750
O O14 0.000000 0.879831 0.500000
O O15 0.166752 0.000000 0.500000
#
# Coordination Sequence:
#
# PCOD8271968 Si02
#       5
#    16  16  16  16   8
#     4   8  14  25  43  70 102 131 160 200 251 304
#     4  11  23  38  54  74 104 140 178 219 264 312
#     4  10  20  35  57  84 111 139 174 214 256 306
#     4   9  18  32  51  75 101 131 168 210 256 307
#     4   9  17  31  54  83 112 141 172 209 255 303
#
# _framework density 19.061128
#
# number of rings (size 3 to 8) (size 9 to 14) (size 15 to 20)
#    0.000    2.556    0.000    3.000    0.000    5.778 
#    0.000    5.000    0.000    0.667    0.000    0.000 
#    0.000    0.000    0.000    0.000    0.000    0.000 
#
# Total GULP energy -446309.616061 kJ/mol
# GULP energy per Si atom -12397.489335 kJ/mol
# Density = 1.901774 g / cm^3
# Si number density = 19.061128 Si / 1000 Ang^3
#
#
#
# Elastic Constant Matrix: (Units=GPa)
#
#
# Indices 1 2 3 4 5 6 
#
# 1 78.6284 18.8023 55.4449 0.0000 0.0000 0.0000
# 2 18.8023 20.4589 17.5871 0.0000 0.0000 0.0000
# 3 55.4449 17.5871 169.5188 0.0000 0.0000 0.0000
# 4 0.0000 0.0000 0.0000 0.0373 0.0000 0.0000
# 5 0.0000 0.0000 0.0000 0.0000 40.8171 0.0000
# 6 0.0000 0.0000 0.0000 0.0000 0.0000 20.4587
#
#
#
# Elastic Compliance Matrix: (Units=1/GPa)
#
#
# Indices 1 2 3 4 5 6 
#
# 1 0.019472 -0.013637 -0.004954 0.000000 0.000000 0.000000
# 2 -0.013637 0.063215 -0.002098 0.000000 0.000000 0.000000
# 3 -0.004954 -0.002098 0.007737 0.000000 0.000000 0.000000
# 4 0.000000 0.000000 0.000000 26.814595 0.000000 0.000000
# 5 0.000000 0.000000 0.000000 0.000000 0.024500 0.000000
# 6 0.000000 0.000000 0.000000 0.000000 0.000000 0.048879
#
#
# Mechanical properties :
#
#
# Convention : Reuss Voigt Hill
#
# Bulk Modulus (GPa) = 20.38905 50.25274 35.32090
# Shear Modulus (GPa) = 0.18494 24.04742 12.11618
#
# Velocity S-wave (km/s) = 0.31182 3.55575 2.52394
# Velocity P-wave (km/s) = 3.29386 6.57868 5.20233
#
# Compressibility (1/GPa) = 0.04904593
#
# Stress axis : x y z
#
# Youngs Moduli (GPa) = 51.35473 15.81912 129.24789
#
# Poissons Ratio (x) = 0.21572 0.64031
# Poissons Ratio (y) = 0.70032 0.27117
# Poissons Ratio (z) = 0.25442 0.03319
#
# Static dielectric constant tensor:
#      x y z
#    x 3.598090 0.000000 0.000000 
#    y 0.000000 3.075280 0.000000 
#    z 0.000000 0.000000 3.973690 
# 
# 
# High freq. dielectric constant tensor:
#      x y z
#    x 1.744070 0.000000 0.000000 
#    y 0.000000 1.692930 0.000000 
#    z 0.000000 0.000000 1.763430 
# 
# From -- ./inp_files/59311.got.cif
#   From: 2010.03.12/outbox.cif.g09.slc.cpg/sg65_30_cif.got.tgz:59311.got - 2010.04.10 20:52:16.
