data_PCOD8271068
_publ_section_title
;
Structure prediction by ZEFSAII (Michael W. Deem and Ramdas Pophale) SiO2 
 PCOD8271068
Probable space group: C M M M
;
_chemical_formula_sum "Si O2"
_cell_formula_units_Z 96
_cell_length_a 27.227934
_cell_length_b 9.819335
_cell_length_c 18.760718
_cell_angle_alpha 90.000000
_cell_angle_beta 90.000000
_cell_angle_gamma 90.000000
_cell_volume 5015.869416
_symmetry_space_group_name_H-M "C M M M"
_symmetry_group_IT_number 65
_symmetry_cell_setting 'orthorhombic'
loop_
_space_group_symop_operation_xyz
x,y,z
-x,-y,z
x,-y,-z
-x,y,-z
-x,-y,-z
x,y,-z
-x,y,z
x,-y,z
1/2+x,1/2+y,z
1/2-x,1/2-y,z
1/2+x,1/2-y,-z
1/2-x,1/2+y,-z
1/2-x,1/2-y,-z
1/2+x,1/2+y,-z
1/2-x,1/2+y,z
1/2+x,1/2-y,z
loop_
_atom_site_type_symbol
_atom_site_label
_atom_site_fract_x
_atom_site_fract_y
_atom_site_fract_z
Si Si1 0.139723 0.844282 0.580978
Si Si2 0.622715 0.348297 0.826402
Si Si3 0.442144 0.156600 0.918885
Si Si4 0.797480 0.841567 0.711946
Si Si5 0.554172 0.847588 0.584611
Si Si6 0.213450 0.851631 0.079117
O O1 0.153107 0.800980 0.500000
O O2 0.187970 0.821826 0.629088
O O3 0.094948 0.756214 0.613463
O O4 0.122085 0.000000 0.584164
O O5 0.600465 0.500000 0.811142
O O6 0.581222 0.244763 0.854159
O O7 0.654670 0.296953 0.758263
O O8 0.659630 0.357678 0.891271
O O9 0.500000 0.172668 0.909932
O O10 0.426112 0.000000 0.907745
O O11 0.427349 0.202705 0.000000
O O12 0.750000 0.750000 0.728872
O O13 0.784859 0.000000 0.729441
O O14 0.552981 0.840950 0.500000
O O15 0.500000 0.807352 0.614076
O O16 0.567805 0.000000 0.610064
O O17 0.250000 0.750000 0.121905
O O18 0.238322 0.000000 0.081245
O O19 0.206820 0.794279 0.000000
#
# Coordination Sequence:
#
# PCOD8271068 Si02
#       6
#    16  16  16  16  16  16
#     4   9  18  33  52  74 101 134 175 222 271 325
#     4  10  20  34  52  74 102 135 171 211 255 305
#     4   9  19  36  57  82 111 141 175 214 252 295
#     4  10  22  38  54  75 103 135 174 221 271 322
#     4   8  14  26  46  73 102 128 157 198 248 303
#     4   9  17  28  43  66  94 122 155 194 234 280
#
# _framework density 19.139254000000001
#
# number of rings (size 3 to 8) (size 9 to 14) (size 15 to 20)
#    0.000    2.833    0.000    2.000    0.000    4.000 
#    0.000    5.000    0.000    5.000    0.000    0.000 
#    0.000    0.000    0.000    0.000    0.000    0.000 
#
# Total GULP energy -594650.351435 kJ/mol
# GULP energy per Si atom -12388.548988 kJ/mol
# Density = 1.909569 g / cm^3
# Si number density = 19.139254 Si / 1000 Ang^3
#
#
#
# Elastic Constant Matrix: (Units=GPa)
#
#
# Indices 1 2 3 4 5 6 
#
# 1 72.5283 49.8108 35.6125 0.0000 0.0000 0.0000
# 2 49.8108 83.5664 33.0921 0.0000 0.0000 0.0000
# 3 35.6125 33.0921 80.1208 0.0000 0.0000 0.0000
# 4 0.0000 0.0000 0.0000 18.3339 0.0000 0.0000
# 5 0.0000 0.0000 0.0000 0.0000 11.6679 0.0000
# 6 0.0000 0.0000 0.0000 0.0000 0.0000 38.5726
#
#
#
# Elastic Compliance Matrix: (Units=1/GPa)
#
#
# Indices 1 2 3 4 5 6 
#
# 1 0.025594 -0.012853 -0.006068 0.000000 0.000000 0.000000
# 2 -0.012853 0.020761 -0.002862 0.000000 0.000000 0.000000
# 3 -0.006068 -0.002862 0.016360 0.000000 0.000000 0.000000
# 4 0.000000 0.000000 0.000000 0.054544 0.000000 0.000000
# 5 0.000000 0.000000 0.000000 0.000000 0.085706 0.000000
# 6 0.000000 0.000000 0.000000 0.000000 0.000000 0.025925
#
#
# Mechanical properties :
#
#
# Convention : Reuss Voigt Hill
#
# Bulk Modulus (GPa) = 52.21829 52.58292 52.40061
# Shear Modulus (GPa) = 17.93154 21.56153 19.74654
#
# Velocity S-wave (km/s) = 3.06420 3.36007 3.21554
# Velocity P-wave (km/s) = 6.31361 6.52587 6.42062
#
# Compressibility (1/GPa) = 0.01915038
#
# Stress axis : x y z
#
# Youngs Moduli (GPa) = 39.07148 48.16723 61.12410
#
# Poissons Ratio (x) = 0.61909 0.37087
# Poissons Ratio (y) = 0.50218 0.17493
# Poissons Ratio (z) = 0.23707 0.13785
#
# Static dielectric constant tensor:
#      x y z
#    x 3.399520 0.000000 0.000000 
#    y 0.000000 3.786850 0.000000 
#    z 0.000000 0.000000 3.448540 
# 
# 
# High freq. dielectric constant tensor:
#      x y z
#    x 1.726900 0.000000 0.000000 
#    y 0.000000 1.742620 0.000000 
#    z 0.000000 0.000000 1.733740 
# 
# From -- ./inp_files/65745.got.cif
#   From: 2010.03.12/outbox.cif.g09.slc.cpg/sg65_33_cif.got.tgz:65745.got - 2010.04.10 20:52:16.
