data_PCOD8271684
_publ_section_title
;
Structure prediction by ZEFSAII (Michael W. Deem and Ramdas Pophale) SiO2 
 PCOD8271684
Probable space group: C M M M
;
_chemical_formula_sum "Si O2"
_cell_formula_units_Z 104
_cell_length_a 26.105337
_cell_length_b 24.010380
_cell_length_c 8.730869
_cell_angle_alpha 90.000000
_cell_angle_beta 90.000000
_cell_angle_gamma 90.000000
_cell_volume 5472.500494
_symmetry_space_group_name_H-M "C M M M"
_symmetry_group_IT_number 65
_symmetry_cell_setting 'orthorhombic'
loop_
_space_group_symop_operation_xyz
x,y,z
-x,-y,z
x,-y,-z
-x,y,-z
-x,-y,-z
x,y,-z
-x,y,z
x,-y,z
1/2+x,1/2+y,z
1/2-x,1/2-y,z
1/2+x,1/2-y,-z
1/2-x,1/2+y,-z
1/2-x,1/2-y,-z
1/2+x,1/2+y,-z
1/2-x,1/2+y,z
1/2+x,1/2-y,z
loop_
_atom_site_type_symbol
_atom_site_label
_atom_site_fract_x
_atom_site_fract_y
_atom_site_fract_z
Si Si1 0.205359 0.287570 0.676967
Si Si2 0.793436 0.500000 0.181802
Si Si3 0.555944 0.825558 0.177017
Si Si4 0.843602 0.386750 0.819013
Si Si5 0.880679 0.222894 0.824464
Si Si6 0.391273 0.604438 0.681165
Si Si7 0.500000 0.560470 0.680684
Si Si8 0.820401 0.000000 0.319621
O O1 0.215444 0.300584 0.500000
O O2 0.250000 0.250000 0.748723
O O3 0.201913 0.346077 0.764822
O O4 0.154782 0.252304 0.700941
O O5 0.827093 0.552397 0.240251
O O6 0.735792 0.500000 0.245980
O O7 0.788161 0.500000 0.000000
O O8 0.500000 0.837536 0.253903
O O9 0.601294 0.865043 0.248436
O O10 0.567041 0.758934 0.193598
O O11 0.552531 0.841474 0.000000
O O12 0.846149 0.384911 0.000000
O O13 0.881035 0.158810 0.780033
O O14 0.861039 0.228381 0.000000
O O15 0.386956 0.616156 0.500000
O O16 0.448866 0.591131 0.733065
O O17 0.352461 0.554966 0.729923
O O18 0.500000 0.500000 0.758438
O O19 0.500000 0.553667 0.500000
O O20 0.813259 0.000000 0.500000
#
# Coordination Sequence:
#
# PCOD8271684 Si02
#       8
#    16   8  16  16  16  16   8   8
#     4  10  21  36  55  78 105 138 179 226 269 317
#     4  10  22  38  56  81 113 146 182 225 270 326
#     4   8  15  31  54  78 106 139 173 212 261 319
#     4   9  19  36  56  80 110 144 180 220 271 327
#     4  10  21  34  52  78 109 142 174 216 271 328
#     4  10  20  35  54  77 104 137 185 232 272 323
#     4   9  16  32  55  73  97 139 181 226 277 320
#     4  10  22  37  54  75 103 143 188 233 274 320
#
# _framework density 19.004107999999999
#
# number of rings (size 3 to 8) (size 9 to 14) (size 15 to 20)
#    0.000    2.538    0.769    1.846    3.231    2.462 
#    0.000    0.385    0.000    6.923    0.000    0.000 
#    0.000    5.538    0.000    0.000    0.000    0.000 
#
# Total GULP energy -644201.709348 kJ/mol
# GULP energy per Si atom -12388.494411 kJ/mol
# Density = 1.896085 g / cm^3
# Si number density = 19.004108 Si / 1000 Ang^3
#
#
#
# Elastic Constant Matrix: (Units=GPa)
#
#
# Indices 1 2 3 4 5 6 
#
# 1 120.7695 74.5198 23.1289 0.0000 0.0000 0.0000
# 2 74.5198 165.1018 21.5667 0.0000 0.0000 0.0000
# 3 23.1289 21.5667 13.8574 0.0000 0.0000 0.0000
# 4 0.0000 0.0000 0.0000 19.7707 0.0000 0.0000
# 5 0.0000 0.0000 0.0000 0.0000 18.4831 0.0000
# 6 0.0000 0.0000 0.0000 0.0000 0.0000 22.2641
#
#
#
# Elastic Compliance Matrix: (Units=1/GPa)
#
#
# Indices 1 2 3 4 5 6 
#
# 1 0.014108 -0.004132 -0.017116 0.000000 0.000000 0.000000
# 2 -0.004132 0.008813 -0.006819 0.000000 0.000000 0.000000
# 3 -0.017116 -0.006819 0.111344 0.000000 0.000000 0.000000
# 4 0.000000 0.000000 0.000000 0.050580 0.000000 0.000000
# 5 0.000000 0.000000 0.000000 0.000000 0.054104 0.000000
# 6 0.000000 0.000000 0.000000 0.000000 0.000000 0.044915
#
#
# Mechanical properties :
#
#
# Convention : Reuss Voigt Hill
#
# Bulk Modulus (GPa) = 12.79912 59.79552 36.29732
# Shear Modulus (GPa) = 13.65968 24.13780 18.89874
#
# Velocity S-wave (km/s) = 2.68391 3.56776 3.15692
# Velocity P-wave (km/s) = 4.04401 6.96453 5.69468
#
# Compressibility (1/GPa) = 0.07813037
#
# Stress axis : x y z
#
# Youngs Moduli (GPa) = 70.88332 113.47506 8.98116
#
# Poissons Ratio (x) = 0.46885 0.15372
# Poissons Ratio (y) = 0.29287 0.06124
# Poissons Ratio (z) = 1.21326 0.77379
#
# Static dielectric constant tensor:
#      x y z
#    x 3.848010 0.000000 0.000000 
#    y 0.000000 3.817650 0.000000 
#    z 0.000000 0.000000 3.132740 
# 
# 
# High freq. dielectric constant tensor:
#      x y z
#    x 1.741570 0.000000 0.000000 
#    y 0.000000 1.743400 0.000000 
#    z 0.000000 0.000000 1.706870 
# 
# From -- ./inp_files/16854.got.cif
#   From: 2010.03.12/outbox.cif.g09.slc.cpg/sg65_9_cif.got.tgz:16854.got - 2010.04.10 20:52:16.
