data_PCOD8271326
_publ_section_title
;
Structure prediction by ZEFSAII (Michael W. Deem and Ramdas Pophale) SiO2 
 PCOD8271326
Probable space group: C M M M
;
_chemical_formula_sum "Si O2"
_cell_formula_units_Z 96
_cell_length_a 28.807262
_cell_length_b 8.937489
_cell_length_c 20.184688
_cell_angle_alpha 90.000000
_cell_angle_beta 90.000000
_cell_angle_gamma 90.000000
_cell_volume 5196.842365
_symmetry_space_group_name_H-M "C M M M"
_symmetry_group_IT_number 65
_symmetry_cell_setting 'orthorhombic'
loop_
_space_group_symop_operation_xyz
x,y,z
-x,-y,z
x,-y,-z
-x,y,-z
-x,-y,-z
x,y,-z
-x,y,z
x,-y,z
1/2+x,1/2+y,z
1/2-x,1/2-y,z
1/2+x,1/2-y,-z
1/2-x,1/2+y,-z
1/2-x,1/2-y,-z
1/2+x,1/2+y,-z
1/2-x,1/2+y,z
1/2+x,1/2-y,z
loop_
_atom_site_type_symbol
_atom_site_label
_atom_site_fract_x
_atom_site_fract_y
_atom_site_fract_z
Si Si1 0.549991 0.323008 0.621872
Si Si2 0.700875 0.176427 0.692608
Si Si3 0.447680 0.672574 0.226721
Si Si4 0.797456 0.174791 0.923587
Si Si5 0.852354 0.825005 0.574923
Si Si6 0.639952 0.174950 0.181010
O O1 0.500000 0.259815 0.594955
O O2 0.547755 0.500000 0.616969
O O3 0.555923 0.273509 0.697638
O O4 0.594496 0.264121 0.581211
O O5 0.750000 0.250000 0.708757
O O6 0.681589 0.235850 0.622971
O O7 0.666003 0.221953 0.751409
O O8 0.707402 0.000000 0.687147
O O9 0.500000 0.695091 0.200090
O O10 0.432445 0.500000 0.220065
O O11 0.413593 0.776143 0.184372
O O12 0.750000 0.250000 0.899076
O O13 0.839380 0.239705 0.881532
O O14 0.792725 0.000000 0.910864
O O15 0.807409 0.212916 0.000000
O O16 0.835575 0.796657 0.500000
O O17 0.850178 0.000000 0.593548
O O18 0.643748 0.000000 0.167951
#
# Coordination Sequence:
#
# PCOD8271326 Si02
#       6
#    16  16  16  16  16  16
#     4   8  14  27  49  77 106 135 170 214 264 316
#     4  11  24  39  55  76 102 136 178 224 271 320
#     4   9  17  31  54  81 109 144 182 222 270 320
#     4  10  21  37  58  85 117 151 184 220 266 320
#     4  10  20  34  54  78 104 137 176 221 273 324
#     4  11  22  35  56  85 113 145 182 222 271 319
#
# _framework density 18.472756
#
# number of rings (size 3 to 8) (size 9 to 14) (size 15 to 20)
#    0.000    2.167    1.667    3.000    0.000    5.667 
#    0.000    1.667    0.000    1.000    0.000    4.667 
#    0.000    0.000    0.000    0.000    0.000    0.000 
#
# Total GULP energy -595185.132293 kJ/mol
# GULP energy per Si atom -12399.690256 kJ/mol
# Density = 1.843071 g / cm^3
# Si number density = 18.472756 Si / 1000 Ang^3
#
#
#
# Elastic Constant Matrix: (Units=GPa)
#
#
# Indices 1 2 3 4 5 6 
#
# 1 105.1227 39.6775 39.2649 0.0000 0.0000 0.0000
# 2 39.6775 64.5373 38.5368 0.0000 0.0000 0.0000
# 3 39.2649 38.5368 72.4907 0.0000 0.0000 0.0000
# 4 0.0000 0.0000 0.0000 24.8348 0.0000 0.0000
# 5 0.0000 0.0000 0.0000 0.0000 33.2457 0.0000
# 6 0.0000 0.0000 0.0000 0.0000 0.0000 28.7635
#
#
#
# Elastic Compliance Matrix: (Units=1/GPa)
#
#
# Indices 1 2 3 4 5 6 
#
# 1 0.013188 -0.005629 -0.004151 0.000000 0.000000 0.000000
# 2 -0.005629 0.025104 -0.010296 0.000000 0.000000 0.000000
# 3 -0.004151 -0.010296 0.021517 0.000000 0.000000 0.000000
# 4 0.000000 0.000000 0.000000 0.040266 0.000000 0.000000
# 5 0.000000 0.000000 0.000000 0.000000 0.030079 0.000000
# 6 0.000000 0.000000 0.000000 0.000000 0.000000 0.034766
#
#
# Mechanical properties :
#
#
# Convention : Reuss Voigt Hill
#
# Bulk Modulus (GPa) = 50.87549 53.01212 51.94380
# Shear Modulus (GPa) = 23.62675 25.68025 24.65350
#
# Velocity S-wave (km/s) = 3.58020 3.73254 3.65716
# Velocity P-wave (km/s) = 6.68514 6.88009 6.78331
#
# Compressibility (1/GPa) = 0.01965583
#
# Stress axis : x y z
#
# Youngs Moduli (GPa) = 75.82793 39.83414 46.47550
#
# Poissons Ratio (x) = 0.22424 0.19290
# Poissons Ratio (y) = 0.42687 0.47853
# Poissons Ratio (z) = 0.31473 0.41015
#
# Static dielectric constant tensor:
#      x y z
#    x 3.297020 0.000000 0.000000 
#    y 0.000000 3.208250 0.000000 
#    z 0.000000 0.000000 3.249030 
# 
# 
# High freq. dielectric constant tensor:
#      x y z
#    x 1.725960 0.000000 0.000000 
#    y 0.000000 1.700170 0.000000 
#    z 0.000000 0.000000 1.699250 
# 
# From -- ./inp_files/60196.got.cif
#   From: 2010.03.12/outbox.cif.g09.slc.cpg/sg65_31_cif.got.tgz:60196.got - 2010.04.10 20:52:16.
