data_PCOD8271392
_publ_section_title
;
Structure prediction by ZEFSAII (Michael W. Deem and Ramdas Pophale) SiO2 
 PCOD8271392
Probable space group: C M M M
;
_chemical_formula_sum "Si O2"
_cell_formula_units_Z 104
_cell_length_a 28.537302
_cell_length_b 8.900871
_cell_length_c 23.083792
_cell_angle_alpha 90.000000
_cell_angle_beta 90.000000
_cell_angle_gamma 90.000000
_cell_volume 5863.441149
_symmetry_space_group_name_H-M "C M M M"
_symmetry_group_IT_number 65
_symmetry_cell_setting 'orthorhombic'
loop_
_space_group_symop_operation_xyz
x,y,z
-x,-y,z
x,-y,-z
-x,y,-z
-x,-y,-z
x,y,-z
-x,y,z
x,-y,z
1/2+x,1/2+y,z
1/2-x,1/2-y,z
1/2+x,1/2-y,-z
1/2-x,1/2+y,-z
1/2-x,1/2-y,-z
1/2+x,1/2+y,-z
1/2-x,1/2+y,z
1/2+x,1/2-y,z
loop_
_atom_site_type_symbol
_atom_site_label
_atom_site_fract_x
_atom_site_fract_y
_atom_site_fract_z
Si Si1 0.055697 0.169928 0.500000
Si Si2 0.053411 0.323434 0.615319
Si Si3 0.701667 0.325766 0.896088
Si Si4 0.108633 0.321971 0.728722
Si Si5 0.298209 0.326068 0.760355
Si Si6 0.890835 0.672266 0.065944
Si Si7 0.944988 0.174348 0.834405
O O1 0.075356 0.248761 0.557823
O O2 0.000000 0.184387 0.500000
O O3 0.073312 0.000000 0.500000
O O4 0.056254 0.500000 0.606568
O O5 0.082775 0.269460 0.670498
O O6 0.000000 0.270658 0.625398
O O7 0.703381 0.500000 0.912935
O O8 0.750000 0.250000 0.915715
O O9 0.692629 0.302127 0.828202
O O10 0.660253 0.245576 0.930223
O O11 0.111366 0.500000 0.734151
O O12 0.160451 0.254360 0.725589
O O13 0.080412 0.260175 0.783070
O O14 0.296393 0.500000 0.743632
O O15 0.250000 0.250000 0.740756
O O16 0.887754 0.500000 0.086870
O O17 0.928360 0.760776 0.104346
O O18 0.908439 0.682878 0.000000
O O19 0.000000 0.199912 0.828350
O O20 0.930985 0.000000 0.831285
#
# Coordination Sequence:
#
# PCOD8271392 Si02
#       7
#     8  16  16  16  16  16  16
#     4   9  17  29  47  73 106 145 186 227 267 303
#     4   9  18  32  50  75 109 149 187 220 259 309
#     4  10  20  35  57  81 107 137 169 209 262 320
#     4  11  21  34  56  83 111 142 178 220 266 315
#     4  10  20  34  54  80 109 140 174 213 263 318
#     4  11  24  40  58  79 103 134 174 218 265 320
#     4  11  24  40  57  78 105 138 175 218 268 317
#
# _framework density 17.737024000000002
#
# number of rings (size 3 to 8) (size 9 to 14) (size 15 to 20)
#    0.000    1.769    1.538    3.000    0.000    7.077 
#    0.000    3.077    0.000    0.000    0.000    0.538 
#    0.000    0.000    0.000    0.000    0.000    0.000 
#
# Total GULP energy -645041.594584 kJ/mol
# GULP energy per Si atom -12404.646050 kJ/mol
# Density = 1.769665 g / cm^3
# Si number density = 17.737024 Si / 1000 Ang^3
#
#
#
# Elastic Constant Matrix: (Units=GPa)
#
#
# Indices 1 2 3 4 5 6 
#
# 1 93.6808 50.2780 52.0401 0.0000 0.0000 0.0000
# 2 50.2780 96.9539 45.5650 0.0000 0.0000 0.0000
# 3 52.0401 45.5650 106.9373 0.0000 0.0000 0.0000
# 4 0.0000 0.0000 0.0000 19.2898 0.0000 0.0000
# 5 0.0000 0.0000 0.0000 0.0000 20.2745 0.0000
# 6 0.0000 0.0000 0.0000 0.0000 0.0000 32.5786
#
#
#
# Elastic Compliance Matrix: (Units=1/GPa)
#
#
# Indices 1 2 3 4 5 6 
#
# 1 0.017191 -0.006231 -0.005711 0.000000 0.000000 0.000000
# 2 -0.006231 0.015155 -0.003425 0.000000 0.000000 0.000000
# 3 -0.005711 -0.003425 0.013590 0.000000 0.000000 0.000000
# 4 0.000000 0.000000 0.000000 0.051841 0.000000 0.000000
# 5 0.000000 0.000000 0.000000 0.000000 0.049323 0.000000
# 6 0.000000 0.000000 0.000000 0.000000 0.000000 0.030695
#
#
# Mechanical properties :
#
#
# Convention : Reuss Voigt Hill
#
# Bulk Modulus (GPa) = 65.78120 65.92645 65.85383
# Shear Modulus (GPa) = 23.40862 24.40786 23.90824
#
# Velocity S-wave (km/s) = 3.63679 3.71360 3.67540
# Velocity P-wave (km/s) = 7.40287 7.45904 7.43101
#
# Compressibility (1/GPa) = 0.01520191
#
# Stress axis : x y z
#
# Youngs Moduli (GPa) = 58.16953 65.98412 73.58397
#
# Poissons Ratio (x) = 0.41114 0.42023
# Poissons Ratio (y) = 0.36245 0.25204
# Poissons Ratio (z) = 0.33220 0.22601
#
# Static dielectric constant tensor:
#      x y z
#    x 3.265810 0.000000 0.000000 
#    y 0.000000 3.437680 0.000000 
#    z 0.000000 0.000000 3.244510 
# 
# 
# High freq. dielectric constant tensor:
#      x y z
#    x 1.677200 0.000000 0.000000 
#    y 0.000000 1.703070 0.000000 
#    z 0.000000 0.000000 1.673170 
# 
# From -- ./inp_files/65862.got.cif
#   From: 2010.03.12/outbox.cif.g09.slc.cpg/sg65_33_cif.got.tgz:65862.got - 2010.04.10 20:52:16.
