data_PCOD8271936
_publ_section_title
;
Structure prediction by ZEFSAII (Michael W. Deem and Ramdas Pophale) SiO2 
 PCOD8271936
Probable space group: C M M M
;
_chemical_formula_sum "Si O2"
_cell_formula_units_Z 80
_cell_length_a 8.774473
_cell_length_b 18.375212
_cell_length_c 25.522950
_cell_angle_alpha 90.000000
_cell_angle_beta 90.000000
_cell_angle_gamma 90.000000
_cell_volume 4115.136733
_symmetry_space_group_name_H-M "C M M M"
_symmetry_group_IT_number 65
_symmetry_cell_setting 'orthorhombic'
loop_
_space_group_symop_operation_xyz
x,y,z
-x,-y,z
x,-y,-z
-x,y,-z
-x,-y,-z
x,y,-z
-x,y,z
x,-y,z
1/2+x,1/2+y,z
1/2-x,1/2-y,z
1/2+x,1/2-y,-z
1/2-x,1/2+y,-z
1/2-x,1/2-y,-z
1/2+x,1/2+y,-z
1/2-x,1/2+y,z
1/2+x,1/2-y,z
loop_
_atom_site_type_symbol
_atom_site_label
_atom_site_fract_x
_atom_site_fract_y
_atom_site_fract_z
Si Si1 0.320076 0.826613 0.089554
Si Si2 0.679498 0.174088 0.207809
Si Si3 0.672107 0.585719 0.000000
Si Si4 0.678064 0.414145 0.500000
Si Si5 0.681306 0.170142 0.403857
Si Si6 0.819082 0.581003 0.303565
O O1 0.500000 0.821649 0.083897
O O2 0.250000 0.750000 0.071936
O O3 0.269659 0.846475 0.148850
O O4 0.257411 0.888764 0.052104
O O5 0.500000 0.183069 0.211141
O O6 0.750000 0.250000 0.225863
O O7 0.737977 0.112276 0.247730
O O8 0.675758 0.500000 0.000000
O O9 0.500000 0.615822 0.000000
O O10 0.706754 0.500000 0.500000
O O11 0.500000 0.394640 0.500000
O O12 0.757162 0.380721 0.449453
O O13 0.500000 0.175209 0.407477
O O14 0.750000 0.250000 0.408874
O O15 0.737807 0.133841 0.349707
O O16 0.749912 0.500000 0.310702
O O17 0.000000 0.576678 0.304641
#
# Coordination Sequence:
#
# PCOD8271936 Si02
#       6
#    16  16   8   8  16  16
#     4  10  20  35  57  82 108 141 181 223 267 320
#     4   9  18  33  55  81 108 139 175 218 265 316
#     4  11  24  39  54  75 107 143 178 223 276 325
#     4  11  24  41  60  83 113 145 180 227 278 327
#     4  11  22  37  59  84 112 147 187 228 270 321
#     4   9  18  33  54  81 111 143 180 222 269 320
#
# _framework density 19.440422000000002
#
# number of rings (size 3 to 8) (size 9 to 14) (size 15 to 20)
#    0.000    2.000    0.000    3.600    0.000    4.000 
#    0.000    3.000    0.000    3.000    0.000    0.000 
#    0.000    0.000    0.000    0.000    0.000    0.000 
#
# Total GULP energy -496075.819276 kJ/mol
# GULP energy per Si atom -12401.895482 kJ/mol
# Density = 1.939618 g / cm^3
# Si number density = 19.440422 Si / 1000 Ang^3
#
#
#
# Elastic Constant Matrix: (Units=GPa)
#
#
# Indices 1 2 3 4 5 6 
#
# 1 67.0235 39.2310 37.1268 0.0000 0.0000 0.0000
# 2 39.2310 122.7231 66.1995 0.0000 0.0000 0.0000
# 3 37.1268 66.1995 134.5221 0.0000 0.0000 0.0000
# 4 0.0000 0.0000 0.0000 37.3782 0.0000 0.0000
# 5 0.0000 0.0000 0.0000 0.0000 55.6376 0.0000
# 6 0.0000 0.0000 0.0000 0.0000 0.0000 25.9216
#
#
#
# Elastic Compliance Matrix: (Units=1/GPa)
#
#
# Indices 1 2 3 4 5 6 
#
# 1 0.019267 -0.004480 -0.003113 0.000000 0.000000 0.000000
# 2 -0.004480 0.012135 -0.004735 0.000000 0.000000 0.000000
# 3 -0.003113 -0.004735 0.010623 0.000000 0.000000 0.000000
# 4 0.000000 0.000000 0.000000 0.026754 0.000000 0.000000
# 5 0.000000 0.000000 0.000000 0.000000 0.017973 0.000000
# 6 0.000000 0.000000 0.000000 0.000000 0.000000 0.038578
#
#
# Mechanical properties :
#
#
# Convention : Reuss Voigt Hill
#
# Bulk Modulus (GPa) = 57.57491 67.70926 62.64208
# Shear Modulus (GPa) = 32.09761 35.90158 33.99960
#
# Velocity S-wave (km/s) = 4.06775 4.30204 4.18654
# Velocity P-wave (km/s) = 7.19323 7.71891 7.46070
#
# Compressibility (1/GPa) = 0.01736868
#
# Stress axis : x y z
#
# Youngs Moduli (GPa) = 51.90310 82.40757 94.13453
#
# Poissons Ratio (x) = 0.36918 0.29302
# Poissons Ratio (y) = 0.23252 0.44575
# Poissons Ratio (z) = 0.16157 0.39022
#
# Static dielectric constant tensor:
#      x y z
#    x 3.482140 0.000000 0.000000 
#    y 0.000000 3.690880 0.000000 
#    z 0.000000 0.000000 3.859560 
# 
# 
# High freq. dielectric constant tensor:
#      x y z
#    x 1.744930 0.000000 0.000000 
#    y 0.000000 1.760980 0.000000 
#    z 0.000000 0.000000 1.774670 
# 
# From -- ./inp_files/72922.got.cif
#   From: 2010.03.12/outbox.cif.g09.slc.cpg/sg65_37_cif.got.tgz:72922.got - 2010.04.10 20:52:16.
