data_PCOD8271377
_publ_section_title
;
Structure prediction by ZEFSAII (Michael W. Deem and Ramdas Pophale) SiO2 
 PCOD8271377
Probable space group: C M M M
;
_chemical_formula_sum "Si O2"
_cell_formula_units_Z 96
_cell_length_a 25.003998
_cell_length_b 23.539905
_cell_length_c 8.774222
_cell_angle_alpha 90.000000
_cell_angle_beta 90.000000
_cell_angle_gamma 90.000000
_cell_volume 5164.434573
_symmetry_space_group_name_H-M "C M M M"
_symmetry_group_IT_number 65
_symmetry_cell_setting 'orthorhombic'
loop_
_space_group_symop_operation_xyz
x,y,z
-x,-y,z
x,-y,-z
-x,y,-z
-x,-y,-z
x,y,-z
-x,y,z
x,-y,z
1/2+x,1/2+y,z
1/2-x,1/2-y,z
1/2+x,1/2-y,-z
1/2-x,1/2+y,-z
1/2-x,1/2-y,-z
1/2+x,1/2+y,-z
1/2-x,1/2+y,z
1/2+x,1/2-y,z
loop_
_atom_site_type_symbol
_atom_site_label
_atom_site_fract_x
_atom_site_fract_y
_atom_site_fract_z
Si Si1 0.810232 0.500000 0.679235
Si Si2 0.341609 0.622134 0.175496
Si Si3 0.254905 0.184420 0.322926
Si Si4 0.304054 0.500000 0.174523
Si Si5 0.062128 0.685425 0.676481
Si Si6 0.560262 0.697065 0.823812
Si Si7 0.848413 0.385076 0.821235
O O1 0.815365 0.500000 0.500000
O O2 0.747969 0.500000 0.721071
O O3 0.839894 0.445145 0.742329
O O4 0.300154 0.653503 0.284219
O O5 0.340344 0.554919 0.209395
O O6 0.401007 0.644372 0.213961
O O7 0.326402 0.634823 0.000000
O O8 0.268116 0.175360 0.500000
O O9 0.250000 0.250000 0.279658
O O10 0.302673 0.159071 0.224589
O O11 0.283995 0.500000 0.000000
O O12 0.076530 0.678487 0.500000
O O13 0.078698 0.748797 0.726181
O O14 0.094237 0.638981 0.772175
O O15 0.000000 0.674722 0.710262
O O16 0.500000 0.678248 0.780617
O O17 0.564054 0.714877 0.000000
O O18 0.846773 0.394503 0.000000
#
# Coordination Sequence:
#
# PCOD8271377 Si02
#       7
#     8  16  16   8  16  16  16
#     4  12  24  40  61  84 113 151 193 235 284 339
#     4  10  20  34  54  79 111 149 192 239 285 339
#     4  11  23  36  53  81 115 147 185 236 289 344
#     4  10  20  36  55  79 111 152 195 236 284 338
#     4  10  21  38  60  86 116 150 188 234 286 338
#     4   9  18  34  56  83 115 153 194 236 287 344
#     4  12  24  39  60  85 115 150 190 234 283 341
#
# _framework density 18.588676
#
# number of rings (size 3 to 8) (size 9 to 14) (size 15 to 20)
#    0.000    1.500    1.667    4.250    0.000    5.667 
#    0.000    0.833    0.000    5.000    0.000    0.000 
#    0.000    4.667    0.000    0.000    0.000    0.000 
#
# Total GULP energy -595438.719754 kJ/mol
# GULP energy per Si atom -12404.973328 kJ/mol
# Density = 1.854637 g / cm^3
# Si number density = 18.588676 Si / 1000 Ang^3
#
#
#
# Elastic Constant Matrix: (Units=GPa)
#
#
# Indices 1 2 3 4 5 6 
#
# 1 103.8673 71.0699 44.1268 0.0000 0.0000 0.0000
# 2 71.0699 155.6829 63.4007 0.0000 0.0000 0.0000
# 3 44.1268 63.4007 106.8655 0.0000 0.0000 0.0000
# 4 0.0000 0.0000 0.0000 13.8952 0.0000 0.0000
# 5 0.0000 0.0000 0.0000 0.0000 27.1581 0.0000
# 6 0.0000 0.0000 0.0000 0.0000 0.0000 24.7777
#
#
#
# Elastic Compliance Matrix: (Units=1/GPa)
#
#
# Indices 1 2 3 4 5 6 
#
# 1 0.014582 -0.005544 -0.002732 0.000000 0.000000 0.000000
# 2 -0.005544 0.010578 -0.003986 0.000000 0.000000 0.000000
# 3 -0.002732 -0.003986 0.012850 0.000000 0.000000 0.000000
# 4 0.000000 0.000000 0.000000 0.071967 0.000000 0.000000
# 5 0.000000 0.000000 0.000000 0.000000 0.036821 0.000000
# 6 0.000000 0.000000 0.000000 0.000000 0.000000 0.040359
#
#
# Mechanical properties :
#
#
# Convention : Reuss Voigt Hill
#
# Bulk Modulus (GPa) = 74.15362 80.40117 77.27739
# Shear Modulus (GPa) = 23.12923 25.68742 24.40833
#
# Velocity S-wave (km/s) = 3.53124 3.72140 3.62757
# Velocity P-wave (km/s) = 7.52361 7.86205 7.69469
#
# Compressibility (1/GPa) = 0.01348552
#
# Stress axis : x y z
#
# Youngs Moduli (GPa) = 68.57879 94.53993 77.81800
#
# Poissons Ratio (x) = 0.52414 0.21259
# Poissons Ratio (y) = 0.38021 0.31019
# Poissons Ratio (z) = 0.18735 0.37685
#
# Static dielectric constant tensor:
#      x y z
#    x 3.461800 0.000000 0.000000 
#    y 0.000000 3.554590 0.000000 
#    z 0.000000 0.000000 3.501350 
# 
# 
# High freq. dielectric constant tensor:
#      x y z
#    x 1.719860 0.000000 0.000000 
#    y 0.000000 1.724320 0.000000 
#    z 0.000000 0.000000 1.728390 
# 
# From -- ./inp_files/14436.got.cif
#   From: 2010.03.12/outbox.cif.g09.slc.cpg/sg65_8_cif.got.tgz:14436.got - 2010.04.10 20:52:16.
