data_PCOD8271999
_publ_section_title
;
Structure prediction by ZEFSAII (Michael W. Deem and Ramdas Pophale) SiO2 
 PCOD8271999
Probable space group: C M M M
;
_chemical_formula_sum "Si O2"
_cell_formula_units_Z 88
_cell_length_a 24.105832
_cell_length_b 20.063957
_cell_length_c 8.899639
_cell_angle_alpha 90.000000
_cell_angle_beta 90.000000
_cell_angle_gamma 90.000000
_cell_volume 4304.384952
_symmetry_space_group_name_H-M "C M M M"
_symmetry_group_IT_number 65
_symmetry_cell_setting 'orthorhombic'
loop_
_space_group_symop_operation_xyz
x,y,z
-x,-y,z
x,-y,-z
-x,y,-z
-x,-y,-z
x,y,-z
-x,y,z
x,-y,z
1/2+x,1/2+y,z
1/2-x,1/2-y,z
1/2+x,1/2-y,-z
1/2-x,1/2+y,-z
1/2-x,1/2-y,-z
1/2+x,1/2+y,-z
1/2-x,1/2+y,z
1/2+x,1/2-y,z
loop_
_atom_site_type_symbol
_atom_site_label
_atom_site_fract_x
_atom_site_fract_y
_atom_site_fract_z
Si Si1 0.757000 0.826282 0.177464
Si Si2 0.561854 0.874083 0.671937
Si Si3 0.436758 0.263825 0.830758
Si Si4 0.631913 0.627771 0.323789
Si Si5 0.563549 0.500000 0.678850
Si Si6 0.837992 0.573453 0.827997
O O1 0.750000 0.750000 0.236478
O O2 0.808547 0.865338 0.247543
O O3 0.703510 0.868786 0.227281
O O4 0.765098 0.826403 0.000000
O O5 0.572120 0.852706 0.500000
O O6 0.500000 0.904410 0.690204
O O7 0.569368 0.811715 0.781060
O O8 0.607110 0.927353 0.724900
O O9 0.500000 0.287731 0.825450
O O10 0.402892 0.306978 0.713326
O O11 0.412669 0.271116 0.000000
O O12 0.641151 0.621609 0.500000
O O13 0.597551 0.564188 0.261832
O O14 0.500000 0.500000 0.742153
O O15 0.560819 0.500000 0.500000
O O16 0.810483 0.500000 0.810503
O O17 0.855081 0.586354 0.000000
#
# Coordination Sequence:
#
# PCOD8271999 Si02
#       6
#    16  16  16  16   8  16
#     4  10  22  40  61  85 116 155 200 250 303 358
#     4  10  21  37  59  88 119 151 190 240 297 352
#     4  10  20  35  57  85 117 153 194 242 296 353
#     4  11  22  36  59  87 117 156 202 249 301 360
#     4   9  20  38  57  83 123 165 200 241 300 367
#     4  10  22  39  59  84 117 158 199 241 295 353
#
# _framework density 20.444268000000001
#
# number of rings (size 3 to 8) (size 9 to 14) (size 15 to 20)
#    0.000    1.909    0.000    3.273    1.273    6.182 
#    0.000    3.182    0.000    3.273    0.000    0.000 
#    0.000    0.000    0.000    0.000    0.000    0.000 
#
# Total GULP energy -545603.139873 kJ/mol
# GULP energy per Si atom -12400.071361 kJ/mol
# Density = 2.039774 g / cm^3
# Si number density = 20.444268 Si / 1000 Ang^3
#
#
#
# Elastic Constant Matrix: (Units=GPa)
#
#
# Indices 1 2 3 4 5 6 
#
# 1 140.5094 68.6997 43.7287 0.0000 0.0000 0.0000
# 2 68.6997 105.7094 26.5073 0.0000 0.0000 0.0000
# 3 43.7287 26.5073 49.0512 0.0000 0.0000 0.0000
# 4 0.0000 0.0000 0.0000 21.5079 0.0000 0.0000
# 5 0.0000 0.0000 0.0000 0.0000 37.4113 0.0000
# 6 0.0000 0.0000 0.0000 0.0000 0.0000 39.0613
#
#
#
# Elastic Compliance Matrix: (Units=1/GPa)
#
#
# Indices 1 2 3 4 5 6 
#
# 1 0.012610 -0.006219 -0.007881 0.000000 0.000000 0.000000
# 2 -0.006219 0.014010 -0.002027 0.000000 0.000000 0.000000
# 3 -0.007881 -0.002027 0.028508 0.000000 0.000000 0.000000
# 4 0.000000 0.000000 0.000000 0.046494 0.000000 0.000000
# 5 0.000000 0.000000 0.000000 0.000000 0.026730 0.000000
# 6 0.000000 0.000000 0.000000 0.000000 0.000000 0.025601
#
#
# Mechanical properties :
#
#
# Convention : Reuss Voigt Hill
#
# Bulk Modulus (GPa) = 43.71710 63.68237 53.69973
# Shear Modulus (GPa) = 25.79546 30.01840 27.90693
#
# Velocity S-wave (km/s) = 3.55596 3.83600 3.69863
# Velocity P-wave (km/s) = 6.18787 7.12999 6.67557
#
# Compressibility (1/GPa) = 0.02287435
#
# Stress axis : x y z
#
# Youngs Moduli (GPa) = 79.29907 71.37822 35.07773
#
# Poissons Ratio (x) = 0.44391 0.27646
# Poissons Ratio (y) = 0.49317 0.07109
# Poissons Ratio (z) = 0.62498 0.14466
#
# Static dielectric constant tensor:
#      x y z
#    x 3.921140 0.000000 0.000000 
#    y 0.000000 3.709520 0.000000 
#    z 0.000000 0.000000 3.540090 
# 
# 
# High freq. dielectric constant tensor:
#      x y z
#    x 1.806620 0.000000 0.000000 
#    y 0.000000 1.799940 0.000000 
#    z 0.000000 0.000000 1.787510 
# 
# From -- ./inp_files/11848.got.cif
#   From: 2010.03.12/outbox.cif.g09.slc.cpg/sg65_6_cif.got.tgz:11848.got - 2010.04.10 20:52:16.
