data_PCOD8271917
_publ_section_title
;
Structure prediction by ZEFSAII (Michael W. Deem and Ramdas Pophale) SiO2 
 PCOD8271917
Probable space group: C M M M
;
_chemical_formula_sum "Si O2"
_cell_formula_units_Z 88
_cell_length_a 17.289885
_cell_length_b 27.973261
_cell_length_c 9.294689
_cell_angle_alpha 90.000000
_cell_angle_beta 90.000000
_cell_angle_gamma 90.000000
_cell_volume 4495.417843
_symmetry_space_group_name_H-M "C M M M"
_symmetry_group_IT_number 65
_symmetry_cell_setting 'orthorhombic'
loop_
_space_group_symop_operation_xyz
x,y,z
-x,-y,z
x,-y,-z
-x,y,-z
-x,-y,-z
x,y,-z
-x,y,z
x,-y,z
1/2+x,1/2+y,z
1/2-x,1/2-y,z
1/2+x,1/2-y,-z
1/2-x,1/2+y,-z
1/2-x,1/2-y,-z
1/2+x,1/2+y,-z
1/2-x,1/2+y,z
1/2+x,1/2-y,z
loop_
_atom_site_type_symbol
_atom_site_label
_atom_site_fract_x
_atom_site_fract_y
_atom_site_fract_z
Si Si1 0.345473 0.650908 0.168777
Si Si2 0.407561 0.000000 0.339422
Si Si3 0.088080 0.764733 0.667330
Si Si4 0.908574 0.588505 0.160578
Si Si5 0.827392 0.317023 0.831908
Si Si6 0.912826 0.052375 0.170426
O O1 0.404113 0.683729 0.258272
O O2 0.259292 0.667781 0.204723
O O3 0.357404 0.595903 0.221034
O O4 0.364210 0.656247 0.000000
O O5 0.374630 0.046815 0.260397
O O6 0.500000 0.000000 0.337742
O O7 0.374771 0.000000 0.500000
O O8 0.109195 0.768825 0.500000
O O9 0.148518 0.728898 0.741329
O O10 0.000000 0.746792 0.688814
O O11 0.882089 0.639676 0.218647
O O12 0.000000 0.586729 0.159715
O O13 0.875251 0.580412 0.000000
O O14 0.837979 0.304752 0.000000
O O15 0.000000 0.061786 0.226950
O O16 0.883686 0.000000 0.227503
O O17 0.913615 0.050940 0.000000
#
# Coordination Sequence:
#
# PCOD8271917 Si02
#       6
#    16   8  16  16  16  16
#     4  10  20  35  56  84 113 142 178 222 274 328
#     4   9  17  29  47  71  97 129 174 225 268 309
#     4  11  24  39  56  79 106 142 187 228 270 325
#     4   9  17  31  50  71  99 136 177 220 269 323
#     4  10  21  36  54  81 111 141 178 223 276 331
#     4   8  14  27  50  80 111 141 175 216 261 310
#
# _framework density 19.575488
#
# number of rings (size 3 to 8) (size 9 to 14) (size 15 to 20)
#    0.000    2.455    0.000    3.000    0.000    7.636 
#    1.636    1.818    0.000    0.545    0.000    2.545 
#    0.000    0.000    0.000    0.000    0.000    0.000 
#
# Total GULP energy -545503.463582 kJ/mol
# GULP energy per Si atom -12397.805991 kJ/mol
# Density = 1.953093 g / cm^3
# Si number density = 19.575488 Si / 1000 Ang^3
#
#
#
# Elastic Constant Matrix: (Units=GPa)
#
#
# Indices 1 2 3 4 5 6 
#
# 1 60.5652 50.1453 33.2932 0.0000 0.0000 0.0000
# 2 50.1453 170.0029 58.6458 0.0000 0.0000 0.0000
# 3 33.2932 58.6458 75.0198 0.0000 0.0000 0.0000
# 4 0.0000 0.0000 0.0000 2.2013 0.0000 0.0000
# 5 0.0000 0.0000 0.0000 0.0000 17.9246 0.0000
# 6 0.0000 0.0000 0.0000 0.0000 0.0000 1.9221
#
#
#
# Elastic Compliance Matrix: (Units=1/GPa)
#
#
# Indices 1 2 3 4 5 6 
#
# 1 0.024328 -0.004726 -0.007102 0.000000 0.000000 0.000000
# 2 -0.004726 0.008972 -0.004917 0.000000 0.000000 0.000000
# 3 -0.007102 -0.004917 0.020325 0.000000 0.000000 0.000000
# 4 0.000000 0.000000 0.000000 0.454269 0.000000 0.000000
# 5 0.000000 0.000000 0.000000 0.000000 0.055789 0.000000
# 6 0.000000 0.000000 0.000000 0.000000 0.000000 0.520272
#
#
# Mechanical properties :
#
#
# Convention : Reuss Voigt Hill
#
# Bulk Modulus (GPa) = 49.66200 65.52849 57.59525
# Shear Modulus (GPa) = 4.44778 15.30984 9.87881
#
# Velocity S-wave (km/s) = 1.50899 2.79963 2.24888
# Velocity P-wave (km/s) = 5.33485 6.63310 6.01908
#
# Compressibility (1/GPa) = 0.02013612
#
# Stress axis : x y z
#
# Youngs Moduli (GPa) = 41.10464 111.45324 49.19985
#
# Poissons Ratio (x) = 0.52673 0.34943
# Poissons Ratio (y) = 0.19426 0.24190
# Poissons Ratio (z) = 0.29193 0.54798
#
# Static dielectric constant tensor:
#      x y z
#    x 3.390530 0.000000 0.000000 
#    y 0.000000 3.961080 0.000000 
#    z 0.000000 0.000000 3.369890 
# 
# 
# High freq. dielectric constant tensor:
#      x y z
#    x 1.746620 0.000000 0.000000 
#    y 0.000000 1.780220 0.000000 
#    z 0.000000 0.000000 1.731010 
# 
# From -- ./inp_files/10157.got.cif
#   From: 2010.03.12/outbox.cif.g09.slc.cpg/sg65_6_cif.got.tgz:10157.got - 2010.04.10 20:52:16.
