data_PCOD8271159
_publ_section_title
;
Structure prediction by ZEFSAII (Michael W. Deem and Ramdas Pophale) SiO2 
 PCOD8271159
Probable space group: C M M M
;
_chemical_formula_sum "Si O2"
_cell_formula_units_Z 96
_cell_length_a 9.220373
_cell_length_b 19.135105
_cell_length_c 29.974355
_cell_angle_alpha 90.000000
_cell_angle_beta 90.000000
_cell_angle_gamma 90.000000
_cell_volume 5288.459546
_symmetry_space_group_name_H-M "C M M M"
_symmetry_group_IT_number 65
_symmetry_cell_setting 'orthorhombic'
loop_
_space_group_symop_operation_xyz
x,y,z
-x,-y,z
x,-y,-z
-x,y,-z
-x,-y,-z
x,y,-z
-x,y,z
x,-y,z
1/2+x,1/2+y,z
1/2-x,1/2-y,z
1/2+x,1/2-y,-z
1/2-x,1/2+y,-z
1/2-x,1/2-y,-z
1/2+x,1/2+y,-z
1/2-x,1/2+y,z
1/2+x,1/2-y,z
loop_
_atom_site_type_symbol
_atom_site_label
_atom_site_fract_x
_atom_site_fract_y
_atom_site_fract_z
Si Si1 0.668376 0.318637 0.050308
Si Si2 0.169665 0.679328 0.550624
Si Si3 0.327940 0.922483 0.372840
Si Si4 0.829819 0.678929 0.805351
Si Si5 0.831395 0.680493 0.297255
Si Si6 0.831494 0.080938 0.129017
O O1 0.500000 0.300555 0.051995
O O2 0.750000 0.250000 0.068099
O O3 0.706832 0.383885 0.081655
O O4 0.717968 0.337769 0.000000
O O5 0.206358 0.656896 0.500000
O O6 0.250000 0.750000 0.564135
O O7 0.225871 0.618113 0.583057
O O8 0.000000 0.693080 0.557141
O O9 0.500000 0.927973 0.373275
O O10 0.275771 0.882865 0.328127
O O11 0.258911 0.000000 0.372910
O O12 0.750000 0.750000 0.820175
O O13 0.797403 0.661562 0.753844
O O14 0.766634 0.614183 0.832606
O O15 0.000000 0.687764 0.814895
O O16 0.750000 0.750000 0.312496
O O17 0.000000 0.694897 0.304884
O O18 0.000000 0.091831 0.141249
O O19 0.790951 0.000000 0.124930
#
# Coordination Sequence:
#
# PCOD8271159 Si02
#       6
#    16  16  16  16  16  16
#     4   9  18  33  53  75  98 127 164 203 241 284
#     4   9  17  29  47  70  93 120 155 194 235 278
#     4   9  17  29  46  69  96 124 155 193 235 279
#     4  10  20  34  53  75  98 127 165 206 246 290
#     4   9  18  32  51  72  93 122 159 198 238 281
#     4  10  21  35  51  74 104 135 165 200 244 291
#
# _framework density 18.152735
#
# number of rings (size 3 to 8) (size 9 to 14) (size 15 to 20)
#    0.000    2.667    0.000    1.500    0.000    4.333 
#    0.000    5.000    0.000    2.000    0.000    5.833 
#    0.000    0.000    0.000    0.000    0.000    0.000 
#
# Total GULP energy -595253.090494 kJ/mol
# GULP energy per Si atom -12401.106052 kJ/mol
# Density = 1.811142 g / cm^3
# Si number density = 18.152735 Si / 1000 Ang^3
#
#
#
# Elastic Constant Matrix: (Units=GPa)
#
#
# Indices 1 2 3 4 5 6 
#
# 1 46.7859 52.6831 41.5202 0.0000 0.0000 0.0000
# 2 52.6831 176.6370 94.0754 0.0000 0.0000 0.0000
# 3 41.5202 94.0754 115.7402 0.0000 0.0000 0.0000
# 4 0.0000 0.0000 0.0000 23.8248 0.0000 0.0000
# 5 0.0000 0.0000 0.0000 0.0000 19.8679 0.0000
# 6 0.0000 0.0000 0.0000 0.0000 0.0000 26.9442
#
#
#
# Elastic Compliance Matrix: (Units=1/GPa)
#
#
# Indices 1 2 3 4 5 6 
#
# 1 0.035321 -0.006677 -0.007244 0.000000 0.000000 0.000000
# 2 -0.006677 0.011245 -0.006745 0.000000 0.000000 0.000000
# 3 -0.007244 -0.006745 0.016721 0.000000 0.000000 0.000000
# 4 0.000000 0.000000 0.000000 0.041973 0.000000 0.000000
# 5 0.000000 0.000000 0.000000 0.000000 0.050332 0.000000
# 6 0.000000 0.000000 0.000000 0.000000 0.000000 0.037114
#
#
# Mechanical properties :
#
#
# Convention : Reuss Voigt Hill
#
# Bulk Modulus (GPa) = 45.54610 79.52452 62.53531
# Shear Modulus (GPa) = 20.71631 24.18634 22.45133
#
# Velocity S-wave (km/s) = 3.38186 3.65414 3.52063
# Velocity P-wave (km/s) = 6.35565 7.85540 7.14498
#
# Compressibility (1/GPa) = 0.02195578
#
# Stress axis : x y z
#
# Youngs Moduli (GPa) = 28.31197 88.92878 59.80449
#
# Poissons Ratio (x) = 0.59373 0.43323
# Poissons Ratio (y) = 0.18903 0.40338
# Poissons Ratio (z) = 0.20509 0.59982
#
# Static dielectric constant tensor:
#      x y z
#    x 3.175380 0.000000 0.000000 
#    y 0.000000 3.459950 0.000000 
#    z 0.000000 0.000000 3.559120 
# 
# 
# High freq. dielectric constant tensor:
#      x y z
#    x 1.681880 0.000000 0.000000 
#    y 0.000000 1.698500 0.000000 
#    z 0.000000 0.000000 1.716730 
# 
# From -- ./inp_files/73183.got.cif
#   From: 2010.03.12/outbox.cif.g09.slc.cpg/sg65_37_cif.got.tgz:73183.got - 2010.04.10 20:52:16.
