data_PCOD8271415
_publ_section_title
;
Structure prediction by ZEFSAII (Michael W. Deem and Ramdas Pophale) SiO2 
 PCOD8271415
Probable space group: C M M M
;
_chemical_formula_sum "Si O2"
_cell_formula_units_Z 80
_cell_length_a 26.878114
_cell_length_b 17.019226
_cell_length_c 9.019198
_cell_angle_alpha 90.000000
_cell_angle_beta 90.000000
_cell_angle_gamma 90.000000
_cell_volume 4125.784293
_symmetry_space_group_name_H-M "C M M M"
_symmetry_group_IT_number 65
_symmetry_cell_setting 'orthorhombic'
loop_
_space_group_symop_operation_xyz
x,y,z
-x,-y,z
x,-y,-z
-x,y,-z
-x,-y,-z
x,y,-z
-x,y,z
x,-y,z
1/2+x,1/2+y,z
1/2-x,1/2-y,z
1/2+x,1/2-y,-z
1/2-x,1/2+y,-z
1/2-x,1/2-y,-z
1/2+x,1/2+y,-z
1/2-x,1/2+y,z
1/2+x,1/2-y,z
loop_
_atom_site_type_symbol
_atom_site_label
_atom_site_fract_x
_atom_site_fract_y
_atom_site_fract_z
Si Si1 0.500000 0.410790 0.177325
Si Si2 0.094765 0.820932 0.826539
Si Si3 0.810642 0.089360 0.169475
Si Si4 0.443535 0.000000 0.823793
Si Si5 0.274327 0.832024 0.325038
Si Si6 0.379861 0.148448 0.826473
O O1 0.500000 0.500000 0.234641
O O2 0.452108 0.365972 0.244000
O O3 0.500000 0.407239 0.000000
O O4 0.146060 0.855759 0.760950
O O5 0.089910 0.728430 0.793719
O O6 0.095745 0.839032 0.000000
O O7 0.761389 0.099042 0.267525
O O8 0.829126 0.000000 0.178932
O O9 0.798339 0.113097 0.000000
O O10 0.413890 0.076955 0.767332
O O11 0.500000 0.000000 0.759539
O O12 0.446226 0.000000 0.000000
O O13 0.279238 0.835165 0.500000
O O14 0.250000 0.750000 0.270665
O O15 0.328091 0.847856 0.257913
O O16 0.368289 0.138748 0.000000
#
# Coordination Sequence:
#
# PCOD8271415 Si02
#       6
#     8  16  16   8  16  16
#     4   9  16  26  44  75 112 138 167 215 271 324
#     4   9  17  29  49  76 106 142 176 214 267 325
#     4  10  20  34  54  80 111 144 181 223 270 327
#     4   9  20  36  57  87 117 141 181 242 291 334
#     4  11  23  38  55  78 110 147 187 232 280 330
#     4  10  20  35  56  80 109 145 184 226 277 331
#
# _framework density 19.390253000000001
#
# number of rings (size 3 to 8) (size 9 to 14) (size 15 to 20)
#    0.000    2.200    2.000    1.200    2.800    3.600 
#    0.000    0.000    0.000    1.200    0.000    2.100 
#    0.000    4.800    0.000    0.000    0.000    0.000 
#
# Total GULP energy -496002.068542 kJ/mol
# GULP energy per Si atom -12400.051714 kJ/mol
# Density = 1.934612 g / cm^3
# Si number density = 19.390253 Si / 1000 Ang^3
#
#
#
# Elastic Constant Matrix: (Units=GPa)
#
#
# Indices 1 2 3 4 5 6 
#
# 1 171.4900 80.0437 37.0215 0.0000 0.0000 0.0000
# 2 80.0437 142.4428 31.7013 0.0000 0.0000 0.0000
# 3 37.0215 31.7013 32.8635 0.0000 0.0000 0.0000
# 4 0.0000 0.0000 0.0000 13.7853 0.0000 0.0000
# 5 0.0000 0.0000 0.0000 0.0000 0.6744 0.0000
# 6 0.0000 0.0000 0.0000 0.0000 0.0000 40.9591
#
#
#
# Elastic Compliance Matrix: (Units=1/GPa)
#
#
# Indices 1 2 3 4 5 6 
#
# 1 0.008911 -0.003532 -0.006632 0.000000 0.000000 0.000000
# 2 -0.003532 0.010339 -0.005995 0.000000 0.000000 0.000000
# 3 -0.006632 -0.005995 0.043683 0.000000 0.000000 0.000000
# 4 0.000000 0.000000 0.000000 0.072541 0.000000 0.000000
# 5 0.000000 0.000000 0.000000 0.000000 1.482835 0.000000
# 6 0.000000 0.000000 0.000000 0.000000 0.000000 0.024415
#
#
# Mechanical properties :
#
#
# Convention : Reuss Voigt Hill
#
# Bulk Modulus (GPa) = 32.66256 71.59214 52.12735
# Shear Modulus (GPa) = 2.96692 24.28572 13.62632
#
# Velocity S-wave (km/s) = 1.23832 3.54287 2.65380
# Velocity P-wave (km/s) = 4.35040 7.33060 6.02759
#
# Compressibility (1/GPa) = 0.03061610
#
# Stress axis : x y z
#
# Youngs Moduli (GPa) = 112.21566 96.71991 22.89207
#
# Poissons Ratio (x) = 0.34158 0.15182
# Poissons Ratio (y) = 0.39630 0.13724
# Poissons Ratio (z) = 0.74424 0.57984
#
# Static dielectric constant tensor:
#      x y z
#    x 3.695290 0.000000 0.000000 
#    y 0.000000 3.736240 0.000000 
#    z 0.000000 0.000000 2.991210 
# 
# 
# High freq. dielectric constant tensor:
#      x y z
#    x 1.765180 0.000000 0.000000 
#    y 0.000000 1.767870 0.000000 
#    z 0.000000 0.000000 1.695650 
# 
# From -- ./inp_files/32147.got.cif
#   From: 2010.03.12/outbox.cif.g09.slc.cpg/sg65_17_cif.got.tgz:32147.got - 2010.04.10 20:52:16.
