data_PCOD8271912
_publ_section_title
;
Structure prediction by ZEFSAII (Michael W. Deem and Ramdas Pophale) SiO2 
 PCOD8271912
Probable space group: C M M M
;
_chemical_formula_sum "Si O2"
_cell_formula_units_Z 80
_cell_length_a 7.691542
_cell_length_b 17.981337
_cell_length_c 29.228380
_cell_angle_alpha 90.000000
_cell_angle_beta 90.000000
_cell_angle_gamma 90.000000
_cell_volume 4042.407969
_symmetry_space_group_name_H-M "C M M M"
_symmetry_group_IT_number 65
_symmetry_cell_setting 'orthorhombic'
loop_
_space_group_symop_operation_xyz
x,y,z
-x,-y,z
x,-y,-z
-x,y,-z
-x,-y,-z
x,y,-z
-x,y,z
x,-y,z
1/2+x,1/2+y,z
1/2-x,1/2-y,z
1/2+x,1/2-y,-z
1/2-x,1/2+y,-z
1/2-x,1/2-y,-z
1/2+x,1/2+y,-z
1/2-x,1/2+y,z
1/2+x,1/2-y,z
loop_
_atom_site_type_symbol
_atom_site_label
_atom_site_fract_x
_atom_site_fract_y
_atom_site_fract_z
Si Si1 0.293822 0.084872 0.138490
Si Si2 0.000000 0.411646 0.717336
Si Si3 0.192908 0.911532 0.551179
Si Si4 0.196541 0.835277 0.772143
Si Si5 0.296018 0.832818 0.050264
Si Si6 0.000000 0.411314 0.613467
O O1 0.500000 0.095074 0.143048
O O2 0.202145 0.135531 0.176118
O O3 0.224952 0.110635 0.088599
O O4 0.237622 0.000000 0.145872
O O5 0.825357 0.382782 0.740863
O O6 0.000000 0.382600 0.665290
O O7 0.000000 0.500000 0.720944
O O8 0.241016 0.883912 0.500000
O O9 0.330262 0.879169 0.587548
O O10 0.000000 0.883416 0.564775
O O11 0.197852 0.000000 0.551896
O O12 0.250000 0.750000 0.771220
O O13 0.000000 0.844184 0.753406
O O14 0.500000 0.842353 0.046534
O O15 0.250000 0.750000 0.066177
O O16 0.212901 0.849812 0.000000
O O17 0.000000 0.500000 0.612229
#
# Coordination Sequence:
#
# PCOD8271912 Si02
#       6
#    16   8  16  16  16   8
#     4  10  20  35  56  83 116 147 185 242 298 354
#     4  11  24  41  60  91 126 155 198 256 309 363
#     4   8  13  22  39  66 104 151 198 237 280 344
#     4  12  24  42  66  87 113 155 201 248 302 365
#     4   9  18  32  51  76 107 147 190 230 280 345
#     4   9  17  28  45  70 110 154 189 234 298 355
#
# _framework density 19.790185000000001
#
# number of rings (size 3 to 8) (size 9 to 14) (size 15 to 20)
#    0.000    2.200    2.000    2.100    0.000    6.400 
#    0.000    4.000    0.000    0.000    0.000    4.200 
#    0.000    3.200    0.000    0.000    0.000    0.000 
#
# Total GULP energy -495898.975495 kJ/mol
# GULP energy per Si atom -12397.474387 kJ/mol
# Density = 1.974514 g / cm^3
# Si number density = 19.790185 Si / 1000 Ang^3
#
#
#
# Elastic Constant Matrix: (Units=GPa)
#
#
# Indices 1 2 3 4 5 6 
#
# 1 126.5665 33.1429 70.8974 0.0000 0.0000 0.0000
# 2 33.1429 75.7925 41.0838 0.0000 0.0000 0.0000
# 3 70.8974 41.0838 148.0399 0.0000 0.0000 0.0000
# 4 0.0000 0.0000 0.0000 4.7988 0.0000 0.0000
# 5 0.0000 0.0000 0.0000 0.0000 5.8957 0.0000
# 6 0.0000 0.0000 0.0000 0.0000 0.0000 20.0761
#
#
#
# Elastic Compliance Matrix: (Units=1/GPa)
#
#
# Indices 1 2 3 4 5 6 
#
# 1 0.011136 -0.002329 -0.004687 0.000000 0.000000 0.000000
# 2 -0.002329 0.016017 -0.003330 0.000000 0.000000 0.000000
# 3 -0.004687 -0.003330 0.009924 0.000000 0.000000 0.000000
# 4 0.000000 0.000000 0.000000 0.208387 0.000000 0.000000
# 5 0.000000 0.000000 0.000000 0.000000 0.169616 0.000000
# 6 0.000000 0.000000 0.000000 0.000000 0.000000 0.049810
#
#
# Mechanical properties :
#
#
# Convention : Reuss Voigt Hill
#
# Bulk Modulus (GPa) = 61.02860 71.18303 66.10581
# Shear Modulus (GPa) = 10.18240 19.83909 15.01074
#
# Velocity S-wave (km/s) = 2.27076 3.16962 2.75707
# Velocity P-wave (km/s) = 6.14653 7.03152 6.60387
#
# Compressibility (1/GPa) = 0.01638576
#
# Stress axis : x y z
#
# Youngs Moduli (GPa) = 89.79643 62.43260 100.77041
#
# Poissons Ratio (x) = 0.14542 0.47230
# Poissons Ratio (y) = 0.20915 0.33553
# Poissons Ratio (z) = 0.42086 0.20788
#
# Static dielectric constant tensor:
#      x y z
#    x 3.771320 0.000000 0.000000 
#    y 0.000000 3.299780 0.000000 
#    z 0.000000 0.000000 3.921110 
# 
# 
# High freq. dielectric constant tensor:
#      x y z
#    x 1.775300 0.000000 0.000000 
#    y 0.000000 1.735860 0.000000 
#    z 0.000000 0.000000 1.774500 
# 
# From -- ./inp_files/72971.got.cif
#   From: 2010.03.12/outbox.cif.g09.slc.cpg/sg65_37_cif.got.tgz:72971.got - 2010.04.10 20:52:16.
