data_PCOD8271298
_publ_section_title
;
Structure prediction by ZEFSAII (Michael W. Deem and Ramdas Pophale) SiO2 
 PCOD8271298
Probable space group: C M M M
;
_chemical_formula_sum "Si O2"
_cell_formula_units_Z 72
_cell_length_a 16.583614
_cell_length_b 9.282814
_cell_length_c 24.539349
_cell_angle_alpha 90.000000
_cell_angle_beta 90.000000
_cell_angle_gamma 90.000000
_cell_volume 3777.651291
_symmetry_space_group_name_H-M "C M M M"
_symmetry_group_IT_number 65
_symmetry_cell_setting 'orthorhombic'
loop_
_space_group_symop_operation_xyz
x,y,z
-x,-y,z
x,-y,-z
-x,y,-z
-x,-y,-z
x,y,-z
-x,y,z
x,-y,z
1/2+x,1/2+y,z
1/2-x,1/2-y,z
1/2+x,1/2-y,-z
1/2-x,1/2+y,-z
1/2-x,1/2-y,-z
1/2+x,1/2+y,-z
1/2-x,1/2+y,z
1/2+x,1/2-y,z
loop_
_atom_site_type_symbol
_atom_site_label
_atom_site_fract_x
_atom_site_fract_y
_atom_site_fract_z
Si Si1 0.329301 0.832550 0.756436
Si Si2 0.667583 0.667829 0.558789
Si Si3 0.591952 0.342804 0.331393
Si Si4 0.500000 0.829771 0.937555
Si Si5 0.667095 0.168809 0.882709
O O1 0.250000 0.750000 0.737307
O O2 0.398524 0.768231 0.718478
O O3 0.348858 0.801423 0.819325
O O4 0.318904 0.000000 0.745298
O O5 0.622838 0.694094 0.500000
O O6 0.684669 0.500000 0.566661
O O7 0.750000 0.750000 0.557372
O O8 0.620049 0.726526 0.611317
O O9 0.500000 0.372416 0.339217
O O10 0.633051 0.500000 0.319176
O O11 0.415272 0.772024 0.911564
O O12 0.500000 0.000000 0.930144
O O13 0.500000 0.780636 0.000000
O O14 0.750000 0.250000 0.901913
O O15 0.680297 0.000000 0.895398
#
# Coordination Sequence:
#
# PCOD8271298 Si02
#       5
#    16  16  16   8  16
#     4  10  20  34  54  76 103 136 174 216 261 313
#     4   9  18  33  52  71  93 126 167 209 254 305
#     4  10  21  34  49  74 105 134 168 211 259 310
#     4   9  18  34  57  83 111 147 186 223 266 320
#     4   9  19  35  56  81 110 144 184 226 271 323
#
# _framework density 19.059460999999999
#
# number of rings (size 3 to 8) (size 9 to 14) (size 15 to 20)
#    0.000    2.556    0.000    1.333    1.556    4.889 
#    0.000    2.778    0.000    0.667    0.000    4.667 
#    0.000    0.000    0.000    0.000    0.000    0.000 
#
# Total GULP energy -445990.783170 kJ/mol
# GULP energy per Si atom -12388.632866 kJ/mol
# Density = 1.901608 g / cm^3
# Si number density = 19.059461 Si / 1000 Ang^3
#
#
#
# Elastic Constant Matrix: (Units=GPa)
#
#
# Indices 1 2 3 4 5 6 
#
# 1 111.5374 32.2689 60.6587 0.0000 0.0000 0.0000
# 2 32.2689 53.6723 43.0028 0.0000 0.0000 0.0000
# 3 60.6587 43.0028 115.8938 0.0000 0.0000 0.0000
# 4 0.0000 0.0000 0.0000 23.0889 0.0000 0.0000
# 5 0.0000 0.0000 0.0000 0.0000 42.3853 0.0000
# 6 0.0000 0.0000 0.0000 0.0000 0.0000 24.4126
#
#
#
# Elastic Compliance Matrix: (Units=1/GPa)
#
#
# Indices 1 2 3 4 5 6 
#
# 1 0.012943 -0.003350 -0.005531 0.000000 0.000000 0.000000
# 2 -0.003350 0.027381 -0.008407 0.000000 0.000000 0.000000
# 3 -0.005531 -0.008407 0.014643 0.000000 0.000000 0.000000
# 4 0.000000 0.000000 0.000000 0.043311 0.000000 0.000000
# 5 0.000000 0.000000 0.000000 0.000000 0.023593 0.000000
# 6 0.000000 0.000000 0.000000 0.000000 0.000000 0.040963
#
#
# Mechanical properties :
#
#
# Convention : Reuss Voigt Hill
#
# Bulk Modulus (GPa) = 49.04007 61.44050 55.24028
# Shear Modulus (GPa) = 24.48510 27.65555 26.07033
#
# Velocity S-wave (km/s) = 3.58812 3.81335 3.70245
# Velocity P-wave (km/s) = 6.55378 7.18993 6.87921
#
# Compressibility (1/GPa) = 0.02039149
#
# Stress axis : x y z
#
# Youngs Moduli (GPa) = 77.26239 36.52178 68.29217
#
# Poissons Ratio (x) = 0.12234 0.37775
# Poissons Ratio (y) = 0.25881 0.57410
# Poissons Ratio (z) = 0.42737 0.30702
#
# Static dielectric constant tensor:
#      x y z
#    x 3.433060 0.000000 0.000000 
#    y 0.000000 3.396370 0.000000 
#    z 0.000000 0.000000 3.782890 
# 
# 
# High freq. dielectric constant tensor:
#      x y z
#    x 1.732060 0.000000 0.000000 
#    y 0.000000 1.723290 0.000000 
#    z 0.000000 0.000000 1.751490 
# 
# From -- ./inp_files/67121.got.cif
#   From: 2010.03.12/outbox.cif.g09.slc.cpg/sg65_34_cif.got.tgz:67121.got - 2010.04.10 20:52:16.
