data_PCOD8271716
_publ_section_title
;
Structure prediction by ZEFSAII (Michael W. Deem and Ramdas Pophale) SiO2 
 PCOD8271716
Probable space group: C M M M
;
_chemical_formula_sum "Si O2"
_cell_formula_units_Z 120
_cell_length_a 27.512170
_cell_length_b 9.201394
_cell_length_c 26.644399
_cell_angle_alpha 90.000000
_cell_angle_beta 90.000000
_cell_angle_gamma 90.000000
_cell_volume 6745.038026
_symmetry_space_group_name_H-M "C M M M"
_symmetry_group_IT_number 65
_symmetry_cell_setting 'orthorhombic'
loop_
_space_group_symop_operation_xyz
x,y,z
-x,-y,z
x,-y,-z
-x,y,-z
-x,-y,-z
x,y,-z
-x,y,z
x,-y,z
1/2+x,1/2+y,z
1/2-x,1/2-y,z
1/2+x,1/2-y,-z
1/2-x,1/2+y,-z
1/2-x,1/2-y,-z
1/2+x,1/2+y,-z
1/2-x,1/2+y,z
1/2+x,1/2-y,z
loop_
_atom_site_type_symbol
_atom_site_label
_atom_site_fract_x
_atom_site_fract_y
_atom_site_fract_z
Si Si1 0.443065 0.835199 0.000000
Si Si2 0.444982 0.826843 0.200920
Si Si3 0.887007 0.669262 0.701925
Si Si4 0.797359 0.668664 0.942851
Si Si5 0.445229 0.831659 0.397478
Si Si6 0.698947 0.327330 0.348019
Si Si7 0.102229 0.671772 0.900356
Si Si8 0.860456 0.167627 0.555982
O O1 0.424136 0.758662 0.949178
O O2 0.500000 0.831366 0.000000
O O3 0.422417 0.000000 0.000000
O O4 0.500000 0.766543 0.205631
O O5 0.412190 0.774071 0.247282
O O6 0.420492 0.762075 0.150362
O O7 0.446187 0.000000 0.200057
O O8 0.871843 0.500000 0.705056
O O9 0.926406 0.695608 0.658640
O O10 0.839058 0.765548 0.692669
O O11 0.785626 0.500000 0.940880
O O12 0.750000 0.750000 0.922864
O O13 0.840845 0.709767 0.905032
O O14 0.810801 0.715183 0.000000
O O15 0.500000 0.770370 0.401503
O O16 0.410964 0.751582 0.437155
O O17 0.444032 0.000000 0.411344
O O18 0.704513 0.500000 0.341390
O O19 0.750000 0.250000 0.338896
O O20 0.680176 0.283667 0.403785
O O21 0.093235 0.500000 0.899615
O O22 0.840236 0.199026 0.500000
O O23 0.872832 0.000000 0.564071
#
# Coordination Sequence:
#
# PCOD8271716 Si02
#       8
#     8  16  16  16  16  16  16  16
#     4   9  14  20  33  56  91 129 155 181 228 287
#     4   9  16  26  44  70  97 126 160 196 237 286
#     4   9  17  31  50  71  96 126 161 201 242 284
#     4   9  16  27  43  62  86 117 153 191 231 273
#     4   9  17  29  46  68  94 126 165 206 244 282
#     4  10  20  35  55  76  97 124 159 197 239 286
#     4   9  15  24  38  62  95 126 155 192 238 285
#     4   9  19  34  49  69  99 130 159 193 235 286
#
# _framework density 17.790856999999999
#
# number of rings (size 3 to 8) (size 9 to 14) (size 15 to 20)
#    0.000    2.867    0.667    1.200    0.000    4.800 
#    0.000    2.000    0.000    3.600    0.000    0.000 
#    0.000    2.133    0.000    0.000    0.000    0.000 
#
# Total GULP energy -743823.124362 kJ/mol
# GULP energy per Si atom -12397.052073 kJ/mol
# Density = 1.775036 g / cm^3
# Si number density = 17.790857 Si / 1000 Ang^3
#
#
#
# Elastic Constant Matrix: (Units=GPa)
#
#
# Indices 1 2 3 4 5 6 
#
# 1 137.7714 39.6813 63.9809 0.0000 0.0000 0.0000
# 2 39.6813 34.7505 23.6781 0.0000 0.0000 0.0000
# 3 63.9809 23.6781 123.0932 0.0000 0.0000 0.0000
# 4 0.0000 0.0000 0.0000 -102.2552 0.0000 0.0000
# 5 0.0000 0.0000 0.0000 0.0000 23.0926 0.0000
# 6 0.0000 0.0000 0.0000 0.0000 0.0000 25.1280
#
#
#
# Elastic Compliance Matrix: (Units=1/GPa)
#
#
# Indices 1 2 3 4 5 6 
#
# 1 0.012547 -0.011375 -0.004334 0.000000 0.000000 0.000000
# 2 -0.011375 0.043429 -0.002442 0.000000 0.000000 0.000000
# 3 -0.004334 -0.002442 0.010846 0.000000 0.000000 0.000000
# 4 0.000000 0.000000 0.000000 -0.009779 0.000000 0.000000
# 5 0.000000 0.000000 0.000000 0.000000 0.043304 0.000000
# 6 0.000000 0.000000 0.000000 0.000000 0.000000 0.039796
#
#
# Mechanical properties :
#
#
# Convention : Reuss Voigt Hill
#
# Bulk Modulus (GPa) = 32.76305 61.14397 46.95351
# Shear Modulus (GPa) = 26.79286 0.41139 13.60213
#
# Velocity S-wave (km/s) = 3.88492 0.48140 2.76806
# Velocity P-wave (km/s) = 6.21121 5.89507 6.05520
#
# Compressibility (1/GPa) = 0.03052219
#
# Stress axis : x y z
#
# Youngs Moduli (GPa) = 79.69968 23.02615 92.19865
#
# Poissons Ratio (x) = 0.26191 0.39956
# Poissons Ratio (y) = 0.90655 0.22512
# Poissons Ratio (z) = 0.34539 0.05622
#
# Static dielectric constant tensor:
#      x y z
#    x 3.329610 0.000000 0.000000 
#    y 0.000000 2.934960 0.000000 
#    z 0.000000 0.000000 3.427320 
# 
# 
# High freq. dielectric constant tensor:
#      x y z
#    x 1.694280 0.000000 0.000000 
#    y 0.000000 1.643790 0.000000 
#    z 0.000000 0.000000 1.684960 
# 
# From -- ./inp_files/76165.got.cif
#   From: 2010.03.12/outbox.cif.g09.slc.cpg/sg65_39_cif.got.tgz:76165.got - 2010.04.10 20:52:16.
