data_PCOD8271411
_publ_section_title
;
Structure prediction by ZEFSAII (Michael W. Deem and Ramdas Pophale) SiO2 
 PCOD8271411
Probable space group: C M M M
;
_chemical_formula_sum "Si O2"
_cell_formula_units_Z 104
_cell_length_a 31.489652
_cell_length_b 8.774054
_cell_length_c 19.209970
_cell_angle_alpha 90.000000
_cell_angle_beta 90.000000
_cell_angle_gamma 90.000000
_cell_volume 5307.559246
_symmetry_space_group_name_H-M "C M M M"
_symmetry_group_IT_number 65
_symmetry_cell_setting 'orthorhombic'
loop_
_space_group_symop_operation_xyz
x,y,z
-x,-y,z
x,-y,-z
-x,y,-z
-x,-y,-z
x,y,-z
-x,y,z
x,-y,z
1/2+x,1/2+y,z
1/2-x,1/2-y,z
1/2+x,1/2-y,-z
1/2-x,1/2+y,-z
1/2-x,1/2-y,-z
1/2+x,1/2+y,-z
1/2-x,1/2+y,z
1/2+x,1/2-y,z
loop_
_atom_site_type_symbol
_atom_site_label
_atom_site_fract_x
_atom_site_fract_y
_atom_site_fract_z
Si Si1 0.293088 0.179295 0.787788
Si Si2 0.452980 0.323021 0.203578
Si Si3 0.585705 0.825017 0.921665
Si Si4 0.824754 0.177612 0.078915
Si Si5 0.372003 0.679144 0.291737
Si Si6 0.908142 0.319226 0.580568
Si Si7 0.500000 0.179214 0.420590
O O1 0.250000 0.250000 0.755978
O O2 0.295675 0.225932 0.868974
O O3 0.333168 0.241371 0.746156
O O4 0.291261 0.000000 0.780184
O O5 0.500000 0.290672 0.235832
O O6 0.447555 0.500000 0.185755
O O7 0.450268 0.228307 0.131848
O O8 0.416103 0.268829 0.255803
O O9 0.626453 0.720009 0.908439
O O10 0.598603 0.000000 0.908036
O O11 0.568219 0.803618 0.000000
O O12 0.819078 0.000000 0.095703
O O13 0.811017 0.217267 0.000000
O O14 0.364963 0.500000 0.288734
O O15 0.373381 0.735167 0.371848
O O16 0.900821 0.273433 0.500000
O O17 0.903884 0.500000 0.589179
O O18 0.954821 0.260507 0.608833
O O19 0.500000 0.227750 0.500000
O O20 0.500000 0.000000 0.412987
#
# Coordination Sequence:
#
# PCOD8271411 Si02
#       7
#    16  16  16  16  16  16   8
#     4  12  25  42  65  90 118 151 193 240 294 352
#     4  10  22  38  55  78 113 158 203 245 293 349
#     4  10  20  34  54  80 110 148 196 249 299 347
#     4  10  20  36  59  86 117 152 190 236 291 350
#     4  11  23  39  60  86 120 156 195 241 292 347
#     4   9  18  34  57  85 118 157 199 241 287 341
#     4   7  12  26  49  79 115 153 194 237 278 327
#
# _framework density 19.594694
#
# number of rings (size 3 to 8) (size 9 to 14) (size 15 to 20)
#    0.000    1.923    1.538    3.692    1.077    3.692 
#    0.000    1.538    0.000    1.846    0.000    0.000 
#    0.000    0.000    0.000    0.000    0.000    0.000 
#
# Total GULP energy -644635.514682 kJ/mol
# GULP energy per Si atom -12396.836821 kJ/mol
# Density = 1.955010 g / cm^3
# Si number density = 19.594694 Si / 1000 Ang^3
#
#
#
# Elastic Constant Matrix: (Units=GPa)
#
#
# Indices 1 2 3 4 5 6 
#
# 1 120.0220 54.5100 58.8399 0.0000 0.0000 0.0000
# 2 54.5100 95.2297 48.0760 0.0000 0.0000 0.0000
# 3 58.8399 48.0760 99.8196 0.0000 0.0000 0.0000
# 4 0.0000 0.0000 0.0000 29.5503 0.0000 0.0000
# 5 0.0000 0.0000 0.0000 0.0000 13.2863 0.0000
# 6 0.0000 0.0000 0.0000 0.0000 0.0000 27.1642
#
#
#
# Elastic Compliance Matrix: (Units=1/GPa)
#
#
# Indices 1 2 3 4 5 6 
#
# 1 0.013186 -0.004788 -0.005467 0.000000 0.000000 0.000000
# 2 -0.004788 0.015613 -0.004697 0.000000 0.000000 0.000000
# 3 -0.005467 -0.004697 0.015503 0.000000 0.000000 0.000000
# 4 0.000000 0.000000 0.000000 0.033841 0.000000 0.000000
# 5 0.000000 0.000000 0.000000 0.000000 0.075265 0.000000
# 6 0.000000 0.000000 0.000000 0.000000 0.000000 0.036813
#
#
# Mechanical properties :
#
#
# Convention : Reuss Voigt Hill
#
# Bulk Modulus (GPa) = 69.45421 70.88034 70.16727
# Shear Modulus (GPa) = 22.22958 24.24320 23.23639
#
# Velocity S-wave (km/s) = 3.37184 3.52125 3.44735
# Velocity P-wave (km/s) = 7.11909 7.26526 7.19255
#
# Compressibility (1/GPa) = 0.01439797
#
# Stress axis : x y z
#
# Youngs Moduli (GPa) = 75.83517 64.04890 64.50396
#
# Poissons Ratio (x) = 0.30667 0.35263
# Poissons Ratio (y) = 0.36311 0.30299
# Poissons Ratio (z) = 0.41458 0.30086
#
# Static dielectric constant tensor:
#      x y z
#    x 3.546700 0.000000 0.000000 
#    y 0.000000 3.443530 0.000000 
#    z 0.000000 0.000000 3.536270 
# 
# 
# High freq. dielectric constant tensor:
#      x y z
#    x 1.750670 0.000000 0.000000 
#    y 0.000000 1.760540 0.000000 
#    z 0.000000 0.000000 1.755410 
# 
# From -- ./inp_files/66318.got.cif
#   From: 2010.03.12/outbox.cif.g09.slc.cpg/sg65_34_cif.got.tgz:66318.got - 2010.04.10 20:52:16.
