data_PCOD8271078
_publ_section_title
;
Structure prediction by ZEFSAII (Michael W. Deem and Ramdas Pophale) SiO2 
 PCOD8271078
Probable space group: C M M M
;
_chemical_formula_sum "Si O2"
_cell_formula_units_Z 104
_cell_length_a 19.219051
_cell_length_b 18.343770
_cell_length_c 15.907705
_cell_angle_alpha 90.000000
_cell_angle_beta 90.000000
_cell_angle_gamma 90.000000
_cell_volume 5608.259030
_symmetry_space_group_name_H-M "C M M M"
_symmetry_group_IT_number 65
_symmetry_cell_setting 'orthorhombic'
loop_
_space_group_symop_operation_xyz
x,y,z
-x,-y,z
x,-y,-z
-x,y,-z
-x,-y,-z
x,y,-z
-x,y,z
x,-y,z
1/2+x,1/2+y,z
1/2-x,1/2-y,z
1/2+x,1/2-y,-z
1/2-x,1/2+y,-z
1/2-x,1/2-y,-z
1/2+x,1/2+y,-z
1/2-x,1/2+y,z
1/2+x,1/2-y,z
loop_
_atom_site_type_symbol
_atom_site_label
_atom_site_fract_x
_atom_site_fract_y
_atom_site_fract_z
Si Si1 0.080834 0.837898 0.332412
Si Si2 0.703180 0.916174 0.593212
Si Si3 0.423025 0.083419 0.173044
Si Si4 0.783327 0.585830 0.091502
Si Si5 0.078522 0.331544 0.656179
Si Si6 0.299826 0.586501 0.252608
Si Si7 0.417677 0.581314 0.500000
O O1 0.097239 0.753140 0.338927
O O2 0.125432 0.874086 0.257449
O O3 0.107022 0.875928 0.417885
O O4 0.000000 0.853072 0.313327
O O5 0.737054 0.905931 0.500000
O O6 0.631832 0.870397 0.593689
O O7 0.754610 0.888875 0.666438
O O8 0.683666 0.000000 0.609493
O O9 0.500000 0.093561 0.133018
O O10 0.364720 0.104921 0.105273
O O11 0.413292 0.135082 0.252029
O O12 0.411963 0.000000 0.203396
O O13 0.772933 0.500000 0.089740
O O14 0.736621 0.616754 0.167668
O O15 0.761561 0.618534 0.000000
O O16 0.000000 0.342250 0.621627
O O17 0.310409 0.500000 0.250788
O O18 0.384353 0.500000 0.500000
O O19 0.500000 0.575599 0.500000
#
# Coordination Sequence:
#
# PCOD8271078 Si02
#       7
#    16  16  16  16  16  16   8
#     4  10  22  36  53  78 104 136 178 223 271 318
#     4  10  21  35  52  77 108 146 187 216 250 308
#     4   9  16  29  51  76 105 143 181 216 259 310
#     4   9  17  31  53  81 108 133 170 222 273 318
#     4  10  20  34  52  74 108 145 179 220 260 304
#     4  10  20  36  56  77 105 138 173 219 271 319
#     4   9  18  34  54  75  99 129 172 225 273 313
#
# _framework density 18.544080000000001
#
# number of rings (size 3 to 8) (size 9 to 14) (size 15 to 20)
#    0.000    2.385    1.538    0.923    2.154    3.077 
#    0.000    3.077    0.000    2.308    0.000    4.308 
#    0.000    0.000    0.000    0.000    0.000    0.000 
#
# Total GULP energy -644648.696242 kJ/mol
# GULP energy per Si atom -12397.090312 kJ/mol
# Density = 1.850187 g / cm^3
# Si number density = 18.544080 Si / 1000 Ang^3
#
#
#
# Elastic Constant Matrix: (Units=GPa)
#
#
# Indices 1 2 3 4 5 6 
#
# 1 96.5780 35.7713 60.1468 0.0000 0.0000 0.0000
# 2 35.7713 73.4668 35.4343 0.0000 0.0000 0.0000
# 3 60.1468 35.4343 132.3843 0.0000 0.0000 0.0000
# 4 0.0000 0.0000 0.0000 8.9924 0.0000 0.0000
# 5 0.0000 0.0000 0.0000 0.0000 21.1348 0.0000
# 6 0.0000 0.0000 0.0000 0.0000 0.0000 25.7337
#
#
#
# Elastic Compliance Matrix: (Units=1/GPa)
#
#
# Indices 1 2 3 4 5 6 
#
# 1 0.015822 -0.004865 -0.005886 0.000000 0.000000 0.000000
# 2 -0.004865 0.017125 -0.002374 0.000000 0.000000 0.000000
# 3 -0.005886 -0.002374 0.010863 0.000000 0.000000 0.000000
# 4 0.000000 0.000000 0.000000 0.111205 0.000000 0.000000
# 5 0.000000 0.000000 0.000000 0.000000 0.047315 0.000000
# 6 0.000000 0.000000 0.000000 0.000000 0.000000 0.038860
#
#
# Mechanical properties :
#
#
# Convention : Reuss Voigt Hill
#
# Bulk Modulus (GPa) = 56.94348 62.79266 59.86807
# Shear Modulus (GPa) = 18.29532 22.57728 20.43630
#
# Velocity S-wave (km/s) = 3.14440 3.49304 3.32330
# Velocity P-wave (km/s) = 6.62999 7.08543 6.86149
#
# Compressibility (1/GPa) = 0.01756127
#
# Stress axis : x y z
#
# Youngs Moduli (GPa) = 63.20267 58.39407 92.05155
#
# Poissons Ratio (x) = 0.28407 0.54186
# Poissons Ratio (y) = 0.30746 0.21849
# Poissons Ratio (z) = 0.37204 0.13860
#
# Static dielectric constant tensor:
#      x y z
#    x 3.488510 0.000000 0.000000 
#    y 0.000000 3.233300 0.000000 
#    z 0.000000 0.000000 3.478590 
# 
# 
# High freq. dielectric constant tensor:
#      x y z
#    x 1.722680 0.000000 0.000000 
#    y 0.000000 1.697870 0.000000 
#    z 0.000000 0.000000 1.702850 
# 
# From -- ./inp_files/44427.got.cif
#   From: 2010.03.12/outbox.cif.g09.slc.cpg/sg65_23_cif.got.tgz:44427.got - 2010.04.10 20:52:16.
