data_PCOD8271407
_publ_section_title
;
Structure prediction by ZEFSAII (Michael W. Deem and Ramdas Pophale) SiO2 
 PCOD8271407
Probable space group: C M M M
;
_chemical_formula_sum "Si O2"
_cell_formula_units_Z 88
_cell_length_a 30.731098
_cell_length_b 8.680882
_cell_length_c 17.665892
_cell_angle_alpha 90.000000
_cell_angle_beta 90.000000
_cell_angle_gamma 90.000000
_cell_volume 4712.783633
_symmetry_space_group_name_H-M "C M M M"
_symmetry_group_IT_number 65
_symmetry_cell_setting 'orthorhombic'
loop_
_space_group_symop_operation_xyz
x,y,z
-x,-y,z
x,-y,-z
-x,y,-z
-x,-y,-z
x,y,-z
-x,y,z
x,-y,z
1/2+x,1/2+y,z
1/2-x,1/2-y,z
1/2+x,1/2-y,-z
1/2-x,1/2+y,-z
1/2-x,1/2-y,-z
1/2+x,1/2+y,-z
1/2-x,1/2+y,z
1/2+x,1/2-y,z
loop_
_atom_site_type_symbol
_atom_site_label
_atom_site_fract_x
_atom_site_fract_y
_atom_site_fract_z
Si Si1 0.322954 0.819769 0.915362
Si Si2 0.451136 0.678617 0.411353
Si Si3 0.412845 0.820022 0.851964
Si Si4 0.795320 0.181914 0.242040
Si Si5 0.379666 0.817598 0.694550
Si Si6 0.000000 0.315216 0.916166
O O1 0.374602 0.786631 0.911842
O O2 0.300506 0.729847 0.846520
O O3 0.313316 0.000000 0.902824
O O4 0.306975 0.767936 0.000000
O O5 0.446744 0.708696 0.500000
O O6 0.500000 0.733386 0.385122
O O7 0.445666 0.500000 0.391795
O O8 0.411090 0.769726 0.373895
O O9 0.401985 0.752317 0.770160
O O10 0.457547 0.741918 0.877555
O O11 0.420527 0.000000 0.843926
O O12 0.750000 0.250000 0.271846
O O13 0.831482 0.243864 0.301637
O O14 0.794727 0.000000 0.246203
O O15 0.373596 0.000000 0.693632
O O16 0.000000 0.500000 0.914070
O O17 0.000000 0.252444 0.000000
#
# Coordination Sequence:
#
# PCOD8271407 Si02
#       6
#    16  16  16  16  16   8
#     4   9  17  31  49  70 100 136 176 226 280 330
#     4   9  19  36  57  83 117 154 187 218 258 312
#     4   8  15  25  39  64  97 132 171 215 262 311
#     4  11  22  37  56  77 104 137 180 227 278 334
#     4  10  20  34  54  80 110 141 179 224 271 321
#     4   9  14  20  34  58  90 129 170 210 255 303
#
# _framework density 18.672616000000001
#
# number of rings (size 3 to 8) (size 9 to 14) (size 15 to 20)
#    0.000    2.636    0.000    4.364    1.273    3.636 
#    0.000    0.909    0.000    0.545    0.000    0.000 
#    0.000    7.636    0.000    0.000    0.000    0.000 
#
# Total GULP energy -545161.580661 kJ/mol
# GULP energy per Si atom -12390.035924 kJ/mol
# Density = 1.863012 g / cm^3
# Si number density = 18.672616 Si / 1000 Ang^3
#
#
#
# Elastic Constant Matrix: (Units=GPa)
#
#
# Indices 1 2 3 4 5 6 
#
# 1 153.4487 49.6723 43.9055 0.0000 0.0000 0.0000
# 2 49.6723 84.8322 30.9685 0.0000 0.0000 0.0000
# 3 43.9055 30.9685 61.1197 0.0000 0.0000 0.0000
# 4 0.0000 0.0000 0.0000 23.6282 0.0000 0.0000
# 5 0.0000 0.0000 0.0000 0.0000 10.6649 0.0000
# 6 0.0000 0.0000 0.0000 0.0000 0.0000 23.7758
#
#
#
# Elastic Compliance Matrix: (Units=1/GPa)
#
#
# Indices 1 2 3 4 5 6 
#
# 1 0.009007 -0.003573 -0.004660 0.000000 0.000000 0.000000
# 2 -0.003573 0.015880 -0.005480 0.000000 0.000000 0.000000
# 3 -0.004660 -0.005480 0.022485 0.000000 0.000000 0.000000
# 4 0.000000 0.000000 0.000000 0.042322 0.000000 0.000000
# 5 0.000000 0.000000 0.000000 0.000000 0.093766 0.000000
# 6 0.000000 0.000000 0.000000 0.000000 0.000000 0.042060
#
#
# Mechanical properties :
#
#
# Convention : Reuss Voigt Hill
#
# Bulk Modulus (GPa) = 50.13124 60.94369 55.53746
# Shear Modulus (GPa) = 19.26086 23.27072 21.26579
#
# Velocity S-wave (km/s) = 3.21519 3.53405 3.37838
# Velocity P-wave (km/s) = 6.37879 7.02578 6.71009
#
# Compressibility (1/GPa) = 0.01994764
#
# Stress axis : x y z
#
# Youngs Moduli (GPa) = 111.02996 62.97078 44.47355
#
# Poissons Ratio (x) = 0.22497 0.20723
# Poissons Ratio (y) = 0.39667 0.24371
# Poissons Ratio (z) = 0.51737 0.34508
#
# Static dielectric constant tensor:
#      x y z
#    x 3.783940 0.000000 0.000000 
#    y 0.000000 3.106530 0.000000 
#    z 0.000000 0.000000 3.353680 
# 
# 
# High freq. dielectric constant tensor:
#      x y z
#    x 1.737640 0.000000 0.000000 
#    y 0.000000 1.697490 0.000000 
#    z 0.000000 0.000000 1.702920 
# 
# From -- ./inp_files/58025.got.cif
#   From: 2010.03.12/outbox.cif.g09.slc.cpg/sg65_30_cif.got.tgz:58025.got - 2010.04.10 20:52:16.
