data_PCOD8271242
_publ_section_title
;
Structure prediction by ZEFSAII (Michael W. Deem and Ramdas Pophale) SiO2 
 PCOD8271242
Probable space group: C M M M
;
_chemical_formula_sum "Si O2"
_cell_formula_units_Z 72
_cell_length_a 10.628852
_cell_length_b 18.214108
_cell_length_c 19.068510
_cell_angle_alpha 90.000000
_cell_angle_beta 90.000000
_cell_angle_gamma 90.000000
_cell_volume 3691.569304
_symmetry_space_group_name_H-M "C M M M"
_symmetry_group_IT_number 65
_symmetry_cell_setting 'orthorhombic'
loop_
_space_group_symop_operation_xyz
x,y,z
-x,-y,z
x,-y,-z
-x,y,-z
-x,-y,-z
x,y,-z
-x,y,z
x,-y,z
1/2+x,1/2+y,z
1/2-x,1/2-y,z
1/2+x,1/2-y,-z
1/2-x,1/2+y,-z
1/2-x,1/2-y,-z
1/2+x,1/2+y,-z
1/2-x,1/2+y,z
1/2+x,1/2-y,z
loop_
_atom_site_type_symbol
_atom_site_label
_atom_site_fract_x
_atom_site_fract_y
_atom_site_fract_z
Si Si1 0.247875 0.912728 0.845542
Si Si2 0.251080 0.336853 0.579780
Si Si3 0.000000 0.087451 0.920798
Si Si4 0.141438 0.917311 0.297893
Si Si5 0.000000 0.417652 0.582717
Si Si6 0.500000 0.087582 0.080464
O O1 0.235965 0.890003 0.763504
O O2 0.376526 0.881400 0.879361
O O3 0.126659 0.880265 0.885771
O O4 0.246920 0.000000 0.852178
O O5 0.282133 0.361348 0.500000
O O6 0.250000 0.250000 0.584705
O O7 0.355154 0.366937 0.632944
O O8 0.120664 0.371629 0.607105
O O9 0.000000 0.000000 0.915350
O O10 0.000000 0.115098 0.000000
O O11 0.000000 0.914588 0.267248
O O12 0.176642 0.000000 0.320614
O O13 0.000000 0.500000 0.615844
O O14 0.000000 0.424149 0.500000
O O15 0.500000 0.000000 0.082030
O O16 0.500000 0.115440 0.000000
#
# Coordination Sequence:
#
# PCOD8271242 Si02
#       6
#    16  16   8  16   8   8
#     4   9  16  27  41  65 102 140 177 218 266 319
#     4  10  22  37  56  80 108 141 183 238 292 337
#     4   9  14  22  39  60  90 135 175 206 253 315
#     4  10  20  34  53  77 109 147 184 224 272 334
#     4   9  18  35  56  77 104 139 182 228 279 349
#     4   9  16  25  41  69 105 143 181 222 269 322
#
# _framework density 19.503900000000002
#
# number of rings (size 3 to 8) (size 9 to 14) (size 15 to 20)
#    0.000    2.556    1.111    1.333    1.556    5.333 
#    0.000    3.333    0.000    0.000    0.000    0.000 
#    0.000    5.333    0.000    0.000    0.000    0.000 
#
# Total GULP energy -446246.291586 kJ/mol
# GULP energy per Si atom -12395.730322 kJ/mol
# Density = 1.945951 g / cm^3
# Si number density = 19.503900 Si / 1000 Ang^3
#
#
#
# Elastic Constant Matrix: (Units=GPa)
#
#
# Indices 1 2 3 4 5 6 
#
# 1 131.3029 24.8185 63.1128 0.0000 0.0000 0.0000
# 2 24.8185 51.3870 31.1517 0.0000 0.0000 0.0000
# 3 63.1128 31.1517 143.9646 0.0000 0.0000 0.0000
# 4 0.0000 0.0000 0.0000 13.3933 0.0000 0.0000
# 5 0.0000 0.0000 0.0000 0.0000 36.6939 0.0000
# 6 0.0000 0.0000 0.0000 0.0000 0.0000 17.3968
#
#
#
# Elastic Compliance Matrix: (Units=1/GPa)
#
#
# Indices 1 2 3 4 5 6 
#
# 1 0.009916 -0.002479 -0.003811 0.000000 0.000000 0.000000
# 2 -0.002479 0.023018 -0.003894 0.000000 0.000000 0.000000
# 3 -0.003811 -0.003894 0.009459 0.000000 0.000000 0.000000
# 4 0.000000 0.000000 0.000000 0.074664 0.000000 0.000000
# 5 0.000000 0.000000 0.000000 0.000000 0.027252 0.000000
# 6 0.000000 0.000000 0.000000 0.000000 0.000000 0.057482
#
#
# Mechanical properties :
#
#
# Convention : Reuss Voigt Hill
#
# Bulk Modulus (GPa) = 45.40077 62.75785 54.07931
# Shear Modulus (GPa) = 21.78629 27.33489 24.56059
#
# Velocity S-wave (km/s) = 3.34581 3.74773 3.55246
# Velocity P-wave (km/s) = 6.18501 7.13963 6.67939
#
# Compressibility (1/GPa) = 0.02202606
#
# Stress axis : x y z
#
# Youngs Moduli (GPa) = 100.84428 43.44408 105.71563
#
# Poissons Ratio (x) = 0.10770 0.40286
# Poissons Ratio (y) = 0.25001 0.41165
# Poissons Ratio (z) = 0.38429 0.16917
#
# Static dielectric constant tensor:
#      x y z
#    x 3.757440 0.000000 0.000000 
#    y 0.000000 2.956420 0.000000 
#    z 0.000000 0.000000 3.542590 
# 
# 
# High freq. dielectric constant tensor:
#      x y z
#    x 1.766130 0.000000 0.000000 
#    y 0.000000 1.696040 0.000000 
#    z 0.000000 0.000000 1.763910 
# 
# From -- ./inp_files/59367.got.cif
#   From: 2010.03.12/outbox.cif.g09.slc.cpg/sg65_30_cif.got.tgz:59367.got - 2010.04.10 20:52:16.
