data_PCOD8271050
_publ_section_title
;
Structure prediction by ZEFSAII (Michael W. Deem and Ramdas Pophale) SiO2 
 PCOD8271050
Probable space group: C M M M
;
_chemical_formula_sum "Si O2"
_cell_formula_units_Z 96
_cell_length_a 25.488503
_cell_length_b 8.768477
_cell_length_c 25.243895
_cell_angle_alpha 90.000000
_cell_angle_beta 90.000000
_cell_angle_gamma 90.000000
_cell_volume 5641.893207
_symmetry_space_group_name_H-M "C M M M"
_symmetry_group_IT_number 65
_symmetry_cell_setting 'orthorhombic'
loop_
_space_group_symop_operation_xyz
x,y,z
-x,-y,z
x,-y,-z
-x,y,-z
-x,-y,-z
x,y,-z
-x,y,z
x,-y,z
1/2+x,1/2+y,z
1/2-x,1/2-y,z
1/2+x,1/2-y,-z
1/2-x,1/2+y,-z
1/2-x,1/2-y,-z
1/2+x,1/2+y,-z
1/2-x,1/2+y,z
1/2+x,1/2-y,z
loop_
_atom_site_type_symbol
_atom_site_label
_atom_site_fract_x
_atom_site_fract_y
_atom_site_fract_z
Si Si1 0.307858 0.319810 0.134040
Si Si2 0.500000 0.327616 0.062985
Si Si3 0.000000 0.665616 0.437543
Si Si4 0.106840 0.325015 0.062716
Si Si5 0.193225 0.678258 0.761195
Si Si6 0.806674 0.678212 0.355108
Si Si7 0.387595 0.182930 0.440523
O O1 0.303005 0.500000 0.134354
O O2 0.250000 0.250000 0.126442
O O3 0.344640 0.268318 0.086166
O O4 0.334922 0.261648 0.189265
O O5 0.500000 0.500000 0.084797
O O6 0.448159 0.242289 0.084189
O O7 0.500000 0.325515 0.000000
O O8 0.945104 0.750158 0.423060
O O9 0.000000 0.500000 0.409343
O O10 0.000000 0.640402 0.500000
O O11 0.110413 0.500000 0.080668
O O12 0.110453 0.307773 0.000000
O O13 0.196731 0.500000 0.774042
O O14 0.250000 0.750000 0.757509
O O15 0.167672 0.708668 0.703294
O O16 0.799378 0.500000 0.364236
O O17 0.750000 0.750000 0.362195
O O18 0.845190 0.748747 0.399340
O O19 0.372543 0.236902 0.500000
O O20 0.390354 0.000000 0.438575
#
# Coordination Sequence:
#
# PCOD8271050 Si02
#       7
#    16   8   8  16  16  16  16
#     4  11  21  33  50  71  95 123 156 194 237 282
#     4   9  17  31  51  74  99 128 163 198 230 269
#     4   7  10  18  34  55  79 108 141 176 212 251
#     4  10  20  34  52  74 100 129 159 192 232 277
#     4   9  16  28  44  61  84 114 151 188 222 265
#     4   9  17  27  41  62  87 115 144 179 221 266
#     4   8  13  22  37  59  86 113 142 178 220 263
#
# _framework density 17.015564000000001
#
# number of rings (size 3 to 8) (size 9 to 14) (size 15 to 20)
#    0.000    2.833    0.000    4.750    0.000    3.333 
#    0.000    0.000    0.000    1.000    0.000    4.083 
#    0.000    2.000    0.000    0.000    0.000    0.000 
#
# Total GULP energy -594671.839674 kJ/mol
# GULP energy per Si atom -12388.996660 kJ/mol
# Density = 1.697684 g / cm^3
# Si number density = 17.015564 Si / 1000 Ang^3
#
#
#
# Elastic Constant Matrix: (Units=GPa)
#
#
# Indices 1 2 3 4 5 6 
#
# 1 106.9576 40.1037 50.4689 0.0000 0.0000 0.0000
# 2 40.1037 92.6042 36.8823 0.0000 0.0000 0.0000
# 3 50.4689 36.8823 70.0956 0.0000 0.0000 0.0000
# 4 0.0000 0.0000 0.0000 15.9277 0.0000 0.0000
# 5 0.0000 0.0000 0.0000 0.0000 4.8231 0.0000
# 6 0.0000 0.0000 0.0000 0.0000 0.0000 20.4521
#
#
#
# Elastic Compliance Matrix: (Units=1/GPa)
#
#
# Indices 1 2 3 4 5 6 
#
# 1 0.014682 -0.002717 -0.009141 0.000000 0.000000 0.000000
# 2 -0.002717 0.014165 -0.005496 0.000000 0.000000 0.000000
# 3 -0.009141 -0.005496 0.023740 0.000000 0.000000 0.000000
# 4 0.000000 0.000000 0.000000 0.062784 0.000000 0.000000
# 5 0.000000 0.000000 0.000000 0.000000 0.207335 0.000000
# 6 0.000000 0.000000 0.000000 0.000000 0.000000 0.048895
#
#
# Mechanical properties :
#
#
# Convention : Reuss Voigt Hill
#
# Bulk Modulus (GPa) = 55.93983 58.28522 57.11253
# Shear Modulus (GPa) = 12.12803 17.72075 14.92439
#
# Velocity S-wave (km/s) = 2.67265 3.23064 2.96480
# Velocity P-wave (km/s) = 6.51699 6.94583 6.73482
#
# Compressibility (1/GPa) = 0.01787635
#
# Stress axis : x y z
#
# Youngs Moduli (GPa) = 68.11223 70.59849 42.12339
#
# Poissons Ratio (x) = 0.19185 0.38505
# Poissons Ratio (y) = 0.18509 0.23153
# Poissons Ratio (z) = 0.62261 0.38804
#
# Static dielectric constant tensor:
#      x y z
#    x 3.305390 0.000000 0.000000 
#    y 0.000000 3.076850 0.000000 
#    z 0.000000 0.000000 3.589370 
# 
# 
# High freq. dielectric constant tensor:
#      x y z
#    x 1.641340 0.000000 0.000000 
#    y 0.000000 1.642880 0.000000 
#    z 0.000000 0.000000 1.644980 
# 
# From -- ./inp_files/71746.got.cif
#   From: 2010.03.12/outbox.cif.g09.slc.cpg/sg65_36_cif.got.tgz:71746.got - 2010.04.10 20:52:16.
