data_PCOD8271129
_publ_section_title
;
Structure prediction by ZEFSAII (Michael W. Deem and Ramdas Pophale) SiO2 
 PCOD8271129
Probable space group: C M M M
;
_chemical_formula_sum "Si O2"
_cell_formula_units_Z 80
_cell_length_a 7.892228
_cell_length_b 27.149315
_cell_length_c 19.819115
_cell_angle_alpha 90.000000
_cell_angle_beta 90.000000
_cell_angle_gamma 90.000000
_cell_volume 4246.613708
_symmetry_space_group_name_H-M "C M M M"
_symmetry_group_IT_number 65
_symmetry_cell_setting 'orthorhombic'
loop_
_space_group_symop_operation_xyz
x,y,z
-x,-y,z
x,-y,-z
-x,y,-z
-x,-y,-z
x,y,-z
-x,y,z
x,-y,z
1/2+x,1/2+y,z
1/2-x,1/2-y,z
1/2+x,1/2-y,-z
1/2-x,1/2+y,-z
1/2-x,1/2-y,-z
1/2+x,1/2+y,-z
1/2-x,1/2+y,z
1/2+x,1/2-y,z
loop_
_atom_site_type_symbol
_atom_site_label
_atom_site_fract_x
_atom_site_fract_y
_atom_site_fract_z
Si Si1 0.193039 0.695677 0.725192
Si Si2 0.301555 0.553121 0.197848
Si Si3 0.192570 0.098528 0.339399
Si Si4 0.801467 0.693873 0.000000
Si Si5 0.803015 0.152415 0.141133
Si Si6 0.500000 0.943032 0.579636
O O1 0.250000 0.750000 0.703822
O O2 0.299431 0.655719 0.683055
O O3 0.213903 0.689176 0.806135
O O4 0.000000 0.688023 0.704964
O O5 0.500000 0.549551 0.185666
O O6 0.217989 0.500000 0.179554
O O7 0.262034 0.564757 0.275489
O O8 0.228195 0.596997 0.150978
O O9 0.329648 0.084631 0.395813
O O10 0.000000 0.088415 0.365254
O O11 0.750000 0.750000 0.000000
O O12 0.724631 0.668158 0.065036
O O13 0.000000 0.687587 0.000000
O O14 0.000000 0.153257 0.159672
O O15 0.500000 0.938954 0.500000
O O16 0.500000 0.000000 0.603102
#
# Coordination Sequence:
#
# PCOD8271129 Si02
#       6
#    16  16  16   8  16   8
#     4  11  20  34  57  88 118 149 190 242 293 345
#     4   8  15  30  55  82 108 140 181 229 278 330
#     4  10  20  37  59  88 121 156 195 241 292 343
#     4  12  24  38  53  68  97 141 182 229 287 348
#     4  10  20  34  52  78 110 141 186 232 284 342
#     4  11  24  40  60  90 124 159 199 239 284 345
#
# _framework density 18.838538
#
# number of rings (size 3 to 8) (size 9 to 14) (size 15 to 20)
#    0.000    1.900    1.000    5.700    0.000    1.600 
#    0.000    1.500    0.000    3.600    0.000    0.000 
#    0.000    0.000    0.000    0.000    0.000    0.000 
#
# Total GULP energy -495894.977239 kJ/mol
# GULP energy per Si atom -12397.374431 kJ/mol
# Density = 1.879566 g / cm^3
# Si number density = 18.838538 Si / 1000 Ang^3
#
#
#
# Elastic Constant Matrix: (Units=GPa)
#
#
# Indices 1 2 3 4 5 6 
#
# 1 89.9390 27.1008 26.9419 0.0000 0.0000 0.0000
# 2 27.1008 143.4994 44.2951 0.0000 0.0000 0.0000
# 3 26.9419 44.2951 79.9919 0.0000 0.0000 0.0000
# 4 0.0000 0.0000 0.0000 18.5232 0.0000 0.0000
# 5 0.0000 0.0000 0.0000 0.0000 27.1455 0.0000
# 6 0.0000 0.0000 0.0000 0.0000 0.0000 19.1978
#
#
#
# Elastic Compliance Matrix: (Units=1/GPa)
#
#
# Indices 1 2 3 4 5 6 
#
# 1 0.012560 -0.001286 -0.003518 0.000000 0.000000 0.000000
# 2 -0.001286 0.008537 -0.004294 0.000000 0.000000 0.000000
# 3 -0.003518 -0.004294 0.016064 0.000000 0.000000 0.000000
# 4 0.000000 0.000000 0.000000 0.053986 0.000000 0.000000
# 5 0.000000 0.000000 0.000000 0.000000 0.036838 0.000000
# 6 0.000000 0.000000 0.000000 0.000000 0.000000 0.052089
#
#
# Mechanical properties :
#
#
# Convention : Reuss Voigt Hill
#
# Bulk Modulus (GPa) = 52.73052 56.67845 54.70448
# Shear Modulus (GPa) = 24.43869 27.31281 25.87575
#
# Velocity S-wave (km/s) = 3.60567 3.81180 3.71017
# Velocity P-wave (km/s) = 6.73692 7.03739 6.88879
#
# Compressibility (1/GPa) = 0.01896435
#
# Stress axis : x y z
#
# Youngs Moduli (GPa) = 79.61744 117.13606 62.25059
#
# Poissons Ratio (x) = 0.15064 0.21901
# Poissons Ratio (y) = 0.10239 0.26732
# Poissons Ratio (z) = 0.28011 0.50301
#
# Static dielectric constant tensor:
#      x y z
#    x 3.507300 0.000000 0.000000 
#    y 0.000000 3.843230 0.000000 
#    z 0.000000 0.000000 3.170570 
# 
# 
# High freq. dielectric constant tensor:
#      x y z
#    x 1.735820 0.000000 0.000000 
#    y 0.000000 1.747610 0.000000 
#    z 0.000000 0.000000 1.694180 
# 
# From -- ./inp_files/49916.got.cif
#   From: 2010.03.12/outbox.cif.g09.slc.cpg/sg65_25_cif.got.tgz:49916.got - 2010.04.10 20:52:16.
