data_PCOD8271470
_publ_section_title
;
Structure prediction by ZEFSAII (Michael W. Deem and Ramdas Pophale) SiO2 
 PCOD8271470
Probable space group: C M M M
;
_chemical_formula_sum "Si O2"
_cell_formula_units_Z 80
_cell_length_a 17.968542
_cell_length_b 8.829558
_cell_length_c 25.460981
_cell_angle_alpha 90.000000
_cell_angle_beta 90.000000
_cell_angle_gamma 90.000000
_cell_volume 4039.493704
_symmetry_space_group_name_H-M "C M M M"
_symmetry_group_IT_number 65
_symmetry_cell_setting 'orthorhombic'
loop_
_space_group_symop_operation_xyz
x,y,z
-x,-y,z
x,-y,-z
-x,y,-z
-x,-y,-z
x,y,-z
-x,y,z
x,-y,z
1/2+x,1/2+y,z
1/2-x,1/2-y,z
1/2+x,1/2-y,-z
1/2-x,1/2+y,-z
1/2-x,1/2-y,-z
1/2+x,1/2+y,-z
1/2-x,1/2+y,z
1/2+x,1/2-y,z
loop_
_atom_site_type_symbol
_atom_site_label
_atom_site_fract_x
_atom_site_fract_y
_atom_site_fract_z
Si Si1 0.827965 0.177161 0.560715
Si Si2 0.088464 0.170379 0.057587
Si Si3 0.588398 0.829515 0.160666
Si Si4 0.670356 0.321596 0.253703
Si Si5 0.085926 0.322609 0.349952
O O1 0.844988 0.210604 0.500000
O O2 0.750000 0.250000 0.578088
O O3 0.893975 0.254370 0.593346
O O4 0.824515 0.000000 0.572872
O O5 0.119533 0.278023 0.103657
O O6 0.000000 0.171229 0.058806
O O7 0.117580 0.000000 0.067328
O O8 0.115749 0.228183 0.000000
O O9 0.500000 0.821262 0.161901
O O10 0.617871 0.717575 0.204943
O O11 0.616418 0.000000 0.171543
O O12 0.677863 0.500000 0.259395
O O13 0.750000 0.250000 0.243049
O O14 0.636270 0.256815 0.306795
O O15 0.102662 0.500000 0.349529
O O16 0.000000 0.288429 0.337885
#
# Coordination Sequence:
#
# PCOD8271470 Si02
#       5
#    16  16  16  16  16
#     4  10  21  38  61  88 119 155 194 234 276 327
#     4   8  14  26  46  74 108 145 185 227 271 322
#     4  10  20  34  54  82 115 147 183 229 278 329
#     4  12  25  41  61  82 109 145 186 231 280 337
#     4  11  24  41  61  86 117 150 186 231 281 332
#
# _framework density 19.804462999999998
#
# number of rings (size 3 to 8) (size 9 to 14) (size 15 to 20)
#    0.000    1.800    0.000    5.400    0.000    7.200 
#    0.000    4.000    0.000    0.600    0.000    0.000 
#    0.000    0.000    0.000    0.000    0.000    0.000 
#
# Total GULP energy -496088.370439 kJ/mol
# GULP energy per Si atom -12402.209261 kJ/mol
# Density = 1.975939 g / cm^3
# Si number density = 19.804463 Si / 1000 Ang^3
#
#
#
# Elastic Constant Matrix: (Units=GPa)
#
#
# Indices 1 2 3 4 5 6 
#
# 1 35.5734 34.9610 24.8238 0.0000 0.0000 0.0000
# 2 34.9610 124.8163 48.7295 0.0000 0.0000 0.0000
# 3 24.8238 48.7295 113.6065 0.0000 0.0000 0.0000
# 4 0.0000 0.0000 0.0000 38.8840 0.0000 0.0000
# 5 0.0000 0.0000 0.0000 0.0000 3.0998 0.0000
# 6 0.0000 0.0000 0.0000 0.0000 0.0000 29.6007
#
#
#
# Elastic Compliance Matrix: (Units=1/GPa)
#
#
# Indices 1 2 3 4 5 6 
#
# 1 0.040882 -0.009565 -0.004830 0.000000 0.000000 0.000000
# 2 -0.009565 0.011861 -0.002998 0.000000 0.000000 0.000000
# 3 -0.004830 -0.002998 0.011144 0.000000 0.000000 0.000000
# 4 0.000000 0.000000 0.000000 0.025718 0.000000 0.000000
# 5 0.000000 0.000000 0.000000 0.000000 0.322601 0.000000
# 6 0.000000 0.000000 0.000000 0.000000 0.000000 0.033783
#
#
# Mechanical properties :
#
#
# Convention : Reuss Voigt Hill
#
# Bulk Modulus (GPa) = 34.36335 54.55834 44.46084
# Shear Modulus (GPa) = 10.19421 25.34902 17.77162
#
# Velocity S-wave (km/s) = 2.27126 3.58154 2.99884
# Velocity P-wave (km/s) = 4.92617 6.68667 5.87276
#
# Compressibility (1/GPa) = 0.02910077
#
# Stress axis : x y z
#
# Youngs Moduli (GPa) = 24.46054 84.30766 89.73837
#
# Poissons Ratio (x) = 0.80643 0.43345
# Poissons Ratio (y) = 0.23397 0.26900
# Poissons Ratio (z) = 0.11815 0.25272
#
# Static dielectric constant tensor:
#      x y z
#    x 3.349310 0.000000 0.000000 
#    y 0.000000 3.782340 0.000000 
#    z 0.000000 0.000000 3.903100 
# 
# 
# High freq. dielectric constant tensor:
#      x y z
#    x 1.744330 0.000000 0.000000 
#    y 0.000000 1.783660 0.000000 
#    z 0.000000 0.000000 1.790660 
# 
# From -- ./inp_files/75028.got.cif
#   From: 2010.03.12/outbox.cif.g09.slc.cpg/sg65_38_cif.got.tgz:75028.got - 2010.04.10 20:52:16.
