data_PCOD8271901
_publ_section_title
;
Structure prediction by ZEFSAII (Michael W. Deem and Ramdas Pophale) SiO2 
 PCOD8271901
Probable space group: C M M M
;
_chemical_formula_sum "Si O2"
_cell_formula_units_Z 88
_cell_length_a 20.017472
_cell_length_b 17.404646
_cell_length_c 13.110284
_cell_angle_alpha 90.000000
_cell_angle_beta 90.000000
_cell_angle_gamma 90.000000
_cell_volume 4567.583798
_symmetry_space_group_name_H-M "C M M M"
_symmetry_group_IT_number 65
_symmetry_cell_setting 'orthorhombic'
loop_
_space_group_symop_operation_xyz
x,y,z
-x,-y,z
x,-y,-z
-x,y,-z
-x,-y,-z
x,y,-z
-x,y,z
x,-y,z
1/2+x,1/2+y,z
1/2-x,1/2-y,z
1/2+x,1/2-y,-z
1/2-x,1/2+y,-z
1/2-x,1/2-y,-z
1/2+x,1/2+y,-z
1/2-x,1/2+y,z
1/2+x,1/2-y,z
loop_
_atom_site_type_symbol
_atom_site_label
_atom_site_fract_x
_atom_site_fract_y
_atom_site_fract_z
Si Si1 0.000000 0.913601 0.120932
Si Si2 0.301714 0.413894 0.261571
Si Si3 0.074055 0.864925 0.380806
Si Si4 0.076772 0.293903 0.721344
Si Si5 0.170961 0.590150 0.617127
Si Si6 0.626637 0.687438 0.880103
O O1 0.065408 0.867202 0.155806
O O2 0.000000 0.000000 0.165890
O O3 0.000000 0.917441 0.000000
O O4 0.289407 0.500000 0.219660
O O5 0.368718 0.415161 0.329005
O O6 0.240673 0.385746 0.331238
O O7 0.307983 0.355042 0.165814
O O8 0.077698 0.879881 0.500000
O O9 0.085565 0.774763 0.359483
O O10 0.000000 0.889640 0.339338
O O11 0.110681 0.369312 0.675937
O O12 0.113220 0.269820 0.827793
O O13 0.000000 0.314099 0.743584
O O14 0.173362 0.617041 0.500000
O O15 0.158016 0.500000 0.625551
O O16 0.634569 0.698775 0.000000
#
# Coordination Sequence:
#
# PCOD8271901 Si02
#       6
#     8  16  16  16  16  16
#     4   9  16  28  50  80 110 143 184 224 262 309
#     4  10  21  35  52  77 113 151 187 230 277 330
#     4   9  18  31  48  74 107 143 182 222 271 333
#     4  10  20  36  58  83 111 140 181 240 294 341
#     4  10  22  40  60  82 109 144 187 236 294 351
#     4  10  20  35  56  83 113 150 189 226 274 326
#
# _framework density 19.266204999999999
#
# number of rings (size 3 to 8) (size 9 to 14) (size 15 to 20)
#    0.000    2.273    0.909    1.636    1.273    6.909 
#    0.000    8.182    0.000    1.636    0.000    1.273 
#    0.000    0.000    0.000    0.000    0.000    0.000 
#
# Total GULP energy -545610.576715 kJ/mol
# GULP energy per Si atom -12400.240380 kJ/mol
# Density = 1.922235 g / cm^3
# Si number density = 19.266205 Si / 1000 Ang^3
#
#
#
# Elastic Constant Matrix: (Units=GPa)
#
#
# Indices 1 2 3 4 5 6 
#
# 1 85.4424 41.2103 52.2151 0.0000 0.0000 0.0000
# 2 41.2103 61.7754 42.4884 0.0000 0.0000 0.0000
# 3 52.2151 42.4884 121.0375 0.0000 0.0000 0.0000
# 4 0.0000 0.0000 0.0000 26.4144 0.0000 0.0000
# 5 0.0000 0.0000 0.0000 0.0000 27.2441 0.0000
# 6 0.0000 0.0000 0.0000 0.0000 0.0000 26.0976
#
#
#
# Elastic Compliance Matrix: (Units=1/GPa)
#
#
# Indices 1 2 3 4 5 6 
#
# 1 0.019326 -0.009436 -0.005025 0.000000 0.000000 0.000000
# 2 -0.009436 0.025947 -0.005038 0.000000 0.000000 0.000000
# 3 -0.005025 -0.005038 0.012198 0.000000 0.000000 0.000000
# 4 0.000000 0.000000 0.000000 0.037858 0.000000 0.000000
# 5 0.000000 0.000000 0.000000 0.000000 0.036705 0.000000
# 6 0.000000 0.000000 0.000000 0.000000 0.000000 0.038318
#
#
# Mechanical properties :
#
#
# Convention : Reuss Voigt Hill
#
# Bulk Modulus (GPa) = 54.13029 60.00923 57.06976
# Shear Modulus (GPa) = 23.20110 24.77399 23.98755
#
# Velocity S-wave (km/s) = 3.47398 3.58980 3.53237
# Velocity P-wave (km/s) = 6.65194 6.95682 6.80609
#
# Compressibility (1/GPa) = 0.01847394
#
# Stress axis : x y z
#
# Youngs Moduli (GPa) = 51.74479 38.53941 81.98143
#
# Poissons Ratio (x) = 0.36367 0.41192
# Poissons Ratio (y) = 0.48828 0.41300
# Poissons Ratio (z) = 0.25999 0.19415
#
# Static dielectric constant tensor:
#      x y z
#    x 3.505250 0.000000 0.000000 
#    y 0.000000 3.299240 0.000000 
#    z 0.000000 0.000000 3.539500 
# 
# 
# High freq. dielectric constant tensor:
#      x y z
#    x 1.742980 0.000000 0.000000 
#    y 0.000000 1.729950 0.000000 
#    z 0.000000 0.000000 1.755580 
# 
# From -- ./inp_files/43988.got.cif
#   From: 2010.03.12/outbox.cif.g09.slc.cpg/sg65_22_cif.got.tgz:43988.got - 2010.04.10 20:52:16.
