data_PCOD8271419
_publ_section_title
;
Structure prediction by ZEFSAII (Michael W. Deem and Ramdas Pophale) SiO2 
 PCOD8271419
Probable space group: C M M M
;
_chemical_formula_sum "Si O2"
_cell_formula_units_Z 104
_cell_length_a 21.212709
_cell_length_b 9.310857
_cell_length_c 26.831941
_cell_angle_alpha 90.000000
_cell_angle_beta 90.000000
_cell_angle_gamma 90.000000
_cell_volume 5299.536421
_symmetry_space_group_name_H-M "C M M M"
_symmetry_group_IT_number 65
_symmetry_cell_setting 'orthorhombic'
loop_
_space_group_symop_operation_xyz
x,y,z
-x,-y,z
x,-y,-z
-x,y,-z
-x,-y,-z
x,y,-z
-x,y,z
x,-y,z
1/2+x,1/2+y,z
1/2-x,1/2-y,z
1/2+x,1/2-y,-z
1/2-x,1/2+y,-z
1/2-x,1/2-y,-z
1/2+x,1/2+y,-z
1/2-x,1/2+y,z
1/2+x,1/2-y,z
loop_
_atom_site_type_symbol
_atom_site_label
_atom_site_fract_x
_atom_site_fract_y
_atom_site_fract_z
Si Si1 0.310860 0.164302 0.738116
Si Si2 0.878579 0.664515 0.361043
Si Si3 0.633458 0.662366 0.820841
Si Si4 0.000000 0.842160 0.797883
Si Si5 0.185390 0.170278 0.925311
Si Si6 0.000000 0.330443 0.301826
Si Si7 0.685958 0.665734 0.556989
Si Si8 0.925175 0.830956 0.000000
O O1 0.250000 0.250000 0.753995
O O2 0.322870 0.180222 0.679263
O O3 0.363790 0.233885 0.772855
O O4 0.303554 0.000000 0.753321
O O5 0.884960 0.500000 0.379351
O O6 0.940546 0.720927 0.333738
O O7 0.867608 0.765821 0.408476
O O8 0.652520 0.500000 0.805797
O O9 0.559611 0.672827 0.834771
O O10 0.675083 0.712970 0.867562
O O11 0.000000 0.730803 0.753014
O O12 0.000000 0.000000 0.772492
O O13 0.250000 0.250000 0.943720
O O14 0.120327 0.217062 0.953577
O O15 0.195848 0.000000 0.932666
O O16 0.000000 0.500000 0.294993
O O17 0.663787 0.682451 0.500000
O O18 0.696925 0.500000 0.571115
O O19 0.750000 0.750000 0.567064
O O20 0.000000 0.769706 0.000000
O O21 0.933295 0.000000 0.000000
#
# Coordination Sequence:
#
# PCOD8271419 Si02
#       8
#    16  16  16   8  16   8  16   8
#     4  11  22  35  53  78 110 145 183 227 275 331
#     4  10  21  36  56  80 107 142 181 224 270 325
#     4  10  21  35  54  82 114 147 187 231 280 335
#     4  10  20  34  54  80 111 148 188 233 279 326
#     4  10  21  37  59  86 116 152 192 239 290 345
#     4  10  20  38  57  79 109 144 185 224 267 324
#     4  10  21  37  58  83 110 140 177 223 274 327
#     4   9  19  36  61  89 114 147 194 244 292 341
#
# _framework density 19.624358999999998
#
# number of rings (size 3 to 8) (size 9 to 14) (size 15 to 20)
#    0.000    1.923    1.538    2.077    1.077    5.846 
#    0.000    0.385    0.000    3.231    0.000    0.000 
#    0.000    0.000    0.000    0.000    0.000    0.000 
#
# Total GULP energy -644355.164547 kJ/mol
# GULP energy per Si atom -12391.445472 kJ/mol
# Density = 1.957969 g / cm^3
# Si number density = 19.624359 Si / 1000 Ang^3
#
#
#
# Elastic Constant Matrix: (Units=GPa)
#
#
# Indices 1 2 3 4 5 6 
#
# 1 116.5496 35.8498 29.8555 0.0000 0.0000 0.0000
# 2 35.8498 85.6793 43.4588 0.0000 0.0000 0.0000
# 3 29.8555 43.4588 87.4842 0.0000 0.0000 0.0000
# 4 0.0000 0.0000 0.0000 21.5412 0.0000 0.0000
# 5 0.0000 0.0000 0.0000 0.0000 20.3166 0.0000
# 6 0.0000 0.0000 0.0000 0.0000 0.0000 26.8997
#
#
#
# Elastic Compliance Matrix: (Units=1/GPa)
#
#
# Indices 1 2 3 4 5 6 
#
# 1 0.010054 -0.003297 -0.001793 0.000000 0.000000 0.000000
# 2 -0.003297 0.016684 -0.007163 0.000000 0.000000 0.000000
# 3 -0.001793 -0.007163 0.015601 0.000000 0.000000 0.000000
# 4 0.000000 0.000000 0.000000 0.046423 0.000000 0.000000
# 5 0.000000 0.000000 0.000000 0.000000 0.049221 0.000000
# 6 0.000000 0.000000 0.000000 0.000000 0.000000 0.037175
#
#
# Mechanical properties :
#
#
# Convention : Reuss Voigt Hill
#
# Bulk Modulus (GPa) = 56.07758 56.44902 56.26330
# Shear Modulus (GPa) = 24.31820 25.78810 25.05315
#
# Velocity S-wave (km/s) = 3.52402 3.62897 3.57688
# Velocity P-wave (km/s) = 6.72279 6.81076 6.76691
#
# Compressibility (1/GPa) = 0.01783244
#
# Stress axis : x y z
#
# Youngs Moduli (GPa) = 99.46772 59.93698 64.09934
#
# Poissons Ratio (x) = 0.19762 0.11493
# Poissons Ratio (y) = 0.32795 0.45914
# Poissons Ratio (z) = 0.17835 0.42932
#
# Static dielectric constant tensor:
#      x y z
#    x 3.845060 0.000000 0.000000 
#    y 0.000000 3.483640 0.000000 
#    z 0.000000 0.000000 3.443100 
# 
# 
# High freq. dielectric constant tensor:
#      x y z
#    x 1.771690 0.000000 0.000000 
#    y 0.000000 1.751120 0.000000 
#    z 0.000000 0.000000 1.759730 
# 
# From -- ./inp_files/75578.got.cif
#   From: 2010.03.12/outbox.cif.g09.slc.cpg/sg65_38_cif.got.tgz:75578.got - 2010.04.10 20:52:16.
