data_PCOD8271503
_publ_section_title
;
Structure prediction by ZEFSAII (Michael W. Deem and Ramdas Pophale) SiO2 
 PCOD8271503
Probable space group: C M M M
;
_chemical_formula_sum "Si O2"
_cell_formula_units_Z 96
_cell_length_a 19.103381
_cell_length_b 29.224085
_cell_length_c 9.454670
_cell_angle_alpha 90.000000
_cell_angle_beta 90.000000
_cell_angle_gamma 90.000000
_cell_volume 5278.342107
_symmetry_space_group_name_H-M "C M M M"
_symmetry_group_IT_number 65
_symmetry_cell_setting 'orthorhombic'
loop_
_space_group_symop_operation_xyz
x,y,z
-x,-y,z
x,-y,-z
-x,y,-z
-x,-y,-z
x,y,-z
-x,y,z
x,-y,z
1/2+x,1/2+y,z
1/2-x,1/2-y,z
1/2+x,1/2-y,-z
1/2-x,1/2+y,-z
1/2-x,1/2-y,-z
1/2+x,1/2+y,-z
1/2-x,1/2+y,z
1/2+x,1/2-y,z
loop_
_atom_site_type_symbol
_atom_site_label
_atom_site_fract_x
_atom_site_fract_y
_atom_site_fract_z
Si Si1 0.919464 0.294265 0.165222
Si Si2 0.078798 0.446110 0.657240
Si Si3 0.831209 0.382809 0.166359
Si Si4 0.824724 0.768978 0.338002
Si Si5 0.078192 0.051199 0.667670
Si Si6 0.309433 0.624855 0.663105
O O1 0.876284 0.338843 0.210349
O O2 0.888048 0.251464 0.248254
O O3 0.000000 0.301311 0.208982
O O4 0.911988 0.284172 0.000000
O O5 0.101492 0.429334 0.500000
O O6 0.084021 0.500000 0.664826
O O7 0.128579 0.427018 0.778129
O O8 0.000000 0.429738 0.688486
O O9 0.756919 0.381736 0.239549
O O10 0.820676 0.386722 0.000000
O O11 0.832852 0.753237 0.500000
O O12 0.750000 0.750000 0.280268
O O13 0.834076 0.823098 0.321697
O O14 0.075857 0.053125 0.500000
O O15 0.131210 0.090252 0.722547
O O16 0.000000 0.061314 0.726958
O O17 0.102240 0.000000 0.716182
O O18 0.290774 0.613685 0.500000
#
# Coordination Sequence:
#
# PCOD8271503 Si02
#       6
#    16  16  16  16  16  16
#     4  10  22  38  55  77 106 143 185 224 268 327
#     4   9  19  36  56  77 103 138 180 225 272 320
#     4  11  22  35  53  78 110 145 180 221 269 321
#     4  10  20  35  54  78 108 141 179 225 277 326
#     4   8  15  30  53  80 107 135 171 219 274 326
#     4  10  20  34  55  81 109 140 179 222 268 327
#
# _framework density 18.187529000000001
#
# number of rings (size 3 to 8) (size 9 to 14) (size 15 to 20)
#    0.000    2.333    1.667    2.000    0.000    4.667 
#    0.000    4.167    0.000    0.500    0.000    1.167 
#    0.000    0.000    0.000    0.000    0.000    0.000 
#
# Total GULP energy -595168.077330 kJ/mol
# GULP energy per Si atom -12399.334944 kJ/mol
# Density = 1.814613 g / cm^3
# Si number density = 18.187529 Si / 1000 Ang^3
#
#
#
# Elastic Constant Matrix: (Units=GPa)
#
#
# Indices 1 2 3 4 5 6 
#
# 1 144.5811 72.3921 56.8577 0.0000 0.0000 0.0000
# 2 72.3921 96.7830 42.2408 0.0000 0.0000 0.0000
# 3 56.8577 42.2408 59.2887 0.0000 0.0000 0.0000
# 4 0.0000 0.0000 0.0000 23.3756 0.0000 0.0000
# 5 0.0000 0.0000 0.0000 0.0000 4.6179 0.0000
# 6 0.0000 0.0000 0.0000 0.0000 0.0000 39.8006
#
#
#
# Elastic Compliance Matrix: (Units=1/GPa)
#
#
# Indices 1 2 3 4 5 6 
#
# 1 0.013367 -0.006391 -0.008266 0.000000 0.000000 0.000000
# 2 -0.006391 0.018051 -0.006732 0.000000 0.000000 0.000000
# 3 -0.008266 -0.006732 0.029589 0.000000 0.000000 0.000000
# 4 0.000000 0.000000 0.000000 0.042780 0.000000 0.000000
# 5 0.000000 0.000000 0.000000 0.000000 0.216548 0.000000
# 6 0.000000 0.000000 0.000000 0.000000 0.000000 0.025125
#
#
# Mechanical properties :
#
#
# Convention : Reuss Voigt Hill
#
# Bulk Modulus (GPa) = 54.85219 71.51488 63.18353
# Shear Modulus (GPa) = 12.68029 22.16964 17.42497
#
# Velocity S-wave (km/s) = 2.64331 3.49513 3.09863
# Velocity P-wave (km/s) = 6.28815 7.46285 6.90054
#
# Compressibility (1/GPa) = 0.01823081
#
# Stress axis : x y z
#
# Youngs Moduli (GPa) = 74.81147 55.40004 33.79586
#
# Poissons Ratio (x) = 0.35404 0.27935
# Poissons Ratio (y) = 0.47810 0.22750
# Poissons Ratio (z) = 0.61837 0.37293
#
# Static dielectric constant tensor:
#      x y z
#    x 3.483760 0.000000 0.000000 
#    y 0.000000 3.485470 0.000000 
#    z 0.000000 0.000000 3.191240 
# 
# 
# High freq. dielectric constant tensor:
#      x y z
#    x 1.707850 0.000000 0.000000 
#    y 0.000000 1.709860 0.000000 
#    z 0.000000 0.000000 1.683120 
# 
# From -- ./inp_files/12226.got.cif
#   From: 2010.03.12/outbox.cif.g09.slc.cpg/sg65_7_cif.got.tgz:12226.got - 2010.04.10 20:52:16.
