data_PCOD8271759
_publ_section_title
;
Structure prediction by ZEFSAII (Michael W. Deem and Ramdas Pophale) SiO2 
 PCOD8271759
Probable space group: C M M M
;
_chemical_formula_sum "Si O2"
_cell_formula_units_Z 80
_cell_length_a 8.795041
_cell_length_b 26.763125
_cell_length_c 18.490796
_cell_angle_alpha 90.000000
_cell_angle_beta 90.000000
_cell_angle_gamma 90.000000
_cell_volume 4352.414998
_symmetry_space_group_name_H-M "C M M M"
_symmetry_group_IT_number 65
_symmetry_cell_setting 'orthorhombic'
loop_
_space_group_symop_operation_xyz
x,y,z
-x,-y,z
x,-y,-z
-x,y,-z
-x,-y,-z
x,y,-z
-x,y,z
x,-y,z
1/2+x,1/2+y,z
1/2-x,1/2-y,z
1/2+x,1/2-y,-z
1/2-x,1/2+y,-z
1/2-x,1/2-y,-z
1/2+x,1/2+y,-z
1/2-x,1/2+y,z
1/2+x,1/2-y,z
loop_
_atom_site_type_symbol
_atom_site_label
_atom_site_fract_x
_atom_site_fract_y
_atom_site_fract_z
Si Si1 0.826319 0.555677 0.275830
Si Si2 0.679375 0.304638 0.500000
Si Si3 0.822176 0.347027 0.641485
Si Si4 0.821026 0.443743 0.000000
Si Si5 0.824729 0.099064 0.140502
Si Si6 0.678035 0.699551 0.779784
O O1 0.799179 0.500000 0.306920
O O2 0.787215 0.595226 0.338588
O O3 0.720863 0.563050 0.206253
O O4 0.000000 0.563257 0.250222
O O5 0.500000 0.299035 0.500000
O O6 0.750000 0.250000 0.500000
O O7 0.731257 0.335647 0.569298
O O8 0.763461 0.311333 0.704896
O O9 0.000000 0.337006 0.629109
O O10 0.770208 0.413496 0.070009
O O11 0.752209 0.500000 0.000000
O O12 0.000000 0.446787 0.000000
O O13 0.790611 0.156252 0.162072
O O14 0.000000 0.090245 0.122809
O O15 0.500000 0.705593 0.764036
O O16 0.750000 0.750000 0.812588
#
# Coordination Sequence:
#
# PCOD8271759 Si02
#       6
#    16   8  16   8  16  16
#     4   9  18  34  56  80 106 138 175 213 254 304
#     4  12  24  38  55  76 105 137 172 215 263 312
#     4  10  20  35  55  79 107 138 174 214 257 306
#     4  11  23  37  54  77 106 139 174 213 258 309
#     4  10  21  35  53  79 108 137 173 216 259 307
#     4  10  20  35  55  79 106 137 174 214 258 307
#
# _framework density 18.380600999999999
#
# number of rings (size 3 to 8) (size 9 to 14) (size 15 to 20)
#    0.000    1.900    0.000    4.200    0.000    6.800 
#    0.000    1.000    0.000    3.000    0.000    0.000 
#    0.000    0.000    0.000    0.000    0.000    0.000 
#
# Total GULP energy -496140.922655 kJ/mol
# GULP energy per Si atom -12403.523066 kJ/mol
# Density = 1.833877 g / cm^3
# Si number density = 18.380601 Si / 1000 Ang^3
#
#
#
# Elastic Constant Matrix: (Units=GPa)
#
#
# Indices 1 2 3 4 5 6 
#
# 1 103.3165 52.8613 54.5223 0.0000 0.0000 0.0000
# 2 52.8613 138.5630 58.6020 0.0000 0.0000 0.0000
# 3 54.5223 58.6020 116.5469 0.0000 0.0000 0.0000
# 4 0.0000 0.0000 0.0000 23.3048 0.0000 0.0000
# 5 0.0000 0.0000 0.0000 0.0000 36.0120 0.0000
# 6 0.0000 0.0000 0.0000 0.0000 0.0000 28.8526
#
#
#
# Elastic Compliance Matrix: (Units=1/GPa)
#
#
# Indices 1 2 3 4 5 6 
#
# 1 0.013913 -0.003245 -0.004877 0.000000 0.000000 0.000000
# 2 -0.003245 0.009923 -0.003471 0.000000 0.000000 0.000000
# 3 -0.004877 -0.003471 0.012607 0.000000 0.000000 0.000000
# 4 0.000000 0.000000 0.000000 0.042910 0.000000 0.000000
# 5 0.000000 0.000000 0.000000 0.000000 0.027769 0.000000
# 6 0.000000 0.000000 0.000000 0.000000 0.000000 0.034659
#
#
# Mechanical properties :
#
#
# Convention : Reuss Voigt Hill
#
# Bulk Modulus (GPa) = 75.43582 76.71083 76.07332
# Shear Modulus (GPa) = 29.51832 30.46327 29.99079
#
# Velocity S-wave (km/s) = 4.01178 4.07548 4.04376
# Velocity P-wave (km/s) = 7.91134 7.99821 7.95489
#
# Compressibility (1/GPa) = 0.01325630
#
# Stress axis : x y z
#
# Youngs Moduli (GPa) = 71.87498 100.77507 79.31956
#
# Poissons Ratio (x) = 0.32703 0.38684
# Poissons Ratio (y) = 0.23325 0.27535
# Poissons Ratio (z) = 0.35053 0.34983
#
# Static dielectric constant tensor:
#      x y z
#    x 3.521230 0.000000 0.000000 
#    y 0.000000 3.579430 0.000000 
#    z 0.000000 0.000000 3.263960 
# 
# 
# High freq. dielectric constant tensor:
#      x y z
#    x 1.727060 0.000000 0.000000 
#    y 0.000000 1.723690 0.000000 
#    z 0.000000 0.000000 1.695900 
# 
# From -- ./inp_files/49899.got.cif
#   From: 2010.03.12/outbox.cif.g09.slc.cpg/sg65_25_cif.got.tgz:49899.got - 2010.04.10 20:52:16.
