data_PCOD8271539
_publ_section_title
;
Structure prediction by ZEFSAII (Michael W. Deem and Ramdas Pophale) SiO2 
 PCOD8271539
Probable space group: C M M M
;
_chemical_formula_sum "Si O2"
_cell_formula_units_Z 72
_cell_length_a 17.749363
_cell_length_b 9.995996
_cell_length_c 21.580999
_cell_angle_alpha 90.000000
_cell_angle_beta 90.000000
_cell_angle_gamma 90.000000
_cell_volume 3828.956123
_symmetry_space_group_name_H-M "C M M M"
_symmetry_group_IT_number 65
_symmetry_cell_setting 'orthorhombic'
loop_
_space_group_symop_operation_xyz
x,y,z
-x,-y,z
x,-y,-z
-x,y,-z
-x,-y,-z
x,y,-z
-x,y,z
x,-y,z
1/2+x,1/2+y,z
1/2-x,1/2-y,z
1/2+x,1/2-y,-z
1/2-x,1/2+y,-z
1/2-x,1/2-y,-z
1/2+x,1/2+y,-z
1/2-x,1/2+y,z
1/2+x,1/2-y,z
loop_
_atom_site_type_symbol
_atom_site_label
_atom_site_fract_x
_atom_site_fract_y
_atom_site_fract_z
Si Si1 0.178055 0.657674 0.881869
Si Si2 0.317303 0.500000 0.426155
Si Si3 0.086430 0.234563 0.630230
Si Si4 0.913675 0.348122 0.239633
Si Si5 0.144461 0.500000 0.572976
Si Si6 0.916913 0.657786 0.000000
O O1 0.198538 0.500000 0.885912
O O2 0.250000 0.750000 0.885570
O O3 0.136739 0.693529 0.818159
O O4 0.126089 0.704281 0.938568
O O5 0.324713 0.500000 0.500000
O O6 0.356780 0.629671 0.398782
O O7 0.230929 0.500000 0.403540
O O8 0.104406 0.250195 0.703196
O O9 0.098530 0.373470 0.596139
O O10 0.000000 0.188471 0.620524
O O11 0.896408 0.500000 0.260825
O O12 0.000000 0.334883 0.218610
O O13 0.144862 0.500000 0.500000
O O14 0.924766 0.500000 0.000000
O O15 0.000000 0.723455 0.000000
#
# Coordination Sequence:
#
# PCOD8271539 Si02
#       6
#    16   8  16  16   8   8
#     4  10  20  34  55  84 116 148 185 231 278 329
#     4  11  25  41  57  83 121 152 179 230 301 357
#     4  11  22  39  61  85 111 146 193 239 284 341
#     4   9  18  36  58  80 107 142 187 235 277 324
#     4  11  23  39  59  83 111 148 189 232 281 345
#     4   9  17  32  57  85 110 149 198 236 272 317
#
# _framework density 18.804079999999999
#
# number of rings (size 3 to 8) (size 9 to 14) (size 15 to 20)
#    0.000    1.889    1.111    3.000    0.000    8.889 
#    2.000    0.000    0.000    2.667    0.000    0.000 
#    0.000    0.000    0.000    0.000    0.000    0.000 
#
# Total GULP energy -446453.672259 kJ/mol
# GULP energy per Si atom -12401.490896 kJ/mol
# Density = 1.876128 g / cm^3
# Si number density = 18.804080 Si / 1000 Ang^3
#
#
#
# Elastic Constant Matrix: (Units=GPa)
#
#
# Indices 1 2 3 4 5 6 
#
# 1 101.8774 18.8917 58.0589 0.0000 0.0000 0.0000
# 2 18.8917 55.8715 26.1970 0.0000 0.0000 0.0000
# 3 58.0589 26.1970 106.2403 0.0000 0.0000 0.0000
# 4 0.0000 0.0000 0.0000 22.7481 0.0000 0.0000
# 5 0.0000 0.0000 0.0000 0.0000 90.1232 0.0000
# 6 0.0000 0.0000 0.0000 0.0000 0.0000 32.1879
#
#
#
# Elastic Compliance Matrix: (Units=1/GPa)
#
#
# Indices 1 2 3 4 5 6 
#
# 1 0.014342 -0.001328 -0.007510 0.000000 0.000000 0.000000
# 2 -0.001328 0.020361 -0.004295 0.000000 0.000000 0.000000
# 3 -0.007510 -0.004295 0.014576 0.000000 0.000000 0.000000
# 4 0.000000 0.000000 0.000000 0.043960 0.000000 0.000000
# 5 0.000000 0.000000 0.000000 0.000000 0.011096 0.000000
# 6 0.000000 0.000000 0.000000 0.000000 0.000000 0.031068
#
#
# Mechanical properties :
#
#
# Convention : Reuss Voigt Hill
#
# Bulk Modulus (GPa) = 43.45451 52.25382 47.85417
# Shear Modulus (GPa) = 29.52650 39.73461 34.63055
#
# Velocity S-wave (km/s) = 3.96690 4.60182 4.29610
# Velocity P-wave (km/s) = 6.64386 7.48896 7.07903
#
# Compressibility (1/GPa) = 0.02301257
#
# Stress axis : x y z
#
# Youngs Moduli (GPa) = 69.72536 49.11334 68.60631
#
# Poissons Ratio (x) = 0.06522 0.51525
# Poissons Ratio (y) = 0.09260 0.29466
# Poissons Ratio (z) = 0.52365 0.21094
#
# Static dielectric constant tensor:
#      x y z
#    x 3.635680 0.000000 0.000000 
#    y 0.000000 3.195120 0.000000 
#    z 0.000000 0.000000 3.666650 
# 
# 
# High freq. dielectric constant tensor:
#      x y z
#    x 1.740820 0.000000 0.000000 
#    y 0.000000 1.708700 0.000000 
#    z 0.000000 0.000000 1.746700 
# 
# From -- ./inp_files/63496.got.cif
#   From: 2010.03.12/outbox.cif.g09.slc.cpg/sg65_32_cif.got.tgz:63496.got - 2010.04.10 20:52:16.
