data_PCOD8271628
_publ_section_title
;
Structure prediction by ZEFSAII (Michael W. Deem and Ramdas Pophale) SiO2 
 PCOD8271628
Probable space group: C M M M
;
_chemical_formula_sum "Si O2"
_cell_formula_units_Z 88
_cell_length_a 17.909423
_cell_length_b 32.565831
_cell_length_c 7.532245
_cell_angle_alpha 90.000000
_cell_angle_beta 90.000000
_cell_angle_gamma 90.000000
_cell_volume 4393.070741
_symmetry_space_group_name_H-M "C M M M"
_symmetry_group_IT_number 65
_symmetry_cell_setting 'orthorhombic'
loop_
_space_group_symop_operation_xyz
x,y,z
-x,-y,z
x,-y,-z
-x,y,-z
-x,-y,-z
x,y,-z
-x,y,z
x,-y,z
1/2+x,1/2+y,z
1/2-x,1/2-y,z
1/2+x,1/2-y,-z
1/2-x,1/2+y,-z
1/2-x,1/2-y,-z
1/2+x,1/2+y,-z
1/2-x,1/2+y,z
1/2+x,1/2-y,z
loop_
_atom_site_type_symbol
_atom_site_label
_atom_site_fract_x
_atom_site_fract_y
_atom_site_fract_z
Si Si1 0.500000 0.455073 0.790764
Si Si2 0.582657 0.098490 0.788742
Si Si3 0.588599 0.189555 0.804313
Si Si4 0.910300 0.841416 0.500000
Si Si5 0.911244 0.252553 0.500000
Si Si6 0.718755 0.953969 0.210697
Si Si7 0.638971 0.401508 0.789811
O O1 0.500000 0.500000 0.702008
O O2 0.573166 0.431505 0.728394
O O3 0.500000 0.459462 0.000000
O O4 0.500000 0.088228 0.712307
O O5 0.608995 0.144116 0.730814
O O6 0.641568 0.065215 0.715062
O O7 0.579817 0.097364 0.000000
O O8 0.500000 0.192578 0.817475
O O9 0.621083 0.224199 0.673287
O O10 0.623627 0.196837 0.000000
O O11 0.885039 0.794197 0.500000
O O12 0.873301 0.860129 0.322126
O O13 0.000000 0.846456 0.500000
O O14 0.000000 0.255679 0.500000
O O15 0.785581 0.924210 0.269931
O O16 0.728767 0.000000 0.289041
O O17 0.717418 0.956457 0.000000
O O18 0.637152 0.391066 0.000000
#
# Coordination Sequence:
#
# PCOD8271628 Si02
#       7
#     8  16  16   8   8  16  16
#     4   9  16  29  51  73  94 129 175 218 257 303
#     4   8  14  26  48  78 110 142 177 217 258 306
#     4   8  14  27  47  73 103 134 170 211 257 306
#     4  11  22  36  53  78 106 132 174 224 273 327
#     4   9  18  30  49  76 102 128 167 219 263 313
#     4   9  17  30  50  76 107 145 182 215 259 311
#     4  10  20  35  53  74 106 143 176 217 266 315
#
# _framework density 20.031547
#
# number of rings (size 3 to 8) (size 9 to 14) (size 15 to 20)
#    0.000    3.000    0.909    1.636    0.000    3.273 
#    0.000    6.818    0.000    2.182    0.000    5.091 
#    0.000    5.091    0.000    0.545    0.000    0.000 
#
# Total GULP energy -545327.782205 kJ/mol
# GULP energy per Si atom -12393.813232 kJ/mol
# Density = 1.998595 g / cm^3
# Si number density = 20.031547 Si / 1000 Ang^3
#
#
#
# Elastic Constant Matrix: (Units=GPa)
#
#
# Indices 1 2 3 4 5 6 
#
# 1 106.8350 60.9472 20.3440 0.0000 0.0000 0.0000
# 2 60.9472 149.2768 47.0091 0.0000 0.0000 0.0000
# 3 20.3440 47.0091 72.9967 0.0000 0.0000 0.0000
# 4 0.0000 0.0000 0.0000 -2.7573 0.0000 0.0000
# 5 0.0000 0.0000 0.0000 0.0000 4.1849 0.0000
# 6 0.0000 0.0000 0.0000 0.0000 0.0000 25.0399
#
#
#
# Elastic Compliance Matrix: (Units=1/GPa)
#
#
# Indices 1 2 3 4 5 6 
#
# 1 0.012206 -0.004907 -0.000241 0.000000 0.000000 0.000000
# 2 -0.004907 0.010376 -0.005314 0.000000 0.000000 0.000000
# 3 -0.000241 -0.005314 0.017189 0.000000 0.000000 0.000000
# 4 0.000000 0.000000 0.000000 -0.362679 0.000000 0.000000
# 5 0.000000 0.000000 0.000000 0.000000 0.238955 0.000000
# 6 0.000000 0.000000 0.000000 0.000000 0.000000 0.039936
#
#
# Mechanical properties :
#
#
# Convention : Reuss Voigt Hill
#
# Bulk Modulus (GPa) = 53.06618 65.07880 59.07249
# Shear Modulus (GPa) = -297.46779 18.68072 -139.39353
#
# Velocity S-wave (km/s) = -12.19926 3.05711 -8.35093
# Velocity P-wave (km/s) = 13.11032 6.70969 7.96432
#
# Compressibility (1/GPa) = 0.01884440
#
# Stress axis : x y z
#
# Youngs Moduli (GPa) = 81.92846 96.37478 58.17681
#
# Poissons Ratio (x) = 0.47295 0.01404
# Poissons Ratio (y) = 0.40206 0.30918
# Poissons Ratio (z) = 0.01978 0.51218
#
# Static dielectric constant tensor:
#      x y z
#    x 3.578070 0.000000 0.000000 
#    y 0.000000 3.804730 0.000000 
#    z 0.000000 0.000000 3.537460 
# 
# 
# High freq. dielectric constant tensor:
#      x y z
#    x 1.754000 0.000000 0.000000 
#    y 0.000000 1.777910 0.000000 
#    z 0.000000 0.000000 1.766470 
# 
# From -- ./inp_files/10218.got.cif
#   From: 2010.03.12/outbox.cif.g09.slc.cpg/sg65_6_cif.got.tgz:10218.got - 2010.04.10 20:52:16.
