data_PCOD8271557
_publ_section_title
;
Structure prediction by ZEFSAII (Michael W. Deem and Ramdas Pophale) SiO2 
 PCOD8271557
Probable space group: C M M M
;
_chemical_formula_sum "Si O2"
_cell_formula_units_Z 88
_cell_length_a 25.627122
_cell_length_b 9.106121
_cell_length_c 20.606616
_cell_angle_alpha 90.000000
_cell_angle_beta 90.000000
_cell_angle_gamma 90.000000
_cell_volume 4808.835615
_symmetry_space_group_name_H-M "C M M M"
_symmetry_group_IT_number 65
_symmetry_cell_setting 'orthorhombic'
loop_
_space_group_symop_operation_xyz
x,y,z
-x,-y,z
x,-y,-z
-x,y,-z
-x,-y,-z
x,y,-z
-x,y,z
x,-y,z
1/2+x,1/2+y,z
1/2-x,1/2-y,z
1/2+x,1/2-y,-z
1/2-x,1/2+y,-z
1/2-x,1/2-y,-z
1/2+x,1/2+y,-z
1/2-x,1/2+y,z
1/2+x,1/2-y,z
loop_
_atom_site_type_symbol
_atom_site_label
_atom_site_fract_x
_atom_site_fract_y
_atom_site_fract_z
Si Si1 0.500000 0.673163 0.853474
Si Si2 0.000000 0.329525 0.717435
Si Si3 0.560035 0.674075 0.500000
Si Si4 0.403893 0.172161 0.372848
Si Si5 0.303013 0.826925 0.146673
Si Si6 0.395520 0.669478 0.923785
Si Si7 0.302060 0.171384 0.704812
O O1 0.500000 0.500000 0.847533
O O2 0.500000 0.738493 0.782413
O O3 0.449003 0.726681 0.891912
O O4 0.949410 0.285399 0.676649
O O5 0.000000 0.500000 0.735769
O O6 0.563661 0.500000 0.500000
O O7 0.500000 0.727917 0.500000
O O8 0.589749 0.735943 0.437876
O O9 0.349658 0.220571 0.340469
O O10 0.405504 0.000000 0.389605
O O11 0.250000 0.750000 0.123182
O O12 0.349291 0.769755 0.102199
O O13 0.315100 0.784067 0.221213
O O14 0.296993 0.000000 0.137313
O O15 0.384382 0.500000 0.905947
O O16 0.400797 0.691577 0.000000
O O17 0.250000 0.250000 0.679510
O O18 0.291866 0.000000 0.699601
#
# Coordination Sequence:
#
# PCOD8271557 Si02
#       7
#     8   8   8  16  16  16  16
#     4  10  21  36  55  79 108 143 181 225 276 326
#     4  10  20  34  56  83 109 137 176 227 272 321
#     4  11  23  37  54  81 116 145 178 222 265 310
#     4  10  20  36  58  81 108 145 183 215 262 322
#     4  10  20  36  58  83 111 140 178 227 277 325
#     4  10  21  37  55  76 106 145 186 225 270 327
#     4   9  19  35  56  82 109 140 178 221 266 318
#
# _framework density 18.299648000000001
#
# number of rings (size 3 to 8) (size 9 to 14) (size 15 to 20)
#    0.000    2.091    0.909    2.182    0.000    6.545 
#    0.000    0.455    0.000    1.636    0.000    0.000 
#    0.000    0.000    0.000    0.000    0.000    0.000 
#
# Total GULP energy -545794.360023 kJ/mol
# GULP energy per Si atom -12404.417273 kJ/mol
# Density = 1.825800 g / cm^3
# Si number density = 18.299648 Si / 1000 Ang^3
#
#
#
# Elastic Constant Matrix: (Units=GPa)
#
#
# Indices 1 2 3 4 5 6 
#
# 1 143.2661 38.2742 57.2748 0.0000 0.0000 0.0000
# 2 38.2742 35.8250 22.8327 0.0000 0.0000 0.0000
# 3 57.2748 22.8327 86.6105 0.0000 0.0000 0.0000
# 4 0.0000 0.0000 0.0000 33.2513 0.0000 0.0000
# 5 0.0000 0.0000 0.0000 0.0000 -18.9776 0.0000
# 6 0.0000 0.0000 0.0000 0.0000 0.0000 31.5989
#
#
#
# Elastic Compliance Matrix: (Units=1/GPa)
#
#
# Indices 1 2 3 4 5 6 
#
# 1 0.011445 -0.008899 -0.005223 0.000000 0.000000 0.000000
# 2 -0.008899 0.040470 -0.004784 0.000000 0.000000 0.000000
# 3 -0.005223 -0.004784 0.016261 0.000000 0.000000 0.000000
# 4 0.000000 0.000000 0.000000 0.030074 0.000000 0.000000
# 5 0.000000 0.000000 0.000000 0.000000 -0.052694 0.000000
# 6 0.000000 0.000000 0.000000 0.000000 0.000000 0.031647
#
#
# Mechanical properties :
#
#
# Convention : Reuss Voigt Hill
#
# Bulk Modulus (GPa) = 32.93303 55.82944 44.38124
# Shear Modulus (GPa) = 39.95625 18.99583 29.47604
#
# Velocity S-wave (km/s) = 4.67780 3.22536 4.01776
# Velocity P-wave (km/s) = 6.87105 6.66673 6.76967
#
# Compressibility (1/GPa) = 0.03036465
#
# Stress axis : x y z
#
# Youngs Moduli (GPa) = 87.37108 24.70953 61.49750
#
# Poissons Ratio (x) = 0.21990 0.32118
# Poissons Ratio (y) = 0.77754 0.29420
# Poissons Ratio (z) = 0.45631 0.11821
#
# Static dielectric constant tensor:
#      x y z
#    x 3.549480 0.000000 0.000000 
#    y 0.000000 3.308760 0.000000 
#    z 0.000000 0.000000 3.363460 
# 
# 
# High freq. dielectric constant tensor:
#      x y z
#    x 1.720790 0.000000 0.000000 
#    y 0.000000 1.705660 0.000000 
#    z 0.000000 0.000000 1.709720 
# 
# From -- ./inp_files/59893.got.cif
#   From: 2010.03.12/outbox.cif.g09.slc.cpg/sg65_30_cif.got.tgz:59893.got - 2010.04.10 20:52:16.
