data_PCOD8271571
_publ_section_title
;
Structure prediction by ZEFSAII (Michael W. Deem and Ramdas Pophale) SiO2 
 PCOD8271571
Probable space group: C M M M
;
_chemical_formula_sum "Si O2"
_cell_formula_units_Z 88
_cell_length_a 22.218885
_cell_length_b 22.607523
_cell_length_c 8.948181
_cell_angle_alpha 90.000000
_cell_angle_beta 90.000000
_cell_angle_gamma 90.000000
_cell_volume 4494.796176
_symmetry_space_group_name_H-M "C M M M"
_symmetry_group_IT_number 65
_symmetry_cell_setting 'orthorhombic'
loop_
_space_group_symop_operation_xyz
x,y,z
-x,-y,z
x,-y,-z
-x,y,-z
-x,-y,-z
x,y,-z
-x,y,z
x,-y,z
1/2+x,1/2+y,z
1/2-x,1/2-y,z
1/2+x,1/2-y,-z
1/2-x,1/2+y,-z
1/2-x,1/2-y,-z
1/2+x,1/2+y,-z
1/2-x,1/2+y,z
1/2+x,1/2-y,z
loop_
_atom_site_type_symbol
_atom_site_label
_atom_site_fract_x
_atom_site_fract_y
_atom_site_fract_z
Si Si1 0.432741 0.713959 0.670783
Si Si2 0.712206 0.000000 0.836120
Si Si3 0.500000 0.931368 0.176853
Si Si4 0.843184 0.873048 0.821895
Si Si5 0.353542 0.500000 0.161213
Si Si6 0.780672 0.616562 0.328319
Si Si7 0.409653 0.845452 0.328621
O O1 0.409606 0.709184 0.500000
O O2 0.500000 0.688060 0.685855
O O3 0.389408 0.677306 0.777717
O O4 0.434202 0.781911 0.723850
O O5 0.782696 0.000000 0.862466
O O6 0.693383 0.943496 0.741251
O O7 0.680253 0.000000 0.000000
O O8 0.440162 0.897771 0.234039
O O9 0.500000 0.000000 0.231769
O O10 0.500000 0.928973 0.000000
O O11 0.867788 0.937162 0.757090
O O12 0.777372 0.857704 0.757073
O O13 0.837359 0.877249 0.000000
O O14 0.386536 0.500000 0.000000
O O15 0.762333 0.606567 0.500000
O O16 0.837346 0.660045 0.310242
O O17 0.427234 0.857695 0.500000
#
# Coordination Sequence:
#
# PCOD8271571 Si02
#       7
#    16   8   8  16   8  16  16
#     4  10  21  40  62  81 109 151 198 244 292 345
#     4   9  17  31  51  77 117 155 183 226 291 347
#     4  11  25  41  59  89 123 156 197 248 299 341
#     4  10  20  36  59  86 118 152 188 235 296 353
#     4   7  14  31  52  76 108 147 179 213 268 336
#     4  10  20  34  56  86 114 149 198 241 284 344
#     4  10  22  41  62  83 113 157 202 243 287 345
#
# _framework density 19.578195000000001
#
# number of rings (size 3 to 8) (size 9 to 14) (size 15 to 20)
#    0.000    2.273    0.909    2.727    1.273    4.000 
#    0.000    5.455    0.000    2.727    0.000    0.000 
#    0.000    0.000    0.000    0.000    0.000    0.000 
#
# Total GULP energy -545302.529796 kJ/mol
# GULP energy per Si atom -12393.239314 kJ/mol
# Density = 1.953363 g / cm^3
# Si number density = 19.578195 Si / 1000 Ang^3
#
#
#
# Elastic Constant Matrix: (Units=GPa)
#
#
# Indices 1 2 3 4 5 6 
#
# 1 98.9434 51.3721 41.1465 0.0000 0.0000 0.0000
# 2 51.3721 103.9539 42.6357 0.0000 0.0000 0.0000
# 3 41.1465 42.6357 91.8589 0.0000 0.0000 0.0000
# 4 0.0000 0.0000 0.0000 27.0265 0.0000 0.0000
# 5 0.0000 0.0000 0.0000 0.0000 23.8922 0.0000
# 6 0.0000 0.0000 0.0000 0.0000 0.0000 29.3206
#
#
#
# Elastic Compliance Matrix: (Units=1/GPa)
#
#
# Indices 1 2 3 4 5 6 
#
# 1 0.014676 -0.005628 -0.003962 0.000000 0.000000 0.000000
# 2 -0.005628 0.014040 -0.003995 0.000000 0.000000 0.000000
# 3 -0.003962 -0.003995 0.014515 0.000000 0.000000 0.000000
# 4 0.000000 0.000000 0.000000 0.037001 0.000000 0.000000
# 5 0.000000 0.000000 0.000000 0.000000 0.041855 0.000000
# 6 0.000000 0.000000 0.000000 0.000000 0.000000 0.034106
#
#
# Mechanical properties :
#
#
# Convention : Reuss Voigt Hill
#
# Bulk Modulus (GPa) = 62.26303 62.78496 62.52399
# Shear Modulus (GPa) = 26.49478 26.68800 26.59139
#
# Velocity S-wave (km/s) = 3.68269 3.69609 3.68939
# Velocity P-wave (km/s) = 7.06783 7.09600 7.08193
#
# Compressibility (1/GPa) = 0.01606089
#
# Stress axis : x y z
#
# Youngs Moduli (GPa) = 68.13657 71.22739 68.89253
#
# Poissons Ratio (x) = 0.40086 0.27294
# Poissons Ratio (y) = 0.38346 0.27526
# Poissons Ratio (z) = 0.26995 0.28459
#
# Static dielectric constant tensor:
#      x y z
#    x 3.373140 0.000000 0.000000 
#    y 0.000000 3.890260 0.000000 
#    z 0.000000 0.000000 3.511070 
# 
# 
# High freq. dielectric constant tensor:
#      x y z
#    x 1.752600 0.000000 0.000000 
#    y 0.000000 1.761500 0.000000 
#    z 0.000000 0.000000 1.754460 
# 
# From -- ./inp_files/14073.got.cif
#   From: 2010.03.12/outbox.cif.g09.slc.cpg/sg65_8_cif.got.tgz:14073.got - 2010.04.10 20:52:16.
