data_PCOD8271473
_publ_section_title
;
Structure prediction by ZEFSAII (Michael W. Deem and Ramdas Pophale) SiO2 
 PCOD8271473
Probable space group: C M M M
;
_chemical_formula_sum "Si O2"
_cell_formula_units_Z 56
_cell_length_a 8.802418
_cell_length_b 17.769721
_cell_length_c 18.058879
_cell_angle_alpha 90.000000
_cell_angle_beta 90.000000
_cell_angle_gamma 90.000000
_cell_volume 2824.706864
_symmetry_space_group_name_H-M "C M M M"
_symmetry_group_IT_number 65
_symmetry_cell_setting 'orthorhombic'
loop_
_space_group_symop_operation_xyz
x,y,z
-x,-y,z
x,-y,-z
-x,y,-z
-x,-y,-z
x,y,-z
-x,y,z
x,-y,z
1/2+x,1/2+y,z
1/2-x,1/2-y,z
1/2+x,1/2-y,-z
1/2-x,1/2+y,-z
1/2-x,1/2-y,-z
1/2+x,1/2+y,-z
1/2-x,1/2+y,z
1/2+x,1/2-y,z
loop_
_atom_site_type_symbol
_atom_site_label
_atom_site_fract_x
_atom_site_fract_y
_atom_site_fract_z
Si Si1 0.179165 0.668566 0.636445
Si Si2 0.829418 0.589289 0.918954
Si Si3 0.674863 0.411521 0.228164
Si Si4 0.171877 0.911080 0.500000
O O1 0.250000 0.750000 0.626625
O O2 0.221200 0.633580 0.715255
O O3 0.241670 0.615181 0.572737
O O4 0.000000 0.674950 0.629462
O O5 0.829261 0.500000 0.920377
O O6 0.717183 0.617445 0.854336
O O7 0.000000 0.618448 0.902728
O O8 0.774494 0.619043 0.000000
O O9 0.500000 0.392505 0.243807
O O10 0.707632 0.500000 0.236997
O O11 0.000000 0.879247 0.500000
O O12 0.170239 0.000000 0.500000
#
# Coordination Sequence:
#
# PCOD8271473 Si02
#       4
#    16  16  16   8
#     4  12  25  41  61  84 114 150 189 230 276 332
#     4   8  14  26  46  74 108 145 186 232 280 329
#     4  10  20  34  54  82 115 149 188 234 282 332
#     4  11  24  43  66  91 119 147 180 225 274 325
#
# _framework density 19.825066
#
# number of rings (size 3 to 8) (size 9 to 14) (size 15 to 20)
#    0.000    1.857    0.000    6.000    0.000    6.857 
#    0.000    2.857    0.000    0.857    0.000    0.000 
#    0.000    0.000    0.000    0.000    0.000    0.000 
#
# Total GULP energy -347198.937912 kJ/mol
# GULP energy per Si atom -12399.962068 kJ/mol
# Density = 1.977994 g / cm^3
# Si number density = 19.825066 Si / 1000 Ang^3
#
#
#
# Elastic Constant Matrix: (Units=GPa)
#
#
# Indices 1 2 3 4 5 6 
#
# 1 145.1944 39.8500 53.1075 0.0000 0.0000 0.0000
# 2 39.8500 52.5687 30.6884 0.0000 0.0000 0.0000
# 3 53.1075 30.6884 135.5843 0.0000 0.0000 0.0000
# 4 0.0000 0.0000 0.0000 -4.2953 0.0000 0.0000
# 5 0.0000 0.0000 0.0000 0.0000 41.0751 0.0000
# 6 0.0000 0.0000 0.0000 0.0000 0.0000 26.4652
#
#
#
# Elastic Compliance Matrix: (Units=1/GPa)
#
#
# Indices 1 2 3 4 5 6 
#
# 1 0.009310 -0.005679 -0.002361 0.000000 0.000000 0.000000
# 2 -0.005679 0.025383 -0.003521 0.000000 0.000000 0.000000
# 3 -0.002361 -0.003521 0.009097 0.000000 0.000000 0.000000
# 4 0.000000 0.000000 0.000000 -0.232814 0.000000 0.000000
# 5 0.000000 0.000000 0.000000 0.000000 0.024346 0.000000
# 6 0.000000 0.000000 0.000000 0.000000 0.000000 0.037785
#
#
# Mechanical properties :
#
#
# Convention : Reuss Voigt Hill
#
# Bulk Modulus (GPa) = 48.38362 64.51546 56.44954
# Shear Modulus (GPa) = -51.60910 26.62913 -12.48999
#
# Velocity S-wave (km/s) = -5.10772 3.66895 -2.51272
# Velocity P-wave (km/s) = 3.21353 7.11065 4.48523
#
# Compressibility (1/GPa) = 0.02066815
#
# Stress axis : x y z
#
# Youngs Moduli (GPa) = 107.41669 39.39653 109.92333
#
# Poissons Ratio (x) = 0.22372 0.25954
# Poissons Ratio (y) = 0.60999 0.38703
# Poissons Ratio (z) = 0.25363 0.13871
#
# Static dielectric constant tensor:
#      x y z
#    x 3.751930 0.000000 0.000000 
#    y 0.000000 3.315090 0.000000 
#    z 0.000000 0.000000 4.104880 
# 
# 
# High freq. dielectric constant tensor:
#      x y z
#    x 1.780620 0.000000 0.000000 
#    y 0.000000 1.739180 0.000000 
#    z 0.000000 0.000000 1.795590 
# 
# From -- ./inp_files/48743.got.cif
#   From: 2010.03.12/outbox.cif.g09.slc.cpg/sg65_25_cif.got.tgz:48743.got - 2010.04.10 20:52:16.
