data_PCOD8271598
_publ_section_title
;
Structure prediction by ZEFSAII (Michael W. Deem and Ramdas Pophale) SiO2 
 PCOD8271598
Probable space group: C M M M
;
_chemical_formula_sum "Si O2"
_cell_formula_units_Z 96
_cell_length_a 28.138970
_cell_length_b 9.135423
_cell_length_c 23.254328
_cell_angle_alpha 90.000000
_cell_angle_beta 90.000000
_cell_angle_gamma 90.000000
_cell_volume 5977.789966
_symmetry_space_group_name_H-M "C M M M"
_symmetry_group_IT_number 65
_symmetry_cell_setting 'orthorhombic'
loop_
_space_group_symop_operation_xyz
x,y,z
-x,-y,z
x,-y,-z
-x,y,-z
-x,-y,-z
x,y,-z
-x,y,z
x,-y,z
1/2+x,1/2+y,z
1/2-x,1/2-y,z
1/2+x,1/2-y,-z
1/2-x,1/2+y,-z
1/2-x,1/2-y,-z
1/2+x,1/2+y,-z
1/2-x,1/2+y,z
1/2+x,1/2-y,z
loop_
_atom_site_type_symbol
_atom_site_label
_atom_site_fract_x
_atom_site_fract_y
_atom_site_fract_z
Si Si1 0.556704 0.334562 0.000000
Si Si2 0.800669 0.328637 0.375006
Si Si3 0.943392 0.665285 0.111302
Si Si4 0.202272 0.664758 0.500000
Si Si5 0.611242 0.327752 0.337076
Si Si6 0.445279 0.670029 0.776342
Si Si7 0.556071 0.833340 0.434624
O O1 0.576670 0.252640 0.943652
O O2 0.576052 0.500000 0.000000
O O3 0.500000 0.333012 0.000000
O O4 0.794710 0.500000 0.360597
O O5 0.750000 0.250000 0.368910
O O6 0.824154 0.303860 0.439371
O O7 0.838030 0.253500 0.332383
O O8 0.924115 0.500000 0.108692
O O9 0.924723 0.740523 0.169566
O O10 0.000000 0.669014 0.110264
O O11 0.219796 0.500000 0.500000
O O12 0.250000 0.750000 0.500000
O O13 0.619765 0.500000 0.341349
O O14 0.583320 0.282771 0.279871
O O15 0.581368 0.278468 0.392168
O O16 0.500000 0.709582 0.764627
O O17 0.439108 0.500000 0.790815
O O18 0.572621 0.800884 0.500000
O O19 0.500000 0.810649 0.429236
O O20 0.570049 0.000000 0.418250
#
# Coordination Sequence:
#
# PCOD8271598 Si02
#       7
#     8  16  16   8  16  16  16
#     4   9  15  23  37  57  83 117 152 183 222 267
#     4  10  20  35  52  70  91 115 143 180 227 280
#     4   9  16  25  39  60  85 113 150 193 228 259
#     4   8  16  30  48  66  83 104 129 164 212 267
#     4  11  22  33  48  70  92 118 151 187 229 278
#     4   9  18  32  46  61  87 122 157 191 226 266
#     4   9  19  35  51  66  87 116 150 189 231 273
#
# _framework density 16.059446999999999
#
# number of rings (size 3 to 8) (size 9 to 14) (size 15 to 20)
#    0.000    2.583    0.000    2.750    1.167    6.333 
#    0.000    2.500    0.000    0.000    0.000    0.000 
#    0.000    0.000    0.000    0.750    0.000   10.083 
#
# Total GULP energy -595011.663917 kJ/mol
# GULP energy per Si atom -12396.076332 kJ/mol
# Density = 1.602290 g / cm^3
# Si number density = 16.059447 Si / 1000 Ang^3
#
#
#
# Elastic Constant Matrix: (Units=GPa)
#
#
# Indices 1 2 3 4 5 6 
#
# 1 46.1121 38.5369 46.0712 0.0000 0.0000 0.0000
# 2 38.5369 106.8146 69.2000 0.0000 0.0000 0.0000
# 3 46.0712 69.2000 121.9182 0.0000 0.0000 0.0000
# 4 0.0000 0.0000 0.0000 27.8143 0.0000 0.0000
# 5 0.0000 0.0000 0.0000 0.0000 6.5143 0.0000
# 6 0.0000 0.0000 0.0000 0.0000 0.0000 22.5530
#
#
#
# Elastic Compliance Matrix: (Units=1/GPa)
#
#
# Indices 1 2 3 4 5 6 
#
# 1 0.037835 -0.006939 -0.010359 0.000000 0.000000 0.000000
# 2 -0.006939 0.016079 -0.006504 0.000000 0.000000 0.000000
# 3 -0.010359 -0.006504 0.015808 0.000000 0.000000 0.000000
# 4 0.000000 0.000000 0.000000 0.035953 0.000000 0.000000
# 5 0.000000 0.000000 0.000000 0.000000 0.153508 0.000000
# 6 0.000000 0.000000 0.000000 0.000000 0.000000 0.044340
#
#
# Mechanical properties :
#
#
# Convention : Reuss Voigt Hill
#
# Bulk Modulus (GPa) = 45.21135 64.71789 54.96462
# Shear Modulus (GPa) = 13.94697 19.44546 16.69622
#
# Velocity S-wave (km/s) = 2.95016 3.48349 3.22786
# Velocity P-wave (km/s) = 6.31017 7.52104 6.94206
#
# Compressibility (1/GPa) = 0.02211834
#
# Stress axis : x y z
#
# Youngs Moduli (GPa) = 26.43046 62.19119 63.25774
#
# Poissons Ratio (x) = 0.43157 0.65526
# Poissons Ratio (y) = 0.18341 0.41144
# Poissons Ratio (z) = 0.27378 0.40451
#
# Static dielectric constant tensor:
#      x y z
#    x 2.669310 0.000000 0.000000 
#    y 0.000000 3.146430 0.000000 
#    z 0.000000 0.000000 2.997800 
# 
# 
# High freq. dielectric constant tensor:
#      x y z
#    x 1.572210 0.000000 0.000000 
#    y 0.000000 1.630570 0.000000 
#    z 0.000000 0.000000 1.610560 
# 
# From -- ./inp_files/71764.got.cif
#   From: 2010.03.12/outbox.cif.g09.slc.cpg/sg65_36_cif.got.tgz:71764.got - 2010.04.10 20:52:16.
