data_PCOD8271150
_publ_section_title
;
Structure prediction by ZEFSAII (Michael W. Deem and Ramdas Pophale) SiO2 
 PCOD8271150
Probable space group: C M M M
;
_chemical_formula_sum "Si O2"
_cell_formula_units_Z 104
_cell_length_a 9.102980
_cell_length_b 18.262528
_cell_length_c 33.391430
_cell_angle_alpha 90.000000
_cell_angle_beta 90.000000
_cell_angle_gamma 90.000000
_cell_volume 5551.105760
_symmetry_space_group_name_H-M "C M M M"
_symmetry_group_IT_number 65
_symmetry_cell_setting 'orthorhombic'
loop_
_space_group_symop_operation_xyz
x,y,z
-x,-y,z
x,-y,-z
-x,y,-z
-x,-y,-z
x,y,-z
-x,y,z
x,-y,z
1/2+x,1/2+y,z
1/2-x,1/2-y,z
1/2+x,1/2-y,-z
1/2-x,1/2+y,-z
1/2-x,1/2-y,-z
1/2+x,1/2+y,-z
1/2-x,1/2+y,z
1/2+x,1/2-y,z
loop_
_atom_site_type_symbol
_atom_site_label
_atom_site_fract_x
_atom_site_fract_y
_atom_site_fract_z
Si Si1 0.826218 0.672379 0.734841
Si Si2 0.325718 0.918094 0.810892
Si Si3 0.334325 0.412794 0.577675
Si Si4 0.668508 0.584194 0.953627
Si Si5 0.326107 0.827302 0.887673
Si Si6 0.828893 0.415608 0.656420
Si Si7 0.665914 0.087400 0.500000
O O1 0.750000 0.750000 0.735540
O O2 0.766827 0.625856 0.772445
O O3 0.779014 0.630267 0.694780
O O4 0.000000 0.683179 0.737203
O O5 0.500000 0.922273 0.809254
O O6 0.273171 0.878152 0.851143
O O7 0.259017 0.000000 0.810402
O O8 0.500000 0.382862 0.576159
O O9 0.330859 0.500000 0.576828
O O10 0.258371 0.384390 0.618224
O O11 0.247596 0.381724 0.539297
O O12 0.500000 0.600416 0.941910
O O13 0.707570 0.500000 0.944574
O O14 0.776374 0.635847 0.928926
O O15 0.694875 0.602099 0.000000
O O16 0.500000 0.816430 0.888367
O O17 0.250000 0.750000 0.881902
O O18 0.789780 0.500000 0.665007
O O19 0.000000 0.406362 0.647092
O O20 0.500000 0.117077 0.500000
O O21 0.668132 0.000000 0.500000
#
# Coordination Sequence:
#
# PCOD8271150 Si02
#       7
#    16  16  16  16  16  16   8
#     4  10  20  34  53  75 101 132 165 205 251 300
#     4   9  18  34  56  80 104 133 172 215 258 306
#     4   9  16  25  39  62  93 126 159 201 252 297
#     4   9  19  37  59  81 107 140 178 222 271 320
#     4  11  22  35  54  80 111 145 180 220 265 315
#     4   9  17  30  48  69  93 126 168 206 242 290
#     4   9  15  23  37  59  90 127 164 201 242 293
#
# _framework density 18.735005999999998
#
# number of rings (size 3 to 8) (size 9 to 14) (size 15 to 20)
#    0.000    2.538    0.000    3.000    0.000    6.769 
#    0.000    1.538    0.000    3.231    0.000    0.538 
#    0.000    0.000    0.000    0.000    0.000    0.000 
#
# Total GULP energy -644878.987050 kJ/mol
# GULP energy per Si atom -12401.518982 kJ/mol
# Density = 1.869236 g / cm^3
# Si number density = 18.735006 Si / 1000 Ang^3
#
#
#
# Elastic Constant Matrix: (Units=GPa)
#
#
# Indices 1 2 3 4 5 6 
#
# 1 80.8823 45.3655 62.7572 0.0000 0.0000 0.0000
# 2 45.3655 112.8040 73.7284 0.0000 0.0000 0.0000
# 3 62.7572 73.7284 157.1421 0.0000 0.0000 0.0000
# 4 0.0000 0.0000 0.0000 6.8951 0.0000 0.0000
# 5 0.0000 0.0000 0.0000 0.0000 23.8022 0.0000
# 6 0.0000 0.0000 0.0000 0.0000 0.0000 18.3403
#
#
#
# Elastic Compliance Matrix: (Units=1/GPa)
#
#
# Indices 1 2 3 4 5 6 
#
# 1 0.019019 -0.003872 -0.005779 0.000000 0.000000 0.000000
# 2 -0.003872 0.013574 -0.004822 0.000000 0.000000 0.000000
# 3 -0.005779 -0.004822 0.010934 0.000000 0.000000 0.000000
# 4 0.000000 0.000000 0.000000 0.145031 0.000000 0.000000
# 5 0.000000 0.000000 0.000000 0.000000 0.042013 0.000000
# 6 0.000000 0.000000 0.000000 0.000000 0.000000 0.054525
#
#
# Mechanical properties :
#
#
# Convention : Reuss Voigt Hill
#
# Bulk Modulus (GPa) = 68.58234 79.39230 73.98732
# Shear Modulus (GPa) = 15.67876 21.07267 18.37571
#
# Velocity S-wave (km/s) = 2.89601 3.35741 3.13521
# Velocity P-wave (km/s) = 6.91870 7.58274 7.25832
#
# Compressibility (1/GPa) = 0.01458101
#
# Stress axis : x y z
#
# Youngs Moduli (GPa) = 52.57834 73.67089 91.45550
#
# Poissons Ratio (x) = 0.28522 0.52854
# Poissons Ratio (y) = 0.20356 0.44104
# Poissons Ratio (z) = 0.30386 0.35527
#
# Static dielectric constant tensor:
#      x y z
#    x 3.306060 0.000000 0.000000 
#    y 0.000000 3.227280 0.000000 
#    z 0.000000 0.000000 3.630100 
# 
# 
# High freq. dielectric constant tensor:
#      x y z
#    x 1.713520 0.000000 0.000000 
#    y 0.000000 1.703410 0.000000 
#    z 0.000000 0.000000 1.744890 
# 
# From -- ./inp_files/76882.got.cif
#   From: 2010.03.12/outbox.cif.g09.slc.cpg/sg65_39_cif.got.tgz:76882.got - 2010.04.10 20:52:16.
