data_PCOD8271012
_publ_section_title
;
Structure prediction by ZEFSAII (Michael W. Deem and Ramdas Pophale) SiO2 
 PCOD8271012
Probable space group: C M M M
;
_chemical_formula_sum "Si O2"
_cell_formula_units_Z 56
_cell_length_a 39.667421
_cell_length_b 9.891631
_cell_length_c 7.667569
_cell_angle_alpha 90.000000
_cell_angle_beta 90.000000
_cell_angle_gamma 90.000000
_cell_volume 3008.566153
_symmetry_space_group_name_H-M "C M M M"
_symmetry_group_IT_number 65
_symmetry_cell_setting 'orthorhombic'
loop_
_space_group_symop_operation_xyz
x,y,z
-x,-y,z
x,-y,-z
-x,y,-z
-x,-y,-z
x,y,-z
-x,y,z
x,-y,z
1/2+x,1/2+y,z
1/2-x,1/2-y,z
1/2+x,1/2-y,-z
1/2-x,1/2+y,-z
1/2-x,1/2-y,-z
1/2+x,1/2+y,-z
1/2-x,1/2+y,z
1/2+x,1/2-y,z
loop_
_atom_site_type_symbol
_atom_site_label
_atom_site_fract_x
_atom_site_fract_y
_atom_site_fract_z
Si Si1 0.462518 0.651115 0.207414
Si Si2 0.906288 0.349751 0.207016
Si Si3 0.167979 0.660319 0.192978
Si Si4 0.716806 0.838892 0.500000
O O1 0.500000 0.696895 0.266922
O O2 0.455108 0.500000 0.276574
O O3 0.434802 0.752277 0.288599
O O4 0.460336 0.652411 0.000000
O O5 0.911355 0.500000 0.286068
O O6 0.869190 0.290775 0.254530
O O7 0.909595 0.356951 0.000000
O O8 0.166353 0.500000 0.183409
O O9 0.196050 0.707036 0.329683
O O10 0.176989 0.718302 0.000000
O O11 0.750000 0.750000 0.500000
O O12 0.724509 0.000000 0.500000
#
# Coordination Sequence:
#
# PCOD8271012 Si02
#       4
#    16  16  16   8
#     4   8  13  20  30  49  81 116 145 177 220 264
#     4   8  13  22  37  56  78 107 145 184 217 254
#     4   8  15  29  48  69  93 121 152 186 226 270
#     4  10  20  34  52  72  95 122 149 181 224 273
#
# _framework density 18.613519
#
# number of rings (size 3 to 8) (size 9 to 14) (size 15 to 20)
#    0.000    3.714    0.000    2.571    0.000    1.143 
#    0.000    4.286    0.000    1.714    0.000    1.000 
#    0.000    8.000    0.000    0.857    0.000    0.000 
#
# Total GULP energy -346926.478711 kJ/mol
# GULP energy per Si atom -12390.231383 kJ/mol
# Density = 1.857115 g / cm^3
# Si number density = 18.613519 Si / 1000 Ang^3
#
#
#
# Elastic Constant Matrix: (Units=GPa)
#
#
# Indices 1 2 3 4 5 6 
#
# 1 189.6988 80.6620 57.2485 0.0000 0.0000 0.0000
# 2 80.6620 73.4265 25.7657 0.0000 0.0000 0.0000
# 3 57.2485 25.7657 63.2989 0.0000 0.0000 0.0000
# 4 0.0000 0.0000 0.0000 4.6653 0.0000 0.0000
# 5 0.0000 0.0000 0.0000 0.0000 -11.1735 0.0000
# 6 0.0000 0.0000 0.0000 0.0000 0.0000 37.2590
#
#
#
# Elastic Compliance Matrix: (Units=1/GPa)
#
#
# Indices 1 2 3 4 5 6 
#
# 1 0.011676 -0.010641 -0.006228 0.000000 0.000000 0.000000
# 2 -0.010641 0.025586 -0.000791 0.000000 0.000000 0.000000
# 3 -0.006228 -0.000791 0.021753 0.000000 0.000000 0.000000
# 4 0.000000 0.000000 0.000000 0.214346 0.000000 0.000000
# 5 0.000000 0.000000 0.000000 0.000000 -0.089498 0.000000
# 6 0.000000 0.000000 0.000000 0.000000 0.000000 0.026839
#
#
# Mechanical properties :
#
#
# Convention : Reuss Voigt Hill
#
# Bulk Modulus (GPa) = 42.20417 72.64185 57.42301
# Shear Modulus (GPa) = 19.69117 17.00003 18.34560
#
# Velocity S-wave (km/s) = 3.25606 3.02539 3.14284
# Velocity P-wave (km/s) = 6.07117 7.16346 6.63981
#
# Compressibility (1/GPa) = 0.02369434
#
# Stress axis : x y z
#
# Youngs Moduli (GPa) = 85.64816 39.08411 45.97037
#
# Poissons Ratio (x) = 0.41588 0.28632
# Poissons Ratio (y) = 0.91135 0.03637
# Poissons Ratio (z) = 0.53345 0.03092
#
# Static dielectric constant tensor:
#      x y z
#    x 3.666850 0.000000 0.000000 
#    y 0.000000 3.371650 0.000000 
#    z 0.000000 0.000000 3.404360 
# 
# 
# High freq. dielectric constant tensor:
#      x y z
#    x 1.725420 0.000000 0.000000 
#    y 0.000000 1.682950 0.000000 
#    z 0.000000 0.000000 1.698140 
# 
# From -- ./inp_files/4405.got.cif
#   From: 2010.03.12/outbox.cif.g09.slc.cpg/sg65_3_cif.got.tgz:4405.got - 2010.04.10 20:52:16.
