data_PCOD8271639
_publ_section_title
;
Structure prediction by ZEFSAII (Michael W. Deem and Ramdas Pophale) SiO2 
 PCOD8271639
Probable space group: C M M M
;
_chemical_formula_sum "Si O2"
_cell_formula_units_Z 120
_cell_length_a 19.864308
_cell_length_b 25.377328
_cell_length_c 12.777494
_cell_angle_alpha 90.000000
_cell_angle_beta 90.000000
_cell_angle_gamma 90.000000
_cell_volume 6441.173820
_symmetry_space_group_name_H-M "C M M M"
_symmetry_group_IT_number 65
_symmetry_cell_setting 'orthorhombic'
loop_
_space_group_symop_operation_xyz
x,y,z
-x,-y,z
x,-y,-z
-x,y,-z
-x,-y,-z
x,y,-z
-x,y,z
x,-y,z
1/2+x,1/2+y,z
1/2-x,1/2-y,z
1/2+x,1/2-y,-z
1/2-x,1/2+y,-z
1/2-x,1/2-y,-z
1/2+x,1/2+y,-z
1/2-x,1/2+y,z
1/2+x,1/2-y,z
loop_
_atom_site_type_symbol
_atom_site_label
_atom_site_fract_x
_atom_site_fract_y
_atom_site_fract_z
Si Si1 0.252200 0.368353 0.723487
Si Si2 0.108372 0.352667 0.375061
Si Si3 0.384359 0.359738 0.618037
Si Si4 0.075504 0.244930 0.271624
Si Si5 0.426439 0.440519 0.783147
Si Si6 0.208933 0.938916 0.887474
Si Si7 0.313917 0.285957 0.883402
Si Si8 0.500000 0.939188 0.623477
O O1 0.181146 0.351289 0.679042
O O2 0.304253 0.371977 0.627551
O O3 0.243677 0.422036 0.789965
O O4 0.289782 0.333370 0.811076
O O5 0.115530 0.349998 0.500000
O O6 0.072880 0.300411 0.332785
O O7 0.066085 0.405204 0.342239
O O8 0.406930 0.368375 0.500000
O O9 0.399910 0.299608 0.648203
O O10 0.426399 0.400875 0.685908
O O11 0.124501 0.245656 0.170906
O O12 0.000000 0.232745 0.232263
O O13 0.500000 0.436508 0.837160
O O14 0.413183 0.500000 0.741979
O O15 0.369364 0.424191 0.865736
O O16 0.219222 0.000000 0.898102
O O17 0.228609 0.912897 0.000000
O O18 0.250000 0.250000 0.895376
O O19 0.336843 0.304354 0.000000
O O20 0.500000 0.944090 0.500000
O O21 0.500000 0.000000 0.669688
#
# Coordination Sequence:
#
# PCOD8271639 Si02
#       8
#    16  16  16  16  16  16  16   8
#     4  10  20  35  53  79 107 140 180 225 271 329
#     4  11  21  35  57  82 110 143 180 225 277 333
#     4  10  21  34  50  74 108 147 184 223 269 320
#     4  11  22  36  55  83 113 142 185 232 278 330
#     4   9  18  32  49  72 103 139 181 222 261 313
#     4   9  18  33  53  76 102 132 171 221 273 322
#     4  10  20  36  56  78 108 144 181 225 276 334
#     4   9  20  38  58  82 111 145 184 226 281 344
#
# _framework density 18.630144999999999
#
# number of rings (size 3 to 8) (size 9 to 14) (size 15 to 20)
#    0.000    2.067    2.000    1.600    0.000    2.933 
#    0.000    4.000    0.000    7.200    0.000    0.000 
#    0.000    3.733    0.000    0.000    0.000    0.000 
#
# Total GULP energy -743412.026340 kJ/mol
# GULP energy per Si atom -12390.200439 kJ/mol
# Density = 1.858774 g / cm^3
# Si number density = 18.630145 Si / 1000 Ang^3
#
#
#
# Elastic Constant Matrix: (Units=GPa)
#
#
# Indices 1 2 3 4 5 6 
#
# 1 96.2556 17.7284 27.5552 0.0000 0.0000 0.0000
# 2 17.7284 84.1179 28.3455 0.0000 0.0000 0.0000
# 3 27.5552 28.3455 93.4163 0.0000 0.0000 0.0000
# 4 0.0000 0.0000 0.0000 21.3949 0.0000 0.0000
# 5 0.0000 0.0000 0.0000 0.0000 18.3842 0.0000
# 6 0.0000 0.0000 0.0000 0.0000 0.0000 25.0517
#
#
#
# Elastic Compliance Matrix: (Units=1/GPa)
#
#
# Indices 1 2 3 4 5 6 
#
# 1 0.011499 -0.001426 -0.002959 0.000000 0.000000 0.000000
# 2 -0.001426 0.013419 -0.003651 0.000000 0.000000 0.000000
# 3 -0.002959 -0.003651 0.012685 0.000000 0.000000 0.000000
# 4 0.000000 0.000000 0.000000 0.046740 0.000000 0.000000
# 5 0.000000 0.000000 0.000000 0.000000 0.054395 0.000000
# 6 0.000000 0.000000 0.000000 0.000000 0.000000 0.039917
#
#
# Mechanical properties :
#
#
# Convention : Reuss Voigt Hill
#
# Bulk Modulus (GPa) = 46.44585 46.78311 46.61448
# Shear Modulus (GPa) = 24.76415 26.31022 25.53719
#
# Velocity S-wave (km/s) = 3.64985 3.76205 3.70637
# Velocity P-wave (km/s) = 6.53808 6.63602 6.58723
#
# Compressibility (1/GPa) = 0.02153045
#
# Stress axis : x y z
#
# Youngs Moduli (GPa) = 86.96562 74.52134 78.83055
#
# Poissons Ratio (x) = 0.10629 0.23326
# Poissons Ratio (y) = 0.12404 0.28781
# Poissons Ratio (z) = 0.25733 0.27208
#
# Static dielectric constant tensor:
#      x y z
#    x 3.904820 0.000000 0.000000 
#    y 0.000000 3.742330 0.000000 
#    z 0.000000 0.000000 3.459260 
# 
# 
# High freq. dielectric constant tensor:
#      x y z
#    x 1.719030 0.000000 0.000000 
#    y 0.000000 1.729790 0.000000 
#    z 0.000000 0.000000 1.709970 
# 
# From -- ./inp_files/29435.got.cif
#   From: 2010.03.12/outbox.cif.g09.slc.cpg/sg65_15_cif.got.tgz:29435.got - 2010.04.10 20:52:16.
