data_PCOD8271412
_publ_section_title
;
Structure prediction by ZEFSAII (Michael W. Deem and Ramdas Pophale) SiO2 
 PCOD8271412
Probable space group: C M M M
;
_chemical_formula_sum "Si O2"
_cell_formula_units_Z 104
_cell_length_a 9.046073
_cell_length_b 27.817171
_cell_length_c 21.315367
_cell_angle_alpha 90.000000
_cell_angle_beta 90.000000
_cell_angle_gamma 90.000000
_cell_volume 5363.717091
_symmetry_space_group_name_H-M "C M M M"
_symmetry_group_IT_number 65
_symmetry_cell_setting 'orthorhombic'
loop_
_space_group_symop_operation_xyz
x,y,z
-x,-y,z
x,-y,-z
-x,y,-z
-x,-y,-z
x,y,-z
-x,y,z
x,-y,z
1/2+x,1/2+y,z
1/2-x,1/2-y,z
1/2+x,1/2-y,-z
1/2-x,1/2+y,-z
1/2-x,1/2-y,-z
1/2+x,1/2+y,-z
1/2-x,1/2+y,z
1/2+x,1/2-y,z
loop_
_atom_site_type_symbol
_atom_site_label
_atom_site_fract_x
_atom_site_fract_y
_atom_site_fract_z
Si Si1 0.332746 0.056678 0.500000
Si Si2 0.826294 0.648006 0.071859
Si Si3 0.174010 0.200772 0.181365
Si Si4 0.671106 0.608831 0.610582
Si Si5 0.168987 0.701210 0.573230
Si Si6 0.173860 0.446962 0.139401
Si Si7 0.331419 0.396423 0.246509
O O1 0.500000 0.077621 0.500000
O O2 0.250401 0.073275 0.562593
O O3 0.334701 0.000000 0.500000
O O4 0.736647 0.686145 0.113167
O O5 0.777061 0.593395 0.089163
O O6 0.000000 0.655127 0.084357
O O7 0.784508 0.657377 0.000000
O O8 0.250000 0.250000 0.204526
O O9 0.214316 0.158868 0.231374
O O10 0.000000 0.209473 0.175934
O O11 0.500000 0.613578 0.591404
O O12 0.746208 0.660556 0.610682
O O13 0.690447 0.589663 0.680974
O O14 0.180434 0.688944 0.500000
O O15 0.250000 0.750000 0.590418
O O16 0.000000 0.704591 0.595401
O O17 0.231933 0.500000 0.118818
O O18 0.234968 0.434016 0.207883
O O19 0.000000 0.448067 0.145633
O O20 0.500000 0.403330 0.225595
#
# Coordination Sequence:
#
# PCOD8271412 Si02
#       7
#     8  16  16  16  16  16  16
#     4  11  25  43  60  81 110 143 181 225 275 331
#     4   9  18  33  53  79 111 145 182 223 267 317
#     4  10  20  36  56  78 109 145 183 224 266 313
#     4  11  22  38  60  83 110 142 180 226 277 329
#     4  10  20  34  54  80 111 142 174 211 259 317
#     4   9  18  33  54  80 108 140 179 223 272 322
#     4   9  21  38  55  79 108 141 180 223 270 322
#
# _framework density 19.389538999999999
#
# number of rings (size 3 to 8) (size 9 to 14) (size 15 to 20)
#    0.000    2.231    0.769    1.615    0.000    5.538 
#    0.000    6.154    0.000    0.000    0.000    4.308 
#    0.000    0.000    0.000    0.000    0.000    0.000 
#
# Total GULP energy -644852.576086 kJ/mol
# GULP energy per Si atom -12401.011079 kJ/mol
# Density = 1.934541 g / cm^3
# Si number density = 19.389539 Si / 1000 Ang^3
#
#
#
# Elastic Constant Matrix: (Units=GPa)
#
#
# Indices 1 2 3 4 5 6 
#
# 1 83.2971 23.5870 25.9628 0.0000 0.0000 0.0000
# 2 23.5870 65.7625 9.6375 0.0000 0.0000 0.0000
# 3 25.9628 9.6375 75.7203 0.0000 0.0000 0.0000
# 4 0.0000 0.0000 0.0000 15.5789 0.0000 0.0000
# 5 0.0000 0.0000 0.0000 0.0000 27.8532 0.0000
# 6 0.0000 0.0000 0.0000 0.0000 0.0000 30.1195
#
#
#
# Elastic Compliance Matrix: (Units=1/GPa)
#
#
# Indices 1 2 3 4 5 6 
#
# 1 0.014701 -0.004620 -0.004453 0.000000 0.000000 0.000000
# 2 -0.004620 0.016947 -0.000573 0.000000 0.000000 0.000000
# 3 -0.004453 -0.000573 0.014806 0.000000 0.000000 0.000000
# 4 0.000000 0.000000 0.000000 0.064189 0.000000 0.000000
# 5 0.000000 0.000000 0.000000 0.000000 0.035902 0.000000
# 6 0.000000 0.000000 0.000000 0.000000 0.000000 0.033201
#
#
# Mechanical properties :
#
#
# Convention : Reuss Voigt Hill
#
# Bulk Modulus (GPa) = 36.81463 38.12829 37.47146
# Shear Modulus (GPa) = 24.02759 25.74983 24.88871
#
# Velocity S-wave (km/s) = 3.52405 3.64816 3.58664
# Velocity P-wave (km/s) = 5.96546 6.11985 6.04314
#
# Compressibility (1/GPa) = 0.02716311
#
# Stress axis : x y z
#
# Youngs Moduli (GPa) = 68.02052 59.00617 67.53958
#
# Poissons Ratio (x) = 0.27263 0.30073
# Poissons Ratio (y) = 0.31428 0.03869
# Poissons Ratio (z) = 0.30288 0.03380
#
# Static dielectric constant tensor:
#      x y z
#    x 3.617620 0.000000 0.000000 
#    y 0.000000 3.704770 0.000000 
#    z 0.000000 0.000000 3.412060 
# 
# 
# High freq. dielectric constant tensor:
#      x y z
#    x 1.759300 0.000000 0.000000 
#    y 0.000000 1.758090 0.000000 
#    z 0.000000 0.000000 1.744560 
# 
# From -- ./inp_files/60405.got.cif
#   From: 2010.03.12/outbox.cif.g09.slc.cpg/sg65_31_cif.got.tgz:60405.got - 2010.04.10 20:52:16.
