data_PCOD8271261
_publ_section_title
;
Structure prediction by ZEFSAII (Michael W. Deem and Ramdas Pophale) SiO2 
 PCOD8271261
Probable space group: C M M M
;
_chemical_formula_sum "Si O2"
_cell_formula_units_Z 88
_cell_length_a 15.847849
_cell_length_b 9.173874
_cell_length_c 29.798090
_cell_angle_alpha 90.000000
_cell_angle_beta 90.000000
_cell_angle_gamma 90.000000
_cell_volume 4332.230175
_symmetry_space_group_name_H-M "C M M M"
_symmetry_group_IT_number 65
_symmetry_cell_setting 'orthorhombic'
loop_
_space_group_symop_operation_xyz
x,y,z
-x,-y,z
x,-y,-z
-x,y,-z
-x,-y,-z
x,y,-z
-x,y,z
x,-y,z
1/2+x,1/2+y,z
1/2-x,1/2-y,z
1/2+x,1/2-y,-z
1/2-x,1/2+y,-z
1/2-x,1/2-y,-z
1/2+x,1/2+y,-z
1/2-x,1/2+y,z
1/2+x,1/2-y,z
loop_
_atom_site_type_symbol
_atom_site_label
_atom_site_fract_x
_atom_site_fract_y
_atom_site_fract_z
Si Si1 0.665080 0.171199 0.602677
Si Si2 0.403508 0.160492 0.130582
Si Si3 0.100805 0.836222 0.785820
Si Si4 0.097450 0.667713 0.301231
Si Si5 0.000000 0.326760 0.551074
Si Si6 0.837930 0.169530 0.050485
O O1 0.750000 0.250000 0.585844
O O2 0.651171 0.206993 0.654971
O O3 0.584740 0.232620 0.575015
O O4 0.675711 0.000000 0.594350
O O5 0.500000 0.137519 0.143068
O O6 0.360545 0.247222 0.171913
O O7 0.400822 0.254579 0.085085
O O8 0.361079 0.000000 0.124717
O O9 0.132548 0.763910 0.739711
O O10 0.000000 0.835488 0.787639
O O11 0.136213 0.000000 0.788128
O O12 0.108013 0.500000 0.287392
O O13 0.000000 0.702662 0.311896
O O14 0.000000 0.500000 0.554803
O O15 0.000000 0.271875 0.500000
O O16 0.750000 0.250000 0.056143
O O17 0.827458 0.000000 0.062260
O O18 0.873414 0.189499 0.000000
#
# Coordination Sequence:
#
# PCOD8271261 Si02
#       6
#    16  16  16  16   8  16
#     4  10  20  35  56  84 115 150 192 240 289 340
#     4  10  20  34  53  78 108 141 178 220 268 322
#     4   9  17  29  48  76 107 138 175 220 272 324
#     4   9  16  30  52  74 101 140 185 224 267 330
#     4   9  18  36  61  85 113 155 201 237 282 349
#     4  10  21  37  56  76 100 133 173 218 270 328
#
# _framework density 20.312864000000001
#
# number of rings (size 3 to 8) (size 9 to 14) (size 15 to 20)
#    0.000    2.455    0.909    1.636    0.000    5.818 
#    0.000    3.182    0.000    2.727    0.000    0.000 
#    0.000    0.000    0.000    0.000    0.000    0.000 
#
# Total GULP energy -545541.123292 kJ/mol
# GULP energy per Si atom -12398.661893 kJ/mol
# Density = 2.026663 g / cm^3
# Si number density = 20.312864 Si / 1000 Ang^3
#
#
#
# Elastic Constant Matrix: (Units=GPa)
#
#
# Indices 1 2 3 4 5 6 
#
# 1 75.4949 35.5057 45.4517 0.0000 0.0000 0.0000
# 2 35.5057 130.5863 72.7242 0.0000 0.0000 0.0000
# 3 45.4517 72.7242 136.4802 0.0000 0.0000 0.0000
# 4 0.0000 0.0000 0.0000 22.4226 0.0000 0.0000
# 5 0.0000 0.0000 0.0000 0.0000 10.9624 0.0000
# 6 0.0000 0.0000 0.0000 0.0000 0.0000 26.8093
#
#
#
# Elastic Compliance Matrix: (Units=1/GPa)
#
#
# Indices 1 2 3 4 5 6 
#
# 1 0.016957 -0.002084 -0.004537 0.000000 0.000000 0.000000
# 2 -0.002084 0.011145 -0.005245 0.000000 0.000000 0.000000
# 3 -0.004537 -0.005245 0.011633 0.000000 0.000000 0.000000
# 4 0.000000 0.000000 0.000000 0.044598 0.000000 0.000000
# 5 0.000000 0.000000 0.000000 0.000000 0.091221 0.000000
# 6 0.000000 0.000000 0.000000 0.000000 0.000000 0.037300
#
#
# Mechanical properties :
#
#
# Convention : Reuss Voigt Hill
#
# Bulk Modulus (GPa) = 62.48397 72.21385 67.34891
# Shear Modulus (GPa) = 20.66791 24.63083 22.64937
#
# Velocity S-wave (km/s) = 3.19326 3.48598 3.34282
# Velocity P-wave (km/s) = 6.66509 7.19936 6.93737
#
# Compressibility (1/GPa) = 0.01600410
#
# Stress axis : x y z
#
# Youngs Moduli (GPa) = 58.97108 89.72435 85.96500
#
# Poissons Ratio (x) = 0.18699 0.39001
# Poissons Ratio (y) = 0.12290 0.45086
# Poissons Ratio (z) = 0.26754 0.47058
#
# Static dielectric constant tensor:
#      x y z
#    x 3.315300 0.000000 0.000000 
#    y 0.000000 3.731110 0.000000 
#    z 0.000000 0.000000 3.763440 
# 
# 
# High freq. dielectric constant tensor:
#      x y z
#    x 1.764410 0.000000 0.000000 
#    y 0.000000 1.787470 0.000000 
#    z 0.000000 0.000000 1.799080 
# 
# From -- ./inp_files/77934.got.cif
#   From: 2010.03.12/outbox.cif.g09.slc.cpg/sg65_39_cif.got.tgz:77934.got - 2010.04.10 20:52:16.
