data_PCOD8271280
_publ_section_title
;
Structure prediction by ZEFSAII (Michael W. Deem and Ramdas Pophale) SiO2 
 PCOD8271280
Probable space group: C M M M
;
_chemical_formula_sum "Si O2"
_cell_formula_units_Z 80
_cell_length_a 8.595654
_cell_length_b 27.494252
_cell_length_c 18.607356
_cell_angle_alpha 90.000000
_cell_angle_beta 90.000000
_cell_angle_gamma 90.000000
_cell_volume 4397.496487
_symmetry_space_group_name_H-M "C M M M"
_symmetry_group_IT_number 65
_symmetry_cell_setting 'orthorhombic'
loop_
_space_group_symop_operation_xyz
x,y,z
-x,-y,z
x,-y,-z
-x,y,-z
-x,-y,-z
x,y,-z
-x,y,z
x,-y,z
1/2+x,1/2+y,z
1/2-x,1/2-y,z
1/2+x,1/2-y,-z
1/2-x,1/2+y,-z
1/2-x,1/2-y,-z
1/2+x,1/2+y,-z
1/2-x,1/2+y,z
1/2+x,1/2-y,z
loop_
_atom_site_type_symbol
_atom_site_label
_atom_site_fract_x
_atom_site_fract_y
_atom_site_fract_z
Si Si1 0.181456 0.444520 0.792347
Si Si2 0.682168 0.801826 0.582765
Si Si3 0.682961 0.198430 0.162338
Si Si4 0.683433 0.358859 0.292133
Si Si5 0.319152 0.611624 0.081651
O O1 0.216358 0.500000 0.771332
O O2 0.243016 0.410896 0.727891
O O3 0.267409 0.432400 0.867051
O O4 0.000000 0.434495 0.803643
O O5 0.721826 0.812575 0.500000
O O6 0.500000 0.801374 0.597820
O O7 0.750000 0.750000 0.606744
O O8 0.762111 0.844492 0.628279
O O9 0.500000 0.201765 0.173705
O O10 0.750000 0.250000 0.137942
O O11 0.760847 0.182435 0.237008
O O12 0.722876 0.160073 0.100031
O O13 0.500000 0.363660 0.289105
O O14 0.500000 0.622859 0.094417
O O15 0.284543 0.596118 0.000000
#
# Coordination Sequence:
#
# PCOD8271280 Si02
#       5
#    16  16  16  16  16
#     4  10  21  37  57  79 102 131 170 214 260 310
#     4  10  20  34  53  79 112 146 178 211 249 296
#     4  11  21  34  52  73 101 136 175 214 254 304
#     4  11  21  34  54  78 106 137 172 214 257 304
#     4  10  21  36  53  75 103 133 168 211 259 310
#
# _framework density 18.192169
#
# number of rings (size 3 to 8) (size 9 to 14) (size 15 to 20)
#    0.000    1.600    0.000    8.400    0.000    5.200 
#    0.000    2.000    0.000    0.600    0.000    4.200 
#    0.000    0.000    0.000    0.000    0.000    0.000 
#
# Total GULP energy -496185.850282 kJ/mol
# GULP energy per Si atom -12404.646257 kJ/mol
# Density = 1.815076 g / cm^3
# Si number density = 18.192169 Si / 1000 Ang^3
#
#
#
# Elastic Constant Matrix: (Units=GPa)
#
#
# Indices 1 2 3 4 5 6 
#
# 1 71.3568 40.3873 30.2411 0.0000 0.0000 0.0000
# 2 40.3873 115.9683 51.4929 0.0000 0.0000 0.0000
# 3 30.2411 51.4929 101.4934 0.0000 0.0000 0.0000
# 4 0.0000 0.0000 0.0000 19.7006 0.0000 0.0000
# 5 0.0000 0.0000 0.0000 0.0000 31.4113 0.0000
# 6 0.0000 0.0000 0.0000 0.0000 0.0000 31.3521
#
#
#
# Elastic Compliance Matrix: (Units=1/GPa)
#
#
# Indices 1 2 3 4 5 6 
#
# 1 0.018062 -0.005035 -0.002827 0.000000 0.000000 0.000000
# 2 -0.005035 0.012534 -0.004859 0.000000 0.000000 0.000000
# 3 -0.002827 -0.004859 0.013160 0.000000 0.000000 0.000000
# 4 0.000000 0.000000 0.000000 0.050760 0.000000 0.000000
# 5 0.000000 0.000000 0.000000 0.000000 0.031836 0.000000
# 6 0.000000 0.000000 0.000000 0.000000 0.000000 0.031896
#
#
# Mechanical properties :
#
#
# Convention : Reuss Voigt Hill
#
# Bulk Modulus (GPa) = 54.60252 59.22901 56.91576
# Shear Modulus (GPa) = 26.34423 27.60595 26.97509
#
# Velocity S-wave (km/s) = 3.80953 3.89969 3.85487
# Velocity P-wave (km/s) = 7.03061 7.27357 7.15312
#
# Compressibility (1/GPa) = 0.01831417
#
# Stress axis : x y z
#
# Youngs Moduli (GPa) = 55.36481 79.78299 75.98507
#
# Poissons Ratio (x) = 0.40170 0.21483
# Poissons Ratio (y) = 0.27876 0.36921
# Poissons Ratio (z) = 0.15653 0.38766
#
# Static dielectric constant tensor:
#      x y z
#    x 3.559840 0.000000 0.000000 
#    y 0.000000 2.788270 0.000000 
#    z 0.000000 0.000000 3.327780 
# 
# 
# High freq. dielectric constant tensor:
#      x y z
#    x 1.728470 0.000000 0.000000 
#    y 0.000000 1.694450 0.000000 
#    z 0.000000 0.000000 1.695710 
# 
# From -- ./inp_files/49876.got.cif
#   From: 2010.03.12/outbox.cif.g09.slc.cpg/sg65_25_cif.got.tgz:49876.got - 2010.04.10 20:52:16.
