data_PCOD8271527
_publ_section_title
;
Structure prediction by ZEFSAII (Michael W. Deem and Ramdas Pophale) SiO2 
 PCOD8271527
Probable space group: C M M M
;
_chemical_formula_sum "Si O2"
_cell_formula_units_Z 104
_cell_length_a 31.112777
_cell_length_b 19.079037
_cell_length_c 8.885512
_cell_angle_alpha 90.000000
_cell_angle_beta 90.000000
_cell_angle_gamma 90.000000
_cell_volume 5274.456126
_symmetry_space_group_name_H-M "C M M M"
_symmetry_group_IT_number 65
_symmetry_cell_setting 'orthorhombic'
loop_
_space_group_symop_operation_xyz
x,y,z
-x,-y,z
x,-y,-z
-x,y,-z
-x,-y,-z
x,y,-z
-x,y,z
x,-y,z
1/2+x,1/2+y,z
1/2-x,1/2-y,z
1/2+x,1/2-y,-z
1/2-x,1/2+y,-z
1/2-x,1/2-y,-z
1/2+x,1/2+y,-z
1/2-x,1/2+y,z
1/2+x,1/2-y,z
loop_
_atom_site_type_symbol
_atom_site_label
_atom_site_fract_x
_atom_site_fract_y
_atom_site_fract_z
Si Si1 0.705216 0.713409 0.824525
Si Si2 0.587318 0.080461 0.822848
Si Si3 0.500000 0.917006 0.332059
Si Si4 0.627492 0.795742 0.677234
Si Si5 0.952234 0.798484 0.326748
Si Si6 0.821421 0.079375 0.676414
Si Si7 0.088384 0.920927 0.172704
O O1 0.750000 0.750000 0.788760
O O2 0.668199 0.753780 0.736219
O O3 0.708954 0.633495 0.765361
O O4 0.694217 0.713976 0.000000
O O5 0.542398 0.107951 0.754522
O O6 0.625590 0.127559 0.754181
O O7 0.596566 0.000000 0.778192
O O8 0.585154 0.089995 0.000000
O O9 0.500000 0.883728 0.500000
O O10 0.500000 0.000000 0.341795
O O11 0.631678 0.805287 0.500000
O O12 0.583767 0.756380 0.725265
O O13 0.945369 0.819166 0.500000
O O14 0.948731 0.868903 0.227627
O O15 0.000000 0.766503 0.300387
O O16 0.817583 0.093823 0.500000
O O17 0.870164 0.093309 0.725074
O O18 0.807291 0.000000 0.717297
O O19 0.071424 0.000000 0.193338
O O20 0.100822 0.906013 0.000000
#
# Coordination Sequence:
#
# PCOD8271527 Si02
#       7
#    16  16   8  16  16  16  16
#     4  11  24  42  65  93 123 156 195 242 300 360
#     4  10  21  37  57  83 117 156 199 247 299 356
#     4   9  17  31  53  81 113 151 198 247 292 347
#     4  11  23  39  62  88 117 155 197 246 298 354
#     4  10  22  38  55  81 118 158 200 244 294 349
#     4  10  20  36  61  91 121 155 197 244 294 349
#     4  10  20  34  55  83 116 156 201 247 293 344
#
# _framework density 19.717673000000001
#
# number of rings (size 3 to 8) (size 9 to 14) (size 15 to 20)
#    0.000    1.769    1.538    2.538    1.077    6.154 
#    0.000    2.308    0.000    0.923    0.000    0.000 
#    0.000    0.000    0.000    0.000    0.000    0.000 
#
# Total GULP energy -644947.612321 kJ/mol
# GULP energy per Si atom -12402.838698 kJ/mol
# Density = 1.967279 g / cm^3
# Si number density = 19.717673 Si / 1000 Ang^3
#
#
#
# Elastic Constant Matrix: (Units=GPa)
#
#
# Indices 1 2 3 4 5 6 
#
# 1 87.3328 54.1988 40.0943 0.0000 0.0000 0.0000
# 2 54.1988 112.6185 53.2872 0.0000 0.0000 0.0000
# 3 40.0943 53.2872 87.5673 0.0000 0.0000 0.0000
# 4 0.0000 0.0000 0.0000 35.7048 0.0000 0.0000
# 5 0.0000 0.0000 0.0000 0.0000 30.2194 0.0000
# 6 0.0000 0.0000 0.0000 0.0000 0.0000 28.6911
#
#
#
# Elastic Compliance Matrix: (Units=1/GPa)
#
#
# Indices 1 2 3 4 5 6 
#
# 1 0.017271 -0.006418 -0.004002 0.000000 0.000000 0.000000
# 2 -0.006418 0.014855 -0.006101 0.000000 0.000000 0.000000
# 3 -0.004002 -0.006101 0.016965 0.000000 0.000000 0.000000
# 4 0.000000 0.000000 0.000000 0.028007 0.000000 0.000000
# 5 0.000000 0.000000 0.000000 0.000000 0.033091 0.000000
# 6 0.000000 0.000000 0.000000 0.000000 0.000000 0.034854
#
#
# Mechanical properties :
#
#
# Convention : Reuss Voigt Hill
#
# Bulk Modulus (GPa) = 62.31239 64.74213 63.52726
# Shear Modulus (GPa) = 27.25746 28.25230 27.75488
#
# Velocity S-wave (km/s) = 3.72208 3.78940 3.75589
# Velocity P-wave (km/s) = 7.08115 7.21470 7.14824
#
# Compressibility (1/GPa) = 0.01604817
#
# Stress axis : x y z
#
# Youngs Moduli (GPa) = 57.90082 67.31673 58.94493
#
# Poissons Ratio (x) = 0.43204 0.23591
# Poissons Ratio (y) = 0.37161 0.35963
# Poissons Ratio (z) = 0.23173 0.41071
#
# Static dielectric constant tensor:
#      x y z
#    x 3.345650 0.000000 0.000000 
#    y 0.000000 3.780800 0.000000 
#    z 0.000000 0.000000 3.639310 
# 
# 
# High freq. dielectric constant tensor:
#      x y z
#    x 1.739480 0.000000 0.000000 
#    y 0.000000 1.779950 0.000000 
#    z 0.000000 0.000000 1.780000 
# 
# From -- ./inp_files/16424.got.cif
#   From: 2010.03.12/outbox.cif.g09.slc.cpg/sg65_9_cif.got.tgz:16424.got - 2010.04.10 20:52:16.
