data_PCOD8271222
_publ_section_title
;
Structure prediction by ZEFSAII (Michael W. Deem and Ramdas Pophale) SiO2 
 PCOD8271222
Probable space group: C M M M
;
_chemical_formula_sum "Si O2"
_cell_formula_units_Z 88
_cell_length_a 8.887952
_cell_length_b 19.452098
_cell_length_c 27.520903
_cell_angle_alpha 90.000000
_cell_angle_beta 90.000000
_cell_angle_gamma 90.000000
_cell_volume 4758.070022
_symmetry_space_group_name_H-M "C M M M"
_symmetry_group_IT_number 65
_symmetry_cell_setting 'orthorhombic'
loop_
_space_group_symop_operation_xyz
x,y,z
-x,-y,z
x,-y,-z
-x,y,-z
-x,-y,-z
x,y,-z
-x,y,z
x,-y,z
1/2+x,1/2+y,z
1/2-x,1/2-y,z
1/2+x,1/2-y,-z
1/2-x,1/2+y,-z
1/2-x,1/2-y,-z
1/2+x,1/2+y,-z
1/2-x,1/2+y,z
1/2+x,1/2-y,z
loop_
_atom_site_type_symbol
_atom_site_label
_atom_site_fract_x
_atom_site_fract_y
_atom_site_fract_z
Si Si1 0.179148 0.325965 0.500000
Si Si2 0.823798 0.320230 0.127270
Si Si3 0.176383 0.079427 0.419924
Si Si4 0.328058 0.580247 0.944974
Si Si5 0.827788 0.421203 0.319659
Si Si6 0.177139 0.320143 0.763448
O O1 0.250000 0.250000 0.500000
O O2 0.231103 0.368619 0.453189
O O3 0.000000 0.318832 0.500000
O O4 0.750000 0.250000 0.108409
O O5 0.780709 0.381712 0.091952
O O6 0.767781 0.337917 0.181936
O O7 0.000000 0.309579 0.125979
O O8 0.221170 0.096487 0.364836
O O9 0.000000 0.092568 0.427451
O O10 0.217209 0.000000 0.432628
O O11 0.500000 0.599423 0.933216
O O12 0.300202 0.500000 0.938037
O O13 0.288363 0.602154 0.000000
O O14 0.813104 0.500000 0.304565
O O15 0.769548 0.379502 0.273044
O O16 0.000000 0.402708 0.333419
O O17 0.250000 0.250000 0.744753
O O18 0.000000 0.311208 0.762267
#
# Coordination Sequence:
#
# PCOD8271222 Si02
#       6
#     8  16  16  16  16  16
#     4  12  25  40  59  83 111 143 181 222 267 318
#     4  10  20  34  53  77 105 138 177 218 261 311
#     4  10  21  38  59  83 112 144 179 220 264 311
#     4   9  19  36  55  75 102 135 170 212 264 318
#     4   9  18  34  55  78 105 139 179 218 258 308
#     4   9  19  34  52  75 104 138 173 214 262 310
#
# _framework density 18.494893999999999
#
# number of rings (size 3 to 8) (size 9 to 14) (size 15 to 20)
#    0.000    2.364    0.000    2.727    0.000    6.182 
#    0.000    4.545    0.000    2.182    0.000    0.000 
#    0.000    0.000    0.000    0.000    0.000    0.000 
#
# Total GULP energy -545657.668927 kJ/mol
# GULP energy per Si atom -12401.310657 kJ/mol
# Density = 1.845280 g / cm^3
# Si number density = 18.494894 Si / 1000 Ang^3
#
#
#
# Elastic Constant Matrix: (Units=GPa)
#
#
# Indices 1 2 3 4 5 6 
#
# 1 74.1323 48.0049 43.8960 0.0000 0.0000 0.0000
# 2 48.0049 104.7424 74.7154 0.0000 0.0000 0.0000
# 3 43.8960 74.7154 109.7509 0.0000 0.0000 0.0000
# 4 0.0000 0.0000 0.0000 5.5133 0.0000 0.0000
# 5 0.0000 0.0000 0.0000 0.0000 28.5289 0.0000
# 6 0.0000 0.0000 0.0000 0.0000 0.0000 33.7024
#
#
#
# Elastic Compliance Matrix: (Units=1/GPa)
#
#
# Indices 1 2 3 4 5 6 
#
# 1 0.019810 -0.006663 -0.003387 0.000000 0.000000 0.000000
# 2 -0.006663 0.020801 -0.011496 0.000000 0.000000 0.000000
# 3 -0.003387 -0.011496 0.018293 0.000000 0.000000 0.000000
# 4 0.000000 0.000000 0.000000 0.181379 0.000000 0.000000
# 5 0.000000 0.000000 0.000000 0.000000 0.035052 0.000000
# 6 0.000000 0.000000 0.000000 0.000000 0.000000 0.029671
#
#
# Mechanical properties :
#
#
# Convention : Reuss Voigt Hill
#
# Bulk Modulus (GPa) = 63.24626 69.09535 66.17081
# Shear Modulus (GPa) = 14.14953 21.68288 17.91621
#
# Velocity S-wave (km/s) = 2.76896 3.42771 3.11579
# Velocity P-wave (km/s) = 6.67036 7.28737 6.98568
#
# Compressibility (1/GPa) = 0.01581121
#
# Stress axis : x y z
#
# Youngs Moduli (GPa) = 50.48051 48.07357 54.66710
#
# Poissons Ratio (x) = 0.32031 0.18516
# Poissons Ratio (y) = 0.33635 0.62846
# Poissons Ratio (z) = 0.17098 0.55266
#
# Static dielectric constant tensor:
#      x y z
#    x 3.391430 0.000000 0.000000 
#    y 0.000000 3.416990 0.000000 
#    z 0.000000 0.000000 3.529950 
# 
# 
# High freq. dielectric constant tensor:
#      x y z
#    x 1.717700 0.000000 0.000000 
#    y 0.000000 1.716170 0.000000 
#    z 0.000000 0.000000 1.723450 
# 
# From -- ./inp_files/70940.got.cif
#   From: 2010.03.12/outbox.cif.g09.slc.cpg/sg65_36_cif.got.tgz:70940.got - 2010.04.10 20:52:16.
