data_PCOD8271573
_publ_section_title
;
Structure prediction by ZEFSAII (Michael W. Deem and Ramdas Pophale) SiO2 
 PCOD8271573
Probable space group: C M M M
;
_chemical_formula_sum "Si O2"
_cell_formula_units_Z 72
_cell_length_a 17.082206
_cell_length_b 24.099136
_cell_length_c 8.917175
_cell_angle_alpha 90.000000
_cell_angle_beta 90.000000
_cell_angle_gamma 90.000000
_cell_volume 3670.901380
_symmetry_space_group_name_H-M "C M M M"
_symmetry_group_IT_number 65
_symmetry_cell_setting 'orthorhombic'
loop_
_space_group_symop_operation_xyz
x,y,z
-x,-y,z
x,-y,-z
-x,y,-z
-x,-y,-z
x,y,-z
-x,y,z
x,-y,z
1/2+x,1/2+y,z
1/2-x,1/2-y,z
1/2+x,1/2-y,-z
1/2-x,1/2+y,-z
1/2-x,1/2-y,-z
1/2+x,1/2+y,-z
1/2-x,1/2+y,z
1/2+x,1/2-y,z
loop_
_atom_site_type_symbol
_atom_site_label
_atom_site_fract_x
_atom_site_fract_y
_atom_site_fract_z
Si Si1 0.086513 0.934855 0.166107
Si Si2 0.370428 0.142735 0.322496
Si Si3 0.308840 0.359012 0.672348
Si Si4 0.342945 0.252998 0.171454
Si Si5 0.500000 0.065605 0.821715
O O1 0.147060 0.915930 0.293256
O O2 0.000000 0.911126 0.199716
O O3 0.084060 0.000000 0.173026
O O4 0.114084 0.915335 0.000000
O O5 0.385314 0.140801 0.500000
O O6 0.280620 0.131831 0.275892
O O7 0.389268 0.204616 0.260793
O O8 0.423249 0.095618 0.245137
O O9 0.309905 0.342303 0.500000
O O10 0.360934 0.313168 0.760060
O O11 0.250000 0.250000 0.192052
O O12 0.369984 0.249410 0.000000
O O13 0.500000 0.000000 0.777676
O O14 0.500000 0.072576 0.000000
#
# Coordination Sequence:
#
# PCOD8271573 Si02
#       5
#    16  16  16  16   8
#     4   9  19  36  55  76 107 146 186 230 278 327
#     4  10  21  38  59  83 114 149 185 232 288 341
#     4  10  20  34  56  86 116 147 186 231 283 343
#     4   9  17  32  56  83 111 143 180 225 276 331
#     4  11  25  43  61  83 113 151 198 247 290 339
#
# _framework density 19.613710999999999
#
# number of rings (size 3 to 8) (size 9 to 14) (size 15 to 20)
#    0.000    2.333    0.000    3.000    0.000    8.000 
#    2.000    5.556    0.000    0.000    0.000    0.000 
#    0.000    0.000    0.000    0.000    0.000    0.000 
#
# Total GULP energy -446214.717058 kJ/mol
# GULP energy per Si atom -12394.853252 kJ/mol
# Density = 1.956907 g / cm^3
# Si number density = 19.613711 Si / 1000 Ang^3
#
#
#
# Elastic Constant Matrix: (Units=GPa)
#
#
# Indices 1 2 3 4 5 6 
#
# 1 82.2731 62.6401 45.8823 0.0000 0.0000 0.0000
# 2 62.6401 106.2262 58.5551 0.0000 0.0000 0.0000
# 3 45.8823 58.5551 98.9729 0.0000 0.0000 0.0000
# 4 0.0000 0.0000 0.0000 34.0443 0.0000 0.0000
# 5 0.0000 0.0000 0.0000 0.0000 30.6960 0.0000
# 6 0.0000 0.0000 0.0000 0.0000 0.0000 33.2595
#
#
#
# Elastic Compliance Matrix: (Units=1/GPa)
#
#
# Indices 1 2 3 4 5 6 
#
# 1 0.023040 -0.011425 -0.003922 0.000000 0.000000 0.000000
# 2 -0.011425 0.019635 -0.006320 0.000000 0.000000 0.000000
# 3 -0.003922 -0.006320 0.015661 0.000000 0.000000 0.000000
# 4 0.000000 0.000000 0.000000 0.029374 0.000000 0.000000
# 5 0.000000 0.000000 0.000000 0.000000 0.032578 0.000000
# 6 0.000000 0.000000 0.000000 0.000000 0.000000 0.030067
#
#
# Mechanical properties :
#
#
# Convention : Reuss Voigt Hill
#
# Bulk Modulus (GPa) = 66.65531 69.06967 67.86249
# Shear Modulus (GPa) = 25.16515 27.62628 26.39571
#
# Velocity S-wave (km/s) = 3.58584 3.75710 3.67247
# Velocity P-wave (km/s) = 7.15557 7.35612 7.25653
#
# Compressibility (1/GPa) = 0.01500256
#
# Stress axis : x y z
#
# Youngs Moduli (GPa) = 43.40258 50.93056 63.85246
#
# Poissons Ratio (x) = 0.58186 0.25043
# Poissons Ratio (y) = 0.49585 0.40356
# Poissons Ratio (z) = 0.17022 0.32189
#
# Static dielectric constant tensor:
#      x y z
#    x 3.585340 0.000000 0.000000 
#    y 0.000000 3.640390 0.000000 
#    z 0.000000 0.000000 3.600150 
# 
# 
# High freq. dielectric constant tensor:
#      x y z
#    x 1.748170 0.000000 0.000000 
#    y 0.000000 1.766270 0.000000 
#    z 0.000000 0.000000 1.769880 
# 
# From -- ./inp_files/9470.got.cif
#   From: 2010.03.12/outbox.cif.g09.slc.cpg/sg65_5_cif.got.tgz:9470.got - 2010.04.10 20:52:16.
