data_PCOD8271240
_publ_section_title
;
Structure prediction by ZEFSAII (Michael W. Deem and Ramdas Pophale) SiO2 
 PCOD8271240
Probable space group: C M M M
;
_chemical_formula_sum "Si O2"
_cell_formula_units_Z 72
_cell_length_a 26.852880
_cell_length_b 8.435419
_cell_length_c 16.044808
_cell_angle_alpha 90.000000
_cell_angle_beta 90.000000
_cell_angle_gamma 90.000000
_cell_volume 3634.394404
_symmetry_space_group_name_H-M "C M M M"
_symmetry_group_IT_number 65
_symmetry_cell_setting 'orthorhombic'
loop_
_space_group_symop_operation_xyz
x,y,z
-x,-y,z
x,-y,-z
-x,y,-z
-x,-y,-z
x,y,-z
-x,y,z
x,-y,z
1/2+x,1/2+y,z
1/2-x,1/2-y,z
1/2+x,1/2-y,-z
1/2-x,1/2+y,-z
1/2-x,1/2-y,-z
1/2+x,1/2+y,-z
1/2-x,1/2+y,z
1/2+x,1/2-y,z
loop_
_atom_site_type_symbol
_atom_site_label
_atom_site_fract_x
_atom_site_fract_y
_atom_site_fract_z
Si Si1 0.803640 0.684923 0.245343
Si Si2 0.943821 0.684104 0.667419
Si Si3 0.098968 0.185445 0.170267
Si Si4 0.057506 0.312575 0.000000
Si Si5 0.151763 0.183884 0.594074
O O1 0.806878 0.500000 0.226373
O O2 0.750000 0.750000 0.220237
O O3 0.843425 0.775871 0.188345
O O4 0.814407 0.714648 0.343246
O O5 0.932300 0.500000 0.653092
O O6 0.936140 0.722823 0.764670
O O7 0.906709 0.785320 0.610188
O O8 0.000000 0.726620 0.641232
O O9 0.085238 0.240773 0.078808
O O10 0.089652 0.000000 0.180541
O O11 0.063046 0.500000 0.000000
O O12 0.000000 0.259919 0.000000
O O13 0.165323 0.233770 0.500000
O O14 0.162954 0.000000 0.609870
#
# Coordination Sequence:
#
# PCOD8271240 Si02
#       5
#    16  16  16   8  16
#     4  11  22  39  62  84 110 145 184 227 278 332
#     4  10  20  34  53  77 108 148 189 228 276 333
#     4  11  22  37  58  85 115 146 185 230 276 326
#     4  11  23  39  60  87 120 155 189 225 269 321
#     4  10  21  36  54  79 110 143 184 233 281 330
#
# _framework density 19.810728000000001
#
# number of rings (size 3 to 8) (size 9 to 14) (size 15 to 20)
#    0.000    1.444    0.000    9.000    0.000    8.000 
#    0.000    2.778    0.000    0.000    0.000    0.000 
#    0.000    0.000    0.000    0.000    0.000    0.000 
#
# Total GULP energy -446557.856768 kJ/mol
# GULP energy per Si atom -12404.384910 kJ/mol
# Density = 1.976564 g / cm^3
# Si number density = 19.810728 Si / 1000 Ang^3
#
#
#
# Elastic Constant Matrix: (Units=GPa)
#
#
# Indices 1 2 3 4 5 6 
#
# 1 94.1033 15.3745 21.4171 0.0000 0.0000 0.0000
# 2 15.3745 52.3168 3.6098 0.0000 0.0000 0.0000
# 3 21.4171 3.6098 86.0971 0.0000 0.0000 0.0000
# 4 0.0000 0.0000 0.0000 33.7086 0.0000 0.0000
# 5 0.0000 0.0000 0.0000 0.0000 13.1741 0.0000
# 6 0.0000 0.0000 0.0000 0.0000 0.0000 34.0966
#
#
#
# Elastic Compliance Matrix: (Units=1/GPa)
#
#
# Indices 1 2 3 4 5 6 
#
# 1 0.011798 -0.003274 -0.002798 0.000000 0.000000 0.000000
# 2 -0.003274 0.020078 -0.000027 0.000000 0.000000 0.000000
# 3 -0.002798 -0.000027 0.012312 0.000000 0.000000 0.000000
# 4 0.000000 0.000000 0.000000 0.029666 0.000000 0.000000
# 5 0.000000 0.000000 0.000000 0.000000 0.075907 0.000000
# 6 0.000000 0.000000 0.000000 0.000000 0.000000 0.029328
#
#
# Mechanical properties :
#
#
# Convention : Reuss Voigt Hill
#
# Bulk Modulus (GPa) = 31.25951 34.81333 33.03642
# Shear Modulus (GPa) = 24.75845 29.00358 26.88101
#
# Velocity S-wave (km/s) = 3.53902 3.83042 3.68760
# Velocity P-wave (km/s) = 5.70200 6.09704 5.90283
#
# Compressibility (1/GPa) = 0.03199026
#
# Stress axis : x y z
#
# Youngs Moduli (GPa) = 84.75825 49.80481 81.22247
#
# Poissons Ratio (x) = 0.16307 0.22723
# Poissons Ratio (y) = 0.27751 0.00222
# Poissons Ratio (z) = 0.23712 0.00136
#
# Static dielectric constant tensor:
#      x y z
#    x 3.661460 0.000000 0.000000 
#    y 0.000000 3.699110 0.000000 
#    z 0.000000 0.000000 3.514340 
# 
# 
# High freq. dielectric constant tensor:
#      x y z
#    x 1.775270 0.000000 0.000000 
#    y 0.000000 1.788480 0.000000 
#    z 0.000000 0.000000 1.762670 
# 
# From -- ./inp_files/46488.got.cif
#   From: 2010.03.12/outbox.cif.g09.slc.cpg/sg65_24_cif.got.tgz:46488.got - 2010.04.10 20:52:16.
