data_PCOD8271890
_publ_section_title
;
Structure prediction by ZEFSAII (Michael W. Deem and Ramdas Pophale) SiO2 
 PCOD8271890
Probable space group: C M M M
;
_chemical_formula_sum "Si O2"
_cell_formula_units_Z 64
_cell_length_a 27.346121
_cell_length_b 14.685439
_cell_length_c 7.522725
_cell_angle_alpha 90.000000
_cell_angle_beta 90.000000
_cell_angle_gamma 90.000000
_cell_volume 3021.049567
_symmetry_space_group_name_H-M "C M M M"
_symmetry_group_IT_number 65
_symmetry_cell_setting 'orthorhombic'
loop_
_space_group_symop_operation_xyz
x,y,z
-x,-y,z
x,-y,-z
-x,y,-z
-x,-y,-z
x,y,-z
-x,y,z
x,-y,z
1/2+x,1/2+y,z
1/2-x,1/2-y,z
1/2+x,1/2-y,-z
1/2-x,1/2+y,-z
1/2-x,1/2-y,-z
1/2+x,1/2+y,-z
1/2-x,1/2+y,z
1/2+x,1/2-y,z
loop_
_atom_site_type_symbol
_atom_site_label
_atom_site_fract_x
_atom_site_fract_y
_atom_site_fract_z
Si Si1 0.444182 0.258463 0.296269
Si Si2 0.263631 0.146069 0.303750
Si Si3 0.586185 0.609696 0.000000
Si Si4 0.692009 0.597839 0.000000
Si Si5 0.628038 0.898108 0.710681
O O1 0.429391 0.282418 0.500000
O O2 0.500000 0.224980 0.286713
O O3 0.438245 0.349081 0.177727
O O4 0.411390 0.175037 0.219359
O O5 0.259589 0.101075 0.500000
O O6 0.250000 0.250000 0.315732
O O7 0.224260 0.103375 0.174991
O O8 0.317807 0.131576 0.224543
O O9 0.641566 0.653704 0.000000
O O10 0.578693 0.500000 0.000000
O O11 0.667566 0.500000 0.000000
O O12 0.626542 0.898666 0.500000
O O13 0.616394 0.000000 0.783963
#
# Coordination Sequence:
#
# PCOD8271890 Si02
#       5
#    16  16   8   8  16
#     4  10  22  41  64  88 116 153 196 244 301 360
#     4  10  20  35  56  82 117 158 197 239 282 331
#     4  11  25  43  62  87 119 151 192 251 306 356
#     4  11  23  36  54  81 111 148 190 230 282 345
#     4   9  18  34  58  89 124 161 200 242 290 345
#
# _framework density 21.184691000000001
#
# number of rings (size 3 to 8) (size 9 to 14) (size 15 to 20)
#    0.000    2.000    0.000    3.000    0.000    7.500 
#    0.000    8.125    0.000    1.500    0.000    0.000 
#    0.000    0.000    0.000    0.000    0.000    0.000 
#
# Total GULP energy -396514.178667 kJ/mol
# GULP energy per Si atom -12391.068083 kJ/mol
# Density = 2.113647 g / cm^3
# Si number density = 21.184691 Si / 1000 Ang^3
#
#
#
# Elastic Constant Matrix: (Units=GPa)
#
#
# Indices 1 2 3 4 5 6 
#
# 1 125.5563 41.9778 34.0011 0.0000 0.0000 0.0000
# 2 41.9778 133.0795 34.2853 0.0000 0.0000 0.0000
# 3 34.0011 34.2853 93.0324 0.0000 0.0000 0.0000
# 4 0.0000 0.0000 0.0000 42.8787 0.0000 0.0000
# 5 0.0000 0.0000 0.0000 0.0000 34.5345 0.0000
# 6 0.0000 0.0000 0.0000 0.0000 0.0000 24.2633
#
#
#
# Elastic Compliance Matrix: (Units=1/GPa)
#
#
# Indices 1 2 3 4 5 6 
#
# 1 0.009440 -0.002308 -0.002600 0.000000 0.000000 0.000000
# 2 -0.002308 0.008867 -0.002424 0.000000 0.000000 0.000000
# 3 -0.002600 -0.002424 0.012592 0.000000 0.000000 0.000000
# 4 0.000000 0.000000 0.000000 0.023322 0.000000 0.000000
# 5 0.000000 0.000000 0.000000 0.000000 0.028957 0.000000
# 6 0.000000 0.000000 0.000000 0.000000 0.000000 0.041215
#
#
# Mechanical properties :
#
#
# Convention : Reuss Voigt Hill
#
# Bulk Modulus (GPa) = 61.59196 63.57741 62.58469
# Shear Modulus (GPa) = 34.60981 36.42890 35.51935
#
# Velocity S-wave (km/s) = 4.04631 4.15129 4.09914
# Velocity P-wave (km/s) = 7.13913 7.28380 7.21183
#
# Compressibility (1/GPa) = 0.01623588
#
# Stress axis : x y z
#
# Youngs Moduli (GPa) = 105.93017 112.77920 79.41287
#
# Poissons Ratio (x) = 0.26030 0.20644
# Poissons Ratio (y) = 0.24449 0.19251
# Poissons Ratio (z) = 0.27537 0.27340
#
# Static dielectric constant tensor:
#      x y z
#    x 3.951480 0.000000 0.000000 
#    y 0.000000 3.809460 0.000000 
#    z 0.000000 0.000000 -3.784650 
# 
# 
# High freq. dielectric constant tensor:
#      x y z
#    x 1.838860 0.000000 0.000000 
#    y 0.000000 1.828560 0.000000 
#    z 0.000000 0.000000 1.824040 
# 
# From -- ./inp_files/13377.got.cif
#   From: 2010.03.12/outbox.cif.g09.slc.cpg/sg65_7_cif.got.tgz:13377.got - 2010.04.10 20:52:16.
