data_PCOD8271987
_publ_section_title
;
Structure prediction by ZEFSAII (Michael W. Deem and Ramdas Pophale) SiO2 
 PCOD8271987
Probable space group: C M M M
;
_chemical_formula_sum "Si O2"
_cell_formula_units_Z 64
_cell_length_a 7.739427
_cell_length_b 18.634014
_cell_length_c 22.583506
_cell_angle_alpha 90.000000
_cell_angle_beta 90.000000
_cell_angle_gamma 90.000000
_cell_volume 3256.916250
_symmetry_space_group_name_H-M "C M M M"
_symmetry_group_IT_number 65
_symmetry_cell_setting 'orthorhombic'
loop_
_space_group_symop_operation_xyz
x,y,z
-x,-y,z
x,-y,-z
-x,y,-z
-x,-y,-z
x,y,-z
-x,y,z
x,-y,z
1/2+x,1/2+y,z
1/2-x,1/2-y,z
1/2+x,1/2-y,-z
1/2-x,1/2+y,-z
1/2-x,1/2-y,-z
1/2+x,1/2+y,-z
1/2-x,1/2+y,z
1/2+x,1/2-y,z
loop_
_atom_site_type_symbol
_atom_site_label
_atom_site_fract_x
_atom_site_fract_y
_atom_site_fract_z
Si Si1 0.810807 0.085220 0.000000
Si Si2 0.293544 0.419485 0.873258
Si Si3 0.000000 0.914878 0.434088
Si Si4 0.193436 0.582281 0.648611
Si Si5 0.202828 0.832539 0.761165
O O1 0.717261 0.106607 0.062286
O O2 0.000000 0.121344 0.000000
O O3 0.830699 0.000000 0.000000
O O4 0.500000 0.418939 0.877251
O O5 0.228745 0.500000 0.858371
O O6 0.226504 0.366325 0.822352
O O7 0.171397 0.888051 0.399888
O O8 0.000000 0.881142 0.500000
O O9 0.000000 0.000000 0.438790
O O10 0.238437 0.500000 0.664896
O O11 0.201596 0.628971 0.707538
O O12 0.000000 0.588576 0.622058
O O13 0.250000 0.750000 0.760730
O O14 0.000000 0.845446 0.754066
#
# Coordination Sequence:
#
# PCOD8271987 Si02
#       5
#     8  16   8  16  16
#     4   7  10  20  39  66  95 125 168 222 274 326
#     4   8  14  25  45  70  97 131 175 226 277 329
#     4   9  18  34  58  88 118 145 176 218 265 315
#     4  10  20  35  57  85 113 144 182 222 269 322
#     4  11  21  33  49  73 105 144 184 229 276 326
#
# _framework density 19.650490000000001
#
# number of rings (size 3 to 8) (size 9 to 14) (size 15 to 20)
#    0.000    2.750    1.250    3.000    0.000    1.500 
#    0.000    3.125    0.000    0.750    0.000    2.625 
#    0.000   14.000    0.000    0.000    0.000    0.000 
#
# Total GULP energy -396553.248238 kJ/mol
# GULP energy per Si atom -12392.289007 kJ/mol
# Density = 1.960576 g / cm^3
# Si number density = 19.650490 Si / 1000 Ang^3
#
#
#
# Elastic Constant Matrix: (Units=GPa)
#
#
# Indices 1 2 3 4 5 6 
#
# 1 81.8010 19.7331 47.3879 0.0000 0.0000 0.0000
# 2 19.7331 81.4633 60.1432 0.0000 0.0000 0.0000
# 3 47.3879 60.1432 186.2427 0.0000 0.0000 0.0000
# 4 0.0000 0.0000 0.0000 10.4604 0.0000 0.0000
# 5 0.0000 0.0000 0.0000 0.0000 1.8913 0.0000
# 6 0.0000 0.0000 0.0000 0.0000 0.0000 13.0721
#
#
#
# Elastic Compliance Matrix: (Units=1/GPa)
#
#
# Indices 1 2 3 4 5 6 
#
# 1 0.014404 -0.001029 -0.003333 0.000000 0.000000 0.000000
# 2 -0.001029 0.016192 -0.004967 0.000000 0.000000 0.000000
# 3 -0.003333 -0.004967 0.007821 0.000000 0.000000 0.000000
# 4 0.000000 0.000000 0.000000 0.095598 0.000000 0.000000
# 5 0.000000 0.000000 0.000000 0.000000 0.528727 0.000000
# 6 0.000000 0.000000 0.000000 0.000000 0.000000 0.076499
#
#
# Mechanical properties :
#
#
# Convention : Reuss Voigt Hill
#
# Bulk Modulus (GPa) = 50.60731 67.11505 58.86118
# Shear Modulus (GPa) = 6.54036 19.90095 13.22065
#
# Velocity S-wave (km/s) = 1.82635 3.18582 2.59663
# Velocity P-wave (km/s) = 5.50064 6.91094 6.24573
#
# Compressibility (1/GPa) = 0.01975999
#
# Stress axis : x y z
#
# Youngs Moduli (GPa) = 69.42723 61.75985 127.85522
#
# Poissons Ratio (x) = 0.06352 0.42611
# Poissons Ratio (y) = 0.07141 0.63507
# Poissons Ratio (z) = 0.23138 0.30677
#
# Static dielectric constant tensor:
#      x y z
#    x 3.405480 0.000000 0.000000 
#    y 0.000000 3.151810 0.000000 
#    z 0.000000 0.000000 3.983560 
# 
# 
# High freq. dielectric constant tensor:
#      x y z
#    x 1.748950 0.000000 0.000000 
#    y 0.000000 1.722650 0.000000 
#    z 0.000000 0.000000 1.775280 
# 
# From -- ./inp_files/66756.got.cif
#   From: 2010.03.12/outbox.cif.g09.slc.cpg/sg65_34_cif.got.tgz:66756.got - 2010.04.10 20:52:16.
