data_PCOD8271268
_publ_section_title
;
Structure prediction by ZEFSAII (Michael W. Deem and Ramdas Pophale) SiO2 
 PCOD8271268
Probable space group: C M M M
;
_chemical_formula_sum "Si O2"
_cell_formula_units_Z 120
_cell_length_a 28.168056
_cell_length_b 25.030301
_cell_length_c 8.856101
_cell_angle_alpha 90.000000
_cell_angle_beta 90.000000
_cell_angle_gamma 90.000000
_cell_volume 6244.037584
_symmetry_space_group_name_H-M "C M M M"
_symmetry_group_IT_number 65
_symmetry_cell_setting 'orthorhombic'
loop_
_space_group_symop_operation_xyz
x,y,z
-x,-y,z
x,-y,-z
-x,y,-z
-x,-y,-z
x,y,-z
-x,y,z
x,-y,z
1/2+x,1/2+y,z
1/2-x,1/2-y,z
1/2+x,1/2-y,-z
1/2-x,1/2+y,-z
1/2-x,1/2-y,-z
1/2+x,1/2+y,-z
1/2-x,1/2+y,z
1/2+x,1/2-y,z
loop_
_atom_site_type_symbol
_atom_site_label
_atom_site_fract_x
_atom_site_fract_y
_atom_site_fract_z
Si Si1 0.000000 0.937858 0.178442
Si Si2 0.099573 0.244138 0.327434
Si Si3 0.702802 0.281407 0.671678
Si Si4 0.412838 0.375883 0.320399
Si Si5 0.946413 0.649262 0.319767
Si Si6 0.874185 0.560541 0.321433
Si Si7 0.720453 0.062626 0.832355
Si Si8 0.183927 0.112259 0.176061
O O1 0.954145 0.909673 0.246138
O O2 0.000000 0.000000 0.225035
O O3 0.000000 0.930739 0.000000
O O4 0.083579 0.242080 0.500000
O O5 0.155994 0.255451 0.312149
O O6 0.085553 0.185795 0.259666
O O7 0.072318 0.294139 0.250864
O O8 0.704772 0.304466 0.500000
O O9 0.750000 0.250000 0.712036
O O10 0.698891 0.327117 0.795240
O O11 0.417038 0.378300 0.500000
O O12 0.363110 0.402619 0.270203
O O13 0.943168 0.650853 0.500000
O O14 0.915074 0.599808 0.258133
O O15 0.000000 0.640209 0.263733
O O16 0.873641 0.560831 0.500000
O O17 0.883760 0.500000 0.261876
O O18 0.823381 0.583779 0.267428
O O19 0.771766 0.077342 0.763285
O O20 0.716706 0.000000 0.839903
O O21 0.716281 0.087829 0.000000
O O22 0.173634 0.102122 0.000000
#
# Coordination Sequence:
#
# PCOD8271268 Si02
#       8
#     8  16  16  16  16  16  16  16
#     4  11  25  43  63  87 115 149 186 223 276 338
#     4   8  16  30  48  76 106 137 178 220 269 323
#     4   9  18  31  49  74 104 140 180 225 275 329
#     4  10  21  38  60  84 112 145 185 232 273 321
#     4   9  17  28  47  76 106 137 176 221 272 328
#     4   9  18  31  49  76 106 136 176 227 275 319
#     4   9  19  35  53  73 101 141 181 215 262 324
#     4  10  20  34  53  78 109 143 180 222 274 335
#
# _framework density 19.218335
#
# number of rings (size 3 to 8) (size 9 to 14) (size 15 to 20)
#    0.000    2.733    0.000    1.800    2.800    2.667 
#    0.000    2.667    0.000    1.200    0.000    1.867 
#    0.000    0.000    0.000    0.000    0.000    0.000 
#
# Total GULP energy -743637.584405 kJ/mol
# GULP energy per Si atom -12393.959740 kJ/mol
# Density = 1.917459 g / cm^3
# Si number density = 19.218335 Si / 1000 Ang^3
#
#
#
# Elastic Constant Matrix: (Units=GPa)
#
#
# Indices 1 2 3 4 5 6 
#
# 1 182.8403 85.2084 36.1800 0.0000 0.0000 0.0000
# 2 85.2084 97.4348 28.8293 0.0000 0.0000 0.0000
# 3 36.1800 28.8293 34.2653 0.0000 0.0000 0.0000
# 4 0.0000 0.0000 0.0000 20.2531 0.0000 0.0000
# 5 0.0000 0.0000 0.0000 0.0000 21.6686 0.0000
# 6 0.0000 0.0000 0.0000 0.0000 0.0000 38.3504
#
#
#
# Elastic Compliance Matrix: (Units=1/GPa)
#
#
# Indices 1 2 3 4 5 6 
#
# 1 0.009648 -0.007221 -0.004112 0.000000 0.000000 0.000000
# 2 -0.007221 0.019069 -0.008420 0.000000 0.000000 0.000000
# 3 -0.004112 -0.008420 0.040610 0.000000 0.000000 0.000000
# 4 0.000000 0.000000 0.000000 0.049375 0.000000 0.000000
# 5 0.000000 0.000000 0.000000 0.000000 0.046150 0.000000
# 6 0.000000 0.000000 0.000000 0.000000 0.000000 0.026075
#
#
# Mechanical properties :
#
#
# Convention : Reuss Voigt Hill
#
# Bulk Modulus (GPa) = 33.53216 68.33065 50.93141
# Shear Modulus (GPa) = 20.80106 27.00926 23.90516
#
# Velocity S-wave (km/s) = 3.29349 3.75292 3.53068
# Velocity P-wave (km/s) = 5.65231 7.37640 6.57115
#
# Compressibility (1/GPa) = 0.02982211
#
# Stress axis : x y z
#
# Youngs Moduli (GPa) = 103.64944 52.44077 24.62460
#
# Poissons Ratio (x) = 0.37866 0.10125
# Poissons Ratio (y) = 0.74841 0.20734
# Poissons Ratio (z) = 0.42619 0.44154
#
# Static dielectric constant tensor:
#      x y z
#    x 3.822890 0.000000 0.000000 
#    y 0.000000 3.630210 0.000000 
#    z 0.000000 0.000000 3.284540 
# 
# 
# High freq. dielectric constant tensor:
#      x y z
#    x 1.761920 0.000000 0.000000 
#    y 0.000000 1.740080 0.000000 
#    z 0.000000 0.000000 1.712310 
# 
# From -- ./inp_files/17058.got.cif
#   From: 2010.03.12/outbox.cif.g09.slc.cpg/sg65_9_cif.got.tgz:17058.got - 2010.04.10 20:52:16.
