data_PCOD8271671
_publ_section_title
;
Structure prediction by ZEFSAII (Michael W. Deem and Ramdas Pophale) SiO2 
 PCOD8271671
Probable space group: C M M M
;
_chemical_formula_sum "Si O2"
_cell_formula_units_Z 88
_cell_length_a 28.094055
_cell_length_b 9.064870
_cell_length_c 18.076967
_cell_angle_alpha 90.000000
_cell_angle_beta 90.000000
_cell_angle_gamma 90.000000
_cell_volume 4603.642320
_symmetry_space_group_name_H-M "C M M M"
_symmetry_group_IT_number 65
_symmetry_cell_setting 'orthorhombic'
loop_
_space_group_symop_operation_xyz
x,y,z
-x,-y,z
x,-y,-z
-x,y,-z
-x,-y,-z
x,y,-z
-x,y,z
x,-y,z
1/2+x,1/2+y,z
1/2-x,1/2-y,z
1/2+x,1/2-y,-z
1/2-x,1/2+y,-z
1/2-x,1/2-y,-z
1/2+x,1/2+y,-z
1/2-x,1/2+y,z
1/2+x,1/2-y,z
loop_
_atom_site_type_symbol
_atom_site_label
_atom_site_fract_x
_atom_site_fract_y
_atom_site_fract_z
Si Si1 0.443152 0.667471 0.000000
Si Si2 0.888794 0.673508 0.291955
Si Si3 0.300898 0.674254 0.238372
Si Si4 0.055138 0.672193 0.853731
Si Si5 0.944504 0.167621 0.415606
Si Si6 0.799594 0.170602 0.077667
O O1 0.423453 0.744070 0.925398
O O2 0.424730 0.500000 0.000000
O O3 0.500000 0.678729 0.000000
O O4 0.880101 0.500000 0.291393
O O5 0.838144 0.756257 0.295431
O O6 0.918209 0.725359 0.219984
O O7 0.916861 0.716844 0.365316
O O8 0.295871 0.500000 0.251868
O O9 0.250000 0.750000 0.250220
O O10 0.322998 0.714183 0.156281
O O11 0.062313 0.500000 0.868429
O O12 0.000000 0.712436 0.842291
O O13 0.928330 0.192338 0.500000
O O14 0.000000 0.200554 0.407210
O O15 0.933162 0.000000 0.390998
O O16 0.750000 0.250000 0.071666
O O17 0.787212 0.000000 0.081676
O O18 0.828865 0.205012 0.000000
#
# Coordination Sequence:
#
# PCOD8271671 Si02
#       6
#     8  16  16  16  16  16
#     4   9  17  29  47  71  98 133 180 229 273 317
#     4  11  22  35  54  82 113 145 185 226 270 327
#     4  10  20  35  54  75 105 143 186 234 283 331
#     4   9  18  33  51  71 102 143 181 220 268 321
#     4   9  19  37  61  89 120 150 178 214 266 326
#     4   8  14  26  45  67  91 123 166 218 274 325
#
# _framework density 19.115299
#
# number of rings (size 3 to 8) (size 9 to 14) (size 15 to 20)
#    0.000    2.636    0.000    2.455    0.000    4.727 
#    1.636    2.727    0.000    0.545    0.000    0.000 
#    0.000    0.000    0.000    0.000    0.000    0.000 
#
# Total GULP energy -545283.873256 kJ/mol
# GULP energy per Si atom -12392.815301 kJ/mol
# Density = 1.907179 g / cm^3
# Si number density = 19.115299 Si / 1000 Ang^3
#
#
#
# Elastic Constant Matrix: (Units=GPa)
#
#
# Indices 1 2 3 4 5 6 
#
# 1 59.9371 39.5758 46.7936 0.0000 0.0000 0.0000
# 2 39.5758 78.8259 46.1126 0.0000 0.0000 0.0000
# 3 46.7936 46.1126 101.3205 0.0000 0.0000 0.0000
# 4 0.0000 0.0000 0.0000 32.6600 0.0000 0.0000
# 5 0.0000 0.0000 0.0000 0.0000 26.0009 0.0000
# 6 0.0000 0.0000 0.0000 0.0000 0.0000 25.2693
#
#
#
# Elastic Compliance Matrix: (Units=1/GPa)
#
#
# Indices 1 2 3 4 5 6 
#
# 1 0.030723 -0.009710 -0.009770 0.000000 0.000000 0.000000
# 2 -0.009710 0.020358 -0.004781 0.000000 0.000000 0.000000
# 3 -0.009770 -0.004781 0.016558 0.000000 0.000000 0.000000
# 4 0.000000 0.000000 0.000000 0.030618 0.000000 0.000000
# 5 0.000000 0.000000 0.000000 0.000000 0.038460 0.000000
# 6 0.000000 0.000000 0.000000 0.000000 0.000000 0.039574
#
#
# Mechanical properties :
#
#
# Convention : Reuss Voigt Hill
#
# Bulk Modulus (GPa) = 52.30831 56.11640 54.21236
# Shear Modulus (GPa) = 21.62778 23.95946 22.79362
#
# Velocity S-wave (km/s) = 3.36734 3.54421 3.45690
# Velocity P-wave (km/s) = 6.52247 6.79478 6.66002
#
# Compressibility (1/GPa) = 0.01911742
#
# Stress axis : x y z
#
# Youngs Moduli (GPa) = 32.54918 49.12109 60.39489
#
# Poissons Ratio (x) = 0.47694 0.59005
# Poissons Ratio (y) = 0.31604 0.28875
# Poissons Ratio (z) = 0.31800 0.23485
#
# Static dielectric constant tensor:
#      x y z
#    x 3.180990 0.000000 0.000000 
#    y 0.000000 3.381690 0.000000 
#    z 0.000000 0.000000 3.622210 
# 
# 
# High freq. dielectric constant tensor:
#      x y z
#    x 1.726500 0.000000 0.000000 
#    y 0.000000 1.745530 0.000000 
#    z 0.000000 0.000000 1.735960 
# 
# From -- ./inp_files/57972.got.cif
#   From: 2010.03.12/outbox.cif.g09.slc.cpg/sg65_29_cif.got.tgz:57972.got - 2010.04.10 20:52:16.
