data_PCOD8271608
_publ_section_title
;
Structure prediction by ZEFSAII (Michael W. Deem and Ramdas Pophale) SiO2 
 PCOD8271608
Probable space group: C M M M
;
_chemical_formula_sum "Si O2"
_cell_formula_units_Z 80
_cell_length_a 8.790994
_cell_length_b 22.243839
_cell_length_c 22.116225
_cell_angle_alpha 90.000000
_cell_angle_beta 90.000000
_cell_angle_gamma 90.000000
_cell_volume 4324.727285
_symmetry_space_group_name_H-M "C M M M"
_symmetry_group_IT_number 65
_symmetry_cell_setting 'orthorhombic'
loop_
_space_group_symop_operation_xyz
x,y,z
-x,-y,z
x,-y,-z
-x,y,-z
-x,-y,-z
x,y,-z
-x,y,z
x,-y,z
1/2+x,1/2+y,z
1/2-x,1/2-y,z
1/2+x,1/2-y,-z
1/2-x,1/2+y,-z
1/2-x,1/2-y,-z
1/2+x,1/2+y,-z
1/2-x,1/2+y,z
1/2+x,1/2-y,z
loop_
_atom_site_type_symbol
_atom_site_label
_atom_site_fract_x
_atom_site_fract_y
_atom_site_fract_z
Si Si1 0.678982 0.624123 0.115423
Si Si2 0.320035 0.185966 0.000000
Si Si3 0.178682 0.688016 0.777408
Si Si4 0.180328 0.432887 0.430952
Si Si5 0.822844 0.000000 0.066245
Si Si6 0.179095 0.313897 0.638114
O O1 0.500000 0.637781 0.112590
O O2 0.761910 0.656898 0.061195
O O3 0.745012 0.637855 0.181325
O O4 0.723894 0.555460 0.107006
O O5 0.250000 0.250000 0.000000
O O6 0.500000 0.186987 0.000000
O O7 0.250000 0.750000 0.799996
O O8 0.221254 0.675777 0.707954
O O9 0.000000 0.689550 0.787912
O O10 0.233214 0.425321 0.500000
O O11 0.235928 0.500000 0.407625
O O12 0.245052 0.374136 0.395126
O O13 0.000000 0.431701 0.425654
O O14 0.000000 0.000000 0.052921
O O15 0.741263 0.000000 0.000000
O O16 0.250000 0.250000 0.615061
O O17 0.000000 0.308163 0.627350
#
# Coordination Sequence:
#
# PCOD8271608 Si02
#       6
#    16   8  16  16   8  16
#     4  11  21  37  58  77 100 133 170 208 249 304
#     4  12  24  37  54  79 105 130 164 208 257 306
#     4  10  20  35  52  75 104 136 170 210 260 308
#     4   8  14  27  49  76 105 139 179 219 260 309
#     4   9  18  36  58  76  98 130 163 196 249 309
#     4   9  18  32  51  76 106 139 174 216 264 312
#
# _framework density 18.498277000000002
#
# number of rings (size 3 to 8) (size 9 to 14) (size 15 to 20)
#    0.000    2.300    1.000    3.300    0.000    1.200 
#    1.800    2.500    0.000    0.600    0.000    1.400 
#    0.000    0.000    0.000    0.000    0.000    0.000 
#
# Total GULP energy -495637.698065 kJ/mol
# GULP energy per Si atom -12390.942452 kJ/mol
# Density = 1.845617 g / cm^3
# Si number density = 18.498277 Si / 1000 Ang^3
#
#
#
# Elastic Constant Matrix: (Units=GPa)
#
#
# Indices 1 2 3 4 5 6 
#
# 1 70.7294 42.7330 31.7007 0.0000 0.0000 0.0000
# 2 42.7330 190.5744 81.6359 0.0000 0.0000 0.0000
# 3 31.7007 81.6359 94.9405 0.0000 0.0000 0.0000
# 4 0.0000 0.0000 0.0000 40.6554 0.0000 0.0000
# 5 0.0000 0.0000 0.0000 0.0000 26.7406 0.0000
# 6 0.0000 0.0000 0.0000 0.0000 0.0000 21.6593
#
#
#
# Elastic Compliance Matrix: (Units=1/GPa)
#
#
# Indices 1 2 3 4 5 6 
#
# 1 0.017195 -0.002210 -0.003841 0.000000 0.000000 0.000000
# 2 -0.002210 0.008591 -0.006649 0.000000 0.000000 0.000000
# 3 -0.003841 -0.006649 0.017533 0.000000 0.000000 0.000000
# 4 0.000000 0.000000 0.000000 0.024597 0.000000 0.000000
# 5 0.000000 0.000000 0.000000 0.000000 0.037396 0.000000
# 6 0.000000 0.000000 0.000000 0.000000 0.000000 0.046169
#
#
# Mechanical properties :
#
#
# Convention : Reuss Voigt Hill
#
# Bulk Modulus (GPa) = 55.80873 74.26484 65.03678
# Shear Modulus (GPa) = 27.34391 31.15605 29.24998
#
# Velocity S-wave (km/s) = 3.84889 4.10844 3.98078
# Velocity P-wave (km/s) = 7.07016 7.92084 7.50756
#
# Compressibility (1/GPa) = 0.01791834
#
# Stress axis : x y z
#
# Youngs Moduli (GPa) = 58.15521 116.39707 57.03593
#
# Poissons Ratio (x) = 0.25729 0.21906
# Poissons Ratio (y) = 0.12855 0.37925
# Poissons Ratio (z) = 0.22336 0.77395
#
# Static dielectric constant tensor:
#      x y z
#    x 3.223820 0.000000 0.000000 
#    y 0.000000 3.693820 0.000000 
#    z 0.000000 0.000000 3.434280 
# 
# 
# High freq. dielectric constant tensor:
#      x y z
#    x 1.693580 0.000000 0.000000 
#    y 0.000000 1.732350 0.000000 
#    z 0.000000 0.000000 1.714440 
# 
# From -- ./inp_files/67343.got.cif
#   From: 2010.03.12/outbox.cif.g09.slc.cpg/sg65_34_cif.got.tgz:67343.got - 2010.04.10 20:52:16.
