data_PCOD8271417
_publ_section_title
;
Structure prediction by ZEFSAII (Michael W. Deem and Ramdas Pophale) SiO2 
 PCOD8271417
Probable space group: C M M M
;
_chemical_formula_sum "Si O2"
_cell_formula_units_Z 88
_cell_length_a 9.843775
_cell_length_b 25.863811
_cell_length_c 19.602466
_cell_angle_alpha 90.000000
_cell_angle_beta 90.000000
_cell_angle_gamma 90.000000
_cell_volume 4990.739546
_symmetry_space_group_name_H-M "C M M M"
_symmetry_group_IT_number 65
_symmetry_cell_setting 'orthorhombic'
loop_
_space_group_symop_operation_xyz
x,y,z
-x,-y,z
x,-y,-z
-x,y,-z
-x,-y,-z
x,y,-z
-x,y,z
x,-y,z
1/2+x,1/2+y,z
1/2-x,1/2-y,z
1/2+x,1/2-y,-z
1/2-x,1/2+y,-z
1/2-x,1/2-y,-z
1/2+x,1/2+y,-z
1/2-x,1/2+y,z
1/2+x,1/2-y,z
loop_
_atom_site_type_symbol
_atom_site_label
_atom_site_fract_x
_atom_site_fract_y
_atom_site_fract_z
Si Si1 0.500000 0.940429 0.080674
Si Si2 0.249521 0.598323 0.841903
Si Si3 0.500000 0.559677 0.074905
Si Si4 0.155135 0.139799 0.363397
Si Si5 0.843779 0.440496 0.698872
Si Si6 0.656517 0.700421 0.500000
Si Si7 0.341454 0.299899 0.226143
O O1 0.625482 0.907150 0.106799
O O2 0.500000 0.000000 0.108555
O O3 0.500000 0.941468 0.000000
O O4 0.372749 0.572962 0.880026
O O5 0.220552 0.566916 0.773089
O O6 0.284093 0.657736 0.826268
O O7 0.500000 0.500000 0.059689
O O8 0.500000 0.587621 0.000000
O O9 0.257280 0.091779 0.355920
O O10 0.191047 0.166626 0.434179
O O11 0.178163 0.181068 0.303407
O O12 0.000000 0.119257 0.361953
O O13 0.834640 0.500000 0.677332
O O14 0.000000 0.421207 0.699121
O O15 0.500000 0.718396 0.500000
O O16 0.750000 0.750000 0.500000
O O17 0.500000 0.288018 0.211026
O O18 0.250000 0.250000 0.214384
#
# Coordination Sequence:
#
# PCOD8271417 Si02
#       7
#     8  16   8  16  16   8  16
#     4  11  22  36  57  85 115 146 180 221 276 337
#     4  11  21  37  55  84 114 144 185 231 276 332
#     4  11  22  36  57  83 113 148 180 221 280 341
#     4   9  20  36  54  83 113 142 182 226 273 330
#     4  10  20  34  54  80 111 146 186 228 272 323
#     4  10  20  36  57  82 113 145 180 225 279 332
#     4  10  21  36  57  82 108 141 185 231 276 321
#
# _framework density 17.632657999999999
#
# number of rings (size 3 to 8) (size 9 to 14) (size 15 to 20)
#    0.000    1.818    1.818    2.727    2.545    3.273 
#    0.000    0.455    0.000    6.000    0.000    0.000 
#    0.000    0.000    0.000    0.000    0.000    0.000 
#
# Total GULP energy -545629.452231 kJ/mol
# GULP energy per Si atom -12400.669369 kJ/mol
# Density = 1.759253 g / cm^3
# Si number density = 17.632658 Si / 1000 Ang^3
#
#
#
# Elastic Constant Matrix: (Units=GPa)
#
#
# Indices 1 2 3 4 5 6 
#
# 1 158.6571 78.0651 66.1202 0.0000 0.0000 0.0000
# 2 78.0651 114.9661 54.3776 0.0000 0.0000 0.0000
# 3 66.1202 54.3776 105.6045 0.0000 0.0000 0.0000
# 4 0.0000 0.0000 0.0000 19.3478 0.0000 0.0000
# 5 0.0000 0.0000 0.0000 0.0000 33.9867 0.0000
# 6 0.0000 0.0000 0.0000 0.0000 0.0000 37.7681
#
#
#
# Elastic Compliance Matrix: (Units=1/GPa)
#
#
# Indices 1 2 3 4 5 6 
#
# 1 0.010529 -0.005329 -0.003848 0.000000 0.000000 0.000000
# 2 -0.005329 0.014196 -0.003973 0.000000 0.000000 0.000000
# 3 -0.003848 -0.003973 0.013924 0.000000 0.000000 0.000000
# 4 0.000000 0.000000 0.000000 0.051685 0.000000 0.000000
# 5 0.000000 0.000000 0.000000 0.000000 0.029423 0.000000
# 6 0.000000 0.000000 0.000000 0.000000 0.000000 0.026477
#
#
# Mechanical properties :
#
#
# Convention : Reuss Voigt Hill
#
# Bulk Modulus (GPa) = 80.98164 86.26151 83.62157
# Shear Modulus (GPa) = 28.30415 30.26483 29.28449
#
# Velocity S-wave (km/s) = 4.01086 4.14745 4.07972
# Velocity P-wave (km/s) = 8.21438 8.48309 8.34982
#
# Compressibility (1/GPa) = 0.01234848
#
# Stress axis : x y z
#
# Youngs Moduli (GPa) = 94.97799 70.44159 71.81609
#
# Poissons Ratio (x) = 0.37540 0.27635
# Poissons Ratio (y) = 0.50616 0.28534
# Poissons Ratio (z) = 0.36548 0.27988
#
# Static dielectric constant tensor:
#      x y z
#    x 3.581220 0.000000 0.000000 
#    y 0.000000 3.225870 0.000000 
#    z 0.000000 0.000000 3.318600 
# 
# 
# High freq. dielectric constant tensor:
#      x y z
#    x 1.700640 0.000000 0.000000 
#    y 0.000000 1.671400 0.000000 
#    z 0.000000 0.000000 1.679760 
# 
# From -- ./inp_files/59851.got.cif
#   From: 2010.03.12/outbox.cif.g09.slc.cpg/sg65_30_cif.got.tgz:59851.got - 2010.04.10 20:52:16.
