data_PCOD8271854
_publ_section_title
;
Structure prediction by ZEFSAII (Michael W. Deem and Ramdas Pophale) SiO2 
 PCOD8271854
Probable space group: C M M M
;
_chemical_formula_sum "Si O2"
_cell_formula_units_Z 72
_cell_length_a 27.433618
_cell_length_b 16.215429
_cell_length_c 8.635097
_cell_angle_alpha 90.000000
_cell_angle_beta 90.000000
_cell_angle_gamma 90.000000
_cell_volume 3841.304636
_symmetry_space_group_name_H-M "C M M M"
_symmetry_group_IT_number 65
_symmetry_cell_setting 'orthorhombic'
loop_
_space_group_symop_operation_xyz
x,y,z
-x,-y,z
x,-y,-z
-x,y,-z
-x,-y,-z
x,y,-z
-x,y,z
x,-y,z
1/2+x,1/2+y,z
1/2-x,1/2-y,z
1/2+x,1/2-y,-z
1/2-x,1/2+y,-z
1/2-x,1/2-y,-z
1/2+x,1/2+y,-z
1/2-x,1/2+y,z
1/2+x,1/2-y,z
loop_
_atom_site_type_symbol
_atom_site_label
_atom_site_fract_x
_atom_site_fract_y
_atom_site_fract_z
Si Si1 0.943845 0.500000 0.183095
Si Si2 0.552792 0.321434 0.318272
Si Si3 0.107389 0.339944 0.316759
Si Si4 0.352953 0.407223 0.319332
Si Si5 0.805276 0.247696 0.181009
O O1 0.913627 0.578444 0.240011
O O2 0.000000 0.500000 0.246724
O O3 0.944894 0.500000 0.000000
O O4 0.546439 0.312676 0.500000
O O5 0.500000 0.338913 0.240965
O O6 0.574005 0.235123 0.255717
O O7 0.589720 0.395669 0.279027
O O8 0.106189 0.351075 0.500000
O O9 0.162842 0.318162 0.266672
O O10 0.344006 0.386915 0.500000
O O11 0.337398 0.500000 0.277893
O O12 0.322354 0.345038 0.216044
O O13 0.750000 0.250000 0.241449
O O14 0.808757 0.265850 0.000000
#
# Coordination Sequence:
#
# PCOD8271854 Si02
#       5
#     8  16  16  16  16
#     4  11  23  37  55  83 121 157 187 229 284 341
#     4   8  14  26  47  75 105 136 170 210 255 303
#     4  10  20  35  56  81 109 143 187 233 275 327
#     4   9  18  32  51  78 108 137 173 217 261 315
#     4  10  21  38  58  78 103 140 181 227 285 342
#
# _framework density 18.743632000000002
#
# number of rings (size 3 to 8) (size 9 to 14) (size 15 to 20)
#    0.000    2.556    0.000    3.667    0.000    4.444 
#    2.000    2.222    0.000    6.000    0.000    6.222 
#    0.000    0.000    0.000    0.000    0.000    0.000 
#
# Total GULP energy -446220.608346 kJ/mol
# GULP energy per Si atom -12395.016899 kJ/mol
# Density = 1.870097 g / cm^3
# Si number density = 18.743632 Si / 1000 Ang^3
#
#
#
# Elastic Constant Matrix: (Units=GPa)
#
#
# Indices 1 2 3 4 5 6 
#
# 1 145.1090 42.6061 25.1641 0.0000 0.0000 0.0000
# 2 42.6061 97.1510 19.4355 0.0000 0.0000 0.0000
# 3 25.1641 19.4355 44.7593 0.0000 0.0000 0.0000
# 4 0.0000 0.0000 0.0000 26.5196 0.0000 0.0000
# 5 0.0000 0.0000 0.0000 0.0000 20.2992 0.0000
# 6 0.0000 0.0000 0.0000 0.0000 0.0000 10.1366
#
#
#
# Elastic Compliance Matrix: (Units=1/GPa)
#
#
# Indices 1 2 3 4 5 6 
#
# 1 0.008358 -0.002985 -0.003403 0.000000 0.000000 0.000000
# 2 -0.002985 0.012338 -0.003680 0.000000 0.000000 0.000000
# 3 -0.003403 -0.003680 0.025853 0.000000 0.000000 0.000000
# 4 0.000000 0.000000 0.000000 0.037708 0.000000 0.000000
# 5 0.000000 0.000000 0.000000 0.000000 0.049263 0.000000
# 6 0.000000 0.000000 0.000000 0.000000 0.000000 0.098653
#
#
# Mechanical properties :
#
#
# Convention : Reuss Voigt Hill
#
# Bulk Modulus (GPa) = 37.85787 51.27007 44.56397
# Shear Modulus (GPa) = 19.14892 24.71198 21.93045
#
# Velocity S-wave (km/s) = 3.19975 3.63494 3.42427
# Velocity P-wave (km/s) = 5.82175 6.71043 6.28182
#
# Compressibility (1/GPa) = 0.02641459
#
# Stress axis : x y z
#
# Youngs Moduli (GPa) = 119.64870 81.04856 38.68087
#
# Poissons Ratio (x) = 0.24190 0.13163
# Poissons Ratio (y) = 0.35710 0.14233
# Poissons Ratio (z) = 0.40715 0.29822
#
# Static dielectric constant tensor:
#      x y z
#    x 3.789360 0.000000 0.000000 
#    y 0.000000 3.379110 0.000000 
#    z 0.000000 0.000000 3.213550 
# 
# 
# High freq. dielectric constant tensor:
#      x y z
#    x 1.734080 0.000000 0.000000 
#    y 0.000000 1.723590 0.000000 
#    z 0.000000 0.000000 1.708690 
# 
# From -- ./inp_files/7227.got.cif
#   From: 2010.03.12/outbox.cif.g09.slc.cpg/sg65_4_cif.got.tgz:7227.got - 2010.04.10 20:52:16.
