data_PCOD8271215
_publ_section_title
;
Structure prediction by ZEFSAII (Michael W. Deem and Ramdas Pophale) SiO2 
 PCOD8271215
Probable space group: C M M M
;
_chemical_formula_sum "Si O2"
_cell_formula_units_Z 88
_cell_length_a 19.120285
_cell_length_b 8.878784
_cell_length_c 28.282774
_cell_angle_alpha 90.000000
_cell_angle_beta 90.000000
_cell_angle_gamma 90.000000
_cell_volume 4801.421749
_symmetry_space_group_name_H-M "C M M M"
_symmetry_group_IT_number 65
_symmetry_cell_setting 'orthorhombic'
loop_
_space_group_symop_operation_xyz
x,y,z
-x,-y,z
x,-y,-z
-x,y,-z
-x,-y,-z
x,y,-z
-x,y,z
x,-y,z
1/2+x,1/2+y,z
1/2-x,1/2-y,z
1/2+x,1/2-y,-z
1/2-x,1/2+y,-z
1/2-x,1/2-y,-z
1/2+x,1/2+y,-z
1/2-x,1/2+y,z
1/2+x,1/2-y,z
loop_
_atom_site_type_symbol
_atom_site_label
_atom_site_fract_x
_atom_site_fract_y
_atom_site_fract_z
Si Si1 0.083164 0.830048 0.500000
Si Si2 0.580904 0.327760 0.054458
Si Si3 0.417967 0.824979 0.404907
Si Si4 0.324834 0.325084 0.221548
Si Si5 0.174456 0.824622 0.326190
Si Si6 0.673959 0.177133 0.869929
O O1 0.111342 0.745649 0.453511
O O2 0.000000 0.826640 0.500000
O O3 0.111981 0.000000 0.500000
O O4 0.500000 0.292257 0.063801
O O5 0.597926 0.500000 0.068163
O O6 0.626666 0.215007 0.085274
O O7 0.599869 0.298559 0.000000
O O8 0.500000 0.794323 0.399459
O O9 0.380666 0.747952 0.361139
O O10 0.400035 0.000000 0.405580
O O11 0.318174 0.500000 0.209121
O O12 0.250000 0.250000 0.224347
O O13 0.358444 0.300976 0.273455
O O14 0.364039 0.242542 0.177839
O O15 0.250000 0.750000 0.332123
O O16 0.183327 0.000000 0.337595
O O17 0.750000 0.250000 0.876698
O O18 0.682187 0.000000 0.865327
#
# Coordination Sequence:
#
# PCOD8271215 Si02
#       6
#     8  16  16  16  16  16
#     4   9  17  31  52  75 100 133 172 211 253 305
#     4   9  19  37  58  77 101 135 171 208 255 309
#     4  10  20  34  53  77 105 136 171 212 256 302
#     4   9  17  31  51  74 101 134 171 210 253 303
#     4  10  20  34  54  78 104 136 172 210 255 306
#     4  11  21  33  53  79 106 135 170 213 255 298
#
# _framework density 18.327904
#
# number of rings (size 3 to 8) (size 9 to 14) (size 15 to 20)
#    0.000    2.273    0.000    5.182    0.000    5.455 
#    0.000    2.273    0.000    1.091    0.000    0.000 
#    0.000    0.000    0.000    0.000    0.000    0.000 
#
# Total GULP energy -545439.655466 kJ/mol
# GULP energy per Si atom -12396.355806 kJ/mol
# Density = 1.828619 g / cm^3
# Si number density = 18.327904 Si / 1000 Ang^3
#
#
#
# Elastic Constant Matrix: (Units=GPa)
#
#
# Indices 1 2 3 4 5 6 
#
# 1 42.1755 46.9080 51.6748 0.0000 0.0000 0.0000
# 2 46.9080 158.5504 86.3195 0.0000 0.0000 0.0000
# 3 51.6748 86.3195 152.5040 0.0000 0.0000 0.0000
# 4 0.0000 0.0000 0.0000 35.8030 0.0000 0.0000
# 5 0.0000 0.0000 0.0000 0.0000 49.4037 0.0000
# 6 0.0000 0.0000 0.0000 0.0000 0.0000 26.6710
#
#
#
# Elastic Compliance Matrix: (Units=1/GPa)
#
#
# Indices 1 2 3 4 5 6 
#
# 1 0.045823 -0.007377 -0.011351 0.000000 0.000000 0.000000
# 2 -0.007377 0.010304 -0.003333 0.000000 0.000000 0.000000
# 3 -0.011351 -0.003333 0.012290 0.000000 0.000000 0.000000
# 4 0.000000 0.000000 0.000000 0.027931 0.000000 0.000000
# 5 0.000000 0.000000 0.000000 0.000000 0.020241 0.000000
# 6 0.000000 0.000000 0.000000 0.000000 0.000000 0.037494
#
#
# Mechanical properties :
#
#
# Convention : Reuss Voigt Hill
#
# Bulk Modulus (GPa) = 41.16042 80.33715 60.74878
# Shear Modulus (GPa) = 24.23615 33.59740 28.91677
#
# Velocity S-wave (km/s) = 3.64038 4.28615 3.97639
# Velocity P-wave (km/s) = 6.33848 8.27183 7.36884
#
# Compressibility (1/GPa) = 0.02429518
#
# Stress axis : x y z
#
# Youngs Moduli (GPa) = 21.82296 97.04934 81.36824
#
# Poissons Ratio (x) = 0.71594 0.92364
# Poissons Ratio (y) = 0.16099 0.27117
# Poissons Ratio (z) = 0.24772 0.32342
#
# Static dielectric constant tensor:
#      x y z
#    x 2.963680 0.000000 0.000000 
#    y 0.000000 3.501630 0.000000 
#    z 0.000000 0.000000 4.000650 
# 
# 
# High freq. dielectric constant tensor:
#      x y z
#    x 1.667050 0.000000 0.000000 
#    y 0.000000 1.726790 0.000000 
#    z 0.000000 0.000000 1.732220 
# 
# From -- ./inp_files/77927.got.cif
#   From: 2010.03.12/outbox.cif.g09.slc.cpg/sg65_39_cif.got.tgz:77927.got - 2010.04.10 20:52:16.
