data_PCOD8271736
_publ_section_title
;
Structure prediction by ZEFSAII (Michael W. Deem and Ramdas Pophale) SiO2 
 PCOD8271736
Probable space group: C M M M
;
_chemical_formula_sum "Si O2"
_cell_formula_units_Z 88
_cell_length_a 22.643868
_cell_length_b 24.142753
_cell_length_c 8.839052
_cell_angle_alpha 90.000000
_cell_angle_beta 90.000000
_cell_angle_gamma 90.000000
_cell_volume 4832.179901
_symmetry_space_group_name_H-M "C M M M"
_symmetry_group_IT_number 65
_symmetry_cell_setting 'orthorhombic'
loop_
_space_group_symop_operation_xyz
x,y,z
-x,-y,z
x,-y,-z
-x,y,-z
-x,-y,-z
x,y,-z
-x,y,z
x,-y,z
1/2+x,1/2+y,z
1/2-x,1/2-y,z
1/2+x,1/2-y,-z
1/2-x,1/2+y,-z
1/2-x,1/2-y,-z
1/2+x,1/2+y,-z
1/2-x,1/2+y,z
1/2+x,1/2-y,z
loop_
_atom_site_type_symbol
_atom_site_label
_atom_site_fract_x
_atom_site_fract_y
_atom_site_fract_z
Si Si1 0.068836 0.266779 0.824283
Si Si2 0.390525 0.125034 0.321881
Si Si3 0.784076 0.435720 0.824423
Si Si4 0.337846 0.436856 0.325064
Si Si5 0.000000 0.565445 0.173342
Si Si6 0.567181 0.652896 0.323900
O O1 0.106361 0.311857 0.733617
O O2 0.088475 0.206302 0.768974
O O3 0.000000 0.277070 0.789568
O O4 0.083300 0.272441 0.000000
O O5 0.397699 0.123087 0.500000
O O6 0.327686 0.100820 0.275018
O O7 0.441623 0.088306 0.249823
O O8 0.796859 0.500000 0.790445
O O9 0.717822 0.420115 0.776726
O O10 0.793261 0.421819 0.000000
O O11 0.320749 0.428045 0.500000
O O12 0.357087 0.500000 0.294256
O O13 0.392611 0.398801 0.276196
O O14 0.000000 0.500000 0.188307
O O15 0.000000 0.585169 0.000000
O O16 0.573347 0.667082 0.500000
O O17 0.500000 0.637189 0.282037
#
# Coordination Sequence:
#
# PCOD8271736 Si02
#       6
#    16  16  16  16   8  16
#     4  10  20  35  55  77 107 145 183 224 272 326
#     4  12  23  35  55  80 107 141 183 229 274 322
#     4  10  21  37  56  77 106 145 184 224 272 326
#     4   9  18  34  56  82 112 145 180 220 268 324
#     4  11  23  37  53  77 111 145 180 225 272 319
#     4   9  18  33  55  83 114 144 178 221 269 324
#
# _framework density 18.211241999999999
#
# number of rings (size 3 to 8) (size 9 to 14) (size 15 to 20)
#    0.000    1.909    0.909    3.545    0.000    5.818 
#    0.000    2.727    0.000    5.455    0.000    5.091 
#    0.000    0.000    0.000    0.000    0.000    0.000 
#
# Total GULP energy -545815.578624 kJ/mol
# GULP energy per Si atom -12404.899514 kJ/mol
# Density = 1.816979 g / cm^3
# Si number density = 18.211242 Si / 1000 Ang^3
#
#
#
# Elastic Constant Matrix: (Units=GPa)
#
#
# Indices 1 2 3 4 5 6 
#
# 1 97.9906 74.0158 49.1268 0.0000 0.0000 0.0000
# 2 74.0158 117.1749 63.8762 0.0000 0.0000 0.0000
# 3 49.1268 63.8762 108.0052 0.0000 0.0000 0.0000
# 4 0.0000 0.0000 0.0000 29.1960 0.0000 0.0000
# 5 0.0000 0.0000 0.0000 0.0000 25.8780 0.0000
# 6 0.0000 0.0000 0.0000 0.0000 0.0000 22.6541
#
#
#
# Elastic Compliance Matrix: (Units=1/GPa)
#
#
# Indices 1 2 3 4 5 6 
#
# 1 0.019927 -0.011284 -0.002390 0.000000 0.000000 0.000000
# 2 -0.011284 0.018985 -0.006095 0.000000 0.000000 0.000000
# 3 -0.002390 -0.006095 0.013951 0.000000 0.000000 0.000000
# 4 0.000000 0.000000 0.000000 0.034251 0.000000 0.000000
# 5 0.000000 0.000000 0.000000 0.000000 0.038643 0.000000
# 6 0.000000 0.000000 0.000000 0.000000 0.000000 0.044142
#
#
# Mechanical properties :
#
#
# Convention : Reuss Voigt Hill
#
# Bulk Modulus (GPa) = 75.05695 77.46758 76.26227
# Shear Modulus (GPa) = 23.37772 24.62240 24.00006
#
# Velocity S-wave (km/s) = 3.58676 3.68100 3.63419
# Velocity P-wave (km/s) = 7.64573 7.79083 7.71862
#
# Compressibility (1/GPa) = 0.01332322
#
# Stress axis : x y z
#
# Youngs Moduli (GPa) = 50.18417 52.67351 71.68015
#
# Poissons Ratio (x) = 0.59437 0.17132
# Poissons Ratio (y) = 0.56628 0.43692
# Poissons Ratio (z) = 0.11995 0.32106
#
# Static dielectric constant tensor:
#      x y z
#    x 3.339730 0.000000 0.000000 
#    y 0.000000 3.423680 0.000000 
#    z 0.000000 0.000000 3.445460 
# 
# 
# High freq. dielectric constant tensor:
#      x y z
#    x 1.695980 0.000000 0.000000 
#    y 0.000000 1.709050 0.000000 
#    z 0.000000 0.000000 1.713900 
# 
# From -- ./inp_files/11703.got.cif
#   From: 2010.03.12/outbox.cif.g09.slc.cpg/sg65_6_cif.got.tgz:11703.got - 2010.04.10 20:52:16.
