data_PCOD8271092
_publ_section_title
;
Structure prediction by ZEFSAII (Michael W. Deem and Ramdas Pophale) SiO2 
 PCOD8271092
Probable space group: C M M M
;
_chemical_formula_sum "Si O2"
_cell_formula_units_Z 96
_cell_length_a 27.504587
_cell_length_b 21.791441
_cell_length_c 8.934021
_cell_angle_alpha 90.000000
_cell_angle_beta 90.000000
_cell_angle_gamma 90.000000
_cell_volume 5354.735788
_symmetry_space_group_name_H-M "C M M M"
_symmetry_group_IT_number 65
_symmetry_cell_setting 'orthorhombic'
loop_
_space_group_symop_operation_xyz
x,y,z
-x,-y,z
x,-y,-z
-x,y,-z
-x,-y,-z
x,y,-z
-x,y,z
x,-y,z
1/2+x,1/2+y,z
1/2-x,1/2-y,z
1/2+x,1/2-y,-z
1/2-x,1/2+y,-z
1/2-x,1/2-y,-z
1/2+x,1/2+y,-z
1/2-x,1/2+y,z
1/2+x,1/2-y,z
loop_
_atom_site_type_symbol
_atom_site_label
_atom_site_fract_x
_atom_site_fract_y
_atom_site_fract_z
Si Si1 0.442989 0.866853 0.323148
Si Si2 0.864353 0.716167 0.822908
Si Si3 0.000000 0.073029 0.668702
Si Si4 0.056160 0.500000 0.674607
Si Si5 0.096472 0.072698 0.170464
Si Si6 0.738374 0.821053 0.163989
Si Si7 0.332568 0.658767 0.324111
O O1 0.434298 0.860483 0.500000
O O2 0.500000 0.858197 0.286000
O O3 0.413103 0.814859 0.237853
O O4 0.423734 0.934421 0.264370
O O5 0.817679 0.673254 0.781434
O O6 0.858175 0.782763 0.750339
O O7 0.868049 0.725152 0.000000
O O8 0.046880 0.097831 0.756342
O O9 0.000000 0.099452 0.500000
O O10 0.000000 0.000000 0.665726
O O11 0.065246 0.500000 0.500000
O O12 0.000000 0.500000 0.712334
O O13 0.141163 0.098025 0.265820
O O14 0.098964 0.000000 0.178628
O O15 0.098985 0.096099 0.000000
O O16 0.750000 0.750000 0.148078
O O17 0.775712 0.850157 0.282001
O O18 0.745122 0.852144 0.000000
O O19 0.337315 0.665024 0.500000
#
# Coordination Sequence:
#
# PCOD8271092 Si02
#       7
#    16  16   8   8  16  16  16
#     4   9  17  31  52  77 105 136 172 211 253 302
#     4  10  20  34  52  75 105 138 171 209 255 309
#     4   9  17  31  51  75 101 129 167 212 251 294
#     4   7  12  26  49  73  97 131 169 203 243 294
#     4  10  20  35  55  76 102 138 175 211 257 312
#     4   8  16  32  52  72  97 130 168 206 248 305
#     4  11  21  33  53  79 103 130 170 218 261 305
#
# _framework density 17.928055000000001
#
# number of rings (size 3 to 8) (size 9 to 14) (size 15 to 20)
#    0.000    2.667    0.000    4.750    0.000    6.000 
#    1.500    0.417    1.833    1.500    0.000    0.000 
#    0.000    0.000    0.000    0.000    0.000    0.000 
#
# Total GULP energy -594834.451788 kJ/mol
# GULP energy per Si atom -12392.384412 kJ/mol
# Density = 1.788725 g / cm^3
# Si number density = 17.928055 Si / 1000 Ang^3
#
#
#
# Elastic Constant Matrix: (Units=GPa)
#
#
# Indices 1 2 3 4 5 6 
#
# 1 103.2434 28.9457 54.4689 0.0000 0.0000 0.0000
# 2 28.9457 36.5502 30.2370 0.0000 0.0000 0.0000
# 3 54.4689 30.2370 111.9860 0.0000 0.0000 0.0000
# 4 0.0000 0.0000 0.0000 21.1189 0.0000 0.0000
# 5 0.0000 0.0000 0.0000 0.0000 26.0937 0.0000
# 6 0.0000 0.0000 0.0000 0.0000 0.0000 21.6339
#
#
#
# Elastic Compliance Matrix: (Units=1/GPa)
#
#
# Indices 1 2 3 4 5 6 
#
# 1 0.014366 -0.007206 -0.005042 0.000000 0.000000 0.000000
# 2 -0.007206 0.038843 -0.006983 0.000000 0.000000 0.000000
# 3 -0.005042 -0.006983 0.013267 0.000000 0.000000 0.000000
# 4 0.000000 0.000000 0.000000 0.047351 0.000000 0.000000
# 5 0.000000 0.000000 0.000000 0.000000 0.038323 0.000000
# 6 0.000000 0.000000 0.000000 0.000000 0.000000 0.046224
#
#
# Mechanical properties :
#
#
# Convention : Reuss Voigt Hill
#
# Bulk Modulus (GPa) = 35.69522 53.23144 44.46333
# Shear Modulus (GPa) = 20.31073 22.97784 21.64428
#
# Velocity S-wave (km/s) = 3.36951 3.58393 3.47837
# Velocity P-wave (km/s) = 5.92382 6.84706 6.40210
#
# Compressibility (1/GPa) = 0.02801496
#
# Stress axis : x y z
#
# Youngs Moduli (GPa) = 69.60793 25.74442 75.37257
#
# Poissons Ratio (x) = 0.18552 0.38002
# Poissons Ratio (y) = 0.50161 0.52632
# Poissons Ratio (z) = 0.35095 0.17977
#
# Static dielectric constant tensor:
#      x y z
#    x 3.573670 0.000000 0.000000 
#    y 0.000000 3.143130 0.000000 
#    z 0.000000 0.000000 3.306700 
# 
# 
# High freq. dielectric constant tensor:
#      x y z
#    x 1.692280 0.000000 0.000000 
#    y 0.000000 1.665740 0.000000 
#    z 0.000000 0.000000 1.693330 
# 
# From -- ./inp_files/14381.got.cif
#   From: 2010.03.12/outbox.cif.g09.slc.cpg/sg65_8_cif.got.tgz:14381.got - 2010.04.10 20:52:16.
