data_PCOD8271000
_publ_section_title
;
Structure prediction by ZEFSAII (Michael W. Deem and Ramdas Pophale) SiO2 
 PCOD8271000
Probable space group: C M M M
;
_chemical_formula_sum "Si O2"
_cell_formula_units_Z 80
_cell_length_a 28.170835
_cell_length_b 8.971284
_cell_length_c 21.096618
_cell_angle_alpha 90.000000
_cell_angle_beta 90.000000
_cell_angle_gamma 90.000000
_cell_volume 5331.717915
_symmetry_space_group_name_H-M "C M M M"
_symmetry_group_IT_number 65
_symmetry_cell_setting 'orthorhombic'
loop_
_space_group_symop_operation_xyz
x,y,z
-x,-y,z
x,-y,-z
-x,y,-z
-x,-y,-z
x,y,-z
-x,y,z
x,-y,z
1/2+x,1/2+y,z
1/2-x,1/2-y,z
1/2+x,1/2-y,-z
1/2-x,1/2+y,-z
1/2-x,1/2-y,-z
1/2+x,1/2+y,-z
1/2-x,1/2+y,z
1/2+x,1/2-y,z
loop_
_atom_site_type_symbol
_atom_site_label
_atom_site_fract_x
_atom_site_fract_y
_atom_site_fract_z
Si Si1 0.052317 0.177800 0.500000
Si Si2 0.556731 0.332607 0.635359
Si Si3 0.053393 0.324667 0.240494
Si Si4 0.700813 0.326953 0.926021
Si Si5 0.556231 0.670999 0.000000
Si Si6 0.107765 0.322623 0.115590
O O1 0.077560 0.225493 0.433240
O O2 0.000000 0.249640 0.500000
O O3 0.047959 0.000000 0.500000
O O4 0.500000 0.325643 0.631034
O O5 0.574175 0.500000 0.648430
O O6 0.575714 0.233865 0.693563
O O7 0.051866 0.500000 0.244383
O O8 0.085895 0.272096 0.182513
O O9 0.000000 0.261185 0.230488
O O10 0.703147 0.500000 0.907475
O O11 0.750000 0.250000 0.907563
O O12 0.660359 0.244163 0.886464
O O13 0.689262 0.305492 0.000000
O O14 0.574916 0.754006 0.061661
O O15 0.574510 0.500000 0.000000
O O16 0.500000 0.678897 0.000000
O O17 0.109494 0.500000 0.107211
#
# Coordination Sequence:
#
# PCOD8271000 Si02
#       6
#     8  16  16  16   8  16
#     4   7  10  18  33  53  75  99 134 177 214 247
#     4   8  13  22  37  55  75 104 141 178 213 248
#     4   9  18  30  41  57  84 116 148 179 211 251
#     4  10  20  34  52  71  90 107 132 172 218 265
#     4  11  23  35  46  63  86 111 145 187 221 251
#     4  11  21  33  49  65  85 114 145 177 218 262
#
# _framework density 15.004545
#
# number of rings (size 3 to 8) (size 9 to 14) (size 15 to 20)
#    0.000    2.600    1.000    3.300    0.000    4.000 
#    0.000    2.500    0.000    3.000    0.000    0.000 
#    0.000    0.000    0.000    0.900    0.000   11.700 
#
# Total GULP energy -495732.395078 kJ/mol
# GULP energy per Si atom -12393.309877 kJ/mol
# Density = 1.497039 g / cm^3
# Si number density = 15.004545 Si / 1000 Ang^3
#
#
#
# Elastic Constant Matrix: (Units=GPa)
#
#
# Indices 1 2 3 4 5 6 
#
# 1 66.7452 33.0134 49.3009 0.0000 0.0000 0.0000
# 2 33.0134 60.8418 46.6267 0.0000 0.0000 0.0000
# 3 49.3009 46.6267 148.5186 0.0000 0.0000 0.0000
# 4 0.0000 0.0000 0.0000 22.8168 0.0000 0.0000
# 5 0.0000 0.0000 0.0000 0.0000 4.1275 0.0000
# 6 0.0000 0.0000 0.0000 0.0000 0.0000 20.9727
#
#
#
# Elastic Compliance Matrix: (Units=1/GPa)
#
#
# Indices 1 2 3 4 5 6 
#
# 1 0.022871 -0.008680 -0.004867 0.000000 0.000000 0.000000
# 2 -0.008680 0.024938 -0.004948 0.000000 0.000000 0.000000
# 3 -0.004867 -0.004948 0.009902 0.000000 0.000000 0.000000
# 4 0.000000 0.000000 0.000000 0.043827 0.000000 0.000000
# 5 0.000000 0.000000 0.000000 0.000000 0.242279 0.000000
# 6 0.000000 0.000000 0.000000 0.000000 0.000000 0.047681
#
#
# Mechanical properties :
#
#
# Convention : Reuss Voigt Hill
#
# Bulk Modulus (GPa) = 48.26011 59.33194 53.79603
# Shear Modulus (GPa) = 11.48385 19.39437 15.43911
#
# Velocity S-wave (km/s) = 2.76951 3.59913 3.21122
# Velocity P-wave (km/s) = 6.51617 7.54322 7.04842
#
# Compressibility (1/GPa) = 0.02072105
#
# Stress axis : x y z
#
# Youngs Moduli (GPa) = 43.72444 40.09994 100.98949
#
# Poissons Ratio (x) = 0.34807 0.49150
# Poissons Ratio (y) = 0.37953 0.49967
# Poissons Ratio (z) = 0.21280 0.19840
#
# Static dielectric constant tensor:
#      x y z
#    x 2.625750 0.000000 0.000000 
#    y 0.000000 2.913160 0.000000 
#    z 0.000000 0.000000 3.210770 
# 
# 
# High freq. dielectric constant tensor:
#      x y z
#    x 1.527430 0.000000 0.000000 
#    y 0.000000 1.576060 0.000000 
#    z 0.000000 0.000000 1.577820 
# 
# From -- ./inp_files/60054.got.cif
#   From: 2010.03.12/outbox.cif.g09.slc.cpg/sg65_31_cif.got.tgz:60054.got - 2010.04.10 20:52:16.
