data_PCOD8271873
_publ_section_title
;
Structure prediction by ZEFSAII (Michael W. Deem and Ramdas Pophale) SiO2 
 PCOD8271873
Probable space group: C M M M
;
_chemical_formula_sum "Si O2"
_cell_formula_units_Z 88
_cell_length_a 18.829252
_cell_length_b 8.870771
_cell_length_c 28.106125
_cell_angle_alpha 90.000000
_cell_angle_beta 90.000000
_cell_angle_gamma 90.000000
_cell_volume 4694.565570
_symmetry_space_group_name_H-M "C M M M"
_symmetry_group_IT_number 65
_symmetry_cell_setting 'orthorhombic'
loop_
_space_group_symop_operation_xyz
x,y,z
-x,-y,z
x,-y,-z
-x,y,-z
-x,-y,-z
x,y,-z
-x,y,z
x,-y,z
1/2+x,1/2+y,z
1/2-x,1/2-y,z
1/2+x,1/2-y,-z
1/2-x,1/2+y,-z
1/2-x,1/2-y,-z
1/2+x,1/2+y,-z
1/2-x,1/2+y,z
1/2+x,1/2-y,z
loop_
_atom_site_type_symbol
_atom_site_label
_atom_site_fract_x
_atom_site_fract_y
_atom_site_fract_z
Si Si1 0.078973 0.179115 0.733378
Si Si2 0.916216 0.830927 0.371964
Si Si3 0.084154 0.169862 0.000000
Si Si4 0.672772 0.679201 0.820315
Si Si5 0.677706 0.823501 0.553583
Si Si6 0.416377 0.175626 0.903364
O O1 0.104327 0.230078 0.680734
O O2 0.135195 0.238479 0.772027
O O3 0.000000 0.244221 0.744698
O O4 0.074361 0.000000 0.734417
O O5 0.885649 0.721601 0.411793
O O6 0.000000 0.830757 0.377433
O O7 0.886408 0.000000 0.379521
O O8 0.110505 0.260617 0.046140
O O9 0.000000 0.162678 0.000000
O O10 0.115679 0.000000 0.000000
O O11 0.679120 0.500000 0.821288
O O12 0.750000 0.750000 0.823831
O O13 0.624747 0.731922 0.863714
O O14 0.660329 0.767195 0.500000
O O15 0.750000 0.750000 0.572530
O O16 0.687782 0.000000 0.554744
O O17 0.500000 0.202899 0.896323
O O18 0.396969 0.000000 0.900401
#
# Coordination Sequence:
#
# PCOD8271873 Si02
#       6
#    16  16   8  16  16  16
#     4   8  16  33  56  79 103 135 175 217 261 311
#     4   9  18  34  56  81 108 137 171 213 262 315
#     4   9  17  31  54  83 110 139 178 217 257 311
#     4  11  22  36  54  77 108 143 179 218 262 313
#     4  10  21  36  53  74 103 139 178 219 262 311
#     4  10  20  35  56  82 111 141 176 220 266 310
#
# _framework density 18.745079
#
# number of rings (size 3 to 8) (size 9 to 14) (size 15 to 20)
#    0.000    2.455    0.000    3.545    0.000    5.455 
#    0.000    5.909    0.000    2.182    0.000    0.000 
#    0.000    0.000    0.000    0.000    0.000    0.000 
#
# Total GULP energy -545581.323951 kJ/mol
# GULP energy per Si atom -12399.575544 kJ/mol
# Density = 1.870241 g / cm^3
# Si number density = 18.745079 Si / 1000 Ang^3
#
#
#
# Elastic Constant Matrix: (Units=GPa)
#
#
# Indices 1 2 3 4 5 6 
#
# 1 64.0500 33.1082 57.7431 0.0000 0.0000 0.0000
# 2 33.1082 74.6968 42.8407 0.0000 0.0000 0.0000
# 3 57.7431 42.8407 140.5803 0.0000 0.0000 0.0000
# 4 0.0000 0.0000 0.0000 19.1539 0.0000 0.0000
# 5 0.0000 0.0000 0.0000 0.0000 -0.9124 0.0000
# 6 0.0000 0.0000 0.0000 0.0000 0.0000 26.7057
#
#
#
# Elastic Compliance Matrix: (Units=1/GPa)
#
#
# Indices 1 2 3 4 5 6 
#
# 1 0.027451 -0.006908 -0.009170 0.000000 0.000000 0.000000
# 2 -0.006908 0.017961 -0.002636 0.000000 0.000000 0.000000
# 3 -0.009170 -0.002636 0.011683 0.000000 0.000000 0.000000
# 4 0.000000 0.000000 0.000000 0.052209 0.000000 0.000000
# 5 0.000000 0.000000 0.000000 0.000000 -1.096003 0.000000
# 6 0.000000 0.000000 0.000000 0.000000 0.000000 0.037445
#
#
# Mechanical properties :
#
#
# Convention : Reuss Voigt Hill
#
# Bulk Modulus (GPa) = 50.84672 60.74567 55.79619
# Shear Modulus (GPa) = -5.52321 18.69846 6.58762
#
# Velocity S-wave (km/s) = -1.71840 3.16177 1.87669
# Velocity P-wave (km/s) = 4.82152 6.76798 5.87591
#
# Compressibility (1/GPa) = 0.01966695
#
# Stress axis : x y z
#
# Youngs Moduli (GPa) = 36.42879 55.67583 85.59145
#
# Poissons Ratio (x) = 0.38459 0.78490
# Poissons Ratio (y) = 0.25164 0.22563
# Poissons Ratio (z) = 0.33406 0.14677
#
# Static dielectric constant tensor:
#      x y z
#    x 3.293970 0.000000 0.000000 
#    y 0.000000 3.389710 0.000000 
#    z 0.000000 0.000000 3.757320 
# 
# 
# High freq. dielectric constant tensor:
#      x y z
#    x 1.711710 0.000000 0.000000 
#    y 0.000000 1.718640 0.000000 
#    z 0.000000 0.000000 1.742480 
# 
# From -- ./inp_files/70969.got.cif
#   From: 2010.03.12/outbox.cif.g09.slc.cpg/sg65_36_cif.got.tgz:70969.got - 2010.04.10 20:52:16.
