data_PCOD8271577
_publ_section_title
;
Structure prediction by ZEFSAII (Michael W. Deem and Ramdas Pophale) SiO2 
 PCOD8271577
Probable space group: C M M M
;
_chemical_formula_sum "Si O2"
_cell_formula_units_Z 72
_cell_length_a 16.845977
_cell_length_b 24.705797
_cell_length_c 8.676798
_cell_angle_alpha 90.000000
_cell_angle_beta 90.000000
_cell_angle_gamma 90.000000
_cell_volume 3611.225089
_symmetry_space_group_name_H-M "C M M M"
_symmetry_group_IT_number 65
_symmetry_cell_setting 'orthorhombic'
loop_
_space_group_symop_operation_xyz
x,y,z
-x,-y,z
x,-y,-z
-x,y,-z
-x,-y,-z
x,y,-z
-x,y,z
x,-y,z
1/2+x,1/2+y,z
1/2-x,1/2-y,z
1/2+x,1/2-y,-z
1/2-x,1/2+y,-z
1/2-x,1/2-y,-z
1/2+x,1/2+y,-z
1/2-x,1/2+y,z
1/2+x,1/2-y,z
loop_
_atom_site_type_symbol
_atom_site_label
_atom_site_fract_x
_atom_site_fract_y
_atom_site_fract_z
Si Si1 0.874165 0.642192 0.819617
Si Si2 0.087915 0.940187 0.682841
Si Si3 0.799288 0.847802 0.316850
Si Si4 0.912440 0.248243 0.675681
Si Si5 0.500000 0.062772 0.317604
O O1 0.785095 0.646936 0.760506
O O2 0.915877 0.698778 0.780894
O O3 0.920652 0.592206 0.742990
O O4 0.875763 0.632067 0.000000
O O5 0.084716 0.934935 0.500000
O O6 0.149190 0.897144 0.750691
O O7 0.000000 0.929029 0.749683
O O8 0.116785 0.000000 0.731683
O O9 0.790063 0.850331 0.500000
O O10 0.844239 0.792736 0.267102
O O11 0.893947 0.265819 0.500000
O O12 0.000000 0.220510 0.684941
O O13 0.500000 0.066585 0.500000
O O14 0.500000 0.000000 0.263205
#
# Coordination Sequence:
#
# PCOD8271577 Si02
#       5
#    16  16  16  16   8
#     4  12  25  40  59  86 121 157 191 240 303 363
#     4   8  14  27  50  81 115 147 186 240 293 338
#     4  10  20  34  56  87 119 156 204 250 294 348
#     4  10  20  36  60  86 117 158 205 254 300 348
#     4  11  25  47  73  93 111 147 200 253 304 361
#
# _framework density 19.937832
#
# number of rings (size 3 to 8) (size 9 to 14) (size 15 to 20)
#    0.000    1.889    1.111    4.333    0.000    8.000 
#    0.000    2.222    0.000    2.000    0.000    1.556 
#    0.000    0.000    0.000    0.000    0.000    0.000 
#
# Total GULP energy -446319.760829 kJ/mol
# GULP energy per Si atom -12397.771134 kJ/mol
# Density = 1.989245 g / cm^3
# Si number density = 19.937832 Si / 1000 Ang^3
#
#
#
# Elastic Constant Matrix: (Units=GPa)
#
#
# Indices 1 2 3 4 5 6 
#
# 1 149.3675 75.3113 36.5125 0.0000 0.0000 0.0000
# 2 75.3113 147.4565 44.2927 0.0000 0.0000 0.0000
# 3 36.5125 44.2927 65.2105 0.0000 0.0000 0.0000
# 4 0.0000 0.0000 0.0000 5.4005 0.0000 0.0000
# 5 0.0000 0.0000 0.0000 0.0000 -13.7611 0.0000
# 6 0.0000 0.0000 0.0000 0.0000 0.0000 21.0290
#
#
#
# Elastic Compliance Matrix: (Units=1/GPa)
#
#
# Indices 1 2 3 4 5 6 
#
# 1 0.009330 -0.004015 -0.002497 0.000000 0.000000 0.000000
# 2 -0.004015 0.010248 -0.004713 0.000000 0.000000 0.000000
# 3 -0.002497 -0.004713 0.019934 0.000000 0.000000 0.000000
# 4 0.000000 0.000000 0.000000 0.185167 0.000000 0.000000
# 5 0.000000 0.000000 0.000000 0.000000 -0.072669 0.000000
# 6 0.000000 0.000000 0.000000 0.000000 0.000000 0.047553
#
#
# Mechanical properties :
#
#
# Convention : Reuss Voigt Hill
#
# Bulk Modulus (GPa) = 58.60729 74.91861 66.76295
# Shear Modulus (GPa) = 21.95880 16.26155 19.11018
#
# Velocity S-wave (km/s) = 3.32228 2.85899 3.09930
# Velocity P-wave (km/s) = 6.64647 6.96822 6.80925
#
# Compressibility (1/GPa) = 0.01706272
#
# Stress axis : x y z
#
# Youngs Moduli (GPa) = 107.18608 97.58192 50.16616
#
# Poissons Ratio (x) = 0.39179 0.12525
# Poissons Ratio (y) = 0.43035 0.23641
# Poissons Ratio (z) = 0.26761 0.45986
#
# Static dielectric constant tensor:
#      x y z
#    x 4.001020 0.000000 0.000000 
#    y 0.000000 3.846410 0.000000 
#    z 0.000000 0.000000 3.271500 
# 
# 
# High freq. dielectric constant tensor:
#      x y z
#    x 1.794700 0.000000 0.000000 
#    y 0.000000 1.783320 0.000000 
#    z 0.000000 0.000000 1.739850 
# 
# From -- ./inp_files/9281.got.cif
#   From: 2010.03.12/outbox.cif.g09.slc.cpg/sg65_5_cif.got.tgz:9281.got - 2010.04.10 20:52:16.
