data_PCOD8271228
_publ_section_title
;
Structure prediction by ZEFSAII (Michael W. Deem and Ramdas Pophale) SiO2 
 PCOD8271228
Probable space group: C M M M
;
_chemical_formula_sum "Si O2"
_cell_formula_units_Z 88
_cell_length_a 17.957800
_cell_length_b 29.351410
_cell_length_c 8.798451
_cell_angle_alpha 90.000000
_cell_angle_beta 90.000000
_cell_angle_gamma 90.000000
_cell_volume 4637.546947
_symmetry_space_group_name_H-M "C M M M"
_symmetry_group_IT_number 65
_symmetry_cell_setting 'orthorhombic'
loop_
_space_group_symop_operation_xyz
x,y,z
-x,-y,z
x,-y,-z
-x,y,-z
-x,-y,-z
x,y,-z
-x,y,z
x,-y,z
1/2+x,1/2+y,z
1/2-x,1/2-y,z
1/2+x,1/2-y,-z
1/2-x,1/2+y,-z
1/2-x,1/2-y,-z
1/2+x,1/2+y,-z
1/2-x,1/2+y,z
1/2+x,1/2-y,z
loop_
_atom_site_type_symbol
_atom_site_label
_atom_site_fract_x
_atom_site_fract_y
_atom_site_fract_z
Si Si1 0.000000 0.945810 0.327855
Si Si2 0.415600 0.855354 0.179003
Si Si3 0.727947 0.883440 0.320490
Si Si4 0.151629 0.946372 0.175735
Si Si5 0.414177 0.240823 0.671078
Si Si6 0.797524 0.795465 0.826479
O O1 0.074201 0.927413 0.245042
O O2 0.000000 0.927642 0.500000
O O3 0.000000 0.000000 0.321625
O O4 0.500000 0.869661 0.224063
O O5 0.356892 0.889278 0.259184
O O6 0.398358 0.804145 0.231162
O O7 0.403244 0.857541 0.000000
O O8 0.727257 0.885954 0.500000
O O9 0.778119 0.924180 0.258011
O O10 0.758729 0.835205 0.266225
O O11 0.158409 0.000000 0.201406
O O12 0.152723 0.932940 0.000000
O O13 0.383666 0.232893 0.500000
O O14 0.500000 0.253164 0.667356
O O15 0.376463 0.284457 0.749529
O O16 0.750000 0.750000 0.813143
O O17 0.808497 0.811194 0.000000
#
# Coordination Sequence:
#
# PCOD8271228 Si02
#       6
#     8  16  16  16  16  16
#     4   9  17  33  59  89 119 149 185 229 277 329
#     4  10  20  35  56  81 110 146 189 232 275 332
#     4  12  24  37  58  85 115 148 186 234 285 337
#     4  10  21  39  63  88 116 150 189 231 277 334
#     4  10  20  34  53  77 106 142 185 231 279 329
#     4  11  22  36  55  78 109 149 189 230 276 330
#
# _framework density 18.975549999999998
#
# number of rings (size 3 to 8) (size 9 to 14) (size 15 to 20)
#    0.000    1.545    1.818    4.091    0.000    5.091 
#    1.636    0.000    0.000    0.545    0.000    3.818 
#    0.000    0.000    0.000    0.000    0.000    0.000 
#
# Total GULP energy -545694.130230 kJ/mol
# GULP energy per Si atom -12402.139323 kJ/mol
# Density = 1.893236 g / cm^3
# Si number density = 18.975550 Si / 1000 Ang^3
#
#
#
# Elastic Constant Matrix: (Units=GPa)
#
#
# Indices 1 2 3 4 5 6 
#
# 1 142.3867 41.3140 80.0255 0.0000 0.0000 0.0000
# 2 41.3140 40.4008 41.5319 0.0000 0.0000 0.0000
# 3 80.0255 41.5319 163.1784 0.0000 0.0000 0.0000
# 4 0.0000 0.0000 0.0000 26.7152 0.0000 0.0000
# 5 0.0000 0.0000 0.0000 0.0000 36.7106 0.0000
# 6 0.0000 0.0000 0.0000 0.0000 0.0000 29.7621
#
#
#
# Elastic Compliance Matrix: (Units=1/GPa)
#
#
# Indices 1 2 3 4 5 6 
#
# 1 0.011308 -0.007940 -0.003525 0.000000 0.000000 0.000000
# 2 -0.007940 0.039099 -0.006057 0.000000 0.000000 0.000000
# 3 -0.003525 -0.006057 0.009399 0.000000 0.000000 0.000000
# 4 0.000000 0.000000 0.000000 0.037432 0.000000 0.000000
# 5 0.000000 0.000000 0.000000 0.000000 0.027240 0.000000
# 6 0.000000 0.000000 0.000000 0.000000 0.000000 0.033600
#
#
# Mechanical properties :
#
#
# Convention : Reuss Voigt Hill
#
# Bulk Modulus (GPa) = 40.38663 74.63430 57.51046
# Shear Modulus (GPa) = 24.82933 30.84387 27.83660
#
# Velocity S-wave (km/s) = 3.62123 4.03607 3.83426
# Velocity P-wave (km/s) = 6.23010 7.81901 7.06934
#
# Compressibility (1/GPa) = 0.02476067
#
# Stress axis : x y z
#
# Youngs Moduli (GPa) = 88.43302 25.57641 106.39955
#
# Poissons Ratio (x) = 0.20308 0.37503
# Poissons Ratio (y) = 0.70217 0.64449
# Poissons Ratio (z) = 0.31170 0.15492
#
# Static dielectric constant tensor:
#      x y z
#    x 3.834790 0.000000 0.000000 
#    y 0.000000 3.154800 0.000000 
#    z 0.000000 0.000000 3.716180 
# 
# 
# High freq. dielectric constant tensor:
#      x y z
#    x 1.753880 0.000000 0.000000 
#    y 0.000000 1.695020 0.000000 
#    z 0.000000 0.000000 1.758290 
# 
# From -- ./inp_files/10000.got.cif
#   From: 2010.03.12/outbox.cif.g09.slc.cpg/sg65_5_cif.got.tgz:10000.got - 2010.04.10 20:52:16.
