data_PCOD8271032
_publ_section_title
;
Structure prediction by ZEFSAII (Michael W. Deem and Ramdas Pophale) SiO2 
 PCOD8271032
Probable space group: C M M M
;
_chemical_formula_sum "Si O2"
_cell_formula_units_Z 88
_cell_length_a 9.043972
_cell_length_b 18.540397
_cell_length_c 28.326733
_cell_angle_alpha 90.000000
_cell_angle_beta 90.000000
_cell_angle_gamma 90.000000
_cell_volume 4749.793485
_symmetry_space_group_name_H-M "C M M M"
_symmetry_group_IT_number 65
_symmetry_cell_setting 'orthorhombic'
loop_
_space_group_symop_operation_xyz
x,y,z
-x,-y,z
x,-y,-z
-x,y,-z
-x,-y,-z
x,y,-z
-x,y,z
x,-y,z
1/2+x,1/2+y,z
1/2-x,1/2-y,z
1/2+x,1/2-y,-z
1/2-x,1/2+y,-z
1/2-x,1/2-y,-z
1/2+x,1/2+y,-z
1/2-x,1/2+y,z
1/2+x,1/2-y,z
loop_
_atom_site_type_symbol
_atom_site_label
_atom_site_fract_x
_atom_site_fract_y
_atom_site_fract_z
Si Si1 0.175923 0.171971 0.500000
Si Si2 0.326112 0.176701 0.225692
Si Si3 0.829145 0.678348 0.332076
Si Si4 0.167310 0.085837 0.151252
Si Si5 0.828143 0.416399 0.419127
Si Si6 0.324442 0.580732 0.950059
O O1 0.250000 0.250000 0.500000
O O2 0.225684 0.128052 0.545796
O O3 0.000000 0.180943 0.500000
O O4 0.500000 0.185830 0.221641
O O5 0.250000 0.250000 0.208354
O O6 0.275994 0.158100 0.279279
O O7 0.274492 0.112372 0.192274
O O8 0.750000 0.750000 0.351330
O O9 0.795240 0.611165 0.366198
O O10 0.000000 0.697921 0.331817
O O11 0.225410 0.116656 0.099876
O O12 0.000000 0.112214 0.161480
O O13 0.173348 0.000000 0.149904
O O14 0.784357 0.500000 0.421798
O O15 0.000000 0.404966 0.432702
O O16 0.500000 0.577006 0.947912
O O17 0.260076 0.500000 0.952019
O O18 0.275203 0.619879 0.000000
#
# Coordination Sequence:
#
# PCOD8271032 Si02
#       6
#     8  16  16  16  16  16
#     4  12  25  40  59  83 111 143 181 218 253 298
#     4  10  20  34  52  73 100 134 171 210 252 300
#     4   9  19  35  55  77 100 132 173 213 252 299
#     4   9  17  29  47  73 102 129 161 204 252 302
#     4  10  21  38  59  83 112 142 171 208 256 304
#     4   7  10  19  38  64  92 122 157 197 242 294
#
# _framework density 18.527121000000001
#
# number of rings (size 3 to 8) (size 9 to 14) (size 15 to 20)
#    0.000    2.727    0.000    3.818    0.000    5.455 
#    0.000    1.818    0.000    1.091    0.000    2.545 
#    0.000    0.000    0.000    0.000    0.000    0.000 
#
# Total GULP energy -545197.780030 kJ/mol
# GULP energy per Si atom -12390.858637 kJ/mol
# Density = 1.848495 g / cm^3
# Si number density = 18.527121 Si / 1000 Ang^3
#
#
#
# Elastic Constant Matrix: (Units=GPa)
#
#
# Indices 1 2 3 4 5 6 
#
# 1 68.0405 39.5545 47.3680 0.0000 0.0000 0.0000
# 2 39.5545 86.1943 57.3976 0.0000 0.0000 0.0000
# 3 47.3680 57.3976 131.8804 0.0000 0.0000 0.0000
# 4 0.0000 0.0000 0.0000 16.2232 0.0000 0.0000
# 5 0.0000 0.0000 0.0000 0.0000 17.7755 0.0000
# 6 0.0000 0.0000 0.0000 0.0000 0.0000 25.8544
#
#
#
# Elastic Compliance Matrix: (Units=1/GPa)
#
#
# Indices 1 2 3 4 5 6 
#
# 1 0.022140 -0.006850 -0.004971 0.000000 0.000000 0.000000
# 2 -0.006850 0.018456 -0.005572 0.000000 0.000000 0.000000
# 3 -0.004971 -0.005572 0.011793 0.000000 0.000000 0.000000
# 4 0.000000 0.000000 0.000000 0.061640 0.000000 0.000000
# 5 0.000000 0.000000 0.000000 0.000000 0.056257 0.000000
# 6 0.000000 0.000000 0.000000 0.000000 0.000000 0.038678
#
#
# Mechanical properties :
#
#
# Convention : Reuss Voigt Hill
#
# Bulk Modulus (GPa) = 56.80829 63.86173 60.33501
# Shear Modulus (GPa) = 20.03071 21.42363 20.72717
#
# Velocity S-wave (km/s) = 3.29166 3.40419 3.34840
# Velocity P-wave (km/s) = 6.72127 7.07075 6.89822
#
# Compressibility (1/GPa) = 0.01760306
#
# Stress axis : x y z
#
# Youngs Moduli (GPa) = 45.16770 54.18434 84.79541
#
# Poissons Ratio (x) = 0.37115 0.42150
# Poissons Ratio (y) = 0.30939 0.47248
# Poissons Ratio (z) = 0.22452 0.30192
#
# Static dielectric constant tensor:
#      x y z
#    x 3.211090 0.000000 0.000000 
#    y 0.000000 3.150950 0.000000 
#    z 0.000000 0.000000 3.957460 
# 
# 
# High freq. dielectric constant tensor:
#      x y z
#    x 1.695040 0.000000 0.000000 
#    y 0.000000 1.687940 0.000000 
#    z 0.000000 0.000000 1.744030 
# 
# From -- ./inp_files/76611.got.cif
#   From: 2010.03.12/outbox.cif.g09.slc.cpg/sg65_39_cif.got.tgz:76611.got - 2010.04.10 20:52:16.
