data_PCOD8271844
_publ_section_title
;
Structure prediction by ZEFSAII (Michael W. Deem and Ramdas Pophale) SiO2 
 PCOD8271844
Probable space group: C M M M
;
_chemical_formula_sum "Si O2"
_cell_formula_units_Z 72
_cell_length_a 19.221980
_cell_length_b 8.832345
_cell_length_c 23.243980
_cell_angle_alpha 90.000000
_cell_angle_beta 90.000000
_cell_angle_gamma 90.000000
_cell_volume 3946.250399
_symmetry_space_group_name_H-M "C M M M"
_symmetry_group_IT_number 65
_symmetry_cell_setting 'orthorhombic'
loop_
_space_group_symop_operation_xyz
x,y,z
-x,-y,z
x,-y,-z
-x,y,-z
-x,-y,-z
x,y,-z
-x,y,z
x,-y,z
1/2+x,1/2+y,z
1/2-x,1/2-y,z
1/2+x,1/2-y,-z
1/2-x,1/2+y,-z
1/2-x,1/2-y,-z
1/2+x,1/2+y,-z
1/2-x,1/2+y,z
1/2+x,1/2-y,z
loop_
_atom_site_type_symbol
_atom_site_label
_atom_site_fract_x
_atom_site_fract_y
_atom_site_fract_z
Si Si1 0.419032 0.823666 0.902986
Si Si2 0.173398 0.179053 0.000000
Si Si3 0.577067 0.680321 0.662753
Si Si4 0.676571 0.678529 0.435607
Si Si5 0.917642 0.832232 0.212172
O O1 0.500000 0.780396 0.913828
O O2 0.369845 0.728882 0.944420
O O3 0.396087 0.784003 0.837894
O O4 0.406750 0.000000 0.914317
O O5 0.250000 0.250000 0.000000
O O6 0.181610 0.000000 0.000000
O O7 0.500000 0.749169 0.655039
O O8 0.573648 0.500000 0.659595
O O9 0.623084 0.746545 0.610896
O O10 0.609381 0.726205 0.725359
O O11 0.651483 0.722505 0.500000
O O12 0.683477 0.500000 0.429207
O O13 0.750000 0.750000 0.421294
O O14 0.000000 0.843553 0.217465
O O15 0.887796 0.000000 0.197786
#
# Coordination Sequence:
#
# PCOD8271844 Si02
#       5
#    16   8  16  16  16
#     4  10  20  35  56  81 107 134 168 207 244 289
#     4  12  25  40  57  77 105 137 169 206 251 298
#     4   8  14  26  46  71  95 120 157 205 248 284
#     4   9  17  29  45  65  91 124 160 198 242 292
#     4   8  14  27  48  72  97 126 161 201 245 291
#
# _framework density 18.245166999999999
#
# number of rings (size 3 to 8) (size 9 to 14) (size 15 to 20)
#    0.000    2.889    0.000    3.333    0.000    3.111 
#    0.000    4.444    0.000    4.667    0.000    3.111 
#    0.000    0.000    0.000    0.000    0.000    0.000 
#
# Total GULP energy -446177.516640 kJ/mol
# GULP energy per Si atom -12393.819907 kJ/mol
# Density = 1.820364 g / cm^3
# Si number density = 18.245167 Si / 1000 Ang^3
#
#
#
# Elastic Constant Matrix: (Units=GPa)
#
#
# Indices 1 2 3 4 5 6 
#
# 1 85.8558 38.4702 78.3049 0.0000 0.0000 0.0000
# 2 38.4702 61.7856 42.2020 0.0000 0.0000 0.0000
# 3 78.3049 42.2020 165.7698 0.0000 0.0000 0.0000
# 4 0.0000 0.0000 0.0000 19.1319 0.0000 0.0000
# 5 0.0000 0.0000 0.0000 0.0000 5.1306 0.0000
# 6 0.0000 0.0000 0.0000 0.0000 0.0000 22.5193
#
#
#
# Elastic Compliance Matrix: (Units=1/GPa)
#
#
# Indices 1 2 3 4 5 6 
#
# 1 0.023733 -0.008618 -0.009017 0.000000 0.000000 0.000000
# 2 -0.008618 0.022721 -0.001713 0.000000 0.000000 0.000000
# 3 -0.009017 -0.001713 0.010728 0.000000 0.000000 0.000000
# 4 0.000000 0.000000 0.000000 0.052269 0.000000 0.000000
# 5 0.000000 0.000000 0.000000 0.000000 0.194908 0.000000
# 6 0.000000 0.000000 0.000000 0.000000 0.000000 0.044406
#
#
# Mechanical properties :
#
#
# Convention : Reuss Voigt Hill
#
# Bulk Modulus (GPa) = 54.09679 70.15172 62.12425
# Shear Modulus (GPa) = 12.70249 19.65197 16.17723
#
# Velocity S-wave (km/s) = 2.64144 3.28549 2.98091
# Velocity P-wave (km/s) = 6.24638 7.27499 6.78022
#
# Compressibility (1/GPa) = 0.01848539
#
# Stress axis : x y z
#
# Youngs Moduli (GPa) = 42.13602 44.01128 93.21535
#
# Poissons Ratio (x) = 0.37930 0.84048
# Poissons Ratio (y) = 0.36314 0.15972
# Poissons Ratio (z) = 0.37992 0.07541
#
# Static dielectric constant tensor:
#      x y z
#    x 3.188580 0.000000 0.000000 
#    y 0.000000 3.128030 0.000000 
#    z 0.000000 0.000000 3.873770 
# 
# 
# High freq. dielectric constant tensor:
#      x y z
#    x 1.675510 0.000000 0.000000 
#    y 0.000000 1.682640 0.000000 
#    z 0.000000 0.000000 1.727950 
# 
# From -- ./inp_files/67138.got.cif
#   From: 2010.03.12/outbox.cif.g09.slc.cpg/sg65_34_cif.got.tgz:67138.got - 2010.04.10 20:52:16.
