data_PCOD8271103
_publ_section_title
;
Structure prediction by ZEFSAII (Michael W. Deem and Ramdas Pophale) SiO2 
 PCOD8271103
Probable space group: C M M M
;
_chemical_formula_sum "Si O2"
_cell_formula_units_Z 88
_cell_length_a 14.007310
_cell_length_b 22.913121
_cell_length_c 15.492096
_cell_angle_alpha 90.000000
_cell_angle_beta 90.000000
_cell_angle_gamma 90.000000
_cell_volume 4972.206630
_symmetry_space_group_name_H-M "C M M M"
_symmetry_group_IT_number 65
_symmetry_cell_setting 'orthorhombic'
loop_
_space_group_symop_operation_xyz
x,y,z
-x,-y,z
x,-y,-z
-x,y,-z
-x,-y,-z
x,y,-z
-x,y,z
x,-y,z
1/2+x,1/2+y,z
1/2-x,1/2-y,z
1/2+x,1/2-y,-z
1/2-x,1/2+y,-z
1/2-x,1/2-y,-z
1/2+x,1/2+y,-z
1/2-x,1/2+y,z
1/2+x,1/2-y,z
loop_
_atom_site_type_symbol
_atom_site_label
_atom_site_fract_x
_atom_site_fract_y
_atom_site_fract_z
Si Si1 0.613182 0.347344 0.707572
Si Si2 0.109164 0.716123 0.252952
Si Si3 0.604862 0.430726 0.000000
Si Si4 0.233491 0.317041 0.592645
Si Si5 0.216671 0.068464 0.165112
Si Si6 0.390455 0.133427 0.100237
O O1 0.500000 0.359006 0.701311
O O2 0.639496 0.284253 0.749931
O O3 0.663789 0.347076 0.613778
O O4 0.667471 0.398822 0.756292
O O5 0.162667 0.676484 0.325221
O O6 0.126817 0.692047 0.156270
O O7 0.000000 0.711643 0.280944
O O8 0.658357 0.408057 0.916453
O O9 0.600802 0.500000 0.000000
O O10 0.500000 0.402825 0.000000
O O11 0.195954 0.343322 0.500000
O O12 0.250000 0.250000 0.576236
O O13 0.326979 0.083116 0.144899
O O14 0.207320 0.000000 0.182405
O O15 0.500000 0.112575 0.107105
O O16 0.363031 0.145011 0.000000
#
# Coordination Sequence:
#
# PCOD8271103 Si02
#       6
#    16  16   8  16  16  16
#     4  10  20  34  52  75 107 141 173 212 258 308
#     4   9  18  34  54  78 109 137 168 211 261 317
#     4   9  18  32  47  66  95 129 174 222 250 283
#     4   9  17  30  52  80 107 134 167 209 260 313
#     4  11  21  34  52  74 100 138 181 218 258 300
#     4  10  20  35  55  78 105 136 171 214 264 318
#
# _framework density 17.698378999999999
#
# number of rings (size 3 to 8) (size 9 to 14) (size 15 to 20)
#    0.000    2.273    2.727    0.545    0.000    2.182 
#    1.636    5.455    0.000    0.545    0.000    1.273 
#    0.000    2.909    0.000    0.000    0.000    0.000 
#
# Total GULP energy -545100.048012 kJ/mol
# GULP energy per Si atom -12388.637455 kJ/mol
# Density = 1.765810 g / cm^3
# Si number density = 17.698379 Si / 1000 Ang^3
#
#
#
# Elastic Constant Matrix: (Units=GPa)
#
#
# Indices 1 2 3 4 5 6 
#
# 1 96.0412 40.3595 48.5679 0.0000 0.0000 0.0000
# 2 40.3595 67.1908 43.2843 0.0000 0.0000 0.0000
# 3 48.5679 43.2843 119.0775 0.0000 0.0000 0.0000
# 4 0.0000 0.0000 0.0000 127.9823 0.0000 0.0000
# 5 0.0000 0.0000 0.0000 0.0000 23.8297 0.0000
# 6 0.0000 0.0000 0.0000 0.0000 0.0000 21.5467
#
#
#
# Elastic Compliance Matrix: (Units=1/GPa)
#
#
# Indices 1 2 3 4 5 6 
#
# 1 0.015103 -0.006664 -0.003738 0.000000 0.000000 0.000000
# 2 -0.006664 0.022374 -0.005415 0.000000 0.000000 0.000000
# 3 -0.003738 -0.005415 0.011891 0.000000 0.000000 0.000000
# 4 0.000000 0.000000 0.000000 0.007814 0.000000 0.000000
# 5 0.000000 0.000000 0.000000 0.000000 0.041964 0.000000
# 6 0.000000 0.000000 0.000000 0.000000 0.000000 0.046411
#
#
# Mechanical properties :
#
#
# Convention : Reuss Voigt Hill
#
# Bulk Modulus (GPa) = 56.38717 60.74810 58.56763
# Shear Modulus (GPa) = 27.30738 44.67826 35.99282
#
# Velocity S-wave (km/s) = 3.93228 5.02982 4.51453
# Velocity P-wave (km/s) = 7.24888 8.25413 7.76779
#
# Compressibility (1/GPa) = 0.01773453
#
# Stress axis : x y z
#
# Youngs Moduli (GPa) = 66.21326 44.69444 84.09997
#
# Poissons Ratio (x) = 0.29784 0.31433
# Poissons Ratio (y) = 0.44125 0.45539
# Poissons Ratio (z) = 0.24748 0.24202
#
# Static dielectric constant tensor:
#      x y z
#    x 3.534100 0.000000 0.000000 
#    y 0.000000 2.944410 0.000000 
#    z 0.000000 0.000000 3.594160 
# 
# 
# High freq. dielectric constant tensor:
#      x y z
#    x 1.700130 0.000000 0.000000 
#    y 0.000000 1.644230 0.000000 
#    z 0.000000 0.000000 1.683030 
# 
# From -- ./inp_files/40141.got.cif
#   From: 2010.03.12/outbox.cif.g09.slc.cpg/sg65_21_cif.got.tgz:40141.got - 2010.04.10 20:52:16.
