data_PCOD8271697
_publ_section_title
;
Structure prediction by ZEFSAII (Michael W. Deem and Ramdas Pophale) SiO2 
 PCOD8271697
Probable space group: C M M M
;
_chemical_formula_sum "Si O2"
_cell_formula_units_Z 80
_cell_length_a 16.940413
_cell_length_b 26.594898
_cell_length_c 9.486472
_cell_angle_alpha 90.000000
_cell_angle_beta 90.000000
_cell_angle_gamma 90.000000
_cell_volume 4273.926530
_symmetry_space_group_name_H-M "C M M M"
_symmetry_group_IT_number 65
_symmetry_cell_setting 'orthorhombic'
loop_
_space_group_symop_operation_xyz
x,y,z
-x,-y,z
x,-y,-z
-x,y,-z
-x,-y,-z
x,y,-z
-x,y,z
x,-y,z
1/2+x,1/2+y,z
1/2-x,1/2-y,z
1/2+x,1/2-y,-z
1/2-x,1/2+y,-z
1/2-x,1/2-y,-z
1/2+x,1/2+y,-z
1/2-x,1/2+y,z
1/2+x,1/2-y,z
loop_
_atom_site_type_symbol
_atom_site_label
_atom_site_fract_x
_atom_site_fract_y
_atom_site_fract_z
Si Si1 0.842832 0.886576 0.333867
Si Si2 0.412034 0.000000 0.167022
Si Si3 0.500000 0.443180 0.667015
Si Si4 0.809645 0.593807 0.166851
Si Si5 0.835217 0.229823 0.664273
Si Si6 0.410840 0.811229 0.839249
O O1 0.828508 0.894118 0.500000
O O2 0.772103 0.912300 0.249062
O O3 0.846812 0.827984 0.294241
O O4 0.922749 0.913315 0.281111
O O5 0.365781 0.049072 0.218899
O O6 0.500000 0.000000 0.232932
O O7 0.418416 0.000000 0.000000
O O8 0.500000 0.500000 0.728649
O O9 0.500000 0.445079 0.500000
O O10 0.851698 0.645449 0.212527
O O11 0.793943 0.591472 0.000000
O O12 0.848825 0.238741 0.500000
O O13 0.750000 0.250000 0.712478
O O14 0.900833 0.261505 0.746228
O O15 0.500000 0.831344 0.823127
O O16 0.392442 0.796778 0.000000
#
# Coordination Sequence:
#
# PCOD8271697 Si02
#       6
#    16   8   8  16  16  16
#     4  10  21  37  57  81 109 142 183 226 273 328
#     4   9  18  34  57  82 109 142 180 219 263 319
#     4   9  20  38  59  81 105 141 189 236 277 324
#     4  10  20  35  57  82 109 142 180 222 269 323
#     4  10  20  35  54  79 110 144 181 223 273 328
#     4  10  21  35  53  80 113 147 183 221 265 320
#
# _framework density 18.718150999999999
#
# number of rings (size 3 to 8) (size 9 to 14) (size 15 to 20)
#    0.000    2.200    2.000    0.600    2.800    4.000 
#    0.000    0.500    0.000    3.000    0.000    0.000 
#    0.000    0.000    0.000    0.000    0.000    0.000 
#
# Total GULP energy -496109.169658 kJ/mol
# GULP energy per Si atom -12402.729241 kJ/mol
# Density = 1.867555 g / cm^3
# Si number density = 18.718151 Si / 1000 Ang^3
#
#
#
# Elastic Constant Matrix: (Units=GPa)
#
#
# Indices 1 2 3 4 5 6 
#
# 1 159.3857 80.6007 41.9203 0.0000 0.0000 0.0000
# 2 80.6007 141.5691 35.9276 0.0000 0.0000 0.0000
# 3 41.9203 35.9276 34.1025 0.0000 0.0000 0.0000
# 4 0.0000 0.0000 0.0000 13.5998 0.0000 0.0000
# 5 0.0000 0.0000 0.0000 0.0000 26.8948 0.0000
# 6 0.0000 0.0000 0.0000 0.0000 0.0000 38.0661
#
#
#
# Elastic Compliance Matrix: (Units=1/GPa)
#
#
# Indices 1 2 3 4 5 6 
#
# 1 0.010520 -0.003696 -0.009038 0.000000 0.000000 0.000000
# 2 -0.003696 0.010940 -0.006982 0.000000 0.000000 0.000000
# 3 -0.009038 -0.006982 0.047790 0.000000 0.000000 0.000000
# 4 0.000000 0.000000 0.000000 0.073530 0.000000 0.000000
# 5 0.000000 0.000000 0.000000 0.000000 0.037182 0.000000
# 6 0.000000 0.000000 0.000000 0.000000 0.000000 0.026270
#
#
# Mechanical properties :
#
#
# Convention : Reuss Voigt Hill
#
# Bulk Modulus (GPa) = 33.53801 72.43938 52.98869
# Shear Modulus (GPa) = 19.56152 27.48606 23.52379
#
# Velocity S-wave (km/s) = 3.23624 3.83615 3.54889
# Velocity P-wave (km/s) = 5.64983 7.64235 6.72035
#
# Compressibility (1/GPa) = 0.02981691
#
# Stress axis : x y z
#
# Youngs Moduli (GPa) = 95.05484 91.40923 20.92502
#
# Poissons Ratio (x) = 0.33783 0.18913
# Poissons Ratio (y) = 0.35130 0.14610
# Poissons Ratio (z) = 0.85914 0.63824
#
# Static dielectric constant tensor:
#      x y z
#    x 3.507730 0.000000 0.000000 
#    y 0.000000 3.536760 0.000000 
#    z 0.000000 0.000000 3.107850 
# 
# 
# High freq. dielectric constant tensor:
#      x y z
#    x 1.736140 0.000000 0.000000 
#    y 0.000000 1.735630 0.000000 
#    z 0.000000 0.000000 1.695570 
# 
# From -- ./inp_files/9730.got.cif
#   From: 2010.03.12/outbox.cif.g09.slc.cpg/sg65_5_cif.got.tgz:9730.got - 2010.04.10 20:52:16.
