data_PCOD8271775
_publ_section_title
;
Structure prediction by ZEFSAII (Michael W. Deem and Ramdas Pophale) SiO2 
 PCOD8271775
Probable space group: C M M M
;
_chemical_formula_sum "Si O2"
_cell_formula_units_Z 104
_cell_length_a 21.510260
_cell_length_b 26.463934
_cell_length_c 8.978359
_cell_angle_alpha 90.000000
_cell_angle_beta 90.000000
_cell_angle_gamma 90.000000
_cell_volume 5110.895854
_symmetry_space_group_name_H-M "C M M M"
_symmetry_group_IT_number 65
_symmetry_cell_setting 'orthorhombic'
loop_
_space_group_symop_operation_xyz
x,y,z
-x,-y,z
x,-y,-z
-x,y,-z
-x,-y,-z
x,y,-z
-x,y,z
x,-y,z
1/2+x,1/2+y,z
1/2-x,1/2-y,z
1/2+x,1/2-y,-z
1/2-x,1/2+y,-z
1/2-x,1/2-y,-z
1/2+x,1/2+y,-z
1/2-x,1/2+y,z
1/2+x,1/2-y,z
loop_
_atom_site_type_symbol
_atom_site_label
_atom_site_fract_x
_atom_site_fract_y
_atom_site_fract_z
Si Si1 0.273831 0.606851 0.672676
Si Si2 0.071752 0.728576 0.823365
Si Si3 0.000000 0.939497 0.333239
Si Si4 0.072334 0.624152 0.666363
Si Si5 0.161640 0.557590 0.824223
Si Si6 0.811842 0.220770 0.326454
Si Si7 0.618108 0.441200 0.164318
O O1 0.261963 0.596652 0.500000
O O2 0.210755 0.597726 0.761353
O O3 0.299783 0.662201 0.704065
O O4 0.322140 0.566297 0.734519
O O5 0.089120 0.673992 0.758904
O O6 0.124056 0.766341 0.759022
O O7 0.000000 0.743710 0.778486
O O8 0.077969 0.727009 0.000000
O O9 0.940780 0.916860 0.247417
O O10 0.000000 0.917563 0.500000
O O11 0.000000 0.000000 0.337480
O O12 0.101243 0.629101 0.500000
O O13 0.097030 0.574563 0.751175
O O14 0.000000 0.615925 0.654579
O O15 0.177257 0.500000 0.777570
O O16 0.157924 0.562633 0.000000
O O17 0.822201 0.232978 0.500000
O O18 0.750000 0.250000 0.268206
O O19 0.606130 0.500000 0.145209
O O20 0.626114 0.416560 0.000000
#
# Coordination Sequence:
#
# PCOD8271775 Si02
#       7
#    16  16   8  16  16  16  16
#     4  11  23  38  58  85 114 150 196 243 293 350
#     4  10  21  38  62  92 123 157 199 246 300 363
#     4   9  17  31  53  79 105 137 181 229 275 327
#     4  10  21  38  62  90 120 157 198 240 290 351
#     4  11  24  40  59  86 121 159 198 245 300 354
#     4  10  22  40  61  86 116 152 197 247 299 357
#     4  10  20  35  55  79 110 148 188 231 283 341
#
# _framework density 20.348682
#
# number of rings (size 3 to 8) (size 9 to 14) (size 15 to 20)
#    0.000    1.769    0.000    3.923    0.000    9.846 
#    1.385    1.538    0.000    0.000    0.000    0.000 
#    0.000    0.000    0.000    0.000    0.000    0.000 
#
# Total GULP energy -644783.671183 kJ/mol
# GULP energy per Si atom -12399.685984 kJ/mol
# Density = 2.030237 g / cm^3
# Si number density = 20.348682 Si / 1000 Ang^3
#
#
#
# Elastic Constant Matrix: (Units=GPa)
#
#
# Indices 1 2 3 4 5 6 
#
# 1 82.8335 40.4725 50.9019 0.0000 0.0000 0.0000
# 2 40.4725 64.5919 58.1473 0.0000 0.0000 0.0000
# 3 50.9019 58.1473 111.5645 0.0000 0.0000 0.0000
# 4 0.0000 0.0000 0.0000 28.6377 0.0000 0.0000
# 5 0.0000 0.0000 0.0000 0.0000 38.9337 0.0000
# 6 0.0000 0.0000 0.0000 0.0000 0.0000 29.9680
#
#
#
# Elastic Compliance Matrix: (Units=1/GPa)
#
#
# Indices 1 2 3 4 5 6 
#
# 1 0.018539 -0.007539 -0.004529 0.000000 0.000000 0.000000
# 2 -0.007539 0.032233 -0.013360 0.000000 0.000000 0.000000
# 3 -0.004529 -0.013360 0.017993 0.000000 0.000000 0.000000
# 4 0.000000 0.000000 0.000000 0.034919 0.000000 0.000000
# 5 0.000000 0.000000 0.000000 0.000000 0.025685 0.000000
# 6 0.000000 0.000000 0.000000 0.000000 0.000000 0.033369
#
#
# Mechanical properties :
#
#
# Convention : Reuss Voigt Hill
#
# Bulk Modulus (GPa) = 55.83938 62.00369 58.92153
# Shear Modulus (GPa) = 22.77245 26.80577 24.78911
#
# Velocity S-wave (km/s) = 3.34894 3.63343 3.49408
# Velocity P-wave (km/s) = 6.51573 6.93824 6.73030
#
# Compressibility (1/GPa) = 0.01790851
#
# Stress axis : x y z
#
# Youngs Moduli (GPa) = 53.93942 31.02449 55.57700
#
# Poissons Ratio (x) = 0.23390 0.25172
# Poissons Ratio (y) = 0.40666 0.74250
# Poissons Ratio (z) = 0.24431 0.41448
#
# Static dielectric constant tensor:
#      x y z
#    x 3.991380 0.000000 0.000000 
#    y 0.000000 3.522750 0.000000 
#    z 0.000000 0.000000 3.933190 
# 
# 
# High freq. dielectric constant tensor:
#      x y z
#    x 1.807730 0.000000 0.000000 
#    y 0.000000 1.775090 0.000000 
#    z 0.000000 0.000000 1.808470 
# 
# From -- ./inp_files/12386.got.cif
#   From: 2010.03.12/outbox.cif.g09.slc.cpg/sg65_7_cif.got.tgz:12386.got - 2010.04.10 20:52:16.
