data_PCOD8271214
_publ_section_title
;
Structure prediction by ZEFSAII (Michael W. Deem and Ramdas Pophale) SiO2 
 PCOD8271214
Probable space group: C M M M
;
_chemical_formula_sum "Si O2"
_cell_formula_units_Z 104
_cell_length_a 9.044230
_cell_length_b 18.940467
_cell_length_c 32.925383
_cell_angle_alpha 90.000000
_cell_angle_beta 90.000000
_cell_angle_gamma 90.000000
_cell_volume 5640.181978
_symmetry_space_group_name_H-M "C M M M"
_symmetry_group_IT_number 65
_symmetry_cell_setting 'orthorhombic'
loop_
_space_group_symop_operation_xyz
x,y,z
-x,-y,z
x,-y,-z
-x,y,-z
-x,-y,-z
x,y,-z
-x,y,z
x,-y,z
1/2+x,1/2+y,z
1/2-x,1/2-y,z
1/2+x,1/2-y,-z
1/2-x,1/2+y,-z
1/2-x,1/2-y,-z
1/2+x,1/2+y,-z
1/2-x,1/2+y,z
1/2+x,1/2-y,z
loop_
_atom_site_type_symbol
_atom_site_label
_atom_site_fract_x
_atom_site_fract_y
_atom_site_fract_z
Si Si1 0.170875 0.820081 0.141667
Si Si2 0.676829 0.827427 0.000000
Si Si3 0.166855 0.583728 0.705206
Si Si4 0.173713 0.178691 0.233414
Si Si5 0.324506 0.922223 0.615563
Si Si6 0.827370 0.676267 0.454802
Si Si7 0.827618 0.917799 0.068717
O O1 0.250000 0.750000 0.124472
O O2 0.224586 0.838130 0.187243
O O3 0.203736 0.888109 0.113808
O O4 0.000000 0.800817 0.141377
O O5 0.750000 0.750000 0.000000
O O6 0.727607 0.871966 0.961146
O O7 0.500000 0.818973 0.000000
O O8 0.176047 0.500000 0.707312
O O9 0.277134 0.614582 0.738390
O O10 0.216405 0.608951 0.660028
O O11 0.000000 0.609305 0.714474
O O12 0.250000 0.250000 0.249133
O O13 0.000000 0.188240 0.236660
O O14 0.500000 0.927340 0.612054
O O15 0.258864 0.875183 0.579208
O O16 0.255229 0.000000 0.610490
O O17 0.797078 0.645348 0.500000
O O18 0.750000 0.750000 0.449005
O O19 0.000000 0.687721 0.447561
O O20 0.000000 0.909231 0.056826
O O21 0.780998 0.000000 0.067120
#
# Coordination Sequence:
#
# PCOD8271214 Si02
#       7
#    16   8  16  16  16  16  16
#     4   9  19  35  55  78 104 137 174 213 256 302
#     4  12  25  40  59  83 111 143 181 220 259 304
#     4   9  18  33  51  71  99 133 166 204 253 305
#     4  10  20  34  53  77 105 135 171 214 255 299
#     4   8  15  29  48  69  93 122 158 200 243 288
#     4   9  17  29  46  68  93 121 154 194 240 289
#     4  10  21  38  59  83 112 143 174 211 258 308
#
# _framework density 18.439121
#
# number of rings (size 3 to 8) (size 9 to 14) (size 15 to 20)
#    0.000    2.615    0.000    2.769    0.000    5.538 
#    0.000    5.385    0.000    1.385    0.000    2.154 
#    0.000    0.000    0.000    0.000    0.000    0.000 
#
# Total GULP energy -644674.332085 kJ/mol
# GULP energy per Si atom -12397.583309 kJ/mol
# Density = 1.839715 g / cm^3
# Si number density = 18.439121 Si / 1000 Ang^3
#
#
#
# Elastic Constant Matrix: (Units=GPa)
#
#
# Indices 1 2 3 4 5 6 
#
# 1 60.1093 42.5349 43.5170 0.0000 0.0000 0.0000
# 2 42.5349 103.6014 69.0120 0.0000 0.0000 0.0000
# 3 43.5170 69.0120 123.7665 0.0000 0.0000 0.0000
# 4 0.0000 0.0000 0.0000 35.8500 0.0000 0.0000
# 5 0.0000 0.0000 0.0000 0.0000 22.6617 0.0000
# 6 0.0000 0.0000 0.0000 0.0000 0.0000 27.1011
#
#
#
# Elastic Compliance Matrix: (Units=1/GPa)
#
#
# Indices 1 2 3 4 5 6 
#
# 1 0.025200 -0.007070 -0.004918 0.000000 0.000000 0.000000
# 2 -0.007070 0.017340 -0.007183 0.000000 0.000000 0.000000
# 3 -0.004918 -0.007183 0.013814 0.000000 0.000000 0.000000
# 4 0.000000 0.000000 0.000000 0.027894 0.000000 0.000000
# 5 0.000000 0.000000 0.000000 0.000000 0.044127 0.000000
# 6 0.000000 0.000000 0.000000 0.000000 0.000000 0.036899
#
#
# Mechanical properties :
#
#
# Convention : Reuss Voigt Hill
#
# Bulk Modulus (GPa) = 55.51916 66.40056 60.95986
# Shear Modulus (GPa) = 23.85274 25.95011 24.90143
#
# Velocity S-wave (km/s) = 3.60056 3.75552 3.67886
# Velocity P-wave (km/s) = 6.88913 7.40906 7.15382
#
# Compressibility (1/GPa) = 0.01801180
#
# Stress axis : x y z
#
# Youngs Moduli (GPa) = 39.68276 57.67127 72.38990
#
# Poissons Ratio (x) = 0.40773 0.35603
# Poissons Ratio (y) = 0.28055 0.51996
# Poissons Ratio (z) = 0.19517 0.41424
#
# Static dielectric constant tensor:
#      x y z
#    x 3.223870 0.000000 0.000000 
#    y 0.000000 3.436710 0.000000 
#    z 0.000000 0.000000 3.719890 
# 
# 
# High freq. dielectric constant tensor:
#      x y z
#    x 1.693880 0.000000 0.000000 
#    y 0.000000 1.710460 0.000000 
#    z 0.000000 0.000000 1.728380 
# 
# From -- ./inp_files/76896.got.cif
#   From: 2010.03.12/outbox.cif.g09.slc.cpg/sg65_39_cif.got.tgz:76896.got - 2010.04.10 20:52:16.
