data_PCOD8271097
_publ_section_title
;
Structure prediction by ZEFSAII (Michael W. Deem and Ramdas Pophale) SiO2 
 PCOD8271097
Probable space group: C M M M
;
_chemical_formula_sum "Si O2"
_cell_formula_units_Z 88
_cell_length_a 18.838758
_cell_length_b 29.984464
_cell_length_c 8.049045
_cell_angle_alpha 90.000000
_cell_angle_beta 90.000000
_cell_angle_gamma 90.000000
_cell_volume 4546.664541
_symmetry_space_group_name_H-M "C M M M"
_symmetry_group_IT_number 65
_symmetry_cell_setting 'orthorhombic'
loop_
_space_group_symop_operation_xyz
x,y,z
-x,-y,z
x,-y,-z
-x,y,-z
-x,-y,-z
x,y,-z
-x,y,z
x,-y,z
1/2+x,1/2+y,z
1/2-x,1/2-y,z
1/2+x,1/2-y,-z
1/2-x,1/2+y,-z
1/2-x,1/2-y,-z
1/2+x,1/2+y,-z
1/2-x,1/2+y,z
1/2+x,1/2-y,z
loop_
_atom_site_type_symbol
_atom_site_label
_atom_site_fract_x
_atom_site_fract_y
_atom_site_fract_z
Si Si1 0.079448 0.947136 0.500000
Si Si2 0.420965 0.846937 0.193120
Si Si3 0.719241 0.883779 0.313633
Si Si4 0.171742 0.948457 0.186482
Si Si5 0.419373 0.250888 0.695017
Si Si6 0.787073 0.795312 0.192341
O O1 0.118193 0.930885 0.330266
O O2 0.000000 0.926801 0.500000
O O3 0.075369 0.000000 0.500000
O O4 0.500000 0.855016 0.268906
O O5 0.364577 0.880144 0.276042
O O6 0.397392 0.796014 0.222611
O O7 0.421283 0.857004 0.000000
O O8 0.728833 0.900972 0.500000
O O9 0.755605 0.920317 0.195206
O O10 0.756960 0.836140 0.296124
O O11 0.190536 0.000000 0.217471
O O12 0.139201 0.941961 0.000000
O O13 0.407340 0.246733 0.500000
O O14 0.500000 0.263341 0.739795
O O15 0.370975 0.289898 0.772263
O O16 0.750000 0.750000 0.254203
O O17 0.771939 0.804986 0.000000
#
# Coordination Sequence:
#
# PCOD8271097 Si02
#       6
#     8  16  16  16  16  16
#     4   9  18  36  62  92 122 151 191 239 289 347
#     4  10  20  34  53  79 111 147 190 237 284 339
#     4  12  23  36  59  85 114 150 191 240 288 343
#     4  10  21  39  63  91 122 155 194 239 290 346
#     4  10  20  34  52  75 105 142 184 232 286 339
#     4  11  22  35  53  78 108 145 189 234 281 339
#
# _framework density 19.354846999999999
#
# number of rings (size 3 to 8) (size 9 to 14) (size 15 to 20)
#    0.000    1.545    2.727    3.273    0.000    3.273 
#    0.000    2.727    0.000    2.727    0.000    3.818 
#    0.000    0.000    0.000    0.000    0.000    0.000 
#
# Total GULP energy -545649.778433 kJ/mol
# GULP energy per Si atom -12401.131328 kJ/mol
# Density = 1.931079 g / cm^3
# Si number density = 19.354847 Si / 1000 Ang^3
#
#
#
# Elastic Constant Matrix: (Units=GPa)
#
#
# Indices 1 2 3 4 5 6 
#
# 1 121.0811 37.9175 30.0776 0.0000 0.0000 0.0000
# 2 37.9175 54.6164 22.4554 0.0000 0.0000 0.0000
# 3 30.0776 22.4554 96.8751 0.0000 0.0000 0.0000
# 4 0.0000 0.0000 0.0000 25.1891 0.0000 0.0000
# 5 0.0000 0.0000 0.0000 0.0000 29.9956 0.0000
# 6 0.0000 0.0000 0.0000 0.0000 0.0000 24.4285
#
#
#
# Elastic Compliance Matrix: (Units=1/GPa)
#
#
# Indices 1 2 3 4 5 6 
#
# 1 0.010827 -0.006781 -0.001790 0.000000 0.000000 0.000000
# 2 -0.006781 0.024485 -0.003570 0.000000 0.000000 0.000000
# 3 -0.001790 -0.003570 0.011706 0.000000 0.000000 0.000000
# 4 0.000000 0.000000 0.000000 0.039700 0.000000 0.000000
# 5 0.000000 0.000000 0.000000 0.000000 0.033338 0.000000
# 6 0.000000 0.000000 0.000000 0.000000 0.000000 0.040936
#
#
# Mechanical properties :
#
#
# Convention : Reuss Voigt Hill
#
# Bulk Modulus (GPa) = 43.98280 50.38596 47.18438
# Shear Modulus (GPa) = 25.92662 28.06411 26.99537
#
# Velocity S-wave (km/s) = 3.66395 3.81199 3.73870
# Velocity P-wave (km/s) = 6.37755 6.74272 6.56267
#
# Compressibility (1/GPa) = 0.02273616
#
# Stress axis : x y z
#
# Youngs Moduli (GPa) = 92.36185 40.84128 85.42749
#
# Poissons Ratio (x) = 0.27694 0.15290
# Poissons Ratio (y) = 0.62629 0.30500
# Poissons Ratio (z) = 0.16531 0.14581
#
# Static dielectric constant tensor:
#      x y z
#    x 3.846120 0.000000 0.000000 
#    y 0.000000 3.190140 0.000000 
#    z 0.000000 0.000000 3.611000 
# 
# 
# High freq. dielectric constant tensor:
#      x y z
#    x 1.759250 0.000000 0.000000 
#    y 0.000000 1.711590 0.000000 
#    z 0.000000 0.000000 1.767970 
# 
# From -- ./inp_files/10001.got.cif
#   From: 2010.03.12/outbox.cif.g09.slc.cpg/sg65_6_cif.got.tgz:10001.got - 2010.04.10 20:52:16.
