data_PCOD8271367
_publ_section_title
;
Structure prediction by ZEFSAII (Michael W. Deem and Ramdas Pophale) SiO2 
 PCOD8271367
Probable space group: C M M M
;
_chemical_formula_sum "Si O2"
_cell_formula_units_Z 64
_cell_length_a 8.722268
_cell_length_b 15.767911
_cell_length_c 22.407765
_cell_angle_alpha 90.000000
_cell_angle_beta 90.000000
_cell_angle_gamma 90.000000
_cell_volume 3081.783516
_symmetry_space_group_name_H-M "C M M M"
_symmetry_group_IT_number 65
_symmetry_cell_setting 'orthorhombic'
loop_
_space_group_symop_operation_xyz
x,y,z
-x,-y,z
x,-y,-z
-x,y,-z
-x,-y,-z
x,y,-z
-x,y,z
x,-y,z
1/2+x,1/2+y,z
1/2-x,1/2-y,z
1/2+x,1/2-y,-z
1/2-x,1/2+y,-z
1/2-x,1/2-y,-z
1/2+x,1/2+y,-z
1/2-x,1/2+y,z
1/2+x,1/2-y,z
loop_
_atom_site_type_symbol
_atom_site_label
_atom_site_fract_x
_atom_site_fract_y
_atom_site_fract_z
Si Si1 0.832271 0.096918 0.616808
Si Si2 0.317936 0.500000 0.067032
Si Si3 0.817652 0.841735 0.145007
Si Si4 0.319257 0.839644 0.729283
Si Si5 0.828410 0.601646 0.500000
O O1 0.723422 0.099593 0.674789
O O2 0.754247 0.139608 0.558941
O O3 0.000000 0.138873 0.628988
O O4 0.856672 0.000000 0.600466
O O5 0.500000 0.500000 0.066824
O O6 0.260156 0.414127 0.099299
O O7 0.251531 0.500000 0.000000
O O8 0.750000 0.750000 0.126448
O O9 0.758466 0.871251 0.209660
O O10 0.000000 0.834155 0.146296
O O11 0.500000 0.835244 0.739338
O O12 0.250000 0.750000 0.710702
O O13 0.830038 0.500000 0.500000
O O14 0.000000 0.637341 0.500000
#
# Coordination Sequence:
#
# PCOD8271367 Si02
#       5
#    16   8  16  16   8
#     4  10  20  34  54  79 108 144 186 230 282 340
#     4   9  20  38  61  89 121 158 199 238 285 351
#     4  10  20  37  60  86 118 157 197 242 295 350
#     4  11  22  37  56  80 111 145 185 233 287 341
#     4   9  17  31  50  75 108 143 184 231 281 335
#
# _framework density 20.767195000000001
#
# number of rings (size 3 to 8) (size 9 to 14) (size 15 to 20)
#    0.000    2.000    0.000    5.625    1.750    3.500 
#    0.000    2.500    0.000    5.250    0.000    0.000 
#    0.000    0.000    0.000    0.000    0.000    0.000 
#
# Total GULP energy -396717.437956 kJ/mol
# GULP energy per Si atom -12397.419936 kJ/mol
# Density = 2.071993 g / cm^3
# Si number density = 20.767195 Si / 1000 Ang^3
#
#
#
# Elastic Constant Matrix: (Units=GPa)
#
#
# Indices 1 2 3 4 5 6 
#
# 1 131.6051 35.5229 51.2949 0.0000 0.0000 0.0000
# 2 35.5229 74.9654 66.8444 0.0000 0.0000 0.0000
# 3 51.2949 66.8444 174.0314 0.0000 0.0000 0.0000
# 4 0.0000 0.0000 0.0000 7.5435 0.0000 0.0000
# 5 0.0000 0.0000 0.0000 0.0000 19.2594 0.0000
# 6 0.0000 0.0000 0.0000 0.0000 0.0000 26.7482
#
#
#
# Elastic Compliance Matrix: (Units=1/GPa)
#
#
# Indices 1 2 3 4 5 6 
#
# 1 0.008976 -0.002881 -0.001539 0.000000 0.000000 0.000000
# 2 -0.002881 0.021212 -0.007298 0.000000 0.000000 0.000000
# 3 -0.001539 -0.007298 0.009003 0.000000 0.000000 0.000000
# 4 0.000000 0.000000 0.000000 0.132565 0.000000 0.000000
# 5 0.000000 0.000000 0.000000 0.000000 0.051923 0.000000
# 6 0.000000 0.000000 0.000000 0.000000 0.000000 0.037386
#
#
# Mechanical properties :
#
#
# Convention : Reuss Voigt Hill
#
# Bulk Modulus (GPa) = 63.47397 76.43623 69.95510
# Shear Modulus (GPa) = 17.25605 25.83952 21.54779
#
# Velocity S-wave (km/s) = 2.88571 3.53122 3.22466
# Velocity P-wave (km/s) = 6.46018 7.31520 6.90095
#
# Compressibility (1/GPa) = 0.01575449
#
# Stress axis : x y z
#
# Youngs Moduli (GPa) = 111.40826 47.14218 111.07422
#
# Poissons Ratio (x) = 0.13582 0.17095
# Poissons Ratio (y) = 0.32097 0.81066
# Poissons Ratio (z) = 0.17146 0.34406
#
# Static dielectric constant tensor:
#      x y z
#    x 3.881960 0.000000 0.000000 
#    y 0.000000 3.533190 0.000000 
#    z 0.000000 0.000000 3.855520 
# 
# 
# High freq. dielectric constant tensor:
#      x y z
#    x 1.817120 0.000000 0.000000 
#    y 0.000000 1.791420 0.000000 
#    z 0.000000 0.000000 1.817100 
# 
# From -- ./inp_files/66751.got.cif
#   From: 2010.03.12/outbox.cif.g09.slc.cpg/sg65_34_cif.got.tgz:66751.got - 2010.04.10 20:52:16.
