data_PCOD8271551
_publ_section_title
;
Structure prediction by ZEFSAII (Michael W. Deem and Ramdas Pophale) SiO2 
 PCOD8271551
Probable space group: C M M M
;
_chemical_formula_sum "Si O2"
_cell_formula_units_Z 104
_cell_length_a 22.034696
_cell_length_b 26.564495
_cell_length_c 9.610876
_cell_angle_alpha 90.000000
_cell_angle_beta 90.000000
_cell_angle_gamma 90.000000
_cell_volume 5625.635653
_symmetry_space_group_name_H-M "C M M M"
_symmetry_group_IT_number 65
_symmetry_cell_setting 'orthorhombic'
loop_
_space_group_symop_operation_xyz
x,y,z
-x,-y,z
x,-y,-z
-x,y,-z
-x,-y,-z
x,y,-z
-x,y,z
x,-y,z
1/2+x,1/2+y,z
1/2-x,1/2-y,z
1/2+x,1/2-y,-z
1/2-x,1/2+y,-z
1/2-x,1/2-y,-z
1/2+x,1/2+y,-z
1/2-x,1/2+y,z
1/2+x,1/2-y,z
loop_
_atom_site_type_symbol
_atom_site_label
_atom_site_fract_x
_atom_site_fract_y
_atom_site_fract_z
Si Si1 0.621089 0.726275 0.154838
Si Si2 0.250813 0.557934 0.164567
Si Si3 0.866049 0.944862 0.345654
Si Si4 0.694967 0.854257 0.343048
Si Si5 0.067815 0.309502 0.657429
Si Si6 0.432208 0.348840 0.656743
Si Si7 0.750000 0.250000 0.241291
O O1 0.577600 0.764407 0.235854
O O2 0.616500 0.674421 0.238286
O O3 0.691836 0.740075 0.145689
O O4 0.595410 0.721106 0.000000
O O5 0.228491 0.500000 0.194950
O O6 0.317264 0.565982 0.226615
O O7 0.210087 0.601065 0.235815
O O8 0.251971 0.568152 0.000000
O O9 0.835822 0.938541 0.500000
O O10 0.923342 0.908445 0.331325
O O11 0.893669 0.000000 0.326824
O O12 0.708264 0.872517 0.500000
O O13 0.622341 0.848775 0.319533
O O14 0.731821 0.800957 0.326798
O O15 0.071761 0.288142 0.500000
O O16 0.000000 0.332853 0.683328
O O17 0.419384 0.329832 0.500000
O O18 0.500000 0.334877 0.702671
#
# Coordination Sequence:
#
# PCOD8271551 Si02
#       7
#    16  16  16  16  16  16   8
#     4  11  22  34  50  73 101 134 172 209 247 299
#     4  10  21  36  54  78 109 141 172 212 263 312
#     4   9  18  33  53  74  95 125 169 216 257 301
#     4  10  20  34  56  82 106 136 174 214 256 309
#     4   9  19  36  55  75 102 134 166 204 253 304
#     4  10  21  35  50  70  99 134 169 209 258 305
#     4  10  22  36  52  78 112 140 166 212 270 316
#
# _framework density 18.486801
#
# number of rings (size 3 to 8) (size 9 to 14) (size 15 to 20)
#    0.000    2.154    0.000    2.769    0.000   11.692 
#    0.000    1.538    0.000    0.462    0.000    6.462 
#    0.000    0.000    0.000    0.000    0.000    0.000 
#
# Total GULP energy -644227.872695 kJ/mol
# GULP energy per Si atom -12388.997552 kJ/mol
# Density = 1.844472 g / cm^3
# Si number density = 18.486801 Si / 1000 Ang^3
#
#
#
# Elastic Constant Matrix: (Units=GPa)
#
#
# Indices 1 2 3 4 5 6 
#
# 1 82.1637 36.8021 42.8307 0.0000 0.0000 0.0000
# 2 36.8021 97.4322 58.3768 0.0000 0.0000 0.0000
# 3 42.8307 58.3768 133.0656 0.0000 0.0000 0.0000
# 4 0.0000 0.0000 0.0000 -37.0392 0.0000 0.0000
# 5 0.0000 0.0000 0.0000 0.0000 15.7037 0.0000
# 6 0.0000 0.0000 0.0000 0.0000 0.0000 22.0556
#
#
#
# Elastic Compliance Matrix: (Units=1/GPa)
#
#
# Indices 1 2 3 4 5 6 
#
# 1 0.015659 -0.003927 -0.003317 0.000000 0.000000 0.000000
# 2 -0.003927 0.014908 -0.005276 0.000000 0.000000 0.000000
# 3 -0.003317 -0.005276 0.010898 0.000000 0.000000 0.000000
# 4 0.000000 0.000000 0.000000 -0.026998 0.000000 0.000000
# 5 0.000000 0.000000 0.000000 0.000000 0.063679 0.000000
# 6 0.000000 0.000000 0.000000 0.000000 0.000000 0.045340
#
#
# Mechanical properties :
#
#
# Convention : Reuss Voigt Hill
#
# Bulk Modulus (GPa) = 60.88916 65.40897 63.14906
# Shear Modulus (GPa) = 32.46711 11.78748 22.12730
#
# Velocity S-wave (km/s) = 4.19529 2.52785 3.46341
# Velocity P-wave (km/s) = 7.51501 6.63161 7.08709
#
# Compressibility (1/GPa) = 0.01642328
#
# Stress axis : x y z
#
# Youngs Moduli (GPa) = 63.86034 67.07716 91.76294
#
# Poissons Ratio (x) = 0.26342 0.30442
# Poissons Ratio (y) = 0.25079 0.48417
# Poissons Ratio (z) = 0.21185 0.35392
#
# Static dielectric constant tensor:
#      x y z
#    x 3.359070 0.000000 0.000000 
#    y 0.000000 3.458170 0.000000 
#    z 0.000000 0.000000 3.434230 
# 
# 
# High freq. dielectric constant tensor:
#      x y z
#    x 1.708020 0.000000 0.000000 
#    y 0.000000 1.707200 0.000000 
#    z 0.000000 0.000000 1.719080 
# 
# From -- ./inp_files/14813.got.cif
#   From: 2010.03.12/outbox.cif.g09.slc.cpg/sg65_8_cif.got.tgz:14813.got - 2010.04.10 20:52:16.
