data_PCOD8271517
_publ_section_title
;
Structure prediction by ZEFSAII (Michael W. Deem and Ramdas Pophale) SiO2 
 PCOD8271517
Probable space group: C M M M
;
_chemical_formula_sum "Si O2"
_cell_formula_units_Z 72
_cell_length_a 15.427354
_cell_length_b 7.724416
_cell_length_c 28.762065
_cell_angle_alpha 90.000000
_cell_angle_beta 90.000000
_cell_angle_gamma 90.000000
_cell_volume 3427.497631
_symmetry_space_group_name_H-M "C M M M"
_symmetry_group_IT_number 65
_symmetry_cell_setting 'orthorhombic'
loop_
_space_group_symop_operation_xyz
x,y,z
-x,-y,z
x,-y,-z
-x,y,-z
-x,-y,-z
x,y,-z
-x,y,z
x,-y,z
1/2+x,1/2+y,z
1/2-x,1/2-y,z
1/2+x,1/2-y,-z
1/2-x,1/2+y,-z
1/2-x,1/2-y,-z
1/2+x,1/2+y,-z
1/2-x,1/2+y,z
1/2+x,1/2-y,z
loop_
_atom_site_type_symbol
_atom_site_label
_atom_site_fract_x
_atom_site_fract_y
_atom_site_fract_z
Si Si1 0.155071 0.797590 0.114247
Si Si2 0.500000 0.292969 0.947753
Si Si3 0.396915 0.691985 0.552027
Si Si4 0.603834 0.000000 0.385080
Si Si5 0.103129 0.500000 0.280593
Si Si6 0.102815 0.196458 0.214644
O O1 0.250000 0.750000 0.095515
O O2 0.084670 0.718636 0.078776
O O3 0.141958 0.728212 0.166619
O O4 0.139969 0.000000 0.116028
O O5 0.500000 0.500000 0.948630
O O6 0.500000 0.218757 0.000000
O O7 0.363970 0.737111 0.500000
O O8 0.500000 0.698329 0.552432
O O9 0.365064 0.500000 0.566676
O O10 0.359375 0.830886 0.588396
O O11 0.640624 0.000000 0.332763
O O12 0.500000 0.000000 0.385050
O O13 0.136017 0.325711 0.254879
O O14 0.000000 0.500000 0.281549
O O15 0.000000 0.199840 0.209744
O O16 0.134303 0.000000 0.225850
#
# Coordination Sequence:
#
# PCOD8271517 Si02
#       6
#    16   8  16   8   8  16
#     4  10  20  34  55  83 106 140 185 225 273 327
#     4   9  18  36  59  81 113 151 181 217 275 340
#     4   8  13  20  30  44  67 107 155 203 253 307
#     4   9  15  22  31  50  78 104 151 208 262 315
#     4   9  18  27  42  67  88 125 166 214 278 322
#     4   9  17  32  50  68  97 132 172 217 265 325
#
# _framework density 21.006578000000001
#
# number of rings (size 3 to 8) (size 9 to 14) (size 15 to 20)
#    0.000    3.000    1.111    1.000    1.556    2.667 
#    0.000    5.000    0.000    0.667    0.000    0.000 
#    0.000    0.000    0.000    0.000    0.000    4.444 
#
# Total GULP energy -446256.764755 kJ/mol
# GULP energy per Si atom -12396.021243 kJ/mol
# Density = 2.095877 g / cm^3
# Si number density = 21.006578 Si / 1000 Ang^3
#
#
#
# Elastic Constant Matrix: (Units=GPa)
#
#
# Indices 1 2 3 4 5 6 
#
# 1 62.9978 20.5285 45.3300 0.0000 0.0000 0.0000
# 2 20.5285 113.9376 88.8248 0.0000 0.0000 0.0000
# 3 45.3300 88.8248 200.6264 0.0000 0.0000 0.0000
# 4 0.0000 0.0000 0.0000 12.5967 0.0000 0.0000
# 5 0.0000 0.0000 0.0000 0.0000 -0.4298 0.0000
# 6 0.0000 0.0000 0.0000 0.0000 0.0000 14.1549
#
#
#
# Elastic Compliance Matrix: (Units=1/GPa)
#
#
# Indices 1 2 3 4 5 6 
#
# 1 0.018956 -0.000117 -0.004231 0.000000 0.000000 0.000000
# 2 -0.000117 0.013403 -0.005908 0.000000 0.000000 0.000000
# 3 -0.004231 -0.005908 0.008556 0.000000 0.000000 0.000000
# 4 0.000000 0.000000 0.000000 0.079386 0.000000 0.000000
# 5 0.000000 0.000000 0.000000 0.000000 -2.326852 0.000000
# 6 0.000000 0.000000 0.000000 0.000000 0.000000 0.070647
#
#
# Mechanical properties :
#
#
# Convention : Reuss Voigt Hill
#
# Bulk Modulus (GPa) = 49.00997 76.32538 62.66767
# Shear Modulus (GPa) = -2.37125 20.12294 8.87584
#
# Velocity S-wave (km/s) = -1.06361 3.09841 2.05778
# Velocity P-wave (km/s) = 4.67687 7.01521 5.96180
#
# Compressibility (1/GPa) = 0.02040401
#
# Stress axis : x y z
#
# Youngs Moduli (GPa) = 52.75302 74.60759 116.87618
#
# Poissons Ratio (x) = 0.00870 0.49455
# Poissons Ratio (y) = 0.00615 0.69049
# Poissons Ratio (z) = 0.22322 0.44077
#
# Static dielectric constant tensor:
#      x y z
#    x 3.706140 0.000000 0.000000 
#    y 0.000000 3.883020 0.000000 
#    z 0.000000 0.000000 4.006160 
# 
# 
# High freq. dielectric constant tensor:
#      x y z
#    x 1.783450 0.000000 0.000000 
#    y 0.000000 1.818350 0.000000 
#    z 0.000000 0.000000 1.815760 
# 
# From -- ./inp_files/70390.got.cif
#   From: 2010.03.12/outbox.cif.g09.slc.cpg/sg65_36_cif.got.tgz:70390.got - 2010.04.10 20:52:16.
