data_PCOD8271904
_publ_section_title
;
Structure prediction by ZEFSAII (Michael W. Deem and Ramdas Pophale) SiO2 
 PCOD8271904
Probable space group: C M M M
;
_chemical_formula_sum "Si O2"
_cell_formula_units_Z 88
_cell_length_a 8.829498
_cell_length_b 18.223208
_cell_length_c 28.198920
_cell_angle_alpha 90.000000
_cell_angle_beta 90.000000
_cell_angle_gamma 90.000000
_cell_volume 4537.256382
_symmetry_space_group_name_H-M "C M M M"
_symmetry_group_IT_number 65
_symmetry_cell_setting 'orthorhombic'
loop_
_space_group_symop_operation_xyz
x,y,z
-x,-y,z
x,-y,-z
-x,y,-z
-x,-y,-z
x,y,-z
-x,y,z
x,-y,z
1/2+x,1/2+y,z
1/2-x,1/2-y,z
1/2+x,1/2-y,-z
1/2-x,1/2+y,-z
1/2-x,1/2-y,-z
1/2+x,1/2+y,-z
1/2-x,1/2+y,z
1/2+x,1/2-y,z
loop_
_atom_site_type_symbol
_atom_site_label
_atom_site_fract_x
_atom_site_fract_y
_atom_site_fract_z
Si Si1 0.179384 0.170236 0.682014
Si Si2 0.319943 0.417716 0.773328
Si Si3 0.178257 0.828770 0.863853
Si Si4 0.324908 0.915927 0.054485
Si Si5 0.829102 0.912838 0.500000
Si Si6 0.825513 0.413185 0.403916
O O1 0.250000 0.250000 0.680430
O O2 0.240385 0.128673 0.728723
O O3 0.228594 0.124081 0.636792
O O4 0.000000 0.177319 0.682495
O O5 0.500000 0.420601 0.772745
O O6 0.252849 0.500000 0.770569
O O7 0.260906 0.380496 0.821613
O O8 0.250000 0.750000 0.857078
O O9 0.222582 0.863229 0.914060
O O10 0.000000 0.819819 0.861622
O O11 0.500000 0.902706 0.066844
O O12 0.279904 0.000000 0.064489
O O13 0.292632 0.895953 0.000000
O O14 0.739851 0.884477 0.546119
O O15 0.000000 0.881285 0.500000
O O16 0.832647 0.000000 0.500000
O O17 0.806352 0.500000 0.399029
O O18 0.000000 0.389298 0.400162
#
# Coordination Sequence:
#
# PCOD8271904 Si02
#       6
#    16  16  16  16   8  16
#     4  11  22  37  57  80 111 148 184 224 273 328
#     4   9  19  36  58  83 109 140 181 228 275 325
#     4  11  22  36  56  82 114 149 185 227 275 328
#     4   9  19  37  59  82 110 144 183 229 279 330
#     4   9  17  31  54  83 112 145 186 227 271 325
#     4  10  20  35  56  83 114 146 184 230 276 323
#
# _framework density 19.394981000000001
#
# number of rings (size 3 to 8) (size 9 to 14) (size 15 to 20)
#    0.000    2.091    0.000    4.091    0.000    4.727 
#    0.000    4.091    0.000    6.545    0.000    0.000 
#    0.000    0.000    0.000    0.000    0.000    0.000 
#
# Total GULP energy -545739.646964 kJ/mol
# GULP energy per Si atom -12403.173795 kJ/mol
# Density = 1.935084 g / cm^3
# Si number density = 19.394981 Si / 1000 Ang^3
#
#
#
# Elastic Constant Matrix: (Units=GPa)
#
#
# Indices 1 2 3 4 5 6 
#
# 1 76.7231 36.0162 39.9818 0.0000 0.0000 0.0000
# 2 36.0162 74.0494 46.4135 0.0000 0.0000 0.0000
# 3 39.9818 46.4135 134.3567 0.0000 0.0000 0.0000
# 4 0.0000 0.0000 0.0000 4.9873 0.0000 0.0000
# 5 0.0000 0.0000 0.0000 0.0000 24.7922 0.0000
# 6 0.0000 0.0000 0.0000 0.0000 0.0000 -23.7164
#
#
#
# Elastic Compliance Matrix: (Units=1/GPa)
#
#
# Indices 1 2 3 4 5 6 
#
# 1 0.017753 -0.006795 -0.002936 0.000000 0.000000 0.000000
# 2 -0.006795 0.019837 -0.004831 0.000000 0.000000 0.000000
# 3 -0.002936 -0.004831 0.009985 0.000000 0.000000 0.000000
# 4 0.000000 0.000000 0.000000 0.200511 0.000000 0.000000
# 5 0.000000 0.000000 0.000000 0.000000 0.040335 0.000000
# 6 0.000000 0.000000 0.000000 0.000000 0.000000 -0.042165
#
#
# Mechanical properties :
#
#
# Convention : Reuss Voigt Hill
#
# Bulk Modulus (GPa) = 54.19103 58.88359 56.53731
# Shear Modulus (GPa) = 17.76002 12.06047 14.91024
#
# Velocity S-wave (km/s) = 3.02934 2.49637 2.77567
# Velocity P-wave (km/s) = 6.34329 6.22377 6.28381
#
# Compressibility (1/GPa) = 0.01845324
#
# Stress axis : x y z
#
# Youngs Moduli (GPa) = 56.32698 50.41024 100.14714
#
# Poissons Ratio (x) = 0.34253 0.29401
# Poissons Ratio (y) = 0.38273 0.48379
# Poissons Ratio (z) = 0.16537 0.24352
#
# Static dielectric constant tensor:
#      x y z
#    x 3.429160 0.000000 0.000000 
#    y 0.000000 3.505560 0.000000 
#    z 0.000000 0.000000 3.724310 
# 
# 
# High freq. dielectric constant tensor:
#      x y z
#    x 1.746090 0.000000 0.000000 
#    y 0.000000 1.750390 0.000000 
#    z 0.000000 0.000000 1.771800 
# 
# From -- ./inp_files/67578.got.cif
#   From: 2010.03.12/outbox.cif.g09.slc.cpg/sg65_34_cif.got.tgz:67578.got - 2010.04.10 20:52:16.
