data_PCOD8271013
_publ_section_title
;
Structure prediction by ZEFSAII (Michael W. Deem and Ramdas Pophale) SiO2 
 PCOD8271013
Probable space group: C M M M
;
_chemical_formula_sum "Si O2"
_cell_formula_units_Z 88
_cell_length_a 9.081502
_cell_length_b 19.313001
_cell_length_c 28.159000
_cell_angle_alpha 90.000000
_cell_angle_beta 90.000000
_cell_angle_gamma 90.000000
_cell_volume 4938.836780
_symmetry_space_group_name_H-M "C M M M"
_symmetry_group_IT_number 65
_symmetry_cell_setting 'orthorhombic'
loop_
_space_group_symop_operation_xyz
x,y,z
-x,-y,z
x,-y,-z
-x,y,-z
-x,-y,-z
x,y,-z
-x,y,z
x,-y,z
1/2+x,1/2+y,z
1/2-x,1/2-y,z
1/2+x,1/2-y,-z
1/2-x,1/2+y,-z
1/2-x,1/2-y,-z
1/2+x,1/2+y,-z
1/2-x,1/2+y,z
1/2+x,1/2-y,z
loop_
_atom_site_type_symbol
_atom_site_label
_atom_site_fract_x
_atom_site_fract_y
_atom_site_fract_z
Si Si1 0.325233 0.923129 0.447783
Si Si2 0.326835 0.821911 0.260785
Si Si3 0.672494 0.676234 0.102784
Si Si4 0.672160 0.819796 0.630370
Si Si5 0.669955 0.321325 0.000000
Si Si6 0.173429 0.919635 0.188620
O O1 0.279257 0.894205 0.500000
O O2 0.500000 0.925718 0.444034
O O3 0.261048 0.877121 0.405091
O O4 0.260335 0.000000 0.441253
O O5 0.500000 0.814465 0.250911
O O6 0.250000 0.750000 0.245302
O O7 0.292070 0.839717 0.315449
O O8 0.260866 0.886087 0.232111
O O9 0.500000 0.690569 0.107939
O O10 0.750000 0.750000 0.111468
O O11 0.710418 0.642353 0.050454
O O12 0.724890 0.619644 0.140834
O O13 0.500000 0.809595 0.622756
O O14 0.750000 0.750000 0.615303
O O15 0.750000 0.250000 0.000000
O O16 0.500000 0.303817 0.000000
O O17 0.000000 0.911244 0.197507
O O18 0.217871 0.000000 0.184119
#
# Coordination Sequence:
#
# PCOD8271013 Si02
#       6
#    16  16  16  16   8  16
#     4   8  14  26  45  68  93 122 156 191 226 267
#     4  10  20  34  52  72  95 125 161 200 241 286
#     4   9  17  30  49  71  94 122 156 194 235 278
#     4   9  18  31  48  71  96 120 150 191 235 278
#     4   8  14  26  45  69  93 117 151 192 231 274
#     4  10  21  35  49  69  99 130 160 197 240 284
#
# _framework density 17.817962000000001
#
# number of rings (size 3 to 8) (size 9 to 14) (size 15 to 20)
#    0.000    2.909    0.000    1.636    0.000    4.364 
#    0.000    2.273    0.000    3.273    0.000    1.273 
#    0.000    8.727    0.000    0.000    0.000    0.000 
#
# Total GULP energy -545246.801629 kJ/mol
# GULP energy per Si atom -12391.972764 kJ/mol
# Density = 1.777741 g / cm^3
# Si number density = 17.817962 Si / 1000 Ang^3
#
#
#
# Elastic Constant Matrix: (Units=GPa)
#
#
# Indices 1 2 3 4 5 6 
#
# 1 32.3527 36.9019 36.4941 0.0000 0.0000 0.0000
# 2 36.9019 130.5224 94.3390 0.0000 0.0000 0.0000
# 3 36.4941 94.3390 144.7515 0.0000 0.0000 0.0000
# 4 0.0000 0.0000 0.0000 21.2790 0.0000 0.0000
# 5 0.0000 0.0000 0.0000 0.0000 17.7674 0.0000
# 6 0.0000 0.0000 0.0000 0.0000 0.0000 23.7804
#
#
#
# Elastic Compliance Matrix: (Units=1/GPa)
#
#
# Indices 1 2 3 4 5 6 
#
# 1 0.048404 -0.009197 -0.006209 0.000000 0.000000 0.000000
# 2 -0.009197 0.016232 -0.008260 0.000000 0.000000 0.000000
# 3 -0.006209 -0.008260 0.013857 0.000000 0.000000 0.000000
# 4 0.000000 0.000000 0.000000 0.046995 0.000000 0.000000
# 5 0.000000 0.000000 0.000000 0.000000 0.056283 0.000000
# 6 0.000000 0.000000 0.000000 0.000000 0.000000 0.042051
#
#
# Mechanical properties :
#
#
# Convention : Reuss Voigt Hill
#
# Bulk Modulus (GPa) = 32.09245 71.45519 51.77382
# Shear Modulus (GPa) = 17.75935 21.89147 19.82541
#
# Velocity S-wave (km/s) = 3.16050 3.50897 3.33928
# Velocity P-wave (km/s) = 5.60078 7.52377 6.63234
#
# Compressibility (1/GPa) = 0.03115998
#
# Stress axis : x y z
#
# Youngs Moduli (GPa) = 20.65957 61.60645 72.16382
#
# Poissons Ratio (x) = 0.56659 0.44810
# Poissons Ratio (y) = 0.19000 0.59609
# Poissons Ratio (z) = 0.12828 0.50889
#
# Static dielectric constant tensor:
#      x y z
#    x 3.070700 0.000000 0.000000 
#    y 0.000000 3.271350 0.000000 
#    z 0.000000 0.000000 3.946310 
# 
# 
# High freq. dielectric constant tensor:
#      x y z
#    x 1.667630 0.000000 0.000000 
#    y 0.000000 1.669930 0.000000 
#    z 0.000000 0.000000 1.710390 
# 
# From -- ./inp_files/76572.got.cif
#   From: 2010.03.12/outbox.cif.g09.slc.cpg/sg65_39_cif.got.tgz:76572.got - 2010.04.10 20:52:16.
