data_PCOD8271487
_publ_section_title
;
Structure prediction by ZEFSAII (Michael W. Deem and Ramdas Pophale) SiO2 
 PCOD8271487
Probable space group: C M M M
;
_chemical_formula_sum "Si O2"
_cell_formula_units_Z 64
_cell_length_a 8.619397
_cell_length_b 14.824087
_cell_length_c 26.134029
_cell_angle_alpha 90.000000
_cell_angle_beta 90.000000
_cell_angle_gamma 90.000000
_cell_volume 3339.267480
_symmetry_space_group_name_H-M "C M M M"
_symmetry_group_IT_number 65
_symmetry_cell_setting 'orthorhombic'
loop_
_space_group_symop_operation_xyz
x,y,z
-x,-y,z
x,-y,-z
-x,y,-z
-x,-y,-z
x,y,-z
-x,y,z
x,-y,z
1/2+x,1/2+y,z
1/2-x,1/2-y,z
1/2+x,1/2-y,-z
1/2-x,1/2+y,-z
1/2-x,1/2-y,-z
1/2+x,1/2+y,-z
1/2-x,1/2+y,z
1/2+x,1/2-y,z
loop_
_atom_site_type_symbol
_atom_site_label
_atom_site_fract_x
_atom_site_fract_y
_atom_site_fract_z
Si Si1 0.317889 0.000000 0.292718
Si Si2 0.183639 0.000000 0.443145
Si Si3 0.816816 0.000000 0.182078
Si Si4 0.315958 0.351352 0.363842
Si Si5 0.684838 0.398719 0.000000
Si Si6 0.182884 0.159185 0.108895
O O1 0.283054 0.000000 0.233042
O O2 0.245398 0.907843 0.315403
O O3 0.500000 0.000000 0.303426
O O4 0.237229 0.908770 0.413876
O O5 0.257607 0.000000 0.500000
O O6 0.000000 0.000000 0.446435
O O7 0.763349 0.084005 0.148318
O O8 0.000000 0.000000 0.194671
O O9 0.500000 0.344814 0.359827
O O10 0.250000 0.250000 0.365933
O O11 0.752212 0.353434 0.051557
O O12 0.745598 0.500000 0.000000
O O13 0.500000 0.396179 0.000000
O O14 0.250000 0.250000 0.132524
O O15 0.000000 0.160531 0.105234
#
# Coordination Sequence:
#
# PCOD8271487 Si02
#       6
#     8   8   8  16   8  16
#     4  11  23  39  59  81 108 143 186 238 287 333
#     4   8  16  32  54  83 120 157 190 227 272 322
#     4  10  21  38  56  76 105 142 179 218 272 333
#     4  10  20  36  59  85 115 151 191 233 277 329
#     4   9  15  30  55  78 101 136 177 207 250 318
#     4  10  20  34  55  79 105 137 173 215 261 320
#
# _framework density 19.165880000000001
#
# number of rings (size 3 to 8) (size 9 to 14) (size 15 to 20)
#    0.000    2.250    1.250    3.000    0.000    2.500 
#    0.000    2.500    0.000   13.500    0.000    0.000 
#    0.000    0.000    0.000    0.000    0.000    0.000 
#
# Total GULP energy -396666.106020 kJ/mol
# GULP energy per Si atom -12395.815813 kJ/mol
# Density = 1.912226 g / cm^3
# Si number density = 19.165880 Si / 1000 Ang^3
#
#
#
# Elastic Constant Matrix: (Units=GPa)
#
#
# Indices 1 2 3 4 5 6 
#
# 1 55.3001 41.7053 37.7542 0.0000 0.0000 0.0000
# 2 41.7053 195.7050 81.4452 0.0000 0.0000 0.0000
# 3 37.7542 81.4452 156.1150 0.0000 0.0000 0.0000
# 4 0.0000 0.0000 0.0000 36.8814 0.0000 0.0000
# 5 0.0000 0.0000 0.0000 0.0000 17.1740 0.0000
# 6 0.0000 0.0000 0.0000 0.0000 0.0000 31.4406
#
#
#
# Elastic Compliance Matrix: (Units=1/GPa)
#
#
# Indices 1 2 3 4 5 6 
#
# 1 0.023251 -0.003340 -0.003881 0.000000 0.000000 0.000000
# 2 -0.003340 0.007007 -0.002848 0.000000 0.000000 0.000000
# 3 -0.003881 -0.002848 0.008830 0.000000 0.000000 0.000000
# 4 0.000000 0.000000 0.000000 0.027114 0.000000 0.000000
# 5 0.000000 0.000000 0.000000 0.000000 0.058228 0.000000
# 6 0.000000 0.000000 0.000000 0.000000 0.000000 0.031806
#
#
# Mechanical properties :
#
#
# Convention : Reuss Voigt Hill
#
# Bulk Modulus (GPa) = 52.76697 80.99214 66.87955
# Shear Modulus (GPa) = 27.36903 33.51357 30.44130
#
# Velocity S-wave (km/s) = 3.78300 4.18617 3.98968
# Velocity P-wave (km/s) = 6.83176 8.10652 7.49628
#
# Compressibility (1/GPa) = 0.01895125
#
# Stress axis : x y z
#
# Youngs Moduli (GPa) = 43.00826 142.72351 113.25578
#
# Poissons Ratio (x) = 0.47670 0.43949
# Poissons Ratio (y) = 0.14365 0.32251
# Poissons Ratio (z) = 0.16689 0.40642
#
# Static dielectric constant tensor:
#      x y z
#    x 3.181410 0.000000 0.000000 
#    y 0.000000 3.597510 0.000000 
#    z 0.000000 0.000000 3.722950 
# 
# 
# High freq. dielectric constant tensor:
#      x y z
#    x 1.720450 0.000000 0.000000 
#    y 0.000000 1.757090 0.000000 
#    z 0.000000 0.000000 1.748580 
# 
# From -- ./inp_files/66860.got.cif
#   From: 2010.03.12/outbox.cif.g09.slc.cpg/sg65_34_cif.got.tgz:66860.got - 2010.04.10 20:52:16.
