data_PCOD8271822
_publ_section_title
;
Structure prediction by ZEFSAII (Michael W. Deem and Ramdas Pophale) SiO2 
 PCOD8271822
Probable space group: C M M M
;
_chemical_formula_sum "Si O2"
_cell_formula_units_Z 104
_cell_length_a 29.395532
_cell_length_b 8.751500
_cell_length_c 22.970975
_cell_angle_alpha 90.000000
_cell_angle_beta 90.000000
_cell_angle_gamma 90.000000
_cell_volume 5909.398135
_symmetry_space_group_name_H-M "C M M M"
_symmetry_group_IT_number 65
_symmetry_cell_setting 'orthorhombic'
loop_
_space_group_symop_operation_xyz
x,y,z
-x,-y,z
x,-y,-z
-x,y,-z
-x,-y,-z
x,y,-z
-x,y,z
x,-y,z
1/2+x,1/2+y,z
1/2-x,1/2-y,z
1/2+x,1/2-y,-z
1/2-x,1/2+y,-z
1/2-x,1/2-y,-z
1/2+x,1/2+y,-z
1/2-x,1/2+y,z
1/2+x,1/2-y,z
loop_
_atom_site_type_symbol
_atom_site_label
_atom_site_fract_x
_atom_site_fract_y
_atom_site_fract_z
Si Si1 0.390882 0.819927 0.104684
Si Si2 0.297993 0.679190 0.067928
Si Si3 0.206258 0.331214 0.431262
Si Si4 0.052848 0.180880 0.000000
Si Si5 0.553198 0.321694 0.795016
Si Si6 0.386190 0.319218 0.564857
Si Si7 0.450116 0.680931 0.664297
O O1 0.339697 0.754111 0.102937
O O2 0.413943 0.781444 0.166102
O O3 0.388501 0.000000 0.095020
O O4 0.422917 0.745864 0.056465
O O5 0.297034 0.500000 0.080758
O O6 0.250000 0.750000 0.089022
O O7 0.305730 0.714712 0.000000
O O8 0.212485 0.343667 0.500000
O O9 0.200622 0.500000 0.404265
O O10 0.250000 0.250000 0.402975
O O11 0.163644 0.227926 0.414864
O O12 0.000000 0.229622 0.000000
O O13 0.058364 0.000000 0.000000
O O14 0.500000 0.282895 0.805894
O O15 0.561619 0.500000 0.808567
O O16 0.567550 0.279920 0.728933
O O17 0.397729 0.254843 0.500000
O O18 0.389232 0.500000 0.563932
O O19 0.419556 0.247175 0.613074
O O20 0.500000 0.751590 0.655690
O O21 0.452138 0.500000 0.657530
#
# Coordination Sequence:
#
# PCOD8271822 Si02
#       7
#    16  16  16   8  16  16  16
#     4  12  23  34  52  78 107 135 168 210 257 301
#     4  10  20  35  56  79 107 139 173 209 249 299
#     4   9  16  26  41  62  90 123 157 192 234 288
#     4  11  23  37  52  73 104 139 171 205 251 303
#     4   9  18  34  54  72  95 133 177 214 251 302
#     4   9  16  26  44  72 102 128 158 201 252 301
#     4   8  15  29  49  72  97 129 170 210 247 293
#
# _framework density 17.599086
#
# number of rings (size 3 to 8) (size 9 to 14) (size 15 to 20)
#    0.000    2.385    0.769    3.923    0.000    5.538 
#    0.000    2.308    0.000    2.308    0.000    6.462 
#    0.000    0.000    0.000    0.000    0.000    0.000 
#
# Total GULP energy -644638.257147 kJ/mol
# GULP energy per Si atom -12396.889561 kJ/mol
# Density = 1.755903 g / cm^3
# Si number density = 17.599086 Si / 1000 Ang^3
#
#
#
# Elastic Constant Matrix: (Units=GPa)
#
#
# Indices 1 2 3 4 5 6 
#
# 1 135.8583 41.2759 70.4261 0.0000 0.0000 0.0000
# 2 41.2759 58.2993 27.7405 0.0000 0.0000 0.0000
# 3 70.4261 27.7405 95.5940 0.0000 0.0000 0.0000
# 4 0.0000 0.0000 0.0000 10.0886 0.0000 0.0000
# 5 0.0000 0.0000 0.0000 0.0000 6.9536 0.0000
# 6 0.0000 0.0000 0.0000 0.0000 0.0000 26.0517
#
#
#
# Elastic Compliance Matrix: (Units=1/GPa)
#
#
# Indices 1 2 3 4 5 6 
#
# 1 0.013275 -0.005505 -0.008182 0.000000 0.000000 0.000000
# 2 -0.005505 0.022184 -0.002382 0.000000 0.000000 0.000000
# 3 -0.008182 -0.002382 0.017180 0.000000 0.000000 0.000000
# 4 0.000000 0.000000 0.000000 0.099121 0.000000 0.000000
# 5 0.000000 0.000000 0.000000 0.000000 0.143810 0.000000
# 6 0.000000 0.000000 0.000000 0.000000 0.000000 0.038385
#
#
# Mechanical properties :
#
#
# Convention : Reuss Voigt Hill
#
# Bulk Modulus (GPa) = 48.77967 63.18184 55.98076
# Shear Modulus (GPa) = 13.40748 18.63941 16.02344
#
# Velocity S-wave (km/s) = 2.76312 3.25793 3.02067
# Velocity P-wave (km/s) = 6.16093 7.08031 6.63656
#
# Compressibility (1/GPa) = 0.02050034
#
# Stress axis : x y z
#
# Youngs Moduli (GPa) = 75.33176 45.07791 58.20702
#
# Poissons Ratio (x) = 0.24816 0.47626
# Poissons Ratio (y) = 0.41471 0.13864
# Poissons Ratio (z) = 0.61638 0.10737
#
# Static dielectric constant tensor:
#      x y z
#    x 3.480790 0.000000 0.000000 
#    y 0.000000 3.156780 0.000000 
#    z 0.000000 0.000000 3.261230 
# 
# 
# High freq. dielectric constant tensor:
#      x y z
#    x 1.687040 0.000000 0.000000 
#    y 0.000000 1.670480 0.000000 
#    z 0.000000 0.000000 1.654000 
# 
# From -- ./inp_files/72152.got.cif
#   From: 2010.03.12/outbox.cif.g09.slc.cpg/sg65_37_cif.got.tgz:72152.got - 2010.04.10 20:52:16.
