data_PCOD8271459
_publ_section_title
;
Structure prediction by ZEFSAII (Michael W. Deem and Ramdas Pophale) SiO2 
 PCOD8271459
Probable space group: C M M M
;
_chemical_formula_sum "Si O2"
_cell_formula_units_Z 88
_cell_length_a 18.393202
_cell_length_b 14.168168
_cell_length_c 16.075167
_cell_angle_alpha 90.000000
_cell_angle_beta 90.000000
_cell_angle_gamma 90.000000
_cell_volume 4189.155984
_symmetry_space_group_name_H-M "C M M M"
_symmetry_group_IT_number 65
_symmetry_cell_setting 'orthorhombic'
loop_
_space_group_symop_operation_xyz
x,y,z
-x,-y,z
x,-y,-z
-x,y,-z
-x,-y,-z
x,y,-z
-x,y,z
x,-y,z
1/2+x,1/2+y,z
1/2-x,1/2-y,z
1/2+x,1/2-y,-z
1/2-x,1/2+y,-z
1/2-x,1/2-y,-z
1/2+x,1/2+y,-z
1/2-x,1/2+y,z
1/2+x,1/2-y,z
loop_
_atom_site_type_symbol
_atom_site_label
_atom_site_fract_x
_atom_site_fract_y
_atom_site_fract_z
Si Si1 0.711507 0.894984 0.843445
Si Si2 0.704642 0.102573 0.500000
Si Si3 0.920748 0.244704 0.500000
Si Si4 0.733248 0.642387 0.323172
Si Si5 0.500000 0.607282 0.099256
Si Si6 0.855164 0.210552 0.901681
Si Si7 0.421428 0.605966 0.652117
O O1 0.715043 0.909343 0.743142
O O2 0.787816 0.855072 0.876666
O O3 0.649921 0.817906 0.866126
O O4 0.695027 0.000000 0.881122
O O5 0.641814 0.178513 0.500000
O O6 0.754982 0.110529 0.581743
O O7 0.667625 0.000000 0.500000
O O8 0.912167 0.180175 0.579256
O O9 0.000000 0.294601 0.500000
O O10 0.750000 0.750000 0.312306
O O11 0.650199 0.621811 0.292117
O O12 0.500000 0.500000 0.135168
O O13 0.571181 0.662311 0.132248
O O14 0.500000 0.603309 0.000000
O O15 0.856700 0.219348 0.000000
O O16 0.500000 0.623028 0.698413
O O17 0.420676 0.500000 0.615813
#
# Coordination Sequence:
#
# PCOD8271459 Si02
#       7
#    16   8   8  16   8  16  16
#     4  11  22  38  60  88 125 162 202 253 302 360
#     4  12  24  38  61  83 110 158 209 255 306 362
#     4  10  20  34  54  82 110 143 188 243 304 357
#     4  12  22  41  60  86 118 157 202 255 303 360
#     4   9  18  36  63  95 129 162 200 247 298 359
#     4  10  21  38  62  94 126 160 202 246 298 363
#     4  10  20  35  56  83 114 144 181 236 302 364
#
# _framework density 21.006618
#
# number of rings (size 3 to 8) (size 9 to 14) (size 15 to 20)
#    0.000    1.364    3.636    4.364    0.000    3.455 
#    1.636    0.455    2.000    1.636    0.000    0.000 
#    0.000    0.000    0.000    0.000    0.000    0.000 
#
# Total GULP energy -545207.427876 kJ/mol
# GULP energy per Si atom -12391.077906 kJ/mol
# Density = 2.095881 g / cm^3
# Si number density = 21.006618 Si / 1000 Ang^3
#
#
#
# Elastic Constant Matrix: (Units=GPa)
#
#
# Indices 1 2 3 4 5 6 
#
# 1 140.6751 77.1708 22.3319 0.0000 0.0000 0.0000
# 2 77.1708 187.6109 10.1300 0.0000 0.0000 0.0000
# 3 22.3319 10.1300 62.6858 0.0000 0.0000 0.0000
# 4 0.0000 0.0000 0.0000 46.5943 0.0000 0.0000
# 5 0.0000 0.0000 0.0000 0.0000 26.6295 0.0000
# 6 0.0000 0.0000 0.0000 0.0000 0.0000 23.2510
#
#
#
# Elastic Compliance Matrix: (Units=1/GPa)
#
#
# Indices 1 2 3 4 5 6 
#
# 1 0.009650 -0.003817 -0.002821 0.000000 0.000000 0.000000
# 2 -0.003817 0.006887 0.000247 0.000000 0.000000 0.000000
# 3 -0.002821 0.000247 0.016918 0.000000 0.000000 0.000000
# 4 0.000000 0.000000 0.000000 0.021462 0.000000 0.000000
# 5 0.000000 0.000000 0.000000 0.000000 0.037552 0.000000
# 6 0.000000 0.000000 0.000000 0.000000 0.000000 0.043009
#
#
# Mechanical properties :
#
#
# Convention : Reuss Voigt Hill
#
# Bulk Modulus (GPa) = 48.37376 67.80414 58.08895
# Shear Modulus (GPa) = 32.22650 38.05092 35.13871
#
# Velocity S-wave (km/s) = 3.92102 4.26065 4.09436
# Velocity P-wave (km/s) = 6.60129 7.52009 7.07562
#
# Compressibility (1/GPa) = 0.02067236
#
# Stress axis : x y z
#
# Youngs Moduli (GPa) = 103.62189 145.20088 59.10967
#
# Poissons Ratio (x) = 0.55427 0.16676
# Poissons Ratio (y) = 0.39555 -0.01460
# Poissons Ratio (z) = 0.29233 -0.03586
#
# Static dielectric constant tensor:
#      x y z
#    x 3.699370 0.000000 0.000000 
#    y 0.000000 4.006550 0.000000 
#    z 0.000000 0.000000 4.172470 
# 
# 
# High freq. dielectric constant tensor:
#      x y z
#    x 1.812730 0.000000 0.000000 
#    y 0.000000 1.831060 0.000000 
#    z 0.000000 0.000000 1.821410 
# 
# From -- ./inp_files/54380.got.cif
#   From: 2010.03.12/outbox.cif.g09.slc.cpg/sg65_28_cif.got.tgz:54380.got - 2010.04.10 20:52:16.
