data_PCOD8271937
_publ_section_title
;
Structure prediction by ZEFSAII (Michael W. Deem and Ramdas Pophale) SiO2 
 PCOD8271937
Probable space group: C M M M
;
_chemical_formula_sum "Si O2"
_cell_formula_units_Z 112
_cell_length_a 13.407170
_cell_length_b 15.891022
_cell_length_c 26.394730
_cell_angle_alpha 90.000000
_cell_angle_beta 90.000000
_cell_angle_gamma 90.000000
_cell_volume 5623.493130
_symmetry_space_group_name_H-M "C M M M"
_symmetry_group_IT_number 65
_symmetry_cell_setting 'orthorhombic'
loop_
_space_group_symop_operation_xyz
x,y,z
-x,-y,z
x,-y,-z
-x,y,-z
-x,-y,-z
x,y,-z
-x,y,z
x,-y,z
1/2+x,1/2+y,z
1/2-x,1/2-y,z
1/2+x,1/2-y,-z
1/2-x,1/2+y,-z
1/2-x,1/2-y,-z
1/2+x,1/2+y,-z
1/2-x,1/2+y,z
1/2+x,1/2-y,z
loop_
_atom_site_type_symbol
_atom_site_label
_atom_site_fract_x
_atom_site_fract_y
_atom_site_fract_z
Si Si1 0.609500 0.403939 0.351042
Si Si2 0.880676 0.000000 0.939369
Si Si3 0.720581 0.654477 0.555491
Si Si4 0.282052 0.157456 0.712951
Si Si5 0.766411 0.650844 0.092313
Si Si6 0.889117 0.595177 0.620152
Si Si7 0.387307 0.902458 0.187680
Si Si8 0.383180 0.907609 0.000000
O O1 0.500000 0.376440 0.332827
O O2 0.613785 0.500000 0.367959
O O3 0.636019 0.352342 0.401685
O O4 0.681914 0.391109 0.303281
O O5 0.827761 0.913876 0.917185
O O6 0.000000 0.000000 0.924747
O O7 0.869862 0.000000 0.000000
O O8 0.684351 0.622099 0.500000
O O9 0.750000 0.750000 0.551154
O O10 0.817850 0.601379 0.571678
O O11 0.250000 0.250000 0.730142
O O12 0.354859 0.159503 0.664231
O O13 0.338848 0.110939 0.757698
O O14 0.750000 0.750000 0.087806
O O15 0.813638 0.638036 0.147197
O O16 0.850244 0.637883 0.050544
O O17 0.884045 0.500000 0.641797
O O18 0.000000 0.619442 0.602918
O O19 0.500000 0.863853 0.185933
O O20 0.394578 0.000000 0.175468
O O21 0.500000 0.912287 0.000000
O O22 0.334349 0.000000 0.000000
#
# Coordination Sequence:
#
# PCOD8271937 Si02
#       8
#    16   8  16  16  16  16  16   8
#     4  10  21  37  57  79 106 147 189 228 276 337
#     4  11  24  44  66  94 136 184 222 264 325 388
#     4  10  21  35  52  77 109 143 181 229 285 340
#     4  11  22  37  58  87 115 148 186 238 293 357
#     4  12  23  42  65  96 131 172 219 269 318 384
#     4  10  20  35  57  82 108 142 187 233 289 354
#     4  11  23  41  66  90 120 157 200 256 316 366
#     4  11  21  38  66  97 130 168 214 270 326 372
#
# _framework density 19.916446000000001
#
# number of rings (size 3 to 8) (size 9 to 14) (size 15 to 20)
#    0.000    1.286    2.143    5.786    0.000    8.000 
#    0.000    3.571    0.000    0.000    0.000    0.000 
#    0.000    0.000    0.000    0.000    0.000    0.000 
#
# Total GULP energy -694100.221404 kJ/mol
# GULP energy per Si atom -12394.646811 kJ/mol
# Density = 1.987112 g / cm^3
# Si number density = 19.916446 Si / 1000 Ang^3
#
#
#
# Elastic Constant Matrix: (Units=GPa)
#
#
# Indices 1 2 3 4 5 6 
#
# 1 140.3032 35.5571 42.2898 0.0000 0.0000 0.0000
# 2 35.5571 98.8631 23.4564 0.0000 0.0000 0.0000
# 3 42.2898 23.4564 106.4395 0.0000 0.0000 0.0000
# 4 0.0000 0.0000 0.0000 35.9253 0.0000 0.0000
# 5 0.0000 0.0000 0.0000 0.0000 20.2265 0.0000
# 6 0.0000 0.0000 0.0000 0.0000 0.0000 14.8726
#
#
#
# Elastic Compliance Matrix: (Units=1/GPa)
#
#
# Indices 1 2 3 4 5 6 
#
# 1 0.008609 -0.002411 -0.002889 0.000000 0.000000 0.000000
# 2 -0.002411 0.011348 -0.001543 0.000000 0.000000 0.000000
# 3 -0.002889 -0.001543 0.010883 0.000000 0.000000 0.000000
# 4 0.000000 0.000000 0.000000 0.027836 0.000000 0.000000
# 5 0.000000 0.000000 0.000000 0.000000 0.049440 0.000000
# 6 0.000000 0.000000 0.000000 0.000000 0.000000 0.067238
#
#
# Mechanical properties :
#
#
# Convention : Reuss Voigt Hill
#
# Bulk Modulus (GPa) = 58.29483 60.91250 59.60367
# Shear Modulus (GPa) = 25.67285 30.49171 28.08228
#
# Velocity S-wave (km/s) = 3.59420 3.91702 3.75908
# Velocity P-wave (km/s) = 6.82331 7.14897 6.98804
#
# Compressibility (1/GPa) = 0.01715418
#
# Stress axis : x y z
#
# Youngs Moduli (GPa) = 116.15348 88.11983 91.88660
#
# Poissons Ratio (x) = 0.21245 0.26549
# Poissons Ratio (y) = 0.28004 0.14178
# Poissons Ratio (z) = 0.33560 0.13596
#
# Static dielectric constant tensor:
#      x y z
#    x 3.917500 0.000000 0.000000 
#    y 0.000000 3.763910 0.000000 
#    z 0.000000 0.000000 3.625190 
# 
# 
# High freq. dielectric constant tensor:
#      x y z
#    x 1.783450 0.000000 0.000000 
#    y 0.000000 1.781190 0.000000 
#    z 0.000000 0.000000 1.772310 
# 
# From -- ./inp_files/74918.got.cif
#   From: 2010.03.12/outbox.cif.g09.slc.cpg/sg65_38_cif.got.tgz:74918.got - 2010.04.10 20:52:16.
