data_PCOD8271195
_publ_section_title
;
Structure prediction by ZEFSAII (Michael W. Deem and Ramdas Pophale) SiO2 
 PCOD8271195
Probable space group: C M M M
;
_chemical_formula_sum "Si O2"
_cell_formula_units_Z 88
_cell_length_a 19.007683
_cell_length_b 9.129458
_cell_length_c 28.339850
_cell_angle_alpha 90.000000
_cell_angle_beta 90.000000
_cell_angle_gamma 90.000000
_cell_volume 4917.809739
_symmetry_space_group_name_H-M "C M M M"
_symmetry_group_IT_number 65
_symmetry_cell_setting 'orthorhombic'
loop_
_space_group_symop_operation_xyz
x,y,z
-x,-y,z
x,-y,-z
-x,y,-z
-x,-y,-z
x,y,-z
-x,y,z
x,-y,z
1/2+x,1/2+y,z
1/2-x,1/2-y,z
1/2+x,1/2-y,-z
1/2-x,1/2+y,-z
1/2-x,1/2-y,-z
1/2+x,1/2+y,-z
1/2-x,1/2+y,z
1/2+x,1/2-y,z
loop_
_atom_site_type_symbol
_atom_site_label
_atom_site_fract_x
_atom_site_fract_y
_atom_site_fract_z
Si Si1 0.176719 0.329637 0.450220
Si Si2 0.077723 0.173949 0.000000
Si Si3 0.677757 0.327782 0.810913
Si Si4 0.679444 0.329252 0.080869
Si Si5 0.581599 0.171565 0.261252
Si Si6 0.675678 0.828243 0.348055
O O1 0.135074 0.291151 0.500000
O O2 0.193275 0.500000 0.449493
O O3 0.250000 0.250000 0.451923
O O4 0.141172 0.288015 0.399818
O O5 0.117120 0.228099 0.047249
O O6 0.000000 0.243904 0.000000
O O7 0.072784 0.000000 0.000000
O O8 0.685754 0.500000 0.801530
O O9 0.750000 0.250000 0.794993
O O10 0.660191 0.292187 0.865245
O O11 0.612985 0.263354 0.781827
O O12 0.692678 0.500000 0.073720
O O13 0.750000 0.250000 0.064719
O O14 0.500000 0.211067 0.266247
O O15 0.619647 0.223010 0.309275
O O16 0.593031 0.000000 0.251481
O O17 0.750000 0.750000 0.339473
O O18 0.690278 0.000000 0.343725
#
# Coordination Sequence:
#
# PCOD8271195 Si02
#       6
#    16   8  16  16  16  16
#     4   8  13  22  38  61  87 112 141 182 230 275
#     4   9  17  30  49  73 100 129 160 192 228 271
#     4  10  20  34  53  76  99 124 159 201 242 285
#     4   9  18  32  52  75  97 124 156 193 234 277
#     4  10  21  35  49  67  95 130 163 197 240 286
#     4   9  17  29  46  67  90 118 153 192 233 279
#
# _framework density 17.894144000000001
#
# number of rings (size 3 to 8) (size 9 to 14) (size 15 to 20)
#    0.000    2.818    0.000    1.364    0.000    4.000 
#    0.000    1.818    0.000    1.636    0.000    3.818 
#    0.000    0.000    0.000   31.091    0.000   15.636 
#
# Total GULP energy -545174.027275 kJ/mol
# GULP energy per Si atom -12390.318802 kJ/mol
# Density = 1.785342 g / cm^3
# Si number density = 17.894144 Si / 1000 Ang^3
#
#
#
# Elastic Constant Matrix: (Units=GPa)
#
#
# Indices 1 2 3 4 5 6 
#
# 1 125.8769 36.8350 86.8509 0.0000 0.0000 0.0000
# 2 36.8350 36.8951 38.6322 0.0000 0.0000 0.0000
# 3 86.8509 38.6322 147.5512 0.0000 0.0000 0.0000
# 4 0.0000 0.0000 0.0000 17.4589 0.0000 0.0000
# 5 0.0000 0.0000 0.0000 0.0000 10.0798 0.0000
# 6 0.0000 0.0000 0.0000 0.0000 0.0000 22.1643
#
#
#
# Elastic Compliance Matrix: (Units=1/GPa)
#
#
# Indices 1 2 3 4 5 6 
#
# 1 0.014851 -0.007817 -0.006695 0.000000 0.000000 0.000000
# 2 -0.007817 0.041455 -0.006253 0.000000 0.000000 0.000000
# 3 -0.006695 -0.006253 0.012355 0.000000 0.000000 0.000000
# 4 0.000000 0.000000 0.000000 0.057277 0.000000 0.000000
# 5 0.000000 0.000000 0.000000 0.000000 0.099208 0.000000
# 6 0.000000 0.000000 0.000000 0.000000 0.000000 0.045118
#
#
# Mechanical properties :
#
#
# Convention : Reuss Voigt Hill
#
# Bulk Modulus (GPa) = 36.85641 70.55105 53.70373
# Shear Modulus (GPa) = 15.58424 19.80762 17.69593
#
# Velocity S-wave (km/s) = 2.95432 3.33067 3.14813
# Velocity P-wave (km/s) = 5.68146 7.36910 6.57961
#
# Compressibility (1/GPa) = 0.02713232
#
# Stress axis : x y z
#
# Youngs Moduli (GPa) = 67.33613 24.12253 80.93779
#
# Poissons Ratio (x) = 0.18856 0.54187
# Poissons Ratio (y) = 0.52634 0.50610
# Poissons Ratio (z) = 0.45081 0.15084
#
# Static dielectric constant tensor:
#      x y z
#    x 3.107450 0.000000 0.000000 
#    y 0.000000 3.148910 0.000000 
#    z 0.000000 0.000000 3.986400 
# 
# 
# High freq. dielectric constant tensor:
#      x y z
#    x 1.656570 0.000000 0.000000 
#    y 0.000000 1.680530 0.000000 
#    z 0.000000 0.000000 1.721060 
# 
# From -- ./inp_files/76555.got.cif
#   From: 2010.03.12/outbox.cif.g09.slc.cpg/sg65_39_cif.got.tgz:76555.got - 2010.04.10 20:52:16.
