data_PCOD8271334
_publ_section_title
;
Structure prediction by ZEFSAII (Michael W. Deem and Ramdas Pophale) SiO2 
 PCOD8271334
Probable space group: C M M M
;
_chemical_formula_sum "Si O2"
_cell_formula_units_Z 56
_cell_length_a 14.283817
_cell_length_b 10.123234
_cell_length_c 20.612987
_cell_angle_alpha 90.000000
_cell_angle_beta 90.000000
_cell_angle_gamma 90.000000
_cell_volume 2980.605391
_symmetry_space_group_name_H-M "C M M M"
_symmetry_group_IT_number 65
_symmetry_cell_setting 'orthorhombic'
loop_
_space_group_symop_operation_xyz
x,y,z
-x,-y,z
x,-y,-z
-x,y,-z
-x,-y,-z
x,y,-z
-x,y,z
x,-y,z
1/2+x,1/2+y,z
1/2-x,1/2-y,z
1/2+x,1/2-y,-z
1/2-x,1/2+y,-z
1/2-x,1/2-y,-z
1/2+x,1/2+y,-z
1/2-x,1/2+y,z
1/2+x,1/2-y,z
loop_
_atom_site_type_symbol
_atom_site_label
_atom_site_fract_x
_atom_site_fract_y
_atom_site_fract_z
Si Si1 0.863240 0.000000 0.926649
Si Si2 0.360306 0.246912 0.847126
Si Si3 0.141944 0.500000 0.071268
Si Si4 0.841849 0.341930 0.500000
Si Si5 0.500000 0.844625 0.401592
Si Si6 0.000000 0.340754 0.254702
O O1 0.897211 0.124915 0.885062
O O2 0.752894 0.000000 0.933198
O O3 0.905972 0.000000 0.000000
O O4 0.250000 0.250000 0.834570
O O5 0.394176 0.127719 0.891952
O O6 0.408692 0.225275 0.777817
O O7 0.097568 0.500000 0.000000
O O8 0.817006 0.500000 0.500000
O O9 0.750000 0.250000 0.500000
O O10 0.904601 0.300751 0.437707
O O11 0.500000 0.790072 0.328573
O O12 0.500000 0.000000 0.401457
O O13 0.000000 0.500000 0.249173
#
# Coordination Sequence:
#
# PCOD8271334 Si02
#       6
#     8  16   8   8   8   8
#     4   9  18  33  53  73 104 143 177 231 300 343
#     4  10  20  34  54  78 105 140 185 230 283 333
#     4   9  16  31  53  77 100 133 183 235 280 333
#     4   9  17  35  64  92 116 145 183 223 260 310
#     4   8  18  35  57  84 116 153 184 214 263 321
#     4  11  21  37  57  79 111 150 189 223 261 324
#
# _framework density 18.788129000000001
#
# number of rings (size 3 to 8) (size 9 to 14) (size 15 to 20)
#    0.000    2.571    1.429    1.714    0.000    5.143 
#    0.000    5.714    6.286    0.000    0.000    0.000 
#    0.000    0.000    0.000    0.000    0.000    0.000 
#
# Total GULP energy -347013.862153 kJ/mol
# GULP energy per Si atom -12393.352220 kJ/mol
# Density = 1.874537 g / cm^3
# Si number density = 18.788129 Si / 1000 Ang^3
#
#
#
# Elastic Constant Matrix: (Units=GPa)
#
#
# Indices 1 2 3 4 5 6 
#
# 1 111.5980 39.3651 62.2949 0.0000 0.0000 0.0000
# 2 39.3651 129.0619 65.5979 0.0000 0.0000 0.0000
# 3 62.2949 65.5979 190.6731 0.0000 0.0000 0.0000
# 4 0.0000 0.0000 0.0000 25.5564 0.0000 0.0000
# 5 0.0000 0.0000 0.0000 0.0000 27.5540 0.0000
# 6 0.0000 0.0000 0.0000 0.0000 0.0000 65.8547
#
#
#
# Elastic Compliance Matrix: (Units=1/GPa)
#
#
# Indices 1 2 3 4 5 6 
#
# 1 0.011335 -0.001909 -0.003046 0.000000 0.000000 0.000000
# 2 -0.001909 0.009712 -0.002718 0.000000 0.000000 0.000000
# 3 -0.003046 -0.002718 0.007175 0.000000 0.000000 0.000000
# 4 0.000000 0.000000 0.000000 0.039129 0.000000 0.000000
# 5 0.000000 0.000000 0.000000 0.000000 0.036292 0.000000
# 6 0.000000 0.000000 0.000000 0.000000 0.000000 0.015185
#
#
# Mechanical properties :
#
#
# Convention : Reuss Voigt Hill
#
# Bulk Modulus (GPa) = 77.66639 85.09432 81.38035
# Shear Modulus (GPa) = 36.11026 41.39802 38.75414
#
# Velocity S-wave (km/s) = 4.38879 4.69915 4.54662
# Velocity P-wave (km/s) = 8.19205 8.65058 8.42443
#
# Compressibility (1/GPa) = 0.01287558
#
# Stress axis : x y z
#
# Youngs Moduli (GPa) = 88.22556 102.96933 139.37667
#
# Poissons Ratio (x) = 0.19654 0.42460
# Poissons Ratio (y) = 0.16840 0.37876
# Poissons Ratio (z) = 0.26878 0.27982
#
# Static dielectric constant tensor:
#      x y z
#    x 3.283660 0.000000 0.000000 
#    y 0.000000 3.428980 0.000000 
#    z 0.000000 0.000000 4.033400 
# 
# 
# High freq. dielectric constant tensor:
#      x y z
#    x 1.733240 0.000000 0.000000 
#    y 0.000000 1.720000 0.000000 
#    z 0.000000 0.000000 1.724060 
# 
# From -- ./inp_files/62236.got.cif
#   From: 2010.03.12/outbox.cif.g09.slc.cpg/sg65_32_cif.got.tgz:62236.got - 2010.04.10 20:52:16.
