data_PCOD8271907
_publ_section_title
;
Structure prediction by ZEFSAII (Michael W. Deem and Ramdas Pophale) SiO2 
 PCOD8271907
Probable space group: C M M M
;
_chemical_formula_sum "Si O2"
_cell_formula_units_Z 80
_cell_length_a 21.788705
_cell_length_b 21.889052
_cell_length_c 8.714761
_cell_angle_alpha 90.000000
_cell_angle_beta 90.000000
_cell_angle_gamma 90.000000
_cell_volume 4156.366666
_symmetry_space_group_name_H-M "C M M M"
_symmetry_group_IT_number 65
_symmetry_cell_setting 'orthorhombic'
loop_
_space_group_symop_operation_xyz
x,y,z
-x,-y,z
x,-y,-z
-x,y,-z
-x,-y,-z
x,y,-z
-x,y,z
x,-y,z
1/2+x,1/2+y,z
1/2-x,1/2-y,z
1/2+x,1/2-y,-z
1/2-x,1/2+y,-z
1/2-x,1/2-y,-z
1/2+x,1/2+y,-z
1/2-x,1/2+y,z
1/2+x,1/2-y,z
loop_
_atom_site_type_symbol
_atom_site_label
_atom_site_fract_x
_atom_site_fract_y
_atom_site_fract_z
Si Si1 0.000000 0.067476 0.182395
Si Si2 0.730720 0.428461 0.319808
Si Si3 0.070663 0.738003 0.317676
Si Si4 0.431400 0.000000 0.316594
Si Si5 0.862462 0.617037 0.681675
Si Si6 0.116873 0.859575 0.818836
O O1 0.940274 0.101667 0.244140
O O2 0.000000 0.000000 0.253763
O O3 0.000000 0.064639 0.000000
O O4 0.717925 0.422401 0.500000
O O5 0.736394 0.500000 0.274145
O O6 0.791556 0.391137 0.271238
O O7 0.677342 0.395936 0.226527
O O8 0.070103 0.738463 0.500000
O O9 0.106047 0.678342 0.253091
O O10 0.111935 0.793634 0.258457
O O11 0.000000 0.740018 0.256146
O O12 0.398851 0.059731 0.248775
O O13 0.500000 0.000000 0.255077
O O14 0.428047 0.000000 0.500000
O O15 0.868538 0.616828 0.500000
O O16 0.114746 0.851072 0.000000
#
# Coordination Sequence:
#
# PCOD8271907 Si02
#       6
#     8  16  16   8  16  16
#     4   9  18  34  55  77  99 130 177 230 280 325
#     4  10  20  36  57  82 114 148 184 228 281 334
#     4  10  20  35  56  83 115 147 185 231 279 330
#     4   9  14  24  48  82 113 142 185 230 272 324
#     4   9  17  31  52  80 114 150 181 224 280 330
#     4  11  22  37  57  79 109 148 189 232 279 331
#
# _framework density 19.247579000000002
#
# number of rings (size 3 to 8) (size 9 to 14) (size 15 to 20)
#    0.000    2.200    2.000    1.800    0.000    4.400 
#    0.000    5.000    0.000    2.400    0.000    0.000 
#    0.000    3.200    0.000    0.000    0.000    0.000 
#
# Total GULP energy -495933.449111 kJ/mol
# GULP energy per Si atom -12398.336228 kJ/mol
# Density = 1.920377 g / cm^3
# Si number density = 19.247579 Si / 1000 Ang^3
#
#
#
# Elastic Constant Matrix: (Units=GPa)
#
#
# Indices 1 2 3 4 5 6 
#
# 1 126.7112 57.7296 19.3472 0.0000 0.0000 0.0000
# 2 57.7296 155.9793 19.1876 0.0000 0.0000 0.0000
# 3 19.3472 19.1876 17.9930 0.0000 0.0000 0.0000
# 4 0.0000 0.0000 0.0000 9.2873 0.0000 0.0000
# 5 0.0000 0.0000 0.0000 0.0000 14.6483 0.0000
# 6 0.0000 0.0000 0.0000 0.0000 0.0000 43.4052
#
#
#
# Elastic Compliance Matrix: (Units=1/GPa)
#
#
# Indices 1 2 3 4 5 6 
#
# 1 0.010444 -0.002859 -0.008181 0.000000 0.000000 0.000000
# 2 -0.002859 0.008162 -0.005630 0.000000 0.000000 0.000000
# 3 -0.008181 -0.005630 0.070377 0.000000 0.000000 0.000000
# 4 0.000000 0.000000 0.000000 0.107674 0.000000 0.000000
# 5 0.000000 0.000000 0.000000 0.000000 0.068267 0.000000
# 6 0.000000 0.000000 0.000000 0.000000 0.000000 0.023039
#
#
# Mechanical properties :
#
#
# Convention : Reuss Voigt Hill
#
# Bulk Modulus (GPa) = 17.97143 54.80137 36.38640
# Shear Modulus (GPa) = 14.71242 27.09610 20.90426
#
# Velocity S-wave (km/s) = 2.76774 3.75609 3.29914
# Velocity P-wave (km/s) = 4.42392 6.88074 5.78428
#
# Compressibility (1/GPa) = 0.05564387
#
# Stress axis : x y z
#
# Youngs Moduli (GPa) = 95.75247 122.52293 14.20914
#
# Poissons Ratio (x) = 0.35028 0.11624
# Poissons Ratio (y) = 0.27375 0.07999
# Poissons Ratio (z) = 0.78334 0.68975
#
# Static dielectric constant tensor:
#      x y z
#    x 3.678630 0.000000 0.000000 
#    y 0.000000 3.785350 0.000000 
#    z 0.000000 0.000000 2.993810 
# 
# 
# High freq. dielectric constant tensor:
#      x y z
#    x 1.762270 0.000000 0.000000 
#    y 0.000000 1.765010 0.000000 
#    z 0.000000 0.000000 1.699600 
# 
# From -- ./inp_files/13844.got.cif
#   From: 2010.03.12/outbox.cif.g09.slc.cpg/sg65_7_cif.got.tgz:13844.got - 2010.04.10 20:52:16.
