data_PCOD8271208
_publ_section_title
;
Structure prediction by ZEFSAII (Michael W. Deem and Ramdas Pophale) SiO2 
 PCOD8271208
Probable space group: C M M M
;
_chemical_formula_sum "Si O2"
_cell_formula_units_Z 104
_cell_length_a 31.944166
_cell_length_b 20.039774
_cell_length_c 9.093314
_cell_angle_alpha 90.000000
_cell_angle_beta 90.000000
_cell_angle_gamma 90.000000
_cell_volume 5821.120123
_symmetry_space_group_name_H-M "C M M M"
_symmetry_group_IT_number 65
_symmetry_cell_setting 'orthorhombic'
loop_
_space_group_symop_operation_xyz
x,y,z
-x,-y,z
x,-y,-z
-x,y,-z
-x,-y,-z
x,y,-z
-x,y,z
x,-y,z
1/2+x,1/2+y,z
1/2-x,1/2-y,z
1/2+x,1/2-y,-z
1/2-x,1/2+y,-z
1/2-x,1/2-y,-z
1/2+x,1/2+y,-z
1/2-x,1/2+y,z
1/2+x,1/2-y,z
loop_
_atom_site_type_symbol
_atom_site_label
_atom_site_fract_x
_atom_site_fract_y
_atom_site_fract_z
Si Si1 0.273485 0.424213 0.326400
Si Si2 0.951497 0.000000 0.338984
Si Si3 0.335979 0.328298 0.163844
Si Si4 0.126195 0.690927 0.172820
Si Si5 0.047050 0.261697 0.328649
Si Si6 0.311789 0.075761 0.169339
Si Si7 0.429500 0.630355 0.834709
O O1 0.272264 0.419792 0.500000
O O2 0.285424 0.500000 0.275499
O O3 0.305885 0.369374 0.270024
O O4 0.227980 0.404869 0.266397
O O5 0.939028 0.936913 0.246443
O O6 0.929115 0.000000 0.500000
O O7 0.000000 0.000000 0.366899
O O8 0.344045 0.252775 0.222356
O O9 0.379867 0.365191 0.160518
O O10 0.316148 0.326609 0.000000
O O11 0.081687 0.689844 0.256398
O O12 0.149432 0.622562 0.213372
O O13 0.116450 0.698561 0.000000
O O14 0.057375 0.253598 0.500000
O O15 0.049015 0.189763 0.253776
O O16 0.000000 0.290852 0.305658
O O17 0.326183 0.000000 0.199191
O O18 0.299232 0.086864 0.000000
O O19 0.447866 0.629783 0.000000
#
# Coordination Sequence:
#
# PCOD8271208 Si02
#       7
#    16   8  16  16  16  16  16
#     4  10  21  34  49  73 103 137 177 215 254 304
#     4  11  23  35  47  67  97 133 173 219 271 319
#     4   9  19  34  50  71 100 133 170 213 259 304
#     4   9  19  35  55  80 105 132 171 213 256 308
#     4  10  20  34  53  77 104 134 168 207 256 311
#     4   9  18  35  58  80 103 134 169 208 257 310
#     4  10  21  35  51  72  97 132 176 220 264 309
#
# _framework density 17.865977000000001
#
# number of rings (size 3 to 8) (size 9 to 14) (size 15 to 20)
#    0.000    2.385    0.000    3.000    1.077    8.923 
#    0.000    3.077    0.000    0.462    0.000    3.231 
#    0.000    0.000    0.000    0.000    0.000    0.000 
#
# Total GULP energy -644724.777601 kJ/mol
# GULP energy per Si atom -12398.553415 kJ/mol
# Density = 1.782531 g / cm^3
# Si number density = 17.865977 Si / 1000 Ang^3
#
#
#
# Elastic Constant Matrix: (Units=GPa)
#
#
# Indices 1 2 3 4 5 6 
#
# 1 99.4351 63.4386 56.2599 0.0000 0.0000 0.0000
# 2 63.4386 92.5041 44.1618 0.0000 0.0000 0.0000
# 3 56.2599 44.1618 99.7021 0.0000 0.0000 0.0000
# 4 0.0000 0.0000 0.0000 16.0346 0.0000 0.0000
# 5 0.0000 0.0000 0.0000 0.0000 36.3498 0.0000
# 6 0.0000 0.0000 0.0000 0.0000 0.0000 6.3416
#
#
#
# Elastic Compliance Matrix: (Units=1/GPa)
#
#
# Indices 1 2 3 4 5 6 
#
# 1 0.021120 -0.011153 -0.006978 0.000000 0.000000 0.000000
# 2 -0.011153 0.019599 -0.002388 0.000000 0.000000 0.000000
# 3 -0.006978 -0.002388 0.015025 0.000000 0.000000 0.000000
# 4 0.000000 0.000000 0.000000 0.062365 0.000000 0.000000
# 5 0.000000 0.000000 0.000000 0.000000 0.027511 0.000000
# 6 0.000000 0.000000 0.000000 0.000000 0.000000 0.157689
#
#
# Mechanical properties :
#
#
# Convention : Reuss Voigt Hill
#
# Bulk Modulus (GPa) = 67.99336 68.81800 68.40568
# Shear Modulus (GPa) = 14.31649 20.26392 17.29021
#
# Velocity S-wave (km/s) = 2.83384 3.37147 3.11428
# Velocity P-wave (km/s) = 6.98911 7.33201 7.16261
#
# Compressibility (1/GPa) = 0.01470732
#
# Stress axis : x y z
#
# Youngs Moduli (GPa) = 47.34802 51.02354 66.55649
#
# Poissons Ratio (x) = 0.56906 0.46441
# Poissons Ratio (y) = 0.52807 0.15891
# Poissons Ratio (z) = 0.33038 0.12183
#
# Static dielectric constant tensor:
#      x y z
#    x 3.279800 0.000000 0.000000 
#    y 0.000000 3.160650 0.000000 
#    z 0.000000 0.000000 3.521480 
# 
# 
# High freq. dielectric constant tensor:
#      x y z
#    x 1.686290 0.000000 0.000000 
#    y 0.000000 1.679030 0.000000 
#    z 0.000000 0.000000 1.699550 
# 
# From -- ./inp_files/12799.got.cif
#   From: 2010.03.12/outbox.cif.g09.slc.cpg/sg65_7_cif.got.tgz:12799.got - 2010.04.10 20:52:16.
