data_PCOD8271676
_publ_section_title
;
Structure prediction by ZEFSAII (Michael W. Deem and Ramdas Pophale) SiO2 
 PCOD8271676
Probable space group: C M M M
;
_chemical_formula_sum "Si O2"
_cell_formula_units_Z 104
_cell_length_a 28.870932
_cell_length_b 8.931941
_cell_length_c 20.706987
_cell_angle_alpha 90.000000
_cell_angle_beta 90.000000
_cell_angle_gamma 90.000000
_cell_volume 5339.782410
_symmetry_space_group_name_H-M "C M M M"
_symmetry_group_IT_number 65
_symmetry_cell_setting 'orthorhombic'
loop_
_space_group_symop_operation_xyz
x,y,z
-x,-y,z
x,-y,-z
-x,y,-z
-x,-y,-z
x,y,-z
-x,y,z
x,-y,z
1/2+x,1/2+y,z
1/2-x,1/2-y,z
1/2+x,1/2-y,-z
1/2-x,1/2+y,-z
1/2-x,1/2-y,-z
1/2+x,1/2+y,-z
1/2-x,1/2+y,z
1/2+x,1/2-y,z
loop_
_atom_site_type_symbol
_atom_site_label
_atom_site_fract_x
_atom_site_fract_y
_atom_site_fract_z
Si Si1 0.202229 0.177532 0.265417
Si Si2 0.551354 0.826695 0.315966
Si Si3 0.553140 0.326424 0.815714
Si Si4 0.892099 0.328847 0.072536
Si Si5 0.354939 0.174075 0.372726
Si Si6 0.703963 0.827069 0.869213
Si Si7 0.800553 0.323859 0.500000
O O1 0.250000 0.250000 0.290029
O O2 0.163215 0.222182 0.315802
O O3 0.188559 0.243302 0.196015
O O4 0.206975 0.000000 0.261390
O O5 0.500000 0.766060 0.336685
O O6 0.569496 0.750530 0.250358
O O7 0.589080 0.799622 0.373116
O O8 0.547839 0.000000 0.299549
O O9 0.500000 0.287572 0.829934
O O10 0.562072 0.500000 0.805944
O O11 0.581967 0.274434 0.877079
O O12 0.906545 0.500000 0.085652
O O13 0.836807 0.310396 0.079140
O O14 0.905739 0.280237 0.000000
O O15 0.331179 0.227398 0.438932
O O16 0.343571 0.000000 0.359217
O O17 0.750000 0.750000 0.898193
O O18 0.714614 0.000000 0.852925
O O19 0.792497 0.500000 0.500000
O O20 0.750000 0.250000 0.500000
#
# Coordination Sequence:
#
# PCOD8271676 Si02
#       7
#    16  16  16  16  16  16   8
#     4  11  21  33  52  78 105 134 172 217 266 316
#     4   9  18  34  57  82 107 138 175 214 260 314
#     4  10  21  36  55  81 110 137 170 217 268 314
#     4  10  22  38  54  74 102 138 178 216 258 315
#     4  10  20  35  54  78 109 142 177 217 260 306
#     4  10  20  35  54  76 103 134 171 217 266 315
#     4  10  22  38  55  77 109 147 182 218 259 306
#
# _framework density 19.476448000000001
#
# number of rings (size 3 to 8) (size 9 to 14) (size 15 to 20)
#    0.000    2.000    0.000    4.615    0.000    9.231 
#    0.000    1.923    0.000    2.308    0.000    0.000 
#    0.000    4.308    0.000    0.000    0.000    0.000 
#
# Total GULP energy -644737.046957 kJ/mol
# GULP energy per Si atom -12398.789365 kJ/mol
# Density = 1.943212 g / cm^3
# Si number density = 19.476448 Si / 1000 Ang^3
#
#
#
# Elastic Constant Matrix: (Units=GPa)
#
#
# Indices 1 2 3 4 5 6 
#
# 1 108.9740 36.8676 61.5280 0.0000 0.0000 0.0000
# 2 36.8676 79.7072 22.9649 0.0000 0.0000 0.0000
# 3 61.5280 22.9649 74.0588 0.0000 0.0000 0.0000
# 4 0.0000 0.0000 0.0000 15.2639 0.0000 0.0000
# 5 0.0000 0.0000 0.0000 0.0000 29.0835 0.0000
# 6 0.0000 0.0000 0.0000 0.0000 0.0000 30.2221
#
#
#
# Elastic Compliance Matrix: (Units=1/GPa)
#
#
# Indices 1 2 3 4 5 6 
#
# 1 0.018693 -0.004581 -0.014109 0.000000 0.000000 0.000000
# 2 -0.004581 0.014899 -0.000814 0.000000 0.000000 0.000000
# 3 -0.014109 -0.000814 0.025477 0.000000 0.000000 0.000000
# 4 0.000000 0.000000 0.000000 0.065514 0.000000 0.000000
# 5 0.000000 0.000000 0.000000 0.000000 0.034384 0.000000
# 6 0.000000 0.000000 0.000000 0.000000 0.000000 0.033088
#
#
# Mechanical properties :
#
#
# Convention : Reuss Voigt Hill
#
# Bulk Modulus (GPa) = 49.84999 56.16234 53.00616
# Shear Modulus (GPa) = 21.03037 24.33918 22.68478
#
# Velocity S-wave (km/s) = 3.28957 3.53891 3.41651
# Velocity P-wave (km/s) = 6.33079 6.75256 6.54508
#
# Compressibility (1/GPa) = 0.02006019
#
# Stress axis : x y z
#
# Youngs Moduli (GPa) = 53.49717 67.11681 39.25065
#
# Poissons Ratio (x) = 0.30746 0.55380
# Poissons Ratio (y) = 0.24507 0.03196
# Poissons Ratio (z) = 0.75481 0.05466
#
# Static dielectric constant tensor:
#      x y z
#    x 3.804820 0.000000 0.000000 
#    y 0.000000 3.534870 0.000000 
#    z 0.000000 0.000000 3.436440 
# 
# 
# High freq. dielectric constant tensor:
#      x y z
#    x 1.770670 0.000000 0.000000 
#    y 0.000000 1.757320 0.000000 
#    z 0.000000 0.000000 1.739410 
# 
# From -- ./inp_files/66413.got.cif
#   From: 2010.03.12/outbox.cif.g09.slc.cpg/sg65_34_cif.got.tgz:66413.got - 2010.04.10 20:52:16.
