data_PCOD8271664
_publ_section_title
;
Structure prediction by ZEFSAII (Michael W. Deem and Ramdas Pophale) SiO2 
 PCOD8271664
Probable space group: C M M M
;
_chemical_formula_sum "Si O2"
_cell_formula_units_Z 96
_cell_length_a 19.887699
_cell_length_b 8.766679
_cell_length_c 30.082410
_cell_angle_alpha 90.000000
_cell_angle_beta 90.000000
_cell_angle_gamma 90.000000
_cell_volume 5244.840303
_symmetry_space_group_name_H-M "C M M M"
_symmetry_group_IT_number 65
_symmetry_cell_setting 'orthorhombic'
loop_
_space_group_symop_operation_xyz
x,y,z
-x,-y,z
x,-y,-z
-x,y,-z
-x,-y,-z
x,y,-z
-x,y,z
x,-y,z
1/2+x,1/2+y,z
1/2-x,1/2-y,z
1/2+x,1/2-y,-z
1/2-x,1/2+y,-z
1/2-x,1/2-y,-z
1/2+x,1/2+y,-z
1/2-x,1/2+y,z
1/2+x,1/2-y,z
loop_
_atom_site_type_symbol
_atom_site_label
_atom_site_fract_x
_atom_site_fract_y
_atom_site_fract_z
Si Si1 0.576406 0.179419 0.714392
Si Si2 0.075748 0.180584 0.377387
Si Si3 0.820509 0.820647 0.883793
Si Si4 0.821203 0.318717 0.210177
Si Si5 0.422625 0.825163 0.051519
Si Si6 0.679900 0.319587 0.449827
O O1 0.500000 0.231227 0.724665
O O2 0.603196 0.255614 0.669209
O O3 0.622914 0.235243 0.754714
O O4 0.581260 0.000000 0.708112
O O5 0.121704 0.242777 0.417474
O O6 0.000000 0.239530 0.386053
O O7 0.078168 0.000000 0.375260
O O8 0.750000 0.750000 0.899991
O O9 0.843299 0.746259 0.837426
O O10 0.876888 0.788069 0.920286
O O11 0.811489 0.000000 0.877342
O O12 0.815603 0.500000 0.207222
O O13 0.750000 0.250000 0.225264
O O14 0.500000 0.790803 0.062998
O O15 0.405143 0.000000 0.063251
O O16 0.408409 0.792862 0.000000
O O17 0.662883 0.266038 0.500000
O O18 0.685648 0.500000 0.447155
O O19 0.750000 0.250000 0.433530
#
# Coordination Sequence:
#
# PCOD8271664 Si02
#       6
#    16  16  16  16  16  16
#     4   9  19  35  53  73  98 130 166 203 246 297
#     4   9  18  32  50  72  97 126 161 202 246 290
#     4  11  22  36  55  79 108 140 175 216 260 306
#     4  10  20  35  54  75 101 133 169 209 253 302
#     4   9  19  37  59  81 107 140 176 214 258 308
#     4   9  18  32  49  70  97 128 162 200 242 290
#
# _framework density 18.303704
#
# number of rings (size 3 to 8) (size 9 to 14) (size 15 to 20)
#    0.000    2.500    0.000    3.500    0.000    4.667 
#    0.000    7.500    0.000    0.000    0.000    4.667 
#    0.000    0.000    0.000    0.000    0.000    0.000 
#
# Total GULP energy -595277.309327 kJ/mol
# GULP energy per Si atom -12401.610611 kJ/mol
# Density = 1.826204 g / cm^3
# Si number density = 18.303704 Si / 1000 Ang^3
#
#
#
# Elastic Constant Matrix: (Units=GPa)
#
#
# Indices 1 2 3 4 5 6 
#
# 1 112.0254 35.8156 88.6607 0.0000 0.0000 0.0000
# 2 35.8156 57.7155 38.5799 0.0000 0.0000 0.0000
# 3 88.6607 38.5799 121.0047 0.0000 0.0000 0.0000
# 4 0.0000 0.0000 0.0000 30.5402 0.0000 0.0000
# 5 0.0000 0.0000 0.0000 0.0000 41.0408 0.0000
# 6 0.0000 0.0000 0.0000 0.0000 0.0000 30.0156
#
#
#
# Elastic Compliance Matrix: (Units=1/GPa)
#
#
# Indices 1 2 3 4 5 6 
#
# 1 0.021830 -0.003628 -0.014838 0.000000 0.000000 0.000000
# 2 -0.003628 0.022622 -0.004554 0.000000 0.000000 0.000000
# 3 -0.014838 -0.004554 0.020588 0.000000 0.000000 0.000000
# 4 0.000000 0.000000 0.000000 0.032744 0.000000 0.000000
# 5 0.000000 0.000000 0.000000 0.000000 0.024366 0.000000
# 6 0.000000 0.000000 0.000000 0.000000 0.000000 0.033316
#
#
# Mechanical properties :
#
#
# Convention : Reuss Voigt Hill
#
# Bulk Modulus (GPa) = 52.63395 68.53976 60.58685
# Shear Modulus (GPa) = 24.05700 28.83196 26.44448
#
# Velocity S-wave (km/s) = 3.62929 3.97318 3.80512
# Velocity P-wave (km/s) = 6.81034 7.65345 7.24417
#
# Compressibility (1/GPa) = 0.01899915
#
# Stress axis : x y z
#
# Youngs Moduli (GPa) = 45.80883 44.20460 48.57169
#
# Poissons Ratio (x) = 0.16038 0.72071
# Poissons Ratio (y) = 0.16620 0.22121
# Poissons Ratio (z) = 0.67972 0.20132
#
# Static dielectric constant tensor:
#      x y z
#    x 3.500670 0.000000 0.000000 
#    y 0.000000 3.264650 0.000000 
#    z 0.000000 0.000000 3.463400 
# 
# 
# High freq. dielectric constant tensor:
#      x y z
#    x 1.710670 0.000000 0.000000 
#    y 0.000000 1.705300 0.000000 
#    z 0.000000 0.000000 1.713010 
# 
# From -- ./inp_files/73148.got.cif
#   From: 2010.03.12/outbox.cif.g09.slc.cpg/sg65_37_cif.got.tgz:73148.got - 2010.04.10 20:52:16.
