data_PCOD8271267
_publ_section_title
;
Structure prediction by ZEFSAII (Michael W. Deem and Ramdas Pophale) SiO2 
 PCOD8271267
Probable space group: C M M M
;
_chemical_formula_sum "Si O2"
_cell_formula_units_Z 104
_cell_length_a 28.167365
_cell_length_b 8.939709
_cell_length_c 23.065635
_cell_angle_alpha 90.000000
_cell_angle_beta 90.000000
_cell_angle_gamma 90.000000
_cell_volume 5808.112488
_symmetry_space_group_name_H-M "C M M M"
_symmetry_group_IT_number 65
_symmetry_cell_setting 'orthorhombic'
loop_
_space_group_symop_operation_xyz
x,y,z
-x,-y,z
x,-y,-z
-x,y,-z
-x,-y,-z
x,y,-z
-x,y,z
x,-y,z
1/2+x,1/2+y,z
1/2-x,1/2-y,z
1/2+x,1/2-y,-z
1/2-x,1/2+y,-z
1/2-x,1/2-y,-z
1/2+x,1/2+y,-z
1/2-x,1/2+y,z
1/2+x,1/2-y,z
loop_
_atom_site_type_symbol
_atom_site_label
_atom_site_fract_x
_atom_site_fract_y
_atom_site_fract_z
Si Si1 0.553618 0.173020 0.657753
Si Si2 0.641118 0.824071 0.827243
Si Si3 0.199404 0.175687 0.725040
Si Si4 0.301005 0.676398 0.500000
Si Si5 0.798290 0.325405 0.064781
Si Si6 0.860228 0.825693 0.610811
Si Si7 0.946059 0.173544 0.219876
O O1 0.500000 0.196413 0.634558
O O2 0.590229 0.234745 0.610008
O O3 0.562186 0.266117 0.715878
O O4 0.563676 0.000000 0.671272
O O5 0.674173 0.743714 0.780770
O O6 0.659527 0.783607 0.891438
O O7 0.587560 0.762255 0.824345
O O8 0.641837 0.000000 0.815118
O O9 0.250000 0.250000 0.715667
O O10 0.168235 0.212381 0.668920
O O11 0.206152 0.000000 0.734329
O O12 0.293623 0.500000 0.500000
O O13 0.250000 0.750000 0.500000
O O14 0.329563 0.730264 0.443515
O O15 0.788353 0.500000 0.065149
O O16 0.750000 0.250000 0.086687
O O17 0.812177 0.269848 0.000000
O O18 0.872212 0.000000 0.605432
O O19 0.000000 0.199076 0.199298
O O20 0.931995 0.000000 0.220214
#
# Coordination Sequence:
#
# PCOD8271267 Si02
#       7
#    16  16  16   8  16  16  16
#     4  10  20  34  55  82 109 138 175 218 266 322
#     4  11  21  33  53  80 108 139 176 220 267 316
#     4  11  22  34  50  75 107 140 174 217 269 318
#     4  10  22  40  59  80 105 141 188 223 261 316
#     4   9  19  35  53  75 105 142 182 220 260 309
#     4  10  21  37  56  78 106 142 180 221 265 318
#     4  10  20  34  53  78 109 142 175 215 266 322
#
# _framework density 17.905989000000002
#
# number of rings (size 3 to 8) (size 9 to 14) (size 15 to 20)
#    0.000    1.846    1.538    2.769    0.000    5.538 
#    0.000    0.385    0.000    2.769    0.000    3.231 
#    0.000    0.000    0.000    0.000    0.000    0.000 
#
# Total GULP energy -644954.803761 kJ/mol
# GULP energy per Si atom -12402.976995 kJ/mol
# Density = 1.786523 g / cm^3
# Si number density = 17.905989 Si / 1000 Ang^3
#
#
#
# Elastic Constant Matrix: (Units=GPa)
#
#
# Indices 1 2 3 4 5 6 
#
# 1 142.1441 61.7403 62.1295 0.0000 0.0000 0.0000
# 2 61.7403 78.7934 47.7712 0.0000 0.0000 0.0000
# 3 62.1295 47.7712 98.0469 0.0000 0.0000 0.0000
# 4 0.0000 0.0000 0.0000 22.9238 0.0000 0.0000
# 5 0.0000 0.0000 0.0000 0.0000 82.2936 0.0000
# 6 0.0000 0.0000 0.0000 0.0000 0.0000 37.7582
#
#
#
# Elastic Compliance Matrix: (Units=1/GPa)
#
#
# Indices 1 2 3 4 5 6 
#
# 1 0.011773 -0.006673 -0.004209 0.000000 0.000000 0.000000
# 2 -0.006673 0.021795 -0.006390 0.000000 0.000000 0.000000
# 3 -0.004209 -0.006390 0.015980 0.000000 0.000000 0.000000
# 4 0.000000 0.000000 0.000000 0.043623 0.000000 0.000000
# 5 0.000000 0.000000 0.000000 0.000000 0.012152 0.000000
# 6 0.000000 0.000000 0.000000 0.000000 0.000000 0.026484
#
#
# Mechanical properties :
#
#
# Convention : Reuss Voigt Hill
#
# Bulk Modulus (GPa) = 66.65480 73.58514 70.11997
# Shear Modulus (GPa) = 29.17948 38.41802 33.79875
#
# Velocity S-wave (km/s) = 4.04120 4.63702 4.34933
# Velocity P-wave (km/s) = 7.68640 8.35786 8.02915
#
# Compressibility (1/GPa) = 0.01500267
#
# Stress axis : x y z
#
# Youngs Moduli (GPa) = 84.93694 45.88228 62.57885
#
# Poissons Ratio (x) = 0.30620 0.26339
# Poissons Ratio (y) = 0.56683 0.39990
# Poissons Ratio (z) = 0.35750 0.29320
#
# Static dielectric constant tensor:
#      x y z
#    x 3.992410 0.000000 0.000000 
#    y 0.000000 3.392850 0.000000 
#    z 0.000000 0.000000 3.342500 
# 
# 
# High freq. dielectric constant tensor:
#      x y z
#    x 1.701940 0.000000 0.000000 
#    y 0.000000 1.703060 0.000000 
#    z 0.000000 0.000000 1.675130 
# 
# From -- ./inp_files/65926.got.cif
#   From: 2010.03.12/outbox.cif.g09.slc.cpg/sg65_33_cif.got.tgz:65926.got - 2010.04.10 20:52:16.
