data_PCOD8271709
_publ_section_title
;
Structure prediction by ZEFSAII (Michael W. Deem and Ramdas Pophale) SiO2 
 PCOD8271709
Probable space group: C M M M
;
_chemical_formula_sum "Si O2"
_cell_formula_units_Z 88
_cell_length_a 9.255980
_cell_length_b 19.217300
_cell_length_c 27.465939
_cell_angle_alpha 90.000000
_cell_angle_beta 90.000000
_cell_angle_gamma 90.000000
_cell_volume 4885.502374
_symmetry_space_group_name_H-M "C M M M"
_symmetry_group_IT_number 65
_symmetry_cell_setting 'orthorhombic'
loop_
_space_group_symop_operation_xyz
x,y,z
-x,-y,z
x,-y,-z
-x,y,-z
-x,-y,-z
x,y,-z
-x,y,z
x,-y,z
1/2+x,1/2+y,z
1/2-x,1/2-y,z
1/2+x,1/2-y,-z
1/2-x,1/2+y,-z
1/2-x,1/2-y,-z
1/2+x,1/2+y,-z
1/2-x,1/2+y,z
1/2+x,1/2-y,z
loop_
_atom_site_type_symbol
_atom_site_label
_atom_site_fract_x
_atom_site_fract_y
_atom_site_fract_z
Si Si1 0.832000 0.079870 0.093485
Si Si2 0.667831 0.919263 0.359719
Si Si3 0.667459 0.182039 0.445025
Si Si4 0.336356 0.917129 0.000000
Si Si5 0.832979 0.182172 0.822650
Si Si6 0.670383 0.679291 0.288891
O O1 0.743204 0.111444 0.048135
O O2 0.786703 0.118772 0.142834
O O3 0.000000 0.089219 0.081158
O O4 0.791496 0.000000 0.102489
O O5 0.500000 0.908786 0.345921
O O6 0.704353 0.883811 0.411419
O O7 0.767010 0.885611 0.318368
O O8 0.708258 0.000000 0.364224
O O9 0.716507 0.163396 0.500000
O O10 0.500000 0.200806 0.442975
O O11 0.750000 0.250000 0.425343
O O12 0.500000 0.889744 0.000000
O O13 0.327682 0.000000 0.000000
O O14 0.750000 0.250000 0.840572
O O15 0.794123 0.162674 0.767290
O O16 0.000000 0.199686 0.827798
O O17 0.500000 0.687536 0.298593
O O18 0.750000 0.750000 0.305578
#
# Coordination Sequence:
#
# PCOD8271709 Si02
#       6
#    16  16  16   8  16  16
#     4   9  17  31  51  72  95 126 163 200 239 286
#     4  10  21  35  51  75 106 136 168 209 255 301
#     4   9  18  33  53  75  99 131 171 211 250 296
#     4   9  17  29  46  71 100 127 159 199 242 287
#     4   9  19  34  52  74  99 128 162 202 246 293
#     4  10  20  35  55  76 100 133 171 209 251 301
#
# _framework density 18.012477000000001
#
# number of rings (size 3 to 8) (size 9 to 14) (size 15 to 20)
#    0.000    2.636    0.000    1.364    0.000    6.182 
#    0.000    4.091    0.000    2.182    0.000    3.818 
#    0.000    0.000    0.000    0.000    0.000    0.000 
#
# Total GULP energy -545677.666660 kJ/mol
# GULP energy per Si atom -12401.765151 kJ/mol
# Density = 1.797148 g / cm^3
# Si number density = 18.012477 Si / 1000 Ang^3
#
#
#
# Elastic Constant Matrix: (Units=GPa)
#
#
# Indices 1 2 3 4 5 6 
#
# 1 72.2696 57.1395 56.9021 0.0000 0.0000 0.0000
# 2 57.1395 124.1049 75.7847 0.0000 0.0000 0.0000
# 3 56.9021 75.7847 114.1036 0.0000 0.0000 0.0000
# 4 0.0000 0.0000 0.0000 30.7677 0.0000 0.0000
# 5 0.0000 0.0000 0.0000 0.0000 26.2279 0.0000
# 6 0.0000 0.0000 0.0000 0.0000 0.0000 28.1962
#
#
#
# Elastic Compliance Matrix: (Units=1/GPa)
#
#
# Indices 1 2 3 4 5 6 
#
# 1 0.025760 -0.006756 -0.008359 0.000000 0.000000 0.000000
# 2 -0.006756 0.015327 -0.006811 0.000000 0.000000 0.000000
# 3 -0.008359 -0.006811 0.017456 0.000000 0.000000 0.000000
# 4 0.000000 0.000000 0.000000 0.032502 0.000000 0.000000
# 5 0.000000 0.000000 0.000000 0.000000 0.038127 0.000000
# 6 0.000000 0.000000 0.000000 0.000000 0.000000 0.035466
#
#
# Mechanical properties :
#
#
# Convention : Reuss Voigt Hill
#
# Bulk Modulus (GPa) = 68.06536 76.68120 72.37328
# Shear Modulus (GPa) = 23.43151 25.08181 24.25666
#
# Velocity S-wave (km/s) = 3.61064 3.73563 3.67367
# Velocity P-wave (km/s) = 7.43318 7.82752 7.63290
#
# Compressibility (1/GPa) = 0.01469176
#
# Stress axis : x y z
#
# Youngs Moduli (GPa) = 38.81956 65.24340 57.28574
#
# Poissons Ratio (x) = 0.44076 0.47887
# Poissons Ratio (y) = 0.26225 0.39017
# Poissons Ratio (z) = 0.32451 0.44437
#
# Static dielectric constant tensor:
#      x y z
#    x 3.333700 0.000000 0.000000 
#    y 0.000000 3.227140 0.000000 
#    z 0.000000 0.000000 3.530060 
# 
# 
# High freq. dielectric constant tensor:
#      x y z
#    x 1.696780 0.000000 0.000000 
#    y 0.000000 1.680570 0.000000 
#    z 0.000000 0.000000 1.707090 
# 
# From -- ./inp_files/76510.got.cif
#   From: 2010.03.12/outbox.cif.g09.slc.cpg/sg65_39_cif.got.tgz:76510.got - 2010.04.10 20:52:16.
