data_PCOD8271555
_publ_section_title
;
Structure prediction by ZEFSAII (Michael W. Deem and Ramdas Pophale) SiO2 
 PCOD8271555
Probable space group: C M M M
;
_chemical_formula_sum "Si O2"
_cell_formula_units_Z 104
_cell_length_a 29.481787
_cell_length_b 19.520524
_cell_length_c 9.026317
_cell_angle_alpha 90.000000
_cell_angle_beta 90.000000
_cell_angle_gamma 90.000000
_cell_volume 5194.644808
_symmetry_space_group_name_H-M "C M M M"
_symmetry_group_IT_number 65
_symmetry_cell_setting 'orthorhombic'
loop_
_space_group_symop_operation_xyz
x,y,z
-x,-y,z
x,-y,-z
-x,y,-z
-x,-y,-z
x,y,-z
-x,y,z
x,-y,z
1/2+x,1/2+y,z
1/2-x,1/2-y,z
1/2+x,1/2-y,-z
1/2-x,1/2+y,-z
1/2-x,1/2-y,-z
1/2+x,1/2+y,-z
1/2-x,1/2+y,z
1/2+x,1/2-y,z
loop_
_atom_site_type_symbol
_atom_site_label
_atom_site_fract_x
_atom_site_fract_y
_atom_site_fract_z
Si Si1 0.793825 0.205525 0.324884
Si Si2 0.386694 0.700165 0.828949
Si Si3 0.000000 0.422854 0.674187
Si Si4 0.423012 0.157687 0.830837
Si Si5 0.660537 0.073905 0.174390
Si Si6 0.260772 0.578210 0.171856
Si Si7 0.448815 0.577301 0.175990
O O1 0.796561 0.210707 0.500000
O O2 0.750000 0.250000 0.267116
O O3 0.842346 0.227503 0.257932
O O4 0.791312 0.126959 0.271817
O O5 0.424375 0.760378 0.815298
O O6 0.411474 0.631933 0.763142
O O7 0.372619 0.689133 0.000000
O O8 0.957109 0.379888 0.724142
O O9 0.000000 0.500000 0.741807
O O10 0.000000 0.427701 0.500000
O O11 0.373365 0.133260 0.778379
O O12 0.433209 0.135209 0.000000
O O13 0.710307 0.089052 0.237789
O O14 0.642806 0.000000 0.233445
O O15 0.666725 0.069439 0.000000
O O16 0.276903 0.500000 0.192561
O O17 0.264974 0.599732 0.000000
O O18 0.500000 0.593716 0.234428
O O19 0.434918 0.500000 0.225342
O O20 0.449265 0.582605 0.000000
#
# Coordination Sequence:
#
# PCOD8271555 Si02
#       7
#    16  16   8  16  16  16  16
#     4  11  24  39  54  77 116 161 197 233 283 348
#     4  10  21  35  58  88 112 142 190 243 288 335
#     4  11  25  41  55  77 112 151 184 216 265 331
#     4  10  20  34  56  83 108 137 179 235 285 327
#     4   8  14  27  49  76 103 132 171 222 281 335
#     4   9  18  34  58  85 110 140 184 239 291 336
#     4   8  15  30  54  84 117 147 176 222 286 349
#
# _framework density 20.020617999999999
#
# number of rings (size 3 to 8) (size 9 to 14) (size 15 to 20)
#    0.000    2.538    0.000    3.462    1.077    5.231 
#    0.000    2.308    0.000    0.923    0.000    1.077 
#    0.000    0.000    0.000    0.000    0.000    0.000 
#
# Total GULP energy -644375.840972 kJ/mol
# GULP energy per Si atom -12391.843096 kJ/mol
# Density = 1.997505 g / cm^3
# Si number density = 20.020618 Si / 1000 Ang^3
#
#
#
# Elastic Constant Matrix: (Units=GPa)
#
#
# Indices 1 2 3 4 5 6 
#
# 1 87.3129 45.8755 28.7707 0.0000 0.0000 0.0000
# 2 45.8755 113.1974 29.7048 0.0000 0.0000 0.0000
# 3 28.7707 29.7048 47.2504 0.0000 0.0000 0.0000
# 4 0.0000 0.0000 0.0000 19.4173 0.0000 0.0000
# 5 0.0000 0.0000 0.0000 0.0000 17.7767 0.0000
# 6 0.0000 0.0000 0.0000 0.0000 0.0000 37.3919
#
#
#
# Elastic Compliance Matrix: (Units=1/GPa)
#
#
# Indices 1 2 3 4 5 6 
#
# 1 0.016227 -0.004771 -0.006882 0.000000 0.000000 0.000000
# 2 -0.004771 0.011982 -0.004628 0.000000 0.000000 0.000000
# 3 -0.006882 -0.004628 0.028263 0.000000 0.000000 0.000000
# 4 0.000000 0.000000 0.000000 0.051501 0.000000 0.000000
# 5 0.000000 0.000000 0.000000 0.000000 0.056253 0.000000
# 6 0.000000 0.000000 0.000000 0.000000 0.000000 0.026744
#
#
# Mechanical properties :
#
#
# Convention : Reuss Voigt Hill
#
# Bulk Modulus (GPa) = 41.81919 50.71807 46.26863
# Shear Modulus (GPa) = 21.59817 24.47781 23.03799
#
# Velocity S-wave (km/s) = 3.28807 3.50041 3.39590
# Velocity P-wave (km/s) = 5.94547 6.45949 6.20780
#
# Compressibility (1/GPa) = 0.02391247
#
# Stress axis : x y z
#
# Youngs Moduli (GPa) = 61.62509 83.45920 35.38139
#
# Poissons Ratio (x) = 0.39814 0.24348
# Poissons Ratio (y) = 0.29398 0.16374
# Poissons Ratio (z) = 0.42408 0.38624
#
# Static dielectric constant tensor:
#      x y z
#    x 6.129410 0.000000 0.000000 
#    y 0.000000 3.846010 0.000000 
#    z 0.000000 0.000000 3.116430 
# 
# 
# High freq. dielectric constant tensor:
#      x y z
#    x 1.780230 0.000000 0.000000 
#    y 0.000000 1.796460 0.000000 
#    z 0.000000 0.000000 1.726800 
# 
# From -- ./inp_files/16451.got.cif
#   From: 2010.03.12/outbox.cif.g09.slc.cpg/sg65_9_cif.got.tgz:16451.got - 2010.04.10 20:52:16.
