data_PCOD8271811
_publ_section_title
;
Structure prediction by ZEFSAII (Michael W. Deem and Ramdas Pophale) SiO2 
 PCOD8271811
Probable space group: C M M M
;
_chemical_formula_sum "Si O2"
_cell_formula_units_Z 96
_cell_length_a 32.517335
_cell_length_b 18.381928
_cell_length_c 8.985164
_cell_angle_alpha 90.000000
_cell_angle_beta 90.000000
_cell_angle_gamma 90.000000
_cell_volume 5370.713855
_symmetry_space_group_name_H-M "C M M M"
_symmetry_group_IT_number 65
_symmetry_cell_setting 'orthorhombic'
loop_
_space_group_symop_operation_xyz
x,y,z
-x,-y,z
x,-y,-z
-x,y,-z
-x,-y,-z
x,y,-z
-x,y,z
x,-y,z
1/2+x,1/2+y,z
1/2-x,1/2-y,z
1/2+x,1/2-y,-z
1/2-x,1/2+y,-z
1/2-x,1/2-y,-z
1/2+x,1/2+y,-z
1/2-x,1/2+y,z
1/2+x,1/2-y,z
loop_
_atom_site_type_symbol
_atom_site_label
_atom_site_fract_x
_atom_site_fract_y
_atom_site_fract_z
Si Si1 0.546815 0.783692 0.828640
Si Si2 0.247096 0.584853 0.327836
Si Si3 0.830881 0.915672 0.173550
Si Si4 0.619047 0.703712 0.675253
Si Si5 0.664490 0.152415 0.674175
Si Si6 0.581498 0.082712 0.324605
O O1 0.500000 0.757217 0.811814
O O2 0.575113 0.726767 0.740768
O O3 0.550260 0.864739 0.761034
O O4 0.560587 0.785696 0.000000
O O5 0.255190 0.604359 0.500000
O O6 0.237621 0.500000 0.307345
O O7 0.287015 0.609469 0.237137
O O8 0.208389 0.628869 0.257492
O O9 0.867335 0.871924 0.252754
O O10 0.838740 0.000000 0.208972
O O11 0.831697 0.898828 0.000000
O O12 0.613962 0.694125 0.500000
O O13 0.653431 0.764532 0.714554
O O14 0.668980 0.140630 0.500000
O O15 0.627854 0.100046 0.730865
O O16 0.577580 0.098474 0.500000
O O17 0.570196 0.000000 0.285359
#
# Coordination Sequence:
#
# PCOD8271811 Si02
#       6
#    16  16  16  16  16  16
#     4  10  21  36  53  74 102 134 165 200 249 307
#     4   9  16  28  48  71  97 133 175 212 243 281
#     4  10  21  36  52  72 101 133 163 199 247 301
#     4  10  20  35  56  78  99 126 164 208 251 298
#     4   8  15  28  47  72 100 132 171 213 252 286
#     4   9  17  30  49  73 102 138 180 220 253 286
#
# _framework density 17.87472
#
# number of rings (size 3 to 8) (size 9 to 14) (size 15 to 20)
#    0.000    2.667    0.000    3.000    0.000    5.667 
#    0.000    9.167    0.000    4.500    0.000    3.500 
#    0.000    0.000    0.000    0.000    0.000    0.000 
#
# Total GULP energy -595182.228093 kJ/mol
# GULP energy per Si atom -12399.629752 kJ/mol
# Density = 1.783404 g / cm^3
# Si number density = 17.874720 Si / 1000 Ang^3
#
#
#
# Elastic Constant Matrix: (Units=GPa)
#
#
# Indices 1 2 3 4 5 6 
#
# 1 107.3900 56.8869 53.9128 0.0000 0.0000 0.0000
# 2 56.8869 70.9319 47.7459 0.0000 0.0000 0.0000
# 3 53.9128 47.7459 85.8787 0.0000 0.0000 0.0000
# 4 0.0000 0.0000 0.0000 24.6224 0.0000 0.0000
# 5 0.0000 0.0000 0.0000 0.0000 19.4301 0.0000
# 6 0.0000 0.0000 0.0000 0.0000 0.0000 19.7311
#
#
#
# Elastic Compliance Matrix: (Units=1/GPa)
#
#
# Indices 1 2 3 4 5 6 
#
# 1 0.017474 -0.010595 -0.005079 0.000000 0.000000 0.000000
# 2 -0.010595 0.028954 -0.009446 0.000000 0.000000 0.000000
# 3 -0.005079 -0.009446 0.020085 0.000000 0.000000 0.000000
# 4 0.000000 0.000000 0.000000 0.040613 0.000000 0.000000
# 5 0.000000 0.000000 0.000000 0.000000 0.051466 0.000000
# 6 0.000000 0.000000 0.000000 0.000000 0.000000 0.050681
#
#
# Mechanical properties :
#
#
# Convention : Reuss Voigt Hill
#
# Bulk Modulus (GPa) = 61.45663 64.58798 63.02231
# Shear Modulus (GPa) = 18.87229 19.80040 19.33635
#
# Velocity S-wave (km/s) = 3.25285 3.33187 3.29260
# Velocity P-wave (km/s) = 6.96883 7.14241 7.05615
#
# Compressibility (1/GPa) = 0.01627164
#
# Stress axis : x y z
#
# Youngs Moduli (GPa) = 57.22651 34.53808 49.78935
#
# Poissons Ratio (x) = 0.36594 0.25290
# Poissons Ratio (y) = 0.60633 0.47030
# Poissons Ratio (z) = 0.29068 0.32624
#
# Static dielectric constant tensor:
#      x y z
#    x 3.291580 0.000000 0.000000 
#    y 0.000000 3.224310 0.000000 
#    z 0.000000 0.000000 3.200730 
# 
# 
# High freq. dielectric constant tensor:
#      x y z
#    x 1.687180 0.000000 0.000000 
#    y 0.000000 1.679620 0.000000 
#    z 0.000000 0.000000 1.680250 
# 
# From -- ./inp_files/16353.got.cif
#   From: 2010.03.12/outbox.cif.g09.slc.cpg/sg65_9_cif.got.tgz:16353.got - 2010.04.10 20:52:16.
