data_PCOD8271754
_publ_section_title
;
Structure prediction by ZEFSAII (Michael W. Deem and Ramdas Pophale) SiO2 
 PCOD8271754
Probable space group: C M M M
;
_chemical_formula_sum "Si O2"
_cell_formula_units_Z 88
_cell_length_a 18.219354
_cell_length_b 23.836025
_cell_length_c 10.578519
_cell_angle_alpha 90.000000
_cell_angle_beta 90.000000
_cell_angle_gamma 90.000000
_cell_volume 4594.007257
_symmetry_space_group_name_H-M "C M M M"
_symmetry_group_IT_number 65
_symmetry_cell_setting 'orthorhombic'
loop_
_space_group_symop_operation_xyz
x,y,z
-x,-y,z
x,-y,-z
-x,y,-z
-x,-y,-z
x,y,-z
-x,y,z
x,-y,z
1/2+x,1/2+y,z
1/2-x,1/2-y,z
1/2+x,1/2-y,-z
1/2-x,1/2+y,-z
1/2-x,1/2-y,-z
1/2+x,1/2+y,-z
1/2-x,1/2+y,z
1/2+x,1/2-y,z
loop_
_atom_site_type_symbol
_atom_site_label
_atom_site_fract_x
_atom_site_fract_y
_atom_site_fract_z
Si Si1 0.087044 0.139828 0.268916
Si Si2 0.086904 0.936944 0.500000
Si Si3 0.313778 0.560526 0.855833
Si Si4 0.847608 0.565928 0.144380
Si Si5 0.833537 0.751601 0.647077
Si Si6 0.084408 0.362195 0.642988
O O1 0.113884 0.098809 0.380979
O O2 0.123522 0.108096 0.151057
O O3 0.120070 0.201514 0.279584
O O4 0.000000 0.144155 0.255132
O O5 0.000000 0.940808 0.500000
O O6 0.120602 0.000000 0.500000
O O7 0.338745 0.500000 0.795880
O O8 0.234403 0.579985 0.802555
O O9 0.296839 0.549003 0.000000
O O10 0.862057 0.500000 0.145029
O O11 0.902251 0.592357 0.247715
O O12 0.861263 0.588835 0.000000
O O13 0.837653 0.766894 0.500000
O O14 0.750000 0.750000 0.695768
O O15 0.868322 0.692080 0.677727
O O16 0.104426 0.383791 0.500000
O O17 0.000000 0.344176 0.646270
#
# Coordination Sequence:
#
# PCOD8271754 Si02
#       6
#    16   8  16  16  16  16
#     4  11  20  32  53  78 108 142 180 226 273 326
#     4   9  18  30  45  72 108 140 169 210 266 319
#     4   9  19  36  55  76 107 146 185 226 273 326
#     4   9  19  38  61  82 109 148 190 230 277 336
#     4  10  20  35  55  78 106 146 188 227 272 333
#     4  10  21  36  56  84 117 146 179 229 285 337
#
# _framework density 19.155391000000002
#
# number of rings (size 3 to 8) (size 9 to 14) (size 15 to 20)
#    0.000    2.273    0.909    3.273    0.000    3.273 
#    1.636    3.636    0.000    5.455    0.000    0.000 
#    0.000    0.000    0.000    0.000    0.000    0.000 
#
# Total GULP energy -545296.732290 kJ/mol
# GULP energy per Si atom -12393.107552 kJ/mol
# Density = 1.911179 g / cm^3
# Si number density = 19.155391 Si / 1000 Ang^3
#
#
#
# Elastic Constant Matrix: (Units=GPa)
#
#
# Indices 1 2 3 4 5 6 
#
# 1 106.3551 43.7851 31.0347 0.0000 0.0000 0.0000
# 2 43.7851 85.0495 39.3060 0.0000 0.0000 0.0000
# 3 31.0347 39.3060 66.4443 0.0000 0.0000 0.0000
# 4 0.0000 0.0000 0.0000 21.9591 0.0000 0.0000
# 5 0.0000 0.0000 0.0000 0.0000 25.8986 0.0000
# 6 0.0000 0.0000 0.0000 0.0000 0.0000 34.8378
#
#
#
# Elastic Compliance Matrix: (Units=1/GPa)
#
#
# Indices 1 2 3 4 5 6 
#
# 1 0.012285 -0.005055 -0.002748 0.000000 0.000000 0.000000
# 2 -0.005055 0.018262 -0.008442 0.000000 0.000000 0.000000
# 3 -0.002748 -0.008442 0.021328 0.000000 0.000000 0.000000
# 4 0.000000 0.000000 0.000000 0.045539 0.000000 0.000000
# 5 0.000000 0.000000 0.000000 0.000000 0.038612 0.000000
# 6 0.000000 0.000000 0.000000 0.000000 0.000000 0.028704
#
#
# Mechanical properties :
#
#
# Convention : Reuss Voigt Hill
#
# Bulk Modulus (GPa) = 51.58562 54.01117 52.79839
# Shear Modulus (GPa) = 24.54814 26.12065 25.33439
#
# Velocity S-wave (km/s) = 3.58372 3.69673 3.64066
# Velocity P-wave (km/s) = 6.64174 6.81752 6.73020
#
# Compressibility (1/GPa) = 0.01938525
#
# Stress axis : x y z
#
# Youngs Moduli (GPa) = 81.39813 54.75976 46.88735
#
# Poissons Ratio (x) = 0.27679 0.12885
# Poissons Ratio (y) = 0.41144 0.39582
# Poissons Ratio (z) = 0.22368 0.46228
#
# Static dielectric constant tensor:
#      x y z
#    x 3.434990 0.000000 0.000000 
#    y 0.000000 3.409050 0.000000 
#    z 0.000000 0.000000 3.386040 
# 
# 
# High freq. dielectric constant tensor:
#      x y z
#    x 1.745870 0.000000 0.000000 
#    y 0.000000 1.744110 0.000000 
#    z 0.000000 0.000000 1.726820 
# 
# From -- ./inp_files/26793.got.cif
#   From: 2010.03.12/outbox.cif.g09.slc.cpg/sg65_14_cif.got.tgz:26793.got - 2010.04.10 20:52:16.
