data_PCOD8271017
_publ_section_title
;
Structure prediction by ZEFSAII (Michael W. Deem and Ramdas Pophale) SiO2 
 PCOD8271017
Probable space group: C M M M
;
_chemical_formula_sum "Si O2"
_cell_formula_units_Z 72
_cell_length_a 14.463833
_cell_length_b 32.982302
_cell_length_c 8.865892
_cell_angle_alpha 90.000000
_cell_angle_beta 90.000000
_cell_angle_gamma 90.000000
_cell_volume 4229.478283
_symmetry_space_group_name_H-M "C M M M"
_symmetry_group_IT_number 65
_symmetry_cell_setting 'orthorhombic'
loop_
_space_group_symop_operation_xyz
x,y,z
-x,-y,z
x,-y,-z
-x,y,-z
-x,-y,-z
x,y,-z
-x,y,z
x,-y,z
1/2+x,1/2+y,z
1/2-x,1/2-y,z
1/2+x,1/2-y,-z
1/2-x,1/2+y,-z
1/2-x,1/2-y,-z
1/2+x,1/2+y,-z
1/2-x,1/2+y,z
1/2+x,1/2-y,z
loop_
_atom_site_type_symbol
_atom_site_label
_atom_site_fract_x
_atom_site_fract_y
_atom_site_fract_z
Si Si1 0.649515 0.268014 0.164462
Si Si2 0.398944 0.817701 0.823452
Si Si3 0.213336 0.155560 0.322864
Si Si4 0.390351 0.500000 0.330592
Si Si5 0.106438 0.082130 0.177978
O O1 0.750000 0.250000 0.144227
O O2 0.589902 0.229884 0.223682
O O3 0.650651 0.305418 0.280217
O O4 0.613761 0.283505 0.000000
O O5 0.500000 0.837749 0.792628
O O6 0.320013 0.840039 0.727997
O O7 0.372021 0.820573 0.000000
O O8 0.209813 0.149375 0.500000
O O9 0.170724 0.116912 0.242971
O O10 0.500000 0.500000 0.332237
O O11 0.350116 0.500000 0.500000
O O12 0.355379 0.460121 0.244052
O O13 0.000000 0.089812 0.226024
O O14 0.116762 0.080570 0.000000
#
# Coordination Sequence:
#
# PCOD8271017 Si02
#       5
#    16  16  16   8  16
#     4   8  15  29  46  63  86 119 159 198 236 281
#     4   9  18  33  51  68  90 126 169 207 243 286
#     4  11  21  31  46  71 101 128 158 201 248 288
#     4   9  17  31  51  75 102 125 148 187 239 289
#     4  10  20  34  52  72  96 129 165 195 228 280
#
# _framework density 17.023377
#
# number of rings (size 3 to 8) (size 9 to 14) (size 15 to 20)
#    0.000    2.556    0.000    4.333    0.000    8.000 
#    0.000    2.222    0.000    0.000    0.000    0.778 
#    0.000    6.222    0.000    0.000    0.000    0.000 
#
# Total GULP energy -446150.025017 kJ/mol
# GULP energy per Si atom -12393.056250 kJ/mol
# Density = 1.698463 g / cm^3
# Si number density = 17.023377 Si / 1000 Ang^3
#
#
#
# Elastic Constant Matrix: (Units=GPa)
#
#
# Indices 1 2 3 4 5 6 
#
# 1 65.8364 36.8151 25.8856 0.0000 0.0000 0.0000
# 2 36.8151 110.5862 41.1325 0.0000 0.0000 0.0000
# 3 25.8856 41.1325 80.2277 0.0000 0.0000 0.0000
# 4 0.0000 0.0000 0.0000 57.4987 0.0000 0.0000
# 5 0.0000 0.0000 0.0000 0.0000 17.3310 0.0000
# 6 0.0000 0.0000 0.0000 0.0000 0.0000 17.1297
#
#
#
# Elastic Compliance Matrix: (Units=1/GPa)
#
#
# Indices 1 2 3 4 5 6 
#
# 1 0.019497 -0.005129 -0.003661 0.000000 0.000000 0.000000
# 2 -0.005129 0.012523 -0.004766 0.000000 0.000000 0.000000
# 3 -0.003661 -0.004766 0.016089 0.000000 0.000000 0.000000
# 4 0.000000 0.000000 0.000000 0.017392 0.000000 0.000000
# 5 0.000000 0.000000 0.000000 0.000000 0.057700 0.000000
# 6 0.000000 0.000000 0.000000 0.000000 0.000000 0.058378
#
#
# Mechanical properties :
#
#
# Convention : Reuss Voigt Hill
#
# Bulk Modulus (GPa) = 47.62476 51.59073 49.60775
# Shear Modulus (GPa) = 23.18162 28.57970 25.88066
#
# Velocity S-wave (km/s) = 3.69420 4.10182 3.90333
# Velocity P-wave (km/s) = 6.79948 7.26670 7.03697
#
# Compressibility (1/GPa) = 0.02099748
#
# Stress axis : x y z
#
# Youngs Moduli (GPa) = 51.29092 79.85504 62.15413
#
# Poissons Ratio (x) = 0.40957 0.22755
# Poissons Ratio (y) = 0.26306 0.29620
# Poissons Ratio (z) = 0.18778 0.38055
#
# Static dielectric constant tensor:
#      x y z
#    x 2.351530 0.000000 0.000000 
#    y 0.000000 3.331480 0.000000 
#    z 0.000000 0.000000 3.194550 
# 
# 
# High freq. dielectric constant tensor:
#      x y z
#    x 1.635790 0.000000 0.000000 
#    y 0.000000 1.640790 0.000000 
#    z 0.000000 0.000000 1.657430 
# 
# From -- ./inp_files/7683.got.cif
#   From: 2010.03.12/outbox.cif.g09.slc.cpg/sg65_4_cif.got.tgz:7683.got - 2010.04.10 20:52:16.
