data_PCOD8271014
_publ_section_title
;
Structure prediction by ZEFSAII (Michael W. Deem and Ramdas Pophale) SiO2 
 PCOD8271014
Probable space group: C M M M
;
_chemical_formula_sum "Si O2"
_cell_formula_units_Z 104
_cell_length_a 8.874811
_cell_length_b 28.861649
_cell_length_c 23.382056
_cell_angle_alpha 90.000000
_cell_angle_beta 90.000000
_cell_angle_gamma 90.000000
_cell_volume 5989.119106
_symmetry_space_group_name_H-M "C M M M"
_symmetry_group_IT_number 65
_symmetry_cell_setting 'orthorhombic'
loop_
_space_group_symop_operation_xyz
x,y,z
-x,-y,z
x,-y,-z
-x,y,-z
-x,-y,-z
x,y,-z
-x,y,z
x,-y,z
1/2+x,1/2+y,z
1/2-x,1/2-y,z
1/2+x,1/2-y,-z
1/2-x,1/2+y,-z
1/2-x,1/2-y,-z
1/2+x,1/2+y,-z
1/2-x,1/2+y,z
1/2+x,1/2-y,z
loop_
_atom_site_type_symbol
_atom_site_label
_atom_site_fract_x
_atom_site_fract_y
_atom_site_fract_z
Si Si1 0.821416 0.889733 0.724408
Si Si2 0.663953 0.945364 0.500000
Si Si3 0.173714 0.886308 0.935869
Si Si4 0.178924 0.553605 0.623997
Si Si5 0.322344 0.202263 0.239124
Si Si6 0.678933 0.448266 0.167380
Si Si7 0.676277 0.202896 0.892536
O O1 0.771713 0.915461 0.667413
O O2 0.746422 0.839332 0.724094
O O3 0.761267 0.918880 0.778817
O O4 0.000000 0.884306 0.726057
O O5 0.500000 0.921541 0.500000
O O6 0.742423 0.932039 0.439596
O O7 0.640688 0.000000 0.500000
O O8 0.235463 0.924421 0.891283
O O9 0.266002 0.839142 0.930702
O O10 0.000000 0.874997 0.922390
O O11 0.194242 0.906084 0.000000
O O12 0.214629 0.500000 0.637072
O O13 0.000000 0.562715 0.628600
O O14 0.500000 0.204444 0.248221
O O15 0.250000 0.250000 0.261458
O O16 0.277305 0.194033 0.173157
O O17 0.500000 0.451058 0.168678
O O18 0.747869 0.500000 0.170340
O O19 0.500000 0.207888 0.900052
O O20 0.750000 0.250000 0.915576
#
# Coordination Sequence:
#
# PCOD8271014 Si02
#       7
#    16   8  16  16  16  16  16
#     4  11  20  31  50  75 106 137 166 205 253 302
#     4   7  12  26  47  69  98 139 180 215 251 289
#     4  10  20  34  52  72  95 126 166 207 248 298
#     4   9  17  30  49  74 105 141 180 217 251 292
#     4  10  20  34  53  76 100 128 163 202 251 305
#     4   9  18  32  49  70  97 128 163 205 249 291
#     4  10  20  34  54  75  98 124 155 197 249 305
#
# _framework density 17.364823999999999
#
# number of rings (size 3 to 8) (size 9 to 14) (size 15 to 20)
#    0.000    2.385    1.538    2.769    0.000    3.077 
#    0.000    1.923    0.000    2.769    0.000    1.615 
#    0.000    0.000    0.000    0.000    0.000    0.000 
#
# Total GULP energy -644689.408369 kJ/mol
# GULP energy per Si atom -12397.873238 kJ/mol
# Density = 1.732530 g / cm^3
# Si number density = 17.364824 Si / 1000 Ang^3
#
#
#
# Elastic Constant Matrix: (Units=GPa)
#
#
# Indices 1 2 3 4 5 6 
#
# 1 51.5069 34.3215 29.6232 0.0000 0.0000 0.0000
# 2 34.3215 122.5140 58.5326 0.0000 0.0000 0.0000
# 3 29.6232 58.5326 118.7335 0.0000 0.0000 0.0000
# 4 0.0000 0.0000 0.0000 20.9938 0.0000 0.0000
# 5 0.0000 0.0000 0.0000 0.0000 18.3630 0.0000
# 6 0.0000 0.0000 0.0000 0.0000 0.0000 24.0098
#
#
#
# Elastic Compliance Matrix: (Units=1/GPa)
#
#
# Indices 1 2 3 4 5 6 
#
# 1 0.025022 -0.005268 -0.003646 0.000000 0.000000 0.000000
# 2 -0.005268 0.011786 -0.004496 0.000000 0.000000 0.000000
# 3 -0.003646 -0.004496 0.011548 0.000000 0.000000 0.000000
# 4 0.000000 0.000000 0.000000 0.047633 0.000000 0.000000
# 5 0.000000 0.000000 0.000000 0.000000 0.054457 0.000000
# 6 0.000000 0.000000 0.000000 0.000000 0.000000 0.041650
#
#
# Mechanical properties :
#
#
# Convention : Reuss Voigt Hill
#
# Bulk Modulus (GPa) = 46.43195 59.74543 53.08869
# Shear Modulus (GPa) = 22.11463 24.02513 23.06988
#
# Velocity S-wave (km/s) = 3.57253 3.72365 3.64887
# Velocity P-wave (km/s) = 6.61924 7.27792 6.95638
#
# Compressibility (1/GPa) = 0.02153689
#
# Stress axis : x y z
#
# Youngs Moduli (GPa) = 39.96484 84.84582 86.59326
#
# Poissons Ratio (x) = 0.44696 0.31571
# Poissons Ratio (y) = 0.21053 0.38932
# Poissons Ratio (z) = 0.14571 0.38146
#
# Static dielectric constant tensor:
#      x y z
#    x 2.989530 0.000000 0.000000 
#    y 0.000000 3.223220 0.000000 
#    z 0.000000 0.000000 3.328660 
# 
# 
# High freq. dielectric constant tensor:
#      x y z
#    x 1.653060 0.000000 0.000000 
#    y 0.000000 1.661850 0.000000 
#    z 0.000000 0.000000 1.662600 
# 
# From -- ./inp_files/60805.got.cif
#   From: 2010.03.12/outbox.cif.g09.slc.cpg/sg65_31_cif.got.tgz:60805.got - 2010.04.10 20:52:16.
