data_PCOD8271217
_publ_section_title
;
Structure prediction by ZEFSAII (Michael W. Deem and Ramdas Pophale) SiO2 
 PCOD8271217
Probable space group: C M M M
;
_chemical_formula_sum "Si O2"
_cell_formula_units_Z 96
_cell_length_a 19.871807
_cell_length_b 9.073727
_cell_length_c 29.405554
_cell_angle_alpha 90.000000
_cell_angle_beta 90.000000
_cell_angle_gamma 90.000000
_cell_volume 5302.155190
_symmetry_space_group_name_H-M "C M M M"
_symmetry_group_IT_number 65
_symmetry_cell_setting 'orthorhombic'
loop_
_space_group_symop_operation_xyz
x,y,z
-x,-y,z
x,-y,-z
-x,y,-z
-x,-y,-z
x,y,-z
-x,y,z
x,-y,z
1/2+x,1/2+y,z
1/2-x,1/2-y,z
1/2+x,1/2-y,-z
1/2-x,1/2+y,-z
1/2-x,1/2-y,-z
1/2+x,1/2+y,-z
1/2-x,1/2+y,z
1/2+x,1/2-y,z
loop_
_atom_site_type_symbol
_atom_site_label
_atom_site_fract_x
_atom_site_fract_y
_atom_site_fract_z
Si Si1 0.422044 0.168605 0.052265
Si Si2 0.181993 0.173063 0.114012
Si Si3 0.078488 0.671653 0.383993
Si Si4 0.077056 0.171166 0.292009
Si Si5 0.182142 0.170708 0.553400
Si Si6 0.817190 0.827687 0.782510
O O1 0.500000 0.202124 0.061129
O O2 0.380128 0.277465 0.083598
O O3 0.405167 0.000000 0.064746
O O4 0.403589 0.199808 0.000000
O O5 0.250000 0.250000 0.096515
O O6 0.166480 0.220334 0.165906
O O7 0.191821 0.000000 0.109054
O O8 0.096201 0.500000 0.385772
O O9 0.100516 0.734143 0.335129
O O10 0.118135 0.755895 0.423161
O O11 0.000000 0.701629 0.392663
O O12 0.120703 0.221611 0.248832
O O13 0.000000 0.204346 0.279248
O O14 0.088031 0.000000 0.303876
O O15 0.172224 0.193016 0.500000
O O16 0.250000 0.250000 0.570404
O O17 0.186780 0.000000 0.566918
O O18 0.750000 0.750000 0.764406
O O19 0.804324 0.000000 0.779312
#
# Coordination Sequence:
#
# PCOD8271217 Si02
#       6
#    16  16  16  16  16  16
#     4   9  19  36  55  75 102 135 170 210 257 308
#     4  10  20  34  53  77 105 136 172 213 256 305
#     4  10  21  36  54  78 108 140 175 215 257 303
#     4   9  18  34  54  74 100 135 173 212 255 303
#     4  10  21  37  57  80 106 137 174 215 259 309
#     4   9  19  34  52  75 102 133 168 209 256 304
#
# _framework density 18.105846
#
# number of rings (size 3 to 8) (size 9 to 14) (size 15 to 20)
#    0.000    2.500    0.000    2.000    0.000    6.000 
#    0.000    5.833    0.000    2.000    0.000    0.000 
#    0.000    0.000    0.000    0.000    0.000    0.000 
#
# Total GULP energy -595367.433172 kJ/mol
# GULP energy per Si atom -12403.488191 kJ/mol
# Density = 1.806464 g / cm^3
# Si number density = 18.105846 Si / 1000 Ang^3
#
#
#
# Elastic Constant Matrix: (Units=GPa)
#
#
# Indices 1 2 3 4 5 6 
#
# 1 98.9859 56.5732 64.0441 0.0000 0.0000 0.0000
# 2 56.5732 92.6470 52.9430 0.0000 0.0000 0.0000
# 3 64.0441 52.9430 81.0610 0.0000 0.0000 0.0000
# 4 0.0000 0.0000 0.0000 28.7568 0.0000 0.0000
# 5 0.0000 0.0000 0.0000 0.0000 32.6010 0.0000
# 6 0.0000 0.0000 0.0000 0.0000 0.0000 35.9603
#
#
#
# Elastic Compliance Matrix: (Units=1/GPa)
#
#
# Indices 1 2 3 4 5 6 
#
# 1 0.022400 -0.005688 -0.013983 0.000000 0.000000 0.000000
# 2 -0.005688 0.018665 -0.007697 0.000000 0.000000 0.000000
# 3 -0.013983 -0.007697 0.028411 0.000000 0.000000 0.000000
# 4 0.000000 0.000000 0.000000 0.034774 0.000000 0.000000
# 5 0.000000 0.000000 0.000000 0.000000 0.030674 0.000000
# 6 0.000000 0.000000 0.000000 0.000000 0.000000 0.027808
#
#
# Mechanical properties :
#
#
# Convention : Reuss Voigt Hill
#
# Bulk Modulus (GPa) = 67.83781 68.86829 68.35305
# Shear Modulus (GPa) = 22.48382 26.07253 24.27817
#
# Velocity S-wave (km/s) = 3.52774 3.79886 3.66581
# Velocity P-wave (km/s) = 7.35812 7.57369 7.46669
#
# Compressibility (1/GPa) = 0.01474104
#
# Stress axis : x y z
#
# Youngs Moduli (GPa) = 44.64257 53.57567 35.19755
#
# Poissons Ratio (x) = 0.30472 0.49217
# Poissons Ratio (y) = 0.25391 0.27092
# Poissons Ratio (z) = 0.62424 0.41237
#
# Static dielectric constant tensor:
#      x y z
#    x 3.358490 0.000000 0.000000 
#    y 0.000000 3.378550 0.000000 
#    z 0.000000 0.000000 3.345500 
# 
# 
# High freq. dielectric constant tensor:
#      x y z
#    x 1.703860 0.000000 0.000000 
#    y 0.000000 1.706810 0.000000 
#    z 0.000000 0.000000 1.699630 
# 
# From -- ./inp_files/73087.got.cif
#   From: 2010.03.12/outbox.cif.g09.slc.cpg/sg65_37_cif.got.tgz:73087.got - 2010.04.10 20:52:16.
