data_PCOD8271076
_publ_section_title
;
Structure prediction by ZEFSAII (Michael W. Deem and Ramdas Pophale) SiO2 
 PCOD8271076
Probable space group: C M M M
;
_chemical_formula_sum "Si O2"
_cell_formula_units_Z 56
_cell_length_a 14.037464
_cell_length_b 24.073651
_cell_length_c 8.583843
_cell_angle_alpha 90.000000
_cell_angle_beta 90.000000
_cell_angle_gamma 90.000000
_cell_volume 2900.763896
_symmetry_space_group_name_H-M "C M M M"
_symmetry_group_IT_number 65
_symmetry_cell_setting 'orthorhombic'
loop_
_space_group_symop_operation_xyz
x,y,z
-x,-y,z
x,-y,-z
-x,y,-z
-x,-y,-z
x,y,-z
-x,y,z
x,-y,z
1/2+x,1/2+y,z
1/2-x,1/2-y,z
1/2+x,1/2-y,-z
1/2-x,1/2+y,-z
1/2-x,1/2-y,-z
1/2+x,1/2+y,-z
1/2-x,1/2+y,z
1/2+x,1/2-y,z
loop_
_atom_site_type_symbol
_atom_site_label
_atom_site_fract_x
_atom_site_fract_y
_atom_site_fract_z
Si Si1 0.890525 0.738560 0.317609
Si Si2 0.225591 0.832278 0.818031
Si Si3 0.500000 0.934416 0.826219
Si Si4 0.302564 0.936735 0.316632
O O1 0.873482 0.728926 0.500000
O O2 0.858881 0.801040 0.273194
O O3 0.827433 0.695039 0.221872
O O4 0.000000 0.729622 0.270819
O O5 0.225735 0.896775 0.765713
O O6 0.205667 0.827801 0.000000
O O7 0.592813 0.915154 0.732063
O O8 0.500000 0.000000 0.838388
O O9 0.500000 0.908327 0.000000
O O10 0.292634 0.931512 0.500000
O O11 0.284247 0.000000 0.260852
#
# Coordination Sequence:
#
# PCOD8271076 Si02
#       4
#    16  16   8  16
#     4  10  21  38  59  80 106 141 181 224 268 319
#     4  11  22  35  55  82 112 142 177 223 270 321
#     4   9  17  29  45  69 101 135 173 215 260 309
#     4  10  20  34  52  74 105 144 182 219 262 318
#
# _framework density 19.305261000000002
#
# number of rings (size 3 to 8) (size 9 to 14) (size 15 to 20)
#    0.000    1.857    0.000    6.429    2.000    5.714 
#    0.000    0.000    0.000    0.857    0.000    6.000 
#    0.000    0.000    0.000    0.000    0.000    0.000 
#
# Total GULP energy -347232.818499 kJ/mol
# GULP energy per Si atom -12401.172089 kJ/mol
# Density = 1.926132 g / cm^3
# Si number density = 19.305261 Si / 1000 Ang^3
#
#
#
# Elastic Constant Matrix: (Units=GPa)
#
#
# Indices 1 2 3 4 5 6 
#
# 1 43.9014 -0.3209 8.5373 0.0000 0.0000 0.0000
# 2 -0.3209 75.1298 9.2886 0.0000 0.0000 0.0000
# 3 8.5373 9.2886 65.9346 0.0000 0.0000 0.0000
# 4 0.0000 0.0000 0.0000 31.4935 0.0000 0.0000
# 5 0.0000 0.0000 0.0000 0.0000 14.4653 0.0000
# 6 0.0000 0.0000 0.0000 0.0000 0.0000 18.2712
#
#
#
# Elastic Compliance Matrix: (Units=1/GPa)
#
#
# Indices 1 2 3 4 5 6 
#
# 1 0.023384 0.000483 -0.003096 0.000000 0.000000 0.000000
# 2 0.000483 0.013556 -0.001972 0.000000 0.000000 0.000000
# 3 -0.003096 -0.001972 0.015845 0.000000 0.000000 0.000000
# 4 0.000000 0.000000 0.000000 0.031753 0.000000 0.000000
# 5 0.000000 0.000000 0.000000 0.000000 0.069131 0.000000
# 6 0.000000 0.000000 0.000000 0.000000 0.000000 0.054731
#
#
# Mechanical properties :
#
#
# Convention : Reuss Voigt Hill
#
# Bulk Modulus (GPa) = 22.92816 24.44178 23.68497
# Shear Modulus (GPa) = 21.54165 24.01006 22.77585
#
# Velocity S-wave (km/s) = 3.34405 3.53045 3.43851
# Velocity P-wave (km/s) = 5.17809 5.41359 5.29715
#
# Compressibility (1/GPa) = 0.04361449
#
# Stress axis : x y z
#
# Youngs Moduli (GPa) = 42.76453 73.76701 63.11051
#
# Poissons Ratio (x) = -0.03560 0.19538
# Poissons Ratio (y) = -0.02064 0.12447
# Poissons Ratio (z) = 0.13239 0.14549
#
# Static dielectric constant tensor:
#      x y z
#    x 3.407460 0.000000 0.000000 
#    y 0.000000 3.690430 0.000000 
#    z 0.000000 0.000000 3.578990 
# 
# 
# High freq. dielectric constant tensor:
#      x y z
#    x 1.713880 0.000000 0.000000 
#    y 0.000000 1.755090 0.000000 
#    z 0.000000 0.000000 1.765160 
# 
# From -- ./inp_files/6245.got.cif
#   From: 2010.03.12/outbox.cif.g09.slc.cpg/sg65_4_cif.got.tgz:6245.got - 2010.04.10 20:52:16.
