data_PCOD8271325
_publ_section_title
;
Structure prediction by ZEFSAII (Michael W. Deem and Ramdas Pophale) SiO2 
 PCOD8271325
Probable space group: C M M M
;
_chemical_formula_sum "Si O2"
_cell_formula_units_Z 80
_cell_length_a 8.225028
_cell_length_b 19.554211
_cell_length_c 26.902596
_cell_angle_alpha 90.000000
_cell_angle_beta 90.000000
_cell_angle_gamma 90.000000
_cell_volume 4326.850322
_symmetry_space_group_name_H-M "C M M M"
_symmetry_group_IT_number 65
_symmetry_cell_setting 'orthorhombic'
loop_
_space_group_symop_operation_xyz
x,y,z
-x,-y,z
x,-y,-z
-x,y,-z
-x,-y,-z
x,y,-z
-x,y,z
x,-y,z
1/2+x,1/2+y,z
1/2-x,1/2-y,z
1/2+x,1/2-y,-z
1/2-x,1/2+y,-z
1/2-x,1/2-y,-z
1/2+x,1/2+y,-z
1/2-x,1/2+y,z
1/2+x,1/2-y,z
loop_
_atom_site_type_symbol
_atom_site_label
_atom_site_fract_x
_atom_site_fract_y
_atom_site_fract_z
Si Si1 0.187069 0.177631 0.709534
Si Si2 0.814687 0.919817 0.382095
Si Si3 0.189460 0.577956 0.000000
Si Si4 0.000000 0.580983 0.555577
Si Si5 0.687025 0.174876 0.183647
Si Si6 0.811745 0.075518 0.897925
O O1 0.250000 0.250000 0.687874
O O2 0.213988 0.118886 0.669307
O O3 0.284665 0.156535 0.758688
O O4 0.000000 0.186007 0.724578
O O5 0.669477 0.894561 0.418658
O O6 0.000000 0.904399 0.402617
O O7 0.796570 0.000000 0.371446
O O8 0.252141 0.612647 0.948892
O O9 0.253690 0.500000 0.000000
O O10 0.000000 0.583778 0.000000
O O11 0.000000 0.500000 0.553693
O O12 0.000000 0.611808 0.500000
O O13 0.500000 0.170598 0.170530
O O14 0.750000 0.250000 0.171068
O O15 0.777184 0.120251 0.150097
O O16 0.000000 0.065407 0.902477
O O17 0.729170 0.000000 0.891908
#
# Coordination Sequence:
#
# PCOD8271325 Si02
#       6
#    16  16   8   8  16  16
#     4  10  20  34  54  78 103 140 178 213 263 318
#     4   9  19  34  53  80 110 140 179 224 266 313
#     4   9  17  31  52  77 104 133 172 215 257 315
#     4   9  18  32  54  82 110 142 177 218 270 318
#     4  11  22  36  54  76 106 139 176 218 264 318
#     4  10  20  35  55  78 105 138 174 215 264 314
#
# _framework density 18.4892
#
# number of rings (size 3 to 8) (size 9 to 14) (size 15 to 20)
#    0.000    2.200    0.000    4.500    2.800    3.600 
#    0.000    4.500    0.000    0.600    0.000    0.000 
#    0.000    0.000    0.000    0.000    0.000    0.000 
#
# Total GULP energy -495817.470651 kJ/mol
# GULP energy per Si atom -12395.436766 kJ/mol
# Density = 1.844712 g / cm^3
# Si number density = 18.489200 Si / 1000 Ang^3
#
#
#
# Elastic Constant Matrix: (Units=GPa)
#
#
# Indices 1 2 3 4 5 6 
#
# 1 101.1919 27.2211 44.4842 0.0000 0.0000 0.0000
# 2 27.2211 57.6442 52.2139 0.0000 0.0000 0.0000
# 3 44.4842 52.2139 109.8413 0.0000 0.0000 0.0000
# 4 0.0000 0.0000 0.0000 -24.4620 0.0000 0.0000
# 5 0.0000 0.0000 0.0000 0.0000 35.0625 0.0000
# 6 0.0000 0.0000 0.0000 0.0000 0.0000 23.9257
#
#
#
# Elastic Compliance Matrix: (Units=1/GPa)
#
#
# Indices 1 2 3 4 5 6 
#
# 1 0.012187 -0.002256 -0.003863 0.000000 0.000000 0.000000
# 2 -0.002256 0.030883 -0.013767 0.000000 0.000000 0.000000
# 3 -0.003863 -0.013767 0.017213 0.000000 0.000000 0.000000
# 4 0.000000 0.000000 0.000000 -0.040880 0.000000 0.000000
# 5 0.000000 0.000000 0.000000 0.000000 0.028521 0.000000
# 6 0.000000 0.000000 0.000000 0.000000 0.000000 0.041796
#
#
# Mechanical properties :
#
#
# Convention : Reuss Voigt Hill
#
# Bulk Modulus (GPa) = 48.75401 57.39064 53.07233
# Shear Modulus (GPa) = 36.67585 16.55579 26.61582
#
# Velocity S-wave (km/s) = 4.45864 2.99562 3.79823
# Velocity P-wave (km/s) = 7.27544 6.56296 6.92837
#
# Compressibility (1/GPa) = 0.02051113
#
# Stress axis : x y z
#
# Youngs Moduli (GPa) = 82.05203 32.38019 58.09587
#
# Poissons Ratio (x) = 0.07304 0.22445
# Poissons Ratio (y) = 0.18508 0.79980
# Poissons Ratio (z) = 0.31701 0.44578
#
# Static dielectric constant tensor:
#      x y z
#    x 3.684540 0.000000 0.000000 
#    y 0.000000 3.180250 0.000000 
#    z 0.000000 0.000000 3.771670 
# 
# 
# High freq. dielectric constant tensor:
#      x y z
#    x 1.738930 0.000000 0.000000 
#    y 0.000000 1.688570 0.000000 
#    z 0.000000 0.000000 1.714560 
# 
# From -- ./inp_files/72892.got.cif
#   From: 2010.03.12/outbox.cif.g09.slc.cpg/sg65_37_cif.got.tgz:72892.got - 2010.04.10 20:52:16.
