data_PCOD8271297
_publ_section_title
;
Structure prediction by ZEFSAII (Michael W. Deem and Ramdas Pophale) SiO2 
 PCOD8271297
Probable space group: C M M M
;
_chemical_formula_sum "Si O2"
_cell_formula_units_Z 88
_cell_length_a 23.163797
_cell_length_b 24.149851
_cell_length_c 7.751253
_cell_angle_alpha 90.000000
_cell_angle_beta 90.000000
_cell_angle_gamma 90.000000
_cell_volume 4336.068339
_symmetry_space_group_name_H-M "C M M M"
_symmetry_group_IT_number 65
_symmetry_cell_setting 'orthorhombic'
loop_
_space_group_symop_operation_xyz
x,y,z
-x,-y,z
x,-y,-z
-x,y,-z
-x,-y,-z
x,y,-z
-x,y,z
x,-y,z
1/2+x,1/2+y,z
1/2-x,1/2-y,z
1/2+x,1/2-y,-z
1/2-x,1/2+y,-z
1/2-x,1/2-y,-z
1/2+x,1/2+y,-z
1/2-x,1/2+y,z
1/2+x,1/2-y,z
loop_
_atom_site_type_symbol
_atom_site_label
_atom_site_fract_x
_atom_site_fract_y
_atom_site_fract_z
Si Si1 0.435060 0.744101 0.297421
Si Si2 0.644856 0.842118 0.304971
Si Si3 0.121183 0.135679 0.801766
Si Si4 0.067557 0.065544 0.500000
Si Si5 0.762728 0.189956 0.195246
Si Si6 0.064867 0.437004 0.797740
O O1 0.426176 0.733794 0.500000
O O2 0.500000 0.762862 0.255825
O O3 0.393742 0.792653 0.226097
O O4 0.421959 0.687654 0.197735
O O5 0.660797 0.828080 0.500000
O O6 0.705095 0.847357 0.203392
O O7 0.610571 0.899395 0.300103
O O8 0.097366 0.088515 0.674134
O O9 0.183164 0.156586 0.724772
O O10 0.125357 0.112933 0.000000
O O11 0.000000 0.082222 0.500000
O O12 0.075852 0.000000 0.500000
O O13 0.750000 0.250000 0.285440
O O14 0.781300 0.201611 0.000000
O O15 0.079104 0.500000 0.748754
O O16 0.000000 0.422119 0.736839
O O17 0.070838 0.427242 0.000000
#
# Coordination Sequence:
#
# PCOD8271297 Si02
#       6
#    16  16  16   8  16  16
#     4  10  20  34  53  84 128 164 195 247 309 365
#     4  11  22  33  55  88 120 158 202 246 299 361
#     4  11  23  40  66  96 125 162 208 253 306 373
#     4  11  26  48  71  94 126 164 201 258 324 379
#     4  10  21  38  59  86 122 161 199 243 296 361
#     4   9  19  37  58  78 109 157 206 252 300 348
#
# _framework density 20.294881
#
# number of rings (size 3 to 8) (size 9 to 14) (size 15 to 20)
#    0.000    1.727    2.727    2.182    1.273    4.364 
#    0.000    2.727    0.000    1.091    0.000    0.000 
#    0.000    0.000    0.000    0.000    0.000    0.000 
#
# Total GULP energy -545581.843575 kJ/mol
# GULP energy per Si atom -12399.587354 kJ/mol
# Density = 2.024869 g / cm^3
# Si number density = 20.294881 Si / 1000 Ang^3
#
#
#
# Elastic Constant Matrix: (Units=GPa)
#
#
# Indices 1 2 3 4 5 6 
#
# 1 146.8335 55.6054 37.0998 0.0000 0.0000 0.0000
# 2 55.6054 104.0519 32.1069 0.0000 0.0000 0.0000
# 3 37.0998 32.1069 67.4988 0.0000 0.0000 0.0000
# 4 0.0000 0.0000 0.0000 23.1000 0.0000 0.0000
# 5 0.0000 0.0000 0.0000 0.0000 24.0318 0.0000
# 6 0.0000 0.0000 0.0000 0.0000 0.0000 29.9582
#
#
#
# Elastic Compliance Matrix: (Units=1/GPa)
#
#
# Indices 1 2 3 4 5 6 
#
# 1 0.009073 -0.003879 -0.003142 0.000000 0.000000 0.000000
# 2 -0.003879 0.012922 -0.004015 0.000000 0.000000 0.000000
# 3 -0.003142 -0.004015 0.018451 0.000000 0.000000 0.000000
# 4 0.000000 0.000000 0.000000 0.043290 0.000000 0.000000
# 5 0.000000 0.000000 0.000000 0.000000 0.041612 0.000000
# 6 0.000000 0.000000 0.000000 0.000000 0.000000 0.033380
#
#
# Mechanical properties :
#
#
# Convention : Reuss Voigt Hill
#
# Bulk Modulus (GPa) = 54.41888 63.11205 58.76547
# Shear Modulus (GPa) = 26.74862 28.32279 27.53570
#
# Velocity S-wave (km/s) = 3.63436 3.73978 3.68745
# Velocity P-wave (km/s) = 6.66962 7.05783 6.86647
#
# Compressibility (1/GPa) = 0.01837597
#
# Stress axis : x y z
#
# Youngs Moduli (GPa) = 110.21280 77.38452 54.19616
#
# Poissons Ratio (x) = 0.30020 0.17027
# Poissons Ratio (y) = 0.42756 0.21757
# Poissons Ratio (z) = 0.34626 0.31066
#
# Static dielectric constant tensor:
#      x y z
#    x 3.804860 0.000000 0.000000 
#    y 0.000000 3.505470 0.000000 
#    z 0.000000 0.000000 3.578280 
# 
# 
# High freq. dielectric constant tensor:
#      x y z
#    x 1.802670 0.000000 0.000000 
#    y 0.000000 1.770250 0.000000 
#    z 0.000000 0.000000 1.785940 
# 
# From -- ./inp_files/11790.got.cif
#   From: 2010.03.12/outbox.cif.g09.slc.cpg/sg65_6_cif.got.tgz:11790.got - 2010.04.10 20:52:16.
