data_PCOD8271095
_publ_section_title
;
Structure prediction by ZEFSAII (Michael W. Deem and Ramdas Pophale) SiO2 
 PCOD8271095
Probable space group: C M M M
;
_chemical_formula_sum "Si O2"
_cell_formula_units_Z 72
_cell_length_a 8.960518
_cell_length_b 18.128439
_cell_length_c 23.218576
_cell_angle_alpha 90.000000
_cell_angle_beta 90.000000
_cell_angle_gamma 90.000000
_cell_volume 3771.630221
_symmetry_space_group_name_H-M "C M M M"
_symmetry_group_IT_number 65
_symmetry_cell_setting 'orthorhombic'
loop_
_space_group_symop_operation_xyz
x,y,z
-x,-y,z
x,-y,-z
-x,y,-z
-x,-y,-z
x,y,-z
-x,y,z
x,-y,z
1/2+x,1/2+y,z
1/2-x,1/2-y,z
1/2+x,1/2-y,-z
1/2-x,1/2+y,-z
1/2-x,1/2-y,-z
1/2+x,1/2+y,-z
1/2-x,1/2+y,z
1/2+x,1/2-y,z
loop_
_atom_site_type_symbol
_atom_site_label
_atom_site_fract_x
_atom_site_fract_y
_atom_site_fract_z
Si Si1 0.668683 0.587555 0.264315
Si Si2 0.324116 0.171603 0.164037
Si Si3 0.828396 0.084609 0.933415
Si Si4 0.322570 0.919046 0.500000
Si Si5 0.167700 0.411766 0.376740
O O1 0.500000 0.615354 0.254824
O O2 0.678370 0.500000 0.262119
O O3 0.774389 0.617412 0.214600
O O4 0.724566 0.617289 0.326310
O O5 0.500000 0.180938 0.164853
O O6 0.250000 0.250000 0.174103
O O7 0.276230 0.138184 0.102835
O O8 0.000000 0.097203 0.915315
O O9 0.783449 0.000000 0.921564
O O10 0.804746 0.104462 0.000000
O O11 0.500000 0.927063 0.500000
O O12 0.276469 0.879552 0.560634
O O13 0.248426 0.000000 0.500000
O O14 0.169885 0.500000 0.380366
O O15 0.000000 0.384418 0.363008
#
# Coordination Sequence:
#
# PCOD8271095 Si02
#       5
#    16  16  16   8  16
#     4  10  20  34  52  75 105 139 175 217 264 313
#     4  12  25  39  56  78 106 140 178 220 264 310
#     4   9  19  38  63  88 114 143 173 208 253 304
#     4   7  10  18  35  61  94 129 164 207 256 303
#     4   8  13  23  41  66  96 131 171 212 256 306
#
# _framework density 19.089888999999999
#
# number of rings (size 3 to 8) (size 9 to 14) (size 15 to 20)
#    0.000    2.556    0.000    5.333    0.000    5.333 
#    0.000    1.667    0.000    3.333    0.000    0.778 
#    0.000    0.000    0.000    0.000    0.000    0.000 
#
# Total GULP energy -446201.690131 kJ/mol
# GULP energy per Si atom -12394.491393 kJ/mol
# Density = 1.904644 g / cm^3
# Si number density = 19.089889 Si / 1000 Ang^3
#
#
#
# Elastic Constant Matrix: (Units=GPa)
#
#
# Indices 1 2 3 4 5 6 
#
# 1 117.3864 27.2500 52.8108 0.0000 0.0000 0.0000
# 2 27.2500 27.3737 23.3666 0.0000 0.0000 0.0000
# 3 52.8108 23.3666 125.3837 0.0000 0.0000 0.0000
# 4 0.0000 0.0000 0.0000 -0.1013 0.0000 0.0000
# 5 0.0000 0.0000 0.0000 0.0000 31.2925 0.0000
# 6 0.0000 0.0000 0.0000 0.0000 0.0000 21.3578
#
#
#
# Elastic Compliance Matrix: (Units=1/GPa)
#
#
# Indices 1 2 3 4 5 6 
#
# 1 0.012198 -0.009225 -0.003419 0.000000 0.000000 0.000000
# 2 -0.009225 0.050419 -0.005511 0.000000 0.000000 0.000000
# 3 -0.003419 -0.005511 0.010442 0.000000 0.000000 0.000000
# 4 0.000000 0.000000 0.000000 -9.873124 0.000000 0.000000
# 5 0.000000 0.000000 0.000000 0.000000 0.031957 0.000000
# 6 0.000000 0.000000 0.000000 0.000000 0.000000 0.046821
#
#
# Mechanical properties :
#
#
# Convention : Reuss Voigt Hill
#
# Bulk Modulus (GPa) = 27.21019 52.99984 40.10501
# Shear Modulus (GPa) = -0.51692 21.62422 10.55365
#
# Velocity S-wave (km/s) = -0.52093 3.36930 2.35381
# Velocity P-wave (km/s) = 3.73133 6.55437 5.33304
#
# Compressibility (1/GPa) = 0.03675094
#
# Stress axis : x y z
#
# Youngs Moduli (GPa) = 81.97794 19.83391 95.76345
#
# Poissons Ratio (x) = 0.18297 0.32739
# Poissons Ratio (y) = 0.75625 0.52771
# Poissons Ratio (z) = 0.28026 0.10930
#
# Static dielectric constant tensor:
#      x y z
#    x 3.452270 0.000000 0.000000 
#    y 0.000000 3.056990 0.000000 
#    z 0.000000 0.000000 3.930070 
# 
# 
# High freq. dielectric constant tensor:
#      x y z
#    x 1.730450 0.000000 0.000000 
#    y 0.000000 1.692200 0.000000 
#    z 0.000000 0.000000 1.768280 
# 
# From -- ./inp_files/67009.got.cif
#   From: 2010.03.12/outbox.cif.g09.slc.cpg/sg65_34_cif.got.tgz:67009.got - 2010.04.10 20:52:16.
