data_PCOD8271310
_publ_section_title
;
Structure prediction by ZEFSAII (Michael W. Deem and Ramdas Pophale) SiO2 
 PCOD8271310
Probable space group: C M M M
;
_chemical_formula_sum "Si O2"
_cell_formula_units_Z 80
_cell_length_a 16.186226
_cell_length_b 9.237314
_cell_length_c 27.110712
_cell_angle_alpha 90.000000
_cell_angle_beta 90.000000
_cell_angle_gamma 90.000000
_cell_volume 4053.519159
_symmetry_space_group_name_H-M "C M M M"
_symmetry_group_IT_number 65
_symmetry_cell_setting 'orthorhombic'
loop_
_space_group_symop_operation_xyz
x,y,z
-x,-y,z
x,-y,-z
-x,y,-z
-x,-y,-z
x,y,-z
-x,y,z
x,-y,z
1/2+x,1/2+y,z
1/2-x,1/2-y,z
1/2+x,1/2-y,-z
1/2-x,1/2+y,-z
1/2-x,1/2-y,-z
1/2+x,1/2+y,-z
1/2-x,1/2+y,z
1/2+x,1/2-y,z
loop_
_atom_site_type_symbol
_atom_site_label
_atom_site_fract_x
_atom_site_fract_y
_atom_site_fract_z
Si Si1 0.164354 0.671335 0.000000
Si Si2 0.167058 0.330831 0.275882
Si Si3 0.500000 0.171750 0.556234
Si Si4 0.402944 0.839265 0.103173
Si Si5 0.665560 0.169021 0.610041
Si Si6 0.405241 0.341224 0.192716
O O1 0.250000 0.750000 0.000000
O O2 0.115606 0.722735 0.048764
O O3 0.175993 0.500000 0.000000
O O4 0.174063 0.500000 0.264662
O O5 0.250000 0.250000 0.260373
O O6 0.145767 0.302091 0.332831
O O7 0.098212 0.258199 0.241646
O O8 0.500000 0.224912 0.500000
O O9 0.584827 0.230047 0.581254
O O10 0.500000 0.000000 0.561013
O O11 0.500000 0.847399 0.110709
O O12 0.362814 0.737459 0.145561
O O13 0.364696 0.000000 0.109249
O O14 0.750000 0.250000 0.593488
O O15 0.679786 0.000000 0.598975
O O16 0.500000 0.364304 0.180091
O O17 0.363993 0.500000 0.200928
#
# Coordination Sequence:
#
# PCOD8271310 Si02
#       6
#     8  16   8  16  16  16
#     4  10  21  35  53  77 101 128 166 212 262 314
#     4  10  20  34  54  77 106 141 181 223 270 325
#     4   9  18  34  57  85 115 151 193 234 281 338
#     4   9  18  35  56  75  98 133 176 216 257 309
#     4   9  19  35  56  82 113 149 191 236 283 338
#     4  10  21  35  52  78 109 138 173 217 266 319
#
# _framework density 19.735937
#
# number of rings (size 3 to 8) (size 9 to 14) (size 15 to 20)
#    0.000    2.500    0.000    1.500    1.400    5.200 
#    0.000    2.500    0.000    3.600    0.000    0.000 
#    0.000    0.000    0.000    0.000    0.000    0.000 
#
# Total GULP energy -495823.028051 kJ/mol
# GULP energy per Si atom -12395.575701 kJ/mol
# Density = 1.969102 g / cm^3
# Si number density = 19.735937 Si / 1000 Ang^3
#
#
#
# Elastic Constant Matrix: (Units=GPa)
#
#
# Indices 1 2 3 4 5 6 
#
# 1 81.1981 39.0253 52.0793 0.0000 0.0000 0.0000
# 2 39.0253 96.2281 61.2814 0.0000 0.0000 0.0000
# 3 52.0793 61.2814 131.5124 0.0000 0.0000 0.0000
# 4 0.0000 0.0000 0.0000 20.8548 0.0000 0.0000
# 5 0.0000 0.0000 0.0000 0.0000 15.1176 0.0000
# 6 0.0000 0.0000 0.0000 0.0000 0.0000 28.7728
#
#
#
# Elastic Compliance Matrix: (Units=1/GPa)
#
#
# Indices 1 2 3 4 5 6 
#
# 1 0.017435 -0.003802 -0.005133 0.000000 0.000000 0.000000
# 2 -0.003802 0.015606 -0.005766 0.000000 0.000000 0.000000
# 3 -0.005133 -0.005766 0.012323 0.000000 0.000000 0.000000
# 4 0.000000 0.000000 0.000000 0.047951 0.000000 0.000000
# 5 0.000000 0.000000 0.000000 0.000000 0.066148 0.000000
# 6 0.000000 0.000000 0.000000 0.000000 0.000000 0.034755
#
#
# Mechanical properties :
#
#
# Convention : Reuss Voigt Hill
#
# Bulk Modulus (GPa) = 62.64802 68.19006 65.41904
# Shear Modulus (GPa) = 21.83969 23.38590 22.61280
#
# Velocity S-wave (km/s) = 3.33016 3.44603 3.38859
# Velocity P-wave (km/s) = 6.82632 7.10350 6.96629
#
# Compressibility (1/GPa) = 0.01596220
#
# Stress axis : x y z
#
# Youngs Moduli (GPa) = 57.35633 64.07713 81.14663
#
# Poissons Ratio (x) = 0.24363 0.41649
# Poissons Ratio (y) = 0.21807 0.46793
# Poissons Ratio (z) = 0.29439 0.36950
#
# Static dielectric constant tensor:
#      x y z
#    x 3.398600 0.000000 0.000000 
#    y 0.000000 3.630960 0.000000 
#    z 0.000000 0.000000 4.842940 
# 
# 
# High freq. dielectric constant tensor:
#      x y z
#    x 1.754530 0.000000 0.000000 
#    y 0.000000 1.759440 0.000000 
#    z 0.000000 0.000000 1.774990 
# 
# From -- ./inp_files/75093.got.cif
#   From: 2010.03.12/outbox.cif.g09.slc.cpg/sg65_38_cif.got.tgz:75093.got - 2010.04.10 20:52:16.
