data_PCOD8271967
_publ_section_title
;
Structure prediction by ZEFSAII (Michael W. Deem and Ramdas Pophale) SiO2 
 PCOD8271967
Probable space group: C M M M
;
_chemical_formula_sum "Si O2"
_cell_formula_units_Z 104
_cell_length_a 18.910017
_cell_length_b 8.910614
_cell_length_c 33.807055
_cell_angle_alpha 90.000000
_cell_angle_beta 90.000000
_cell_angle_gamma 90.000000
_cell_volume 5696.484110
_symmetry_space_group_name_H-M "C M M M"
_symmetry_group_IT_number 65
_symmetry_cell_setting 'orthorhombic'
loop_
_space_group_symop_operation_xyz
x,y,z
-x,-y,z
x,-y,-z
-x,y,-z
-x,-y,-z
x,y,-z
-x,y,z
x,-y,z
1/2+x,1/2+y,z
1/2-x,1/2-y,z
1/2+x,1/2-y,-z
1/2-x,1/2+y,-z
1/2-x,1/2-y,-z
1/2+x,1/2+y,-z
1/2-x,1/2+y,z
1/2+x,1/2-y,z
loop_
_atom_site_type_symbol
_atom_site_label
_atom_site_fract_x
_atom_site_fract_y
_atom_site_fract_z
Si Si1 0.084193 0.833220 0.199261
Si Si2 0.079710 0.323172 0.722531
Si Si3 0.582992 0.324069 0.580369
Si Si4 0.083634 0.331113 0.500000
Si Si5 0.324666 0.323842 0.956008
Si Si6 0.327193 0.821224 0.350777
Si Si7 0.921640 0.820876 0.113455
O O1 0.110584 0.729578 0.235184
O O2 0.110825 0.772223 0.156353
O O3 0.000000 0.836340 0.197060
O O4 0.113793 0.000000 0.207238
O O5 0.076927 0.500000 0.722569
O O6 0.131956 0.265063 0.688458
O O7 0.000000 0.259025 0.715427
O O8 0.500000 0.292723 0.587348
O O9 0.600003 0.500000 0.582266
O O10 0.609066 0.260551 0.538285
O O11 0.627386 0.235347 0.612576
O O12 0.115732 0.500000 0.500000
O O13 0.000000 0.341133 0.500000
O O14 0.315748 0.500000 0.950353
O O15 0.250000 0.250000 0.949089
O O16 0.376217 0.255579 0.922771
O O17 0.354172 0.286575 0.000000
O O18 0.250000 0.750000 0.351268
O O19 0.320819 0.000000 0.352621
O O20 0.000000 0.753877 0.108140
O O21 0.924601 0.000000 0.112180
#
# Coordination Sequence:
#
# PCOD8271967 Si02
#       7
#    16  16  16   8  16  16  16
#     4   8  14  26  46  70  94 120 151 191 238 286
#     4   9  18  33  53  75  98 126 162 203 245 293
#     4  10  20  35  57  84 111 139 174 214 254 300
#     4   9  17  31  54  83 112 141 174 213 255 297
#     4   9  17  29  45  64  88 120 155 191 232 279
#     4  11  23  38  54  74 104 139 173 211 257 303
#     4   8  14  26  45  69  93 116 149 194 238 279
#
# _framework density 18.256875000000001
#
# number of rings (size 3 to 8) (size 9 to 14) (size 15 to 20)
#    0.000    2.846    0.000    2.538    0.000    4.000 
#    0.000    5.000    0.000    5.077    0.000    2.154 
#    0.000    0.000    0.000    0.000    0.000    0.000 
#
# Total GULP energy -644529.539531 kJ/mol
# GULP energy per Si atom -12394.798837 kJ/mol
# Density = 1.821532 g / cm^3
# Si number density = 18.256875 Si / 1000 Ang^3
#
#
#
# Elastic Constant Matrix: (Units=GPa)
#
#
# Indices 1 2 3 4 5 6 
#
# 1 71.4418 30.1957 72.3802 0.0000 0.0000 0.0000
# 2 30.1957 45.9822 40.4915 0.0000 0.0000 0.0000
# 3 72.3802 40.4915 187.0984 0.0000 0.0000 0.0000
# 4 0.0000 0.0000 0.0000 27.7720 0.0000 0.0000
# 5 0.0000 0.0000 0.0000 0.0000 2.6581 0.0000
# 6 0.0000 0.0000 0.0000 0.0000 0.0000 20.4896
#
#
#
# Elastic Compliance Matrix: (Units=1/GPa)
#
#
# Indices 1 2 3 4 5 6 
#
# 1 0.026478 -0.010338 -0.008006 0.000000 0.000000 0.000000
# 2 -0.010338 0.030904 -0.002689 0.000000 0.000000 0.000000
# 3 -0.008006 -0.002689 0.009024 0.000000 0.000000 0.000000
# 4 0.000000 0.000000 0.000000 0.036007 0.000000 0.000000
# 5 0.000000 0.000000 0.000000 0.000000 0.376210 0.000000
# 6 0.000000 0.000000 0.000000 0.000000 0.000000 0.048805
#
#
# Mechanical properties :
#
#
# Convention : Reuss Voigt Hill
#
# Bulk Modulus (GPa) = 41.08353 65.62859 53.35606
# Shear Modulus (GPa) = 8.65641 20.94762 14.80202
#
# Velocity S-wave (km/s) = 2.17985 3.39098 2.85048
# Velocity P-wave (km/s) = 5.37471 7.16638 6.33422
#
# Compressibility (1/GPa) = 0.02434065
#
# Stress axis : x y z
#
# Youngs Moduli (GPa) = 37.76770 32.35836 110.81759
#
# Poissons Ratio (x) = 0.33451 0.88719
# Poissons Ratio (y) = 0.39042 0.29799
# Poissons Ratio (z) = 0.30236 0.08701
#
# Static dielectric constant tensor:
#      x y z
#    x 3.180520 0.000000 0.000000 
#    y 0.000000 3.237370 0.000000 
#    z 0.000000 0.000000 3.827110 
# 
# 
# High freq. dielectric constant tensor:
#      x y z
#    x 1.674410 0.000000 0.000000 
#    y 0.000000 1.691520 0.000000 
#    z 0.000000 0.000000 1.729290 
# 
# From -- ./inp_files/78243.got.cif
#   From: 2010.03.12/outbox.cif.g09.slc.cpg/sg65_40_cif.got.tgz:78243.got - 2010.04.10 20:52:16.
