data_PCOD8271259
_publ_section_title
;
Structure prediction by ZEFSAII (Michael W. Deem and Ramdas Pophale) SiO2 
 PCOD8271259
Probable space group: C M M M
;
_chemical_formula_sum "Si O2"
_cell_formula_units_Z 88
_cell_length_a 27.686130
_cell_length_b 14.261466
_cell_length_c 12.882536
_cell_angle_alpha 90.000000
_cell_angle_beta 90.000000
_cell_angle_gamma 90.000000
_cell_volume 5086.602372
_symmetry_space_group_name_H-M "C M M M"
_symmetry_group_IT_number 65
_symmetry_cell_setting 'orthorhombic'
loop_
_space_group_symop_operation_xyz
x,y,z
-x,-y,z
x,-y,-z
-x,y,-z
-x,-y,-z
x,y,-z
-x,y,z
x,-y,z
1/2+x,1/2+y,z
1/2-x,1/2-y,z
1/2+x,1/2-y,-z
1/2-x,1/2+y,-z
1/2-x,1/2-y,-z
1/2+x,1/2+y,-z
1/2-x,1/2+y,z
1/2+x,1/2-y,z
loop_
_atom_site_type_symbol
_atom_site_label
_atom_site_fract_x
_atom_site_fract_y
_atom_site_fract_z
Si Si1 0.555683 0.701526 0.383233
Si Si2 0.054610 0.111437 0.000000
Si Si3 0.444564 0.896344 0.298561
Si Si4 0.614560 0.388769 0.199808
Si Si5 0.875694 0.605771 0.114938
Si Si6 0.696463 0.732326 0.119781
O O1 0.566798 0.667368 0.500000
O O2 0.500000 0.679968 0.353536
O O3 0.565360 0.814058 0.381258
O O4 0.590294 0.645426 0.306120
O O5 0.082493 0.147498 0.897536
O O6 0.000000 0.151354 0.000000
O O7 0.053477 0.000000 0.000000
O O8 0.500000 0.900327 0.267225
O O9 0.417433 0.866836 0.194133
O O10 0.428315 0.000000 0.340722
O O11 0.618925 0.500000 0.202429
O O12 0.668225 0.345979 0.187128
O O13 0.857784 0.500000 0.131339
O O14 0.829128 0.668393 0.133551
O O15 0.897291 0.621429 0.000000
O O16 0.750000 0.750000 0.164452
O O17 0.698450 0.698773 0.000000
#
# Coordination Sequence:
#
# PCOD8271259 Si02
#       6
#    16   8  16  16  16  16
#     4  10  21  36  54  79 111 146 184 223 267 323
#     4   9  18  32  51  76 107 141 176 217 262 312
#     4   9  17  30  50  76 105 137 174 215 260 313
#     4  11  21  35  54  79 110 143 184 226 270 321
#     4   9  17  30  48  73 105 135 165 205 259 321
#     4  10  20  34  53  78 108 140 176 218 267 321
#
# _framework density 17.300349000000001
#
# number of rings (size 3 to 8) (size 9 to 14) (size 15 to 20)
#    0.000    2.273    2.727    0.545    0.000    2.909 
#    0.000    6.364    0.000    0.545    0.000    0.000 
#    0.000    0.000    0.000    0.000    0.000    0.000 
#
# Total GULP energy -545469.648510 kJ/mol
# GULP energy per Si atom -12397.037466 kJ/mol
# Density = 1.726097 g / cm^3
# Si number density = 17.300349 Si / 1000 Ang^3
#
#
#
# Elastic Constant Matrix: (Units=GPa)
#
#
# Indices 1 2 3 4 5 6 
#
# 1 99.1922 40.6700 49.1858 0.0000 0.0000 0.0000
# 2 40.6700 70.6211 39.6500 0.0000 0.0000 0.0000
# 3 49.1858 39.6500 90.0033 0.0000 0.0000 0.0000
# 4 0.0000 0.0000 0.0000 21.4349 0.0000 0.0000
# 5 0.0000 0.0000 0.0000 0.0000 18.4062 0.0000
# 6 0.0000 0.0000 0.0000 0.0000 0.0000 21.7232
#
#
#
# Elastic Compliance Matrix: (Units=1/GPa)
#
#
# Indices 1 2 3 4 5 6 
#
# 1 0.015263 -0.005456 -0.005937 0.000000 0.000000 0.000000
# 2 -0.005456 0.020764 -0.006166 0.000000 0.000000 0.000000
# 3 -0.005937 -0.006166 0.017071 0.000000 0.000000 0.000000
# 4 0.000000 0.000000 0.000000 0.046653 0.000000 0.000000
# 5 0.000000 0.000000 0.000000 0.000000 0.054329 0.000000
# 6 0.000000 0.000000 0.000000 0.000000 0.000000 0.046034
#
#
# Mechanical properties :
#
#
# Convention : Reuss Voigt Hill
#
# Bulk Modulus (GPa) = 55.61700 57.64757 56.63228
# Shear Modulus (GPa) = 20.72752 21.00024 20.86388
#
# Velocity S-wave (km/s) = 3.46511 3.48783 3.47649
# Velocity P-wave (km/s) = 6.94457 7.04372 6.99432
#
# Compressibility (1/GPa) = 0.01798012
#
# Stress axis : x y z
#
# Youngs Moduli (GPa) = 65.51983 48.16055 58.57723
#
# Poissons Ratio (x) = 0.26277 0.34778
# Poissons Ratio (y) = 0.35749 0.36116
# Poissons Ratio (z) = 0.38900 0.29694
#
# Static dielectric constant tensor:
#      x y z
#    x 3.125930 0.000000 0.000000 
#    y 0.000000 3.346800 0.000000 
#    z 0.000000 0.000000 3.074570 
# 
# 
# High freq. dielectric constant tensor:
#      x y z
#    x 1.648350 0.000000 0.000000 
#    y 0.000000 1.680070 0.000000 
#    z 0.000000 0.000000 1.646420 
# 
# From -- ./inp_files/25129.got.cif
#   From: 2010.03.12/outbox.cif.g09.slc.cpg/sg65_13_cif.got.tgz:25129.got - 2010.04.10 20:52:16.
