data_PCOD8271981
_publ_section_title
;
Structure prediction by ZEFSAII (Michael W. Deem and Ramdas Pophale) SiO2 
 PCOD8271981
Probable space group: C M M M
;
_chemical_formula_sum "Si O2"
_cell_formula_units_Z 96
_cell_length_a 21.254765
_cell_length_b 24.347552
_cell_length_c 8.961421
_cell_angle_alpha 90.000000
_cell_angle_beta 90.000000
_cell_angle_gamma 90.000000
_cell_volume 4637.548775
_symmetry_space_group_name_H-M "C M M M"
_symmetry_group_IT_number 65
_symmetry_cell_setting 'orthorhombic'
loop_
_space_group_symop_operation_xyz
x,y,z
-x,-y,z
x,-y,-z
-x,y,-z
-x,-y,-z
x,y,-z
-x,y,z
x,-y,z
1/2+x,1/2+y,z
1/2-x,1/2-y,z
1/2+x,1/2-y,-z
1/2-x,1/2+y,-z
1/2-x,1/2-y,-z
1/2+x,1/2+y,-z
1/2-x,1/2+y,z
1/2+x,1/2-y,z
loop_
_atom_site_type_symbol
_atom_site_label
_atom_site_fract_x
_atom_site_fract_y
_atom_site_fract_z
Si Si1 0.265745 0.938810 0.670047
Si Si2 0.927755 0.937192 0.334660
Si Si3 0.824567 0.244136 0.325601
Si Si4 0.930494 0.330847 0.672327
Si Si5 0.164637 0.133037 0.826851
Si Si6 0.603384 0.060798 0.175139
O O1 0.285385 0.925352 0.500000
O O2 0.218580 0.892683 0.724907
O O3 0.324958 0.934961 0.775860
O O4 0.235422 0.000000 0.680914
O O5 0.897893 0.926066 0.500000
O O6 0.898287 0.900835 0.204440
O O7 0.000000 0.921469 0.342032
O O8 0.917717 0.000000 0.289766
O O9 0.835820 0.232088 0.500000
O O10 0.750000 0.250000 0.292191
O O11 0.870068 0.294631 0.273482
O O12 0.848544 0.194625 0.224582
O O13 0.920201 0.342935 0.500000
O O14 0.934810 0.389842 0.751581
O O15 0.000000 0.302825 0.699658
O O16 0.182807 0.130479 0.000000
O O17 0.576829 0.000000 0.220261
O O18 0.599230 0.068652 0.000000
#
# Coordination Sequence:
#
# PCOD8271981 Si02
#       6
#    16  16  16  16  16  16
#     4  10  20  35  57  84 116 155 197 240 286 340
#     4   9  19  37  59  81 109 150 198 244 290 343
#     4  10  22  41  63  84 110 151 202 250 295 347
#     4  10  22  40  62  88 117 152 197 247 295 345
#     4  12  24  35  54  85 118 151 188 236 296 357
#     4  10  21  37  59  89 123 155 187 229 286 348
#
# _framework density 20.700590999999999
#
# number of rings (size 3 to 8) (size 9 to 14) (size 15 to 20)
#    0.000    1.833    0.000    4.500    0.000    8.333 
#    0.000    4.167    0.000    0.000    0.000    0.000 
#    0.000    0.000    0.000    0.000    0.000    0.000 
#
# Total GULP energy -594953.994654 kJ/mol
# GULP energy per Si atom -12394.874889 kJ/mol
# Density = 2.065348 g / cm^3
# Si number density = 20.700591 Si / 1000 Ang^3
#
#
#
# Elastic Constant Matrix: (Units=GPa)
#
#
# Indices 1 2 3 4 5 6 
#
# 1 104.8478 55.3850 25.6543 0.0000 0.0000 0.0000
# 2 55.3850 106.0534 40.3391 0.0000 0.0000 0.0000
# 3 25.6543 40.3391 48.0314 0.0000 0.0000 0.0000
# 4 0.0000 0.0000 0.0000 20.6078 0.0000 0.0000
# 5 0.0000 0.0000 0.0000 0.0000 21.8828 0.0000
# 6 0.0000 0.0000 0.0000 0.0000 0.0000 38.2944
#
#
#
# Elastic Compliance Matrix: (Units=1/GPa)
#
#
# Indices 1 2 3 4 5 6 
#
# 1 0.013284 -0.006228 -0.001864 0.000000 0.000000 0.000000
# 2 -0.006228 0.016775 -0.010762 0.000000 0.000000 0.000000
# 3 -0.001864 -0.010762 0.030854 0.000000 0.000000 0.000000
# 4 0.000000 0.000000 0.000000 0.048525 0.000000 0.000000
# 5 0.000000 0.000000 0.000000 0.000000 0.045698 0.000000
# 6 0.000000 0.000000 0.000000 0.000000 0.000000 0.026113
#
#
# Mechanical properties :
#
#
# Convention : Reuss Voigt Hill
#
# Bulk Modulus (GPa) = 43.09636 55.74326 49.41981
# Shear Modulus (GPa) = 22.05615 25.32728 23.69172
#
# Velocity S-wave (km/s) = 3.26772 3.50166 3.38671
# Velocity P-wave (km/s) = 5.92464 6.58298 6.26247
#
# Compressibility (1/GPa) = 0.02320382
#
# Stress axis : x y z
#
# Youngs Moduli (GPa) = 75.27976 59.61119 32.41057
#
# Poissons Ratio (x) = 0.37127 0.06042
# Poissons Ratio (y) = 0.46885 0.34881
# Poissons Ratio (z) = 0.14035 0.64155
#
# Static dielectric constant tensor:
#      x y z
#    x 3.809070 0.000000 0.000000 
#    y 0.000000 3.892910 0.000000 
#    z 0.000000 0.000000 3.465160 
# 
# 
# High freq. dielectric constant tensor:
#      x y z
#    x 1.813190 0.000000 0.000000 
#    y 0.000000 1.810780 0.000000 
#    z 0.000000 0.000000 1.800210 
# 
# From -- ./inp_files/12223.got.cif
#   From: 2010.03.12/outbox.cif.g09.slc.cpg/sg65_7_cif.got.tgz:12223.got - 2010.04.10 20:52:16.
