data_PCOD8271506
_publ_section_title
;
Structure prediction by ZEFSAII (Michael W. Deem and Ramdas Pophale) SiO2 
 PCOD8271506
Probable space group: C M M M
;
_chemical_formula_sum "Si O2"
_cell_formula_units_Z 96
_cell_length_a 22.547499
_cell_length_b 20.059599
_cell_length_c 11.518318
_cell_angle_alpha 90.000000
_cell_angle_beta 90.000000
_cell_angle_gamma 90.000000
_cell_volume 5209.663684
_symmetry_space_group_name_H-M "C M M M"
_symmetry_group_IT_number 65
_symmetry_cell_setting 'orthorhombic'
loop_
_space_group_symop_operation_xyz
x,y,z
-x,-y,z
x,-y,-z
-x,y,-z
-x,-y,-z
x,y,-z
-x,y,z
x,-y,z
1/2+x,1/2+y,z
1/2-x,1/2-y,z
1/2+x,1/2-y,-z
1/2-x,1/2+y,-z
1/2-x,1/2-y,-z
1/2+x,1/2+y,-z
1/2-x,1/2+y,z
1/2+x,1/2-y,z
loop_
_atom_site_type_symbol
_atom_site_label
_atom_site_fract_x
_atom_site_fract_y
_atom_site_fract_z
Si Si1 0.136815 0.629383 0.862590
Si Si2 0.756533 0.422958 0.727830
Si Si3 0.435611 0.500000 0.635562
Si Si4 0.433331 0.000000 0.861866
Si Si5 0.135323 0.869294 0.640450
Si Si6 0.167841 0.429316 0.500000
Si Si7 0.061744 0.667656 0.500000
Si Si8 0.932626 0.744458 0.734282
O O1 0.204684 0.617626 0.822547
O O2 0.099389 0.565959 0.814762
O O3 0.106483 0.696762 0.816685
O O4 0.136048 0.633110 0.000000
O O5 0.743428 0.500000 0.767106
O O6 0.698706 0.379398 0.700989
O O7 0.791460 0.422675 0.609642
O O8 0.500000 0.500000 0.697364
O O9 0.445302 0.500000 0.500000
O O10 0.400138 0.564743 0.671952
O O11 0.500000 0.000000 0.812518
O O12 0.433256 0.000000 0.000000
O O13 0.139496 0.856155 0.500000
O O14 0.102449 0.812766 0.714332
O O15 0.134506 0.500000 0.500000
O O16 0.119402 0.374418 0.500000
O O17 0.061971 0.714426 0.390990
O O18 0.000000 0.625367 0.500000
O O19 0.000000 0.755255 0.784965
#
# Coordination Sequence:
#
# PCOD8271506 Si02
#       8
#    16  16   8   8  16   8   8  16
#     4  11  23  40  62  87 119 161 208 255 301 351
#     4  11  21  37  60  89 123 155 199 252 305 363
#     4   9  18  31  54  88 121 154 198 248 298 361
#     4   9  18  35  60  85 107 144 199 250 296 346
#     4  11  21  36  60  89 122 161 200 245 305 369
#     4  10  20  34  55  81 116 162 199 244 293 362
#     4  10  20  36  53  80 121 159 198 241 297 366
#     4  11  23  39  59  87 125 161 197 246 305 365
#
# _framework density 18.427292999999999
#
# number of rings (size 3 to 8) (size 9 to 14) (size 15 to 20)
#    0.000    1.500    5.000    1.000    0.000    2.500 
#    0.000    3.333    0.000    0.000    0.000    0.000 
#    0.000    2.667    0.000    0.000    0.000    0.000 
#
# Total GULP energy -594827.569053 kJ/mol
# GULP energy per Si atom -12392.241022 kJ/mol
# Density = 1.838535 g / cm^3
# Si number density = 18.427293 Si / 1000 Ang^3
#
#
#
# Elastic Constant Matrix: (Units=GPa)
#
#
# Indices 1 2 3 4 5 6 
#
# 1 139.8749 74.3244 28.3970 0.0000 0.0000 0.0000
# 2 74.3244 136.5380 34.4915 0.0000 0.0000 0.0000
# 3 28.3970 34.4915 65.5530 0.0000 0.0000 0.0000
# 4 0.0000 0.0000 0.0000 33.1311 0.0000 0.0000
# 5 0.0000 0.0000 0.0000 0.0000 16.0421 0.0000
# 6 0.0000 0.0000 0.0000 0.0000 0.0000 54.6501
#
#
#
# Elastic Compliance Matrix: (Units=1/GPa)
#
#
# Indices 1 2 3 4 5 6 
#
# 1 0.010226 -0.005129 -0.001731 0.000000 0.000000 0.000000
# 2 -0.005129 0.011019 -0.003576 0.000000 0.000000 0.000000
# 3 -0.001731 -0.003576 0.017886 0.000000 0.000000 0.000000
# 4 0.000000 0.000000 0.000000 0.030183 0.000000 0.000000
# 5 0.000000 0.000000 0.000000 0.000000 0.062336 0.000000
# 6 0.000000 0.000000 0.000000 0.000000 0.000000 0.018298
#
#
# Mechanical properties :
#
#
# Convention : Reuss Voigt Hill
#
# Bulk Modulus (GPa) = 54.76717 68.48796 61.62756
# Shear Modulus (GPa) = 28.26319 34.41488 31.33903
#
# Velocity S-wave (km/s) = 3.92058 4.32627 4.12841
# Velocity P-wave (km/s) = 7.09083 7.88687 7.49942
#
# Compressibility (1/GPa) = 0.01825911
#
# Stress axis : x y z
#
# Youngs Moduli (GPa) = 97.78785 90.74837 55.90882
#
# Poissons Ratio (x) = 0.46548 0.09678
# Poissons Ratio (y) = 0.50159 0.19993
# Poissons Ratio (z) = 0.16927 0.32452
#
# Static dielectric constant tensor:
#      x y z
#    x 3.906440 0.000000 0.000000 
#    y 0.000000 3.583800 0.000000 
#    z 0.000000 0.000000 3.254670 
# 
# 
# High freq. dielectric constant tensor:
#      x y z
#    x 1.731060 0.000000 0.000000 
#    y 0.000000 1.715070 0.000000 
#    z 0.000000 0.000000 1.687910 
# 
# From -- ./inp_files/29131.got.cif
#   From: 2010.03.12/outbox.cif.g09.slc.cpg/sg65_15_cif.got.tgz:29131.got - 2010.04.10 20:52:16.
