data_PCOD8271780
_publ_section_title
;
Structure prediction by ZEFSAII (Michael W. Deem and Ramdas Pophale) SiO2 
 PCOD8271780
Probable space group: C M M M
;
_chemical_formula_sum "Si O2"
_cell_formula_units_Z 80
_cell_length_a 27.213470
_cell_length_b 8.565332
_cell_length_c 18.699459
_cell_angle_alpha 90.000000
_cell_angle_beta 90.000000
_cell_angle_gamma 90.000000
_cell_volume 4358.701878
_symmetry_space_group_name_H-M "C M M M"
_symmetry_group_IT_number 65
_symmetry_cell_setting 'orthorhombic'
loop_
_space_group_symop_operation_xyz
x,y,z
-x,-y,z
x,-y,-z
-x,y,-z
-x,-y,-z
x,y,-z
-x,y,z
x,-y,z
1/2+x,1/2+y,z
1/2-x,1/2-y,z
1/2+x,1/2-y,-z
1/2-x,1/2+y,-z
1/2-x,1/2-y,-z
1/2+x,1/2+y,-z
1/2-x,1/2+y,z
1/2+x,1/2-y,z
loop_
_atom_site_type_symbol
_atom_site_label
_atom_site_fract_x
_atom_site_fract_y
_atom_site_fract_z
Si Si1 0.946353 0.184413 0.214537
Si Si2 0.555387 0.685641 0.500000
Si Si3 0.849276 0.815011 0.141833
Si Si4 0.695855 0.182801 0.000000
Si Si5 0.107243 0.184794 0.356288
Si Si6 0.301898 0.184169 0.718183
O O1 0.905093 0.241710 0.158483
O O2 0.930994 0.233384 0.294491
O O3 0.000000 0.258121 0.196753
O O4 0.949883 0.000000 0.210330
O O5 0.552594 0.500000 0.500000
O O6 0.500000 0.754005 0.500000
O O7 0.584647 0.745259 0.430564
O O8 0.833852 0.735717 0.068931
O O9 0.814034 0.763443 0.205993
O O10 0.845634 0.000000 0.133938
O O11 0.750000 0.250000 0.000000
O O12 0.700894 0.000000 0.000000
O O13 0.158742 0.270677 0.342522
O O14 0.116807 0.000000 0.356206
O O15 0.250000 0.250000 0.691326
O O16 0.299847 0.000000 0.728561
#
# Coordination Sequence:
#
# PCOD8271780 Si02
#       6
#    16   8  16   8  16  16
#     4   8  14  27  50  77 103 133 170 210 247 289
#     4   9  16  28  52  83 110 137 172 215 258 303
#     4  10  20  35  55  80 107 134 170 212 254 302
#     4  12  24  38  55  76 105 137 170 209 257 308
#     4   9  17  30  50  78 108 136 172 214 255 302
#     4  11  21  35  54  75 101 134 173 214 260 309
#
# _framework density 18.354087
#
# number of rings (size 3 to 8) (size 9 to 14) (size 15 to 20)
#    0.000    2.300    0.000    5.700    0.000    2.400 
#    0.000    1.500    0.000   24.000    0.000    0.000 
#    0.000    0.000    0.000    0.000    0.000    0.000 
#
# Total GULP energy -495950.728576 kJ/mol
# GULP energy per Si atom -12398.768214 kJ/mol
# Density = 1.831231 g / cm^3
# Si number density = 18.354087 Si / 1000 Ang^3
#
#
#
# Elastic Constant Matrix: (Units=GPa)
#
#
# Indices 1 2 3 4 5 6 
#
# 1 172.3477 37.5180 82.3066 0.0000 0.0000 0.0000
# 2 37.5180 78.7306 33.6615 0.0000 0.0000 0.0000
# 3 82.3066 33.6615 146.6202 0.0000 0.0000 0.0000
# 4 0.0000 0.0000 0.0000 21.6165 0.0000 0.0000
# 5 0.0000 0.0000 0.0000 0.0000 28.0121 0.0000
# 6 0.0000 0.0000 0.0000 0.0000 0.0000 22.7757
#
#
#
# Elastic Compliance Matrix: (Units=1/GPa)
#
#
# Indices 1 2 3 4 5 6 
#
# 1 0.008247 -0.002163 -0.004133 0.000000 0.000000 0.000000
# 2 -0.002163 0.014651 -0.002150 0.000000 0.000000 0.000000
# 3 -0.004133 -0.002150 0.009634 0.000000 0.000000 0.000000
# 4 0.000000 0.000000 0.000000 0.046261 0.000000 0.000000
# 5 0.000000 0.000000 0.000000 0.000000 0.035699 0.000000
# 6 0.000000 0.000000 0.000000 0.000000 0.000000 0.043906
#
#
# Mechanical properties :
#
#
# Convention : Reuss Voigt Hill
#
# Bulk Modulus (GPa) = 63.93298 78.29675 71.11486
# Shear Modulus (GPa) = 27.70048 30.76169 29.23109
#
# Velocity S-wave (km/s) = 3.88909 4.09836 3.99509
# Velocity P-wave (km/s) = 7.42128 8.07137 7.75314
#
# Compressibility (1/GPa) = 0.01564138
#
# Stress axis : x y z
#
# Youngs Moduli (GPa) = 121.26021 68.25348 103.80087
#
# Poissons Ratio (x) = 0.14762 0.42899
# Poissons Ratio (y) = 0.26227 0.22312
# Poissons Ratio (z) = 0.50115 0.14671
#
# Static dielectric constant tensor:
#      x y z
#    x 3.847900 0.000000 0.000000 
#    y 0.000000 3.162010 0.000000 
#    z 0.000000 0.000000 3.368110 
# 
# 
# High freq. dielectric constant tensor:
#      x y z
#    x 1.725690 0.000000 0.000000 
#    y 0.000000 1.690060 0.000000 
#    z 0.000000 0.000000 1.701130 
# 
# From -- ./inp_files/57244.got.cif
#   From: 2010.03.12/outbox.cif.g09.slc.cpg/sg65_29_cif.got.tgz:57244.got - 2010.04.10 20:52:16.
