data_PCOD8271311
_publ_section_title
;
Structure prediction by ZEFSAII (Michael W. Deem and Ramdas Pophale) SiO2 
 PCOD8271311
Probable space group: C M M M
;
_chemical_formula_sum "Si O2"
_cell_formula_units_Z 72
_cell_length_a 30.234786
_cell_length_b 15.093403
_cell_length_c 7.929512
_cell_angle_alpha 90.000000
_cell_angle_beta 90.000000
_cell_angle_gamma 90.000000
_cell_volume 3618.599574
_symmetry_space_group_name_H-M "C M M M"
_symmetry_group_IT_number 65
_symmetry_cell_setting 'orthorhombic'
loop_
_space_group_symop_operation_xyz
x,y,z
-x,-y,z
x,-y,-z
-x,y,-z
-x,-y,-z
x,y,-z
-x,y,z
x,-y,z
1/2+x,1/2+y,z
1/2-x,1/2-y,z
1/2+x,1/2-y,-z
1/2-x,1/2+y,-z
1/2-x,1/2-y,-z
1/2+x,1/2+y,-z
1/2-x,1/2+y,z
1/2+x,1/2-y,z
loop_
_atom_site_type_symbol
_atom_site_label
_atom_site_fract_x
_atom_site_fract_y
_atom_site_fract_z
Si Si1 0.949607 0.716267 0.690899
Si Si2 0.289820 0.808628 0.195274
Si Si3 0.733015 0.000000 0.799523
Si Si4 0.052009 0.596484 0.000000
Si Si5 0.832762 0.000000 0.694925
Si Si6 0.864458 0.816363 0.306595
O O1 0.945527 0.677106 0.500000
O O2 0.916982 0.799722 0.712814
O O3 0.000000 0.747647 0.726108
O O4 0.933591 0.644647 0.827778
O O5 0.250000 0.750000 0.278698
O O6 0.291020 0.909912 0.266978
O O7 0.337119 0.762874 0.221028
O O8 0.279185 0.816891 0.000000
O O9 0.780993 0.000000 0.718680
O O10 0.736904 0.000000 0.000000
O O11 0.075013 0.500000 0.000000
O O12 0.000000 0.585623 0.000000
O O13 0.853490 0.088823 0.779171
O O14 0.846172 0.000000 0.500000
O O15 0.849471 0.817438 0.500000
#
# Coordination Sequence:
#
# PCOD8271311 Si02
#       6
#    16  16   8   8   8  16
#     4   9  19  37  58  82 117 154 188 233 285 337
#     4  10  20  34  54  77 107 142 179 224 275 333
#     4  10  20  36  52  77 108 142 183 220 275 337
#     4   9  18  34  58  85 108 143 193 237 283 335
#     4  10  20  34  55  80 107 138 185 235 277 332
#     4  10  21  36  55  81 108 143 187 230 282 336
#
# _framework density 19.897200000000002
#
# number of rings (size 3 to 8) (size 9 to 14) (size 15 to 20)
#    0.000    2.333    2.222    0.000    1.556    1.778 
#    2.000    2.778    0.000    3.333    0.000    2.333 
#    0.000    0.000    0.000    0.000    0.000    0.000 
#
# Total GULP energy -446137.678376 kJ/mol
# GULP energy per Si atom -12392.713288 kJ/mol
# Density = 1.985191 g / cm^3
# Si number density = 19.897200 Si / 1000 Ang^3
#
#
#
# Elastic Constant Matrix: (Units=GPa)
#
#
# Indices 1 2 3 4 5 6 
#
# 1 104.0627 70.6639 16.4483 0.0000 0.0000 0.0000
# 2 70.6639 198.0109 35.1837 0.0000 0.0000 0.0000
# 3 16.4483 35.1837 53.5725 0.0000 0.0000 0.0000
# 4 0.0000 0.0000 0.0000 15.9100 0.0000 0.0000
# 5 0.0000 0.0000 0.0000 0.0000 20.7845 0.0000
# 6 0.0000 0.0000 0.0000 0.0000 0.0000 21.9207
#
#
#
# Elastic Compliance Matrix: (Units=1/GPa)
#
#
# Indices 1 2 3 4 5 6 
#
# 1 0.012735 -0.004359 -0.001048 0.000000 0.000000 0.000000
# 2 -0.004359 0.007209 -0.003396 0.000000 0.000000 0.000000
# 3 -0.001048 -0.003396 0.021219 0.000000 0.000000 0.000000
# 4 0.000000 0.000000 0.000000 0.062854 0.000000 0.000000
# 5 0.000000 0.000000 0.000000 0.000000 0.048113 0.000000
# 6 0.000000 0.000000 0.000000 0.000000 0.000000 0.045619
#
#
# Mechanical properties :
#
#
# Convention : Reuss Voigt Hill
#
# Bulk Modulus (GPa) = 42.44916 66.69311 54.57113
# Shear Modulus (GPa) = 22.40090 27.27971 24.84030
#
# Velocity S-wave (km/s) = 3.35898 3.70676 3.53715
# Velocity P-wave (km/s) = 6.03525 7.20498 6.64590
#
# Compressibility (1/GPa) = 0.02355759
#
# Stress axis : x y z
#
# Youngs Moduli (GPa) = 78.52474 138.71263 47.12868
#
# Poissons Ratio (x) = 0.60458 0.04937
# Poissons Ratio (y) = 0.34225 0.16007
# Poissons Ratio (z) = 0.08225 0.47112
#
# Static dielectric constant tensor:
#      x y z
#    x 3.391750 0.000000 0.000000 
#    y 0.000000 4.098610 0.000000 
#    z 0.000000 0.000000 3.567490 
# 
# 
# High freq. dielectric constant tensor:
#      x y z
#    x 1.761570 0.000000 0.000000 
#    y 0.000000 1.774670 0.000000 
#    z 0.000000 0.000000 1.765410 
# 
# From -- ./inp_files/15793.got.cif
#   From: 2010.03.12/outbox.cif.g09.slc.cpg/sg65_8_cif.got.tgz:15793.got - 2010.04.10 20:52:16.
