data_PCOD8271706
_publ_section_title
;
Structure prediction by ZEFSAII (Michael W. Deem and Ramdas Pophale) SiO2 
 PCOD8271706
Probable space group: C M M M
;
_chemical_formula_sum "Si O2"
_cell_formula_units_Z 96
_cell_length_a 27.641077
_cell_length_b 21.538500
_cell_length_c 9.042893
_cell_angle_alpha 90.000000
_cell_angle_beta 90.000000
_cell_angle_gamma 90.000000
_cell_volume 5383.662266
_symmetry_space_group_name_H-M "C M M M"
_symmetry_group_IT_number 65
_symmetry_cell_setting 'orthorhombic'
loop_
_space_group_symop_operation_xyz
x,y,z
-x,-y,z
x,-y,-z
-x,y,-z
-x,-y,-z
x,y,-z
-x,y,z
x,-y,z
1/2+x,1/2+y,z
1/2-x,1/2-y,z
1/2+x,1/2-y,-z
1/2-x,1/2+y,-z
1/2-x,1/2-y,-z
1/2+x,1/2+y,-z
1/2-x,1/2+y,z
1/2+x,1/2-y,z
loop_
_atom_site_type_symbol
_atom_site_label
_atom_site_fract_x
_atom_site_fract_y
_atom_site_fract_z
Si Si1 0.444679 0.876524 0.173286
Si Si2 0.861962 0.716460 0.826335
Si Si3 0.000000 0.073912 0.666903
Si Si4 0.057411 0.500000 0.666076
Si Si5 0.094979 0.073604 0.168237
Si Si6 0.739712 0.822193 0.161648
Si Si7 0.332942 0.657949 0.325456
O O1 0.500000 0.861296 0.220192
O O2 0.411203 0.818484 0.219962
O O3 0.424229 0.938048 0.252517
O O4 0.440996 0.889363 0.000000
O O5 0.816373 0.671119 0.788241
O O6 0.858165 0.779949 0.735610
O O7 0.861322 0.733132 0.000000
O O8 0.953355 0.099113 0.753484
O O9 0.000000 0.100309 0.500000
O O10 0.000000 0.000000 0.664802
O O11 0.077917 0.500000 0.500000
O O12 0.000000 0.500000 0.668978
O O13 0.140573 0.098700 0.257656
O O14 0.097206 0.000000 0.173616
O O15 0.095494 0.097980 0.000000
O O16 0.750000 0.750000 0.146556
O O17 0.776576 0.850255 0.281048
O O18 0.747917 0.853616 0.000000
O O19 0.337221 0.657641 0.500000
#
# Coordination Sequence:
#
# PCOD8271706 Si02
#       7
#    16  16   8   8  16  16  16
#     4   9  17  31  52  76 101 131 169 208 244 289
#     4   9  18  33  52  74 102 134 169 210 253 299
#     4   9  17  31  51  75 101 127 161 206 253 298
#     4   9  17  29  47  71  99 133 167 199 239 290
#     4  10  20  35  55  75  98 134 177 214 250 301
#     4   8  15  30  51  71  94 127 167 207 245 297
#     4  11  21  32  50  76 103 132 166 211 262 307
#
# _framework density 17.831727999999998
#
# number of rings (size 3 to 8) (size 9 to 14) (size 15 to 20)
#    0.000    2.667    0.000    3.500    0.000    6.667 
#    1.500    0.000    1.833    0.000    0.000    0.000 
#    0.000    0.000    0.000    0.000    0.000    0.000 
#
# Total GULP energy -595052.304871 kJ/mol
# GULP energy per Si atom -12396.923018 kJ/mol
# Density = 1.779114 g / cm^3
# Si number density = 17.831728 Si / 1000 Ang^3
#
#
#
# Elastic Constant Matrix: (Units=GPa)
#
#
# Indices 1 2 3 4 5 6 
#
# 1 107.1649 29.3609 47.5143 0.0000 0.0000 0.0000
# 2 29.3609 33.9201 30.6993 0.0000 0.0000 0.0000
# 3 47.5143 30.6993 117.0877 0.0000 0.0000 0.0000
# 4 0.0000 0.0000 0.0000 22.7719 0.0000 0.0000
# 5 0.0000 0.0000 0.0000 0.0000 18.0658 0.0000
# 6 0.0000 0.0000 0.0000 0.0000 0.0000 23.0135
#
#
#
# Elastic Compliance Matrix: (Units=1/GPa)
#
#
# Indices 1 2 3 4 5 6 
#
# 1 0.013014 -0.008503 -0.003052 0.000000 0.000000 0.000000
# 2 -0.008503 0.044209 -0.008141 0.000000 0.000000 0.000000
# 3 -0.003052 -0.008141 0.011913 0.000000 0.000000 0.000000
# 4 0.000000 0.000000 0.000000 0.043914 0.000000 0.000000
# 5 0.000000 0.000000 0.000000 0.000000 0.055353 0.000000
# 6 0.000000 0.000000 0.000000 0.000000 0.000000 0.043453
#
#
# Mechanical properties :
#
#
# Convention : Reuss Voigt Hill
#
# Bulk Modulus (GPa) = 33.61830 52.59130 43.10480
# Shear Modulus (GPa) = 19.14521 22.81012 20.97767
#
# Velocity S-wave (km/s) = 3.28023 3.58045 3.43362
# Velocity P-wave (km/s) = 5.76546 6.83008 6.32023
#
# Compressibility (1/GPa) = 0.02974571
#
# Stress axis : x y z
#
# Youngs Moduli (GPa) = 76.83974 22.61991 83.93902
#
# Poissons Ratio (x) = 0.19234 0.25616
# Poissons Ratio (y) = 0.65336 0.68332
# Poissons Ratio (z) = 0.23450 0.18414
#
# Static dielectric constant tensor:
#      x y z
#    x 3.680880 0.000000 0.000000 
#    y 0.000000 2.974410 0.000000 
#    z 0.000000 0.000000 3.366710 
# 
# 
# High freq. dielectric constant tensor:
#      x y z
#    x 1.691340 0.000000 0.000000 
#    y 0.000000 1.654000 0.000000 
#    z 0.000000 0.000000 1.692260 
# 
# From -- ./inp_files/14380.got.cif
#   From: 2010.03.12/outbox.cif.g09.slc.cpg/sg65_8_cif.got.tgz:14380.got - 2010.04.10 20:52:16.
