data_PCOD8271515
_publ_section_title
;
Structure prediction by ZEFSAII (Michael W. Deem and Ramdas Pophale) SiO2 
 PCOD8271515
Probable space group: C M M M
;
_chemical_formula_sum "Si O2"
_cell_formula_units_Z 64
_cell_length_a 17.662908
_cell_length_b 8.817187
_cell_length_c 20.477119
_cell_angle_alpha 90.000000
_cell_angle_beta 90.000000
_cell_angle_gamma 90.000000
_cell_volume 3189.048415
_symmetry_space_group_name_H-M "C M M M"
_symmetry_group_IT_number 65
_symmetry_cell_setting 'orthorhombic'
loop_
_space_group_symop_operation_xyz
x,y,z
-x,-y,z
x,-y,-z
-x,y,-z
-x,-y,-z
x,y,-z
-x,y,z
x,-y,z
1/2+x,1/2+y,z
1/2-x,1/2-y,z
1/2+x,1/2-y,-z
1/2-x,1/2+y,-z
1/2-x,1/2-y,-z
1/2+x,1/2+y,-z
1/2-x,1/2+y,z
1/2+x,1/2-y,z
loop_
_atom_site_type_symbol
_atom_site_label
_atom_site_fract_x
_atom_site_fract_y
_atom_site_fract_z
Si Si1 0.831474 0.678968 0.119564
Si Si2 0.089162 0.829642 0.000000
Si Si3 0.169111 0.822841 0.628384
Si Si4 0.085486 0.180993 0.500000
Si Si5 0.587633 0.323889 0.238637
O O1 0.825002 0.500000 0.114058
O O2 0.750000 0.750000 0.108418
O O3 0.863689 0.722366 0.190009
O O4 0.886611 0.740645 0.064227
O O5 0.000000 0.838630 0.000000
O O6 0.123549 0.000000 0.000000
O O7 0.250000 0.750000 0.640621
O O8 0.129451 0.756597 0.563500
O O9 0.114173 0.785534 0.688486
O O10 0.182130 0.000000 0.620441
O O11 0.000000 0.245340 0.500000
O O12 0.082794 0.000000 0.500000
O O13 0.500000 0.280286 0.232279
O O14 0.601156 0.500000 0.221608
#
# Coordination Sequence:
#
# PCOD8271515 Si02
#       5
#    16   8  16   8  16
#     4  12  25  41  62  88 119 154 194 238 285 339
#     4  11  24  43  66  91 121 155 190 233 286 341
#     4  10  20  34  55  82 112 148 189 235 286 341
#     4   9  17  32  55  81 108 143 190 238 284 339
#     4  10  21  38  59  84 115 151 192 238 289 344
#
# _framework density 20.068681999999999
#
# number of rings (size 3 to 8) (size 9 to 14) (size 15 to 20)
#    0.000    1.500    0.000    5.625    0.000   10.500 
#    0.000    0.000    0.000    3.000    0.000    0.000 
#    0.000    0.000    0.000    0.000    0.000    0.000 
#
# Total GULP energy -396972.841954 kJ/mol
# GULP energy per Si atom -12405.401311 kJ/mol
# Density = 2.002300 g / cm^3
# Si number density = 20.068682 Si / 1000 Ang^3
#
#
#
# Elastic Constant Matrix: (Units=GPa)
#
#
# Indices 1 2 3 4 5 6 
#
# 1 95.9760 36.9649 19.1877 0.0000 0.0000 0.0000
# 2 36.9649 101.8909 47.8104 0.0000 0.0000 0.0000
# 3 19.1877 47.8104 114.1358 0.0000 0.0000 0.0000
# 4 0.0000 0.0000 0.0000 52.6120 0.0000 0.0000
# 5 0.0000 0.0000 0.0000 0.0000 16.3066 0.0000
# 6 0.0000 0.0000 0.0000 0.0000 0.0000 30.2725
#
#
#
# Elastic Compliance Matrix: (Units=1/GPa)
#
#
# Indices 1 2 3 4 5 6 
#
# 1 0.012117 -0.004282 -0.000243 0.000000 0.000000 0.000000
# 2 -0.004282 0.013728 -0.005031 0.000000 0.000000 0.000000
# 3 -0.000243 -0.005031 0.010910 0.000000 0.000000 0.000000
# 4 0.000000 0.000000 0.000000 0.019007 0.000000 0.000000
# 5 0.000000 0.000000 0.000000 0.000000 0.061325 0.000000
# 6 0.000000 0.000000 0.000000 0.000000 0.000000 0.033033
#
#
# Mechanical properties :
#
#
# Convention : Reuss Voigt Hill
#
# Bulk Modulus (GPa) = 56.67919 57.76987 57.22453
# Shear Modulus (GPa) = 28.55289 33.70752 31.13020
#
# Velocity S-wave (km/s) = 3.77604 4.10275 3.94278
# Velocity P-wave (km/s) = 6.87861 7.16184 7.02165
#
# Compressibility (1/GPa) = 0.01764316
#
# Stress axis : x y z
#
# Youngs Moduli (GPa) = 82.52850 72.84152 91.66046
#
# Poissons Ratio (x) = 0.31188 0.02232
# Poissons Ratio (y) = 0.35336 0.46114
# Poissons Ratio (z) = 0.02009 0.36646
#
# Static dielectric constant tensor:
#      x y z
#    x 3.777720 0.000000 0.000000 
#    y 0.000000 3.537800 0.000000 
#    z 0.000000 0.000000 3.877860 
# 
# 
# High freq. dielectric constant tensor:
#      x y z
#    x 1.799960 0.000000 0.000000 
#    y 0.000000 1.765450 0.000000 
#    z 0.000000 0.000000 1.802660 
# 
# From -- ./inp_files/69557.got.cif
#   From: 2010.03.12/outbox.cif.g09.slc.cpg/sg65_35_cif.got.tgz:69557.got - 2010.04.10 20:52:16.
