data_PCOD8271980
_publ_section_title
;
Structure prediction by ZEFSAII (Michael W. Deem and Ramdas Pophale) SiO2 
 PCOD8271980
Probable space group: C M M M
;
_chemical_formula_sum "Si O2"
_cell_formula_units_Z 64
_cell_length_a 17.665752
_cell_length_b 10.972930
_cell_length_c 17.572842
_cell_angle_alpha 90.000000
_cell_angle_beta 90.000000
_cell_angle_gamma 90.000000
_cell_volume 3406.408614
_symmetry_space_group_name_H-M "C M M M"
_symmetry_group_IT_number 65
_symmetry_cell_setting 'orthorhombic'
loop_
_space_group_symop_operation_xyz
x,y,z
-x,-y,z
x,-y,-z
-x,y,-z
-x,-y,-z
x,y,-z
-x,y,z
x,-y,z
1/2+x,1/2+y,z
1/2-x,1/2-y,z
1/2+x,1/2-y,-z
1/2-x,1/2+y,-z
1/2-x,1/2-y,-z
1/2+x,1/2+y,-z
1/2-x,1/2+y,z
1/2+x,1/2-y,z
loop_
_atom_site_type_symbol
_atom_site_label
_atom_site_fract_x
_atom_site_fract_y
_atom_site_fract_z
Si Si1 0.412916 0.860809 0.777229
Si Si2 0.804240 0.362524 0.912992
Si Si3 0.417164 0.000000 0.585845
Si Si4 0.839231 0.737121 0.635863
Si Si5 0.417187 0.360640 0.500000
O O1 0.500000 0.827723 0.786405
O O2 0.377571 0.849343 0.860599
O O3 0.375553 0.761303 0.720525
O O4 0.400884 0.000000 0.745160
O O5 0.768208 0.500000 0.901190
O O6 0.750000 0.250000 0.890596
O O7 0.830679 0.347657 0.000000
O O8 0.362614 0.111371 0.599713
O O9 0.500000 0.000000 0.630532
O O10 0.441533 0.000000 0.500000
O O11 0.750000 0.750000 0.644112
O O12 0.871125 0.837285 0.577816
O O13 0.435561 0.500000 0.500000
O O14 0.500000 0.291673 0.500000
#
# Coordination Sequence:
#
# PCOD8271980 Si02
#       5
#    16  16   8  16   8
#     4  10  20  35  57  84 114 149 194 243 291 344
#     4   9  18  34  57  86 119 154 191 238 296 354
#     4  11  22  38  62  84 105 143 195 242 288 344
#     4  12  24  36  59  83 113 145 191 245 290 343
#     4  11  25  41  57  79 115 155 189 231 293 361
#
# _framework density 18.788115999999999
#
# number of rings (size 3 to 8) (size 9 to 14) (size 15 to 20)
#    0.000    1.500    2.500    3.375    1.750    0.500 
#    0.000    3.750    0.000    2.250    0.000    3.500 
#    0.000    0.000    0.000    0.000    0.000    0.000 
#
# Total GULP energy -396466.907800 kJ/mol
# GULP energy per Si atom -12389.590869 kJ/mol
# Density = 1.874535 g / cm^3
# Si number density = 18.788116 Si / 1000 Ang^3
#
#
#
# Elastic Constant Matrix: (Units=GPa)
#
#
# Indices 1 2 3 4 5 6 
#
# 1 173.3588 54.5338 65.8994 0.0000 0.0000 0.0000
# 2 54.5338 85.3541 33.9215 0.0000 0.0000 0.0000
# 3 65.8994 33.9215 109.7608 0.0000 0.0000 0.0000
# 4 0.0000 0.0000 0.0000 19.9966 0.0000 0.0000
# 5 0.0000 0.0000 0.0000 0.0000 32.3690 0.0000
# 6 0.0000 0.0000 0.0000 0.0000 0.0000 32.2779
#
#
#
# Elastic Compliance Matrix: (Units=1/GPa)
#
#
# Indices 1 2 3 4 5 6 
#
# 1 0.008460 -0.003861 -0.003886 0.000000 0.000000 0.000000
# 2 -0.003861 0.015118 -0.002354 0.000000 0.000000 0.000000
# 3 -0.003886 -0.002354 0.012172 0.000000 0.000000 0.000000
# 4 0.000000 0.000000 0.000000 0.050008 0.000000 0.000000
# 5 0.000000 0.000000 0.000000 0.000000 0.030894 0.000000
# 6 0.000000 0.000000 0.000000 0.000000 0.000000 0.030981
#
#
# Mechanical properties :
#
#
# Convention : Reuss Voigt Hill
#
# Bulk Modulus (GPa) = 64.31974 75.24255 69.78115
# Shear Modulus (GPa) = 28.89868 31.20330 30.05099
#
# Velocity S-wave (km/s) = 3.92616 4.07971 4.00367
# Velocity P-wave (km/s) = 7.40686 7.89474 7.65469
#
# Compressibility (1/GPa) = 0.01554733
#
# Stress axis : x y z
#
# Youngs Moduli (GPa) = 118.20085 66.14509 82.15875
#
# Poissons Ratio (x) = 0.25538 0.31929
# Poissons Ratio (y) = 0.45636 0.19342
# Poissons Ratio (z) = 0.45935 0.15572
#
# Static dielectric constant tensor:
#      x y z
#    x 3.331460 0.000000 0.000000 
#    y 0.000000 3.467860 0.000000 
#    z 0.000000 0.000000 3.703080 
# 
# 
# High freq. dielectric constant tensor:
#      x y z
#    x 1.727080 0.000000 0.000000 
#    y 0.000000 1.716510 0.000000 
#    z 0.000000 0.000000 1.747710 
# 
# From -- ./inp_files/50893.got.cif
#   From: 2010.03.12/outbox.cif.g09.slc.cpg/sg65_26_cif.got.tgz:50893.got - 2010.04.10 20:52:16.
