data_PCOD8271627
_publ_section_title
;
Structure prediction by ZEFSAII (Michael W. Deem and Ramdas Pophale) SiO2 
 PCOD8271627
Probable space group: C M M M
;
_chemical_formula_sum "Si O2"
_cell_formula_units_Z 104
_cell_length_a 23.796572
_cell_length_b 8.746871
_cell_length_c 25.840223
_cell_angle_alpha 90.000000
_cell_angle_beta 90.000000
_cell_angle_gamma 90.000000
_cell_volume 5378.527313
_symmetry_space_group_name_H-M "C M M M"
_symmetry_group_IT_number 65
_symmetry_cell_setting 'orthorhombic'
loop_
_space_group_symop_operation_xyz
x,y,z
-x,-y,z
x,-y,-z
-x,y,-z
-x,-y,-z
x,y,-z
-x,y,z
x,-y,z
1/2+x,1/2+y,z
1/2-x,1/2-y,z
1/2+x,1/2-y,-z
1/2-x,1/2+y,-z
1/2-x,1/2-y,-z
1/2+x,1/2+y,-z
1/2-x,1/2+y,z
1/2+x,1/2-y,z
loop_
_atom_site_type_symbol
_atom_site_label
_atom_site_fract_x
_atom_site_fract_y
_atom_site_fract_z
Si Si1 0.691293 0.822560 0.439473
Si Si2 0.000000 0.319214 0.795595
Si Si3 0.114980 0.821439 0.943985
Si Si4 0.310984 0.680209 0.738411
Si Si5 0.385063 0.681070 0.833140
Si Si6 0.886147 0.180762 0.642328
Si Si7 0.000000 0.334323 0.941226
Si Si8 0.500000 0.181295 0.321758
O O1 0.681693 0.796291 0.500000
O O2 0.750000 0.750000 0.421148
O O3 0.640602 0.737463 0.411102
O O4 0.692037 0.000000 0.424481
O O5 0.945143 0.262693 0.826293
O O6 0.000000 0.500000 0.793328
O O7 0.000000 0.253791 0.736992
O O8 0.145258 0.779187 0.889384
O O9 0.052946 0.769422 0.929107
O O10 0.115915 0.000000 0.952719
O O11 0.136268 0.748486 0.000000
O O12 0.304977 0.500000 0.739728
O O13 0.250000 0.750000 0.734805
O O14 0.342149 0.741142 0.789829
O O15 0.346729 0.735544 0.689360
O O16 0.395368 0.500000 0.828205
O O17 0.946339 0.257777 0.647778
O O18 0.893523 0.000000 0.641560
O O19 0.000000 0.500000 0.910775
O O20 0.000000 0.381358 0.000000
O O21 0.500000 0.000000 0.322649
#
# Coordination Sequence:
#
# PCOD8271627 Si02
#       8
#    16   8  16  16  16  16   8   8
#     4  10  21  38  61  90 124 160 199 243 287 330
#     4  11  22  34  52  80 109 143 182 221 268 327
#     4   9  17  29  46  67  92 128 173 216 260 316
#     4  10  22  37  55  79 106 139 178 224 278 328
#     4  10  20  35  53  74 105 141 177 221 272 329
#     4  11  22  38  61  87 116 152 191 233 282 339
#     4   9  16  25  38  60  93 126 155 196 250 305
#     4  11  23  38  57  83 117 153 188 231 278 335
#
# _framework density 19.336147
#
# number of rings (size 3 to 8) (size 9 to 14) (size 15 to 20)
#    0.000    1.923    1.538    2.538    0.000    8.000 
#    0.000    0.385    0.000    2.769    0.000    0.000 
#    0.000    0.000    0.000    0.000    0.000    0.000 
#
# Total GULP energy -644356.299053 kJ/mol
# GULP energy per Si atom -12391.467289 kJ/mol
# Density = 1.929214 g / cm^3
# Si number density = 19.336147 Si / 1000 Ang^3
#
#
#
# Elastic Constant Matrix: (Units=GPa)
#
#
# Indices 1 2 3 4 5 6 
#
# 1 116.0861 30.7920 54.2000 0.0000 0.0000 0.0000
# 2 30.7920 40.3432 33.9004 0.0000 0.0000 0.0000
# 3 54.2000 33.9004 114.2059 0.0000 0.0000 0.0000
# 4 0.0000 0.0000 0.0000 19.2390 0.0000 0.0000
# 5 0.0000 0.0000 0.0000 0.0000 19.5706 0.0000
# 6 0.0000 0.0000 0.0000 0.0000 0.0000 28.6839
#
#
#
# Elastic Compliance Matrix: (Units=1/GPa)
#
#
# Indices 1 2 3 4 5 6 
#
# 1 0.012016 -0.005835 -0.003971 0.000000 0.000000 0.000000
# 2 -0.005835 0.035858 -0.007875 0.000000 0.000000 0.000000
# 3 -0.003971 -0.007875 0.012978 0.000000 0.000000 0.000000
# 4 0.000000 0.000000 0.000000 0.051978 0.000000 0.000000
# 5 0.000000 0.000000 0.000000 0.000000 0.051097 0.000000
# 6 0.000000 0.000000 0.000000 0.000000 0.000000 0.034863
#
#
# Mechanical properties :
#
#
# Convention : Reuss Voigt Hill
#
# Bulk Modulus (GPa) = 39.22865 56.49111 47.85988
# Shear Modulus (GPa) = 20.60610 23.61489 22.11050
#
# Velocity S-wave (km/s) = 3.26801 3.49848 3.38521
# Velocity P-wave (km/s) = 5.87977 6.75262 6.33125
#
# Compressibility (1/GPa) = 0.02549157
#
# Stress axis : x y z
#
# Youngs Moduli (GPa) = 83.22411 27.88782 77.05335
#
# Poissons Ratio (x) = 0.16271 0.30594
# Poissons Ratio (y) = 0.48558 0.60679
# Poissons Ratio (z) = 0.33044 0.21962
#
# Static dielectric constant tensor:
#      x y z
#    x 3.297890 0.000000 0.000000 
#    y 0.000000 3.463920 0.000000 
#    z 0.000000 0.000000 3.984060 
# 
# 
# High freq. dielectric constant tensor:
#      x y z
#    x 1.720690 0.000000 0.000000 
#    y 0.000000 1.751390 0.000000 
#    z 0.000000 0.000000 1.776180 
# 
# From -- ./inp_files/75540.got.cif
#   From: 2010.03.12/outbox.cif.g09.slc.cpg/sg65_38_cif.got.tgz:75540.got - 2010.04.10 20:52:16.
