data_PCOD8271989
_publ_section_title
;
Structure prediction by ZEFSAII (Michael W. Deem and Ramdas Pophale) SiO2 
 PCOD8271989
Probable space group: C M M M
;
_chemical_formula_sum "Si O2"
_cell_formula_units_Z 64
_cell_length_a 19.081577
_cell_length_b 10.373820
_cell_length_c 16.450983
_cell_angle_alpha 90.000000
_cell_angle_beta 90.000000
_cell_angle_gamma 90.000000
_cell_volume 3256.453086
_symmetry_space_group_name_H-M "C M M M"
_symmetry_group_IT_number 65
_symmetry_cell_setting 'orthorhombic'
loop_
_space_group_symop_operation_xyz
x,y,z
-x,-y,z
x,-y,-z
-x,y,-z
-x,-y,-z
x,y,-z
-x,y,z
x,-y,z
1/2+x,1/2+y,z
1/2-x,1/2-y,z
1/2+x,1/2-y,-z
1/2-x,1/2+y,-z
1/2-x,1/2-y,-z
1/2+x,1/2+y,-z
1/2-x,1/2+y,z
1/2+x,1/2-y,z
loop_
_atom_site_type_symbol
_atom_site_label
_atom_site_fract_x
_atom_site_fract_y
_atom_site_fract_z
Si Si1 0.200525 0.140576 0.907237
Si Si2 0.080291 0.757145 0.181957
Si Si3 0.421247 0.351775 0.356223
Si Si4 0.815354 0.848276 0.500000
Si Si5 0.582854 0.000000 0.907991
O O1 0.250000 0.250000 0.868251
O O2 0.127749 0.133029 0.858460
O O3 0.237036 0.000000 0.900344
O O4 0.183246 0.176249 0.000000
O O5 0.090751 0.758520 0.279160
O O6 0.107546 0.623211 0.143518
O O7 0.000000 0.785746 0.159289
O O8 0.500000 0.330098 0.391543
O O9 0.413198 0.500000 0.328265
O O10 0.363067 0.316362 0.422316
O O11 0.750000 0.750000 0.500000
O O12 0.792040 0.000000 0.500000
O O13 0.500000 0.000000 0.915041
O O14 0.615206 0.000000 0.000000
#
# Coordination Sequence:
#
# PCOD8271989 Si02
#       5
#    16  16  16   8   8
#     4  10  22  37  53  76 108 147 188 233 288 346
#     4  10  20  35  57  85 113 145 193 247 294 342
#     4   9  18  35  60  85 112 148 192 241 292 348
#     4  10  21  39  61  89 119 154 192 234 286 354
#     4   9  18  32  52  81 117 157 194 235 292 351
#
# _framework density 19.653283999999999
#
# number of rings (size 3 to 8) (size 9 to 14) (size 15 to 20)
#    0.000    2.375    0.000    1.875    1.750    5.500 
#    2.250    1.250    0.000    0.750    0.000    0.000 
#    0.000    0.000    0.000    0.000    0.000    0.000 
#
# Total GULP energy -396670.978177 kJ/mol
# GULP energy per Si atom -12395.968068 kJ/mol
# Density = 1.960855 g / cm^3
# Si number density = 19.653284 Si / 1000 Ang^3
#
#
#
# Elastic Constant Matrix: (Units=GPa)
#
#
# Indices 1 2 3 4 5 6 
#
# 1 109.1473 59.4079 58.8378 0.0000 0.0000 0.0000
# 2 59.4079 109.0911 59.7362 0.0000 0.0000 0.0000
# 3 58.8378 59.7362 113.2773 0.0000 0.0000 0.0000
# 4 0.0000 0.0000 0.0000 31.5949 0.0000 0.0000
# 5 0.0000 0.0000 0.0000 0.0000 28.8671 0.0000
# 6 0.0000 0.0000 0.0000 0.0000 0.0000 32.0786
#
#
#
# Elastic Compliance Matrix: (Units=1/GPa)
#
#
# Indices 1 2 3 4 5 6 
#
# 1 0.014662 -0.005363 -0.004787 0.000000 0.000000 0.000000
# 2 -0.005363 0.014850 -0.005046 0.000000 0.000000 0.000000
# 3 -0.004787 -0.005046 0.013975 0.000000 0.000000 0.000000
# 4 0.000000 0.000000 0.000000 0.031651 0.000000 0.000000
# 5 0.000000 0.000000 0.000000 0.000000 0.034642 0.000000
# 6 0.000000 0.000000 0.000000 0.000000 0.000000 0.031173
#
#
# Mechanical properties :
#
#
# Convention : Reuss Voigt Hill
#
# Bulk Modulus (GPa) = 76.36297 76.38661 76.37479
# Shear Modulus (GPa) = 28.45615 28.74369 28.59992
#
# Velocity S-wave (km/s) = 3.80927 3.82846 3.81888
# Velocity P-wave (km/s) = 7.63458 7.64816 7.64137
#
# Compressibility (1/GPa) = 0.01309535
#
# Stress axis : x y z
#
# Youngs Moduli (GPa) = 68.20548 67.34050 71.55504
#
# Poissons Ratio (x) = 0.36113 0.34256
# Poissons Ratio (y) = 0.36577 0.36103
# Poissons Ratio (z) = 0.32653 0.33977
#
# Static dielectric constant tensor:
#      x y z
#    x 3.528950 0.000000 0.000000 
#    y 0.000000 3.588880 0.000000 
#    z 0.000000 0.000000 3.481370 
# 
# 
# High freq. dielectric constant tensor:
#      x y z
#    x 1.767060 0.000000 0.000000 
#    y 0.000000 1.758530 0.000000 
#    z 0.000000 0.000000 1.755450 
# 
# From -- ./inp_files/41905.got.cif
#   From: 2010.03.12/outbox.cif.g09.slc.cpg/sg65_21_cif.got.tgz:41905.got - 2010.04.10 20:52:16.
