data_PCOD8271677
_publ_section_title
;
Structure prediction by ZEFSAII (Michael W. Deem and Ramdas Pophale) SiO2 
 PCOD8271677
Probable space group: C M M M
;
_chemical_formula_sum "Si O2"
_cell_formula_units_Z 72
_cell_length_a 19.107112
_cell_length_b 8.667816
_cell_length_c 23.340407
_cell_angle_alpha 90.000000
_cell_angle_beta 90.000000
_cell_angle_gamma 90.000000
_cell_volume 3865.566578
_symmetry_space_group_name_H-M "C M M M"
_symmetry_group_IT_number 65
_symmetry_cell_setting 'orthorhombic'
loop_
_space_group_symop_operation_xyz
x,y,z
-x,-y,z
x,-y,-z
-x,y,-z
-x,-y,-z
x,y,-z
-x,y,z
x,-y,z
1/2+x,1/2+y,z
1/2-x,1/2-y,z
1/2+x,1/2-y,-z
1/2-x,1/2+y,-z
1/2-x,1/2-y,-z
1/2+x,1/2+y,-z
1/2-x,1/2+y,z
1/2+x,1/2-y,z
loop_
_atom_site_type_symbol
_atom_site_label
_atom_site_fract_x
_atom_site_fract_y
_atom_site_fract_z
Si Si1 0.416971 0.824375 0.937961
Si Si2 0.917605 0.181025 0.500000
Si Si3 0.921735 0.818432 0.823268
Si Si4 0.825817 0.683639 0.401018
Si Si5 0.675320 0.315938 0.721068
O O1 0.500000 0.809130 0.937843
O O2 0.386390 0.730909 0.883787
O O3 0.393183 0.000000 0.930720
O O4 0.389275 0.761472 0.000000
O O5 0.884569 0.258818 0.555704
O O6 0.000000 0.214537 0.500000
O O7 0.901170 0.000000 0.500000
O O8 0.877477 0.756604 0.769804
O O9 0.000000 0.749125 0.817637
O O10 0.924050 0.000000 0.821633
O O11 0.821316 0.500000 0.401352
O O12 0.750000 0.750000 0.418591
O O13 0.849214 0.744268 0.338933
O O14 0.678204 0.500000 0.715574
O O15 0.750000 0.250000 0.738934
#
# Coordination Sequence:
#
# PCOD8271677 Si02
#       5
#    16   8  16  16  16
#     4   8  14  25  42  66  96 128 162 202 249 301
#     4  11  24  41  60  83 113 145 174 211 262 309
#     4   9  18  31  48  72 100 130 165 207 255 305
#     4  11  22  38  60  83 108 139 179 219 256 306
#     4  10  20  35  54  76 103 136 174 212 254 304
#
# _framework density 18.625988
#
# number of rings (size 3 to 8) (size 9 to 14) (size 15 to 20)
#    0.000    2.333    0.000    5.333    0.000    4.000 
#    0.000    4.444    0.000    0.667    0.000    0.000 
#    0.000    0.000    0.000    0.000    0.000    0.000 
#
# Total GULP energy -446260.966408 kJ/mol
# GULP energy per Si atom -12396.137956 kJ/mol
# Density = 1.858359 g / cm^3
# Si number density = 18.625988 Si / 1000 Ang^3
#
#
#
# Elastic Constant Matrix: (Units=GPa)
#
#
# Indices 1 2 3 4 5 6 
#
# 1 77.7960 39.0094 86.3391 0.0000 0.0000 0.0000
# 2 39.0094 90.1682 57.0405 0.0000 0.0000 0.0000
# 3 86.3391 57.0405 184.6358 0.0000 0.0000 0.0000
# 4 0.0000 0.0000 0.0000 31.6396 0.0000 0.0000
# 5 0.0000 0.0000 0.0000 0.0000 38.9734 0.0000
# 6 0.0000 0.0000 0.0000 0.0000 0.0000 23.9246
#
#
#
# Elastic Compliance Matrix: (Units=1/GPa)
#
#
# Indices 1 2 3 4 5 6 
#
# 1 0.028309 -0.004814 -0.011751 0.000000 0.000000 0.000000
# 2 -0.004814 0.014603 -0.002260 0.000000 0.000000 0.000000
# 3 -0.011751 -0.002260 0.011609 0.000000 0.000000 0.000000
# 4 0.000000 0.000000 0.000000 0.031606 0.000000 0.000000
# 5 0.000000 0.000000 0.000000 0.000000 0.025659 0.000000
# 6 0.000000 0.000000 0.000000 0.000000 0.000000 0.041798
#
#
# Mechanical properties :
#
#
# Convention : Reuss Voigt Hill
#
# Bulk Modulus (GPa) = 59.27167 79.70867 69.49017
# Shear Modulus (GPa) = 25.39918 30.25491 27.82705
#
# Velocity S-wave (km/s) = 3.69676 4.03468 3.86941
# Velocity P-wave (km/s) = 7.07902 8.03692 7.57313
#
# Compressibility (1/GPa) = 0.01687147
#
# Stress axis : x y z
#
# Youngs Moduli (GPa) = 35.32452 68.47977 86.13875
#
# Poissons Ratio (x) = 0.32965 1.01219
# Poissons Ratio (y) = 0.17005 0.19470
# Poissons Ratio (z) = 0.41509 0.15479
#
# Static dielectric constant tensor:
#      x y z
#    x 3.267940 0.000000 0.000000 
#    y 0.000000 3.436370 0.000000 
#    z 0.000000 0.000000 4.143960 
# 
# 
# High freq. dielectric constant tensor:
#      x y z
#    x 1.688150 0.000000 0.000000 
#    y 0.000000 1.725060 0.000000 
#    z 0.000000 0.000000 1.745370 
# 
# From -- ./inp_files/67093.got.cif
#   From: 2010.03.12/outbox.cif.g09.slc.cpg/sg65_34_cif.got.tgz:67093.got - 2010.04.10 20:52:16.
