data_PCOD8271957
_publ_section_title
;
Structure prediction by ZEFSAII (Michael W. Deem and Ramdas Pophale) SiO2 
 PCOD8271957
Probable space group: C M M M
;
_chemical_formula_sum "Si O2"
_cell_formula_units_Z 72
_cell_length_a 14.675058
_cell_length_b 14.699871
_cell_length_c 15.628570
_cell_angle_alpha 90.000000
_cell_angle_beta 90.000000
_cell_angle_gamma 90.000000
_cell_volume 3371.417931
_symmetry_space_group_name_H-M "C M M M"
_symmetry_group_IT_number 65
_symmetry_cell_setting 'orthorhombic'
loop_
_space_group_symop_operation_xyz
x,y,z
-x,-y,z
x,-y,-z
-x,y,-z
-x,-y,-z
x,y,-z
-x,y,z
x,-y,z
1/2+x,1/2+y,z
1/2-x,1/2-y,z
1/2+x,1/2-y,-z
1/2-x,1/2+y,-z
1/2-x,1/2-y,-z
1/2+x,1/2+y,-z
1/2-x,1/2+y,z
1/2+x,1/2-y,z
loop_
_atom_site_type_symbol
_atom_site_label
_atom_site_fract_x
_atom_site_fract_y
_atom_site_fract_z
Si Si1 0.105832 0.891133 0.500000
Si Si2 0.716848 0.392665 0.661954
Si Si3 0.645408 0.228820 0.094893
Si Si4 0.601867 0.106268 0.254618
Si Si5 0.099992 0.899929 0.819614
O O1 0.163688 0.851300 0.580473
O O2 0.000000 0.856311 0.500000
O O3 0.104783 0.000000 0.500000
O O4 0.711041 0.500000 0.652985
O O5 0.822859 0.361089 0.674412
O O6 0.665661 0.359744 0.746970
O O7 0.750000 0.250000 0.107129
O O8 0.611341 0.156503 0.164058
O O9 0.596446 0.326865 0.104408
O O10 0.623156 0.190816 0.000000
O O11 0.500000 0.124351 0.291477
O O12 0.617543 0.000000 0.235485
O O13 0.000000 0.909563 0.778607
O O14 0.132807 0.000000 0.852403
#
# Coordination Sequence:
#
# PCOD8271957 Si02
#       5
#     8  16  16  16  16
#     4   9  16  28  53  88 121 151 186 231 282 341
#     4   9  17  32  53  82 116 148 186 233 281 335
#     4  11  23  38  58  83 112 149 193 245 296 340
#     4  10  21  38  59  81 111 156 202 240 282 334
#     4  10  20  35  57  83 113 148 183 228 293 357
#
# _framework density 21.356000999999999
#
# number of rings (size 3 to 8) (size 9 to 14) (size 15 to 20)
#    0.000    2.111    2.222    1.333    0.000    5.333 
#    0.000    5.000    0.000    6.000    0.000    3.111 
#    0.000    0.000    0.000    0.000    0.000    0.000 
#
# Total GULP energy -446036.928406 kJ/mol
# GULP energy per Si atom -12389.914678 kJ/mol
# Density = 2.130739 g / cm^3
# Si number density = 21.356001 Si / 1000 Ang^3
#
#
#
# Elastic Constant Matrix: (Units=GPa)
#
#
# Indices 1 2 3 4 5 6 
#
# 1 177.3647 24.0577 67.8865 0.0000 0.0000 0.0000
# 2 24.0577 54.4644 30.1746 0.0000 0.0000 0.0000
# 3 67.8865 30.1746 99.3909 0.0000 0.0000 0.0000
# 4 0.0000 0.0000 0.0000 23.8797 0.0000 0.0000
# 5 0.0000 0.0000 0.0000 0.0000 26.2642 0.0000
# 6 0.0000 0.0000 0.0000 0.0000 0.0000 19.0312
#
#
#
# Elastic Compliance Matrix: (Units=1/GPa)
#
#
# Indices 1 2 3 4 5 6 
#
# 1 0.007649 -0.000582 -0.005048 0.000000 0.000000 0.000000
# 2 -0.000582 0.022118 -0.006317 0.000000 0.000000 0.000000
# 3 -0.005048 -0.006317 0.015427 0.000000 0.000000 0.000000
# 4 0.000000 0.000000 0.000000 0.041877 0.000000 0.000000
# 5 0.000000 0.000000 0.000000 0.000000 0.038075 0.000000
# 6 0.000000 0.000000 0.000000 0.000000 0.000000 0.052545
#
#
# Mechanical properties :
#
#
# Convention : Reuss Voigt Hill
#
# Bulk Modulus (GPa) = 46.94964 63.93974 55.44469
# Shear Modulus (GPa) = 23.95964 27.77509 25.86736
#
# Velocity S-wave (km/s) = 3.35314 3.61026 3.48407
# Velocity P-wave (km/s) = 6.08468 6.88357 6.49642
#
# Compressibility (1/GPa) = 0.02129942
#
# Stress axis : x y z
#
# Youngs Moduli (GPa) = 130.73406 45.21278 64.82163
#
# Poissons Ratio (x) = 0.02632 0.32721
# Poissons Ratio (y) = 0.07610 0.40949
# Poissons Ratio (z) = 0.65992 0.28562
#
# Static dielectric constant tensor:
#      x y z
#    x 4.538180 0.000000 0.000000 
#    y 0.000000 3.728270 0.000000 
#    z 0.000000 0.000000 3.796710 
# 
# 
# High freq. dielectric constant tensor:
#      x y z
#    x 1.859780 0.000000 0.000000 
#    y 0.000000 1.819430 0.000000 
#    z 0.000000 0.000000 1.806840 
# 
# From -- ./inp_files/39744.got.cif
#   From: 2010.03.12/outbox.cif.g09.slc.cpg/sg65_20_cif.got.tgz:39744.got - 2010.04.10 20:52:16.
