data_PCOD8271468
_publ_section_title
;
Structure prediction by ZEFSAII (Michael W. Deem and Ramdas Pophale) SiO2 
 PCOD8271468
Probable space group: C M M M
;
_chemical_formula_sum "Si O2"
_cell_formula_units_Z 120
_cell_length_a 26.847283
_cell_length_b 27.083994
_cell_length_c 8.978696
_cell_angle_alpha 90.000000
_cell_angle_beta 90.000000
_cell_angle_gamma 90.000000
_cell_volume 6528.694052
_symmetry_space_group_name_H-M "C M M M"
_symmetry_group_IT_number 65
_symmetry_cell_setting 'orthorhombic'
loop_
_space_group_symop_operation_xyz
x,y,z
-x,-y,z
x,-y,-z
-x,y,-z
-x,-y,-z
x,y,-z
-x,y,z
x,-y,z
1/2+x,1/2+y,z
1/2-x,1/2-y,z
1/2+x,1/2-y,-z
1/2-x,1/2+y,-z
1/2-x,1/2-y,-z
1/2+x,1/2+y,-z
1/2-x,1/2+y,z
1/2+x,1/2-y,z
loop_
_atom_site_type_symbol
_atom_site_label
_atom_site_fract_x
_atom_site_fract_y
_atom_site_fract_z
Si Si1 0.737784 0.696240 0.675157
Si Si2 0.864452 0.146036 0.324227
Si Si3 0.782519 0.392145 0.170565
Si Si4 0.941181 0.500000 0.667839
Si Si5 0.942062 0.314804 0.325888
Si Si6 0.557988 0.712844 0.827278
Si Si7 0.182251 0.056233 0.174204
Si Si8 0.894208 0.592484 0.826295
O O1 0.743691 0.696798 0.500000
O O2 0.750000 0.750000 0.742672
O O3 0.682322 0.680102 0.722593
O O4 0.778205 0.657936 0.736031
O O5 0.873235 0.145403 0.500000
O O6 0.912998 0.166885 0.243108
O O7 0.855215 0.090391 0.267724
O O8 0.739543 0.430980 0.214916
O O9 0.835715 0.417099 0.201707
O O10 0.777282 0.376371 0.000000
O O11 0.919822 0.500000 0.500000
O O12 0.923819 0.548418 0.752156
O O13 0.000000 0.500000 0.664815
O O14 0.929635 0.314111 0.500000
O O15 0.926122 0.262492 0.257764
O O16 0.909623 0.356181 0.246788
O O17 0.000000 0.325824 0.295926
O O18 0.500000 0.701653 0.804131
O O19 0.571657 0.718897 0.000000
O O20 0.172208 0.000000 0.221421
O O21 0.172128 0.064543 0.000000
O O22 0.907429 0.594166 0.000000
#
# Coordination Sequence:
#
# PCOD8271468 Si02
#       8
#    16  16  16   8  16  16  16  16
#     4   9  19  34  51  75 109 147 182 219 265 318
#     4  10  20  34  54  82 114 147 182 224 275 328
#     4   9  20  35  52  79 108 140 180 222 270 322
#     4  11  25  43  59  77 103 141 189 237 290 345
#     4  10  21  37  56  78 107 144 184 226 275 331
#     4  10  21  37  58  84 114 147 185 227 269 321
#     4   9  18  35  59  80 106 145 184 224 270 326
#     4  11  23  37  57  83 109 139 181 233 285 335
#
# _framework density 18.380399000000001
#
# number of rings (size 3 to 8) (size 9 to 14) (size 15 to 20)
#    0.000    2.200    0.000    2.200    2.800    5.867 
#    0.000    0.000    0.000    0.400    0.000    2.800 
#    0.000    0.000    0.000    0.000    0.000    0.000 
#
# Total GULP energy -744216.720493 kJ/mol
# GULP energy per Si atom -12403.612008 kJ/mol
# Density = 1.833856 g / cm^3
# Si number density = 18.380399 Si / 1000 Ang^3
#
#
#
# Elastic Constant Matrix: (Units=GPa)
#
#
# Indices 1 2 3 4 5 6 
#
# 1 71.3390 52.5474 46.8911 0.0000 0.0000 0.0000
# 2 52.5474 131.1545 54.9691 0.0000 0.0000 0.0000
# 3 46.8911 54.9691 92.1549 0.0000 0.0000 0.0000
# 4 0.0000 0.0000 0.0000 -671.1803 0.0000 0.0000
# 5 0.0000 0.0000 0.0000 0.0000 27.9773 0.0000
# 6 0.0000 0.0000 0.0000 0.0000 0.0000 26.4373
#
#
#
# Elastic Compliance Matrix: (Units=1/GPa)
#
#
# Indices 1 2 3 4 5 6 
#
# 1 0.024190 -0.006044 -0.008704 0.000000 0.000000 0.000000
# 2 -0.006044 0.011676 -0.003889 0.000000 0.000000 0.000000
# 3 -0.008704 -0.003889 0.017600 0.000000 0.000000 0.000000
# 4 0.000000 0.000000 0.000000 -0.001490 0.000000 0.000000
# 5 0.000000 0.000000 0.000000 0.000000 0.035743 0.000000
# 6 0.000000 0.000000 0.000000 0.000000 0.000000 0.037825
#
#
# Mechanical properties :
#
#
# Convention : Reuss Voigt Hill
#
# Bulk Modulus (GPa) = 61.75677 67.05149 64.40413
# Shear Modulus (GPa) = 29.72354 -114.00376 -42.14011
#
# Velocity S-wave (km/s) = 4.02572 -7.88412 -4.79337
# Velocity P-wave (km/s) = 7.43510 6.80588 2.11670
#
# Compressibility (1/GPa) = 0.01619256
#
# Stress axis : x y z
#
# Youngs Moduli (GPa) = 41.33855 85.64374 56.81869
#
# Poissons Ratio (x) = 0.51764 0.49453
# Poissons Ratio (y) = 0.24986 0.22098
# Poissons Ratio (z) = 0.35979 0.33309
#
# Static dielectric constant tensor:
#      x y z
#    x 3.350770 0.000000 0.000000 
#    y 0.000000 3.358590 0.000000 
#    z 0.000000 0.000000 3.464350 
# 
# 
# High freq. dielectric constant tensor:
#      x y z
#    x 1.704840 0.000000 0.000000 
#    y 0.000000 1.712130 0.000000 
#    z 0.000000 0.000000 1.721180 
# 
# From -- ./inp_files/17098.got.cif
#   From: 2010.03.12/outbox.cif.g09.slc.cpg/sg65_9_cif.got.tgz:17098.got - 2010.04.10 20:52:16.
