data_PCOD8271642
_publ_section_title
;
Structure prediction by ZEFSAII (Michael W. Deem and Ramdas Pophale) SiO2 
 PCOD8271642
Probable space group: C M M M
;
_chemical_formula_sum "Si O2"
_cell_formula_units_Z 96
_cell_length_a 9.104458
_cell_length_b 27.165934
_cell_length_c 24.117016
_cell_angle_alpha 90.000000
_cell_angle_beta 90.000000
_cell_angle_gamma 90.000000
_cell_volume 5964.888220
_symmetry_space_group_name_H-M "C M M M"
_symmetry_group_IT_number 65
_symmetry_cell_setting 'orthorhombic'
loop_
_space_group_symop_operation_xyz
x,y,z
-x,-y,z
x,-y,-z
-x,y,-z
-x,-y,-z
x,y,-z
-x,y,z
x,-y,z
1/2+x,1/2+y,z
1/2-x,1/2-y,z
1/2+x,1/2-y,-z
1/2-x,1/2+y,-z
1/2-x,1/2-y,-z
1/2+x,1/2+y,-z
1/2-x,1/2+y,z
1/2+x,1/2-y,z
loop_
_atom_site_type_symbol
_atom_site_label
_atom_site_fract_x
_atom_site_fract_y
_atom_site_fract_z
Si Si1 0.334131 0.941512 0.060494
Si Si2 0.171605 0.103222 0.278572
Si Si3 0.172541 0.056273 0.390844
Si Si4 0.672581 0.556944 0.167646
Si Si5 0.826540 0.200074 0.340534
Si Si6 0.169351 0.354686 0.436843
O O1 0.500000 0.923187 0.068859
O O2 0.238214 0.920214 0.111005
O O3 0.326531 0.000000 0.061637
O O4 0.275679 0.923147 0.000000
O O5 0.226600 0.067982 0.328284
O O6 0.241816 0.086788 0.219929
O O7 0.209398 0.159705 0.293247
O O8 0.000000 0.095081 0.272391
O O9 0.263223 0.090500 0.432637
O O10 0.000000 0.068498 0.397036
O O11 0.206825 0.000000 0.405639
O O12 0.500000 0.563749 0.163285
O O13 0.716228 0.500000 0.175449
O O14 0.750000 0.250000 0.320610
O O15 0.760223 0.183239 0.399263
O O16 0.000000 0.207675 0.348068
O O17 0.183197 0.336676 0.500000
O O18 0.000000 0.355525 0.417604
#
# Coordination Sequence:
#
# PCOD8271642 Si02
#       6
#    16  16  16  16  16  16
#     4   8  14  24  35  49  77 117 153 181 210 243
#     4   8  15  28  45  65  88 113 141 175 215 258
#     4   9  17  30  48  67  89 120 153 181 213 256
#     4   9  15  23  39  62  86 113 146 180 208 239
#     4  10  20  35  54  71  88 111 139 174 219 269
#     4  10  21  35  49  67  91 116 144 179 217 258
#
# _framework density 16.094182
#
# number of rings (size 3 to 8) (size 9 to 14) (size 15 to 20)
#    0.000    3.000    0.000    3.000    0.000    4.667 
#    0.000    7.500    0.000    4.000    0.000    0.000 
#    0.000    0.667    0.000    1.500    0.000    2.667 
#
# Total GULP energy -594937.616016 kJ/mol
# GULP energy per Si atom -12394.533667 kJ/mol
# Density = 1.605755 g / cm^3
# Si number density = 16.094182 Si / 1000 Ang^3
#
#
#
# Elastic Constant Matrix: (Units=GPa)
#
#
# Indices 1 2 3 4 5 6 
#
# 1 59.6225 34.0338 38.9487 0.0000 0.0000 0.0000
# 2 34.0338 62.6770 28.4158 0.0000 0.0000 0.0000
# 3 38.9487 28.4158 112.6494 0.0000 0.0000 0.0000
# 4 0.0000 0.0000 0.0000 15.0059 0.0000 0.0000
# 5 0.0000 0.0000 0.0000 0.0000 19.8146 0.0000
# 6 0.0000 0.0000 0.0000 0.0000 0.0000 22.2288
#
#
#
# Elastic Compliance Matrix: (Units=1/GPa)
#
#
# Indices 1 2 3 4 5 6 
#
# 1 0.028092 -0.012251 -0.006622 0.000000 0.000000 0.000000
# 2 -0.012251 0.023358 -0.001656 0.000000 0.000000 0.000000
# 3 -0.006622 -0.001656 0.011585 0.000000 0.000000 0.000000
# 4 0.000000 0.000000 0.000000 0.066641 0.000000 0.000000
# 5 0.000000 0.000000 0.000000 0.000000 0.050468 0.000000
# 6 0.000000 0.000000 0.000000 0.000000 0.000000 0.044987
#
#
# Mechanical properties :
#
#
# Convention : Reuss Voigt Hill
#
# Bulk Modulus (GPa) = 45.50717 48.63840 47.07278
# Shear Modulus (GPa) = 18.28058 20.31322 19.29690
#
# Velocity S-wave (km/s) = 3.37389 3.55653 3.46641
# Velocity P-wave (km/s) = 6.59655 6.86672 6.73299
#
# Compressibility (1/GPa) = 0.02197456
#
# Stress axis : x y z
#
# Youngs Moduli (GPa) = 35.59779 42.81146 86.32199
#
# Poissons Ratio (x) = 0.52450 0.57165
# Poissons Ratio (y) = 0.43613 0.14296
# Poissons Ratio (z) = 0.23574 0.07090
#
# Static dielectric constant tensor:
#      x y z
#    x 2.978250 0.000000 0.000000 
#    y 0.000000 2.863400 0.000000 
#    z 0.000000 0.000000 3.345040 
# 
# 
# High freq. dielectric constant tensor:
#      x y z
#    x 1.608260 0.000000 0.000000 
#    y 0.000000 1.584190 0.000000 
#    z 0.000000 0.000000 1.618510 
# 
# From -- ./inp_files/68024.got.cif
#   From: 2010.03.12/outbox.cif.g09.slc.cpg/sg65_35_cif.got.tgz:68024.got - 2010.04.10 20:52:16.
