data_PCOD8271388
_publ_section_title
;
Structure prediction by ZEFSAII (Michael W. Deem and Ramdas Pophale) SiO2 
 PCOD8271388
Probable space group: C M M M
;
_chemical_formula_sum "Si O2"
_cell_formula_units_Z 72
_cell_length_a 8.992543
_cell_length_b 19.671883
_cell_length_c 22.271258
_cell_angle_alpha 90.000000
_cell_angle_beta 90.000000
_cell_angle_gamma 90.000000
_cell_volume 3939.791192
_symmetry_space_group_name_H-M "C M M M"
_symmetry_group_IT_number 65
_symmetry_cell_setting 'orthorhombic'
loop_
_space_group_symop_operation_xyz
x,y,z
-x,-y,z
x,-y,-z
-x,y,-z
-x,-y,-z
x,y,-z
-x,y,z
x,-y,z
1/2+x,1/2+y,z
1/2-x,1/2-y,z
1/2+x,1/2-y,-z
1/2-x,1/2+y,-z
1/2-x,1/2-y,-z
1/2+x,1/2+y,-z
1/2-x,1/2+y,z
1/2+x,1/2-y,z
loop_
_atom_site_type_symbol
_atom_site_label
_atom_site_fract_x
_atom_site_fract_y
_atom_site_fract_z
Si Si1 0.824770 0.819778 0.290637
Si Si2 0.172666 0.181855 0.847913
Si Si3 0.329640 0.920958 0.068232
Si Si4 0.167911 0.080697 0.500000
Si Si5 0.173298 0.419999 0.379585
O O1 0.750000 0.750000 0.313406
O O2 0.786088 0.832110 0.221119
O O3 0.754580 0.883177 0.325021
O O4 0.000000 0.816036 0.302706
O O5 0.250000 0.250000 0.871807
O O6 0.223392 0.118255 0.886778
O O7 0.000000 0.192871 0.856769
O O8 0.500000 0.904584 0.084207
O O9 0.296034 0.000000 0.076709
O O10 0.295100 0.898857 0.000000
O O11 0.254896 0.106897 0.441467
O O12 0.000000 0.109928 0.500000
O O13 0.165303 0.000000 0.500000
O O14 0.199381 0.500000 0.371137
O O15 0.000000 0.401594 0.380213
#
# Coordination Sequence:
#
# PCOD8271388 Si02
#       5
#    16  16  16   8  16
#     4  10  21  37  55  76 105 139 175 216 263 312
#     4  10  21  36  55  78 104 137 176 217 260 309
#     4   9  19  36  56  78 106 139 173 212 260 311
#     4   9  17  31  52  77 106 139 174 215 261 305
#     4  10  20  34  54  80 108 139 176 215 257 309
#
# _framework density 18.275079999999999
#
# number of rings (size 3 to 8) (size 9 to 14) (size 15 to 20)
#    0.000    2.333    0.000    3.000    0.000    7.556 
#    0.000    6.111    0.000    0.000    0.000    0.000 
#    0.000    0.000    0.000    0.000    0.000    0.000 
#
# Total GULP energy -446520.616444 kJ/mol
# GULP energy per Si atom -12403.350457 kJ/mol
# Density = 1.823348 g / cm^3
# Si number density = 18.275080 Si / 1000 Ang^3
#
#
#
# Elastic Constant Matrix: (Units=GPa)
#
#
# Indices 1 2 3 4 5 6 
#
# 1 111.0380 48.9060 60.2382 0.0000 0.0000 0.0000
# 2 48.9060 69.0964 54.1598 0.0000 0.0000 0.0000
# 3 60.2382 54.1598 93.9465 0.0000 0.0000 0.0000
# 4 0.0000 0.0000 0.0000 11.4889 0.0000 0.0000
# 5 0.0000 0.0000 0.0000 0.0000 37.4070 0.0000
# 6 0.0000 0.0000 0.0000 0.0000 0.0000 36.3894
#
#
#
# Elastic Compliance Matrix: (Units=1/GPa)
#
#
# Indices 1 2 3 4 5 6 
#
# 1 0.014902 -0.005579 -0.006339 0.000000 0.000000 0.000000
# 2 -0.005579 0.028492 -0.012849 0.000000 0.000000 0.000000
# 3 -0.006339 -0.012849 0.022116 0.000000 0.000000 0.000000
# 4 0.000000 0.000000 0.000000 0.087041 0.000000 0.000000
# 5 0.000000 0.000000 0.000000 0.000000 0.026733 0.000000
# 6 0.000000 0.000000 0.000000 0.000000 0.000000 0.027481
#
#
# Mechanical properties :
#
#
# Convention : Reuss Voigt Hill
#
# Bulk Modulus (GPa) = 62.58764 66.74321 64.66542
# Shear Modulus (GPa) = 19.11147 24.44219 21.77683
#
# Velocity S-wave (km/s) = 3.23734 3.66110 3.45572
# Velocity P-wave (km/s) = 6.94951 7.38053 7.16826
#
# Compressibility (1/GPa) = 0.01597760
#
# Stress axis : x y z
#
# Youngs Moduli (GPa) = 67.10525 35.09716 45.21624
#
# Poissons Ratio (x) = 0.19580 0.28662
# Poissons Ratio (y) = 0.37437 0.58096
# Poissons Ratio (z) = 0.42537 0.45095
#
# Static dielectric constant tensor:
#      x y z
#    x 3.476710 0.000000 0.000000 
#    y 0.000000 3.205820 0.000000 
#    z 0.000000 0.000000 3.405950 
# 
# 
# High freq. dielectric constant tensor:
#      x y z
#    x 1.722450 0.000000 0.000000 
#    y 0.000000 1.696050 0.000000 
#    z 0.000000 0.000000 1.711280 
# 
# From -- ./inp_files/59198.got.cif
#   From: 2010.03.12/outbox.cif.g09.slc.cpg/sg65_30_cif.got.tgz:59198.got - 2010.04.10 20:52:16.
