data_PCOD8271600
_publ_section_title
;
Structure prediction by ZEFSAII (Michael W. Deem and Ramdas Pophale) SiO2 
 PCOD8271600
Probable space group: C M M M
;
_chemical_formula_sum "Si O2"
_cell_formula_units_Z 72
_cell_length_a 17.498783
_cell_length_b 14.231537
_cell_length_c 15.202633
_cell_angle_alpha 90.000000
_cell_angle_beta 90.000000
_cell_angle_gamma 90.000000
_cell_volume 3785.981289
_symmetry_space_group_name_H-M "C M M M"
_symmetry_group_IT_number 65
_symmetry_cell_setting 'orthorhombic'
loop_
_space_group_symop_operation_xyz
x,y,z
-x,-y,z
x,-y,-z
-x,y,-z
-x,-y,-z
x,y,-z
-x,y,z
x,-y,z
1/2+x,1/2+y,z
1/2-x,1/2-y,z
1/2+x,1/2-y,-z
1/2-x,1/2+y,-z
1/2-x,1/2-y,-z
1/2+x,1/2+y,-z
1/2-x,1/2+y,z
1/2+x,1/2-y,z
loop_
_atom_site_type_symbol
_atom_site_label
_atom_site_fract_x
_atom_site_fract_y
_atom_site_fract_z
Si Si1 0.909403 0.104517 0.902566
Si Si2 0.323985 0.891410 0.668890
Si Si3 0.345237 0.609004 0.397852
Si Si4 0.584619 0.888573 0.500000
Si Si5 0.411487 0.733134 0.745320
O O1 0.878986 0.174737 0.828285
O O2 0.000000 0.100053 0.897470
O O3 0.876351 0.000000 0.884088
O O4 0.883535 0.138503 0.000000
O O5 0.236051 0.872887 0.648232
O O6 0.371100 0.854329 0.585278
O O7 0.357393 0.825653 0.745919
O O8 0.339708 0.000000 0.692084
O O9 0.343435 0.640597 0.500000
O O10 0.368301 0.500000 0.391613
O O11 0.405467 0.670598 0.343453
O O12 0.500000 0.844743 0.500000
O O13 0.582013 0.000000 0.500000
O O14 0.500000 0.762600 0.756943
#
# Coordination Sequence:
#
# PCOD8271600 Si02
#       5
#    16  16  16   8  16
#     4   8  15  31  54  77 102 132 167 210 260 313
#     4  10  20  35  52  70  99 142 183 216 248 294
#     4  10  21  37  53  70 101 144 182 211 250 311
#     4   9  16  28  47  68  90 124 177 227 248 264
#     4  11  22  32  51  82 108 130 166 219 268 311
#
# _framework density 19.017527000000001
#
# number of rings (size 3 to 8) (size 9 to 14) (size 15 to 20)
#    0.000    2.333    1.111    2.667    1.556    4.000 
#    0.000    1.111    0.000    3.333    0.000    6.222 
#    0.000    0.000    0.000    0.000    0.000    0.000 
#
# Total GULP energy -446285.079817 kJ/mol
# GULP energy per Si atom -12396.807773 kJ/mol
# Density = 1.897424 g / cm^3
# Si number density = 19.017527 Si / 1000 Ang^3
#
#
#
# Elastic Constant Matrix: (Units=GPa)
#
#
# Indices 1 2 3 4 5 6 
#
# 1 37.2895 7.5496 14.1417 0.0000 0.0000 0.0000
# 2 7.5496 82.7143 65.2469 0.0000 0.0000 0.0000
# 3 14.1417 65.2469 112.0173 0.0000 0.0000 0.0000
# 4 0.0000 0.0000 0.0000 22.7199 0.0000 0.0000
# 5 0.0000 0.0000 0.0000 0.0000 10.8233 0.0000
# 6 0.0000 0.0000 0.0000 0.0000 0.0000 25.5431
#
#
#
# Elastic Compliance Matrix: (Units=1/GPa)
#
#
# Indices 1 2 3 4 5 6 
#
# 1 0.028174 0.000433 -0.003809 0.000000 0.000000 0.000000
# 2 0.000433 0.022373 -0.013086 0.000000 0.000000 0.000000
# 3 -0.003809 -0.013086 0.017031 0.000000 0.000000 0.000000
# 4 0.000000 0.000000 0.000000 0.044014 0.000000 0.000000
# 5 0.000000 0.000000 0.000000 0.000000 0.092393 0.000000
# 6 0.000000 0.000000 0.000000 0.000000 0.000000 0.039150
#
#
# Mechanical properties :
#
#
# Convention : Reuss Voigt Hill
#
# Bulk Modulus (GPa) = 28.85751 45.09973 36.97862
# Shear Modulus (GPa) = 17.38463 21.48945 19.43704
#
# Velocity S-wave (km/s) = 3.02675 3.36517 3.20043
# Velocity P-wave (km/s) = 5.23661 6.23421 5.75706
#
# Compressibility (1/GPa) = 0.03465303
#
# Stress axis : x y z
#
# Youngs Moduli (GPa) = 35.49363 44.69653 58.71802
#
# Poissons Ratio (x) = -0.01937 0.22367
# Poissons Ratio (y) = -0.01538 0.76841
# Poissons Ratio (z) = 0.13520 0.58492
#
# Static dielectric constant tensor:
#      x y z
#    x 3.272110 0.000000 0.000000 
#    y 0.000000 3.549380 0.000000 
#    z 0.000000 0.000000 3.564870 
# 
# 
# High freq. dielectric constant tensor:
#      x y z
#    x 1.717920 0.000000 0.000000 
#    y 0.000000 1.743680 0.000000 
#    z 0.000000 0.000000 1.717640 
# 
# From -- ./inp_files/39753.got.cif
#   From: 2010.03.12/outbox.cif.g09.slc.cpg/sg65_20_cif.got.tgz:39753.got - 2010.04.10 20:52:16.
