data_PCOD8271336
_publ_section_title
;
Structure prediction by ZEFSAII (Michael W. Deem and Ramdas Pophale) SiO2 
 PCOD8271336
Probable space group: C M M M
;
_chemical_formula_sum "Si O2"
_cell_formula_units_Z 104
_cell_length_a 18.191207
_cell_length_b 27.465976
_cell_length_c 11.507138
_cell_angle_alpha 90.000000
_cell_angle_beta 90.000000
_cell_angle_gamma 90.000000
_cell_volume 5749.417856
_symmetry_space_group_name_H-M "C M M M"
_symmetry_group_IT_number 65
_symmetry_cell_setting 'orthorhombic'
loop_
_space_group_symop_operation_xyz
x,y,z
-x,-y,z
x,-y,-z
-x,y,-z
-x,-y,-z
x,y,-z
-x,y,z
x,-y,z
1/2+x,1/2+y,z
1/2-x,1/2-y,z
1/2+x,1/2-y,-z
1/2-x,1/2+y,-z
1/2-x,1/2-y,-z
1/2+x,1/2+y,-z
1/2-x,1/2+y,z
1/2+x,1/2-y,z
loop_
_atom_site_type_symbol
_atom_site_label
_atom_site_fract_x
_atom_site_fract_y
_atom_site_fract_z
Si Si1 0.911196 0.389898 0.000000
Si Si2 0.173674 0.678644 0.633818
Si Si3 0.842310 0.843102 0.632488
Si Si4 0.086425 0.721941 0.000000
Si Si5 0.913789 0.239520 0.754243
Si Si6 0.419189 0.000000 0.621913
Si Si7 0.290673 0.554584 0.366803
Si Si8 0.853988 0.583438 0.756963
O O1 0.872891 0.416748 0.107519
O O2 0.885952 0.333552 0.000000
O O3 0.000000 0.395416 0.000000
O O4 0.158529 0.667636 0.500000
O O5 0.260633 0.677251 0.659066
O O6 0.136631 0.729591 0.666549
O O7 0.133470 0.637621 0.709383
O O8 0.864628 0.831315 0.500000
O O9 0.898849 0.816684 0.720083
O O10 0.848596 0.901613 0.655494
O O11 0.114206 0.750309 0.885378
O O12 0.000000 0.722120 0.000000
O O13 0.000000 0.252009 0.739471
O O14 0.410562 0.048143 0.696462
O O15 0.500000 0.000000 0.576389
O O16 0.371137 0.000000 0.500000
O O17 0.261380 0.560850 0.500000
O O18 0.324551 0.500000 0.349973
O O19 0.226236 0.561933 0.273259
#
# Coordination Sequence:
#
# PCOD8271336 Si02
#       8
#     8  16  16   8  16   8  16  16
#     4  11  22  37  51  67 103 150 186 219 266 317
#     4  10  20  34  54  78 106 139 173 217 273 324
#     4   9  19  34  53  82 114 138 170 219 270 322
#     4   9  20  38  53  69 100 146 189 220 252 310
#     4  11  21  35  55  77 106 143 181 221 265 318
#     4  11  22  33  47  71 101 128 166 226 273 306
#     4   9  17  34  60  81 102 136 175 218 268 321
#     4  11  20  34  53  71  98 134 183 222 256 308
#
# _framework density 18.088788000000001
#
# number of rings (size 3 to 8) (size 9 to 14) (size 15 to 20)
#    0.000    1.923    2.308    3.692    0.000    3.385 
#    0.000    5.385    0.000    0.462    0.000    2.154 
#    0.000    1.846    0.000    0.000    0.000    0.000 
#
# Total GULP energy -644440.577857 kJ/mol
# GULP energy per Si atom -12393.088036 kJ/mol
# Density = 1.804762 g / cm^3
# Si number density = 18.088788 Si / 1000 Ang^3
#
#
#
# Elastic Constant Matrix: (Units=GPa)
#
#
# Indices 1 2 3 4 5 6 
#
# 1 27.2958 19.3786 23.5311 0.0000 0.0000 0.0000
# 2 19.3786 113.4349 43.7840 0.0000 0.0000 0.0000
# 3 23.5311 43.7840 125.8199 0.0000 0.0000 0.0000
# 4 0.0000 0.0000 0.0000 22.0626 0.0000 0.0000
# 5 0.0000 0.0000 0.0000 0.0000 31.1433 0.0000
# 6 0.0000 0.0000 0.0000 0.0000 0.0000 15.1432
#
#
#
# Elastic Compliance Matrix: (Units=1/GPa)
#
#
# Indices 1 2 3 4 5 6 
#
# 1 0.046254 -0.005271 -0.006816 0.000000 0.000000 0.000000
# 2 -0.005271 0.010784 -0.002767 0.000000 0.000000 0.000000
# 3 -0.006816 -0.002767 0.010186 0.000000 0.000000 0.000000
# 4 0.000000 0.000000 0.000000 0.045325 0.000000 0.000000
# 5 0.000000 0.000000 0.000000 0.000000 0.032110 0.000000
# 6 0.000000 0.000000 0.000000 0.000000 0.000000 0.066036
#
#
# Mechanical properties :
#
#
# Convention : Reuss Voigt Hill
#
# Bulk Modulus (GPa) = 26.65578 48.88200 37.76889
# Shear Modulus (GPa) = 19.77003 25.66029 22.71516
#
# Velocity S-wave (km/s) = 3.30956 3.77048 3.54751
# Velocity P-wave (km/s) = 5.41962 6.78509 6.14043
#
# Compressibility (1/GPa) = 0.03751531
#
# Stress axis : x y z
#
# Youngs Moduli (GPa) = 21.61982 92.72933 98.17836
#
# Poissons Ratio (x) = 0.48876 0.66921
# Poissons Ratio (y) = 0.11395 0.27166
# Poissons Ratio (z) = 0.14737 0.25658
#
# Static dielectric constant tensor:
#      x y z
#    x 2.948280 0.000000 0.000000 
#    y 0.000000 3.576080 0.000000 
#    z 0.000000 0.000000 3.387670 
# 
# 
# High freq. dielectric constant tensor:
#      x y z
#    x 1.657470 0.000000 0.000000 
#    y 0.000000 1.710940 0.000000 
#    z 0.000000 0.000000 1.699540 
# 
# From -- ./inp_files/27563.got.cif
#   From: 2010.03.12/outbox.cif.g09.slc.cpg/sg65_14_cif.got.tgz:27563.got - 2010.04.10 20:52:16.
