data_PCOD8271390
_publ_section_title
;
Structure prediction by ZEFSAII (Michael W. Deem and Ramdas Pophale) SiO2 
 PCOD8271390
Probable space group: C M M M
;
_chemical_formula_sum "Si O2"
_cell_formula_units_Z 72
_cell_length_a 25.274640
_cell_length_b 8.996776
_cell_length_c 16.836912
_cell_angle_alpha 90.000000
_cell_angle_beta 90.000000
_cell_angle_gamma 90.000000
_cell_volume 3828.550042
_symmetry_space_group_name_H-M "C M M M"
_symmetry_group_IT_number 65
_symmetry_cell_setting 'orthorhombic'
loop_
_space_group_symop_operation_xyz
x,y,z
-x,-y,z
x,-y,-z
-x,y,-z
-x,-y,-z
x,y,-z
-x,y,z
x,-y,z
1/2+x,1/2+y,z
1/2-x,1/2-y,z
1/2+x,1/2-y,-z
1/2-x,1/2+y,-z
1/2-x,1/2-y,-z
1/2+x,1/2+y,-z
1/2-x,1/2+y,z
1/2+x,1/2-y,z
loop_
_atom_site_type_symbol
_atom_site_label
_atom_site_fract_x
_atom_site_fract_y
_atom_site_fract_z
Si Si1 0.667939 0.671591 0.087697
Si Si2 0.415587 0.174242 0.302360
Si Si3 0.557061 0.667254 0.852731
Si Si4 0.801825 0.674672 0.246309
Si Si5 0.500000 0.327281 0.407119
O O1 0.681539 0.500000 0.105796
O O2 0.604478 0.697898 0.086359
O O3 0.694328 0.772188 0.154852
O O4 0.688691 0.717618 0.000000
O O5 0.442014 0.217372 0.219464
O O6 0.353332 0.220398 0.297980
O O7 0.445985 0.256758 0.373050
O O8 0.421952 0.000000 0.316161
O O9 0.500000 0.685923 0.896051
O O10 0.562676 0.500000 0.817756
O O11 0.794155 0.500000 0.245500
O O12 0.750000 0.750000 0.285568
O O13 0.500000 0.500000 0.385938
O O14 0.500000 0.296507 0.500000
#
# Coordination Sequence:
#
# PCOD8271390 Si02
#       5
#    16  16  16  16   8
#     4   9  18  31  46  68 100 137 178 225 274 319
#     4  10  20  34  54  80 109 139 174 215 257 306
#     4   9  16  27  46  70  98 136 177 216 262 314
#     4  10  21  36  55  78 102 136 181 225 269 314
#     4  11  23  37  57  87 118 145 170 199 245 304
#
# _framework density 18.806076000000001
#
# number of rings (size 3 to 8) (size 9 to 14) (size 15 to 20)
#    0.000    2.333    1.111    1.667    0.000    4.889 
#    0.000    2.222    0.000    0.667    0.000    6.222 
#    0.000    0.000    0.000    0.000    0.000    0.000 
#
# Total GULP energy -446194.421189 kJ/mol
# GULP energy per Si atom -12394.289477 kJ/mol
# Density = 1.876327 g / cm^3
# Si number density = 18.806076 Si / 1000 Ang^3
#
#
#
# Elastic Constant Matrix: (Units=GPa)
#
#
# Indices 1 2 3 4 5 6 
#
# 1 141.0868 54.0796 33.0492 0.0000 0.0000 0.0000
# 2 54.0796 86.8578 40.5486 0.0000 0.0000 0.0000
# 3 33.0492 40.5486 71.4668 0.0000 0.0000 0.0000
# 4 0.0000 0.0000 0.0000 19.5088 0.0000 0.0000
# 5 0.0000 0.0000 0.0000 0.0000 16.0212 0.0000
# 6 0.0000 0.0000 0.0000 0.0000 0.0000 29.4949
#
#
#
# Elastic Compliance Matrix: (Units=1/GPa)
#
#
# Indices 1 2 3 4 5 6 
#
# 1 0.009411 -0.005207 -0.001398 0.000000 0.000000 0.000000
# 2 -0.005207 0.018542 -0.008113 0.000000 0.000000 0.000000
# 3 -0.001398 -0.008113 0.019242 0.000000 0.000000 0.000000
# 4 0.000000 0.000000 0.000000 0.051259 0.000000 0.000000
# 5 0.000000 0.000000 0.000000 0.000000 0.062417 0.000000
# 6 0.000000 0.000000 0.000000 0.000000 0.000000 0.033904
#
#
# Mechanical properties :
#
#
# Convention : Reuss Voigt Hill
#
# Bulk Modulus (GPa) = 56.30451 61.64070 58.97261
# Shear Modulus (GPa) = 21.72678 24.45390 23.09034
#
# Velocity S-wave (km/s) = 3.40267 3.60991 3.50782
# Velocity P-wave (km/s) = 6.74107 7.08685 6.91612
#
# Compressibility (1/GPa) = 0.01776057
#
# Stress axis : x y z
#
# Youngs Moduli (GPa) = 106.25669 53.93046 51.97029
#
# Poissons Ratio (x) = 0.28082 0.07264
# Poissons Ratio (y) = 0.55329 0.42161
# Poissons Ratio (z) = 0.14852 0.43751
#
# Static dielectric constant tensor:
#      x y z
#    x 3.833780 0.000000 0.000000 
#    y 0.000000 3.452000 0.000000 
#    z 0.000000 0.000000 3.025580 
# 
# 
# High freq. dielectric constant tensor:
#      x y z
#    x 1.750250 0.000000 0.000000 
#    y 0.000000 1.732820 0.000000 
#    z 0.000000 0.000000 1.680070 
# 
# From -- ./inp_files/46499.got.cif
#   From: 2010.03.12/outbox.cif.g09.slc.cpg/sg65_24_cif.got.tgz:46499.got - 2010.04.10 20:52:16.
