data_PCOD8271913
_publ_section_title
;
Structure prediction by ZEFSAII (Michael W. Deem and Ramdas Pophale) SiO2 
 PCOD8271913
Probable space group: C M M M
;
_chemical_formula_sum "Si O2"
_cell_formula_units_Z 104
_cell_length_a 28.245630
_cell_length_b 8.697949
_cell_length_c 22.647222
_cell_angle_alpha 90.000000
_cell_angle_beta 90.000000
_cell_angle_gamma 90.000000
_cell_volume 5563.947968
_symmetry_space_group_name_H-M "C M M M"
_symmetry_group_IT_number 65
_symmetry_cell_setting 'orthorhombic'
loop_
_space_group_symop_operation_xyz
x,y,z
-x,-y,z
x,-y,-z
-x,y,-z
-x,-y,-z
x,y,-z
-x,y,z
x,-y,z
1/2+x,1/2+y,z
1/2-x,1/2-y,z
1/2+x,1/2-y,-z
1/2-x,1/2+y,-z
1/2-x,1/2-y,-z
1/2+x,1/2+y,-z
1/2-x,1/2+y,z
1/2+x,1/2-y,z
loop_
_atom_site_type_symbol
_atom_site_label
_atom_site_fract_x
_atom_site_fract_y
_atom_site_fract_z
Si Si1 0.699928 0.678924 0.568618
Si Si2 0.856226 0.177260 0.106856
Si Si3 0.199144 0.820195 0.226347
Si Si4 0.640619 0.818395 0.332336
Si Si5 0.553473 0.820985 0.850219
Si Si6 0.698547 0.820687 0.000000
Si Si7 0.946521 0.177099 0.276241
O O1 0.689544 0.706974 0.500000
O O2 0.700368 0.500000 0.585051
O O3 0.750000 0.750000 0.587370
O O4 0.658992 0.765932 0.603931
O O5 0.833922 0.212217 0.170431
O O6 0.911146 0.227350 0.107712
O O7 0.852386 0.000000 0.089353
O O8 0.829336 0.274347 0.058261
O O9 0.250000 0.750000 0.212303
O O10 0.176873 0.737828 0.282626
O O11 0.203942 0.000000 0.239857
O O12 0.588996 0.742344 0.325115
O O13 0.635795 0.000000 0.329691
O O14 0.500000 0.783099 0.870660
O O15 0.561018 0.773359 0.782816
O O16 0.564946 0.000000 0.855921
O O17 0.750000 0.750000 0.000000
O O18 0.705437 0.000000 0.000000
O O19 0.000000 0.194634 0.300337
O O20 0.934349 0.000000 0.262079
#
# Coordination Sequence:
#
# PCOD8271913 Si02
#       7
#    16  16  16  16  16   8  16
#     4  10  21  38  59  82 113 153 196 239 284 339
#     4  11  23  40  62  86 115 152 194 239 286 343
#     4  11  23  37  55  81 114 149 187 235 286 340
#     4  12  23  35  56  84 117 151 189 237 286 342
#     4  10  20  35  58  88 120 152 188 233 287 344
#     4  12  26  44  65  86 115 152 196 243 285 345
#     4  10  20  35  56  83 116 152 191 235 284 341
#
# _framework density 18.691763999999999
#
# number of rings (size 3 to 8) (size 9 to 14) (size 15 to 20)
#    0.000    1.231    1.538    5.308    0.000    5.846 
#    0.000    0.385    0.000    2.769    0.000    3.231 
#    0.000    0.000    0.000    0.000    0.000    0.000 
#
# Total GULP energy -645106.728766 kJ/mol
# GULP energy per Si atom -12405.898630 kJ/mol
# Density = 1.864922 g / cm^3
# Si number density = 18.691764 Si / 1000 Ang^3
#
#
#
# Elastic Constant Matrix: (Units=GPa)
#
#
# Indices 1 2 3 4 5 6 
#
# 1 134.4155 51.4849 39.3781 0.0000 0.0000 0.0000
# 2 51.4849 95.3555 29.4259 0.0000 0.0000 0.0000
# 3 39.3781 29.4259 63.8849 0.0000 0.0000 0.0000
# 4 0.0000 0.0000 0.0000 28.3297 0.0000 0.0000
# 5 0.0000 0.0000 0.0000 0.0000 -122.7650 0.0000
# 6 0.0000 0.0000 0.0000 0.0000 0.0000 36.8220
#
#
#
# Elastic Compliance Matrix: (Units=1/GPa)
#
#
# Indices 1 2 3 4 5 6 
#
# 1 0.010357 -0.004222 -0.004439 0.000000 0.000000 0.000000
# 2 -0.004222 0.013946 -0.003821 0.000000 0.000000 0.000000
# 3 -0.004439 -0.003821 0.020150 0.000000 0.000000 0.000000
# 4 0.000000 0.000000 0.000000 0.035299 0.000000 0.000000
# 5 0.000000 0.000000 0.000000 0.000000 -0.008146 0.000000
# 6 0.000000 0.000000 0.000000 0.000000 0.000000 0.027158
#
#
# Mechanical properties :
#
#
# Convention : Reuss Voigt Hill
#
# Bulk Modulus (GPa) = 51.31501 59.35929 55.33715
# Shear Modulus (GPa) = 38.39512 0.03513 19.21513
#
# Velocity S-wave (km/s) = 4.53716 0.13725 3.20972
# Velocity P-wave (km/s) = 7.41354 5.64367 6.58831
#
# Compressibility (1/GPa) = 0.01948748
#
# Stress axis : x y z
#
# Youngs Moduli (GPa) = 96.54912 71.70551 49.62892
#
# Poissons Ratio (x) = 0.30276 0.22032
# Poissons Ratio (y) = 0.40766 0.18963
# Poissons Ratio (z) = 0.42862 0.27399
#
# Static dielectric constant tensor:
#      x y z
#    x 3.391960 0.000000 0.000000 
#    y 0.000000 3.634950 0.000000 
#    z 0.000000 0.000000 3.275960 
# 
# 
# High freq. dielectric constant tensor:
#      x y z
#    x 1.737310 0.000000 0.000000 
#    y 0.000000 1.746550 0.000000 
#    z 0.000000 0.000000 1.706030 
# 
# From -- ./inp_files/65885.got.cif
#   From: 2010.03.12/outbox.cif.g09.slc.cpg/sg65_33_cif.got.tgz:65885.got - 2010.04.10 20:52:16.
