data_PCOD8271313
_publ_section_title
;
Structure prediction by ZEFSAII (Michael W. Deem and Ramdas Pophale) SiO2 
 PCOD8271313
Probable space group: C M M M
;
_chemical_formula_sum "Si O2"
_cell_formula_units_Z 56
_cell_length_a 10.707545
_cell_length_b 37.312231
_cell_length_c 7.690870
_cell_angle_alpha 90.000000
_cell_angle_beta 90.000000
_cell_angle_gamma 90.000000
_cell_volume 3072.674783
_symmetry_space_group_name_H-M "C M M M"
_symmetry_group_IT_number 65
_symmetry_cell_setting 'orthorhombic'
loop_
_space_group_symop_operation_xyz
x,y,z
-x,-y,z
x,-y,-z
-x,y,-z
-x,-y,-z
x,y,-z
-x,y,z
x,-y,z
1/2+x,1/2+y,z
1/2-x,1/2-y,z
1/2+x,1/2-y,-z
1/2-x,1/2+y,-z
1/2-x,1/2-y,-z
1/2+x,1/2+y,-z
1/2-x,1/2+y,z
1/2+x,1/2-y,z
loop_
_atom_site_type_symbol
_atom_site_label
_atom_site_fract_x
_atom_site_fract_y
_atom_site_fract_z
Si Si1 0.640698 0.410982 0.000000
Si Si2 0.500000 0.957977 0.807493
Si Si3 0.144816 0.779966 0.698486
Si Si4 0.853489 0.832914 0.000000
Si Si5 0.734250 0.458404 0.305753
O O1 0.661442 0.434181 0.171405
O O2 0.500000 0.399234 0.000000
O O3 0.712546 0.372501 0.000000
O O4 0.621236 0.946454 0.700142
O O5 0.500000 0.000000 0.833377
O O6 0.500000 0.939938 0.000000
O O7 0.153143 0.793644 0.500000
O O8 0.250000 0.750000 0.731956
O O9 0.186047 0.812097 0.825105
O O10 0.000000 0.767060 0.736937
O O11 0.000000 0.836721 0.000000
O O12 0.683028 0.451659 0.500000
O O13 0.717517 0.500000 0.253265
#
# Coordination Sequence:
#
# PCOD8271313 Si02
#       5
#     8   8  16   8  16
#     4  11  23  36  50  71 104 144 180 214 253 309
#     4   9  15  29  55  78  95 119 160 217 271 318
#     4   9  17  31  55  82 105 132 169 211 251 297
#     4   9  19  34  51  73 101 136 175 205 241 297
#     4  10  20  34  54  77  99 129 173 224 272 314
#
# _framework density 18.225162000000001
#
# number of rings (size 3 to 8) (size 9 to 14) (size 15 to 20)
#    0.000    2.429    1.429    1.286    0.000    4.571 
#    0.000    4.286    6.286    0.000    0.000    0.000 
#    0.000    0.000    0.000    0.000    0.000    0.000 
#
# Total GULP energy -346902.640238 kJ/mol
# GULP energy per Si atom -12389.380008 kJ/mol
# Density = 1.818368 g / cm^3
# Si number density = 18.225162 Si / 1000 Ang^3
#
#
#
# Elastic Constant Matrix: (Units=GPa)
#
#
# Indices 1 2 3 4 5 6 
#
# 1 56.6377 36.0843 27.9229 0.0000 0.0000 0.0000
# 2 36.0843 118.7820 82.8471 0.0000 0.0000 0.0000
# 3 27.9229 82.8471 138.6233 0.0000 0.0000 0.0000
# 4 0.0000 0.0000 0.0000 11.5360 0.0000 0.0000
# 5 0.0000 0.0000 0.0000 0.0000 1.1752 0.0000
# 6 0.0000 0.0000 0.0000 0.0000 0.0000 15.1203
#
#
#
# Elastic Compliance Matrix: (Units=1/GPa)
#
#
# Indices 1 2 3 4 5 6 
#
# 1 0.021939 -0.006143 -0.000748 0.000000 0.000000 0.000000
# 2 -0.006143 0.016157 -0.008418 0.000000 0.000000 0.000000
# 3 -0.000748 -0.008418 0.012396 0.000000 0.000000 0.000000
# 4 0.000000 0.000000 0.000000 0.086685 0.000000 0.000000
# 5 0.000000 0.000000 0.000000 0.000000 0.850908 0.000000
# 6 0.000000 0.000000 0.000000 0.000000 0.000000 0.066136
#
#
# Mechanical properties :
#
#
# Convention : Reuss Voigt Hill
#
# Bulk Modulus (GPa) = 50.32150 67.52795 58.92472
# Shear Modulus (GPa) = 4.58101 16.71222 10.64661
#
# Velocity S-wave (km/s) = 1.58714 3.03146 2.41959
# Velocity P-wave (km/s) = 5.57042 7.02748 6.34094
#
# Compressibility (1/GPa) = 0.01987222
#
# Stress axis : x y z
#
# Youngs Moduli (GPa) = 45.58190 61.89418 80.67363
#
# Poissons Ratio (x) = 0.38022 0.06032
# Poissons Ratio (y) = 0.28002 0.67915
# Poissons Ratio (z) = 0.03408 0.52105
#
# Static dielectric constant tensor:
#      x y z
#    x 3.524950 0.000000 0.000000 
#    y 0.000000 3.237170 0.000000 
#    z 0.000000 0.000000 3.541170 
# 
# 
# High freq. dielectric constant tensor:
#      x y z
#    x 1.694030 0.000000 0.000000 
#    y 0.000000 1.673820 0.000000 
#    z 0.000000 0.000000 1.723850 
# 
# From -- ./inp_files/4802.got.cif
#   From: 2010.03.12/outbox.cif.g09.slc.cpg/sg65_3_cif.got.tgz:4802.got - 2010.04.10 20:52:16.
