data_PCOD8271348
_publ_section_title
;
Structure prediction by ZEFSAII (Michael W. Deem and Ramdas Pophale) SiO2 
 PCOD8271348
Probable space group: C M M M
;
_chemical_formula_sum "Si O2"
_cell_formula_units_Z 88
_cell_length_a 30.782745
_cell_length_b 17.966834
_cell_length_c 8.754408
_cell_angle_alpha 90.000000
_cell_angle_beta 90.000000
_cell_angle_gamma 90.000000
_cell_volume 4841.787034
_symmetry_space_group_name_H-M "C M M M"
_symmetry_group_IT_number 65
_symmetry_cell_setting 'orthorhombic'
loop_
_space_group_symop_operation_xyz
x,y,z
-x,-y,z
x,-y,-z
-x,y,-z
-x,-y,-z
x,y,-z
-x,y,z
x,-y,z
1/2+x,1/2+y,z
1/2-x,1/2-y,z
1/2+x,1/2-y,-z
1/2-x,1/2+y,-z
1/2-x,1/2-y,-z
1/2+x,1/2+y,-z
1/2-x,1/2+y,z
1/2+x,1/2-y,z
loop_
_atom_site_type_symbol
_atom_site_label
_atom_site_fract_x
_atom_site_fract_y
_atom_site_fract_z
Si Si1 0.337966 0.082039 0.822646
Si Si2 0.796553 0.732688 0.820593
Si Si3 0.950427 0.913192 0.678504
Si Si4 0.113160 0.796011 0.180370
Si Si5 0.082146 0.646601 0.322545
Si Si6 0.000000 0.581450 0.821638
O O1 0.306938 0.148446 0.765935
O O2 0.381388 0.087044 0.723468
O O3 0.316864 0.000000 0.796670
O O4 0.350218 0.093833 0.000000
O O5 0.750000 0.750000 0.741550
O O6 0.834737 0.792791 0.779290
O O7 0.790376 0.732929 0.000000
O O8 0.943956 0.897140 0.500000
O O9 0.912373 0.870691 0.771184
O O10 0.000000 0.889484 0.726243
O O11 0.944019 0.000000 0.714899
O O12 0.093384 0.730239 0.278587
O O13 0.106827 0.782955 0.000000
O O14 0.072215 0.640832 0.500000
O O15 0.040458 0.628877 0.226825
O O16 0.000000 0.500000 0.742711
O O17 0.000000 0.571338 0.000000
#
# Coordination Sequence:
#
# PCOD8271348 Si02
#       6
#    16  16  16  16  16   8
#     4   9  17  31  51  73  98 131 171 214 261 309
#     4   8  15  30  51  75 103 134 171 217 268 319
#     4   9  19  36  56  77 105 142 180 218 264 320
#     4  10  20  34  54  79 105 135 173 219 264 308
#     4  11  22  34  50  72 100 135 171 208 251 303
#     4  11  23  37  51  69  98 133 168 209 253 293
#
# _framework density 18.175108000000002
#
# number of rings (size 3 to 8) (size 9 to 14) (size 15 to 20)
#    0.000    2.455    0.000    4.636    1.273    4.000 
#    0.000    1.818    0.000   16.909    0.000    0.000 
#    0.000    0.000    0.000    0.000    0.000    0.000 
#
# Total GULP energy -545176.227621 kJ/mol
# GULP energy per Si atom -12390.368810 kJ/mol
# Density = 1.813374 g / cm^3
# Si number density = 18.175108 Si / 1000 Ang^3
#
#
#
# Elastic Constant Matrix: (Units=GPa)
#
#
# Indices 1 2 3 4 5 6 
#
# 1 144.3071 55.2250 19.1434 0.0000 0.0000 0.0000
# 2 55.2250 84.8702 14.8701 0.0000 0.0000 0.0000
# 3 19.1434 14.8701 49.9560 0.0000 0.0000 0.0000
# 4 0.0000 0.0000 0.0000 21.7000 0.0000 0.0000
# 5 0.0000 0.0000 0.0000 0.0000 2.4644 0.0000
# 6 0.0000 0.0000 0.0000 0.0000 0.0000 21.5174
#
#
#
# Elastic Compliance Matrix: (Units=1/GPa)
#
#
# Indices 1 2 3 4 5 6 
#
# 1 0.009392 -0.005782 -0.001878 0.000000 0.000000 0.000000
# 2 -0.005782 0.015991 -0.002544 0.000000 0.000000 0.000000
# 3 -0.001878 -0.002544 0.021494 0.000000 0.000000 0.000000
# 4 0.000000 0.000000 0.000000 0.046083 0.000000 0.000000
# 5 0.000000 0.000000 0.000000 0.000000 0.405777 0.000000
# 6 0.000000 0.000000 0.000000 0.000000 0.000000 0.046474
#
#
# Mechanical properties :
#
#
# Convention : Reuss Voigt Hill
#
# Bulk Modulus (GPa) = 37.78026 50.84559 44.31293
# Shear Modulus (GPa) = 8.70409 21.79600 15.25005
#
# Velocity S-wave (km/s) = 2.19076 3.46674 2.89980
# Velocity P-wave (km/s) = 5.21835 6.63781 5.97041
#
# Compressibility (1/GPa) = 0.02646885
#
# Stress axis : x y z
#
# Youngs Moduli (GPa) = 106.47923 62.53575 46.52353
#
# Poissons Ratio (x) = 0.36158 0.08736
# Poissons Ratio (y) = 0.61567 0.11836
# Poissons Ratio (z) = 0.19994 0.15910
#
# Static dielectric constant tensor:
#      x y z
#    x 3.671160 0.000000 0.000000 
#    y 0.000000 3.429320 0.000000 
#    z 0.000000 0.000000 3.172840 
# 
# 
# High freq. dielectric constant tensor:
#      x y z
#    x 1.699500 0.000000 0.000000 
#    y 0.000000 1.703430 0.000000 
#    z 0.000000 0.000000 1.687630 
# 
# From -- ./inp_files/10103.got.cif
#   From: 2010.03.12/outbox.cif.g09.slc.cpg/sg65_6_cif.got.tgz:10103.got - 2010.04.10 20:52:16.
