data_PCOD8271906
_publ_section_title
;
Structure prediction by ZEFSAII (Michael W. Deem and Ramdas Pophale) SiO2 
 PCOD8271906
Probable space group: C M M M
;
_chemical_formula_sum "Si O2"
_cell_formula_units_Z 88
_cell_length_a 22.711756
_cell_length_b 22.079100
_cell_length_c 9.382647
_cell_angle_alpha 90.000000
_cell_angle_beta 90.000000
_cell_angle_gamma 90.000000
_cell_volume 4704.976489
_symmetry_space_group_name_H-M "C M M M"
_symmetry_group_IT_number 65
_symmetry_cell_setting 'orthorhombic'
loop_
_space_group_symop_operation_xyz
x,y,z
-x,-y,z
x,-y,-z
-x,y,-z
-x,-y,-z
x,y,-z
-x,y,z
x,-y,z
1/2+x,1/2+y,z
1/2-x,1/2-y,z
1/2+x,1/2-y,-z
1/2-x,1/2+y,-z
1/2-x,1/2-y,-z
1/2+x,1/2+y,-z
1/2-x,1/2+y,z
1/2+x,1/2-y,z
loop_
_atom_site_type_symbol
_atom_site_label
_atom_site_fract_x
_atom_site_fract_y
_atom_site_fract_z
Si Si1 0.566100 0.272196 0.664026
Si Si2 0.624733 0.626894 0.170256
Si Si3 0.564732 0.069753 0.159941
Si Si4 0.067350 0.000000 0.168076
Si Si5 0.137056 0.656439 0.341454
Si Si6 0.267334 0.316411 0.337682
O O1 0.576038 0.292028 0.500000
O O2 0.500000 0.246857 0.686107
O O3 0.574534 0.329097 0.768192
O O4 0.614055 0.222004 0.711833
O O5 0.604869 0.559091 0.216024
O O6 0.686746 0.646669 0.240987
O O7 0.629766 0.633144 0.000000
O O8 0.500000 0.080681 0.226527
O O9 0.613908 0.103071 0.246633
O O10 0.581447 0.000000 0.162382
O O11 0.565478 0.094822 0.000000
O O12 0.000000 0.000000 0.231743
O O13 0.061045 0.000000 0.000000
O O14 0.112043 0.648032 0.500000
O O15 0.206737 0.647055 0.336814
O O16 0.292381 0.309953 0.500000
O O17 0.250000 0.250000 0.277088
#
# Coordination Sequence:
#
# PCOD8271906 Si02
#       6
#    16  16  16   8  16  16
#     4  10  20  35  56  83 115 147 182 228 283 340
#     4  11  22  37  60  86 114 148 192 239 285 342
#     4   9  19  36  55  77 110 148 181 221 276 331
#     4   9  20  40  61  83 117 157 192 235 294 349
#     4  10  20  35  57  81 107 144 188 230 275 332
#     4  10  20  39  61  79 111 151 183 224 281 339
#
# _framework density 18.703600999999999
#
# number of rings (size 3 to 8) (size 9 to 14) (size 15 to 20)
#    0.000    2.091    1.818    2.182    0.000    4.364 
#    1.636    2.727    0.000    3.273    0.000    0.000 
#    0.000    0.000    0.000    0.000    0.000    0.000 
#
# Total GULP energy -545405.288975 kJ/mol
# GULP energy per Si atom -12395.574749 kJ/mol
# Density = 1.866103 g / cm^3
# Si number density = 18.703601 Si / 1000 Ang^3
#
#
#
# Elastic Constant Matrix: (Units=GPa)
#
#
# Indices 1 2 3 4 5 6 
#
# 1 116.3982 61.5103 43.9186 0.0000 0.0000 0.0000
# 2 61.5103 68.1762 44.2423 0.0000 0.0000 0.0000
# 3 43.9186 44.2423 70.2623 0.0000 0.0000 0.0000
# 4 0.0000 0.0000 0.0000 33.6643 0.0000 0.0000
# 5 0.0000 0.0000 0.0000 0.0000 33.8995 0.0000
# 6 0.0000 0.0000 0.0000 0.0000 0.0000 30.8413
#
#
#
# Elastic Compliance Matrix: (Units=1/GPa)
#
#
# Indices 1 2 3 4 5 6 
#
# 1 0.016524 -0.013876 -0.001592 0.000000 0.000000 0.000000
# 2 -0.013876 0.036455 -0.014281 0.000000 0.000000 0.000000
# 3 -0.001592 -0.014281 0.024220 0.000000 0.000000 0.000000
# 4 0.000000 0.000000 0.000000 0.029705 0.000000 0.000000
# 5 0.000000 0.000000 0.000000 0.000000 0.029499 0.000000
# 6 0.000000 0.000000 0.000000 0.000000 0.000000 0.032424
#
#
# Mechanical properties :
#
#
# Convention : Reuss Voigt Hill
#
# Bulk Modulus (GPa) = 56.49244 61.57547 59.03396
# Shear Modulus (GPa) = 21.34703 26.69206 24.01954
#
# Velocity S-wave (km/s) = 3.38203 3.78181 3.58749
# Velocity P-wave (km/s) = 6.74688 7.21544 6.98509
#
# Compressibility (1/GPa) = 0.01770148
#
# Stress axis : x y z
#
# Youngs Moduli (GPa) = 60.51660 27.43132 41.28866
#
# Poissons Ratio (x) = 0.38063 0.06571
# Poissons Ratio (y) = 0.83972 0.58965
# Poissons Ratio (z) = 0.09632 0.39175
#
# Static dielectric constant tensor:
#      x y z
#    x 3.602500 0.000000 0.000000 
#    y 0.000000 3.364480 0.000000 
#    z 0.000000 0.000000 3.326290 
# 
# 
# High freq. dielectric constant tensor:
#      x y z
#    x 1.739630 0.000000 0.000000 
#    y 0.000000 1.717710 0.000000 
#    z 0.000000 0.000000 1.710660 
# 
# From -- ./inp_files/11810.got.cif
#   From: 2010.03.12/outbox.cif.g09.slc.cpg/sg65_6_cif.got.tgz:11810.got - 2010.04.10 20:52:16.
