data_PCOD8271859
_publ_section_title
;
Structure prediction by ZEFSAII (Michael W. Deem and Ramdas Pophale) SiO2 
 PCOD8271859
Probable space group: C M M M
;
_chemical_formula_sum "Si O2"
_cell_formula_units_Z 104
_cell_length_a 21.784828
_cell_length_b 8.625627
_cell_length_c 30.598701
_cell_angle_alpha 90.000000
_cell_angle_beta 90.000000
_cell_angle_gamma 90.000000
_cell_volume 5749.734606
_symmetry_space_group_name_H-M "C M M M"
_symmetry_group_IT_number 65
_symmetry_cell_setting 'orthorhombic'
loop_
_space_group_symop_operation_xyz
x,y,z
-x,-y,z
x,-y,-z
-x,y,-z
-x,-y,-z
x,y,-z
-x,y,z
x,-y,z
1/2+x,1/2+y,z
1/2-x,1/2-y,z
1/2+x,1/2-y,-z
1/2-x,1/2+y,-z
1/2-x,1/2-y,-z
1/2+x,1/2+y,-z
1/2-x,1/2+y,z
1/2+x,1/2-y,z
loop_
_atom_site_type_symbol
_atom_site_label
_atom_site_fract_x
_atom_site_fract_y
_atom_site_fract_z
Si Si1 0.571302 0.183144 0.908738
Si Si2 0.684436 0.820814 0.239678
Si Si3 0.500000 0.815972 0.551020
Si Si4 0.184887 0.680966 0.500000
Si Si5 0.879276 0.818992 0.417264
Si Si6 0.680331 0.682712 0.849276
Si Si7 0.071654 0.828392 0.000000
Si Si8 0.817292 0.679915 0.335315
O O1 0.500000 0.237128 0.897800
O O2 0.625040 0.256826 0.879486
O O3 0.590680 0.231294 0.957533
O O4 0.574795 0.000000 0.903865
O O5 0.750000 0.750000 0.248549
O O6 0.655462 0.726873 0.199241
O O7 0.651208 0.802038 0.286878
O O8 0.689030 0.000000 0.225611
O O9 0.500000 0.767596 0.500000
O O10 0.447474 0.737143 0.578353
O O11 0.500000 0.000000 0.555450
O O12 0.185044 0.500000 0.500000
O O13 0.250000 0.750000 0.500000
O O14 0.155124 0.732734 0.544473
O O15 0.858166 0.772615 0.369207
O O16 0.871346 0.000000 0.424211
O O17 0.685545 0.500000 0.855012
O O18 0.750000 0.750000 0.858123
O O19 0.000000 0.853391 0.000000
O O20 0.103043 0.000000 0.000000
O O21 0.813507 0.500000 0.348436
O O22 0.750000 0.750000 0.337107
#
# Coordination Sequence:
#
# PCOD8271859 Si02
#       8
#    16  16   8   8  16  16   8  16
#     4  10  20  35  56  81 111 148 190 235 282 336
#     4   9  17  31  53  79 108 142 180 220 265 319
#     4  11  23  41  63  81 102 138 178 216 254 305
#     4  12  24  39  56  79 110 140 170 210 260 310
#     4  12  24  38  58  82 108 138 174 216 258 309
#     4  11  21  34  55  82 114 149 188 234 282 335
#     4   9  17  31  52  79 110 145 188 233 279 335
#     4  10  20  35  56  83 113 143 176 217 265 318
#
# _framework density 18.087790999999999
#
# number of rings (size 3 to 8) (size 9 to 14) (size 15 to 20)
#    0.000    1.538    0.769    6.692    0.000    4.000 
#    0.000    0.385    1.692    0.000    0.000    0.000 
#    0.000    0.000    0.000    0.000    0.000    0.000 
#
# Total GULP energy -644187.231979 kJ/mol
# GULP energy per Si atom -12388.216000 kJ/mol
# Density = 1.804662 g / cm^3
# Si number density = 18.087791 Si / 1000 Ang^3
#
#
#
# Elastic Constant Matrix: (Units=GPa)
#
#
# Indices 1 2 3 4 5 6 
#
# 1 104.3364 49.3359 65.4808 0.0000 0.0000 0.0000
# 2 49.3359 141.4018 53.2720 0.0000 0.0000 0.0000
# 3 65.4808 53.2720 138.5526 0.0000 0.0000 0.0000
# 4 0.0000 0.0000 0.0000 33.3805 0.0000 0.0000
# 5 0.0000 0.0000 0.0000 0.0000 31.2871 0.0000
# 6 0.0000 0.0000 0.0000 0.0000 0.0000 28.4159
#
#
#
# Elastic Compliance Matrix: (Units=1/GPa)
#
#
# Indices 1 2 3 4 5 6 
#
# 1 0.014585 -0.002914 -0.005773 0.000000 0.000000 0.000000
# 2 -0.002914 0.008852 -0.002026 0.000000 0.000000 0.000000
# 3 -0.005773 -0.002026 0.010725 0.000000 0.000000 0.000000
# 4 0.000000 0.000000 0.000000 0.029958 0.000000 0.000000
# 5 0.000000 0.000000 0.000000 0.000000 0.031962 0.000000
# 6 0.000000 0.000000 0.000000 0.000000 0.000000 0.035192
#
#
# Mechanical properties :
#
#
# Convention : Reuss Voigt Hill
#
# Bulk Modulus (GPa) = 78.51736 80.05201 79.28469
# Shear Modulus (GPa) = 31.85834 33.03018 32.44426
#
# Velocity S-wave (km/s) = 4.20136 4.27793 4.23982
# Velocity P-wave (km/s) = 8.18770 8.29183 8.23993
#
# Compressibility (1/GPa) = 0.01273604
#
# Stress axis : x y z
#
# Youngs Moduli (GPa) = 68.56284 112.96633 93.24207
#
# Poissons Ratio (x) = 0.32919 0.53825
# Poissons Ratio (y) = 0.19980 0.18894
# Poissons Ratio (z) = 0.39579 0.22891
#
# Static dielectric constant tensor:
#      x y z
#    x 3.296620 0.000000 0.000000 
#    y 0.000000 3.614380 0.000000 
#    z 0.000000 0.000000 3.816080 
# 
# 
# High freq. dielectric constant tensor:
#      x y z
#    x 1.674600 0.000000 0.000000 
#    y 0.000000 1.723120 0.000000 
#    z 0.000000 0.000000 1.713370 
# 
# From -- ./inp_files/75868.got.cif
#   From: 2010.03.12/outbox.cif.g09.slc.cpg/sg65_38_cif.got.tgz:75868.got - 2010.04.10 20:52:16.
