data_PCOD8271723
_publ_section_title
;
Structure prediction by ZEFSAII (Michael W. Deem and Ramdas Pophale) SiO2 
 PCOD8271723
Probable space group: C M M M
;
_chemical_formula_sum "Si O2"
_cell_formula_units_Z 64
_cell_length_a 17.645905
_cell_length_b 8.988186
_cell_length_c 21.052062
_cell_angle_alpha 90.000000
_cell_angle_beta 90.000000
_cell_angle_gamma 90.000000
_cell_volume 3338.955479
_symmetry_space_group_name_H-M "C M M M"
_symmetry_group_IT_number 65
_symmetry_cell_setting 'orthorhombic'
loop_
_space_group_symop_operation_xyz
x,y,z
-x,-y,z
x,-y,-z
-x,y,-z
-x,-y,-z
x,y,-z
-x,y,z
x,-y,z
1/2+x,1/2+y,z
1/2-x,1/2-y,z
1/2+x,1/2-y,-z
1/2-x,1/2+y,-z
1/2-x,1/2-y,-z
1/2+x,1/2+y,-z
1/2-x,1/2+y,z
1/2+x,1/2-y,z
loop_
_atom_site_type_symbol
_atom_site_label
_atom_site_fract_x
_atom_site_fract_y
_atom_site_fract_z
Si Si1 0.089944 0.169466 0.884074
Si Si2 0.909205 0.832498 0.636001
Si Si3 0.909767 0.666693 0.758786
Si Si4 0.668604 0.823571 0.000000
Si Si5 0.083277 0.822995 0.500000
O O1 0.119144 0.230423 0.816364
O O2 0.123482 0.273164 0.938145
O O3 0.000000 0.178067 0.888722
O O4 0.118281 0.000000 0.892311
O O5 0.877269 0.728876 0.692186
O O6 0.876494 0.776254 0.566890
O O7 0.000000 0.827930 0.633170
O O8 0.881934 0.000000 0.650351
O O9 0.878916 0.500000 0.768612
O O10 0.000000 0.668696 0.756882
O O11 0.750000 0.750000 0.000000
O O12 0.676316 0.000000 0.000000
O O13 0.000000 0.749898 0.500000
O O14 0.075405 0.000000 0.500000
#
# Coordination Sequence:
#
# PCOD8271723 Si02
#       5
#    16  16  16   8   8
#     4  10  20  35  55  77 100 128 164 203 242 287
#     4   8  12  19  31  47  70 104 146 189 231 276
#     4   9  16  25  38  59  86 115 150 193 238 281
#     4  12  25  40  57  77 103 131 159 194 239 290
#     4   7  10  16  27  43  65  99 144 187 226 273
#
# _framework density 19.167670000000001
#
# number of rings (size 3 to 8) (size 9 to 14) (size 15 to 20)
#    0.000    2.875    0.000    4.500    0.000    6.000 
#    0.000    0.625    0.000    3.750    0.000    0.000 
#    0.000    0.000    0.000    1.125    0.000   15.500 
#
# Total GULP energy -396514.338394 kJ/mol
# GULP energy per Si atom -12391.073075 kJ/mol
# Density = 1.912404 g / cm^3
# Si number density = 19.167670 Si / 1000 Ang^3
#
#
#
# Elastic Constant Matrix: (Units=GPa)
#
#
# Indices 1 2 3 4 5 6 
#
# 1 11.5665 18.8608 19.8458 0.0000 0.0000 0.0000
# 2 18.8608 139.6996 76.4366 0.0000 0.0000 0.0000
# 3 19.8458 76.4366 190.9846 0.0000 0.0000 0.0000
# 4 0.0000 0.0000 0.0000 15.2216 0.0000 0.0000
# 5 0.0000 0.0000 0.0000 0.0000 -3.7122 0.0000
# 6 0.0000 0.0000 0.0000 0.0000 0.0000 14.2971
#
#
#
# Elastic Compliance Matrix: (Units=1/GPa)
#
#
# Indices 1 2 3 4 5 6 
#
# 1 0.118882 -0.011896 -0.007592 0.000000 0.000000 0.000000
# 2 -0.011896 0.010356 -0.002908 0.000000 0.000000 0.000000
# 3 -0.007592 -0.002908 0.007189 0.000000 0.000000 0.000000
# 4 0.000000 0.000000 0.000000 0.065696 0.000000 0.000000
# 5 0.000000 0.000000 0.000000 0.000000 -0.269380 0.000000
# 6 0.000000 0.000000 0.000000 0.000000 0.000000 0.069944
#
#
# Mechanical properties :
#
#
# Convention : Reuss Voigt Hill
#
# Bulk Modulus (GPa) = 10.91308 63.61525 37.26416
# Shear Modulus (GPa) = 64.08190 20.30178 42.19184
#
# Velocity S-wave (km/s) = 5.78834 3.25802 4.69678
# Velocity P-wave (km/s) = 7.09782 6.88577 6.99259
#
# Compressibility (1/GPa) = 0.09163314
#
# Stress axis : x y z
#
# Youngs Moduli (GPa) = 8.41168 96.56556 139.10176
#
# Poissons Ratio (x) = 1.14876 1.05610
# Poissons Ratio (y) = 0.10007 0.40457
# Poissons Ratio (z) = 0.06386 0.28085
#
# Static dielectric constant tensor:
#      x y z
#    x 2.808150 0.000000 0.000000 
#    y 0.000000 3.549530 0.000000 
#    z 0.000000 0.000000 4.067860 
# 
# 
# High freq. dielectric constant tensor:
#      x y z
#    x 1.660390 0.000000 0.000000 
#    y 0.000000 1.740110 0.000000 
#    z 0.000000 0.000000 1.776600 
# 
# From -- ./inp_files/63246.got.cif
#   From: 2010.03.12/outbox.cif.g09.slc.cpg/sg65_32_cif.got.tgz:63246.got - 2010.04.10 20:52:16.
