data_PCOD8271102
_publ_section_title
;
Structure prediction by ZEFSAII (Michael W. Deem and Ramdas Pophale) SiO2 
 PCOD8271102
Probable space group: C M M M
;
_chemical_formula_sum "Si O2"
_cell_formula_units_Z 96
_cell_length_a 28.650586
_cell_length_b 18.564148
_cell_length_c 8.698781
_cell_angle_alpha 90.000000
_cell_angle_beta 90.000000
_cell_angle_gamma 90.000000
_cell_volume 4626.652999
_symmetry_space_group_name_H-M "C M M M"
_symmetry_group_IT_number 65
_symmetry_cell_setting 'orthorhombic'
loop_
_space_group_symop_operation_xyz
x,y,z
-x,-y,z
x,-y,-z
-x,y,-z
-x,-y,-z
x,y,-z
-x,y,z
x,-y,z
1/2+x,1/2+y,z
1/2-x,1/2-y,z
1/2+x,1/2-y,-z
1/2-x,1/2+y,-z
1/2-x,1/2-y,-z
1/2+x,1/2+y,-z
1/2-x,1/2+y,z
1/2+x,1/2-y,z
loop_
_atom_site_type_symbol
_atom_site_label
_atom_site_fract_x
_atom_site_fract_y
_atom_site_fract_z
Si Si1 0.052039 0.376510 0.173316
Si Si2 0.146934 0.823883 0.181249
Si Si3 0.447659 0.721931 0.320336
Si Si4 0.135173 0.578787 0.669585
Si Si5 0.300880 0.178807 0.824677
Si Si6 0.221334 0.082711 0.680333
O O1 0.055957 0.294236 0.224086
O O2 0.080651 0.426741 0.290507
O O3 0.000000 0.405705 0.183398
O O4 0.071098 0.382770 0.000000
O O5 0.096045 0.826132 0.262833
O O6 0.181747 0.757656 0.230374
O O7 0.173545 0.896314 0.232600
O O8 0.138504 0.822030 0.000000
O O9 0.440997 0.738210 0.500000
O O10 0.500000 0.687469 0.292409
O O11 0.143336 0.612585 0.500000
O O12 0.158328 0.500000 0.672494
O O13 0.154562 0.628025 0.805661
O O14 0.261027 0.141317 0.722540
O O15 0.283255 0.181432 0.000000
O O16 0.212633 0.087915 0.500000
O O17 0.234651 0.000000 0.726798
#
# Coordination Sequence:
#
# PCOD8271102 Si02
#       6
#    16  16  16  16  16  16
#     4  10  20  34  52  75 106 146 193 245 300 355
#     4  11  23  39  63  94 124 158 201 247 297 356
#     4  10  20  35  59  90 122 157 197 244 298 353
#     4  11  23  36  52  76 109 152 200 248 299 354
#     4  11  23  39  60  88 119 155 200 248 296 351
#     4  11  25  43  63  89 122 160 201 247 301 358
#
# _framework density 20.749341000000001
#
# number of rings (size 3 to 8) (size 9 to 14) (size 15 to 20)
#    0.000    1.333    1.667    4.000    0.000   11.000 
#    0.000    1.667    0.000    0.500    0.000    3.500 
#    0.000    0.000    0.000    0.000    0.000    0.000 
#
# Total GULP energy -594787.170702 kJ/mol
# GULP energy per Si atom -12391.399390 kJ/mol
# Density = 2.070211 g / cm^3
# Si number density = 20.749341 Si / 1000 Ang^3
#
#
#
# Elastic Constant Matrix: (Units=GPa)
#
#
# Indices 1 2 3 4 5 6 
#
# 1 105.1288 47.8280 31.8021 0.0000 0.0000 0.0000
# 2 47.8280 54.5656 28.3397 0.0000 0.0000 0.0000
# 3 31.8021 28.3397 68.6440 0.0000 0.0000 0.0000
# 4 0.0000 0.0000 0.0000 19.9738 0.0000 0.0000
# 5 0.0000 0.0000 0.0000 0.0000 37.5319 0.0000
# 6 0.0000 0.0000 0.0000 0.0000 0.0000 -36.5505
#
#
#
# Elastic Compliance Matrix: (Units=1/GPa)
#
#
# Indices 1 2 3 4 5 6 
#
# 1 0.016049 -0.012992 -0.002072 0.000000 0.000000 0.000000
# 2 -0.012992 0.033845 -0.007954 0.000000 0.000000 0.000000
# 3 -0.002072 -0.007954 0.018812 0.000000 0.000000 0.000000
# 4 0.000000 0.000000 0.000000 0.050065 0.000000 0.000000
# 5 0.000000 0.000000 0.000000 0.000000 0.026644 0.000000
# 6 0.000000 0.000000 0.000000 0.000000 0.000000 -0.027359
#
#
# Mechanical properties :
#
#
# Convention : Reuss Voigt Hill
#
# Bulk Modulus (GPa) = 44.10934 49.36423 46.73678
# Shear Modulus (GPa) = 29.12930 12.21560 20.67245
#
# Velocity S-wave (km/s) = 3.75089 2.42899 3.15984
# Velocity P-wave (km/s) = 6.32955 5.63108 5.99050
#
# Compressibility (1/GPa) = 0.02267094
#
# Stress axis : x y z
#
# Youngs Moduli (GPa) = 62.30771 29.54640 53.15835
#
# Poissons Ratio (x) = 0.38385 0.11014
# Poissons Ratio (y) = 0.80947 0.42283
# Poissons Ratio (z) = 0.12910 0.23502
#
# Static dielectric constant tensor:
#      x y z
#    x 4.177670 0.000000 0.000000 
#    y 0.000000 3.572430 0.000000 
#    z 0.000000 0.000000 3.728880 
# 
# 
# High freq. dielectric constant tensor:
#      x y z
#    x 1.827210 0.000000 0.000000 
#    y 0.000000 1.776000 0.000000 
#    z 0.000000 0.000000 1.820720 
# 
# From -- ./inp_files/16348.got.cif
#   From: 2010.03.12/outbox.cif.g09.slc.cpg/sg65_9_cif.got.tgz:16348.got - 2010.04.10 20:52:16.
