data_PCOD8271138
_publ_section_title
;
Structure prediction by ZEFSAII (Michael W. Deem and Ramdas Pophale) SiO2 
 PCOD8271138
Probable space group: C M M M
;
_chemical_formula_sum "Si O2"
_cell_formula_units_Z 120
_cell_length_a 8.624237
_cell_length_b 28.231692
_cell_length_c 28.793435
_cell_angle_alpha 90.000000
_cell_angle_beta 90.000000
_cell_angle_gamma 90.000000
_cell_volume 7010.533493
_symmetry_space_group_name_H-M "C M M M"
_symmetry_group_IT_number 65
_symmetry_cell_setting 'orthorhombic'
loop_
_space_group_symop_operation_xyz
x,y,z
-x,-y,z
x,-y,-z
-x,y,-z
-x,-y,-z
x,y,-z
-x,y,z
x,-y,z
1/2+x,1/2+y,z
1/2-x,1/2-y,z
1/2+x,1/2-y,-z
1/2-x,1/2+y,-z
1/2-x,1/2-y,-z
1/2+x,1/2+y,-z
1/2-x,1/2+y,z
1/2+x,1/2-y,z
loop_
_atom_site_type_symbol
_atom_site_label
_atom_site_fract_x
_atom_site_fract_y
_atom_site_fract_z
Si Si1 0.679587 0.443863 0.500000
Si Si2 0.826156 0.443716 0.950846
Si Si3 0.682244 0.108253 0.762201
Si Si4 0.185645 0.553317 0.851428
Si Si5 0.318458 0.299145 0.722048
Si Si6 0.183099 0.604954 0.410633
Si Si7 0.679271 0.445035 0.678156
Si Si8 0.183609 0.200015 0.384610
O O1 0.696432 0.500000 0.500000
O O2 0.500000 0.428449 0.500000
O O3 0.765644 0.423650 0.455474
O O4 0.832081 0.500000 0.948457
O O5 0.749136 0.427353 0.901730
O O6 0.000000 0.423421 0.952940
O O7 0.742084 0.428098 0.000000
O O8 0.500000 0.115503 0.763519
O O9 0.746302 0.087670 0.810883
O O10 0.759855 0.158806 0.754379
O O11 0.722465 0.070923 0.722253
O O12 0.246347 0.500000 0.841442
O O13 0.000000 0.552750 0.853017
O O14 0.500000 0.295651 0.725702
O O15 0.250000 0.250000 0.740827
O O16 0.266741 0.308336 0.668945
O O17 0.269405 0.583362 0.366714
O O18 0.235555 0.659534 0.415495
O O19 0.000000 0.601164 0.404010
O O20 0.500000 0.433458 0.687871
O O21 0.708977 0.500000 0.668819
O O22 0.250000 0.250000 0.402326
O O23 0.000000 0.198644 0.391497
#
# Coordination Sequence:
#
# PCOD8271138 Si02
#       8
#     8  16  16  16  16  16  16  16
#     4  11  25  45  66  85 110 143 175 211 255 297
#     4   7   9  15  29  49  77 118 165 207 246 288
#     4  11  20  30  47  71 101 133 166 203 249 300
#     4   8  14  23  35  57  92 131 168 206 247 290
#     4  10  20  34  53  74 100 130 165 205 247 297
#     4  12  24  39  61  86 110 136 171 211 253 300
#     4  11  23  37  52  72 101 137 175 211 247 291
#     4  10  20  36  59  84 111 138 168 206 251 300
#
# _framework density 17.117099
#
# number of rings (size 3 to 8) (size 9 to 14) (size 15 to 20)
#    0.000    2.067    1.333    5.000    0.000    4.800 
#    0.000    0.333    0.000    0.000    0.000    0.000 
#    0.000    2.667    0.000   16.000    0.000   13.600 
#
# Total GULP energy -743718.245657 kJ/mol
# GULP energy per Si atom -12395.304094 kJ/mol
# Density = 1.707814 g / cm^3
# Si number density = 17.117099 Si / 1000 Ang^3
#
#
#
# Elastic Constant Matrix: (Units=GPa)
#
#
# Indices 1 2 3 4 5 6 
#
# 1 18.5056 20.2446 -3.7498 0.0000 0.0000 0.0000
# 2 20.2446 92.5435 28.6754 0.0000 0.0000 0.0000
# 3 -3.7498 28.6754 91.5178 0.0000 0.0000 0.0000
# 4 0.0000 0.0000 0.0000 11.4789 0.0000 0.0000
# 5 0.0000 0.0000 0.0000 0.0000 19.9894 0.0000
# 6 0.0000 0.0000 0.0000 0.0000 0.0000 26.8526
#
#
#
# Elastic Compliance Matrix: (Units=1/GPa)
#
#
# Indices 1 2 3 4 5 6 
#
# 1 0.077753 -0.019931 0.009431 0.000000 0.000000 0.000000
# 2 -0.019931 0.017077 -0.006167 0.000000 0.000000 0.000000
# 3 0.009431 -0.006167 0.013246 0.000000 0.000000 0.000000
# 4 0.000000 0.000000 0.000000 0.087117 0.000000 0.000000
# 5 0.000000 0.000000 0.000000 0.000000 0.050027 0.000000
# 6 0.000000 0.000000 0.000000 0.000000 0.000000 0.037240
#
#
# Mechanical properties :
#
#
# Convention : Reuss Voigt Hill
#
# Bulk Modulus (GPa) = 13.37973 32.54527 22.96250
# Shear Modulus (GPa) = 14.67531 22.15726 18.41629
#
# Velocity S-wave (km/s) = 2.93123 3.60175 3.28365
# Velocity P-wave (km/s) = 4.39200 6.02921 5.27452
#
# Compressibility (1/GPa) = 0.07473992
#
# Stress axis : x y z
#
# Youngs Moduli (GPa) = 12.86124 58.55864 75.49629
#
# Poissons Ratio (x) = 1.16715 -0.71200
# Poissons Ratio (y) = 0.25634 0.46561
# Poissons Ratio (z) = -0.12129 0.36115
#
# Static dielectric constant tensor:
#      x y z
#    x 3.090170 0.000000 0.000000 
#    y 0.000000 3.186020 0.000000 
#    z 0.000000 0.000000 3.524590 
# 
# 
# High freq. dielectric constant tensor:
#      x y z
#    x 1.648780 0.000000 0.000000 
#    y 0.000000 1.645560 0.000000 
#    z 0.000000 0.000000 1.656840 
# 
# From -- ./inp_files/73990.got.cif
#   From: 2010.03.12/outbox.cif.g09.slc.cpg/sg65_37_cif.got.tgz:73990.got - 2010.04.10 20:52:16.
