data_PCOD8271366
_publ_section_title
;
Structure prediction by ZEFSAII (Michael W. Deem and Ramdas Pophale) SiO2 
 PCOD8271366
Probable space group: C M M M
;
_chemical_formula_sum "Si O2"
_cell_formula_units_Z 96
_cell_length_a 17.351710
_cell_length_b 26.384934
_cell_length_c 11.709392
_cell_angle_alpha 90.000000
_cell_angle_beta 90.000000
_cell_angle_gamma 90.000000
_cell_volume 5360.837441
_symmetry_space_group_name_H-M "C M M M"
_symmetry_group_IT_number 65
_symmetry_cell_setting 'orthorhombic'
loop_
_space_group_symop_operation_xyz
x,y,z
-x,-y,z
x,-y,-z
-x,y,-z
-x,-y,-z
x,y,-z
-x,y,z
x,-y,z
1/2+x,1/2+y,z
1/2-x,1/2-y,z
1/2+x,1/2-y,-z
1/2-x,1/2+y,-z
1/2-x,1/2-y,-z
1/2+x,1/2+y,-z
1/2-x,1/2+y,z
1/2+x,1/2-y,z
loop_
_atom_site_type_symbol
_atom_site_label
_atom_site_fract_x
_atom_site_fract_y
_atom_site_fract_z
Si Si1 0.589371 0.207457 0.732810
Si Si2 0.087727 0.096953 0.870472
Si Si3 0.294247 0.941476 0.500000
Si Si4 0.156852 0.203759 0.128663
Si Si5 0.409215 0.152934 0.500000
Si Si6 0.727892 0.442848 0.740964
Si Si7 0.809701 0.642364 0.129810
O O1 0.500000 0.220205 0.741111
O O2 0.636459 0.257103 0.771233
O O3 0.613381 0.188258 0.607288
O O4 0.610110 0.162369 0.819846
O O5 0.098427 0.157066 0.859406
O O6 0.140317 0.068178 0.778824
O O7 0.000000 0.082527 0.843188
O O8 0.110336 0.080440 0.000000
O O9 0.364063 0.900718 0.500000
O O10 0.238103 0.931948 0.606946
O O11 0.326435 0.000000 0.500000
O O12 0.244233 0.185234 0.147881
O O13 0.148973 0.227506 0.000000
O O14 0.500000 0.139548 0.500000
O O15 0.749138 0.500000 0.771174
O O16 0.788242 0.409282 0.808877
O O17 0.821677 0.628209 0.000000
#
# Coordination Sequence:
#
# PCOD8271366 Si02
#       7
#    16  16   8  16   8  16  16
#     4  11  21  34  53  76 107 140 175 221 267 313
#     4   9  18  33  54  81 113 147 182 219 261 316
#     4  10  20  39  62  77  96 137 188 228 269 326
#     4   9  18  33  53  78 108 144 183 215 250 308
#     4  10  22  39  56  79 106 135 179 231 275 319
#     4  10  20  35  56  79 104 137 179 227 274 318
#     4  10  20  34  54  79 108 140 178 219 262 323
#
# _framework density 17.907651000000001
#
# number of rings (size 3 to 8) (size 9 to 14) (size 15 to 20)
#    0.000    2.167    1.667    3.000    0.000    5.167 
#    0.000    6.250    0.000    2.000    0.000    1.167 
#    0.000    0.000    0.000    0.000    0.000    0.000 
#
# Total GULP energy -595078.957609 kJ/mol
# GULP energy per Si atom -12397.478284 kJ/mol
# Density = 1.786689 g / cm^3
# Si number density = 17.907651 Si / 1000 Ang^3
#
#
#
# Elastic Constant Matrix: (Units=GPa)
#
#
# Indices 1 2 3 4 5 6 
#
# 1 37.6434 28.4524 38.9831 0.0000 0.0000 0.0000
# 2 28.4524 91.4930 70.9787 0.0000 0.0000 0.0000
# 3 38.9831 70.9787 138.8141 0.0000 0.0000 0.0000
# 4 0.0000 0.0000 0.0000 30.0526 0.0000 0.0000
# 5 0.0000 0.0000 0.0000 0.0000 30.5872 0.0000
# 6 0.0000 0.0000 0.0000 0.0000 0.0000 11.8090
#
#
#
# Elastic Compliance Matrix: (Units=1/GPa)
#
#
# Indices 1 2 3 4 5 6 
#
# 1 0.039400 -0.006081 -0.007955 0.000000 0.000000 0.000000
# 2 -0.006081 0.019054 -0.008035 0.000000 0.000000 0.000000
# 3 -0.007955 -0.008035 0.013547 0.000000 0.000000 0.000000
# 4 0.000000 0.000000 0.000000 0.033275 0.000000 0.000000
# 5 0.000000 0.000000 0.000000 0.000000 0.032693 0.000000
# 6 0.000000 0.000000 0.000000 0.000000 0.000000 0.084681
#
#
# Mechanical properties :
#
#
# Convention : Reuss Voigt Hill
#
# Bulk Modulus (GPa) = 35.89663 60.53097 48.21380
# Shear Modulus (GPa) = 18.11075 23.12551 20.61813
#
# Velocity S-wave (km/s) = 3.18361 3.59747 3.39685
# Velocity P-wave (km/s) = 5.79679 7.15058 6.50898
#
# Compressibility (1/GPa) = 0.02785777
#
# Stress axis : x y z
#
# Youngs Moduli (GPa) = 25.38096 52.48115 73.81942
#
# Poissons Ratio (x) = 0.31913 0.58725
# Poissons Ratio (y) = 0.15434 0.59316
# Poissons Ratio (z) = 0.20191 0.42170
#
# Static dielectric constant tensor:
#      x y z
#    x 3.244400 0.000000 0.000000 
#    y 0.000000 3.300480 0.000000 
#    z 0.000000 0.000000 3.443990 
# 
# 
# High freq. dielectric constant tensor:
#      x y z
#    x 1.683610 0.000000 0.000000 
#    y 0.000000 1.694270 0.000000 
#    z 0.000000 0.000000 1.695150 
# 
# From -- ./inp_files/27171.got.cif
#   From: 2010.03.12/outbox.cif.g09.slc.cpg/sg65_14_cif.got.tgz:27171.got - 2010.04.10 20:52:16.
