data_PCOD8271059
_publ_section_title
;
Structure prediction by ZEFSAII (Michael W. Deem and Ramdas Pophale) SiO2 
 PCOD8271059
Probable space group: C M M M
;
_chemical_formula_sum "Si O2"
_cell_formula_units_Z 72
_cell_length_a 8.994099
_cell_length_b 17.900081
_cell_length_c 23.411369
_cell_angle_alpha 90.000000
_cell_angle_beta 90.000000
_cell_angle_gamma 90.000000
_cell_volume 3769.115708
_symmetry_space_group_name_H-M "C M M M"
_symmetry_group_IT_number 65
_symmetry_cell_setting 'orthorhombic'
loop_
_space_group_symop_operation_xyz
x,y,z
-x,-y,z
x,-y,-z
-x,y,-z
-x,-y,-z
x,y,-z
-x,y,z
x,-y,z
1/2+x,1/2+y,z
1/2-x,1/2-y,z
1/2+x,1/2-y,-z
1/2-x,1/2+y,-z
1/2-x,1/2-y,-z
1/2+x,1/2+y,-z
1/2-x,1/2+y,z
1/2+x,1/2-y,z
loop_
_atom_site_type_symbol
_atom_site_label
_atom_site_fract_x
_atom_site_fract_y
_atom_site_fract_z
Si Si1 0.323470 0.169779 0.387900
Si Si2 0.333723 0.911030 0.827551
Si Si3 0.323550 0.083754 0.500000
Si Si4 0.332753 0.411143 0.062762
Si Si5 0.169733 0.088517 0.285319
O O1 0.500000 0.178077 0.387245
O O2 0.250000 0.250000 0.387098
O O3 0.266056 0.126853 0.444147
O O4 0.273093 0.123342 0.333375
O O5 0.500000 0.879998 0.818631
O O6 0.270899 0.878036 0.887214
O O7 0.230055 0.883362 0.775803
O O8 0.334469 0.000000 0.829693
O O9 0.500000 0.079884 0.500000
O O10 0.256679 0.000000 0.500000
O O11 0.500000 0.381665 0.072307
O O12 0.332447 0.500000 0.065942
O O13 0.274286 0.385506 0.000000
O O14 0.000000 0.115739 0.292092
O O15 0.181831 0.000000 0.290434
#
# Coordination Sequence:
#
# PCOD8271059 Si02
#       5
#    16  16   8  16  16
#     4  11  22  37  57  80 109 141 174 212 256 306
#     4   9  16  25  39  61  89 123 164 209 257 308
#     4   9  19  36  59  85 110 139 174 211 252 300
#     4   8  13  21  33  51  80 120 162 203 251 306
#     4  10  20  34  52  74 101 134 174 218 263 312
#
# _framework density 19.102623999999999
#
# number of rings (size 3 to 8) (size 9 to 14) (size 15 to 20)
#    0.000    2.556    0.000    3.667    0.000    5.333 
#    0.000    3.889    0.000    4.000    0.000    0.000 
#    0.000    0.889    0.000    3.333    0.000    7.778 
#
# Total GULP energy -446327.390293 kJ/mol
# GULP energy per Si atom -12397.983064 kJ/mol
# Density = 1.905915 g / cm^3
# Si number density = 19.102624 Si / 1000 Ang^3
#
#
#
# Elastic Constant Matrix: (Units=GPa)
#
#
# Indices 1 2 3 4 5 6 
#
# 1 101.0597 25.9690 57.9382 0.0000 0.0000 0.0000
# 2 25.9690 25.0451 32.0013 0.0000 0.0000 0.0000
# 3 57.9382 32.0013 170.5965 0.0000 0.0000 0.0000
# 4 0.0000 0.0000 0.0000 -1.7761 0.0000 0.0000
# 5 0.0000 0.0000 0.0000 0.0000 33.0418 0.0000
# 6 0.0000 0.0000 0.0000 0.0000 0.0000 13.4087
#
#
#
# Elastic Compliance Matrix: (Units=1/GPa)
#
#
# Indices 1 2 3 4 5 6 
#
# 1 0.014408 -0.011425 -0.002750 0.000000 0.000000 0.000000
# 2 -0.011425 0.061576 -0.007670 0.000000 0.000000 0.000000
# 3 -0.002750 -0.007670 0.008235 0.000000 0.000000 0.000000
# 4 0.000000 0.000000 0.000000 -0.563040 0.000000 0.000000
# 5 0.000000 0.000000 0.000000 0.000000 0.030265 0.000000
# 6 0.000000 0.000000 0.000000 0.000000 0.000000 0.074578
#
#
# Mechanical properties :
#
#
# Convention : Reuss Voigt Hill
#
# Bulk Modulus (GPa) = 24.67525 58.72425 41.69975
# Shear Modulus (GPa) = -15.78384 20.98775 2.60196
#
# Velocity S-wave (km/s) = -2.87760 3.31824 1.16835
# Velocity P-wave (km/s) = 1.38002 6.74456 4.86793
#
# Compressibility (1/GPa) = 0.04052643
#
# Stress axis : x y z
#
# Youngs Moduli (GPa) = 69.40767 16.24022 121.43974
#
# Poissons Ratio (x) = 0.18555 0.33395
# Poissons Ratio (y) = 0.79301 0.93148
# Poissons Ratio (z) = 0.19086 0.12457
#
# Static dielectric constant tensor:
#      x y z
#    x 3.566990 0.000000 0.000000 
#    y 0.000000 3.040060 0.000000 
#    z 0.000000 0.000000 3.916010 
# 
# 
# High freq. dielectric constant tensor:
#      x y z
#    x 1.741440 0.000000 0.000000 
#    y 0.000000 1.688390 0.000000 
#    z 0.000000 0.000000 1.764960 
# 
# From -- ./inp_files/66995.got.cif
#   From: 2010.03.12/outbox.cif.g09.slc.cpg/sg65_34_cif.got.tgz:66995.got - 2010.04.10 20:52:16.
