data_PCOD8271680
_publ_section_title
;
Structure prediction by ZEFSAII (Michael W. Deem and Ramdas Pophale) SiO2 
 PCOD8271680
Probable space group: C M M M
;
_chemical_formula_sum "Si O2"
_cell_formula_units_Z 104
_cell_length_a 26.743973
_cell_length_b 21.778385
_cell_length_c 9.613115
_cell_angle_alpha 90.000000
_cell_angle_beta 90.000000
_cell_angle_gamma 90.000000
_cell_volume 5599.067896
_symmetry_space_group_name_H-M "C M M M"
_symmetry_group_IT_number 65
_symmetry_cell_setting 'orthorhombic'
loop_
_space_group_symop_operation_xyz
x,y,z
-x,-y,z
x,-y,-z
-x,y,-z
-x,-y,-z
x,y,-z
-x,y,z
x,-y,z
1/2+x,1/2+y,z
1/2-x,1/2-y,z
1/2+x,1/2-y,-z
1/2-x,1/2+y,-z
1/2-x,1/2-y,-z
1/2+x,1/2+y,-z
1/2-x,1/2+y,z
1/2+x,1/2-y,z
loop_
_atom_site_type_symbol
_atom_site_label
_atom_site_fract_x
_atom_site_fract_y
_atom_site_fract_z
Si Si1 0.797672 0.429906 0.156954
Si Si2 0.110031 0.849826 0.658376
Si Si3 0.594779 0.886646 0.163476
Si Si4 0.203498 0.929097 0.337336
Si Si5 0.058448 0.500000 0.657055
Si Si6 0.057825 0.724608 0.658438
Si Si7 0.942152 0.934110 0.850340
O O1 0.814731 0.500000 0.186749
O O2 0.845216 0.385901 0.180223
O O3 0.754038 0.409420 0.260139
O O4 0.777406 0.423651 0.000000
O O5 0.104732 0.868919 0.500000
O O6 0.162394 0.878830 0.713312
O O7 0.099625 0.777808 0.680387
O O8 0.065663 0.882606 0.737441
O O9 0.571241 0.825161 0.225956
O O10 0.573193 0.941292 0.254157
O O11 0.580093 0.893241 0.000000
O O12 0.213864 0.922471 0.500000
O O13 0.188517 0.000000 0.300435
O O14 0.082632 0.500000 0.500000
O O15 0.000000 0.500000 0.636875
O O16 0.063177 0.699176 0.500000
O O17 0.000000 0.746481 0.681172
O O18 0.000000 0.942225 0.870583
O O19 0.919163 0.000000 0.802971
O O20 0.918406 0.915230 0.000000
#
# Coordination Sequence:
#
# PCOD8271680 Si02
#       7
#    16  16  16  16   8  16  16
#     4   9  18  35  56  80 110 141 175 220 274 331
#     4  10  20  35  54  76 106 144 186 232 276 323
#     4  11  22  38  59  84 112 144 184 229 274 325
#     4   9  18  32  53  83 112 139 180 231 278 328
#     4  11  23  37  57  87 119 147 177 219 274 335
#     4  10  22  39  56  77 109 149 190 229 275 332
#     4   9  18  31  47  71 103 136 175 226 280 334
#
# _framework density 18.574521000000001
#
# number of rings (size 3 to 8) (size 9 to 14) (size 15 to 20)
#    0.000    2.231    0.769    2.538    0.000    7.077 
#    0.000    3.077    0.000    4.615    0.000    0.000 
#    0.000    0.000    0.000    0.000    0.000    0.000 
#
# Total GULP energy -644330.388724 kJ/mol
# GULP energy per Si atom -12390.969014 kJ/mol
# Density = 1.853224 g / cm^3
# Si number density = 18.574521 Si / 1000 Ang^3
#
#
#
# Elastic Constant Matrix: (Units=GPa)
#
#
# Indices 1 2 3 4 5 6 
#
# 1 90.0087 40.2998 46.7428 0.0000 0.0000 0.0000
# 2 40.2998 84.2182 58.2159 0.0000 0.0000 0.0000
# 3 46.7428 58.2159 98.6858 0.0000 0.0000 0.0000
# 4 0.0000 0.0000 0.0000 44.3886 0.0000 0.0000
# 5 0.0000 0.0000 0.0000 0.0000 28.4959 0.0000
# 6 0.0000 0.0000 0.0000 0.0000 0.0000 38.6300
#
#
#
# Elastic Compliance Matrix: (Units=1/GPa)
#
#
# Indices 1 2 3 4 5 6 
#
# 1 0.015475 -0.003948 -0.005000 0.000000 0.000000 0.000000
# 2 -0.003948 0.021057 -0.010552 0.000000 0.000000 0.000000
# 3 -0.005000 -0.010552 0.018726 0.000000 0.000000 0.000000
# 4 0.000000 0.000000 0.000000 0.022528 0.000000 0.000000
# 5 0.000000 0.000000 0.000000 0.000000 0.035093 0.000000
# 6 0.000000 0.000000 0.000000 0.000000 0.000000 0.025887
#
#
# Mechanical properties :
#
#
# Convention : Reuss Voigt Hill
#
# Bulk Modulus (GPa) = 61.51182 62.60331 62.05757
# Shear Modulus (GPa) = 27.29471 30.81319 29.05395
#
# Velocity S-wave (km/s) = 3.83753 4.07737 3.95927
# Velocity P-wave (km/s) = 7.26798 7.47955 7.37453
#
# Compressibility (1/GPa) = 0.01625704
#
# Stress axis : x y z
#
# Youngs Moduli (GPa) = 64.62194 47.48981 53.40101
#
# Poissons Ratio (x) = 0.18750 0.26703
# Poissons Ratio (y) = 0.25515 0.56347
# Poissons Ratio (z) = 0.32314 0.50110
#
# Static dielectric constant tensor:
#      x y z
#    x 3.386570 0.000000 0.000000 
#    y 0.000000 3.290350 0.000000 
#    z 0.000000 0.000000 3.634500 
# 
# 
# High freq. dielectric constant tensor:
#      x y z
#    x 1.714420 0.000000 0.000000 
#    y 0.000000 1.702980 0.000000 
#    z 0.000000 0.000000 1.731450 
# 
# From -- ./inp_files/12766.got.cif
#   From: 2010.03.12/outbox.cif.g09.slc.cpg/sg65_7_cif.got.tgz:12766.got - 2010.04.10 20:52:16.
