data_PCOD8271109
_publ_section_title
;
Structure prediction by ZEFSAII (Michael W. Deem and Ramdas Pophale) SiO2 
 PCOD8271109
Probable space group: C M M M
;
_chemical_formula_sum "Si O2"
_cell_formula_units_Z 80
_cell_length_a 9.054666
_cell_length_b 26.789623
_cell_length_c 18.372331
_cell_angle_alpha 90.000000
_cell_angle_beta 90.000000
_cell_angle_gamma 90.000000
_cell_volume 4456.596330
_symmetry_space_group_name_H-M "C M M M"
_symmetry_group_IT_number 65
_symmetry_cell_setting 'orthorhombic'
loop_
_space_group_symop_operation_xyz
x,y,z
-x,-y,z
x,-y,-z
-x,y,-z
-x,-y,-z
x,y,-z
-x,y,z
x,-y,z
1/2+x,1/2+y,z
1/2-x,1/2-y,z
1/2+x,1/2-y,-z
1/2-x,1/2+y,-z
1/2-x,1/2-y,-z
1/2+x,1/2+y,-z
1/2-x,1/2+y,z
1/2+x,1/2-y,z
loop_
_atom_site_type_symbol
_atom_site_label
_atom_site_fract_x
_atom_site_fract_y
_atom_site_fract_z
Si Si1 0.673860 0.351614 0.650668
Si Si2 0.328224 0.200259 0.217062
Si Si3 0.329139 0.056929 0.710039
Si Si4 0.171781 0.802581 0.500000
Si Si5 0.331556 0.099946 0.863457
Si Si6 0.825726 0.056454 0.000000
O O1 0.500000 0.348966 0.665171
O O2 0.755505 0.315479 0.706932
O O3 0.728655 0.408517 0.659123
O O4 0.718101 0.334412 0.570207
O O5 0.500000 0.210441 0.231532
O O6 0.250000 0.250000 0.187291
O O7 0.305322 0.157779 0.156458
O O8 0.500000 0.071336 0.697396
O O9 0.289746 0.065676 0.794527
O O10 0.296029 0.000000 0.689029
O O11 0.250000 0.750000 0.500000
O O12 0.000000 0.791105 0.500000
O O13 0.500000 0.090576 0.887327
O O14 0.226347 0.085773 0.929109
O O15 0.000000 0.055830 0.000000
O O16 0.762439 0.000000 0.000000
#
# Coordination Sequence:
#
# PCOD8271109 Si02
#       6
#    16  16  16   8  16   8
#     4  10  20  34  52  76 105 136 172 212 255 304
#     4  10  20  35  55  79 104 133 171 212 255 303
#     4   9  18  34  55  78 103 133 172 215 256 301
#     4  10  22  36  51  74 103 135 170 209 255 306
#     4   9  19  35  54  75 101 134 170 206 248 302
#     4  11  23  35  50  77 108 133 164 209 254 297
#
# _framework density 17.950918999999999
#
# number of rings (size 3 to 8) (size 9 to 14) (size 15 to 20)
#    0.000    2.300    0.000    3.900    0.000    9.200 
#    0.000    1.000    0.000    3.000    0.000    0.000 
#    0.000    0.000    0.000    0.000    0.000    0.000 
#
# Total GULP energy -496122.031833 kJ/mol
# GULP energy per Si atom -12403.050796 kJ/mol
# Density = 1.791006 g / cm^3
# Si number density = 17.950919 Si / 1000 Ang^3
#
#
#
# Elastic Constant Matrix: (Units=GPa)
#
#
# Indices 1 2 3 4 5 6 
#
# 1 92.3203 58.5145 58.8115 0.0000 0.0000 0.0000
# 2 58.5145 121.2511 58.4817 0.0000 0.0000 0.0000
# 3 58.8115 58.4817 114.0854 0.0000 0.0000 0.0000
# 4 0.0000 0.0000 0.0000 17.7023 0.0000 0.0000
# 5 0.0000 0.0000 0.0000 0.0000 30.2058 0.0000
# 6 0.0000 0.0000 0.0000 0.0000 0.0000 35.3858
#
#
#
# Elastic Compliance Matrix: (Units=1/GPa)
#
#
# Indices 1 2 3 4 5 6 
#
# 1 0.018802 -0.005843 -0.006697 0.000000 0.000000 0.000000
# 2 -0.005843 0.012772 -0.003535 0.000000 0.000000 0.000000
# 3 -0.006697 -0.003535 0.014030 0.000000 0.000000 0.000000
# 4 0.000000 0.000000 0.000000 0.056490 0.000000 0.000000
# 5 0.000000 0.000000 0.000000 0.000000 0.033106 0.000000
# 6 0.000000 0.000000 0.000000 0.000000 0.000000 0.028260
#
#
# Mechanical properties :
#
#
# Convention : Reuss Voigt Hill
#
# Bulk Modulus (GPa) = 74.33224 75.47467 74.90346
# Shear Modulus (GPa) = 24.98815 26.78205 25.88510
#
# Velocity S-wave (km/s) = 3.73503 3.86678 3.80148
# Velocity P-wave (km/s) = 7.75236 7.87860 7.81573
#
# Compressibility (1/GPa) = 0.01345311
#
# Stress axis : x y z
#
# Youngs Moduli (GPa) = 53.18649 78.29447 71.27728
#
# Poissons Ratio (x) = 0.45751 0.47734
# Poissons Ratio (y) = 0.31079 0.25196
# Poissons Ratio (z) = 0.35619 0.27676
#
# Static dielectric constant tensor:
#      x y z
#    x 3.349070 0.000000 0.000000 
#    y 0.000000 3.778300 0.000000 
#    z 0.000000 0.000000 3.201790 
# 
# 
# High freq. dielectric constant tensor:
#      x y z
#    x 1.700790 0.000000 0.000000 
#    y 0.000000 1.704520 0.000000 
#    z 0.000000 0.000000 1.680160 
# 
# From -- ./inp_files/49954.got.cif
#   From: 2010.03.12/outbox.cif.g09.slc.cpg/sg65_25_cif.got.tgz:49954.got - 2010.04.10 20:52:16.
