data_PCOD8271974
_publ_section_title
;
Structure prediction by ZEFSAII (Michael W. Deem and Ramdas Pophale) SiO2 
 PCOD8271974
Probable space group: C M M M
;
_chemical_formula_sum "Si O2"
_cell_formula_units_Z 88
_cell_length_a 8.913683
_cell_length_b 18.569224
_cell_length_c 28.079944
_cell_angle_alpha 90.000000
_cell_angle_beta 90.000000
_cell_angle_gamma 90.000000
_cell_volume 4647.797281
_symmetry_space_group_name_H-M "C M M M"
_symmetry_group_IT_number 65
_symmetry_cell_setting 'orthorhombic'
loop_
_space_group_symop_operation_xyz
x,y,z
-x,-y,z
x,-y,-z
-x,y,-z
-x,-y,-z
x,y,-z
-x,y,z
x,-y,z
1/2+x,1/2+y,z
1/2-x,1/2-y,z
1/2+x,1/2-y,-z
1/2-x,1/2+y,-z
1/2-x,1/2-y,-z
1/2+x,1/2+y,-z
1/2-x,1/2+y,z
1/2+x,1/2-y,z
loop_
_atom_site_type_symbol
_atom_site_label
_atom_site_fract_x
_atom_site_fract_y
_atom_site_fract_z
Si Si1 0.175267 0.082622 0.227179
Si Si2 0.669377 0.914870 0.131441
Si Si3 0.825224 0.584746 0.596237
Si Si4 0.823859 0.176077 0.945685
Si Si5 0.169169 0.085426 0.500000
Si Si6 0.677642 0.328017 0.319362
O O1 0.261681 0.112794 0.181094
O O2 0.225680 0.131164 0.271349
O O3 0.000000 0.089435 0.216640
O O4 0.219540 0.000000 0.238395
O O5 0.500000 0.886060 0.127567
O O6 0.764762 0.887895 0.086909
O O7 0.677020 0.000000 0.129791
O O8 0.797995 0.500000 0.603039
O O9 0.758272 0.612649 0.546299
O O10 0.738040 0.625885 0.637108
O O11 0.000000 0.604264 0.597819
O O12 0.750000 0.250000 0.928178
O O13 0.000000 0.183462 0.939918
O O14 0.777622 0.158789 0.000000
O O15 0.000000 0.116873 0.500000
O O16 0.164267 0.000000 0.500000
O O17 0.500000 0.321132 0.323945
O O18 0.750000 0.250000 0.319213
#
# Coordination Sequence:
#
# PCOD8271974 Si02
#       6
#    16  16  16  16   8  16
#     4   9  19  37  59  80 105 141 184 228 273 323
#     4  10  21  36  56  83 113 144 179 222 271 322
#     4  10  20  35  57  84 113 145 182 225 272 322
#     4  10  21  37  57  80 108 144 184 225 270 322
#     4   9  17  31  54  83 112 143 182 225 267 317
#     4  11  23  38  56  80 111 146 184 225 272 324
#
# _framework density 18.933700000000002
#
# number of rings (size 3 to 8) (size 9 to 14) (size 15 to 20)
#    0.000    2.091    0.000    3.000    0.000    7.636 
#    0.000    5.909    0.000    0.000    0.000    0.000 
#    0.000    0.000    0.000    0.000    0.000    0.000 
#
# Total GULP energy -545761.895840 kJ/mol
# GULP energy per Si atom -12403.679451 kJ/mol
# Density = 1.889061 g / cm^3
# Si number density = 18.933700 Si / 1000 Ang^3
#
#
#
# Elastic Constant Matrix: (Units=GPa)
#
#
# Indices 1 2 3 4 5 6 
#
# 1 98.5141 38.6989 66.6134 0.0000 0.0000 0.0000
# 2 38.6989 53.5450 53.3916 0.0000 0.0000 0.0000
# 3 66.6134 53.3916 150.8647 0.0000 0.0000 0.0000
# 4 0.0000 0.0000 0.0000 -4.2897 0.0000 0.0000
# 5 0.0000 0.0000 0.0000 0.0000 34.0997 0.0000
# 6 0.0000 0.0000 0.0000 0.0000 0.0000 29.9138
#
#
#
# Elastic Compliance Matrix: (Units=1/GPa)
#
#
# Indices 1 2 3 4 5 6 
#
# 1 0.016000 -0.006984 -0.004593 0.000000 0.000000 0.000000
# 2 -0.006984 0.031909 -0.008209 0.000000 0.000000 0.000000
# 3 -0.004593 -0.008209 0.011562 0.000000 0.000000 0.000000
# 4 0.000000 0.000000 0.000000 -0.233116 0.000000 0.000000
# 5 0.000000 0.000000 0.000000 0.000000 0.029326 0.000000
# 6 0.000000 0.000000 0.000000 0.000000 0.000000 0.033429
#
#
# Mechanical properties :
#
#
# Convention : Reuss Voigt Hill
#
# Bulk Modulus (GPa) = 50.25461 68.92575 59.59018
# Shear Modulus (GPa) = -77.29668 21.55944 -27.86862
#
# Velocity S-wave (km/s) = -6.39637 3.37810 -3.84070
# Velocity P-wave (km/s) = 5.28690 7.19014 3.44578
#
# Compressibility (1/GPa) = 0.01989867
#
# Stress axis : x y z
#
# Youngs Moduli (GPa) = 62.49978 31.33933 86.49257
#
# Poissons Ratio (x) = 0.21887 0.39727
# Poissons Ratio (y) = 0.43649 0.71001
# Poissons Ratio (z) = 0.28707 0.25726
#
# Static dielectric constant tensor:
#      x y z
#    x 3.645450 0.000000 0.000000 
#    y 0.000000 3.322140 0.000000 
#    z 0.000000 0.000000 3.634810 
# 
# 
# High freq. dielectric constant tensor:
#      x y z
#    x 1.750200 0.000000 0.000000 
#    y 0.000000 1.718400 0.000000 
#    z 0.000000 0.000000 1.749440 
# 
# From -- ./inp_files/67462.got.cif
#   From: 2010.03.12/outbox.cif.g09.slc.cpg/sg65_34_cif.got.tgz:67462.got - 2010.04.10 20:52:16.
