data_PCOD8271536
_publ_section_title
;
Structure prediction by ZEFSAII (Michael W. Deem and Ramdas Pophale) SiO2 
 PCOD8271536
Probable space group: C M M M
;
_chemical_formula_sum "Si O2"
_cell_formula_units_Z 64
_cell_length_a 33.368243
_cell_length_b 10.922852
_cell_length_c 8.143487
_cell_angle_alpha 90.000000
_cell_angle_beta 90.000000
_cell_angle_gamma 90.000000
_cell_volume 2968.108661
_symmetry_space_group_name_H-M "C M M M"
_symmetry_group_IT_number 65
_symmetry_cell_setting 'orthorhombic'
loop_
_space_group_symop_operation_xyz
x,y,z
-x,-y,z
x,-y,-z
-x,y,-z
-x,-y,-z
x,y,-z
-x,y,z
x,-y,z
1/2+x,1/2+y,z
1/2-x,1/2-y,z
1/2+x,1/2-y,-z
1/2-x,1/2+y,-z
1/2-x,1/2-y,-z
1/2+x,1/2+y,-z
1/2-x,1/2+y,z
1/2+x,1/2-y,z
loop_
_atom_site_type_symbol
_atom_site_label
_atom_site_fract_x
_atom_site_fract_y
_atom_site_fract_z
Si Si1 0.500000 0.358092 0.182473
Si Si2 0.579420 0.247426 0.190928
Si Si3 0.166044 0.240621 0.690192
Si Si4 0.789764 0.000000 0.304991
Si Si5 0.953038 0.500000 0.694425
Si Si6 0.697715 0.000000 0.694874
O O1 0.500000 0.500000 0.169516
O O2 0.540913 0.316572 0.271740
O O3 0.500000 0.297727 0.000000
O O4 0.619265 0.287594 0.284890
O O5 0.570721 0.107099 0.219309
O O6 0.584998 0.280116 0.000000
O O7 0.176870 0.246971 0.500000
O O8 0.177867 0.374119 0.767566
O O9 0.190181 0.124897 0.767459
O O10 0.794882 0.000000 0.500000
O O11 0.743778 0.000000 0.250625
O O12 0.946444 0.500000 0.500000
O O13 0.000000 0.500000 0.739849
O O14 0.692503 0.000000 0.500000
#
# Coordination Sequence:
#
# PCOD8271536 Si02
#       6
#     8  16  16   8   8   8
#     4   9  20  37  55  76 106 151 198 235 270 327
#     4  11  22  37  59  83 113 150 193 233 278 339
#     4  10  20  34  55  84 115 145 187 240 289 337
#     4   9  18  33  56  84 112 145 189 238 286 342
#     4  11  22  37  58  82 111 143 183 236 289 332
#     4   9  17  33  57  81 108 147 189 231 284 345
#
# _framework density 21.562553000000001
#
# number of rings (size 3 to 8) (size 9 to 14) (size 15 to 20)
#    0.000    2.000    1.250    2.625    1.750    4.500 
#    0.000    0.000    0.000    7.500    0.000    0.000 
#    0.000    0.000    0.000    0.000    0.000    0.000 
#
# Total GULP energy -396596.439743 kJ/mol
# GULP energy per Si atom -12393.638742 kJ/mol
# Density = 2.151348 g / cm^3
# Si number density = 21.562553 Si / 1000 Ang^3
#
#
#
# Elastic Constant Matrix: (Units=GPa)
#
#
# Indices 1 2 3 4 5 6 
#
# 1 172.9055 71.8049 -2.3212 0.0000 0.0000 0.0000
# 2 71.8049 149.7654 8.8321 0.0000 0.0000 0.0000
# 3 -2.3212 8.8321 12.8510 0.0000 0.0000 0.0000
# 4 0.0000 0.0000 0.0000 22.9458 0.0000 0.0000
# 5 0.0000 0.0000 0.0000 0.0000 91.8792 0.0000
# 6 0.0000 0.0000 0.0000 0.0000 0.0000 48.3081
#
#
#
# Elastic Compliance Matrix: (Units=1/GPa)
#
#
# Indices 1 2 3 4 5 6 
#
# 1 0.007408 -0.003784 0.003939 0.000000 0.000000 0.000000
# 2 -0.003784 0.008892 -0.006795 0.000000 0.000000 0.000000
# 3 0.003939 -0.006795 0.083196 0.000000 0.000000 0.000000
# 4 0.000000 0.000000 0.000000 0.043581 0.000000 0.000000
# 5 0.000000 0.000000 0.000000 0.000000 0.010884 0.000000
# 6 0.000000 0.000000 0.000000 0.000000 0.000000 0.020700
#
#
# Mechanical properties :
#
#
# Convention : Reuss Voigt Hill
#
# Bulk Modulus (GPa) = 11.59882 54.68374 33.14128
# Shear Modulus (GPa) = 23.07555 49.77370 36.42463
#
# Velocity S-wave (km/s) = 3.27489 4.80973 4.11451
# Velocity P-wave (km/s) = 4.43742 7.50068 6.16242
#
# Compressibility (1/GPa) = 0.08621569
#
# Stress axis : x y z
#
# Youngs Moduli (GPa) = 134.99308 112.46042 12.01982
#
# Poissons Ratio (x) = 0.42554 -0.04734
# Poissons Ratio (y) = 0.51080 0.08167
# Poissons Ratio (z) = -0.53168 0.76413
#
# Static dielectric constant tensor:
#      x y z
#    x 4.227260 0.000000 0.000000 
#    y 0.000000 4.193370 0.000000 
#    z 0.000000 0.000000 3.430540 
# 
# 
# High freq. dielectric constant tensor:
#      x y z
#    x 1.862700 0.000000 0.000000 
#    y 0.000000 1.861040 0.000000 
#    z 0.000000 0.000000 1.790200 
# 
# From -- ./inp_files/5006.got.cif
#   From: 2010.03.12/outbox.cif.g09.slc.cpg/sg65_3_cif.got.tgz:5006.got - 2010.04.10 20:52:16.
