data_PCOD8271836
_publ_section_title
;
Structure prediction by ZEFSAII (Michael W. Deem and Ramdas Pophale) SiO2 
 PCOD8271836
Probable space group: C M M M
;
_chemical_formula_sum "Si O2"
_cell_formula_units_Z 104
_cell_length_a 31.504002
_cell_length_b 8.783660
_cell_length_c 19.580011
_cell_angle_alpha 90.000000
_cell_angle_beta 90.000000
_cell_angle_gamma 90.000000
_cell_volume 5418.189302
_symmetry_space_group_name_H-M "C M M M"
_symmetry_group_IT_number 65
_symmetry_cell_setting 'orthorhombic'
loop_
_space_group_symop_operation_xyz
x,y,z
-x,-y,z
x,-y,-z
-x,y,-z
-x,-y,-z
x,y,-z
-x,y,z
x,-y,z
1/2+x,1/2+y,z
1/2-x,1/2-y,z
1/2+x,1/2-y,-z
1/2-x,1/2+y,-z
1/2-x,1/2-y,-z
1/2+x,1/2+y,-z
1/2-x,1/2+y,z
1/2+x,1/2-y,z
loop_
_atom_site_type_symbol
_atom_site_label
_atom_site_fract_x
_atom_site_fract_y
_atom_site_fract_z
Si Si1 0.292898 0.179574 0.792565
Si Si2 0.452657 0.323231 0.202516
Si Si3 0.582849 0.823795 0.923020
Si Si4 0.826758 0.178141 0.077323
Si Si5 0.376344 0.820449 0.284717
Si Si6 0.909126 0.319005 0.575128
Si Si7 0.500000 0.164432 0.419821
O O1 0.250000 0.250000 0.760743
O O2 0.296325 0.232122 0.871158
O O3 0.333089 0.241417 0.749145
O O4 0.289768 0.000000 0.788630
O O5 0.500000 0.297305 0.233237
O O6 0.443216 0.500000 0.191330
O O7 0.451935 0.239493 0.129084
O O8 0.417591 0.254915 0.252197
O O9 0.625415 0.729979 0.909548
O O10 0.592813 0.000000 0.908176
O O11 0.565899 0.800278 0.000000
O O12 0.823195 0.000000 0.092278
O O13 0.812753 0.217940 0.000000
O O14 0.375452 0.776762 0.365630
O O15 0.380136 0.000000 0.273271
O O16 0.894420 0.257401 0.500000
O O17 0.914759 0.500000 0.570613
O O18 0.955528 0.248915 0.597244
O O19 0.500000 0.136952 0.500000
O O20 0.500000 0.000000 0.381936
#
# Coordination Sequence:
#
# PCOD8271836 Si02
#       7
#    16  16  16  16  16  16   8
#     4  11  23  38  57  82 110 143 186 232 282 337
#     4  11  24  38  53  77 111 152 193 229 274 331
#     4  10  20  35  56  80 107 142 186 235 280 323
#     4  10  20  35  57  83 111 144 179 220 276 337
#     4  10  21  36  57  84 110 141 184 232 280 330
#     4   8  14  26  47  78 113 143 175 221 273 323
#     4   7  10  18  36  68 107 139 166 201 254 315
#
# _framework density 19.194606
#
# number of rings (size 3 to 8) (size 9 to 14) (size 15 to 20)
#    0.000    2.231    1.538    2.769    1.077    4.308 
#    0.000    1.538    0.000    0.923    0.000    1.077 
#    0.000    0.000    0.000    0.000    0.000    0.154 
#
# Total GULP energy -644468.309142 kJ/mol
# GULP energy per Si atom -12393.621330 kJ/mol
# Density = 1.915092 g / cm^3
# Si number density = 19.194606 Si / 1000 Ang^3
#
#
#
# Elastic Constant Matrix: (Units=GPa)
#
#
# Indices 1 2 3 4 5 6 
#
# 1 116.6016 29.2318 65.2352 0.0000 0.0000 0.0000
# 2 29.2318 45.3094 29.2002 0.0000 0.0000 0.0000
# 3 65.2352 29.2002 120.5245 0.0000 0.0000 0.0000
# 4 0.0000 0.0000 0.0000 10.2981 0.0000 0.0000
# 5 0.0000 0.0000 0.0000 0.0000 20.0111 0.0000
# 6 0.0000 0.0000 0.0000 0.0000 0.0000 25.5391
#
#
#
# Elastic Compliance Matrix: (Units=1/GPa)
#
#
# Indices 1 2 3 4 5 6 
#
# 1 0.013059 -0.004586 -0.005957 0.000000 0.000000 0.000000
# 2 -0.004586 0.027764 -0.004245 0.000000 0.000000 0.000000
# 3 -0.005957 -0.004245 0.012550 0.000000 0.000000 0.000000
# 4 0.000000 0.000000 0.000000 0.097105 0.000000 0.000000
# 5 0.000000 0.000000 0.000000 0.000000 0.049972 0.000000
# 6 0.000000 0.000000 0.000000 0.000000 0.000000 0.039156
#
#
# Mechanical properties :
#
#
# Convention : Reuss Voigt Hill
#
# Bulk Modulus (GPa) = 42.02034 58.86332 50.44183
# Shear Modulus (GPa) = 18.04313 21.75421 19.89867
#
# Velocity S-wave (km/s) = 3.06929 3.37018 3.22325
# Velocity P-wave (km/s) = 5.87367 6.77328 6.33945
#
# Compressibility (1/GPa) = 0.02379800
#
# Stress axis : x y z
#
# Youngs Moduli (GPa) = 76.57734 36.01723 79.68264
#
# Poissons Ratio (x) = 0.16517 0.47468
# Poissons Ratio (y) = 0.35117 0.33822
# Poissons Ratio (z) = 0.45618 0.15288
#
# Static dielectric constant tensor:
#      x y z
#    x 3.566950 0.000000 0.000000 
#    y 0.000000 3.277840 0.000000 
#    z 0.000000 0.000000 3.705020 
# 
# 
# High freq. dielectric constant tensor:
#      x y z
#    x 1.731360 0.000000 0.000000 
#    y 0.000000 1.724850 0.000000 
#    z 0.000000 0.000000 1.743600 
# 
# From -- ./inp_files/66320.got.cif
#   From: 2010.03.12/outbox.cif.g09.slc.cpg/sg65_34_cif.got.tgz:66320.got - 2010.04.10 20:52:16.
