data_PCOD8271196
_publ_section_title
;
Structure prediction by ZEFSAII (Michael W. Deem and Ramdas Pophale) SiO2 
 PCOD8271196
Probable space group: C M M M
;
_chemical_formula_sum "Si O2"
_cell_formula_units_Z 104
_cell_length_a 19.082662
_cell_length_b 8.867307
_cell_length_c 33.845456
_cell_angle_alpha 90.000000
_cell_angle_beta 90.000000
_cell_angle_gamma 90.000000
_cell_volume 5727.051287
_symmetry_space_group_name_H-M "C M M M"
_symmetry_group_IT_number 65
_symmetry_cell_setting 'orthorhombic'
loop_
_space_group_symop_operation_xyz
x,y,z
-x,-y,z
x,-y,-z
-x,y,-z
-x,-y,-z
x,y,-z
-x,y,z
x,-y,z
1/2+x,1/2+y,z
1/2-x,1/2-y,z
1/2+x,1/2-y,-z
1/2-x,1/2+y,-z
1/2-x,1/2-y,-z
1/2+x,1/2+y,-z
1/2-x,1/2+y,z
1/2+x,1/2-y,z
loop_
_atom_site_type_symbol
_atom_site_label
_atom_site_fract_x
_atom_site_fract_y
_atom_site_fract_z
Si Si1 0.916920 0.667331 0.801655
Si Si2 0.324011 0.822515 0.955890
Si Si3 0.077561 0.679580 0.887581
Si Si4 0.582915 0.164558 0.500000
Si Si5 0.173622 0.678726 0.343586
Si Si6 0.081831 0.174927 0.277025
Si Si7 0.421198 0.180447 0.415158
O O1 0.887224 0.500000 0.791800
O O2 0.889675 0.724885 0.844624
O O3 0.894273 0.782846 0.767400
O O4 0.000000 0.657471 0.804971
O O5 0.250000 0.750000 0.947335
O O6 0.376648 0.754180 0.923392
O O7 0.316197 0.000000 0.950901
O O8 0.351087 0.781598 0.000000
O O9 0.073942 0.500000 0.889869
O O10 0.000000 0.748547 0.892572
O O11 0.500000 0.144187 0.500000
O O12 0.603147 0.246479 0.541567
O O13 0.619029 0.000000 0.500000
O O14 0.181045 0.500000 0.344024
O O15 0.250000 0.750000 0.341864
O O16 0.128013 0.725895 0.306163
O O17 0.133288 0.739251 0.382536
O O18 0.000000 0.213813 0.283675
O O19 0.097247 0.000000 0.284289
O O20 0.500000 0.237211 0.404548
O O21 0.421671 0.000000 0.417204
#
# Coordination Sequence:
#
# PCOD8271196 Si02
#       7
#    16  16  16   8  16  16  16
#     4   8  14  27  48  71  94 121 153 191 236 284
#     4   9  17  29  45  65  91 123 156 190 229 274
#     4   8  14  26  46  71  94 117 152 196 235 271
#     4   7  10  20  41  70  99 121 150 197 242 277
#     4  11  22  35  50  70 100 134 168 204 244 289
#     4  10  20  34  53  76  99 124 159 201 243 290
#     4   8  14  26  47  73  97 124 160 200 240 284
#
# _framework density 18.159431999999999
#
# number of rings (size 3 to 8) (size 9 to 14) (size 15 to 20)
#    0.000    3.154    0.000    3.231    0.000    1.846 
#    0.000    3.462    0.000    3.231    0.000    3.769 
#    0.000    8.615    0.000    0.000    0.000    0.000 
#
# Total GULP energy -644303.457389 kJ/mol
# GULP energy per Si atom -12390.451104 kJ/mol
# Density = 1.811810 g / cm^3
# Si number density = 18.159432 Si / 1000 Ang^3
#
#
#
# Elastic Constant Matrix: (Units=GPa)
#
#
# Indices 1 2 3 4 5 6 
#
# 1 80.2713 26.0059 73.6340 0.0000 0.0000 0.0000
# 2 26.0059 34.4779 29.4839 0.0000 0.0000 0.0000
# 3 73.6340 29.4839 172.0058 0.0000 0.0000 0.0000
# 4 0.0000 0.0000 0.0000 11.4360 0.0000 0.0000
# 5 0.0000 0.0000 0.0000 0.0000 5.4106 0.0000
# 6 0.0000 0.0000 0.0000 0.0000 0.0000 16.5254
#
#
#
# Elastic Compliance Matrix: (Units=1/GPa)
#
#
# Indices 1 2 3 4 5 6 
#
# 1 0.023440 -0.010662 -0.008207 0.000000 0.000000 0.000000
# 2 -0.010662 0.038836 -0.002092 0.000000 0.000000 0.000000
# 3 -0.008207 -0.002092 0.009686 0.000000 0.000000 0.000000
# 4 0.000000 0.000000 0.000000 0.087443 0.000000 0.000000
# 5 0.000000 0.000000 0.000000 0.000000 0.184821 0.000000
# 6 0.000000 0.000000 0.000000 0.000000 0.000000 0.060513
#
#
# Mechanical properties :
#
#
# Convention : Reuss Voigt Hill
#
# Bulk Modulus (GPa) = 33.29069 60.55582 46.92326
# Shear Modulus (GPa) = 10.94869 17.18316 14.06593
#
# Velocity S-wave (km/s) = 2.45811 3.07944 2.78615
# Velocity P-wave (km/s) = 5.14088 6.78698 6.02045
#
# Compressibility (1/GPa) = 0.03003843
#
# Stress axis : x y z
#
# Youngs Moduli (GPa) = 42.66127 25.74940 103.24444
#
# Poissons Ratio (x) = 0.27455 0.84732
# Poissons Ratio (y) = 0.45487 0.21604
# Poissons Ratio (z) = 0.35012 0.05388
#
# Static dielectric constant tensor:
#      x y z
#    x 3.147150 0.000000 0.000000 
#    y 0.000000 2.957920 0.000000 
#    z 0.000000 0.000000 3.958520 
# 
# 
# High freq. dielectric constant tensor:
#      x y z
#    x 1.670620 0.000000 0.000000 
#    y 0.000000 1.662530 0.000000 
#    z 0.000000 0.000000 1.728270 
# 
# From -- ./inp_files/78172.got.cif
#   From: 2010.03.12/outbox.cif.g09.slc.cpg/sg65_40_cif.got.tgz:78172.got - 2010.04.10 20:52:16.
