data_PCOD8271490
_publ_section_title
;
Structure prediction by ZEFSAII (Michael W. Deem and Ramdas Pophale) SiO2 
 PCOD8271490
Probable space group: C M M M
;
_chemical_formula_sum "Si O2"
_cell_formula_units_Z 90
_cell_length_a 8.949325
_cell_length_b 24.657548
_cell_length_c 21.581353
_cell_angle_alpha 90.000000
_cell_angle_beta 90.000000
_cell_angle_gamma 90.000000
_cell_volume 4762.322868
_symmetry_space_group_name_H-M "C M M M"
_symmetry_group_IT_number 65
_symmetry_cell_setting 'orthorhombic'
loop_
_space_group_symop_operation_xyz
x,y,z
-x,-y,z
x,-y,-z
-x,y,-z
-x,-y,-z
x,y,-z
-x,y,z
x,-y,z
1/2+x,1/2+y,z
1/2-x,1/2-y,z
1/2+x,1/2-y,-z
1/2-x,1/2+y,-z
1/2-x,1/2-y,-z
1/2+x,1/2+y,-z
1/2-x,1/2+y,z
1/2+x,1/2-y,z
loop_
_atom_site_type_symbol
_atom_site_label
_atom_site_fract_x
_atom_site_fract_y
_atom_site_fract_z
Si Si1 0.830980 0.912970 0.167708
Si Si2 0.328308 0.897316 0.430197
Si Si3 0.173936 0.695329 0.338287
Si Si4 0.324586 0.500000 0.616348
Si Si5 0.323671 0.193593 0.195492
Si Si6 0.707421 0.500000 0.066788
Si Si7 0.500000 0.000000 0.000000
Si Si8 0.677723 0.000000 0.748774
O O1 0.749538 0.855364 0.156432
O O2 0.837680 0.945769 0.103537
O O3 0.739534 0.946110 0.218940
O O4 0.000000 0.903370 0.191468
O O5 0.315801 0.874418 0.500000
O O6 0.500000 0.913509 0.415038
O O7 0.268568 0.852816 0.381840
O O8 0.220157 0.948366 0.424212
O O9 0.250000 0.750000 0.361441
O O10 0.215379 0.682316 0.267278
O O11 0.000000 0.704150 0.346464
O O12 0.500000 0.500000 0.630999
O O13 0.229211 0.500000 0.678632
O O14 0.500000 0.196041 0.182786
O O15 0.250000 0.250000 0.173447
O O16 0.623233 0.500000 0.000000
O O17 0.884306 0.500000 0.057024
O O18 0.500000 0.000000 0.752349
#
# Coordination Sequence:
#
# PCOD8271490 Si02
#       8
#    16  16  16   8  16   8   2   8
#     4  11  22  35  56  86 120 148 184 230 276 324
#     4  10  21  37  55  74 100 137 179 218 265 331
#     4   9  19  35  54  78 103 135 174 220 271 321
#     4  12  24  37  53  75 105 135 173 224 277 331
#     4  10  20  34  55  79 111 149 189 230 277 331
#     4   9  21  36  59  85 119 151 191 228 271 310
#     4   8  20  36  58  88 116 152 202 228 258 326
#     4  11  22  35  56  81 108 142 180 220 277 335
#
# _framework density 18.898340000000001
#
# number of rings (size 3 to 8) (size 9 to 14) (size 15 to 20)
#    0.267    1.600    0.000    4.800    3.733    5.333 
#    0.000    0.000    0.000    0.533    0.000    0.000 
#    0.000    0.000    0.000    0.000    0.000    0.000 
#
# Total GULP energy -557543.344086 kJ/mol
# GULP energy per Si atom -12389.852091 kJ/mol
# Density = 1.885533 g / cm^3
# Si number density = 18.898340 Si / 1000 Ang^3
#
#
#
# Elastic Constant Matrix: (Units=GPa)
#
#
# Indices 1 2 3 4 5 6 
#
# 1 124.9086 49.3079 18.7741 0.0000 0.0000 0.0000
# 2 49.3079 152.8223 40.5339 0.0000 0.0000 0.0000
# 3 18.7741 40.5339 76.7081 0.0000 0.0000 0.0000
# 4 0.0000 0.0000 0.0000 1.7719 0.0000 0.0000
# 5 0.0000 0.0000 0.0000 0.0000 21.3596 0.0000
# 6 0.0000 0.0000 0.0000 0.0000 0.0000 31.0216
#
#
#
# Elastic Compliance Matrix: (Units=1/GPa)
#
#
# Indices 1 2 3 4 5 6 
#
# 1 0.009216 -0.002762 -0.000796 0.000000 0.000000 0.000000
# 2 -0.002762 0.008438 -0.003783 0.000000 0.000000 0.000000
# 3 -0.000796 -0.003783 0.015230 0.000000 0.000000 0.000000
# 4 0.000000 0.000000 0.000000 0.564357 0.000000 0.000000
# 5 0.000000 0.000000 0.000000 0.000000 0.046817 0.000000
# 6 0.000000 0.000000 0.000000 0.000000 0.000000 0.032236
#
#
# Mechanical properties :
#
#
# Convention : Reuss Voigt Hill
#
# Bulk Modulus (GPa) = 54.93874 63.51897 59.22886
# Shear Modulus (GPa) = 7.17316 27.21883 17.19599
#
# Velocity S-wave (km/s) = 1.95036 3.79921 3.01976
# Velocity P-wave (km/s) = 5.84856 7.27525 6.60056
#
# Compressibility (1/GPa) = 0.01820209
#
# Stress axis : x y z
#
# Youngs Moduli (GPa) = 108.50758 118.50916 65.65939
#
# Poissons Ratio (x) = 0.32737 0.05226
# Poissons Ratio (y) = 0.29974 0.24838
# Poissons Ratio (z) = 0.08636 0.44829
#
# Static dielectric constant tensor:
#      x y z
#    x 3.501410 0.000000 0.000000 
#    y 0.000000 3.538070 0.000000 
#    z 0.000000 0.000000 3.334620 
# 
# 
# High freq. dielectric constant tensor:
#      x y z
#    x 1.749320 0.000000 0.000000 
#    y 0.000000 1.729710 0.000000 
#    z 0.000000 0.000000 1.717470 
# 
# From -- ./inp_files/59957.got.cif
#   From: 2010.03.12/outbox.cif.g09.slc.cpg/sg65_30_cif.got.tgz:59957.got - 2010.04.10 20:52:16.
