data_PCOD8271229
_publ_section_title
;
Structure prediction by ZEFSAII (Michael W. Deem and Ramdas Pophale) SiO2 
 PCOD8271229
Probable space group: C M M M
;
_chemical_formula_sum "Si O2"
_cell_formula_units_Z 104
_cell_length_a 21.055076
_cell_length_b 28.763657
_cell_length_c 8.924188
_cell_angle_alpha 90.000000
_cell_angle_beta 90.000000
_cell_angle_gamma 90.000000
_cell_volume 5404.675520
_symmetry_space_group_name_H-M "C M M M"
_symmetry_group_IT_number 65
_symmetry_cell_setting 'orthorhombic'
loop_
_space_group_symop_operation_xyz
x,y,z
-x,-y,z
x,-y,-z
-x,y,-z
-x,-y,-z
x,y,-z
-x,y,z
x,-y,z
1/2+x,1/2+y,z
1/2-x,1/2-y,z
1/2+x,1/2-y,-z
1/2-x,1/2+y,-z
1/2-x,1/2-y,-z
1/2+x,1/2+y,-z
1/2-x,1/2+y,z
1/2+x,1/2-y,z
loop_
_atom_site_type_symbol
_atom_site_label
_atom_site_fract_x
_atom_site_fract_y
_atom_site_fract_z
Si Si1 0.323014 0.202151 0.322944
Si Si2 0.819323 0.806320 0.322959
Si Si3 0.124705 0.106900 0.823018
Si Si4 0.763561 0.945288 0.669059
Si Si5 0.500000 0.446859 0.821771
Si Si6 0.071032 0.367399 0.326258
Si Si7 0.133880 0.553166 0.174043
O O1 0.327265 0.205380 0.500000
O O2 0.253869 0.181581 0.278373
O O3 0.333350 0.254446 0.261581
O O4 0.378983 0.169742 0.258931
O O5 0.829099 0.809781 0.500000
O O6 0.868380 0.841610 0.245562
O O7 0.183874 0.076022 0.775388
O O8 0.061385 0.081315 0.762645
O O9 0.122634 0.111472 0.000000
O O10 0.769644 0.925399 0.500000
O O11 0.695362 0.931258 0.732700
O O12 0.772816 0.000000 0.671387
O O13 0.500000 0.500000 0.758517
O O14 0.500000 0.449002 0.000000
O O15 0.085157 0.377881 0.500000
O O16 0.076511 0.415056 0.232627
O O17 0.000000 0.347673 0.304509
O O18 0.115203 0.500000 0.206245
O O19 0.147511 0.561412 0.000000
#
# Coordination Sequence:
#
# PCOD8271229 Si02
#       7
#    16  16  16  16   8  16  16
#     4   8  16  33  55  78 105 140 178 219 269 328
#     4   9  17  33  57  80 105 137 176 224 276 323
#     4  11  21  34  54  80 108 142 184 227 271 324
#     4  10  20  34  54  80 108 137 173 221 274 323
#     4   9  20  38  55  71 103 153 195 223 262 325
#     4  10  20  34  53  77 106 143 186 225 266 319
#     4  10  21  36  54  78 108 141 178 220 267 321
#
# _framework density 19.242598999999998
#
# number of rings (size 3 to 8) (size 9 to 14) (size 15 to 20)
#    0.000    2.385    0.000    3.692    0.000    4.308 
#    1.385    5.385    0.000    2.769    0.000    0.000 
#    0.000    0.000    0.000    0.000    0.000    0.000 
#
# Total GULP energy -644772.013243 kJ/mol
# GULP energy per Si atom -12399.461793 kJ/mol
# Density = 1.919880 g / cm^3
# Si number density = 19.242599 Si / 1000 Ang^3
#
#
#
# Elastic Constant Matrix: (Units=GPa)
#
#
# Indices 1 2 3 4 5 6 
#
# 1 99.5016 77.6302 24.3183 0.0000 0.0000 0.0000
# 2 77.6302 108.0688 36.6816 0.0000 0.0000 0.0000
# 3 24.3183 36.6816 49.6323 0.0000 0.0000 0.0000
# 4 0.0000 0.0000 0.0000 27.5140 0.0000 0.0000
# 5 0.0000 0.0000 0.0000 0.0000 16.9552 0.0000
# 6 0.0000 0.0000 0.0000 0.0000 0.0000 32.3944
#
#
#
# Elastic Compliance Matrix: (Units=1/GPa)
#
#
# Indices 1 2 3 4 5 6 
#
# 1 0.022922 -0.016891 0.001252 0.000000 0.000000 0.000000
# 2 -0.016891 0.024799 -0.010052 0.000000 0.000000 0.000000
# 3 0.001252 -0.010052 0.026964 0.000000 0.000000 0.000000
# 4 0.000000 0.000000 0.000000 0.036345 0.000000 0.000000
# 5 0.000000 0.000000 0.000000 0.000000 0.058979 0.000000
# 6 0.000000 0.000000 0.000000 0.000000 0.000000 0.030869
#
#
# Mechanical properties :
#
#
# Convention : Reuss Voigt Hill
#
# Bulk Modulus (GPa) = 42.91191 59.38478 51.14835
# Shear Modulus (GPa) = 19.22875 23.27756 21.25316
#
# Velocity S-wave (km/s) = 3.16457 3.48183 3.32698
# Velocity P-wave (km/s) = 5.97508 6.86238 6.43404
#
# Compressibility (1/GPa) = 0.02330355
#
# Stress axis : x y z
#
# Youngs Moduli (GPa) = 43.62571 40.32452 37.08712
#
# Poissons Ratio (x) = 0.68113 -0.04645
# Poissons Ratio (y) = 0.73689 0.37280
# Poissons Ratio (z) = -0.05464 0.40534
#
# Static dielectric constant tensor:
#      x y z
#    x 3.576150 0.000000 0.000000 
#    y 0.000000 3.770700 0.000000 
#    z 0.000000 0.000000 3.254220 
# 
# 
# High freq. dielectric constant tensor:
#      x y z
#    x 1.741540 0.000000 0.000000 
#    y 0.000000 1.759360 0.000000 
#    z 0.000000 0.000000 1.723810 
# 
# From -- ./inp_files/12770.got.cif
#   From: 2010.03.12/outbox.cif.g09.slc.cpg/sg65_7_cif.got.tgz:12770.got - 2010.04.10 20:52:16.
