data_PCOD8271766
_publ_section_title
;
Structure prediction by ZEFSAII (Michael W. Deem and Ramdas Pophale) SiO2 
 PCOD8271766
Probable space group: C M M M
;
_chemical_formula_sum "Si O2"
_cell_formula_units_Z 104
_cell_length_a 21.542068
_cell_length_b 9.029398
_cell_length_c 26.213362
_cell_angle_alpha 90.000000
_cell_angle_beta 90.000000
_cell_angle_gamma 90.000000
_cell_volume 5098.810998
_symmetry_space_group_name_H-M "C M M M"
_symmetry_group_IT_number 65
_symmetry_cell_setting 'orthorhombic'
loop_
_space_group_symop_operation_xyz
x,y,z
-x,-y,z
x,-y,-z
-x,y,-z
-x,-y,-z
x,y,-z
-x,y,z
x,-y,z
1/2+x,1/2+y,z
1/2-x,1/2-y,z
1/2+x,1/2-y,-z
1/2-x,1/2+y,-z
1/2-x,1/2-y,-z
1/2+x,1/2+y,-z
1/2-x,1/2+y,z
1/2+x,1/2-y,z
loop_
_atom_site_type_symbol
_atom_site_label
_atom_site_fract_x
_atom_site_fract_y
_atom_site_fract_z
Si Si1 0.380818 0.329129 0.286385
Si Si2 0.185462 0.828955 0.387882
Si Si3 0.500000 0.177686 0.843012
Si Si4 0.121119 0.330717 0.102066
Si Si5 0.317331 0.178121 0.000000
Si Si6 0.929960 0.330805 0.560284
Si Si7 0.000000 0.324691 0.274947
Si Si8 0.811967 0.330293 0.797304
O O1 0.395750 0.500000 0.276336
O O2 0.325761 0.309459 0.327313
O O3 0.441958 0.243799 0.305573
O O4 0.366235 0.250194 0.232972
O O5 0.250000 0.750000 0.403422
O O6 0.124707 0.767519 0.416031
O O7 0.192466 0.000000 0.403024
O O8 0.559387 0.242736 0.873826
O O9 0.500000 0.230373 0.784271
O O10 0.500000 0.000000 0.841981
O O11 0.104800 0.500000 0.090983
O O12 0.176897 0.315680 0.142459
O O13 0.144483 0.260618 0.048983
O O14 0.250000 0.250000 0.000000
O O15 0.310130 0.000000 0.000000
O O16 0.923699 0.317591 0.500000
O O17 0.920081 0.500000 0.577954
O O18 0.000000 0.278683 0.576555
O O19 0.000000 0.500000 0.279991
O O20 0.809054 0.500000 0.779816
O O21 0.750000 0.250000 0.781228
#
# Coordination Sequence:
#
# PCOD8271766 Si02
#       8
#    16  16   8  16   8  16   8  16
#     4  11  24  40  58  86 122 157 199 250 297 355
#     4  11  25  42  62  90 127 167 209 259 309 363
#     4   9  16  32  55  82 109 134 176 231 276 333
#     4   9  18  32  53  80 109 139 182 231 281 342
#     4  10  20  35  55  79 107 142 179 226 280 335
#     4   9  20  41  68  97 128 164 209 258 307 366
#     4  11  21  37  62  87 116 157 198 242 296 358
#     4  11  21  35  55  80 110 149 194 239 291 352
#
# _framework density 20.396913000000001
#
# number of rings (size 3 to 8) (size 9 to 14) (size 15 to 20)
#    0.000    1.846    1.538    3.000    1.077    4.923 
#    0.000    3.077    0.000    0.000    0.000    0.538 
#    0.000    0.000    0.000    0.000    0.000    0.000 
#
# Total GULP energy -644619.877304 kJ/mol
# GULP energy per Si atom -12396.536102 kJ/mol
# Density = 2.035049 g / cm^3
# Si number density = 20.396913 Si / 1000 Ang^3
#
#
#
# Elastic Constant Matrix: (Units=GPa)
#
#
# Indices 1 2 3 4 5 6 
#
# 1 145.1163 63.2881 26.5993 0.0000 0.0000 0.0000
# 2 63.2881 115.3370 36.2919 0.0000 0.0000 0.0000
# 3 26.5993 36.2919 50.7165 0.0000 0.0000 0.0000
# 4 0.0000 0.0000 0.0000 23.5785 0.0000 0.0000
# 5 0.0000 0.0000 0.0000 0.0000 31.7185 0.0000
# 6 0.0000 0.0000 0.0000 0.0000 0.0000 38.0430
#
#
#
# Elastic Compliance Matrix: (Units=1/GPa)
#
#
# Indices 1 2 3 4 5 6 
#
# 1 0.009153 -0.004533 -0.001557 0.000000 0.000000 0.000000
# 2 -0.004533 0.013434 -0.007236 0.000000 0.000000 0.000000
# 3 -0.001557 -0.007236 0.025712 0.000000 0.000000 0.000000
# 4 0.000000 0.000000 0.000000 0.042411 0.000000 0.000000
# 5 0.000000 0.000000 0.000000 0.000000 0.031527 0.000000
# 6 0.000000 0.000000 0.000000 0.000000 0.000000 0.026286
#
#
# Mechanical properties :
#
#
# Convention : Reuss Voigt Hill
#
# Bulk Modulus (GPa) = 46.19377 62.61425 54.40401
# Shear Modulus (GPa) = 27.41343 31.00070 29.20706
#
# Velocity S-wave (km/s) = 3.67004 3.90278 3.78820
# Velocity P-wave (km/s) = 6.37617 7.14657 6.77233
#
# Compressibility (1/GPa) = 0.02164794
#
# Stress axis : x y z
#
# Youngs Moduli (GPa) = 109.25138 74.43629 38.89203
#
# Poissons Ratio (x) = 0.33739 0.06056
# Poissons Ratio (y) = 0.49519 0.28143
# Poissons Ratio (z) = 0.17012 0.53863
#
# Static dielectric constant tensor:
#      x y z
#    x 3.829580 0.000000 0.000000 
#    y 0.000000 3.478360 0.000000 
#    z 0.000000 0.000000 3.712650 
# 
# 
# High freq. dielectric constant tensor:
#      x y z
#    x 1.810810 0.000000 0.000000 
#    y 0.000000 1.772000 0.000000 
#    z 0.000000 0.000000 1.797010 
# 
# From -- ./inp_files/75563.got.cif
#   From: 2010.03.12/outbox.cif.g09.slc.cpg/sg65_38_cif.got.tgz:75563.got - 2010.04.10 20:52:16.
