data_PCOD8271135
_publ_section_title
;
Structure prediction by ZEFSAII (Michael W. Deem and Ramdas Pophale) SiO2 
 PCOD8271135
Probable space group: C M M M
;
_chemical_formula_sum "Si O2"
_cell_formula_units_Z 72
_cell_length_a 8.880885
_cell_length_b 25.537320
_cell_length_c 17.066029
_cell_angle_alpha 90.000000
_cell_angle_beta 90.000000
_cell_angle_gamma 90.000000
_cell_volume 3870.473017
_symmetry_space_group_name_H-M "C M M M"
_symmetry_group_IT_number 65
_symmetry_cell_setting 'orthorhombic'
loop_
_space_group_symop_operation_xyz
x,y,z
-x,-y,z
x,-y,-z
-x,y,-z
-x,-y,-z
x,y,-z
-x,y,z
x,-y,z
1/2+x,1/2+y,z
1/2-x,1/2-y,z
1/2+x,1/2-y,-z
1/2-x,1/2+y,-z
1/2-x,1/2-y,-z
1/2+x,1/2+y,-z
1/2-x,1/2+y,z
1/2+x,1/2-y,z
loop_
_atom_site_type_symbol
_atom_site_label
_atom_site_fract_x
_atom_site_fract_y
_atom_site_fract_z
Si Si1 0.819248 0.500000 0.088809
Si Si2 0.171860 0.558120 0.374174
Si Si3 0.321286 0.802832 0.740614
Si Si4 0.327038 0.911534 0.799834
Si Si5 0.326729 0.660181 0.412680
O O1 0.754457 0.552526 0.131535
O O2 0.000000 0.500000 0.094151
O O3 0.760739 0.500000 0.000000
O O4 0.208060 0.500000 0.405834
O O5 0.194910 0.557767 0.280905
O O6 0.282802 0.598891 0.415040
O O7 0.000000 0.574000 0.394129
O O8 0.500000 0.799421 0.743962
O O9 0.250000 0.750000 0.776192
O O10 0.258537 0.852600 0.790831
O O11 0.274691 0.808675 0.649494
O O12 0.500000 0.903737 0.820861
O O13 0.300841 0.683268 0.500000
O O14 0.500000 0.665518 0.387293
#
# Coordination Sequence:
#
# PCOD8271135 Si02
#       5
#     8  16  16  16  16
#     4   9  14  22  44  78 110 133 154 190 239 285
#     4   9  16  28  47  66  91 130 170 207 244 289
#     4  10  20  34  53  72  93 126 167 209 247 290
#     4   8  14  26  44  69 100 129 159 197 238 281
#     4  10  21  34  46  65  95 126 160 207 257 302
#
# _framework density 18.602376
#
# number of rings (size 3 to 8) (size 9 to 14) (size 15 to 20)
#    0.000    2.778    1.111    2.667    0.000    3.111 
#    0.000    2.222    0.000    0.667    0.000    0.000 
#    0.000   43.556    0.000    0.000    0.000    0.889 
#
# Total GULP energy -446102.085165 kJ/mol
# GULP energy per Si atom -12391.724588 kJ/mol
# Density = 1.856004 g / cm^3
# Si number density = 18.602376 Si / 1000 Ang^3
#
#
#
# Elastic Constant Matrix: (Units=GPa)
#
#
# Indices 1 2 3 4 5 6 
#
# 1 46.2744 23.3998 15.3736 0.0000 0.0000 0.0000
# 2 23.3998 134.0309 43.8126 0.0000 0.0000 0.0000
# 3 15.3736 43.8126 86.0874 0.0000 0.0000 0.0000
# 4 0.0000 0.0000 0.0000 -2.2323 0.0000 0.0000
# 5 0.0000 0.0000 0.0000 0.0000 8.7711 0.0000
# 6 0.0000 0.0000 0.0000 0.0000 0.0000 28.9034
#
#
#
# Elastic Compliance Matrix: (Units=1/GPa)
#
#
# Indices 1 2 3 4 5 6 
#
# 1 0.024179 -0.003371 -0.002603 0.000000 0.000000 0.000000
# 2 -0.003371 0.009420 -0.004192 0.000000 0.000000 0.000000
# 3 -0.002603 -0.004192 0.014214 0.000000 0.000000 0.000000
# 4 0.000000 0.000000 0.000000 -0.447978 0.000000 0.000000
# 5 0.000000 0.000000 0.000000 0.000000 0.114011 0.000000
# 6 0.000000 0.000000 0.000000 0.000000 0.000000 0.034598
#
#
# Mechanical properties :
#
#
# Convention : Reuss Voigt Hill
#
# Bulk Modulus (GPa) = 36.38627 47.95164 42.16896
# Shear Modulus (GPa) = -22.51597 19.34223 -1.58687
#
# Velocity S-wave (km/s) = -3.48283 3.22805 -0.92461
# Velocity P-wave (km/s) = 1.85176 6.30292 4.64521
#
# Compressibility (1/GPa) = 0.02748289
#
# Stress axis : x y z
#
# Youngs Moduli (GPa) = 41.35770 106.15986 70.35143
#
# Poissons Ratio (x) = 0.35782 0.18309
# Poissons Ratio (y) = 0.13940 0.29492
# Poissons Ratio (z) = 0.10764 0.44503
#
# Static dielectric constant tensor:
#      x y z
#    x 3.079130 0.000000 0.000000 
#    y 0.000000 3.802010 0.000000 
#    z 0.000000 0.000000 3.224070 
# 
# 
# High freq. dielectric constant tensor:
#      x y z
#    x 1.684020 0.000000 0.000000 
#    y 0.000000 1.734210 0.000000 
#    z 0.000000 0.000000 1.685160 
# 
# From -- ./inp_files/49741.got.cif
#   From: 2010.03.12/outbox.cif.g09.slc.cpg/sg65_25_cif.got.tgz:49741.got - 2010.04.10 20:52:16.
