data_PCOD8271894
_publ_section_title
;
Structure prediction by ZEFSAII (Michael W. Deem and Ramdas Pophale) SiO2 
 PCOD8271894
Probable space group: C M M M
;
_chemical_formula_sum "Si O2"
_cell_formula_units_Z 72
_cell_length_a 15.394251
_cell_length_b 9.514494
_cell_length_c 24.793102
_cell_angle_alpha 90.000000
_cell_angle_beta 90.000000
_cell_angle_gamma 90.000000
_cell_volume 3631.408678
_symmetry_space_group_name_H-M "C M M M"
_symmetry_group_IT_number 65
_symmetry_cell_setting 'orthorhombic'
loop_
_space_group_symop_operation_xyz
x,y,z
-x,-y,z
x,-y,-z
-x,y,-z
-x,-y,-z
x,y,-z
-x,y,z
x,-y,z
1/2+x,1/2+y,z
1/2-x,1/2-y,z
1/2+x,1/2-y,-z
1/2-x,1/2+y,-z
1/2-x,1/2-y,-z
1/2+x,1/2+y,-z
1/2-x,1/2+y,z
1/2+x,1/2-y,z
loop_
_atom_site_type_symbol
_atom_site_label
_atom_site_fract_x
_atom_site_fract_y
_atom_site_fract_z
Si Si1 0.333104 0.164450 0.625454
Si Si2 0.500000 0.832922 0.560905
Si Si3 0.603373 0.157697 0.059808
Si Si4 0.600997 0.839608 0.742619
Si Si5 0.396317 0.341498 0.157331
O O1 0.250000 0.250000 0.605020
O O2 0.414712 0.222328 0.591555
O O3 0.347449 0.195440 0.688442
O O4 0.318018 0.000000 0.614830
O O5 0.500000 0.774811 0.500000
O O6 0.500000 0.000000 0.562350
O O7 0.500000 0.159114 0.062436
O O8 0.641804 0.264560 0.104188
O O9 0.636650 0.000000 0.072224
O O10 0.634130 0.205425 0.000000
O O11 0.500000 0.811753 0.730964
O O12 0.637334 0.739029 0.789584
O O13 0.615463 0.000000 0.761112
O O14 0.500000 0.338826 0.156075
O O15 0.360475 0.500000 0.158489
#
# Coordination Sequence:
#
# PCOD8271894 Si02
#       5
#    16   8  16  16  16
#     4  10  20  35  56  83 111 144 185 227 272 321
#     4   9  18  36  61  85 113 151 190 223 262 321
#     4   8  13  21  32  47  73 114 162 207 253 310
#     4   9  16  29  48  66  91 130 175 215 255 315
#     4   9  16  23  34  57  86 117 158 209 267 319
#
# _framework density 19.827017000000001
#
# number of rings (size 3 to 8) (size 9 to 14) (size 15 to 20)
#    0.000    3.000    1.111    1.333    0.000    4.444 
#    0.000    2.778    0.000    0.667    0.000    0.000 
#    0.000    0.889    0.000    2.889    0.000    5.778 
#
# Total GULP energy -446343.300196 kJ/mol
# GULP energy per Si atom -12398.425005 kJ/mol
# Density = 1.978189 g / cm^3
# Si number density = 19.827017 Si / 1000 Ang^3
#
#
#
# Elastic Constant Matrix: (Units=GPa)
#
#
# Indices 1 2 3 4 5 6 
#
# 1 75.2654 40.1873 48.8825 0.0000 0.0000 0.0000
# 2 40.1873 106.7477 72.8937 0.0000 0.0000 0.0000
# 3 48.8825 72.8937 136.3776 0.0000 0.0000 0.0000
# 4 0.0000 0.0000 0.0000 16.4840 0.0000 0.0000
# 5 0.0000 0.0000 0.0000 0.0000 3.2654 0.0000
# 6 0.0000 0.0000 0.0000 0.0000 0.0000 19.7283
#
#
#
# Elastic Compliance Matrix: (Units=1/GPa)
#
#
# Indices 1 2 3 4 5 6 
#
# 1 0.018239 -0.003783 -0.004515 0.000000 0.000000 0.000000
# 2 -0.003783 0.015537 -0.006949 0.000000 0.000000 0.000000
# 3 -0.004515 -0.006949 0.012665 0.000000 0.000000 0.000000
# 4 0.000000 0.000000 0.000000 0.060665 0.000000 0.000000
# 5 0.000000 0.000000 0.000000 0.000000 0.306237 0.000000
# 6 0.000000 0.000000 0.000000 0.000000 0.000000 0.050688
#
#
# Mechanical properties :
#
#
# Convention : Reuss Voigt Hill
#
# Bulk Modulus (GPa) = 62.70788 71.36861 67.03824
# Shear Modulus (GPa) = 10.00318 18.32403 14.16360
#
# Velocity S-wave (km/s) = 2.24860 3.04336 2.67565
# Velocity P-wave (km/s) = 6.19982 6.95867 6.59018
#
# Compressibility (1/GPa) = 0.01594696
#
# Stress axis : x y z
#
# Youngs Moduli (GPa) = 54.82804 64.36281 78.95735
#
# Poissons Ratio (x) = 0.24348 0.35653
# Poissons Ratio (y) = 0.20741 0.54864
# Poissons Ratio (z) = 0.24757 0.44723
#
# Static dielectric constant tensor:
#      x y z
#    x 3.126030 0.000000 0.000000 
#    y 0.000000 3.519320 0.000000 
#    z 0.000000 0.000000 3.782440 
# 
# 
# High freq. dielectric constant tensor:
#      x y z
#    x 1.738680 0.000000 0.000000 
#    y 0.000000 1.753940 0.000000 
#    z 0.000000 0.000000 1.778720 
# 
# From -- ./inp_files/67107.got.cif
#   From: 2010.03.12/outbox.cif.g09.slc.cpg/sg65_34_cif.got.tgz:67107.got - 2010.04.10 20:52:16.
