data_PCOD8271206
_publ_section_title
;
Structure prediction by ZEFSAII (Michael W. Deem and Ramdas Pophale) SiO2 
 PCOD8271206
Probable space group: C M M M
;
_chemical_formula_sum "Si O2"
_cell_formula_units_Z 80
_cell_length_a 9.024716
_cell_length_b 26.646225
_cell_length_c 18.614369
_cell_angle_alpha 90.000000
_cell_angle_beta 90.000000
_cell_angle_gamma 90.000000
_cell_volume 4476.283183
_symmetry_space_group_name_H-M "C M M M"
_symmetry_group_IT_number 65
_symmetry_cell_setting 'orthorhombic'
loop_
_space_group_symop_operation_xyz
x,y,z
-x,-y,z
x,-y,-z
-x,y,-z
-x,-y,-z
x,y,-z
-x,y,z
x,-y,z
1/2+x,1/2+y,z
1/2-x,1/2-y,z
1/2+x,1/2-y,-z
1/2-x,1/2+y,-z
1/2-x,1/2-y,-z
1/2+x,1/2+y,-z
1/2-x,1/2+y,z
1/2+x,1/2-y,z
loop_
_atom_site_type_symbol
_atom_site_label
_atom_site_fract_x
_atom_site_fract_y
_atom_site_fract_z
Si Si1 0.829404 0.557361 0.279310
Si Si2 0.674025 0.303368 0.500000
Si Si3 0.675094 0.356912 0.645478
Si Si4 0.825129 0.441676 0.000000
Si Si5 0.826941 0.097338 0.141367
Si Si6 0.669649 0.699923 0.785733
O O1 0.815036 0.500000 0.304019
O O2 0.759510 0.590628 0.343023
O O3 0.740591 0.564677 0.205537
O O4 0.000000 0.572532 0.266572
O O5 0.500000 0.294056 0.500000
O O6 0.750000 0.250000 0.500000
O O7 0.724427 0.334605 0.569419
O O8 0.500000 0.367203 0.650421
O O9 0.726495 0.318402 0.707654
O O10 0.756650 0.415367 0.068892
O O11 0.782739 0.500000 0.000000
O O12 0.000000 0.433514 0.000000
O O13 0.802676 0.156350 0.156171
O O14 0.000000 0.084139 0.134766
O O15 0.500000 0.714380 0.779727
O O16 0.750000 0.750000 0.811556
#
# Coordination Sequence:
#
# PCOD8271206 Si02
#       6
#    16   8  16   8  16  16
#     4  10  20  34  53  77 103 133 172 216 259 304
#     4  10  20  34  53  78 107 137 172 215 261 310
#     4   9  19  34  51  75 105 136 173 213 254 307
#     4  11  23  37  54  79 108 135 168 211 256 303
#     4  10  21  36  54  78 106 136 172 210 252 307
#     4   9  18  32  51  75 101 131 169 210 250 297
#
# _framework density 17.871970999999998
#
# number of rings (size 3 to 8) (size 9 to 14) (size 15 to 20)
#    0.000    2.300    0.000    3.900    0.000    9.600 
#    0.000    1.000    0.000    3.000    0.000    0.000 
#    0.000    0.000    0.000    0.000    0.000    0.000 
#
# Total GULP energy -496088.602443 kJ/mol
# GULP energy per Si atom -12402.215061 kJ/mol
# Density = 1.783129 g / cm^3
# Si number density = 17.871971 Si / 1000 Ang^3
#
#
#
# Elastic Constant Matrix: (Units=GPa)
#
#
# Indices 1 2 3 4 5 6 
#
# 1 82.0352 62.3070 49.0101 0.0000 0.0000 0.0000
# 2 62.3070 124.5784 62.7381 0.0000 0.0000 0.0000
# 3 49.0101 62.7381 134.7513 0.0000 0.0000 0.0000
# 4 0.0000 0.0000 0.0000 18.5990 0.0000 0.0000
# 5 0.0000 0.0000 0.0000 0.0000 12.8070 0.0000
# 6 0.0000 0.0000 0.0000 0.0000 0.0000 36.4623
#
#
#
# Elastic Compliance Matrix: (Units=1/GPa)
#
#
# Indices 1 2 3 4 5 6 
#
# 1 0.020895 -0.008652 -0.003571 0.000000 0.000000 0.000000
# 2 -0.008652 0.014068 -0.003403 0.000000 0.000000 0.000000
# 3 -0.003571 -0.003403 0.010304 0.000000 0.000000 0.000000
# 4 0.000000 0.000000 0.000000 0.053766 0.000000 0.000000
# 5 0.000000 0.000000 0.000000 0.000000 0.078082 0.000000
# 6 0.000000 0.000000 0.000000 0.000000 0.000000 0.027426
#
#
# Mechanical properties :
#
#
# Convention : Reuss Voigt Hill
#
# Bulk Modulus (GPa) = 71.35443 76.60834 73.98138
# Shear Modulus (GPa) = 20.79301 24.72764 22.76033
#
# Velocity S-wave (km/s) = 3.41463 3.72371 3.57251
# Velocity P-wave (km/s) = 7.45374 7.83876 7.64867
#
# Compressibility (1/GPa) = 0.01401455
#
# Stress axis : x y z
#
# Youngs Moduli (GPa) = 47.85903 71.08321 97.04505
#
# Poissons Ratio (x) = 0.61499 0.34659
# Poissons Ratio (y) = 0.41406 0.33026
# Poissons Ratio (z) = 0.17093 0.24191
#
# Static dielectric constant tensor:
#      x y z
#    x 3.380730 0.000000 0.000000 
#    y 0.000000 3.315560 0.000000 
#    z 0.000000 0.000000 3.473490 
# 
# 
# High freq. dielectric constant tensor:
#      x y z
#    x 1.699310 0.000000 0.000000 
#    y 0.000000 1.695360 0.000000 
#    z 0.000000 0.000000 1.681940 
# 
# From -- ./inp_files/49993.got.cif
#   From: 2010.03.12/outbox.cif.g09.slc.cpg/sg65_25_cif.got.tgz:49993.got - 2010.04.10 20:52:16.
