data_PCOD8271378
_publ_section_title
;
Structure prediction by ZEFSAII (Michael W. Deem and Ramdas Pophale) SiO2 
 PCOD8271378
Probable space group: C M M M
;
_chemical_formula_sum "Si O2"
_cell_formula_units_Z 104
_cell_length_a 29.480503
_cell_length_b 22.557516
_cell_length_c 9.099616
_cell_angle_alpha 90.000000
_cell_angle_beta 90.000000
_cell_angle_gamma 90.000000
_cell_volume 6051.307592
_symmetry_space_group_name_H-M "C M M M"
_symmetry_group_IT_number 65
_symmetry_cell_setting 'orthorhombic'
loop_
_space_group_symop_operation_xyz
x,y,z
-x,-y,z
x,-y,-z
-x,y,-z
-x,-y,-z
x,y,-z
-x,y,z
x,-y,z
1/2+x,1/2+y,z
1/2-x,1/2-y,z
1/2+x,1/2-y,-z
1/2-x,1/2+y,-z
1/2-x,1/2-y,-z
1/2+x,1/2+y,-z
1/2-x,1/2+y,z
1/2+x,1/2-y,z
loop_
_atom_site_type_symbol
_atom_site_label
_atom_site_fract_x
_atom_site_fract_y
_atom_site_fract_z
Si Si1 0.895707 0.887048 0.825817
Si Si2 0.947501 0.771783 0.828766
Si Si3 0.789477 0.570499 0.334240
Si Si4 0.552916 0.848302 0.670449
Si Si5 0.121372 0.430046 0.830263
Si Si6 0.448850 0.500000 0.824359
Si Si7 0.799518 0.930994 0.829197
O O1 0.916814 0.825636 0.767934
O O2 0.924091 0.941906 0.760092
O O3 0.843214 0.893171 0.778426
O O4 0.899910 0.889361 0.000000
O O5 0.932355 0.714360 0.738465
O O6 0.000000 0.787998 0.800912
O O7 0.938567 0.759265 0.000000
O O8 0.792666 0.594701 0.500000
O O9 0.789171 0.500000 0.330131
O O10 0.832457 0.594288 0.243196
O O11 0.743193 0.593979 0.261186
O O12 0.565898 0.848463 0.500000
O O13 0.500000 0.859752 0.696328
O O14 0.578532 0.901123 0.751534
O O15 0.116638 0.500000 0.809189
O O16 0.122183 0.411788 0.000000
O O17 0.500000 0.500000 0.765868
O O18 0.447153 0.500000 0.000000
O O19 0.809342 0.000000 0.796398
O O20 0.788625 0.921797 0.000000
#
# Coordination Sequence:
#
# PCOD8271378 Si02
#       7
#    16  16  16  16  16   8  16
#     4   9  15  24  40  66  97 129 165 209 256 296
#     4   9  17  30  48  69  94 128 171 212 247 287
#     4   9  17  29  46  69  98 130 162 195 234 285
#     4  10  21  36  53  73  99 132 166 197 232 279
#     4  10  20  34  54  80 105 127 153 188 236 288
#     4   9  14  20  34  62  99 131 161 205 260 305
#     4   9  15  25  42  65  96 130 165 204 248 295
#
# _framework density 17.186368999999999
#
# number of rings (size 3 to 8) (size 9 to 14) (size 15 to 20)
#    0.000    2.692    0.769    1.846    0.000    5.846 
#    0.000    2.308    0.000    0.923    0.000    6.462 
#    0.000    3.692    0.000    0.000    0.000    0.000 
#
# Total GULP energy -644800.730093 kJ/mol
# GULP energy per Si atom -12400.014040 kJ/mol
# Density = 1.714725 g / cm^3
# Si number density = 17.186369 Si / 1000 Ang^3
#
#
#
# Elastic Constant Matrix: (Units=GPa)
#
#
# Indices 1 2 3 4 5 6 
#
# 1 114.0938 54.0036 58.4896 0.0000 0.0000 0.0000
# 2 54.0036 61.1342 42.6179 0.0000 0.0000 0.0000
# 3 58.4896 42.6179 90.6881 0.0000 0.0000 0.0000
# 4 0.0000 0.0000 0.0000 13.7435 0.0000 0.0000
# 5 0.0000 0.0000 0.0000 0.0000 19.6494 0.0000
# 6 0.0000 0.0000 0.0000 0.0000 0.0000 20.2148
#
#
#
# Elastic Compliance Matrix: (Units=1/GPa)
#
#
# Indices 1 2 3 4 5 6 
#
# 1 0.016873 -0.010885 -0.005767 0.000000 0.000000 0.000000
# 2 -0.010885 0.031349 -0.007712 0.000000 0.000000 0.000000
# 3 -0.005767 -0.007712 0.018371 0.000000 0.000000 0.000000
# 4 0.000000 0.000000 0.000000 0.072761 0.000000 0.000000
# 5 0.000000 0.000000 0.000000 0.000000 0.050892 0.000000
# 6 0.000000 0.000000 0.000000 0.000000 0.000000 0.049469
#
#
# Mechanical properties :
#
#
# Convention : Reuss Voigt Hill
#
# Bulk Modulus (GPa) = 55.97611 64.01537 59.99574
# Shear Modulus (GPa) = 16.98383 18.10856 17.54619
#
# Velocity S-wave (km/s) = 3.14700 3.24953 3.19868
# Velocity P-wave (km/s) = 6.77094 7.16993 6.97329
#
# Compressibility (1/GPa) = 0.01786476
#
# Stress axis : x y z
#
# Youngs Moduli (GPa) = 59.26498 31.89923 54.43487
#
# Poissons Ratio (x) = 0.34722 0.31395
# Poissons Ratio (y) = 0.64508 0.41979
# Poissons Ratio (z) = 0.34180 0.24600
#
# Static dielectric constant tensor:
#      x y z
#    x 3.322540 0.000000 0.000000 
#    y 0.000000 3.021840 0.000000 
#    z 0.000000 0.000000 3.076490 
# 
# 
# High freq. dielectric constant tensor:
#      x y z
#    x 1.671680 0.000000 0.000000 
#    y 0.000000 1.634510 0.000000 
#    z 0.000000 0.000000 1.645040 
# 
# From -- ./inp_files/18621.got.cif
#   From: 2010.03.12/outbox.cif.g09.slc.cpg/sg65_10_cif.got.tgz:18621.got - 2010.04.10 20:52:16.
