data_PCOD8271663
_publ_section_title
;
Structure prediction by ZEFSAII (Michael W. Deem and Ramdas Pophale) SiO2 
 PCOD8271663
Probable space group: C M M M
;
_chemical_formula_sum "Si O2"
_cell_formula_units_Z 88
_cell_length_a 23.456144
_cell_length_b 9.231511
_cell_length_c 23.292657
_cell_angle_alpha 90.000000
_cell_angle_beta 90.000000
_cell_angle_gamma 90.000000
_cell_volume 5043.690655
_symmetry_space_group_name_H-M "C M M M"
_symmetry_group_IT_number 65
_symmetry_cell_setting 'orthorhombic'
loop_
_space_group_symop_operation_xyz
x,y,z
-x,-y,z
x,-y,-z
-x,y,-z
-x,-y,-z
x,y,-z
-x,y,z
x,-y,z
1/2+x,1/2+y,z
1/2-x,1/2-y,z
1/2+x,1/2-y,-z
1/2-x,1/2+y,-z
1/2-x,1/2-y,-z
1/2+x,1/2+y,-z
1/2-x,1/2+y,z
1/2+x,1/2-y,z
loop_
_atom_site_type_symbol
_atom_site_label
_atom_site_fract_x
_atom_site_fract_y
_atom_site_fract_z
Si Si1 0.307533 0.165612 0.000000
Si Si2 0.500000 0.328382 0.259566
Si Si3 0.191205 0.668424 0.665276
Si Si4 0.809701 0.669008 0.124178
Si Si5 0.612314 0.170422 0.771635
Si Si6 0.000000 0.829061 0.607573
Si Si7 0.391050 0.166047 0.565327
O O1 0.250000 0.250000 0.000000
O O2 0.338605 0.200831 0.060890
O O3 0.289602 0.000000 0.000000
O O4 0.500000 0.500000 0.251566
O O5 0.445331 0.261211 0.228820
O O6 0.500000 0.282679 0.326131
O O7 0.205393 0.500000 0.667548
O O8 0.250000 0.750000 0.672154
O O9 0.149585 0.713915 0.716653
O O10 0.161358 0.713450 0.605601
O O11 0.796696 0.500000 0.132803
O O12 0.750000 0.750000 0.132279
O O13 0.854404 0.721548 0.171528
O O14 0.598072 0.000000 0.772091
O O15 0.055092 0.766427 0.576453
O O16 0.000000 0.000000 0.599776
O O17 0.370511 0.185317 0.500000
O O18 0.408590 0.000000 0.578567
#
# Coordination Sequence:
#
# PCOD8271663 Si02
#       7
#     8   8  16  16  16   8  16
#     4   8  14  26  44  71 106 137 169 206 242 288
#     4  11  23  36  54  78 101 128 164 211 260 302
#     4  10  21  35  52  74 101 132 166 204 245 294
#     4   9  17  29  49  77 107 139 171 205 248 295
#     4  10  20  35  54  75 100 134 171 206 250 301
#     4  11  22  36  55  80 103 125 161 211 262 301
#     4  10  21  37  56  76 100 134 170 202 245 302
#
# _framework density 17.44754
#
# number of rings (size 3 to 8) (size 9 to 14) (size 15 to 20)
#    0.000    2.182    1.818    1.364    0.000    4.727 
#    0.000    0.000    0.000    0.545    0.000    3.818 
#    0.000    0.000    0.000    0.000    0.000    0.000 
#
# Total GULP energy -545497.400576 kJ/mol
# GULP energy per Si atom -12397.668195 kJ/mol
# Density = 1.740783 g / cm^3
# Si number density = 17.447540 Si / 1000 Ang^3
#
#
#
# Elastic Constant Matrix: (Units=GPa)
#
#
# Indices 1 2 3 4 5 6 
#
# 1 123.0371 47.4450 66.8068 0.0000 0.0000 0.0000
# 2 47.4450 48.6505 39.4143 0.0000 0.0000 0.0000
# 3 66.8068 39.4143 155.9449 0.0000 0.0000 0.0000
# 4 0.0000 0.0000 0.0000 18.2633 0.0000 0.0000
# 5 0.0000 0.0000 0.0000 0.0000 33.3242 0.0000
# 6 0.0000 0.0000 0.0000 0.0000 0.0000 30.8268
#
#
#
# Elastic Compliance Matrix: (Units=1/GPa)
#
#
# Indices 1 2 3 4 5 6 
#
# 1 0.014229 -0.011239 -0.003255 0.000000 0.000000 0.000000
# 2 -0.011239 0.034725 -0.003962 0.000000 0.000000 0.000000
# 3 -0.003255 -0.003962 0.008808 0.000000 0.000000 0.000000
# 4 0.000000 0.000000 0.000000 0.054755 0.000000 0.000000
# 5 0.000000 0.000000 0.000000 0.000000 0.030008 0.000000
# 6 0.000000 0.000000 0.000000 0.000000 0.000000 0.032439
#
#
# Mechanical properties :
#
#
# Convention : Reuss Voigt Hill
#
# Bulk Modulus (GPa) = 47.96084 70.55162 59.25623
# Shear Modulus (GPa) = 22.84906 28.08063 25.46485
#
# Velocity S-wave (km/s) = 3.62275 4.01612 3.82450
# Velocity P-wave (km/s) = 6.71173 7.87591 7.31701
#
# Compressibility (1/GPa) = 0.02085034
#
# Stress axis : x y z
#
# Youngs Moduli (GPa) = 70.27815 28.79750 113.52973
#
# Poissons Ratio (x) = 0.32367 0.36955
# Poissons Ratio (y) = 0.78989 0.44976
# Poissons Ratio (z) = 0.22876 0.11408
#
# Static dielectric constant tensor:
#      x y z
#    x 3.011940 0.000000 0.000000 
#    y 0.000000 3.056430 0.000000 
#    z 0.000000 0.000000 3.814040 
# 
# 
# High freq. dielectric constant tensor:
#      x y z
#    x 1.653250 0.000000 0.000000 
#    y 0.000000 1.672170 0.000000 
#    z 0.000000 0.000000 1.691010 
# 
# From -- ./inp_files/65245.got.cif
#   From: 2010.03.12/outbox.cif.g09.slc.cpg/sg65_33_cif.got.tgz:65245.got - 2010.04.10 20:52:16.
