data_PCOD8271319
_publ_section_title
;
Structure prediction by ZEFSAII (Michael W. Deem and Ramdas Pophale) SiO2 
 PCOD8271319
Probable space group: C M M M
;
_chemical_formula_sum "Si O2"
_cell_formula_units_Z 104
_cell_length_a 28.812538
_cell_length_b 9.606713
_cell_length_c 20.356472
_cell_angle_alpha 90.000000
_cell_angle_beta 90.000000
_cell_angle_gamma 90.000000
_cell_volume 5634.544901
_symmetry_space_group_name_H-M "C M M M"
_symmetry_group_IT_number 65
_symmetry_cell_setting 'orthorhombic'
loop_
_space_group_symop_operation_xyz
x,y,z
-x,-y,z
x,-y,-z
-x,y,-z
-x,-y,-z
x,y,-z
-x,y,z
x,-y,z
1/2+x,1/2+y,z
1/2-x,1/2-y,z
1/2+x,1/2-y,-z
1/2-x,1/2+y,-z
1/2-x,1/2-y,-z
1/2+x,1/2+y,-z
1/2-x,1/2+y,z
1/2+x,1/2-y,z
loop_
_atom_site_type_symbol
_atom_site_label
_atom_site_fract_x
_atom_site_fract_y
_atom_site_fract_z
Si Si1 0.449066 0.844498 0.098849
Si Si2 0.362755 0.341123 0.072690
Si Si3 0.000000 0.659961 0.577926
Si Si4 0.448521 0.846731 0.253723
Si Si5 0.132764 0.841082 0.701582
Si Si6 0.412354 0.660249 0.425810
Si Si7 0.296766 0.664643 0.191278
O O1 0.500000 0.802597 0.070965
O O2 0.410608 0.741542 0.071656
O O3 0.451975 0.840101 0.176423
O O4 0.436123 0.000000 0.075208
O O5 0.375425 0.500000 0.088101
O O6 0.327648 0.287763 0.128890
O O7 0.339704 0.325703 0.000000
O O8 0.953303 0.739553 0.601425
O O9 0.000000 0.500000 0.602938
O O10 0.000000 0.666935 0.500000
O O11 0.500000 0.819988 0.284913
O O12 0.413806 0.729315 0.274937
O O13 0.430943 0.000000 0.275891
O O14 0.133003 0.821244 0.621935
O O15 0.178079 0.786675 0.740497
O O16 0.127437 0.000000 0.722353
O O17 0.397304 0.700253 0.500000
O O18 0.429857 0.500000 0.423123
O O19 0.285991 0.500000 0.189954
O O20 0.250000 0.750000 0.187074
#
# Coordination Sequence:
#
# PCOD8271319 Si02
#       7
#    16  16   8  16  16  16  16
#     4   9  18  33  52  76 109 146 181 215 251 298
#     4  10  21  37  56  79 108 139 172 213 259 307
#     4   9  17  29  45  69 105 147 184 215 250 294
#     4   9  18  31  48  74 107 140 175 214 256 302
#     4  10  20  34  54  78 102 134 176 216 258 307
#     4   9  18  32  49  71 103 141 178 214 252 299
#     4  10  22  40  59  80 103 128 166 217 269 322
#
# _framework density 18.45757
#
# number of rings (size 3 to 8) (size 9 to 14) (size 15 to 20)
#    0.000    2.538    1.538    1.154    1.077    4.308 
#    0.000    3.077    0.000    0.462    0.000    0.000 
#    0.000    0.000    0.000    0.000    0.000    0.000 
#
# Total GULP energy -644383.835549 kJ/mol
# GULP energy per Si atom -12391.996837 kJ/mol
# Density = 1.841556 g / cm^3
# Si number density = 18.457570 Si / 1000 Ang^3
#
#
#
# Elastic Constant Matrix: (Units=GPa)
#
#
# Indices 1 2 3 4 5 6 
#
# 1 113.1206 51.0901 64.2117 0.0000 0.0000 0.0000
# 2 51.0901 62.4230 35.1889 0.0000 0.0000 0.0000
# 3 64.2117 35.1889 94.2429 0.0000 0.0000 0.0000
# 4 0.0000 0.0000 0.0000 14.8010 0.0000 0.0000
# 5 0.0000 0.0000 0.0000 0.0000 37.8739 0.0000
# 6 0.0000 0.0000 0.0000 0.0000 0.0000 31.9720
#
#
#
# Elastic Compliance Matrix: (Units=1/GPa)
#
#
# Indices 1 2 3 4 5 6 
#
# 1 0.018364 -0.010104 -0.008740 0.000000 0.000000 0.000000
# 2 -0.010104 0.025849 -0.002768 0.000000 0.000000 0.000000
# 3 -0.008740 -0.002768 0.017599 0.000000 0.000000 0.000000
# 4 0.000000 0.000000 0.000000 0.067563 0.000000 0.000000
# 5 0.000000 0.000000 0.000000 0.000000 0.026403 0.000000
# 6 0.000000 0.000000 0.000000 0.000000 0.000000 0.031277
#
#
# Mechanical properties :
#
#
# Convention : Reuss Voigt Hill
#
# Bulk Modulus (GPa) = 53.79124 63.41867 58.60496
# Shear Modulus (GPa) = 21.14378 24.88242 23.01310
#
# Velocity S-wave (km/s) = 3.38825 3.67561 3.53485
# Velocity P-wave (km/s) = 6.67184 7.24205 6.96278
#
# Compressibility (1/GPa) = 0.01859039
#
# Stress axis : x y z
#
# Youngs Moduli (GPa) = 54.45294 38.68588 56.82065
#
# Poissons Ratio (x) = 0.39086 0.49661
# Poissons Ratio (y) = 0.55017 0.15727
# Poissons Ratio (z) = 0.47592 0.10707
#
# Static dielectric constant tensor:
#      x y z
#    x 3.219090 0.000000 0.000000 
#    y 0.000000 3.475670 0.000000 
#    z 0.000000 0.000000 3.892830 
# 
# 
# High freq. dielectric constant tensor:
#      x y z
#    x 1.676940 0.000000 0.000000 
#    y 0.000000 1.713730 0.000000 
#    z 0.000000 0.000000 1.739370 
# 
# From -- ./inp_files/71818.got.cif
#   From: 2010.03.12/outbox.cif.g09.slc.cpg/sg65_36_cif.got.tgz:71818.got - 2010.04.10 20:52:16.
