data_PCOD8271376
_publ_section_title
;
Structure prediction by ZEFSAII (Michael W. Deem and Ramdas Pophale) SiO2 
 PCOD8271376
Probable space group: C M M M
;
_chemical_formula_sum "Si O2"
_cell_formula_units_Z 88
_cell_length_a 25.149846
_cell_length_b 19.846965
_cell_length_c 8.783515
_cell_angle_alpha 90.000000
_cell_angle_beta 90.000000
_cell_angle_gamma 90.000000
_cell_volume 4384.274941
_symmetry_space_group_name_H-M "C M M M"
_symmetry_group_IT_number 65
_symmetry_cell_setting 'orthorhombic'
loop_
_space_group_symop_operation_xyz
x,y,z
-x,-y,z
x,-y,-z
-x,y,-z
-x,-y,-z
x,y,-z
-x,y,z
x,-y,z
1/2+x,1/2+y,z
1/2-x,1/2-y,z
1/2+x,1/2-y,-z
1/2-x,1/2+y,-z
1/2-x,1/2-y,-z
1/2+x,1/2+y,-z
1/2-x,1/2+y,z
1/2+x,1/2-y,z
loop_
_atom_site_type_symbol
_atom_site_label
_atom_site_fract_x
_atom_site_fract_y
_atom_site_fract_z
Si Si1 0.058334 0.310186 0.670165
Si Si2 0.635409 0.925997 0.326568
Si Si3 0.590105 0.681509 0.822636
Si Si4 0.500000 0.578231 0.181220
Si Si5 0.255141 0.075427 0.172094
Si Si6 0.705659 0.696469 0.323255
O O1 0.075740 0.286426 0.500000
O O2 0.095315 0.369605 0.731298
O O3 0.056768 0.248069 0.786355
O O4 0.000000 0.341854 0.664507
O O5 0.654808 0.911590 0.500000
O O6 0.683071 0.922919 0.208499
O O7 0.608616 0.000000 0.318734
O O8 0.554235 0.617427 0.762770
O O9 0.647082 0.697594 0.747671
O O10 0.600011 0.671776 0.000000
O O11 0.500000 0.500000 0.240423
O O12 0.500000 0.579579 0.000000
O O13 0.225375 0.121332 0.293111
O O14 0.232247 0.000000 0.189709
O O15 0.246011 0.101645 0.000000
O O16 0.699209 0.711375 0.500000
O O17 0.750000 0.750000 0.256683
#
# Coordination Sequence:
#
# PCOD8271376 Si02
#       6
#    16  16  16   8  16  16
#     4  10  20  34  54  79 111 149 187 232 282 334
#     4   9  18  33  53  78 110 150 192 232 277 329
#     4  11  22  38  61  87 115 149 193 243 297 358
#     4   9  20  40  63  87 116 151 192 242 301 359
#     4  10  21  37  57  82 112 147 188 233 284 343
#     4  11  24  40  59  86 120 156 196 243 297 357
#
# _framework density 20.071735
#
# number of rings (size 3 to 8) (size 9 to 14) (size 15 to 20)
#    0.000    1.909    0.909    2.727    0.000    8.727 
#    0.000    3.636    0.000    3.818    0.000    3.818 
#    0.000    0.000    0.000    0.000    0.000    0.000 
#
# Total GULP energy -545176.484024 kJ/mol
# GULP energy per Si atom -12390.374637 kJ/mol
# Density = 2.002605 g / cm^3
# Si number density = 20.071735 Si / 1000 Ang^3
#
#
#
# Elastic Constant Matrix: (Units=GPa)
#
#
# Indices 1 2 3 4 5 6 
#
# 1 111.6991 48.8829 25.1979 0.0000 0.0000 0.0000
# 2 48.8829 108.6349 25.4229 0.0000 0.0000 0.0000
# 3 25.1979 25.4229 45.4252 0.0000 0.0000 0.0000
# 4 0.0000 0.0000 0.0000 29.0455 0.0000 0.0000
# 5 0.0000 0.0000 0.0000 0.0000 12.7339 0.0000
# 6 0.0000 0.0000 0.0000 0.0000 0.0000 39.0823
#
#
#
# Elastic Compliance Matrix: (Units=1/GPa)
#
#
# Indices 1 2 3 4 5 6 
#
# 1 0.011777 -0.004339 -0.004105 0.000000 0.000000 0.000000
# 2 -0.004339 0.012191 -0.004416 0.000000 0.000000 0.000000
# 3 -0.004105 -0.004416 0.026763 0.000000 0.000000 0.000000
# 4 0.000000 0.000000 0.000000 0.034429 0.000000 0.000000
# 5 0.000000 0.000000 0.000000 0.000000 0.078531 0.000000
# 6 0.000000 0.000000 0.000000 0.000000 0.000000 0.025587
#
#
# Mechanical properties :
#
#
# Convention : Reuss Voigt Hill
#
# Bulk Modulus (GPa) = 39.98125 51.64072 45.81099
# Shear Modulus (GPa) = 22.38797 27.25603 24.82200
#
# Velocity S-wave (km/s) = 3.34338 3.68901 3.52044
# Velocity P-wave (km/s) = 5.90480 6.62789 6.27677
#
# Compressibility (1/GPa) = 0.02501172
#
# Stress axis : x y z
#
# Youngs Moduli (GPa) = 84.90791 82.02762 37.36548
#
# Poissons Ratio (x) = 0.35591 0.15338
# Poissons Ratio (y) = 0.36841 0.16501
# Poissons Ratio (z) = 0.34852 0.36224
#
# Static dielectric constant tensor:
#      x y z
#    x 3.766250 0.000000 0.000000 
#    y 0.000000 4.080090 0.000000 
#    z 0.000000 0.000000 3.505470 
# 
# 
# High freq. dielectric constant tensor:
#      x y z
#    x 1.785780 0.000000 0.000000 
#    y 0.000000 1.789980 0.000000 
#    z 0.000000 0.000000 1.766550 
# 
# From -- ./inp_files/13962.got.cif
#   From: 2010.03.12/outbox.cif.g09.slc.cpg/sg65_7_cif.got.tgz:13962.got - 2010.04.10 20:52:16.
