data_PCOD8271030
_publ_section_title
;
Structure prediction by ZEFSAII (Michael W. Deem and Ramdas Pophale) SiO2 
 PCOD8271030
Probable space group: C M M M
;
_chemical_formula_sum "Si O2"
_cell_formula_units_Z 104
_cell_length_a 19.632507
_cell_length_b 8.889444
_cell_length_c 32.811761
_cell_angle_alpha 90.000000
_cell_angle_beta 90.000000
_cell_angle_gamma 90.000000
_cell_volume 5726.376501
_symmetry_space_group_name_H-M "C M M M"
_symmetry_group_IT_number 65
_symmetry_cell_setting 'orthorhombic'
loop_
_space_group_symop_operation_xyz
x,y,z
-x,-y,z
x,-y,-z
-x,y,-z
-x,-y,-z
x,y,-z
-x,y,z
x,-y,z
1/2+x,1/2+y,z
1/2-x,1/2-y,z
1/2+x,1/2-y,-z
1/2-x,1/2+y,-z
1/2-x,1/2-y,-z
1/2+x,1/2+y,-z
1/2-x,1/2+y,z
1/2+x,1/2-y,z
loop_
_atom_site_type_symbol
_atom_site_label
_atom_site_fract_x
_atom_site_fract_y
_atom_site_fract_z
Si Si1 0.921982 0.825634 0.690411
Si Si2 0.919044 0.169457 0.000000
Si Si3 0.678373 0.821114 0.152594
Si Si4 0.077398 0.676492 0.081329
Si Si5 0.680415 0.323564 0.453169
Si Si6 0.178702 0.178360 0.762292
Si Si7 0.420446 0.174087 0.392508
O O1 0.877345 0.778231 0.729000
O O2 0.896351 0.731341 0.651667
O O3 0.000000 0.787394 0.701192
O O4 0.912558 0.000000 0.679570
O O5 0.891227 0.249006 0.040707
O O6 0.000000 0.180471 0.000000
O O7 0.892153 0.000000 0.000000
O O8 0.750000 0.750000 0.139029
O O9 0.622251 0.773335 0.119657
O O10 0.654402 0.751368 0.195389
O O11 0.685783 0.000000 0.156708
O O12 0.080246 0.500000 0.074378
O O13 0.000000 0.730688 0.089478
O O14 0.667717 0.278308 0.500000
O O15 0.686893 0.500000 0.447267
O O16 0.750000 0.250000 0.436826
O O17 0.616998 0.263837 0.427846
O O18 0.250000 0.250000 0.748258
O O19 0.186977 0.000000 0.767637
O O20 0.500000 0.206009 0.398338
O O21 0.402052 0.000000 0.396253
#
# Coordination Sequence:
#
# PCOD8271030 Si02
#       7
#    16   8  16  16  16  16  16
#     4   9  19  36  55  75 102 136 173 213 257 304
#     4   9  17  29  48  75 102 127 159 203 250 291
#     4  10  20  34  52  73 100 133 166 203 248 297
#     4   9  18  33  52  73  98 130 166 202 244 295
#     4  10  21  37  57  80 107 140 177 218 263 310
#     4  10  20  34  53  75 100 132 168 207 252 301
#     4  10  21  36  55  80 109 141 176 215 260 309
#
# _framework density 18.161572
#
# number of rings (size 3 to 8) (size 9 to 14) (size 15 to 20)
#    0.000    2.385    0.000    3.000    0.000    6.769 
#    0.000    3.462    0.000    0.000    0.000    0.000 
#    0.000    0.000    0.000    0.000    0.000    0.000 
#
# Total GULP energy -644932.360171 kJ/mol
# GULP energy per Si atom -12402.545388 kJ/mol
# Density = 1.812024 g / cm^3
# Si number density = 18.161572 Si / 1000 Ang^3
#
#
#
# Elastic Constant Matrix: (Units=GPa)
#
#
# Indices 1 2 3 4 5 6 
#
# 1 82.7898 43.8802 79.1442 0.0000 0.0000 0.0000
# 2 43.8802 80.9307 60.4444 0.0000 0.0000 0.0000
# 3 79.1442 60.4444 135.7535 0.0000 0.0000 0.0000
# 4 0.0000 0.0000 0.0000 32.0568 0.0000 0.0000
# 5 0.0000 0.0000 0.0000 0.0000 20.0421 0.0000
# 6 0.0000 0.0000 0.0000 0.0000 0.0000 28.1269
#
#
#
# Elastic Compliance Matrix: (Units=1/GPa)
#
#
# Indices 1 2 3 4 5 6 
#
# 1 0.028356 -0.004536 -0.014512 0.000000 0.000000 0.000000
# 2 -0.004536 0.019238 -0.005921 0.000000 0.000000 0.000000
# 3 -0.014512 -0.005921 0.018463 0.000000 0.000000 0.000000
# 4 0.000000 0.000000 0.000000 0.031195 0.000000 0.000000
# 5 0.000000 0.000000 0.000000 0.000000 0.049895 0.000000
# 6 0.000000 0.000000 0.000000 0.000000 0.000000 0.035553
#
#
# Mechanical properties :
#
#
# Convention : Reuss Voigt Hill
#
# Bulk Modulus (GPa) = 62.03924 74.04573 68.04249
# Shear Modulus (GPa) = 21.00749 23.77883 22.39316
#
# Velocity S-wave (km/s) = 3.40472 3.62234 3.51521
# Velocity P-wave (km/s) = 7.04911 7.63899 7.34997
#
# Compressibility (1/GPa) = 0.01611883
#
# Stress axis : x y z
#
# Youngs Moduli (GPa) = 35.26637 51.98028 54.16232
#
# Poissons Ratio (x) = 0.23578 0.78598
# Poissons Ratio (y) = 0.15997 0.32071
# Poissons Ratio (z) = 0.51177 0.30779
#
# Static dielectric constant tensor:
#      x y z
#    x 3.302320 0.000000 0.000000 
#    y 0.000000 3.429930 0.000000 
#    z 0.000000 0.000000 3.430910 
# 
# 
# High freq. dielectric constant tensor:
#      x y z
#    x 1.693150 0.000000 0.000000 
#    y 0.000000 1.713960 0.000000 
#    z 0.000000 0.000000 1.710150 
# 
# From -- ./inp_files/78162.got.cif
#   From: 2010.03.12/outbox.cif.g09.slc.cpg/sg65_40_cif.got.tgz:78162.got - 2010.04.10 20:52:16.
