data_PCOD8271927
_publ_section_title
;
Structure prediction by ZEFSAII (Michael W. Deem and Ramdas Pophale) SiO2 
 PCOD8271927
Probable space group: C M M M
;
_chemical_formula_sum "Si O2"
_cell_formula_units_Z 56
_cell_length_a 14.223279
_cell_length_b 9.985648
_cell_length_c 21.264890
_cell_angle_alpha 90.000000
_cell_angle_beta 90.000000
_cell_angle_gamma 90.000000
_cell_volume 3020.223779
_symmetry_space_group_name_H-M "C M M M"
_symmetry_group_IT_number 65
_symmetry_cell_setting 'orthorhombic'
loop_
_space_group_symop_operation_xyz
x,y,z
-x,-y,z
x,-y,-z
-x,y,-z
-x,-y,-z
x,y,-z
-x,y,z
x,-y,z
1/2+x,1/2+y,z
1/2-x,1/2-y,z
1/2+x,1/2-y,-z
1/2-x,1/2+y,-z
1/2-x,1/2-y,-z
1/2+x,1/2+y,-z
1/2-x,1/2+y,z
1/2+x,1/2-y,z
loop_
_atom_site_type_symbol
_atom_site_label
_atom_site_fract_x
_atom_site_fract_y
_atom_site_fract_z
Si Si1 0.812698 0.000000 0.070692
Si Si2 0.342798 0.340490 0.500000
Si Si3 0.146017 0.769036 0.833993
Si Si4 0.500000 0.348895 0.266373
Si Si5 0.101519 0.500000 0.102993
Si Si6 0.000000 0.841508 0.596235
O O1 0.851853 0.869727 0.106315
O O2 0.698261 0.000000 0.063282
O O3 0.853624 0.000000 0.000000
O O4 0.318375 0.500000 0.500000
O O5 0.250000 0.250000 0.500000
O O6 0.404693 0.297861 0.560690
O O7 0.250000 0.750000 0.808238
O O8 0.099193 0.630584 0.853692
O O9 0.091775 0.824379 0.774691
O O10 0.500000 0.500000 0.287520
O O11 0.500000 0.272865 0.333741
O O12 0.000000 0.500000 0.065446
O O13 0.000000 0.000000 0.596968
#
# Coordination Sequence:
#
# PCOD8271927 Si02
#       6
#     8   8  16   8   8   8
#     4  10  22  40  56  76 105 139 184 232 274 335
#     4   9  17  35  60  84 118 151 185 223 266 312
#     4  10  21  36  57  79 107 142 178 229 281 327
#     4  11  19  35  60  82 107 146 194 222 262 325
#     4  10  20  35  57  77 108 138 175 224 291 332
#     4   8  18  33  55  85 113 150 189 224 257 318
#
# _framework density 18.541671999999998
#
# number of rings (size 3 to 8) (size 9 to 14) (size 15 to 20)
#    0.000    2.286    2.857    0.857    0.000    6.571 
#    0.000    2.857    6.286    0.000    0.000    0.000 
#    0.000    0.000    0.000    0.000    0.000    0.000 
#
# Total GULP energy -346896.509454 kJ/mol
# GULP energy per Si atom -12389.161052 kJ/mol
# Density = 1.849947 g / cm^3
# Si number density = 18.541672 Si / 1000 Ang^3
#
#
#
# Elastic Constant Matrix: (Units=GPa)
#
#
# Indices 1 2 3 4 5 6 
#
# 1 135.9976 43.9926 72.0410 0.0000 0.0000 0.0000
# 2 43.9926 92.6581 37.1462 0.0000 0.0000 0.0000
# 3 72.0410 37.1462 167.4635 0.0000 0.0000 0.0000
# 4 0.0000 0.0000 0.0000 11.7581 0.0000 0.0000
# 5 0.0000 0.0000 0.0000 0.0000 -2.2372 0.0000
# 6 0.0000 0.0000 0.0000 0.0000 0.0000 141.6411
#
#
#
# Elastic Compliance Matrix: (Units=1/GPa)
#
#
# Indices 1 2 3 4 5 6 
#
# 1 0.010448 -0.003467 -0.003726 0.000000 0.000000 0.000000
# 2 -0.003467 0.012996 -0.001391 0.000000 0.000000 0.000000
# 3 -0.003726 -0.001391 0.007883 0.000000 0.000000 0.000000
# 4 0.000000 0.000000 0.000000 0.085048 0.000000 0.000000
# 5 0.000000 0.000000 0.000000 0.000000 -0.446996 0.000000
# 6 0.000000 0.000000 0.000000 0.000000 0.000000 0.007060
#
#
# Mechanical properties :
#
#
# Convention : Reuss Voigt Hill
#
# Bulk Modulus (GPa) = 70.62529 78.05319 74.33924
# Shear Modulus (GPa) = -16.57422 46.42837 14.92707
#
# Velocity S-wave (km/s) = -2.99304 5.00943 2.84043
# Velocity P-wave (km/s) = 5.12136 8.69751 7.13705
#
# Compressibility (1/GPa) = 0.01415923
#
# Stress axis : x y z
#
# Youngs Moduli (GPa) = 95.71084 76.94549 126.85865
#
# Poissons Ratio (x) = 0.26677 0.47263
# Poissons Ratio (y) = 0.33183 0.17650
# Poissons Ratio (z) = 0.35658 0.10705
#
# Static dielectric constant tensor:
#      x y z
#    x 3.563700 0.000000 0.000000 
#    y 0.000000 3.372320 0.000000 
#    z 0.000000 0.000000 3.405090 
# 
# 
# High freq. dielectric constant tensor:
#      x y z
#    x 1.731290 0.000000 0.000000 
#    y 0.000000 1.709990 0.000000 
#    z 0.000000 0.000000 1.705840 
# 
# From -- ./inp_files/69486.got.cif
#   From: 2010.03.12/outbox.cif.g09.slc.cpg/sg65_35_cif.got.tgz:69486.got - 2010.04.10 20:52:16.
