data_PCOD8271139
_publ_section_title
;
Structure prediction by ZEFSAII (Michael W. Deem and Ramdas Pophale) SiO2 
 PCOD8271139
Probable space group: C M M M
;
_chemical_formula_sum "Si O2"
_cell_formula_units_Z 112
_cell_length_a 28.521988
_cell_length_b 15.420391
_cell_length_c 14.377453
_cell_angle_alpha 90.000000
_cell_angle_beta 90.000000
_cell_angle_gamma 90.000000
_cell_volume 6323.494355
_symmetry_space_group_name_H-M "C M M M"
_symmetry_group_IT_number 65
_symmetry_cell_setting 'orthorhombic'
loop_
_space_group_symop_operation_xyz
x,y,z
-x,-y,z
x,-y,-z
-x,y,-z
-x,-y,-z
x,y,-z
-x,y,z
x,-y,z
1/2+x,1/2+y,z
1/2-x,1/2-y,z
1/2+x,1/2-y,-z
1/2-x,1/2+y,-z
1/2-x,1/2-y,-z
1/2+x,1/2+y,-z
1/2-x,1/2+y,z
1/2+x,1/2-y,z
loop_
_atom_site_type_symbol
_atom_site_label
_atom_site_fract_x
_atom_site_fract_y
_atom_site_fract_z
Si Si1 0.948022 0.601299 0.274447
Si Si2 0.148338 0.775615 0.893848
Si Si3 0.260129 0.149519 0.394937
Si Si4 0.194195 0.596745 0.107292
Si Si5 0.137094 0.602853 0.396118
Si Si6 0.212455 0.902445 0.783740
Si Si7 0.051048 0.719561 0.104070
O O1 0.940308 0.500000 0.265354
O O2 0.906701 0.641750 0.338255
O O3 0.943714 0.638581 0.171726
O O4 0.000000 0.621945 0.316788
O O5 0.157053 0.673057 0.872818
O O6 0.172997 0.836445 0.818703
O O7 0.092479 0.789604 0.879871
O O8 0.163943 0.798704 0.000000
O O9 0.255404 0.110710 0.500000
O O10 0.250000 0.250000 0.396321
O O11 0.312653 0.132709 0.355052
O O12 0.222195 0.105366 0.326832
O O13 0.175485 0.500000 0.137703
O O14 0.240477 0.622269 0.162888
O O15 0.208430 0.594644 0.000000
O O16 0.132031 0.640255 0.500000
O O17 0.135078 0.500000 0.396013
O O18 0.195827 0.000000 0.806061
O O19 0.000000 0.765150 0.117891
O O20 0.055854 0.681287 0.000000
#
# Coordination Sequence:
#
# PCOD8271139 Si02
#       7
#    16  16  16  16  16  16  16
#     4   9  18  30  47  73 100 130 169 208 246 294
#     4  10  20  34  53  74 100 133 169 211 256 305
#     4  10  21  35  51  73 100 134 173 210 250 303
#     4   9  18  31  47  72 104 135 168 204 247 301
#     4   9  18  32  49  69  98 134 167 202 246 294
#     4  11  22  33  50  74 100 135 172 211 255 296
#     4   9  19  34  50  70  97 130 164 202 253 306
#
# _framework density 17.711727
#
# number of rings (size 3 to 8) (size 9 to 14) (size 15 to 20)
#    0.000    2.429    0.000    2.143    4.000    4.000 
#    0.000    4.286    0.000    0.429    0.000    2.000 
#    0.000    0.000    0.000    1.286    0.000    0.000 
#
# Total GULP energy -694047.096328 kJ/mol
# GULP energy per Si atom -12393.698149 kJ/mol
# Density = 1.767141 g / cm^3
# Si number density = 17.711727 Si / 1000 Ang^3
#
#
#
# Elastic Constant Matrix: (Units=GPa)
#
#
# Indices 1 2 3 4 5 6 
#
# 1 127.4163 41.7120 63.5626 0.0000 0.0000 0.0000
# 2 41.7120 55.8290 27.4992 0.0000 0.0000 0.0000
# 3 63.5626 27.4992 80.3355 0.0000 0.0000 0.0000
# 4 0.0000 0.0000 0.0000 13.2569 0.0000 0.0000
# 5 0.0000 0.0000 0.0000 0.0000 27.4996 0.0000
# 6 0.0000 0.0000 0.0000 0.0000 0.0000 19.5306
#
#
#
# Elastic Compliance Matrix: (Units=1/GPa)
#
#
# Indices 1 2 3 4 5 6 
#
# 1 0.014589 -0.006272 -0.009396 0.000000 0.000000 0.000000
# 2 -0.006272 0.024241 -0.003335 0.000000 0.000000 0.000000
# 3 -0.009396 -0.003335 0.021024 0.000000 0.000000 0.000000
# 4 0.000000 0.000000 0.000000 0.075433 0.000000 0.000000
# 5 0.000000 0.000000 0.000000 0.000000 0.036364 0.000000
# 6 0.000000 0.000000 0.000000 0.000000 0.000000 0.051202
#
#
# Mechanical properties :
#
#
# Convention : Reuss Voigt Hill
#
# Bulk Modulus (GPa) = 45.77311 58.79205 52.28258
# Shear Modulus (GPa) = 18.64698 20.77786 19.71242
#
# Velocity S-wave (km/s) = 3.24821 3.42879 3.33972
# Velocity P-wave (km/s) = 6.32197 6.99581 6.66741
#
# Compressibility (1/GPa) = 0.02184689
#
# Stress axis : x y z
#
# Youngs Moduli (GPa) = 68.54635 41.25318 47.56530
#
# Poissons Ratio (x) = 0.25873 0.44692
# Poissons Ratio (y) = 0.42990 0.15865
# Poissons Ratio (z) = 0.64406 0.13760
#
# Static dielectric constant tensor:
#      x y z
#    x 3.540400 0.000000 0.000000 
#    y 0.000000 2.979360 0.000000 
#    z 0.000000 0.000000 3.554300 
# 
# 
# High freq. dielectric constant tensor:
#      x y z
#    x 1.682910 0.000000 0.000000 
#    y 0.000000 1.644900 0.000000 
#    z 0.000000 0.000000 1.693680 
# 
# From -- ./inp_files/41134.got.cif
#   From: 2010.03.12/outbox.cif.g09.slc.cpg/sg65_21_cif.got.tgz:41134.got - 2010.04.10 20:52:16.
