data_PCOD8271274
_publ_section_title
;
Structure prediction by ZEFSAII (Michael W. Deem and Ramdas Pophale) SiO2 
 PCOD8271274
Probable space group: C M M M
;
_chemical_formula_sum "Si O2"
_cell_formula_units_Z 96
_cell_length_a 8.709190
_cell_length_b 23.671505
_cell_length_c 25.190572
_cell_angle_alpha 90.000000
_cell_angle_beta 90.000000
_cell_angle_gamma 90.000000
_cell_volume 5193.279120
_symmetry_space_group_name_H-M "C M M M"
_symmetry_group_IT_number 65
_symmetry_cell_setting 'orthorhombic'
loop_
_space_group_symop_operation_xyz
x,y,z
-x,-y,z
x,-y,-z
-x,y,-z
-x,-y,-z
x,y,-z
-x,y,z
x,-y,z
1/2+x,1/2+y,z
1/2-x,1/2-y,z
1/2+x,1/2-y,-z
1/2-x,1/2+y,-z
1/2-x,1/2-y,-z
1/2+x,1/2+y,-z
1/2-x,1/2+y,z
1/2+x,1/2-y,z
loop_
_atom_site_type_symbol
_atom_site_label
_atom_site_fract_x
_atom_site_fract_y
_atom_site_fract_z
Si Si1 0.681760 0.617418 0.842885
Si Si2 0.179345 0.435847 0.439459
Si Si3 0.678792 0.000000 0.174659
Si Si4 0.681615 0.811913 0.746549
Si Si5 0.323435 0.383897 0.657372
Si Si6 0.319218 0.690645 0.058966
Si Si7 0.173872 0.000000 0.283544
O O1 0.500000 0.619446 0.834423
O O2 0.739124 0.554074 0.850138
O O3 0.757707 0.646601 0.792117
O O4 0.736257 0.646264 0.897392
O O5 0.213366 0.418565 0.500000
O O6 0.238443 0.500000 0.429261
O O7 0.265618 0.389788 0.403047
O O8 0.000000 0.432894 0.426820
O O9 0.700840 0.000000 0.237648
O O10 0.500000 0.000000 0.160643
O O11 0.500000 0.808114 0.750308
O O12 0.750000 0.750000 0.755162
O O13 0.729390 0.836406 0.689212
O O14 0.500000 0.365355 0.658189
O O15 0.295862 0.445052 0.682140
O O16 0.500000 0.696922 0.059557
O O17 0.250000 0.750000 0.076027
O O18 0.261956 0.672376 0.000000
O O19 0.000000 0.000000 0.260209
#
# Coordination Sequence:
#
# PCOD8271274 Si02
#       7
#    16  16   8  16  16  16   8
#     4  11  22  38  59  83 115 149 184 230 279 332
#     4   9  18  32  51  78 113 150 187 228 274 325
#     4  12  24  36  55  82 113 151 190 226 275 338
#     4  12  25  40  58  82 112 146 186 230 278 334
#     4  11  21  35  56  82 113 148 185 229 278 331
#     4   9  19  36  59  85 111 144 186 231 280 330
#     4  10  20  34  53  78 113 149 184 224 275 332
#
# _framework density 18.485430999999998
#
# number of rings (size 3 to 8) (size 9 to 14) (size 15 to 20)
#    0.000    1.500    2.500    4.250    0.000    3.667 
#    0.000    1.250    0.000    3.000    0.000    0.000 
#    0.000    0.000    0.000    0.000    0.000    0.000 
#
# Total GULP energy -595275.393163 kJ/mol
# GULP energy per Si atom -12401.570691 kJ/mol
# Density = 1.844336 g / cm^3
# Si number density = 18.485431 Si / 1000 Ang^3
#
#
#
# Elastic Constant Matrix: (Units=GPa)
#
#
# Indices 1 2 3 4 5 6 
#
# 1 91.0096 40.2738 43.7392 0.0000 0.0000 0.0000
# 2 40.2738 112.8219 57.2672 0.0000 0.0000 0.0000
# 3 43.7392 57.2672 118.3576 0.0000 0.0000 0.0000
# 4 0.0000 0.0000 0.0000 26.1130 0.0000 0.0000
# 5 0.0000 0.0000 0.0000 0.0000 25.3319 0.0000
# 6 0.0000 0.0000 0.0000 0.0000 0.0000 30.0378
#
#
#
# Elastic Compliance Matrix: (Units=1/GPa)
#
#
# Indices 1 2 3 4 5 6 
#
# 1 0.014173 -0.003182 -0.003698 0.000000 0.000000 0.000000
# 2 -0.003182 0.012464 -0.004854 0.000000 0.000000 0.000000
# 3 -0.003698 -0.004854 0.012164 0.000000 0.000000 0.000000
# 4 0.000000 0.000000 0.000000 0.038295 0.000000 0.000000
# 5 0.000000 0.000000 0.000000 0.000000 0.039476 0.000000
# 6 0.000000 0.000000 0.000000 0.000000 0.000000 0.033291
#
#
# Mechanical properties :
#
#
# Convention : Reuss Voigt Hill
#
# Bulk Modulus (GPa) = 65.22424 67.19439 66.20932
# Shear Modulus (GPa) = 28.01998 28.35712 28.18855
#
# Velocity S-wave (km/s) = 3.89753 3.92091 3.90924
# Velocity P-wave (km/s) = 7.45755 7.54499 7.50140
#
# Compressibility (1/GPa) = 0.01533172
#
# Stress axis : x y z
#
# Youngs Moduli (GPa) = 70.55472 80.23358 82.20704
#
# Poissons Ratio (x) = 0.25533 0.30400
# Poissons Ratio (y) = 0.22453 0.39907
# Poissons Ratio (z) = 0.26091 0.38949
#
# Static dielectric constant tensor:
#      x y z
#    x 3.415380 0.000000 0.000000 
#    y 0.000000 3.385000 0.000000 
#    z 0.000000 0.000000 3.597710 
# 
# 
# High freq. dielectric constant tensor:
#      x y z
#    x 1.722590 0.000000 0.000000 
#    y 0.000000 1.704840 0.000000 
#    z 0.000000 0.000000 1.720000 
# 
# From -- ./inp_files/67895.got.cif
#   From: 2010.03.12/outbox.cif.g09.slc.cpg/sg65_34_cif.got.tgz:67895.got - 2010.04.10 20:52:16.
