data_PCOD8271516
_publ_section_title
;
Structure prediction by ZEFSAII (Michael W. Deem and Ramdas Pophale) SiO2 
 PCOD8271516
Probable space group: C M M M
;
_chemical_formula_sum "Si O2"
_cell_formula_units_Z 64
_cell_length_a 9.865563
_cell_length_b 25.088357
_cell_length_c 15.411494
_cell_angle_alpha 90.000000
_cell_angle_beta 90.000000
_cell_angle_gamma 90.000000
_cell_volume 3814.510694
_symmetry_space_group_name_H-M "C M M M"
_symmetry_group_IT_number 65
_symmetry_cell_setting 'orthorhombic'
loop_
_space_group_symop_operation_xyz
x,y,z
-x,-y,z
x,-y,-z
-x,y,-z
-x,-y,-z
x,y,-z
-x,y,z
x,-y,z
1/2+x,1/2+y,z
1/2-x,1/2-y,z
1/2+x,1/2-y,-z
1/2-x,1/2+y,-z
1/2-x,1/2-y,-z
1/2+x,1/2+y,-z
1/2-x,1/2+y,z
1/2+x,1/2-y,z
loop_
_atom_site_type_symbol
_atom_site_label
_atom_site_fract_x
_atom_site_fract_y
_atom_site_fract_z
Si Si1 0.350124 0.797681 0.000000
Si Si2 0.660048 0.802106 0.500000
Si Si3 0.500000 0.562590 0.603422
Si Si4 0.840444 0.696477 0.189083
Si Si5 0.500000 0.938597 0.404014
Si Si6 0.763446 0.376337 0.342225
O O1 0.250000 0.750000 0.000000
O O2 0.329542 0.828814 0.091258
O O3 0.500000 0.772596 0.000000
O O4 0.500000 0.788102 0.500000
O O5 0.750000 0.750000 0.500000
O O6 0.702678 0.833106 0.585602
O O7 0.500000 0.500000 0.629368
O O8 0.500000 0.568330 0.500000
O O9 0.622950 0.594286 0.645079
O O10 0.750000 0.750000 0.197951
O O11 0.773341 0.651986 0.249535
O O12 0.000000 0.707584 0.213015
O O13 0.500000 0.909693 0.500000
O O14 0.371011 0.923623 0.347742
O O15 0.500000 0.000000 0.422455
#
# Coordination Sequence:
#
# PCOD8271516 Si02
#       6
#     8   8   8  16   8  16
#     4   8  16  32  52  78 109 140 178 220 257 306
#     4  12  24  36  51  76 110 146 177 208 259 322
#     4  11  24  40  58  79 104 139 183 234 279 313
#     4  10  20  34  55  82 113 146 179 216 262 318
#     4  11  20  36  58  75  98 135 179 234 273 309
#     4  12  21  37  53  79 108 139 179 219 269 325
#
# _framework density 16.778037999999999
#
# number of rings (size 3 to 8) (size 9 to 14) (size 15 to 20)
#    0.000    1.250    5.000    1.500    3.500    2.000 
#    0.000    0.000    0.000    0.000    0.000    5.250 
#    0.000    0.000    0.000    0.000    0.000    0.000 
#
# Total GULP energy -396483.678608 kJ/mol
# GULP energy per Si atom -12390.114957 kJ/mol
# Density = 1.673985 g / cm^3
# Si number density = 16.778038 Si / 1000 Ang^3
#
#
#
# Elastic Constant Matrix: (Units=GPa)
#
#
# Indices 1 2 3 4 5 6 
#
# 1 154.2313 63.9125 55.9607 0.0000 0.0000 0.0000
# 2 63.9125 87.1986 57.3682 0.0000 0.0000 0.0000
# 3 55.9607 57.3682 136.7313 0.0000 0.0000 0.0000
# 4 0.0000 0.0000 0.0000 18.2051 0.0000 0.0000
# 5 0.0000 0.0000 0.0000 0.0000 22.8515 0.0000
# 6 0.0000 0.0000 0.0000 0.0000 0.0000 33.3835
#
#
#
# Elastic Compliance Matrix: (Units=1/GPa)
#
#
# Indices 1 2 3 4 5 6 
#
# 1 0.009485 -0.006075 -0.001333 0.000000 0.000000 0.000000
# 2 -0.006075 0.019732 -0.005792 0.000000 0.000000 0.000000
# 3 -0.001333 -0.005792 0.010290 0.000000 0.000000 0.000000
# 4 0.000000 0.000000 0.000000 0.054930 0.000000 0.000000
# 5 0.000000 0.000000 0.000000 0.000000 0.043761 0.000000
# 6 0.000000 0.000000 0.000000 0.000000 0.000000 0.029955
#
#
# Mechanical properties :
#
#
# Convention : Reuss Voigt Hill
#
# Bulk Modulus (GPa) = 76.30618 81.40489 78.85553
# Shear Modulus (GPa) = 25.13567 28.28269 26.70918
#
# Velocity S-wave (km/s) = 3.87477 4.11018 3.99421
# Velocity P-wave (km/s) = 8.09919 8.43498 8.26879
#
# Compressibility (1/GPa) = 0.01310510
#
# Stress axis : x y z
#
# Youngs Moduli (GPa) = 105.43104 50.68020 97.18621
#
# Poissons Ratio (x) = 0.30788 0.12956
# Poissons Ratio (y) = 0.64049 0.56294
# Poissons Ratio (z) = 0.14055 0.29356
#
# Static dielectric constant tensor:
#      x y z
#    x 3.687210 0.000000 0.000000 
#    y 0.000000 3.069910 0.000000 
#    z 0.000000 0.000000 3.038650 
# 
# 
# High freq. dielectric constant tensor:
#      x y z
#    x 1.669290 0.000000 0.000000 
#    y 0.000000 1.623820 0.000000 
#    z 0.000000 0.000000 1.646190 
# 
# From -- ./inp_files/36090.got.cif
#   From: 2010.03.12/outbox.cif.g09.slc.cpg/sg65_19_cif.got.tgz:36090.got - 2010.04.10 20:52:16.
