data_PCOD8271597
_publ_section_title
;
Structure prediction by ZEFSAII (Michael W. Deem and Ramdas Pophale) SiO2 
 PCOD8271597
Probable space group: C M M M
;
_chemical_formula_sum "Si O2"
_cell_formula_units_Z 104
_cell_length_a 9.253108
_cell_length_b 28.007974
_cell_length_c 25.901695
_cell_angle_alpha 90.000000
_cell_angle_beta 90.000000
_cell_angle_gamma 90.000000
_cell_volume 6712.704212
_symmetry_space_group_name_H-M "C M M M"
_symmetry_group_IT_number 65
_symmetry_cell_setting 'orthorhombic'
loop_
_space_group_symop_operation_xyz
x,y,z
-x,-y,z
x,-y,-z
-x,y,-z
-x,-y,-z
x,y,-z
-x,y,z
x,-y,z
1/2+x,1/2+y,z
1/2-x,1/2-y,z
1/2+x,1/2-y,-z
1/2-x,1/2+y,-z
1/2-x,1/2-y,-z
1/2+x,1/2+y,-z
1/2-x,1/2+y,z
1/2+x,1/2-y,z
loop_
_atom_site_type_symbol
_atom_site_label
_atom_site_fract_x
_atom_site_fract_y
_atom_site_fract_z
Si Si1 0.662391 0.056945 0.153366
Si Si2 0.837621 0.943225 0.056882
Si Si3 0.838331 0.297105 0.500000
Si Si4 0.167567 0.945219 0.252571
Si Si5 0.170328 0.111589 0.354883
Si Si6 0.664219 0.056386 0.558765
Si Si7 0.330599 0.800510 0.387730
O O1 0.500000 0.076422 0.155421
O O2 0.735728 0.078173 0.101564
O O3 0.745236 0.075756 0.203931
O O4 0.667582 0.000000 0.152045
O O5 0.000000 0.924368 0.066075
O O6 0.836872 0.000000 0.059745
O O7 0.782379 0.926852 0.000000
O O8 0.750000 0.250000 0.500000
O O9 0.809801 0.324110 0.445663
O O10 0.000000 0.278063 0.500000
O O11 0.211246 0.916236 0.303099
O O12 0.000000 0.939953 0.239022
O O13 0.209319 0.000000 0.263248
O O14 0.222560 0.081315 0.403704
O O15 0.253147 0.162092 0.350104
O O16 0.000000 0.120375 0.360230
O O17 0.694565 0.073062 0.500000
O O18 0.500000 0.070639 0.574158
O O19 0.685446 0.000000 0.563402
O O20 0.500000 0.794397 0.373927
O O21 0.250000 0.750000 0.382927
#
# Coordination Sequence:
#
# PCOD8271597 Si02
#       7
#    16  16   8  16  16  16  16
#     4   9  16  24  36  55  77 102 136 179 221 254
#     4   8  13  21  33  49  71 102 138 172 209 254
#     4   8  16  30  48  66  83 104 127 154 192 241
#     4   9  18  32  46  59  81 113 147 182 217 255
#     4  11  22  33  48  70  90 112 143 178 217 261
#     4   9  19  35  51  66  87 115 144 175 214 259
#     4  10  20  35  52  70  91 114 138 169 209 258
#
# _framework density 15.493012
#
# number of rings (size 3 to 8) (size 9 to 14) (size 15 to 20)
#    0.000    2.769    0.000    2.769    1.077    5.231 
#    0.000    3.846    0.000    0.000    0.000    0.000 
#    0.000    0.000    0.000    0.000    0.000    0.769 
#
# Total GULP energy -644487.558924 kJ/mol
# GULP energy per Si atom -12393.991518 kJ/mol
# Density = 1.545775 g / cm^3
# Si number density = 15.493012 Si / 1000 Ang^3
#
#
#
# Elastic Constant Matrix: (Units=GPa)
#
#
# Indices 1 2 3 4 5 6 
#
# 1 99.5560 34.9926 69.5522 0.0000 0.0000 0.0000
# 2 34.9926 39.6252 41.0088 0.0000 0.0000 0.0000
# 3 69.5522 41.0088 122.2332 0.0000 0.0000 0.0000
# 4 0.0000 0.0000 0.0000 4.7055 0.0000 0.0000
# 5 0.0000 0.0000 0.0000 0.0000 22.2792 0.0000
# 6 0.0000 0.0000 0.0000 0.0000 0.0000 20.3031
#
#
#
# Elastic Compliance Matrix: (Units=1/GPa)
#
#
# Indices 1 2 3 4 5 6 
#
# 1 0.018273 -0.008236 -0.007635 0.000000 0.000000 0.000000
# 2 -0.008236 0.042371 -0.009529 0.000000 0.000000 0.000000
# 3 -0.007635 -0.009529 0.015722 0.000000 0.000000 0.000000
# 4 0.000000 0.000000 0.000000 0.212517 0.000000 0.000000
# 5 0.000000 0.000000 0.000000 0.000000 0.044885 0.000000
# 6 0.000000 0.000000 0.000000 0.000000 0.000000 0.049254
#
#
# Mechanical properties :
#
#
# Convention : Reuss Voigt Hill
#
# Bulk Modulus (GPa) = 39.11177 61.39126 50.25152
# Shear Modulus (GPa) = 11.30343 17.18161 14.24252
#
# Velocity S-wave (km/s) = 2.70401 3.33376 3.03526
# Velocity P-wave (km/s) = 5.92018 7.38443 6.69247
#
# Compressibility (1/GPa) = 0.02556775
#
# Stress axis : x y z
#
# Youngs Moduli (GPa) = 54.72579 23.60094 63.60411
#
# Poissons Ratio (x) = 0.19437 0.48559
# Poissons Ratio (y) = 0.45070 0.60610
# Poissons Ratio (z) = 0.41781 0.22490
#
# Static dielectric constant tensor:
#      x y z
#    x 3.075760 0.000000 0.000000 
#    y 0.000000 2.536400 0.000000 
#    z 0.000000 0.000000 3.211650 
# 
# 
# High freq. dielectric constant tensor:
#      x y z
#    x 1.604900 0.000000 0.000000 
#    y 0.000000 1.541260 0.000000 
#    z 0.000000 0.000000 1.590150 
# 
# From -- ./inp_files/73756.got.cif
#   From: 2010.03.12/outbox.cif.g09.slc.cpg/sg65_37_cif.got.tgz:73756.got - 2010.04.10 20:52:16.
