data_PCOD8271749
_publ_section_title
;
Structure prediction by ZEFSAII (Michael W. Deem and Ramdas Pophale) SiO2 
 PCOD8271749
Probable space group: C M M M
;
_chemical_formula_sum "Si O2"
_cell_formula_units_Z 88
_cell_length_a 8.766385
_cell_length_b 18.202171
_cell_length_c 28.729861
_cell_angle_alpha 90.000000
_cell_angle_beta 90.000000
_cell_angle_gamma 90.000000
_cell_volume 4584.344592
_symmetry_space_group_name_H-M "C M M M"
_symmetry_group_IT_number 65
_symmetry_cell_setting 'orthorhombic'
loop_
_space_group_symop_operation_xyz
x,y,z
-x,-y,z
x,-y,-z
-x,y,-z
-x,-y,-z
x,y,-z
-x,y,z
x,-y,z
1/2+x,1/2+y,z
1/2-x,1/2-y,z
1/2+x,1/2-y,-z
1/2-x,1/2+y,-z
1/2-x,1/2-y,-z
1/2+x,1/2+y,-z
1/2-x,1/2+y,z
1/2+x,1/2-y,z
loop_
_atom_site_type_symbol
_atom_site_label
_atom_site_fract_x
_atom_site_fract_y
_atom_site_fract_z
Si Si1 0.172012 0.412668 0.179997
Si Si2 0.826476 0.087205 0.726014
Si Si3 0.678607 0.670027 0.449597
Si Si4 0.323640 0.413377 0.914943
Si Si5 0.179464 0.329961 0.000000
Si Si6 0.179650 0.669483 0.642166
O O1 0.170165 0.500000 0.180892
O O2 0.259255 0.382619 0.225400
O O3 0.261777 0.384846 0.134592
O O4 0.000000 0.381453 0.179338
O O5 0.724871 0.118391 0.684747
O O6 0.000000 0.114832 0.721223
O O7 0.817104 0.000000 0.724141
O O8 0.707362 0.630344 0.500000
O O9 0.500000 0.676224 0.439396
O O10 0.750000 0.750000 0.452459
O O11 0.758312 0.630408 0.405532
O O12 0.500000 0.391838 0.919267
O O13 0.299017 0.500000 0.920481
O O14 0.229560 0.373766 0.954641
O O15 0.250000 0.250000 0.000000
O O16 0.000000 0.322269 0.000000
O O17 0.250000 0.750000 0.648710
O O18 0.000000 0.676455 0.639442
#
# Coordination Sequence:
#
# PCOD8271749 Si02
#       6
#    16  16  16  16   8  16
#     4   9  17  31  53  81 109 137 174 217 258 303
#     4  10  20  35  55  78 106 140 176 214 260 313
#     4   9  16  27  45  69  97 129 167 211 258 307
#     4  10  20  36  59  85 111 140 177 219 261 306
#     4  12  25  40  57  79 111 147 181 218 265 316
#     4  11  21  33  51  75 105 137 172 215 261 310
#
# _framework density 19.195765000000002
#
# number of rings (size 3 to 8) (size 9 to 14) (size 15 to 20)
#    0.000    2.000    0.000    6.000    0.000    6.545 
#    0.000    0.909    0.000    0.545    0.000    3.818 
#    0.000    0.000    0.000    0.000    0.000    0.000 
#
# Total GULP energy -545494.971214 kJ/mol
# GULP energy per Si atom -12397.612982 kJ/mol
# Density = 1.915207 g / cm^3
# Si number density = 19.195765 Si / 1000 Ang^3
#
#
#
# Elastic Constant Matrix: (Units=GPa)
#
#
# Indices 1 2 3 4 5 6 
#
# 1 175.6374 32.0435 81.2461 0.0000 0.0000 0.0000
# 2 32.0435 24.0785 32.8863 0.0000 0.0000 0.0000
# 3 81.2461 32.8863 191.6090 0.0000 0.0000 0.0000
# 4 0.0000 0.0000 0.0000 18.8537 0.0000 0.0000
# 5 0.0000 0.0000 0.0000 0.0000 39.3151 0.0000
# 6 0.0000 0.0000 0.0000 0.0000 0.0000 23.8640
#
#
#
# Elastic Compliance Matrix: (Units=1/GPa)
#
#
# Indices 1 2 3 4 5 6 
#
# 1 0.008103 -0.007955 -0.002070 0.000000 0.000000 0.000000
# 2 -0.007955 0.062058 -0.007278 0.000000 0.000000 0.000000
# 3 -0.002070 -0.007278 0.007346 0.000000 0.000000 0.000000
# 4 0.000000 0.000000 0.000000 0.053040 0.000000 0.000000
# 5 0.000000 0.000000 0.000000 0.000000 0.025435 0.000000
# 6 0.000000 0.000000 0.000000 0.000000 0.000000 0.041904
#
#
# Mechanical properties :
#
#
# Convention : Reuss Voigt Hill
#
# Bulk Modulus (GPa) = 23.31034 75.96405 49.63720
# Shear Modulus (GPa) = 20.25990 32.74983 26.50486
#
# Velocity S-wave (km/s) = 3.25227 4.13497 3.71990
# Velocity P-wave (km/s) = 5.12571 7.90295 6.66069
#
# Compressibility (1/GPa) = 0.04289942
#
# Stress axis : x y z
#
# Youngs Moduli (GPa) = 123.41736 16.11398 136.12988
#
# Poissons Ratio (x) = 0.12819 0.28183
# Poissons Ratio (y) = 0.98182 0.99074
# Poissons Ratio (z) = 0.25551 0.11728
#
# Static dielectric constant tensor:
#      x y z
#    x 3.772270 0.000000 0.000000 
#    y 0.000000 2.861790 0.000000 
#    z 0.000000 0.000000 4.178490 
# 
# 
# High freq. dielectric constant tensor:
#      x y z
#    x 1.768880 0.000000 0.000000 
#    y 0.000000 1.688430 0.000000 
#    z 0.000000 0.000000 1.775280 
# 
# From -- ./inp_files/76439.got.cif
#   From: 2010.03.12/outbox.cif.g09.slc.cpg/sg65_39_cif.got.tgz:76439.got - 2010.04.10 20:52:16.
