data_PCOD8271485
_publ_section_title
;
Structure prediction by ZEFSAII (Michael W. Deem and Ramdas Pophale) SiO2 
 PCOD8271485
Probable space group: C M M M
;
_chemical_formula_sum "Si O2"
_cell_formula_units_Z 104
_cell_length_a 9.190554
_cell_length_b 26.445039
_cell_length_c 24.795137
_cell_angle_alpha 90.000000
_cell_angle_beta 90.000000
_cell_angle_gamma 90.000000
_cell_volume 6026.323137
_symmetry_space_group_name_H-M "C M M M"
_symmetry_group_IT_number 65
_symmetry_cell_setting 'orthorhombic'
loop_
_space_group_symop_operation_xyz
x,y,z
-x,-y,z
x,-y,-z
-x,y,-z
-x,-y,-z
x,y,-z
-x,y,z
x,-y,z
1/2+x,1/2+y,z
1/2-x,1/2-y,z
1/2+x,1/2-y,-z
1/2-x,1/2+y,-z
1/2-x,1/2-y,-z
1/2+x,1/2+y,-z
1/2-x,1/2+y,z
1/2+x,1/2-y,z
loop_
_atom_site_type_symbol
_atom_site_label
_atom_site_fract_x
_atom_site_fract_y
_atom_site_fract_z
Si Si1 0.334080 0.200397 0.893312
Si Si2 0.161431 0.296539 0.234440
Si Si3 0.167142 0.500000 0.936247
Si Si4 0.173826 0.903705 0.113059
Si Si5 0.338010 0.939927 0.558575
Si Si6 0.341245 0.558602 0.343470
Si Si7 0.831206 0.105724 0.235731
O O1 0.500000 0.197461 0.916715
O O2 0.250000 0.250000 0.917200
O O3 0.342576 0.206406 0.829744
O O4 0.244464 0.149174 0.907615
O O5 0.250000 0.250000 0.258971
O O6 0.240792 0.346253 0.254060
O O7 0.000000 0.295625 0.258586
O O8 0.252569 0.450076 0.917662
O O9 0.000000 0.500000 0.914430
O O10 0.166296 0.500000 0.000000
O O11 0.210664 0.913433 0.176117
O O12 0.000000 0.902337 0.102364
O O13 0.268175 0.925357 0.500000
O O14 0.500000 0.917934 0.561134
O O15 0.254286 0.915420 0.609555
O O16 0.342089 0.000000 0.564109
O O17 0.500000 0.583629 0.348309
O O18 0.348342 0.500000 0.355844
O O19 0.287417 0.565123 0.281593
O O20 0.000000 0.120317 0.235393
#
# Coordination Sequence:
#
# PCOD8271485 Si02
#       7
#    16  16   8  16  16  16  16
#     4   9  16  28  48  75 106 133 162 199 241 291
#     4   9  16  26  42  63  90 122 156 189 226 273
#     4  11  25  43  59  75  99 131 168 211 250 285
#     4  10  20  34  55  78 100 131 168 204 246 295
#     4   8  14  25  39  54  76 109 150 193 233 270
#     4   9  17  27  40  59  87 121 154 188 227 271
#     4   9  18  30  45  67  97 126 153 188 233 279
#
# _framework density 17.257621
#
# number of rings (size 3 to 8) (size 9 to 14) (size 15 to 20)
#    0.000    2.846    0.000    2.077    1.077    5.846 
#    0.000    1.538    0.000    0.462    0.000    0.000 
#    0.000    0.615    0.000    2.000    0.000    2.923 
#
# Total GULP energy -644247.842308 kJ/mol
# GULP energy per Si atom -12389.381583 kJ/mol
# Density = 1.721834 g / cm^3
# Si number density = 17.257621 Si / 1000 Ang^3
#
#
#
# Elastic Constant Matrix: (Units=GPa)
#
#
# Indices 1 2 3 4 5 6 
#
# 1 98.3351 49.8208 36.4726 0.0000 0.0000 0.0000
# 2 49.8208 82.2201 28.0178 0.0000 0.0000 0.0000
# 3 36.4726 28.0178 66.9023 0.0000 0.0000 0.0000
# 4 0.0000 0.0000 0.0000 0.4263 0.0000 0.0000
# 5 0.0000 0.0000 0.0000 0.0000 4.6518 0.0000
# 6 0.0000 0.0000 0.0000 0.0000 0.0000 28.7633
#
#
#
# Elastic Compliance Matrix: (Units=1/GPa)
#
#
# Indices 1 2 3 4 5 6 
#
# 1 0.016255 -0.007967 -0.005525 0.000000 0.000000 0.000000
# 2 -0.007967 0.018092 -0.003233 0.000000 0.000000 0.000000
# 3 -0.005525 -0.003233 0.019313 0.000000 0.000000 0.000000
# 4 0.000000 0.000000 0.000000 2.345960 0.000000 0.000000
# 5 0.000000 0.000000 0.000000 0.000000 0.214969 0.000000
# 6 0.000000 0.000000 0.000000 0.000000 0.000000 0.034767
#
#
# Mechanical properties :
#
#
# Convention : Reuss Voigt Hill
#
# Bulk Modulus (GPa) = 49.48210 52.89777 51.18994
# Shear Modulus (GPa) = 1.85905 15.64470 8.75188
#
# Velocity S-wave (km/s) = 1.03903 3.01414 2.25440
# Velocity P-wave (km/s) = 5.49311 6.54460 6.04177
#
# Compressibility (1/GPa) = 0.02020933
#
# Stress axis : x y z
#
# Youngs Moduli (GPa) = 61.51985 55.27386 51.77755
#
# Poissons Ratio (x) = 0.44035 0.28608
# Poissons Ratio (y) = 0.49011 0.16742
# Poissons Ratio (z) = 0.33991 0.17872
#
# Static dielectric constant tensor:
#      x y z
#    x 3.616720 0.000000 0.000000 
#    y 0.000000 3.084580 0.000000 
#    z 0.000000 0.000000 3.128800 
# 
# 
# High freq. dielectric constant tensor:
#      x y z
#    x 1.677840 0.000000 0.000000 
#    y 0.000000 1.636840 0.000000 
#    z 0.000000 0.000000 1.640330 
# 
# From -- ./inp_files/68551.got.cif
#   From: 2010.03.12/outbox.cif.g09.slc.cpg/sg65_35_cif.got.tgz:68551.got - 2010.04.10 20:52:16.
