data_PCOD8271126
_publ_section_title
;
Structure prediction by ZEFSAII (Michael W. Deem and Ramdas Pophale) SiO2 
 PCOD8271126
Probable space group: C M M M
;
_chemical_formula_sum "Si O2"
_cell_formula_units_Z 72
_cell_length_a 27.293443
_cell_length_b 12.426773
_cell_length_c 11.566905
_cell_angle_alpha 90.000000
_cell_angle_beta 90.000000
_cell_angle_gamma 90.000000
_cell_volume 3923.140466
_symmetry_space_group_name_H-M "C M M M"
_symmetry_group_IT_number 65
_symmetry_cell_setting 'orthorhombic'
loop_
_space_group_symop_operation_xyz
x,y,z
-x,-y,z
x,-y,-z
-x,y,-z
-x,-y,-z
x,y,-z
-x,y,z
x,-y,z
1/2+x,1/2+y,z
1/2-x,1/2-y,z
1/2+x,1/2-y,-z
1/2-x,1/2+y,-z
1/2-x,1/2-y,-z
1/2+x,1/2+y,-z
1/2-x,1/2+y,z
1/2+x,1/2-y,z
loop_
_atom_site_type_symbol
_atom_site_label
_atom_site_fract_x
_atom_site_fract_y
_atom_site_fract_z
Si Si1 0.250000 0.750000 0.285964
Si Si2 0.945698 0.374991 0.500000
Si Si3 0.182427 0.378047 0.873885
Si Si4 0.500000 0.872564 0.862460
Si Si5 0.157912 0.123884 0.632114
Si Si6 0.594058 0.203086 0.263203
O O1 0.226362 0.663371 0.202800
O O2 0.209316 0.811255 0.362461
O O3 0.954320 0.500000 0.500000
O O4 0.914205 0.343961 0.389603
O O5 0.000000 0.319438 0.500000
O O6 0.194300 0.500000 0.897338
O O7 0.131747 0.369691 0.806144
O O8 0.179184 0.319412 0.000000
O O9 0.544979 0.803862 0.812058
O O10 0.500000 0.000000 0.823152
O O11 0.500000 0.866347 0.000000
O O12 0.139267 0.129338 0.500000
O O13 0.117087 0.177153 0.717583
O O14 0.165098 0.000000 0.670915
#
# Coordination Sequence:
#
# PCOD8271126 Si02
#       6
#     8   8  16   8  16  16
#     4  10  20  34  58  80 106 139 189 232 282 322
#     4  11  20  32  53  80 113 144 178 231 284 328
#     4  10  20  34  52  77 109 143 180 223 272 331
#     4  11  22  37  60  87 116 151 187 230 280 328
#     4  10  21  38  57  80 113 149 187 230 282 341
#     4  11  21  35  55  81 112 146 185 224 281 333
#
# _framework density 18.352644000000002
#
# number of rings (size 3 to 8) (size 9 to 14) (size 15 to 20)
#    0.000    1.556    2.222    4.000    0.000    1.778 
#    0.000    0.556    0.000   16.000    0.000    0.000 
#    0.000    0.000    0.000    0.000    0.000    0.000 
#
# Total GULP energy -446176.351318 kJ/mol
# GULP energy per Si atom -12393.787537 kJ/mol
# Density = 1.831087 g / cm^3
# Si number density = 18.352644 Si / 1000 Ang^3
#
#
#
# Elastic Constant Matrix: (Units=GPa)
#
#
# Indices 1 2 3 4 5 6 
#
# 1 104.2527 41.6525 28.6798 0.0000 0.0000 0.0000
# 2 41.6525 104.5787 28.2731 0.0000 0.0000 0.0000
# 3 28.6798 28.2731 102.3938 0.0000 0.0000 0.0000
# 4 0.0000 0.0000 0.0000 28.5588 0.0000 0.0000
# 5 0.0000 0.0000 0.0000 0.0000 55.4106 0.0000
# 6 0.0000 0.0000 0.0000 0.0000 0.0000 45.7087
#
#
#
# Elastic Compliance Matrix: (Units=1/GPa)
#
#
# Indices 1 2 3 4 5 6 
#
# 1 0.011840 -0.004127 -0.002177 0.000000 0.000000 0.000000
# 2 -0.004127 0.011772 -0.002095 0.000000 0.000000 0.000000
# 3 -0.002177 -0.002095 0.010954 0.000000 0.000000 0.000000
# 4 0.000000 0.000000 0.000000 0.035016 0.000000 0.000000
# 5 0.000000 0.000000 0.000000 0.000000 0.018047 0.000000
# 6 0.000000 0.000000 0.000000 0.000000 0.000000 0.021878
#
#
# Mechanical properties :
#
#
# Convention : Reuss Voigt Hill
#
# Bulk Modulus (GPa) = 56.27628 56.49292 56.38460
# Shear Modulus (GPa) = 37.81386 40.11026 38.96206
#
# Velocity S-wave (km/s) = 4.54409 4.68004 4.61257
# Velocity P-wave (km/s) = 7.63296 7.74935 7.69137
#
# Compressibility (1/GPa) = 0.01776948
#
# Stress axis : x y z
#
# Youngs Moduli (GPa) = 84.46068 84.94533 91.28890
#
# Poissons Ratio (x) = 0.35059 0.19870
# Poissons Ratio (y) = 0.34859 0.19121
# Poissons Ratio (z) = 0.18384 0.17792
#
# Static dielectric constant tensor:
#      x y z
#    x 3.291250 0.000000 0.000000 
#    y 0.000000 3.310450 0.000000 
#    z 0.000000 0.000000 3.529040 
# 
# 
# High freq. dielectric constant tensor:
#      x y z
#    x 1.718180 0.000000 0.000000 
#    y 0.000000 1.692220 0.000000 
#    z 0.000000 0.000000 1.726540 
# 
# From -- ./inp_files/32006.got.cif
#   From: 2010.03.12/outbox.cif.g09.slc.cpg/sg65_17_cif.got.tgz:32006.got - 2010.04.10 20:52:16.
