data_PCOD8271821
_publ_section_title
;
Structure prediction by ZEFSAII (Michael W. Deem and Ramdas Pophale) SiO2 
 PCOD8271821
Probable space group: C M M M
;
_chemical_formula_sum "Si O2"
_cell_formula_units_Z 88
_cell_length_a 25.074346
_cell_length_b 9.436142
_cell_length_c 20.476711
_cell_angle_alpha 90.000000
_cell_angle_beta 90.000000
_cell_angle_gamma 90.000000
_cell_volume 4844.894037
_symmetry_space_group_name_H-M "C M M M"
_symmetry_group_IT_number 65
_symmetry_cell_setting 'orthorhombic'
loop_
_space_group_symop_operation_xyz
x,y,z
-x,-y,z
x,-y,-z
-x,y,-z
-x,-y,-z
x,y,-z
-x,y,z
x,-y,z
1/2+x,1/2+y,z
1/2-x,1/2-y,z
1/2+x,1/2-y,-z
1/2-x,1/2+y,-z
1/2-x,1/2-y,-z
1/2+x,1/2+y,-z
1/2-x,1/2+y,z
1/2+x,1/2-y,z
loop_
_atom_site_type_symbol
_atom_site_label
_atom_site_fract_x
_atom_site_fract_y
_atom_site_fract_z
Si Si1 0.057952 0.654023 0.223310
Si Si2 0.801193 0.165358 0.294054
Si Si3 0.415218 0.665874 0.656651
Si Si4 0.000000 0.334912 0.576998
Si Si5 0.342318 0.235161 0.845376
Si Si6 0.660806 0.500000 0.927344
Si Si7 0.213276 0.500000 0.073544
O O1 0.061682 0.500000 0.259368
O O2 0.064139 0.783373 0.273244
O O3 0.102817 0.653867 0.168091
O O4 0.000000 0.669994 0.189785
O O5 0.750000 0.250000 0.321899
O O6 0.850995 0.190640 0.343719
O O7 0.813818 0.221774 0.221854
O O8 0.786951 0.000000 0.289760
O O9 0.428726 0.500000 0.647479
O O10 0.446166 0.757400 0.602265
O O11 0.000000 0.500000 0.598645
O O12 0.000000 0.320656 0.500000
O O13 0.360483 0.366658 0.888178
O O14 0.302985 0.139245 0.887353
O O15 0.723998 0.500000 0.930410
O O16 0.636495 0.500000 0.000000
O O17 0.189012 0.500000 0.000000
#
# Coordination Sequence:
#
# PCOD8271821 Si02
#       7
#    16  16  16   8  16   8   8
#     4  10  20  35  56  79 106 138 178 228 279 329
#     4  10  21  34  54  83 115 147 182 231 287 337
#     4  10  21  36  56  86 118 149 189 233 276 324
#     4  11  23  39  61  89 123 159 192 227 266 317
#     4  11  21  35  52  77 104 138 179 227 284 339
#     4  11  22  36  53  73 103 137 176 229 278 340
#     4  11  22  36  53  73  99 137 182 225 276 340
#
# _framework density 18.163451999999999
#
# number of rings (size 3 to 8) (size 9 to 14) (size 15 to 20)
#    0.000    1.545    2.727    3.000    2.545    3.636 
#    0.000    0.000    0.000    3.818    0.000    0.000 
#    0.000    0.000    0.000    0.000    0.000    0.000 
#
# Total GULP energy -545418.917798 kJ/mol
# GULP energy per Si atom -12395.884495 kJ/mol
# Density = 1.812211 g / cm^3
# Si number density = 18.163452 Si / 1000 Ang^3
#
#
#
# Elastic Constant Matrix: (Units=GPa)
#
#
# Indices 1 2 3 4 5 6 
#
# 1 118.0638 53.7348 32.6566 0.0000 0.0000 0.0000
# 2 53.7348 134.8878 38.0950 0.0000 0.0000 0.0000
# 3 32.6566 38.0950 72.7435 0.0000 0.0000 0.0000
# 4 0.0000 0.0000 0.0000 34.3787 0.0000 0.0000
# 5 0.0000 0.0000 0.0000 0.0000 14.9029 0.0000
# 6 0.0000 0.0000 0.0000 0.0000 0.0000 25.8012
#
#
#
# Elastic Compliance Matrix: (Units=1/GPa)
#
#
# Indices 1 2 3 4 5 6 
#
# 1 0.010902 -0.003475 -0.003075 0.000000 0.000000 0.000000
# 2 -0.003475 0.009808 -0.003576 0.000000 0.000000 0.000000
# 3 -0.003075 -0.003576 0.017000 0.000000 0.000000 0.000000
# 4 0.000000 0.000000 0.000000 0.029088 0.000000 0.000000
# 5 0.000000 0.000000 0.000000 0.000000 0.067101 0.000000
# 6 0.000000 0.000000 0.000000 0.000000 0.000000 0.038758
#
#
# Mechanical properties :
#
#
# Convention : Reuss Voigt Hill
#
# Bulk Modulus (GPa) = 57.27814 63.85199 60.56507
# Shear Modulus (GPa) = 25.16015 28.43047 26.79531
#
# Velocity S-wave (km/s) = 3.72588 3.96062 3.84504
# Velocity P-wave (km/s) = 7.07904 7.49305 7.28899
#
# Compressibility (1/GPa) = 0.01745867
#
# Stress axis : x y z
#
# Youngs Moduli (GPa) = 91.72772 101.95985 58.82325
#
# Poissons Ratio (x) = 0.35427 0.18085
# Poissons Ratio (y) = 0.31872 0.21037
# Poissons Ratio (z) = 0.28202 0.36465
#
# Static dielectric constant tensor:
#      x y z
#    x 3.634050 0.000000 0.000000 
#    y 0.000000 3.197010 0.000000 
#    z 0.000000 0.000000 3.153070 
# 
# 
# High freq. dielectric constant tensor:
#      x y z
#    x 1.706640 0.000000 0.000000 
#    y 0.000000 1.726510 0.000000 
#    z 0.000000 0.000000 1.665250 
# 
# From -- ./inp_files/65211.got.cif
#   From: 2010.03.12/outbox.cif.g09.slc.cpg/sg65_33_cif.got.tgz:65211.got - 2010.04.10 20:52:16.
