data_PCOD8271834
_publ_section_title
;
Structure prediction by ZEFSAII (Michael W. Deem and Ramdas Pophale) SiO2 
 PCOD8271834
Probable space group: C M M M
;
_chemical_formula_sum "Si O2"
_cell_formula_units_Z 88
_cell_length_a 9.037305
_cell_length_b 18.712190
_cell_length_c 27.557028
_cell_angle_alpha 90.000000
_cell_angle_beta 90.000000
_cell_angle_gamma 90.000000
_cell_volume 4660.107505
_symmetry_space_group_name_H-M "C M M M"
_symmetry_group_IT_number 65
_symmetry_cell_setting 'orthorhombic'
loop_
_space_group_symop_operation_xyz
x,y,z
-x,-y,z
x,-y,-z
-x,y,-z
-x,-y,-z
x,y,-z
-x,y,z
x,-y,z
1/2+x,1/2+y,z
1/2-x,1/2-y,z
1/2+x,1/2-y,-z
1/2-x,1/2+y,-z
1/2-x,1/2-y,-z
1/2+x,1/2+y,-z
1/2-x,1/2+y,z
1/2+x,1/2-y,z
loop_
_atom_site_type_symbol
_atom_site_label
_atom_site_fract_x
_atom_site_fract_y
_atom_site_fract_z
Si Si1 0.176366 0.172241 0.500000
Si Si2 0.325496 0.177154 0.219166
Si Si3 0.829287 0.679241 0.328975
Si Si4 0.171255 0.082700 0.143043
Si Si5 0.172221 0.417084 0.417293
Si Si6 0.326821 0.677567 0.945702
O O1 0.250000 0.250000 0.500000
O O2 0.226522 0.128074 0.453190
O O3 0.000000 0.181012 0.500000
O O4 0.500000 0.185146 0.213652
O O5 0.250000 0.250000 0.200837
O O6 0.276765 0.160425 0.274540
O O7 0.269150 0.112378 0.186721
O O8 0.750000 0.750000 0.349341
O O9 0.795916 0.611432 0.363081
O O10 0.000000 0.699015 0.329104
O O11 0.220028 0.116093 0.091653
O O12 0.000000 0.098665 0.154325
O O13 0.205469 0.000000 0.138681
O O14 0.217856 0.500000 0.419625
O O15 0.000000 0.407155 0.431423
O O16 0.500000 0.691641 0.944570
O O17 0.250000 0.750000 0.928512
O O18 0.275216 0.655270 0.000000
#
# Coordination Sequence:
#
# PCOD8271834 Si02
#       6
#     8  16  16  16  16  16
#     4  12  25  40  59  83 111 143 183 226 267 314
#     4  10  20  35  56  80 107 140 179 221 264 312
#     4   9  19  35  56  81 107 139 179 221 263 311
#     4  10  21  35  51  75 107 140 175 217 265 316
#     4  10  21  38  59  83 113 146 178 216 265 317
#     4   9  18  33  53  75  99 131 172 216 261 311
#
# _framework density 18.883683999999999
#
# number of rings (size 3 to 8) (size 9 to 14) (size 15 to 20)
#    0.000    2.182    0.000    2.727    0.000    8.000 
#    0.000    3.636    0.000    0.000    0.000    3.818 
#    0.000    0.000    0.000    0.000    0.000    0.000 
#
# Total GULP energy -545700.951559 kJ/mol
# GULP energy per Si atom -12402.294354 kJ/mol
# Density = 1.884070 g / cm^3
# Si number density = 18.883684 Si / 1000 Ang^3
#
#
#
# Elastic Constant Matrix: (Units=GPa)
#
#
# Indices 1 2 3 4 5 6 
#
# 1 70.5904 58.6097 49.7186 0.0000 0.0000 0.0000
# 2 58.6097 149.0042 78.3147 0.0000 0.0000 0.0000
# 3 49.7186 78.3147 113.3664 0.0000 0.0000 0.0000
# 4 0.0000 0.0000 0.0000 23.7281 0.0000 0.0000
# 5 0.0000 0.0000 0.0000 0.0000 28.2112 0.0000
# 6 0.0000 0.0000 0.0000 0.0000 0.0000 30.4262
#
#
#
# Elastic Compliance Matrix: (Units=1/GPa)
#
#
# Indices 1 2 3 4 5 6 
#
# 1 0.023484 -0.006004 -0.006152 0.000000 0.000000 0.000000
# 2 -0.006004 0.012072 -0.005706 0.000000 0.000000 0.000000
# 3 -0.006152 -0.005706 0.015461 0.000000 0.000000 0.000000
# 4 0.000000 0.000000 0.000000 0.042144 0.000000 0.000000
# 5 0.000000 0.000000 0.000000 0.000000 0.035447 0.000000
# 6 0.000000 0.000000 0.000000 0.000000 0.000000 0.032866
#
#
# Mechanical properties :
#
#
# Convention : Reuss Voigt Hill
#
# Bulk Modulus (GPa) = 65.38982 78.47188 71.93085
# Shear Modulus (GPa) = 24.71628 26.22764 25.47196
#
# Velocity S-wave (km/s) = 3.62176 3.73084 3.67670
# Velocity P-wave (km/s) = 7.22443 7.75916 7.49656
#
# Compressibility (1/GPa) = 0.01529290
#
# Stress axis : x y z
#
# Youngs Moduli (GPa) = 42.58225 82.83607 64.67964
#
# Poissons Ratio (x) = 0.49735 0.39788
# Poissons Ratio (y) = 0.25567 0.36908
# Poissons Ratio (z) = 0.26195 0.47269
#
# Static dielectric constant tensor:
#      x y z
#    x 3.420900 0.000000 0.000000 
#    y 0.000000 3.570870 0.000000 
#    z 0.000000 0.000000 3.739350 
# 
# 
# High freq. dielectric constant tensor:
#      x y z
#    x 1.727680 0.000000 0.000000 
#    y 0.000000 1.730840 0.000000 
#    z 0.000000 0.000000 1.746970 
# 
# From -- ./inp_files/76609.got.cif
#   From: 2010.03.12/outbox.cif.g09.slc.cpg/sg65_39_cif.got.tgz:76609.got - 2010.04.10 20:52:16.
