data_PCOD8271838
_publ_section_title
;
Structure prediction by ZEFSAII (Michael W. Deem and Ramdas Pophale) SiO2 
 PCOD8271838
Probable space group: C M M M
;
_chemical_formula_sum "Si O2"
_cell_formula_units_Z 112
_cell_length_a 29.183558
_cell_length_b 13.854621
_cell_length_c 13.973576
_cell_angle_alpha 90.000000
_cell_angle_beta 90.000000
_cell_angle_gamma 90.000000
_cell_volume 5649.895957
_symmetry_space_group_name_H-M "C M M M"
_symmetry_group_IT_number 65
_symmetry_cell_setting 'orthorhombic'
loop_
_space_group_symop_operation_xyz
x,y,z
-x,-y,z
x,-y,-z
-x,y,-z
-x,-y,-z
x,y,-z
-x,y,z
x,-y,z
1/2+x,1/2+y,z
1/2-x,1/2-y,z
1/2+x,1/2-y,-z
1/2-x,1/2+y,-z
1/2-x,1/2-y,-z
1/2+x,1/2+y,-z
1/2-x,1/2+y,z
1/2+x,1/2-y,z
loop_
_atom_site_type_symbol
_atom_site_label
_atom_site_fract_x
_atom_site_fract_y
_atom_site_fract_z
Si Si1 0.384552 0.248036 0.394133
Si Si2 0.595785 0.615205 0.763205
Si Si3 0.214535 0.168800 0.602743
Si Si4 0.123975 0.614622 0.779499
Si Si5 0.552394 0.761994 0.110023
Si Si6 0.696455 0.605361 0.799251
Si Si7 0.713669 0.884743 0.108167
O O1 0.406561 0.227948 0.500000
O O2 0.412154 0.335199 0.340697
O O3 0.333194 0.278896 0.410309
O O4 0.384550 0.152263 0.328194
O O5 0.591620 0.500000 0.754462
O O6 0.559638 0.658348 0.837999
O O7 0.645986 0.653616 0.800815
O O8 0.227643 0.119759 0.500000
O O9 0.250000 0.250000 0.632856
O O10 0.212914 0.092454 0.688776
O O11 0.121292 0.500000 0.779060
O O12 0.083777 0.654003 0.847021
O O13 0.173143 0.651157 0.821568
O O14 0.500000 0.794073 0.123603
O O15 0.565101 0.747171 0.000000
O O16 0.689857 0.500000 0.844108
O O17 0.736465 0.659616 0.859401
O O18 0.716820 0.000000 0.115377
O O19 0.703167 0.851185 0.000000
#
# Coordination Sequence:
#
# PCOD8271838 Si02
#       7
#    16  16  16  16  16  16  16
#     4   9  18  32  51  77 108 140 176 220 267 316
#     4   9  19  35  55  80 110 144 181 220 263 315
#     4   9  16  26  41  62  94 136 176 215 258 302
#     4  10  20  35  56  80 108 142 179 220 266 318
#     4  10  22  39  58  82 110 138 174 222 271 317
#     4   9  17  29  46  70 100 134 173 214 254 302
#     4   9  17  29  46  70 102 140 179 217 258 308
#
# _framework density 19.823374000000001
#
# number of rings (size 3 to 8) (size 9 to 14) (size 15 to 20)
#    0.000    2.714    0.000    1.286    0.000    3.143 
#    0.000    5.714    0.000   21.000    0.000    8.000 
#    0.000    0.000    0.000    0.000    0.000    0.000 
#
# Total GULP energy -693801.535986 kJ/mol
# GULP energy per Si atom -12389.313143 kJ/mol
# Density = 1.977826 g / cm^3
# Si number density = 19.823374 Si / 1000 Ang^3
#
#
#
# Elastic Constant Matrix: (Units=GPa)
#
#
# Indices 1 2 3 4 5 6 
#
# 1 60.4687 2.7282 42.0842 0.0000 0.0000 0.0000
# 2 2.7282 38.9726 28.5673 0.0000 0.0000 0.0000
# 3 42.0842 28.5673 142.5389 0.0000 0.0000 0.0000
# 4 0.0000 0.0000 0.0000 21.7880 0.0000 0.0000
# 5 0.0000 0.0000 0.0000 0.0000 23.3352 0.0000
# 6 0.0000 0.0000 0.0000 0.0000 0.0000 9.0229
#
#
#
# Elastic Compliance Matrix: (Units=1/GPa)
#
#
# Indices 1 2 3 4 5 6 
#
# 1 0.021248 0.003647 -0.007004 0.000000 0.000000 0.000000
# 2 0.003647 0.030704 -0.007230 0.000000 0.000000 0.000000
# 3 -0.007004 -0.007230 0.010533 0.000000 0.000000 0.000000
# 4 0.000000 0.000000 0.000000 0.045897 0.000000 0.000000
# 5 0.000000 0.000000 0.000000 0.000000 0.042854 0.000000
# 6 0.000000 0.000000 0.000000 0.000000 0.000000 0.110829
#
#
# Mechanical properties :
#
#
# Convention : Reuss Voigt Hill
#
# Bulk Modulus (GPa) = 24.20811 43.19331 33.70071
# Shear Modulus (GPa) = 16.83453 22.06926 19.45189
#
# Velocity S-wave (km/s) = 2.91731 3.34023 3.13591
# Velocity P-wave (km/s) = 4.85654 6.05909 5.49084
#
# Compressibility (1/GPa) = 0.04130846
#
# Stress axis : x y z
#
# Youngs Moduli (GPa) = 47.06417 32.56951 94.94294
#
# Poissons Ratio (x) = -0.11877 0.66499
# Poissons Ratio (y) = -0.17163 0.68646
# Poissons Ratio (z) = 0.32964 0.23548
#
# Static dielectric constant tensor:
#      x y z
#    x 3.497530 0.000000 0.000000 
#    y 0.000000 3.301260 0.000000 
#    z 0.000000 0.000000 3.986910 
# 
# 
# High freq. dielectric constant tensor:
#      x y z
#    x 1.750090 0.000000 0.000000 
#    y 0.000000 1.760040 0.000000 
#    z 0.000000 0.000000 1.779480 
# 
# From -- ./inp_files/47051.got.cif
#   From: 2010.03.12/outbox.cif.g09.slc.cpg/sg65_24_cif.got.tgz:47051.got - 2010.04.10 20:52:16.
