data_PCOD8271655
_publ_section_title
;
Structure prediction by ZEFSAII (Michael W. Deem and Ramdas Pophale) SiO2 
 PCOD8271655
Probable space group: C M M M
;
_chemical_formula_sum "Si O2"
_cell_formula_units_Z 88
_cell_length_a 9.224096
_cell_length_b 26.538411
_cell_length_c 19.010290
_cell_angle_alpha 90.000000
_cell_angle_beta 90.000000
_cell_angle_gamma 90.000000
_cell_volume 4653.583083
_symmetry_space_group_name_H-M "C M M M"
_symmetry_group_IT_number 65
_symmetry_cell_setting 'orthorhombic'
loop_
_space_group_symop_operation_xyz
x,y,z
-x,-y,z
x,-y,-z
-x,y,-z
-x,-y,-z
x,y,-z
-x,y,z
x,-y,z
1/2+x,1/2+y,z
1/2-x,1/2-y,z
1/2+x,1/2-y,-z
1/2-x,1/2+y,-z
1/2-x,1/2-y,-z
1/2+x,1/2+y,-z
1/2-x,1/2+y,z
1/2+x,1/2-y,z
loop_
_atom_site_type_symbol
_atom_site_label
_atom_site_fract_x
_atom_site_fract_y
_atom_site_fract_z
Si Si1 0.828641 0.901002 0.343793
Si Si2 0.830565 0.199513 0.418215
Si Si3 0.169505 0.396580 0.919513
Si Si4 0.663544 0.556840 0.801779
Si Si5 0.672699 0.500000 0.420059
Si Si6 0.161948 0.203141 0.916717
O O1 0.767850 0.848334 0.374628
O O2 0.788585 0.905851 0.261182
O O3 0.762754 0.949324 0.384464
O O4 0.000000 0.901545 0.354643
O O5 0.798991 0.188863 0.500000
O O6 0.750000 0.250000 0.392471
O O7 0.000000 0.207390 0.403963
O O8 0.228339 0.439769 0.868160
O O9 0.252473 0.346617 0.895430
O O10 0.000000 0.387893 0.909038
O O11 0.204652 0.411504 0.000000
O O12 0.500000 0.569503 0.826869
O O13 0.670626 0.500000 0.772318
O O14 0.500000 0.500000 0.413361
O O15 0.724937 0.500000 0.500000
O O16 0.250000 0.250000 0.884261
O O17 0.000000 0.201682 0.884445
O O18 0.152591 0.208767 0.000000
#
# Coordination Sequence:
#
# PCOD8271655 Si02
#       6
#    16  16  16  16   8  16
#     4   9  16  29  48  74 106 137 171 213 261 314
#     4   9  17  30  50  77 109 144 179 214 253 299
#     4  10  21  36  53  74 100 132 175 224 269 319
#     4  10  20  35  54  74 100 134 170 215 275 335
#     4   9  14  22  44  78 108 131 162 210 261 305
#     4   9  16  28  49  76 104 131 160 200 254 312
#
# _framework density 18.910160000000001
#
# number of rings (size 3 to 8) (size 9 to 14) (size 15 to 20)
#    0.000    2.636    0.909    1.636    0.000    6.182 
#    0.000    3.636    0.000    2.182    0.000    0.000 
#    0.000    4.364    0.000    0.000    0.000    0.000 
#
# Total GULP energy -545500.126940 kJ/mol
# GULP energy per Si atom -12397.730158 kJ/mol
# Density = 1.886712 g / cm^3
# Si number density = 18.910160 Si / 1000 Ang^3
#
#
#
# Elastic Constant Matrix: (Units=GPa)
#
#
# Indices 1 2 3 4 5 6 
#
# 1 73.0101 39.2313 39.5315 0.0000 0.0000 0.0000
# 2 39.2313 132.7929 59.3039 0.0000 0.0000 0.0000
# 3 39.5315 59.3039 90.1083 0.0000 0.0000 0.0000
# 4 0.0000 0.0000 0.0000 29.7737 0.0000 0.0000
# 5 0.0000 0.0000 0.0000 0.0000 13.9901 0.0000
# 6 0.0000 0.0000 0.0000 0.0000 0.0000 28.6177
#
#
#
# Elastic Compliance Matrix: (Units=1/GPa)
#
#
# Indices 1 2 3 4 5 6 
#
# 1 0.018586 -0.002619 -0.006430 0.000000 0.000000 0.000000
# 2 -0.002619 0.011034 -0.006113 0.000000 0.000000 0.000000
# 3 -0.006430 -0.006113 0.017942 0.000000 0.000000 0.000000
# 4 0.000000 0.000000 0.000000 0.033587 0.000000 0.000000
# 5 0.000000 0.000000 0.000000 0.000000 0.071479 0.000000
# 6 0.000000 0.000000 0.000000 0.000000 0.000000 0.034943
#
#
# Mechanical properties :
#
#
# Convention : Reuss Voigt Hill
#
# Bulk Modulus (GPa) = 58.01321 63.56053 60.78687
# Shear Modulus (GPa) = 22.35721 24.99928 23.67825
#
# Velocity S-wave (km/s) = 3.44217 3.63988 3.54240
# Velocity P-wave (km/s) = 6.82224 7.16588 6.99617
#
# Compressibility (1/GPa) = 0.01723745
#
# Stress axis : x y z
#
# Youngs Moduli (GPa) = 53.80494 90.62592 55.73560
#
# Poissons Ratio (x) = 0.23738 0.35837
# Poissons Ratio (y) = 0.14093 0.34071
# Poissons Ratio (z) = 0.34596 0.55400
#
# Static dielectric constant tensor:
#      x y z
#    x 3.227500 0.000000 0.000000 
#    y 0.000000 3.606770 0.000000 
#    z 0.000000 0.000000 3.244260 
# 
# 
# High freq. dielectric constant tensor:
#      x y z
#    x 1.700870 0.000000 0.000000 
#    y 0.000000 1.741980 0.000000 
#    z 0.000000 0.000000 1.716400 
# 
# From -- ./inp_files/59827.got.cif
#   From: 2010.03.12/outbox.cif.g09.slc.cpg/sg65_30_cif.got.tgz:59827.got - 2010.04.10 20:52:16.
