data_PCOD8271788
_publ_section_title
;
Structure prediction by ZEFSAII (Michael W. Deem and Ramdas Pophale) SiO2 
 PCOD8271788
Probable space group: C M M M
;
_chemical_formula_sum "Si O2"
_cell_formula_units_Z 88
_cell_length_a 9.079001
_cell_length_b 24.199278
_cell_length_c 19.408332
_cell_angle_alpha 90.000000
_cell_angle_beta 90.000000
_cell_angle_gamma 90.000000
_cell_volume 4264.112806
_symmetry_space_group_name_H-M "C M M M"
_symmetry_group_IT_number 65
_symmetry_cell_setting 'orthorhombic'
loop_
_space_group_symop_operation_xyz
x,y,z
-x,-y,z
x,-y,-z
-x,y,-z
-x,-y,-z
x,y,-z
-x,y,z
x,-y,z
1/2+x,1/2+y,z
1/2-x,1/2-y,z
1/2+x,1/2-y,-z
1/2-x,1/2+y,-z
1/2-x,1/2-y,-z
1/2+x,1/2+y,-z
1/2-x,1/2+y,z
1/2+x,1/2-y,z
loop_
_atom_site_type_symbol
_atom_site_label
_atom_site_fract_x
_atom_site_fract_y
_atom_site_fract_z
Si Si1 0.167261 0.801733 0.266314
Si Si2 0.676269 0.811046 0.500000
Si Si3 0.167869 0.409814 0.075389
Si Si4 0.325755 0.000000 0.183600
Si Si5 0.173194 0.000000 0.668047
Si Si6 0.826645 0.195652 0.889106
Si Si7 0.330513 0.617755 0.614900
O O1 0.250000 0.750000 0.301562
O O2 0.226228 0.812874 0.189825
O O3 0.189417 0.857412 0.309141
O O4 0.000000 0.782854 0.264133
O O5 0.500000 0.803561 0.500000
O O6 0.750000 0.750000 0.500000
O O7 0.725335 0.847512 0.434831
O O8 0.225201 0.447929 0.137726
O O9 0.270661 0.356622 0.069238
O O10 0.000000 0.392090 0.090453
O O11 0.177545 0.439440 0.000000
O O12 0.251410 0.000000 0.258108
O O13 0.500000 0.000000 0.194312
O O14 0.217212 0.946480 0.622023
O O15 0.000000 0.000000 0.683521
O O16 0.750000 0.250000 0.920040
O O17 0.000000 0.201412 0.897535
O O18 0.500000 0.622690 0.589205
#
# Coordination Sequence:
#
# PCOD8271788 Si02
#       7
#    16   8  16   8   8  16  16
#     4   9  18  32  53  80 109 142 184 235 287 340
#     4  12  26  43  64  91 123 158 196 240 285 334
#     4  10  21  37  56  79 110 150 194 239 289 347
#     4  10  21  38  61  87 116 151 193 241 292 344
#     4  10  22  40  64  91 121 157 194 237 286 339
#     4  10  20  35  55  81 112 146 188 239 295 353
#     4  10  21  39  61  87 120 158 197 235 283 340
#
# _framework density 20.637353000000001
#
# number of rings (size 3 to 8) (size 9 to 14) (size 15 to 20)
#    0.000    2.000    0.000    3.273    0.000    8.000 
#    0.000    1.818    0.000    1.636    0.000    0.000 
#    0.000    0.000    0.000    0.000    0.000    0.000 
#
# Total GULP energy -545479.171880 kJ/mol
# GULP energy per Si atom -12397.253906 kJ/mol
# Density = 2.059038 g / cm^3
# Si number density = 20.637353 Si / 1000 Ang^3
#
#
#
# Elastic Constant Matrix: (Units=GPa)
#
#
# Indices 1 2 3 4 5 6 
#
# 1 86.6356 56.4595 36.5569 0.0000 0.0000 0.0000
# 2 56.4595 154.6963 46.8647 0.0000 0.0000 0.0000
# 3 36.5569 46.8647 90.8609 0.0000 0.0000 0.0000
# 4 0.0000 0.0000 0.0000 17.1045 0.0000 0.0000
# 5 0.0000 0.0000 0.0000 0.0000 28.1610 0.0000
# 6 0.0000 0.0000 0.0000 0.0000 0.0000 32.6639
#
#
#
# Elastic Compliance Matrix: (Units=1/GPa)
#
#
# Indices 1 2 3 4 5 6 
#
# 1 0.016368 -0.004716 -0.004153 0.000000 0.000000 0.000000
# 2 -0.004716 0.009020 -0.002755 0.000000 0.000000 0.000000
# 3 -0.004153 -0.002755 0.014098 0.000000 0.000000 0.000000
# 4 0.000000 0.000000 0.000000 0.058464 0.000000 0.000000
# 5 0.000000 0.000000 0.000000 0.000000 0.035510 0.000000
# 6 0.000000 0.000000 0.000000 0.000000 0.000000 0.030615
#
#
# Mechanical properties :
#
#
# Convention : Reuss Voigt Hill
#
# Bulk Modulus (GPa) = 61.58387 67.99503 64.78945
# Shear Modulus (GPa) = 25.94219 28.40665 27.17442
#
# Velocity S-wave (km/s) = 3.54934 3.71410 3.63265
# Velocity P-wave (km/s) = 6.83395 7.17020 7.00409
#
# Compressibility (1/GPa) = 0.01623802
#
# Stress axis : x y z
#
# Youngs Moduli (GPa) = 61.09358 110.86461 70.93250
#
# Poissons Ratio (x) = 0.52281 0.29461
# Poissons Ratio (y) = 0.28810 0.19542
# Poissons Ratio (z) = 0.25374 0.30544
#
# Static dielectric constant tensor:
#      x y z
#    x 3.582410 0.000000 0.000000 
#    y 0.000000 3.863090 0.000000 
#    z 0.000000 0.000000 3.753140 
# 
# 
# High freq. dielectric constant tensor:
#      x y z
#    x 1.795020 0.000000 0.000000 
#    y 0.000000 1.814420 0.000000 
#    z 0.000000 0.000000 1.809300 
# 
# From -- ./inp_files/59946.got.cif
#   From: 2010.03.12/outbox.cif.g09.slc.cpg/sg65_30_cif.got.tgz:59946.got - 2010.04.10 20:52:16.
