data_PCOD8271670
_publ_section_title
;
Structure prediction by ZEFSAII (Michael W. Deem and Ramdas Pophale) SiO2 
 PCOD8271670
Probable space group: C M M M
;
_chemical_formula_sum "Si O2"
_cell_formula_units_Z 88
_cell_length_a 19.234400
_cell_length_b 8.772120
_cell_length_c 28.005808
_cell_angle_alpha 90.000000
_cell_angle_beta 90.000000
_cell_angle_gamma 90.000000
_cell_volume 4725.320981
_symmetry_space_group_name_H-M "C M M M"
_symmetry_group_IT_number 65
_symmetry_cell_setting 'orthorhombic'
loop_
_space_group_symop_operation_xyz
x,y,z
-x,-y,z
x,-y,-z
-x,y,-z
-x,-y,-z
x,y,-z
-x,y,z
x,-y,z
1/2+x,1/2+y,z
1/2-x,1/2-y,z
1/2+x,1/2-y,-z
1/2-x,1/2+y,-z
1/2-x,1/2-y,-z
1/2+x,1/2+y,-z
1/2-x,1/2+y,z
1/2+x,1/2-y,z
loop_
_atom_site_type_symbol
_atom_site_label
_atom_site_fract_x
_atom_site_fract_y
_atom_site_fract_z
Si Si1 0.673495 0.181189 0.000000
Si Si2 0.419086 0.674009 0.554671
Si Si3 0.920669 0.178466 0.184963
Si Si4 0.176212 0.678814 0.629920
Si Si5 0.175434 0.181118 0.271207
Si Si6 0.578658 0.180390 0.086599
O O1 0.750000 0.250000 0.000000
O O2 0.630874 0.240775 0.953998
O O3 0.679460 0.000000 0.000000
O O4 0.399044 0.707676 0.500000
O O5 0.500000 0.703864 0.563108
O O6 0.400073 0.500000 0.567825
O O7 0.377343 0.789909 0.587614
O O8 0.876530 0.235792 0.229932
O O9 0.893217 0.260239 0.137289
O O10 0.000000 0.224204 0.195355
O O11 0.911737 0.000000 0.176986
O O12 0.185261 0.500000 0.637655
O O13 0.250000 0.750000 0.615757
O O14 0.147504 0.753463 0.678671
O O15 0.250000 0.250000 0.258826
O O16 0.180165 0.000000 0.274775
O O17 0.500000 0.241293 0.076921
O O18 0.578143 0.000000 0.087056
#
# Coordination Sequence:
#
# PCOD8271670 Si02
#       6
#     8  16  16  16  16  16
#     4  10  21  35  51  75 105 134 168 208 252 302
#     4   9  19  37  59  81 107 140 176 215 263 317
#     4   9  19  35  54  77 103 132 169 211 255 305
#     4  11  22  36  55  79 108 141 179 221 263 311
#     4  10  20  35  54  75 103 138 173 212 259 310
#     4   9  18  34  55  75  98 132 171 210 251 297
#
# _framework density 18.623073999999999
#
# number of rings (size 3 to 8) (size 9 to 14) (size 15 to 20)
#    0.000    2.364    0.000    4.091    0.000    5.818 
#    0.000    6.364    0.000    2.727    0.000    0.000 
#    0.000    0.000    0.000    0.000    0.000    0.000 
#
# Total GULP energy -545674.500125 kJ/mol
# GULP energy per Si atom -12401.693185 kJ/mol
# Density = 1.858069 g / cm^3
# Si number density = 18.623074 Si / 1000 Ang^3
#
#
#
# Elastic Constant Matrix: (Units=GPa)
#
#
# Indices 1 2 3 4 5 6 
#
# 1 93.3847 34.7157 86.4721 0.0000 0.0000 0.0000
# 2 34.7157 67.4243 46.3332 0.0000 0.0000 0.0000
# 3 86.4721 46.3332 152.4256 0.0000 0.0000 0.0000
# 4 0.0000 0.0000 0.0000 33.8449 0.0000 0.0000
# 5 0.0000 0.0000 0.0000 0.0000 34.5295 0.0000
# 6 0.0000 0.0000 0.0000 0.0000 0.0000 30.3297
#
#
#
# Elastic Compliance Matrix: (Units=1/GPa)
#
#
# Indices 1 2 3 4 5 6 
#
# 1 0.023258 -0.003676 -0.012077 0.000000 0.000000 0.000000
# 2 -0.003676 0.019329 -0.003790 0.000000 0.000000 0.000000
# 3 -0.012077 -0.003790 0.014564 0.000000 0.000000 0.000000
# 4 0.000000 0.000000 0.000000 0.029547 0.000000 0.000000
# 5 0.000000 0.000000 0.000000 0.000000 0.028961 0.000000
# 6 0.000000 0.000000 0.000000 0.000000 0.000000 0.032971
#
#
# Mechanical properties :
#
#
# Convention : Reuss Voigt Hill
#
# Bulk Modulus (GPa) = 55.35671 72.03072 63.69371
# Shear Modulus (GPa) = 25.80828 29.45505 27.63167
#
# Velocity S-wave (km/s) = 3.72670 3.98130 3.85610
# Velocity P-wave (km/s) = 6.95033 7.73928 7.35539
#
# Compressibility (1/GPa) = 0.01806466
#
# Stress axis : x y z
#
# Youngs Moduli (GPa) = 42.99604 51.73692 68.66251
#
# Poissons Ratio (x) = 0.19018 0.82924
# Poissons Ratio (y) = 0.15805 0.26023
# Poissons Ratio (z) = 0.51926 0.19608
#
# Static dielectric constant tensor:
#      x y z
#    x 3.412960 0.000000 0.000000 
#    y 0.000000 3.315680 0.000000 
#    z 0.000000 0.000000 3.573710 
# 
# 
# High freq. dielectric constant tensor:
#      x y z
#    x 1.718250 0.000000 0.000000 
#    y 0.000000 1.718440 0.000000 
#    z 0.000000 0.000000 1.733460 
# 
# From -- ./inp_files/77977.got.cif
#   From: 2010.03.12/outbox.cif.g09.slc.cpg/sg65_39_cif.got.tgz:77977.got - 2010.04.10 20:52:16.
