data_PCOD8271718
_publ_section_title
;
Structure prediction by ZEFSAII (Michael W. Deem and Ramdas Pophale) SiO2 
 PCOD8271718
Probable space group: C M M M
;
_chemical_formula_sum "Si O2"
_cell_formula_units_Z 120
_cell_length_a 8.945803
_cell_length_b 26.115849
_cell_length_c 27.578407
_cell_angle_alpha 90.000000
_cell_angle_beta 90.000000
_cell_angle_gamma 90.000000
_cell_volume 6443.067120
_symmetry_space_group_name_H-M "C M M M"
_symmetry_group_IT_number 65
_symmetry_cell_setting 'orthorhombic'
loop_
_space_group_symop_operation_xyz
x,y,z
-x,-y,z
x,-y,-z
-x,y,-z
-x,-y,-z
x,y,-z
-x,y,z
x,-y,z
1/2+x,1/2+y,z
1/2-x,1/2-y,z
1/2+x,1/2-y,-z
1/2-x,1/2+y,-z
1/2-x,1/2-y,-z
1/2+x,1/2+y,-z
1/2-x,1/2+y,z
1/2+x,1/2-y,z
loop_
_atom_site_type_symbol
_atom_site_label
_atom_site_fract_x
_atom_site_fract_y
_atom_site_fract_z
Si Si1 0.822009 0.899003 0.609562
Si Si2 0.824103 0.841540 0.054497
Si Si3 0.171296 0.055707 0.897833
Si Si4 0.675470 0.803560 0.443605
Si Si5 0.175564 0.405443 0.807037
Si Si6 0.677456 0.500000 0.445800
Si Si7 0.824265 0.300239 0.146682
Si Si8 0.676223 0.940476 0.702102
O O1 0.749510 0.848565 0.587142
O O2 0.766386 0.905634 0.664373
O O3 0.000000 0.893639 0.607773
O O4 0.763962 0.948892 0.580447
O O5 0.778443 0.900744 0.064367
O O6 0.735736 0.806075 0.091848
O O7 0.000000 0.832774 0.061503
O O8 0.773855 0.827672 0.000000
O O9 0.259804 0.057171 0.847505
O O10 0.000000 0.064026 0.883848
O O11 0.198787 0.000000 0.921976
O O12 0.707046 0.814701 0.500000
O O13 0.500000 0.800737 0.432357
O O14 0.750000 0.750000 0.427940
O O15 0.224542 0.347349 0.819285
O O16 0.234573 0.421893 0.754455
O O17 0.000000 0.411852 0.808863
O O18 0.500000 0.500000 0.446143
O O19 0.742954 0.500000 0.500000
O O20 0.750000 0.250000 0.170088
O O21 0.000000 0.293482 0.144480
O O22 0.500000 0.931024 0.695749
O O23 0.716758 0.000000 0.694948
#
# Coordination Sequence:
#
# PCOD8271718 Si02
#       8
#    16  16  16  16  16   8  16  16
#     4  11  21  35  55  82 116 151 188 230 277 328
#     4   9  18  32  49  71 101 135 169 204 248 305
#     4   9  17  29  47  73 102 131 166 210 255 303
#     4  10  21  38  60  85 112 146 189 234 278 326
#     4   9  19  35  54  75  98 133 175 216 263 315
#     4   9  18  32  51  77 111 149 185 223 270 323
#     4  10  20  35  55  76  99 127 166 214 263 314
#     4  10  20  35  55  78 109 145 179 218 267 322
#
# _framework density 18.624669999999998
#
# number of rings (size 3 to 8) (size 9 to 14) (size 15 to 20)
#    0.000    2.333    0.667    2.000    0.000    4.000 
#    0.000    2.000    0.000    3.200    0.000    3.733 
#    0.000    0.000    0.000    0.000    0.000    0.000 
#
# Total GULP energy -744003.842481 kJ/mol
# GULP energy per Si atom -12400.064041 kJ/mol
# Density = 1.858228 g / cm^3
# Si number density = 18.624670 Si / 1000 Ang^3
#
#
#
# Elastic Constant Matrix: (Units=GPa)
#
#
# Indices 1 2 3 4 5 6 
#
# 1 51.6877 37.8669 28.1444 0.0000 0.0000 0.0000
# 2 37.8669 115.1658 30.8150 0.0000 0.0000 0.0000
# 3 28.1444 30.8150 83.0030 0.0000 0.0000 0.0000
# 4 0.0000 0.0000 0.0000 18.9318 0.0000 0.0000
# 5 0.0000 0.0000 0.0000 0.0000 27.0969 0.0000
# 6 0.0000 0.0000 0.0000 0.0000 0.0000 28.3405
#
#
#
# Elastic Compliance Matrix: (Units=1/GPa)
#
#
# Indices 1 2 3 4 5 6 
#
# 1 0.028656 -0.007575 -0.006904 0.000000 0.000000 0.000000
# 2 -0.007575 0.011643 -0.001754 0.000000 0.000000 0.000000
# 3 -0.006904 -0.001754 0.015040 0.000000 0.000000 0.000000
# 4 0.000000 0.000000 0.000000 0.052821 0.000000 0.000000
# 5 0.000000 0.000000 0.000000 0.000000 0.036905 0.000000
# 6 0.000000 0.000000 0.000000 0.000000 0.000000 0.035285
#
#
# Mechanical properties :
#
#
# Convention : Reuss Voigt Hill
#
# Bulk Modulus (GPa) = 43.72055 49.27879 46.49967
# Shear Modulus (GPa) = 22.68186 25.07585 23.87886
#
# Velocity S-wave (km/s) = 3.49354 3.67328 3.58454
# Velocity P-wave (km/s) = 6.30861 6.67136 6.49252
#
# Compressibility (1/GPa) = 0.02287254
#
# Stress axis : x y z
#
# Youngs Moduli (GPa) = 34.89699 85.88803 66.48902
#
# Poissons Ratio (x) = 0.65058 0.45907
# Poissons Ratio (y) = 0.26433 0.11663
# Poissons Ratio (z) = 0.24094 0.15066
#
# Static dielectric constant tensor:
#      x y z
#    x 3.310270 0.000000 0.000000 
#    y 0.000000 3.596570 0.000000 
#    z 0.000000 0.000000 3.416210 
# 
# 
# High freq. dielectric constant tensor:
#      x y z
#    x 1.716150 0.000000 0.000000 
#    y 0.000000 1.732230 0.000000 
#    z 0.000000 0.000000 1.712330 
# 
# From -- ./inp_files/74014.got.cif
#   From: 2010.03.12/outbox.cif.g09.slc.cpg/sg65_38_cif.got.tgz:74014.got - 2010.04.10 20:52:16.
