data_PCOD8271026
_publ_section_title
;
Structure prediction by ZEFSAII (Michael W. Deem and Ramdas Pophale) SiO2 
 PCOD8271026
Probable space group: C M M M
;
_chemical_formula_sum "Si O2"
_cell_formula_units_Z 88
_cell_length_a 30.511963
_cell_length_b 8.587032
_cell_length_c 17.565520
_cell_angle_alpha 90.000000
_cell_angle_beta 90.000000
_cell_angle_gamma 90.000000
_cell_volume 4602.292759
_symmetry_space_group_name_H-M "C M M M"
_symmetry_group_IT_number 65
_symmetry_cell_setting 'orthorhombic'
loop_
_space_group_symop_operation_xyz
x,y,z
-x,-y,z
x,-y,-z
-x,y,-z
-x,-y,-z
x,y,-z
-x,y,z
x,-y,z
1/2+x,1/2+y,z
1/2-x,1/2-y,z
1/2+x,1/2-y,-z
1/2-x,1/2+y,-z
1/2-x,1/2-y,-z
1/2+x,1/2+y,-z
1/2-x,1/2+y,z
1/2+x,1/2-y,z
loop_
_atom_site_type_symbol
_atom_site_label
_atom_site_fract_x
_atom_site_fract_y
_atom_site_fract_z
Si Si1 0.950421 0.180280 0.410832
Si Si2 0.825648 0.182084 0.917273
Si Si3 0.796286 0.186561 0.753578
Si Si4 0.582992 0.322282 0.853307
Si Si5 0.383335 0.182673 0.297758
Si Si6 0.000000 0.678605 0.918483
O O1 0.945944 0.210424 0.500000
O O2 0.912460 0.283736 0.372239
O O3 0.000000 0.227881 0.384433
O O4 0.942349 0.000000 0.391117
O O5 0.802088 0.249460 0.841495
O O6 0.877392 0.215721 0.910641
O O7 0.816448 0.000000 0.918490
O O8 0.809978 0.253131 0.000000
O O9 0.750000 0.250000 0.723638
O O10 0.832662 0.260757 0.696978
O O11 0.799263 0.000000 0.749864
O O12 0.568287 0.500000 0.860202
O O13 0.596350 0.287645 0.767809
O O14 0.542489 0.215034 0.870672
O O15 0.384664 0.000000 0.279089
O O16 0.000000 0.500000 0.935802
O O17 0.000000 0.768483 0.000000
#
# Coordination Sequence:
#
# PCOD8271026 Si02
#       6
#    16  16  16  16  16   8
#     4   9  19  37  61  88 118 151 185 220 262 319
#     4   8  15  29  49  72  98 130 173 225 277 328
#     4  10  20  35  55  79 108 143 186 232 282 337
#     4  10  20  34  52  72  98 139 187 230 271 325
#     4  11  22  36  56  82 114 147 182 227 277 327
#     4  11  23  35  47  69 102 137 178 231 285 333
#
# _framework density 19.120903999999999
#
# number of rings (size 3 to 8) (size 9 to 14) (size 15 to 20)
#    0.000    2.273    0.000    5.182    1.273    2.545 
#    0.000    0.909    0.000   10.909    0.000    0.000 
#    0.000    0.000    0.000    0.000    0.000    0.000 
#
# Total GULP energy -545294.396338 kJ/mol
# GULP energy per Si atom -12393.054462 kJ/mol
# Density = 1.907738 g / cm^3
# Si number density = 19.120904 Si / 1000 Ang^3
#
#
#
# Elastic Constant Matrix: (Units=GPa)
#
#
# Indices 1 2 3 4 5 6 
#
# 1 129.5586 32.7789 37.5398 0.0000 0.0000 0.0000
# 2 32.7789 55.4221 12.0660 0.0000 0.0000 0.0000
# 3 37.5398 12.0660 57.6513 0.0000 0.0000 0.0000
# 4 0.0000 0.0000 0.0000 19.8854 0.0000 0.0000
# 5 0.0000 0.0000 0.0000 0.0000 18.5127 0.0000
# 6 0.0000 0.0000 0.0000 0.0000 0.0000 22.6341
#
#
#
# Elastic Compliance Matrix: (Units=1/GPa)
#
#
# Indices 1 2 3 4 5 6 
#
# 1 0.010710 -0.005046 -0.005918 0.000000 0.000000 0.000000
# 2 -0.005046 0.021282 -0.001169 0.000000 0.000000 0.000000
# 3 -0.005918 -0.001169 0.021444 0.000000 0.000000 0.000000
# 4 0.000000 0.000000 0.000000 0.050288 0.000000 0.000000
# 5 0.000000 0.000000 0.000000 0.000000 0.054017 0.000000
# 6 0.000000 0.000000 0.000000 0.000000 0.000000 0.044181
#
#
# Mechanical properties :
#
#
# Convention : Reuss Voigt Hill
#
# Bulk Modulus (GPa) = 34.28029 45.26680 39.77354
# Shear Modulus (GPa) = 21.19458 22.88961 22.04209
#
# Velocity S-wave (km/s) = 3.33295 3.46366 3.39894
# Velocity P-wave (km/s) = 5.72525 6.30249 6.02079
#
# Compressibility (1/GPa) = 0.02917128
#
# Stress axis : x y z
#
# Youngs Moduli (GPa) = 93.37252 46.98787 46.63415
#
# Poissons Ratio (x) = 0.23709 0.27596
# Poissons Ratio (y) = 0.47115 0.05449
# Poissons Ratio (z) = 0.55255 0.05491
#
# Static dielectric constant tensor:
#      x y z
#    x 3.658160 0.000000 0.000000 
#    y 0.000000 3.301850 0.000000 
#    z 0.000000 0.000000 3.446490 
# 
# 
# High freq. dielectric constant tensor:
#      x y z
#    x 1.747170 0.000000 0.000000 
#    y 0.000000 1.730530 0.000000 
#    z 0.000000 0.000000 1.722910 
# 
# From -- ./inp_files/50363.got.cif
#   From: 2010.03.12/outbox.cif.g09.slc.cpg/sg65_26_cif.got.tgz:50363.got - 2010.04.10 20:52:16.
