data_PCOD8271530
_publ_section_title
;
Structure prediction by ZEFSAII (Michael W. Deem and Ramdas Pophale) SiO2 
 PCOD8271530
Probable space group: C M M M
;
_chemical_formula_sum "Si O2"
_cell_formula_units_Z 80
_cell_length_a 31.237151
_cell_length_b 9.199164
_cell_length_c 14.392733
_cell_angle_alpha 90.000000
_cell_angle_beta 90.000000
_cell_angle_gamma 90.000000
_cell_volume 4135.833505
_symmetry_space_group_name_H-M "C M M M"
_symmetry_group_IT_number 65
_symmetry_cell_setting 'orthorhombic'
loop_
_space_group_symop_operation_xyz
x,y,z
-x,-y,z
x,-y,-z
-x,y,-z
-x,-y,-z
x,y,-z
-x,y,z
x,-y,z
1/2+x,1/2+y,z
1/2-x,1/2-y,z
1/2+x,1/2-y,-z
1/2-x,1/2+y,-z
1/2-x,1/2-y,-z
1/2+x,1/2+y,-z
1/2-x,1/2+y,z
1/2+x,1/2-y,z
loop_
_atom_site_type_symbol
_atom_site_label
_atom_site_fract_x
_atom_site_fract_y
_atom_site_fract_z
Si Si1 0.873800 0.172733 0.895991
Si Si2 0.823462 0.667291 0.605761
Si Si3 0.923065 0.331728 0.603920
Si Si4 0.452455 0.331574 0.776899
Si Si5 0.291932 0.672470 0.221616
O O1 0.916846 0.233887 0.846792
O O2 0.832268 0.224941 0.839362
O O3 0.875339 0.000000 0.900020
O O4 0.871658 0.237497 0.000000
O O5 0.809440 0.699104 0.500000
O O6 0.813619 0.500000 0.631794
O O7 0.873273 0.701524 0.618896
O O8 0.797337 0.774247 0.672472
O O9 0.936796 0.285364 0.500000
O O10 0.932825 0.500000 0.619747
O O11 0.950761 0.242074 0.676534
O O12 0.500000 0.306710 0.819147
O O13 0.442832 0.500000 0.761006
O O14 0.286146 0.500000 0.219723
O O15 0.250000 0.750000 0.178835
#
# Coordination Sequence:
#
# PCOD8271530 Si02
#       5
#    16  16  16  16  16
#     4   9  19  37  58  80 108 141 179 225 276 327
#     4   9  18  34  56  81 110 145 184 224 266 317
#     4   9  18  33  54  79 110 149 186 220 264 320
#     4  10  20  34  55  84 113 142 181 226 270 318
#     4  11  22  36  57  83 111 144 181 223 270 322
#
# _framework density 19.343138
#
# number of rings (size 3 to 8) (size 9 to 14) (size 15 to 20)
#    0.000    2.400    2.000    1.800    0.000    2.800 
#    0.000    6.000    0.000    4.800    0.000    1.400 
#    0.000    0.000    0.000    0.000    0.000    0.000 
#
# Total GULP energy -495987.005502 kJ/mol
# GULP energy per Si atom -12399.675138 kJ/mol
# Density = 1.929911 g / cm^3
# Si number density = 19.343138 Si / 1000 Ang^3
#
#
#
# Elastic Constant Matrix: (Units=GPa)
#
#
# Indices 1 2 3 4 5 6 
#
# 1 136.5081 41.4073 69.9164 0.0000 0.0000 0.0000
# 2 41.4073 50.5099 34.8189 0.0000 0.0000 0.0000
# 3 69.9164 34.8189 129.1146 0.0000 0.0000 0.0000
# 4 0.0000 0.0000 0.0000 14.6455 0.0000 0.0000
# 5 0.0000 0.0000 0.0000 0.0000 14.1918 0.0000
# 6 0.0000 0.0000 0.0000 0.0000 0.0000 26.9015
#
#
#
# Elastic Compliance Matrix: (Units=1/GPa)
#
#
# Indices 1 2 3 4 5 6 
#
# 1 0.011590 -0.006357 -0.004562 0.000000 0.000000 0.000000
# 2 -0.006357 0.027805 -0.004056 0.000000 0.000000 0.000000
# 3 -0.004562 -0.004056 0.011309 0.000000 0.000000 0.000000
# 4 0.000000 0.000000 0.000000 0.068281 0.000000 0.000000
# 5 0.000000 0.000000 0.000000 0.000000 0.070463 0.000000
# 6 0.000000 0.000000 0.000000 0.000000 0.000000 0.037173
#
#
# Mechanical properties :
#
#
# Convention : Reuss Voigt Hill
#
# Bulk Modulus (GPa) = 48.18089 67.60198 57.89143
# Shear Modulus (GPa) = 18.97606 22.48041 20.72823
#
# Velocity S-wave (km/s) = 3.13553 3.41279 3.27709
# Velocity P-wave (km/s) = 6.17019 7.11015 6.65678
#
# Compressibility (1/GPa) = 0.02075512
#
# Stress axis : x y z
#
# Youngs Moduli (GPa) = 86.27868 35.96419 88.42326
#
# Poissons Ratio (x) = 0.22862 0.40338
# Poissons Ratio (y) = 0.54846 0.35866
# Poissons Ratio (z) = 0.39360 0.14588
#
# Static dielectric constant tensor:
#      x y z
#    x 3.642040 0.000000 0.000000 
#    y 0.000000 3.212610 0.000000 
#    z 0.000000 0.000000 3.597600 
# 
# 
# High freq. dielectric constant tensor:
#      x y z
#    x 1.761150 0.000000 0.000000 
#    y 0.000000 1.724270 0.000000 
#    z 0.000000 0.000000 1.747420 
# 
# From -- ./inp_files/33511.got.cif
#   From: 2010.03.12/outbox.cif.g09.slc.cpg/sg65_17_cif.got.tgz:33511.got - 2010.04.10 20:52:16.
