data_PCOD8271740
_publ_section_title
;
Structure prediction by ZEFSAII (Michael W. Deem and Ramdas Pophale) SiO2 
 PCOD8271740
Probable space group: C M M M
;
_chemical_formula_sum "Si O2"
_cell_formula_units_Z 64
_cell_length_a 17.641568
_cell_length_b 8.927804
_cell_length_c 20.843146
_cell_angle_alpha 90.000000
_cell_angle_beta 90.000000
_cell_angle_gamma 90.000000
_cell_volume 3282.805111
_symmetry_space_group_name_H-M "C M M M"
_symmetry_group_IT_number 65
_symmetry_cell_setting 'orthorhombic'
loop_
_space_group_symop_operation_xyz
x,y,z
-x,-y,z
x,-y,-z
-x,y,-z
-x,-y,-z
x,y,-z
-x,y,z
x,-y,z
1/2+x,1/2+y,z
1/2-x,1/2-y,z
1/2+x,1/2-y,-z
1/2-x,1/2+y,-z
1/2-x,1/2-y,-z
1/2+x,1/2+y,-z
1/2-x,1/2+y,z
1/2+x,1/2-y,z
loop_
_atom_site_type_symbol
_atom_site_label
_atom_site_fract_x
_atom_site_fract_y
_atom_site_fract_z
Si Si1 0.168336 0.177246 0.500000
Si Si2 0.410032 0.829297 0.618109
Si Si3 0.409741 0.668805 0.253849
Si Si4 0.909605 0.831052 0.000000
Si Si5 0.090427 0.330972 0.872941
O O1 0.250000 0.250000 0.500000
O O2 0.123195 0.227708 0.437541
O O3 0.175943 0.000000 0.500000
O O4 0.500000 0.821163 0.613817
O O5 0.380545 0.764872 0.685792
O O6 0.381553 0.000000 0.610960
O O7 0.500000 0.668025 0.252349
O O8 0.378246 0.500000 0.259049
O O9 0.377808 0.743510 0.188993
O O10 0.878105 0.748066 0.936942
O O11 0.000000 0.829047 0.000000
O O12 0.878777 0.000000 0.000000
O O13 0.121192 0.500000 0.871019
O O14 0.000000 0.329205 0.872810
#
# Coordination Sequence:
#
# PCOD8271740 Si02
#       5
#     8  16  16   8  16
#     4  12  25  40  57  77 103 133 165 202 247 298
#     4  10  20  35  55  78 103 131 165 205 248 295
#     4   9  16  26  41  62  87 116 153 196 239 283
#     4   9  15  21  29  43  67 103 146 189 232 281
#     4   9  15  22  32  48  73 107 147 190 235 282
#
# _framework density 19.495522000000001
#
# number of rings (size 3 to 8) (size 9 to 14) (size 15 to 20)
#    0.000    2.375    0.000    4.125    0.000   10.500 
#    0.000    0.000    0.000    0.000    0.000    0.000 
#    0.000    0.000    0.000    1.125    0.000   17.000 
#
# Total GULP energy -396819.858754 kJ/mol
# GULP energy per Si atom -12400.620586 kJ/mol
# Density = 1.945115 g / cm^3
# Si number density = 19.495522 Si / 1000 Ang^3
#
#
#
# Elastic Constant Matrix: (Units=GPa)
#
#
# Indices 1 2 3 4 5 6 
#
# 1 10.0310 20.3611 19.4543 0.0000 0.0000 0.0000
# 2 20.3611 200.7255 94.1822 0.0000 0.0000 0.0000
# 3 19.4543 94.1822 195.2815 0.0000 0.0000 0.0000
# 4 0.0000 0.0000 0.0000 43.7006 0.0000 0.0000
# 5 0.0000 0.0000 0.0000 0.0000 -4.1015 0.0000
# 6 0.0000 0.0000 0.0000 0.0000 0.0000 14.4500
#
#
#
# Elastic Compliance Matrix: (Units=1/GPa)
#
#
# Indices 1 2 3 4 5 6 
#
# 1 0.136672 -0.009662 -0.008956 0.000000 0.000000 0.000000
# 2 -0.009662 0.007122 -0.002472 0.000000 0.000000 0.000000
# 3 -0.008956 -0.002472 0.007205 0.000000 0.000000 0.000000
# 4 0.000000 0.000000 0.000000 0.022883 0.000000 0.000000
# 5 0.000000 0.000000 0.000000 0.000000 -0.243812 0.000000
# 6 0.000000 0.000000 0.000000 0.000000 0.000000 0.069204
#
#
# Mechanical properties :
#
#
# Convention : Reuss Voigt Hill
#
# Bulk Modulus (GPa) = 9.18950 74.89258 42.04104
# Shear Modulus (GPa) = 64.32797 28.94586 46.63692
#
# Velocity S-wave (km/s) = 5.75047 3.85742 4.89630
# Velocity P-wave (km/s) = 6.98673 7.63795 7.31959
#
# Compressibility (1/GPa) = 0.10881986
#
# Stress axis : x y z
#
# Youngs Moduli (GPa) = 7.31679 140.40941 138.78452
#
# Poissons Ratio (x) = 1.35657 1.24294
# Poissons Ratio (y) = 0.07069 0.34313
# Poissons Ratio (z) = 0.06553 0.34715
#
# Static dielectric constant tensor:
#      x y z
#    x 2.866330 0.000000 0.000000 
#    y 0.000000 3.843110 0.000000 
#    z 0.000000 0.000000 3.836920 
# 
# 
# High freq. dielectric constant tensor:
#      x y z
#    x 1.676460 0.000000 0.000000 
#    y 0.000000 1.781150 0.000000 
#    z 0.000000 0.000000 1.781970 
# 
# From -- ./inp_files/63244.got.cif
#   From: 2010.03.12/outbox.cif.g09.slc.cpg/sg65_32_cif.got.tgz:63244.got - 2010.04.10 20:52:16.
