data_PCOD8271782
_publ_section_title
;
Structure prediction by ZEFSAII (Michael W. Deem and Ramdas Pophale) SiO2 
 PCOD8271782
Probable space group: C M M M
;
_chemical_formula_sum "Si O2"
_cell_formula_units_Z 56
_cell_length_a 7.918813
_cell_length_b 18.871226
_cell_length_c 19.798413
_cell_angle_alpha 90.000000
_cell_angle_beta 90.000000
_cell_angle_gamma 90.000000
_cell_volume 2958.629496
_symmetry_space_group_name_H-M "C M M M"
_symmetry_group_IT_number 65
_symmetry_cell_setting 'orthorhombic'
loop_
_space_group_symop_operation_xyz
x,y,z
-x,-y,z
x,-y,-z
-x,y,-z
-x,-y,-z
x,y,-z
-x,y,z
x,-y,z
1/2+x,1/2+y,z
1/2-x,1/2-y,z
1/2+x,1/2-y,-z
1/2-x,1/2+y,-z
1/2-x,1/2-y,-z
1/2+x,1/2+y,-z
1/2-x,1/2+y,z
1/2+x,1/2-y,z
loop_
_atom_site_type_symbol
_atom_site_label
_atom_site_fract_x
_atom_site_fract_y
_atom_site_fract_z
Si Si1 0.500000 0.584167 0.075454
Si Si2 0.191816 0.831057 0.286223
Si Si3 0.802524 0.669311 0.427271
Si Si4 0.188915 0.418164 0.165007
O O1 0.500000 0.500000 0.071754
O O2 0.670291 0.611011 0.112825
O O3 0.500000 0.616433 0.000000
O O4 0.250000 0.750000 0.286306
O O5 0.210658 0.864381 0.361885
O O6 0.304697 0.875340 0.234673
O O7 0.000000 0.837249 0.262304
O O8 0.755160 0.632695 0.500000
O O9 0.750000 0.750000 0.432818
O O10 0.000000 0.663616 0.413711
O O11 0.225878 0.500000 0.181612
O O12 0.000000 0.408628 0.134151
#
# Coordination Sequence:
#
# PCOD8271782 Si02
#       4
#     8  16  16  16
#     4   9  18  34  56  82 107 133 170 210 253 306
#     4  11  20  31  50  76 104 137 177 216 259 309
#     4   9  16  26  41  64  96 130 169 215 259 302
#     4  10  20  35  55  80 108 137 171 213 259 305
#
# _framework density 18.927681
#
# number of rings (size 3 to 8) (size 9 to 14) (size 15 to 20)
#    0.000    2.143    1.429    5.143    0.000    2.286 
#    0.000    2.857    0.000    1.714    0.000    6.000 
#    0.000    0.000    0.000    0.000    0.000    0.000 
#
# Total GULP energy -346965.347484 kJ/mol
# GULP energy per Si atom -12391.619553 kJ/mol
# Density = 1.888460 g / cm^3
# Si number density = 18.927681 Si / 1000 Ang^3
#
#
#
# Elastic Constant Matrix: (Units=GPa)
#
#
# Indices 1 2 3 4 5 6 
#
# 1 124.6168 17.9464 51.5423 0.0000 0.0000 0.0000
# 2 17.9464 28.5883 31.2321 0.0000 0.0000 0.0000
# 3 51.5423 31.2321 154.6327 0.0000 0.0000 0.0000
# 4 0.0000 0.0000 0.0000 9.8503 0.0000 0.0000
# 5 0.0000 0.0000 0.0000 0.0000 29.7093 0.0000
# 6 0.0000 0.0000 0.0000 0.0000 0.0000 18.3557
#
#
#
# Elastic Compliance Matrix: (Units=1/GPa)
#
#
# Indices 1 2 3 4 5 6 
#
# 1 0.009534 -0.003225 -0.002527 0.000000 0.000000 0.000000
# 2 -0.003225 0.045974 -0.008211 0.000000 0.000000 0.000000
# 3 -0.002527 -0.008211 0.008967 0.000000 0.000000 0.000000
# 4 0.000000 0.000000 0.000000 0.101519 0.000000 0.000000
# 5 0.000000 0.000000 0.000000 0.000000 0.033659 0.000000
# 6 0.000000 0.000000 0.000000 0.000000 0.000000 0.054479
#
#
# Mechanical properties :
#
#
# Convention : Reuss Voigt Hill
#
# Bulk Modulus (GPa) = 27.35897 56.58659 41.97278
# Shear Modulus (GPa) = 16.99289 25.39088 21.19189
#
# Velocity S-wave (km/s) = 2.99955 3.66658 3.34971
# Velocity P-wave (km/s) = 5.14609 6.91998 6.09789
#
# Compressibility (1/GPa) = 0.03655108
#
# Stress axis : x y z
#
# Youngs Moduli (GPa) = 104.88766 21.75158 111.51436
#
# Poissons Ratio (x) = 0.07014 0.28175
# Poissons Ratio (y) = 0.33824 0.91561
# Poissons Ratio (z) = 0.26500 0.17860
#
# Static dielectric constant tensor:
#      x y z
#    x 3.747540 0.000000 0.000000 
#    y 0.000000 2.890260 0.000000 
#    z 0.000000 0.000000 3.980050 
# 
# 
# High freq. dielectric constant tensor:
#      x y z
#    x 1.755230 0.000000 0.000000 
#    y 0.000000 1.665440 0.000000 
#    z 0.000000 0.000000 1.745860 
# 
# From -- ./inp_files/53900.got.cif
#   From: 2010.03.12/outbox.cif.g09.slc.cpg/sg65_27_cif.got.tgz:53900.got - 2010.04.10 20:52:16.
