data_PCOD8271732
_publ_section_title
;
Structure prediction by ZEFSAII (Michael W. Deem and Ramdas Pophale) SiO2 
 PCOD8271732
Probable space group: C M M M
;
_chemical_formula_sum "Si O2"
_cell_formula_units_Z 80
_cell_length_a 8.585907
_cell_length_b 18.977527
_cell_length_c 25.789994
_cell_angle_alpha 90.000000
_cell_angle_beta 90.000000
_cell_angle_gamma 90.000000
_cell_volume 4202.203103
_symmetry_space_group_name_H-M "C M M M"
_symmetry_group_IT_number 65
_symmetry_cell_setting 'orthorhombic'
loop_
_space_group_symop_operation_xyz
x,y,z
-x,-y,z
x,-y,-z
-x,y,-z
-x,-y,-z
x,y,-z
-x,y,z
x,-y,z
1/2+x,1/2+y,z
1/2-x,1/2-y,z
1/2+x,1/2-y,-z
1/2-x,1/2+y,-z
1/2-x,1/2-y,-z
1/2+x,1/2+y,-z
1/2-x,1/2+y,z
1/2+x,1/2-y,z
loop_
_atom_site_type_symbol
_atom_site_label
_atom_site_fract_x
_atom_site_fract_y
_atom_site_fract_z
Si Si1 0.684804 0.173867 0.681533
Si Si2 0.183866 0.918414 0.406427
Si Si3 0.828221 0.584149 0.000000
Si Si4 0.816559 0.328651 0.500000
Si Si5 0.816250 0.323969 0.798972
Si Si6 0.313209 0.921399 0.110814
O O1 0.500000 0.173972 0.673818
O O2 0.750000 0.250000 0.663948
O O3 0.761985 0.111534 0.648743
O O4 0.735768 0.157126 0.740556
O O5 0.264306 0.871614 0.449952
O O6 0.000000 0.911571 0.412513
O O7 0.236099 0.000000 0.411311
O O8 0.747168 0.607236 0.054696
O O9 0.840602 0.500000 0.000000
O O10 0.000000 0.617543 0.000000
O O11 0.750000 0.250000 0.500000
O O12 0.000000 0.321686 0.500000
O O13 0.750000 0.250000 0.816409
O O14 0.746042 0.378150 0.840676
O O15 0.000000 0.321990 0.801889
O O16 0.500000 0.919280 0.109037
O O17 0.252610 0.000000 0.120066
#
# Coordination Sequence:
#
# PCOD8271732 Si02
#       6
#    16  16   8   8  16  16
#     4  10  20  35  55  77 103 138 179 218 259 311
#     4  11  24  41  60  84 115 145 174 215 264 308
#     4   7  10  18  35  60  89 119 154 201 252 298
#     4  12  25  42  65  89 115 147 183 218 253 302
#     4   9  18  31  48  70  98 131 164 205 253 302
#     4   8  13  23  41  65  91 121 161 207 252 297
#
# _framework density 19.037633
#
# number of rings (size 3 to 8) (size 9 to 14) (size 15 to 20)
#    0.000    2.500    0.000    4.200    0.000    4.400 
#    0.000    2.500    0.000    0.600    0.000    0.000 
#    0.000    2.400    0.000    0.000    0.000    0.000 
#
# Total GULP energy -495710.762770 kJ/mol
# GULP energy per Si atom -12392.769069 kJ/mol
# Density = 1.899430 g / cm^3
# Si number density = 19.037633 Si / 1000 Ang^3
#
#
#
# Elastic Constant Matrix: (Units=GPa)
#
#
# Indices 1 2 3 4 5 6 
#
# 1 53.0400 40.0495 29.8664 0.0000 0.0000 0.0000
# 2 40.0495 142.2809 96.1881 0.0000 0.0000 0.0000
# 3 29.8664 96.1881 154.7761 0.0000 0.0000 0.0000
# 4 0.0000 0.0000 0.0000 39.4101 0.0000 0.0000
# 5 0.0000 0.0000 0.0000 0.0000 10.7112 0.0000
# 6 0.0000 0.0000 0.0000 0.0000 0.0000 24.4396
#
#
#
# Elastic Compliance Matrix: (Units=1/GPa)
#
#
# Indices 1 2 3 4 5 6 
#
# 1 0.023992 -0.006249 -0.000746 0.000000 0.000000 0.000000
# 2 -0.006249 0.013748 -0.007338 0.000000 0.000000 0.000000
# 3 -0.000746 -0.007338 0.011165 0.000000 0.000000 0.000000
# 4 0.000000 0.000000 0.000000 0.025374 0.000000 0.000000
# 5 0.000000 0.000000 0.000000 0.000000 0.093360 0.000000
# 6 0.000000 0.000000 0.000000 0.000000 0.000000 0.040917
#
#
# Mechanical properties :
#
#
# Convention : Reuss Voigt Hill
#
# Bulk Modulus (GPa) = 49.40894 75.81167 62.61030
# Shear Modulus (GPa) = 20.49427 27.17838 23.83633
#
# Velocity S-wave (km/s) = 3.28459 3.78248 3.54229
# Velocity P-wave (km/s) = 6.35565 7.68014 7.04908
#
# Compressibility (1/GPa) = 0.02023925
#
# Stress axis : x y z
#
# Youngs Moduli (GPa) = 41.67996 72.73611 89.56215
#
# Poissons Ratio (x) = 0.45453 0.06683
# Poissons Ratio (y) = 0.26046 0.65723
# Poissons Ratio (z) = 0.03110 0.53376
#
# Static dielectric constant tensor:
#      x y z
#    x 3.208410 0.000000 0.000000 
#    y 0.000000 3.507040 0.000000 
#    z 0.000000 0.000000 4.046790 
# 
# 
# High freq. dielectric constant tensor:
#      x y z
#    x 1.711850 0.000000 0.000000 
#    y 0.000000 1.727370 0.000000 
#    z 0.000000 0.000000 1.764540 
# 
# From -- ./inp_files/72884.got.cif
#   From: 2010.03.12/outbox.cif.g09.slc.cpg/sg65_37_cif.got.tgz:72884.got - 2010.04.10 20:52:16.
