data_PCOD8271282
_publ_section_title
;
Structure prediction by ZEFSAII (Michael W. Deem and Ramdas Pophale) SiO2 
 PCOD8271282
Probable space group: C M M M
;
_chemical_formula_sum "Si O2"
_cell_formula_units_Z 104
_cell_length_a 8.783880
_cell_length_b 28.217885
_cell_length_c 22.853370
_cell_angle_alpha 90.000000
_cell_angle_beta 90.000000
_cell_angle_gamma 90.000000
_cell_volume 5664.493780
_symmetry_space_group_name_H-M "C M M M"
_symmetry_group_IT_number 65
_symmetry_cell_setting 'orthorhombic'
loop_
_space_group_symop_operation_xyz
x,y,z
-x,-y,z
x,-y,-z
-x,y,-z
-x,-y,-z
x,y,-z
-x,y,z
x,-y,z
1/2+x,1/2+y,z
1/2-x,1/2-y,z
1/2+x,1/2-y,-z
1/2-x,1/2+y,-z
1/2-x,1/2-y,-z
1/2+x,1/2+y,-z
1/2-x,1/2+y,z
1/2+x,1/2-y,z
loop_
_atom_site_type_symbol
_atom_site_label
_atom_site_fract_x
_atom_site_fract_y
_atom_site_fract_z
Si Si1 0.678649 0.198591 0.500000
Si Si2 0.322727 0.053663 0.648275
Si Si3 0.324835 0.446550 0.772937
Si Si4 0.679656 0.140010 0.826372
Si Si5 0.675321 0.643273 0.604757
Si Si6 0.177356 0.199521 0.276669
Si Si7 0.678579 0.200939 0.934618
O O1 0.500000 0.204861 0.500000
O O2 0.750000 0.250000 0.500000
O O3 0.726626 0.170871 0.442337
O O4 0.500000 0.065856 0.644199
O O5 0.271523 0.060949 0.714689
O O6 0.230176 0.088762 0.606135
O O7 0.288680 0.000000 0.627652
O O8 0.500000 0.434389 0.758535
O O9 0.307767 0.500000 0.797013
O O10 0.260628 0.410962 0.821592
O O11 0.500000 0.133925 0.819283
O O12 0.738768 0.176452 0.778076
O O13 0.725832 0.159434 0.890226
O O14 0.500000 0.645194 0.585899
O O15 0.703485 0.666131 0.667805
O O16 0.250000 0.250000 0.290982
O O17 0.000000 0.205633 0.262095
O O18 0.500000 0.208632 0.933937
O O19 0.750000 0.250000 0.912771
O O20 0.736344 0.187628 0.000000
#
# Coordination Sequence:
#
# PCOD8271282 Si02
#       7
#     8  16  16  16  16  16  16
#     4  12  26  44  65  86 113 150 194 239 277 331
#     4  10  20  35  58  87 117 148 184 228 278 333
#     4  10  20  34  53  79 112 147 183 226 276 332
#     4  11  21  33  54  81 110 143 182 230 279 332
#     4  11  23  40  61  85 114 150 189 231 279 333
#     4  11  23  36  53  79 112 146 180 226 277 330
#     4   9  19  35  53  76 107 145 187 228 273 327
#
# _framework density 18.359981000000001
#
# number of rings (size 3 to 8) (size 9 to 14) (size 15 to 20)
#    0.000    1.538    1.538    3.923    0.000    7.385 
#    0.000    0.385    0.000    2.769    0.000    3.231 
#    0.000    0.000    0.000    0.000    0.000    0.000 
#
# Total GULP energy -644997.249744 kJ/mol
# GULP energy per Si atom -12403.793264 kJ/mol
# Density = 1.831819 g / cm^3
# Si number density = 18.359981 Si / 1000 Ang^3
#
#
#
# Elastic Constant Matrix: (Units=GPa)
#
#
# Indices 1 2 3 4 5 6 
#
# 1 85.6500 52.4949 35.4950 0.0000 0.0000 0.0000
# 2 52.4949 133.5197 43.9288 0.0000 0.0000 0.0000
# 3 35.4950 43.9288 73.7794 0.0000 0.0000 0.0000
# 4 0.0000 0.0000 0.0000 24.9514 0.0000 0.0000
# 5 0.0000 0.0000 0.0000 0.0000 21.4393 0.0000
# 6 0.0000 0.0000 0.0000 0.0000 0.0000 36.6848
#
#
#
# Elastic Compliance Matrix: (Units=1/GPa)
#
#
# Indices 1 2 3 4 5 6 
#
# 1 0.016831 -0.004916 -0.005170 0.000000 0.000000 0.000000
# 2 -0.004916 0.010750 -0.004035 0.000000 0.000000 0.000000
# 3 -0.005170 -0.004035 0.018444 0.000000 0.000000 0.000000
# 4 0.000000 0.000000 0.000000 0.040078 0.000000 0.000000
# 5 0.000000 0.000000 0.000000 0.000000 0.046643 0.000000
# 6 0.000000 0.000000 0.000000 0.000000 0.000000 0.027259
#
#
# Mechanical properties :
#
#
# Convention : Reuss Voigt Hill
#
# Bulk Modulus (GPa) = 56.23868 61.86515 59.05192
# Shear Modulus (GPa) = 25.74964 27.35045 26.55005
#
# Velocity S-wave (km/s) = 3.74904 3.86382 3.80686
# Velocity P-wave (km/s) = 7.03122 7.32627 7.18026
#
# Compressibility (1/GPa) = 0.01778135
#
# Stress axis : x y z
#
# Youngs Moduli (GPa) = 59.41307 93.02181 54.21804
#
# Poissons Ratio (x) = 0.45733 0.28032
# Poissons Ratio (y) = 0.29210 0.21880
# Poissons Ratio (z) = 0.30718 0.37539
#
# Static dielectric constant tensor:
#      x y z
#    x 3.531560 0.000000 0.000000 
#    y 0.000000 3.655290 0.000000 
#    z 0.000000 0.000000 3.382330 
# 
# 
# High freq. dielectric constant tensor:
#      x y z
#    x 1.728080 0.000000 0.000000 
#    y 0.000000 1.722060 0.000000 
#    z 0.000000 0.000000 1.692800 
# 
# From -- ./inp_files/60412.got.cif
#   From: 2010.03.12/outbox.cif.g09.slc.cpg/sg65_31_cif.got.tgz:60412.got - 2010.04.10 20:52:16.
