data_PCOD8271646
_publ_section_title
;
Structure prediction by ZEFSAII (Michael W. Deem and Ramdas Pophale) SiO2 
 PCOD8271646
Probable space group: C M M M
;
_chemical_formula_sum "Si O2"
_cell_formula_units_Z 80
_cell_length_a 16.889787
_cell_length_b 10.029246
_cell_length_c 24.681893
_cell_angle_alpha 90.000000
_cell_angle_beta 90.000000
_cell_angle_gamma 90.000000
_cell_volume 4180.910991
_symmetry_space_group_name_H-M "C M M M"
_symmetry_group_IT_number 65
_symmetry_cell_setting 'orthorhombic'
loop_
_space_group_symop_operation_xyz
x,y,z
-x,-y,z
x,-y,-z
-x,y,-z
-x,-y,-z
x,y,-z
-x,y,z
x,-y,z
1/2+x,1/2+y,z
1/2-x,1/2-y,z
1/2+x,1/2-y,-z
1/2-x,1/2+y,-z
1/2-x,1/2-y,-z
1/2+x,1/2+y,-z
1/2-x,1/2+y,z
1/2+x,1/2-y,z
loop_
_atom_site_type_symbol
_atom_site_label
_atom_site_fract_x
_atom_site_fract_y
_atom_site_fract_z
Si Si1 0.093938 0.000000 0.437799
Si Si2 0.411551 0.000000 0.436564
Si Si3 0.905021 0.848824 0.173865
Si Si4 0.906623 0.650724 0.734649
Si Si5 0.342446 0.756546 0.378032
Si Si6 0.911639 0.158066 0.942702
O O1 0.126582 0.875310 0.405751
O O2 0.124270 0.000000 0.500000
O O3 0.000000 0.000000 0.436465
O O4 0.361635 0.126793 0.419490
O O5 0.500000 0.000000 0.410020
O O6 0.420945 0.000000 0.500000
O O7 0.871094 0.744602 0.217898
O O8 0.871596 0.799215 0.114596
O O9 0.000000 0.847547 0.172565
O O10 0.876234 0.000000 0.187627
O O11 0.871180 0.500000 0.738081
O O12 0.886198 0.719592 0.678281
O O13 0.000000 0.643514 0.740697
O O14 0.250000 0.750000 0.366608
O O15 0.000000 0.217874 0.944421
O O16 0.916800 0.000000 0.940993
O O17 0.868773 0.202932 0.000000
#
# Coordination Sequence:
#
# PCOD8271646 Si02
#       6
#     8   8  16  16  16  16
#     4  11  25  43  63  89 117 143 176 223 276 327
#     4  11  23  43  69  89 111 149 190 219 258 333
#     4   8  14  24  41  68  96 129 178 227 269 315
#     4  10  20  35  54  73 101 143 187 225 265 324
#     4  12  25  40  60  87 117 147 182 228 279 325
#     4   7   9  15  30  55  90 128 165 211 267 320
#
# _framework density 19.134585999999999
#
# number of rings (size 3 to 8) (size 9 to 14) (size 15 to 20)
#    0.000    2.400    1.000    4.800    1.400    4.000 
#    0.000    0.000    0.000    0.600    0.000    4.200 
#    0.000    0.800    0.000    1.000    0.000    1.400 
#
# Total GULP energy -495532.787066 kJ/mol
# GULP energy per Si atom -12388.319677 kJ/mol
# Density = 1.909103 g / cm^3
# Si number density = 19.134586 Si / 1000 Ang^3
#
#
#
# Elastic Constant Matrix: (Units=GPa)
#
#
# Indices 1 2 3 4 5 6 
#
# 1 16.2925 10.4056 2.1208 0.0000 0.0000 0.0000
# 2 10.4056 136.5621 81.7319 0.0000 0.0000 0.0000
# 3 2.1208 81.7319 177.6448 0.0000 0.0000 0.0000
# 4 0.0000 0.0000 0.0000 18.6667 0.0000 0.0000
# 5 0.0000 0.0000 0.0000 0.0000 -2.5092 0.0000
# 6 0.0000 0.0000 0.0000 0.0000 0.0000 14.4723
#
#
#
# Elastic Compliance Matrix: (Units=1/GPa)
#
#
# Indices 1 2 3 4 5 6 
#
# 1 0.065068 -0.006200 0.002076 0.000000 0.000000 0.000000
# 2 -0.006200 0.010696 -0.004847 0.000000 0.000000 0.000000
# 3 0.002076 -0.004847 0.007835 0.000000 0.000000 0.000000
# 4 0.000000 0.000000 0.000000 0.053571 0.000000 0.000000
# 5 0.000000 0.000000 0.000000 0.000000 -0.398528 0.000000
# 6 0.000000 0.000000 0.000000 0.000000 0.000000 0.069098
#
#
# Mechanical properties :
#
#
# Convention : Reuss Voigt Hill
#
# Bulk Modulus (GPa) = 15.23112 57.66843 36.44977
# Shear Modulus (GPa) = -32.80143 21.87536 -5.46303
#
# Velocity S-wave (km/s) = -4.14484 3.38485 -1.69152
# Velocity P-wave (km/s) = 3.86380 6.74389 3.90839
#
# Compressibility (1/GPa) = 0.06565505
#
# Stress axis : x y z
#
# Youngs Moduli (GPa) = 15.36865 93.49206 127.64035
#
# Poissons Ratio (x) = 0.57968 -0.26497
# Poissons Ratio (y) = 0.09529 0.61869
# Poissons Ratio (z) = -0.03190 0.45317
#
# Static dielectric constant tensor:
#      x y z
#    x 3.096200 0.000000 0.000000 
#    y 0.000000 3.592320 0.000000 
#    z 0.000000 0.000000 4.150160 
# 
# 
# High freq. dielectric constant tensor:
#      x y z
#    x 1.691370 0.000000 0.000000 
#    y 0.000000 1.731340 0.000000 
#    z 0.000000 0.000000 1.772470 
# 
# From -- ./inp_files/75121.got.cif
#   From: 2010.03.12/outbox.cif.g09.slc.cpg/sg65_38_cif.got.tgz:75121.got - 2010.04.10 20:52:16.
