data_PCOD8271523
_publ_section_title
;
Structure prediction by ZEFSAII (Michael W. Deem and Ramdas Pophale) SiO2 
 PCOD8271523
Probable space group: C M M M
;
_chemical_formula_sum "Si O2"
_cell_formula_units_Z 104
_cell_length_a 20.311687
_cell_length_b 9.131682
_cell_length_c 29.537852
_cell_angle_alpha 90.000000
_cell_angle_beta 90.000000
_cell_angle_gamma 90.000000
_cell_volume 5478.676848
_symmetry_space_group_name_H-M "C M M M"
_symmetry_group_IT_number 65
_symmetry_cell_setting 'orthorhombic'
loop_
_space_group_symop_operation_xyz
x,y,z
-x,-y,z
x,-y,-z
-x,y,-z
-x,-y,-z
x,y,-z
-x,y,z
x,-y,z
1/2+x,1/2+y,z
1/2-x,1/2-y,z
1/2+x,1/2-y,-z
1/2-x,1/2+y,-z
1/2-x,1/2-y,-z
1/2+x,1/2+y,-z
1/2-x,1/2+y,z
1/2+x,1/2-y,z
loop_
_atom_site_type_symbol
_atom_site_label
_atom_site_fract_x
_atom_site_fract_y
_atom_site_fract_z
Si Si1 0.924846 0.328358 0.290403
Si Si2 0.816020 0.831316 0.053625
Si Si3 0.313076 0.831790 0.642073
Si Si4 0.127420 0.330659 0.449461
Si Si5 0.922004 0.164785 0.798862
Si Si6 0.000000 0.161078 0.446476
Si Si7 0.922902 0.672645 0.889009
O O1 0.920289 0.500000 0.279627
O O2 0.879670 0.281284 0.332785
O O3 0.897225 0.242235 0.246873
O O4 0.000000 0.283971 0.302197
O O5 0.750000 0.750000 0.071114
O O6 0.880670 0.749665 0.072009
O O7 0.814519 0.000000 0.070109
O O8 0.820489 0.822105 0.000000
O O9 0.250000 0.750000 0.662075
O O10 0.316932 0.800240 0.587971
O O11 0.300659 0.000000 0.651895
O O12 0.150224 0.278931 0.500000
O O13 0.107721 0.500000 0.450737
O O14 0.064357 0.245945 0.430727
O O15 0.898307 0.259976 0.841505
O O16 0.000000 0.160279 0.798245
O O17 0.893044 0.000000 0.801930
O O18 0.000000 0.150919 0.500000
O O19 0.000000 0.000000 0.424442
O O20 0.909268 0.500000 0.888654
O O21 0.000000 0.705934 0.897883
#
# Coordination Sequence:
#
# PCOD8271523 Si02
#       7
#    16  16  16  16  16   8  16
#     4   9  18  34  56  78 101 134 175 216 260 318
#     4  10  21  37  56  78 109 150 193 236 281 329
#     4  10  22  37  54  76 106 140 174 215 263 312
#     4   9  18  33  53  75 101 137 177 212 253 310
#     4   9  17  31  53  81 110 137 171 220 274 325
#     4   9  17  29  47  75 105 129 159 207 259 295
#     4  10  20  34  55  83 114 147 184 228 277 328
#
# _framework density 18.982685
#
# number of rings (size 3 to 8) (size 9 to 14) (size 15 to 20)
#    0.000    2.538    0.000    1.615    1.077    6.462 
#    0.000    2.308    0.000    1.846    0.000    0.000 
#    0.000    0.000    0.000    0.000    0.000    0.000 
#
# Total GULP energy -644665.438028 kJ/mol
# GULP energy per Si atom -12397.412270 kJ/mol
# Density = 1.893948 g / cm^3
# Si number density = 18.982685 Si / 1000 Ang^3
#
#
#
# Elastic Constant Matrix: (Units=GPa)
#
#
# Indices 1 2 3 4 5 6 
#
# 1 95.6559 52.3615 42.0667 0.0000 0.0000 0.0000
# 2 52.3615 100.3787 45.0170 0.0000 0.0000 0.0000
# 3 42.0667 45.0170 72.8432 0.0000 0.0000 0.0000
# 4 0.0000 0.0000 0.0000 26.7017 0.0000 0.0000
# 5 0.0000 0.0000 0.0000 0.0000 12.6802 0.0000
# 6 0.0000 0.0000 0.0000 0.0000 0.0000 27.0943
#
#
#
# Elastic Compliance Matrix: (Units=1/GPa)
#
#
# Indices 1 2 3 4 5 6 
#
# 1 0.016186 -0.005881 -0.005713 0.000000 0.000000 0.000000
# 2 -0.005881 0.015919 -0.006442 0.000000 0.000000 0.000000
# 3 -0.005713 -0.006442 0.021008 0.000000 0.000000 0.000000
# 4 0.000000 0.000000 0.000000 0.037451 0.000000 0.000000
# 5 0.000000 0.000000 0.000000 0.000000 0.078863 0.000000
# 6 0.000000 0.000000 0.000000 0.000000 0.000000 0.036908
#
#
# Mechanical properties :
#
#
# Convention : Reuss Voigt Hill
#
# Bulk Modulus (GPa) = 58.67857 60.86313 59.77085
# Shear Modulus (GPa) = 20.15428 21.92407 21.03918
#
# Velocity S-wave (km/s) = 3.26194 3.40214 3.33278
# Velocity P-wave (km/s) = 6.72054 6.89673 6.80921
#
# Compressibility (1/GPa) = 0.01704200
#
# Stress axis : x y z
#
# Youngs Moduli (GPa) = 61.78288 62.81814 47.60083
#
# Poissons Ratio (x) = 0.36944 0.27193
# Poissons Ratio (y) = 0.36335 0.30662
# Poissons Ratio (z) = 0.35294 0.40465
#
# Static dielectric constant tensor:
#      x y z
#    x 3.257070 0.000000 0.000000 
#    y 0.000000 3.658670 0.000000 
#    z 0.000000 0.000000 3.472140 
# 
# 
# High freq. dielectric constant tensor:
#      x y z
#    x 1.714810 0.000000 0.000000 
#    y 0.000000 1.743790 0.000000 
#    z 0.000000 0.000000 1.733210 
# 
# From -- ./inp_files/78251.got.cif
#   From: 2010.03.12/outbox.cif.g09.slc.cpg/sg65_40_cif.got.tgz:78251.got - 2010.04.10 20:52:16.
