data_PCOD8271118
_publ_section_title
;
Structure prediction by ZEFSAII (Michael W. Deem and Ramdas Pophale) SiO2 
 PCOD8271118
Probable space group: C M M M
;
_chemical_formula_sum "Si O2"
_cell_formula_units_Z 88
_cell_length_a 18.603037
_cell_length_b 7.701144
_cell_length_c 29.524601
_cell_angle_alpha 90.000000
_cell_angle_beta 90.000000
_cell_angle_gamma 90.000000
_cell_volume 4229.832124
_symmetry_space_group_name_H-M "C M M M"
_symmetry_group_IT_number 65
_symmetry_cell_setting 'orthorhombic'
loop_
_space_group_symop_operation_xyz
x,y,z
-x,-y,z
x,-y,-z
-x,y,-z
-x,-y,-z
x,y,-z
-x,y,z
x,-y,z
1/2+x,1/2+y,z
1/2-x,1/2-y,z
1/2+x,1/2-y,-z
1/2-x,1/2+y,-z
1/2-x,1/2-y,-z
1/2+x,1/2+y,-z
1/2-x,1/2+y,z
1/2+x,1/2-y,z
loop_
_atom_site_type_symbol
_atom_site_label
_atom_site_fract_x
_atom_site_fract_y
_atom_site_fract_z
Si Si1 0.419270 0.793437 0.950808
Si Si2 0.667165 0.195631 0.601554
Si Si3 0.418479 0.302278 0.684557
Si Si4 0.170568 0.296207 0.131178
Si Si5 0.669213 0.204154 0.231957
Si Si6 0.582843 0.500000 0.553566
O O1 0.500000 0.725076 0.947263
O O2 0.377884 0.710057 0.908097
O O3 0.416444 0.000000 0.947746
O O4 0.387234 0.735040 0.000000
O O5 0.750000 0.250000 0.604856
O O6 0.632441 0.192030 0.651554
O O7 0.622686 0.326181 0.570015
O O8 0.662157 0.000000 0.581618
O O9 0.500000 0.229598 0.684028
O O10 0.417383 0.500000 0.667124
O O11 0.387788 0.294549 0.735231
O O12 0.158491 0.500000 0.133261
O O13 0.250000 0.250000 0.116240
O O14 0.154145 0.220855 0.181359
O O15 0.750000 0.250000 0.247196
O O16 0.657442 0.000000 0.234218
O O17 0.500000 0.500000 0.570871
O O18 0.585734 0.500000 0.500000
#
# Coordination Sequence:
#
# PCOD8271118 Si02
#       6
#    16  16  16  16  16   8
#     4   8  14  26  45  68  93 125 167 216 270 329
#     4  12  24  44  71 102 135 179 226 274 328 387
#     4  11  23  39  60  87 123 160 201 254 310 371
#     4   9  18  31  48  71 100 132 171 222 277 335
#     4  10  20  34  52  76 107 146 189 235 289 354
#     4  11  26  48  72 104 145 181 223 281 335 387
#
# _framework density 20.804608000000002
#
# number of rings (size 3 to 8) (size 9 to 14) (size 15 to 20)
#    0.000    1.909    1.818    2.727    0.000    5.091 
#    0.000    2.727    0.000    0.545    0.000    1.273 
#    0.000    0.000    0.000    0.000    0.000    0.000 
#
# Total GULP energy -545461.620900 kJ/mol
# GULP energy per Si atom -12396.855020 kJ/mol
# Density = 2.075726 g / cm^3
# Si number density = 20.804608 Si / 1000 Ang^3
#
#
#
# Elastic Constant Matrix: (Units=GPa)
#
#
# Indices 1 2 3 4 5 6 
#
# 1 152.3735 36.3938 75.7761 0.0000 0.0000 0.0000
# 2 36.3938 86.1808 24.3447 0.0000 0.0000 0.0000
# 3 75.7761 24.3447 118.4674 0.0000 0.0000 0.0000
# 4 0.0000 0.0000 0.0000 9.0257 0.0000 0.0000
# 5 0.0000 0.0000 0.0000 0.0000 43.9592 0.0000
# 6 0.0000 0.0000 0.0000 0.0000 0.0000 24.1826
#
#
#
# Elastic Compliance Matrix: (Units=1/GPa)
#
#
# Indices 1 2 3 4 5 6 
#
# 1 0.010146 -0.002602 -0.005955 0.000000 0.000000 0.000000
# 2 -0.002602 0.012986 -0.001004 0.000000 0.000000 0.000000
# 3 -0.005955 -0.001004 0.012456 0.000000 0.000000 0.000000
# 4 0.000000 0.000000 0.000000 0.110794 0.000000 0.000000
# 5 0.000000 0.000000 0.000000 0.000000 0.022748 0.000000
# 6 0.000000 0.000000 0.000000 0.000000 0.000000 0.041352
#
#
# Mechanical properties :
#
#
# Convention : Reuss Voigt Hill
#
# Bulk Modulus (GPa) = 60.73194 70.00566 65.36880
# Shear Modulus (GPa) = 21.26810 30.13399 25.70104
#
# Velocity S-wave (km/s) = 3.20078 3.80995 3.51857
# Velocity P-wave (km/s) = 6.55095 7.28536 6.92789
#
# Compressibility (1/GPa) = 0.01646580
#
# Stress axis : x y z
#
# Youngs Moduli (GPa) = 98.56357 77.00542 80.28021
#
# Poissons Ratio (x) = 0.20040 0.47805
# Poissons Ratio (y) = 0.25650 0.08060
# Poissons Ratio (z) = 0.58693 0.07732
#
# Static dielectric constant tensor:
#      x y z
#    x 3.830460 0.000000 0.000000 
#    y 0.000000 3.580340 0.000000 
#    z 0.000000 0.000000 4.072100 
# 
# 
# High freq. dielectric constant tensor:
#      x y z
#    x 1.811130 0.000000 0.000000 
#    y 0.000000 1.802170 0.000000 
#    z 0.000000 0.000000 1.823260 
# 
# From -- ./inp_files/78104.got.cif
#   From: 2010.03.12/outbox.cif.g09.slc.cpg/sg65_40_cif.got.tgz:78104.got - 2010.04.10 20:52:16.
