data_PCOD8271123
_publ_section_title
;
Structure prediction by ZEFSAII (Michael W. Deem and Ramdas Pophale) SiO2 
 PCOD8271123
Probable space group: C M M M
;
_chemical_formula_sum "Si O2"
_cell_formula_units_Z 88
_cell_length_a 14.834832
_cell_length_b 14.538913
_cell_length_c 20.148691
_cell_angle_alpha 90.000000
_cell_angle_beta 90.000000
_cell_angle_gamma 90.000000
_cell_volume 4345.716658
_symmetry_space_group_name_H-M "C M M M"
_symmetry_group_IT_number 65
_symmetry_cell_setting 'orthorhombic'
loop_
_space_group_symop_operation_xyz
x,y,z
-x,-y,z
x,-y,-z
-x,y,-z
-x,-y,-z
x,y,-z
-x,y,z
x,-y,z
1/2+x,1/2+y,z
1/2-x,1/2-y,z
1/2+x,1/2-y,-z
1/2-x,1/2+y,-z
1/2-x,1/2-y,-z
1/2+x,1/2+y,-z
1/2-x,1/2+y,z
1/2+x,1/2-y,z
loop_
_atom_site_type_symbol
_atom_site_label
_atom_site_fract_x
_atom_site_fract_y
_atom_site_fract_z
Si Si1 0.651263 0.224081 0.694769
Si Si2 0.900296 0.101080 0.249897
Si Si3 0.785412 0.108411 0.874873
Si Si4 0.895859 0.110083 0.000000
Si Si5 0.893952 0.396113 0.575216
Si Si6 0.600259 0.107689 0.818809
O O1 0.750000 0.250000 0.718298
O O2 0.599674 0.322810 0.691579
O O3 0.654381 0.176010 0.623308
O O4 0.605066 0.157225 0.747928
O O5 0.835915 0.138659 0.191974
O O6 0.000000 0.092570 0.219581
O O7 0.868955 0.000000 0.276210
O O8 0.680246 0.141806 0.869003
O O9 0.788362 0.000000 0.882795
O O10 0.839853 0.150366 0.937121
O O11 0.000000 0.145908 0.000000
O O12 0.897062 0.000000 0.000000
O O13 0.867496 0.370451 0.500000
O O14 0.862060 0.500000 0.591322
O O15 0.000000 0.388165 0.585852
O O16 0.500000 0.126261 0.849461
O O17 0.614188 0.000000 0.804433
#
# Coordination Sequence:
#
# PCOD8271123 Si02
#       6
#    16  16  16   8  16  16
#     4  12  22  33  55  82 113 147 185 236 282 341
#     4  10  20  34  52  76 110 147 185 233 284 335
#     4   9  17  31  50  78 110 142 188 239 285 338
#     4   9  16  28  51  80 111 151 194 237 286 341
#     4   9  19  37  60  85 113 146 188 237 283 331
#     4  10  20  35  55  79 110 148 190 239 292 341
#
# _framework density 20.249825000000001
#
# number of rings (size 3 to 8) (size 9 to 14) (size 15 to 20)
#    0.000    2.091    1.818    3.273    0.000    4.727 
#    0.000    0.455    0.000    5.455    0.000    5.091 
#    0.000    0.000    0.000    0.000    0.000    0.909 
#
# Total GULP energy -545225.371074 kJ/mol
# GULP energy per Si atom -12391.485706 kJ/mol
# Density = 2.020374 g / cm^3
# Si number density = 20.249825 Si / 1000 Ang^3
#
#
#
# Elastic Constant Matrix: (Units=GPa)
#
#
# Indices 1 2 3 4 5 6 
#
# 1 141.3087 33.5062 47.8328 0.0000 0.0000 0.0000
# 2 33.5062 86.8700 57.0174 0.0000 0.0000 0.0000
# 3 47.8328 57.0174 98.6162 0.0000 0.0000 0.0000
# 4 0.0000 0.0000 0.0000 18.8680 0.0000 0.0000
# 5 0.0000 0.0000 0.0000 0.0000 10.1221 0.0000
# 6 0.0000 0.0000 0.0000 0.0000 0.0000 21.4118
#
#
#
# Elastic Compliance Matrix: (Units=1/GPa)
#
#
# Indices 1 2 3 4 5 6 
#
# 1 0.008513 -0.000924 -0.003595 0.000000 0.000000 0.000000
# 2 -0.000924 0.018652 -0.010336 0.000000 0.000000 0.000000
# 3 -0.003595 -0.010336 0.017860 0.000000 0.000000 0.000000
# 4 0.000000 0.000000 0.000000 0.053000 0.000000 0.000000
# 5 0.000000 0.000000 0.000000 0.000000 0.098793 0.000000
# 6 0.000000 0.000000 0.000000 0.000000 0.000000 0.046703
#
#
# Mechanical properties :
#
#
# Convention : Reuss Voigt Hill
#
# Bulk Modulus (GPa) = 65.29473 67.05640 66.17557
# Shear Modulus (GPa) = 17.96398 22.64296 20.30347
#
# Velocity S-wave (km/s) = 2.98168 3.34755 3.16990
# Velocity P-wave (km/s) = 6.64594 6.93743 6.79325
#
# Compressibility (1/GPa) = 0.01531517
#
# Stress axis : x y z
#
# Youngs Moduli (GPa) = 117.47289 53.61419 55.99153
#
# Poissons Ratio (x) = 0.04953 0.20128
# Poissons Ratio (y) = 0.10853 0.57872
# Poissons Ratio (z) = 0.42229 0.55415
#
# Static dielectric constant tensor:
#      x y z
#    x 3.906060 0.000000 0.000000 
#    y 0.000000 3.762970 0.000000 
#    z 0.000000 0.000000 3.507890 
# 
# 
# High freq. dielectric constant tensor:
#      x y z
#    x 1.799670 0.000000 0.000000 
#    y 0.000000 1.788710 0.000000 
#    z 0.000000 0.000000 1.751240 
# 
# From -- ./inp_files/62445.got.cif
#   From: 2010.03.12/outbox.cif.g09.slc.cpg/sg65_32_cif.got.tgz:62445.got - 2010.04.10 20:52:16.
