data_PCOD8271045
_publ_section_title
;
Structure prediction by ZEFSAII (Michael W. Deem and Ramdas Pophale) SiO2 
 PCOD8271045
Probable space group: C M M M
;
_chemical_formula_sum "Si O2"
_cell_formula_units_Z 96
_cell_length_a 8.591440
_cell_length_b 27.396313
_cell_length_c 23.464203
_cell_angle_alpha 90.000000
_cell_angle_beta 90.000000
_cell_angle_gamma 90.000000
_cell_volume 5522.858140
_symmetry_space_group_name_H-M "C M M M"
_symmetry_group_IT_number 65
_symmetry_cell_setting 'orthorhombic'
loop_
_space_group_symop_operation_xyz
x,y,z
-x,-y,z
x,-y,-z
-x,y,-z
-x,-y,-z
x,y,-z
-x,y,z
x,-y,z
1/2+x,1/2+y,z
1/2-x,1/2-y,z
1/2+x,1/2-y,-z
1/2-x,1/2+y,-z
1/2-x,1/2-y,-z
1/2+x,1/2+y,-z
1/2-x,1/2+y,z
1/2+x,1/2-y,z
loop_
_atom_site_type_symbol
_atom_site_label
_atom_site_fract_x
_atom_site_fract_y
_atom_site_fract_z
Si Si1 0.816529 0.858315 0.165930
Si Si2 0.818870 0.555641 0.769325
Si Si3 0.819002 0.109979 0.666927
Si Si4 0.819816 0.555743 0.565325
Si Si5 0.683304 0.198004 0.270464
Si Si6 0.681848 0.197759 0.934398
O O1 0.740704 0.910731 0.179193
O O2 0.758672 0.817931 0.210684
O O3 0.765925 0.843538 0.102585
O O4 0.000000 0.863108 0.170163
O O5 0.786204 0.500000 0.786534
O O6 0.728359 0.567787 0.711244
O O7 0.000000 0.565763 0.758394
O O8 0.782013 0.091956 0.603455
O O9 0.724932 0.159403 0.680197
O O10 0.000000 0.121603 0.673040
O O11 0.791700 0.570691 0.500000
O O12 0.766555 0.500000 0.575436
O O13 0.000000 0.561361 0.581891
O O14 0.500000 0.201175 0.262410
O O15 0.750000 0.250000 0.289264
O O16 0.500000 0.198052 0.921075
O O17 0.750000 0.250000 0.917217
O O18 0.717629 0.185558 0.000000
#
# Coordination Sequence:
#
# PCOD8271045 Si02
#       6
#    16  16  16  16  16  16
#     4  11  21  33  51  75 103 132 164 202 246 294
#     4  10  20  34  52  73  99 132 168 204 245 293
#     4  11  21  32  49  75 104 132 164 202 247 295
#     4   9  18  33  52  73  99 133 170 205 244 291
#     4  11  21  35  53  73 100 131 166 204 245 293
#     4  10  20  34  52  74 101 132 166 203 244 291
#
# _framework density 17.382304000000001
#
# number of rings (size 3 to 8) (size 9 to 14) (size 15 to 20)
#    0.000    1.667    0.000    9.000    0.000    5.000 
#    0.000    0.833    0.000    1.000    0.000    3.500 
#    0.000    0.000    0.000    0.000    0.000    0.000 
#
# Total GULP energy -595415.457507 kJ/mol
# GULP energy per Si atom -12404.488698 kJ/mol
# Density = 1.734274 g / cm^3
# Si number density = 17.382304 Si / 1000 Ang^3
#
#
#
# Elastic Constant Matrix: (Units=GPa)
#
#
# Indices 1 2 3 4 5 6 
#
# 1 64.6704 29.1567 15.7146 0.0000 0.0000 0.0000
# 2 29.1567 107.5160 45.7594 0.0000 0.0000 0.0000
# 3 15.7146 45.7594 83.0260 0.0000 0.0000 0.0000
# 4 0.0000 0.0000 0.0000 27.8955 0.0000 0.0000
# 5 0.0000 0.0000 0.0000 0.0000 27.3551 0.0000
# 6 0.0000 0.0000 0.0000 0.0000 0.0000 29.6387
#
#
#
# Elastic Compliance Matrix: (Units=1/GPa)
#
#
# Indices 1 2 3 4 5 6 
#
# 1 0.017670 -0.004401 -0.000919 0.000000 0.000000 0.000000
# 2 -0.004401 0.013247 -0.006468 0.000000 0.000000 0.000000
# 3 -0.000919 -0.006468 0.015783 0.000000 0.000000 0.000000
# 4 0.000000 0.000000 0.000000 0.035848 0.000000 0.000000
# 5 0.000000 0.000000 0.000000 0.000000 0.036556 0.000000
# 6 0.000000 0.000000 0.000000 0.000000 0.000000 0.033740
#
#
# Mechanical properties :
#
#
# Convention : Reuss Voigt Hill
#
# Bulk Modulus (GPa) = 43.24347 48.49709 45.87028
# Shear Modulus (GPa) = 27.15480 27.94998 27.55239
#
# Velocity S-wave (km/s) = 3.95677 4.01428 3.98563
# Velocity P-wave (km/s) = 6.76805 7.03184 6.90121
#
# Compressibility (1/GPa) = 0.02312488
#
# Stress axis : x y z
#
# Youngs Moduli (GPa) = 56.59159 75.48716 63.35809
#
# Poissons Ratio (x) = 0.33221 0.05823
# Poissons Ratio (y) = 0.24905 0.40981
# Poissons Ratio (z) = 0.05201 0.48827
#
# Static dielectric constant tensor:
#      x y z
#    x 3.370030 0.000000 0.000000 
#    y 0.000000 3.037380 0.000000 
#    z 0.000000 0.000000 3.142210 
# 
# 
# High freq. dielectric constant tensor:
#      x y z
#    x 1.689330 0.000000 0.000000 
#    y 0.000000 1.662830 0.000000 
#    z 0.000000 0.000000 1.658970 
# 
# From -- ./inp_files/68056.got.cif
#   From: 2010.03.12/outbox.cif.g09.slc.cpg/sg65_35_cif.got.tgz:68056.got - 2010.04.10 20:52:16.
