data_PCOD8271905
_publ_section_title
;
Structure prediction by ZEFSAII (Michael W. Deem and Ramdas Pophale) SiO2 
 PCOD8271905
Probable space group: C M M M
;
_chemical_formula_sum "Si O2"
_cell_formula_units_Z 72
_cell_length_a 14.693942
_cell_length_b 26.346100
_cell_length_c 9.767734
_cell_angle_alpha 90.000000
_cell_angle_beta 90.000000
_cell_angle_gamma 90.000000
_cell_volume 3781.363966
_symmetry_space_group_name_H-M "C M M M"
_symmetry_group_IT_number 65
_symmetry_cell_setting 'orthorhombic'
loop_
_space_group_symop_operation_xyz
x,y,z
-x,-y,z
x,-y,-z
-x,y,-z
-x,-y,-z
x,y,-z
-x,y,z
x,-y,z
1/2+x,1/2+y,z
1/2-x,1/2-y,z
1/2+x,1/2-y,-z
1/2-x,1/2+y,-z
1/2-x,1/2-y,-z
1/2+x,1/2+y,-z
1/2-x,1/2+y,z
1/2+x,1/2-y,z
loop_
_atom_site_type_symbol
_atom_site_label
_atom_site_fract_x
_atom_site_fract_y
_atom_site_fract_z
Si Si1 0.607007 0.260042 0.000000
Si Si2 0.394782 0.146278 0.500000
Si Si3 0.905037 0.811613 0.500000
Si Si4 0.895224 0.057385 0.248152
Si Si5 0.607616 0.626002 0.000000
Si Si6 0.650375 0.232872 0.297431
Si Si7 0.785864 0.906610 0.500000
O O1 0.640133 0.229715 0.133613
O O2 0.500000 0.263225 0.000000
O O3 0.648678 0.317121 0.000000
O O4 0.500000 0.127134 0.500000
O O5 0.376353 0.178903 0.637455
O O6 0.324764 0.098081 0.500000
O O7 0.910829 0.776905 0.636170
O O8 0.820099 0.848705 0.500000
O O9 0.000000 0.843232 0.500000
O O10 0.824475 0.063151 0.371089
O O11 0.000000 0.069433 0.291917
O O12 0.889544 0.000000 0.191911
O O13 0.859063 0.096121 0.133683
O O14 0.500000 0.627048 0.000000
O O15 0.750000 0.250000 0.341776
#
# Coordination Sequence:
#
# PCOD8271905 Si02
#       7
#     8   8   8  16   8  16   8
#     4  11  21  32  51  79 110 145 184 225 259 300
#     4  11  23  40  56  72 104 149 191 228 271 312
#     4  11  19  32  53  74 106 142 175 219 267 318
#     4  10  20  35  56  83 115 144 169 209 269 334
#     4   9  19  33  52  80 113 148 176 202 254 326
#     4  11  20  36  51  75 105 147 188 226 262 310
#     4  12  21  34  53  82 108 133 186 226 266 316
#
# _framework density 19.040748000000001
#
# number of rings (size 3 to 8) (size 9 to 14) (size 15 to 20)
#    0.000    1.333    2.222    6.667    0.000    4.000 
#    0.000    0.000    0.000    1.333    0.000    0.000 
#    0.000    1.778    0.000    0.000    0.000    0.000 
#
# Total GULP energy -446269.606104 kJ/mol
# GULP energy per Si atom -12396.377947 kJ/mol
# Density = 1.899741 g / cm^3
# Si number density = 19.040748 Si / 1000 Ang^3
#
#
#
# Elastic Constant Matrix: (Units=GPa)
#
#
# Indices 1 2 3 4 5 6 
#
# 1 112.3990 13.6629 17.2172 0.0000 0.0000 0.0000
# 2 13.6629 52.3283 27.2491 0.0000 0.0000 0.0000
# 3 17.2172 27.2491 135.2381 0.0000 0.0000 0.0000
# 4 0.0000 0.0000 0.0000 -11.6762 0.0000 0.0000
# 5 0.0000 0.0000 0.0000 0.0000 7.4996 0.0000
# 6 0.0000 0.0000 0.0000 0.0000 0.0000 23.4759
#
#
#
# Elastic Compliance Matrix: (Units=1/GPa)
#
#
# Indices 1 2 3 4 5 6 
#
# 1 0.009260 -0.002015 -0.000773 0.000000 0.000000 0.000000
# 2 -0.002015 0.021789 -0.004134 0.000000 0.000000 0.000000
# 3 -0.000773 -0.004134 0.008326 0.000000 0.000000 0.000000
# 4 0.000000 0.000000 0.000000 -0.085644 0.000000 0.000000
# 5 0.000000 0.000000 0.000000 0.000000 0.133341 0.000000
# 6 0.000000 0.000000 0.000000 0.000000 0.000000 0.042597
#
#
# Mechanical properties :
#
#
# Convention : Reuss Voigt Hill
#
# Bulk Modulus (GPa) = 39.16813 46.24710 42.70762
# Shear Modulus (GPa) = 32.88984 19.98227 26.43606
#
# Velocity S-wave (km/s) = 4.16064 3.24303 3.73016
# Velocity P-wave (km/s) = 6.61034 6.19389 6.40550
#
# Compressibility (1/GPa) = 0.02553096
#
# Stress axis : x y z
#
# Youngs Moduli (GPa) = 107.98848 45.89504 120.11082
#
# Poissons Ratio (x) = 0.09250 0.09283
# Poissons Ratio (y) = 0.21764 0.49650
# Poissons Ratio (z) = 0.08346 0.18971
#
# Static dielectric constant tensor:
#      x y z
#    x 3.411280 0.000000 0.000000 
#    y 0.000000 3.295540 0.000000 
#    z 0.000000 0.000000 3.726580 
# 
# 
# High freq. dielectric constant tensor:
#      x y z
#    x 1.723470 0.000000 0.000000 
#    y 0.000000 1.709640 0.000000 
#    z 0.000000 0.000000 1.747480 
# 
# From -- ./inp_files/7485.got.cif
#   From: 2010.03.12/outbox.cif.g09.slc.cpg/sg65_4_cif.got.tgz:7485.got - 2010.04.10 20:52:16.
