data_PCOD8271826
_publ_section_title
;
Structure prediction by ZEFSAII (Michael W. Deem and Ramdas Pophale) SiO2 
 PCOD8271826
Probable space group: C M M M
;
_chemical_formula_sum "Si O2"
_cell_formula_units_Z 96
_cell_length_a 19.924958
_cell_length_b 28.658587
_cell_length_c 9.250207
_cell_angle_alpha 90.000000
_cell_angle_beta 90.000000
_cell_angle_gamma 90.000000
_cell_volume 5282.063768
_symmetry_space_group_name_H-M "C M M M"
_symmetry_group_IT_number 65
_symmetry_cell_setting 'orthorhombic'
loop_
_space_group_symop_operation_xyz
x,y,z
-x,-y,z
x,-y,-z
-x,y,-z
-x,-y,-z
x,y,-z
-x,y,z
x,-y,z
1/2+x,1/2+y,z
1/2-x,1/2-y,z
1/2+x,1/2-y,-z
1/2-x,1/2+y,-z
1/2-x,1/2-y,-z
1/2+x,1/2+y,-z
1/2-x,1/2+y,z
1/2+x,1/2-y,z
loop_
_atom_site_type_symbol
_atom_site_label
_atom_site_fract_x
_atom_site_fract_y
_atom_site_fract_z
Si Si1 0.422303 0.620759 0.171423
Si Si2 0.687914 0.808373 0.170937
Si Si3 0.322970 0.445587 0.329656
Si Si4 0.161117 0.792170 0.170601
Si Si5 0.926632 0.554473 0.158480
Si Si6 0.182933 0.600043 0.330641
O O1 0.500000 0.619099 0.215378
O O2 0.385337 0.577468 0.246695
O O3 0.392286 0.670144 0.230799
O O4 0.412386 0.616193 0.000000
O O5 0.764754 0.805001 0.224008
O O6 0.646768 0.761550 0.218243
O O7 0.658916 0.852537 0.253641
O O8 0.683184 0.815952 0.000000
O O9 0.334357 0.439961 0.500000
O O10 0.318356 0.500000 0.286474
O O11 0.255158 0.419391 0.279250
O O12 0.159581 0.793894 0.000000
O O13 0.934506 0.500000 0.147097
O O14 0.873574 0.563728 0.284627
O O15 0.000000 0.576024 0.197103
O O16 0.903192 0.573756 0.000000
O O17 0.182465 0.607596 0.500000
#
# Coordination Sequence:
#
# PCOD8271826 Si02
#       6
#    16  16  16  16  16  16
#     4  10  20  35  56  80 105 134 175 228 279 322
#     4   9  16  30  54  77 102 136 173 213 257 311
#     4  10  22  38  53  73 105 144 184 221 262 319
#     4   8  15  30  52  77 102 132 171 215 261 312
#     4   9  19  36  56  77 102 136 178 218 259 314
#     4  11  21  33  52  81 112 142 174 218 267 312
#
# _framework density 18.174714000000002
#
# number of rings (size 3 to 8) (size 9 to 14) (size 15 to 20)
#    0.000    2.500    1.667    2.500    0.000    3.000 
#    0.000    5.833    0.000    3.000    0.000    0.000 
#    0.000    0.000    0.000    0.000    0.000    0.000 
#
# Total GULP energy -594880.566513 kJ/mol
# GULP energy per Si atom -12393.345136 kJ/mol
# Density = 1.813335 g / cm^3
# Si number density = 18.174714 Si / 1000 Ang^3
#
#
#
# Elastic Constant Matrix: (Units=GPa)
#
#
# Indices 1 2 3 4 5 6 
#
# 1 93.2505 44.5848 35.6039 0.0000 0.0000 0.0000
# 2 44.5848 116.2258 38.3606 0.0000 0.0000 0.0000
# 3 35.6039 38.3606 45.5070 0.0000 0.0000 0.0000
# 4 0.0000 0.0000 0.0000 18.5706 0.0000 0.0000
# 5 0.0000 0.0000 0.0000 0.0000 19.4474 0.0000
# 6 0.0000 0.0000 0.0000 0.0000 0.0000 27.7868
#
#
#
# Elastic Compliance Matrix: (Units=1/GPa)
#
#
# Indices 1 2 3 4 5 6 
#
# 1 0.015908 -0.002763 -0.010117 0.000000 0.000000 0.000000
# 2 -0.002763 0.012400 -0.008291 0.000000 0.000000 0.000000
# 3 -0.010117 -0.008291 0.036879 0.000000 0.000000 0.000000
# 4 0.000000 0.000000 0.000000 0.053848 0.000000 0.000000
# 5 0.000000 0.000000 0.000000 0.000000 0.051421 0.000000
# 6 0.000000 0.000000 0.000000 0.000000 0.000000 0.035988
#
#
# Mechanical properties :
#
#
# Convention : Reuss Voigt Hill
#
# Bulk Modulus (GPa) = 43.77341 54.67578 49.22459
# Shear Modulus (GPa) = 19.50069 22.25655 20.87862
#
# Velocity S-wave (km/s) = 3.27916 3.50321 3.39303
# Velocity P-wave (km/s) = 6.20276 6.81997 6.51868
#
# Compressibility (1/GPa) = 0.02284492
#
# Stress axis : x y z
#
# Youngs Moduli (GPa) = 62.86327 80.64221 27.11587
#
# Poissons Ratio (x) = 0.22283 0.27432
# Poissons Ratio (y) = 0.17371 0.22482
# Poissons Ratio (z) = 0.63596 0.66862
#
# Static dielectric constant tensor:
#      x y z
#    x 3.437860 0.000000 0.000000 
#    y 0.000000 3.554890 0.000000 
#    z 0.000000 0.000000 3.091050 
# 
# 
# High freq. dielectric constant tensor:
#      x y z
#    x 1.690640 0.000000 0.000000 
#    y 0.000000 1.713260 0.000000 
#    z 0.000000 0.000000 1.679420 
# 
# From -- ./inp_files/12240.got.cif
#   From: 2010.03.12/outbox.cif.g09.slc.cpg/sg65_7_cif.got.tgz:12240.got - 2010.04.10 20:52:16.
