data_PCOD8271089
_publ_section_title
;
Structure prediction by ZEFSAII (Michael W. Deem and Ramdas Pophale) SiO2 
 PCOD8271089
Probable space group: C M M M
;
_chemical_formula_sum "Si O2"
_cell_formula_units_Z 104
_cell_length_a 19.442938
_cell_length_b 9.042562
_cell_length_c 32.840040
_cell_angle_alpha 90.000000
_cell_angle_beta 90.000000
_cell_angle_gamma 90.000000
_cell_volume 5773.737884
_symmetry_space_group_name_H-M "C M M M"
_symmetry_group_IT_number 65
_symmetry_cell_setting 'orthorhombic'
loop_
_space_group_symop_operation_xyz
x,y,z
-x,-y,z
x,-y,-z
-x,y,-z
-x,-y,-z
x,y,-z
-x,y,z
x,-y,z
1/2+x,1/2+y,z
1/2-x,1/2-y,z
1/2+x,1/2-y,-z
1/2-x,1/2+y,-z
1/2-x,1/2-y,-z
1/2+x,1/2+y,-z
1/2-x,1/2+y,z
1/2+x,1/2-y,z
loop_
_atom_site_type_symbol
_atom_site_label
_atom_site_fract_x
_atom_site_fract_y
_atom_site_fract_z
Si Si1 0.180280 0.673550 0.954137
Si Si2 0.081184 0.671340 0.277025
Si Si3 0.679159 0.325794 0.661482
Si Si4 0.418225 0.666906 0.196234
Si Si5 0.578992 0.172818 0.115925
Si Si6 0.680324 0.327298 0.432068
Si Si7 0.923246 0.175550 0.500000
O O1 0.192317 0.500000 0.951919
O O2 0.250000 0.750000 0.939465
O O3 0.119515 0.723983 0.924231
O O4 0.160485 0.723167 0.000000
O O5 0.101891 0.500000 0.278317
O O6 0.116158 0.758501 0.313715
O O7 0.108541 0.739178 0.234600
O O8 0.000000 0.693875 0.281719
O O9 0.684595 0.500000 0.669384
O O10 0.750000 0.250000 0.675632
O O11 0.663400 0.288102 0.614541
O O12 0.500000 0.669626 0.195612
O O13 0.389906 0.500000 0.199538
O O14 0.390496 0.740532 0.154764
O O15 0.500000 0.214348 0.107985
O O16 0.587890 0.000000 0.124927
O O17 0.692136 0.500000 0.438277
O O18 0.750000 0.250000 0.446787
O O19 0.617194 0.270063 0.459720
O O20 0.000000 0.244967 0.500000
O O21 0.928726 0.000000 0.500000
#
# Coordination Sequence:
#
# PCOD8271089 Si02
#       7
#    16  16  16  16  16  16   8
#     4   9  18  32  49  69  95 128 162 196 238 288
#     4  10  20  34  53  76 102 133 168 206 250 300
#     4  10  20  34  52  75 103 134 170 211 254 299
#     4   9  17  30  49  73 100 129 162 201 246 296
#     4   9  17  30  49  72  97 125 160 203 246 288
#     4   9  18  32  52  74  97 131 169 205 245 293
#     4   9  17  30  49  75 104 131 164 206 248 289
#
# _framework density 18.012595999999998
#
# number of rings (size 3 to 8) (size 9 to 14) (size 15 to 20)
#    0.000    2.692    0.000    1.615    0.000    4.923 
#    0.000    3.846    0.000    2.769    0.000    4.308 
#    0.000    0.000    0.000    0.000    0.000    0.000 
#
# Total GULP energy -644838.538111 kJ/mol
# GULP energy per Si atom -12400.741118 kJ/mol
# Density = 1.797160 g / cm^3
# Si number density = 18.012596 Si / 1000 Ang^3
#
#
#
# Elastic Constant Matrix: (Units=GPa)
#
#
# Indices 1 2 3 4 5 6 
#
# 1 92.8093 41.7636 70.7404 0.0000 0.0000 0.0000
# 2 41.7636 76.0907 52.1286 0.0000 0.0000 0.0000
# 3 70.7404 52.1286 127.6947 0.0000 0.0000 0.0000
# 4 0.0000 0.0000 0.0000 23.8402 0.0000 0.0000
# 5 0.0000 0.0000 0.0000 0.0000 17.9677 0.0000
# 6 0.0000 0.0000 0.0000 0.0000 0.0000 27.4183
#
#
#
# Elastic Compliance Matrix: (Units=1/GPa)
#
#
# Indices 1 2 3 4 5 6 
#
# 1 0.019766 -0.004647 -0.009053 0.000000 0.000000 0.000000
# 2 -0.004647 0.019337 -0.005320 0.000000 0.000000 0.000000
# 3 -0.009053 -0.005320 0.015018 0.000000 0.000000 0.000000
# 4 0.000000 0.000000 0.000000 0.041946 0.000000 0.000000
# 5 0.000000 0.000000 0.000000 0.000000 0.055655 0.000000
# 6 0.000000 0.000000 0.000000 0.000000 0.000000 0.036472
#
#
# Mechanical properties :
#
#
# Convention : Reuss Voigt Hill
#
# Bulk Modulus (GPa) = 62.18091 69.53997 65.86044
# Shear Modulus (GPa) = 21.58940 22.64270 22.11605
#
# Velocity S-wave (km/s) = 3.46580 3.54933 3.50781
# Velocity P-wave (km/s) = 7.11417 7.44897 7.28349
#
# Compressibility (1/GPa) = 0.01608211
#
# Stress axis : x y z
#
# Youngs Moduli (GPa) = 50.59127 51.71393 66.58628
#
# Poissons Ratio (x) = 0.24031 0.60282
# Poissons Ratio (y) = 0.23509 0.35422
# Poissons Ratio (z) = 0.45801 0.27510
#
# Static dielectric constant tensor:
#      x y z
#    x 3.249530 0.000000 0.000000 
#    y 0.000000 3.321480 0.000000 
#    z 0.000000 0.000000 3.531860 
# 
# 
# High freq. dielectric constant tensor:
#      x y z
#    x 1.676360 0.000000 0.000000 
#    y 0.000000 1.693990 0.000000 
#    z 0.000000 0.000000 1.707950 
# 
# From -- ./inp_files/78265.got.cif
#   From: 2010.03.12/outbox.cif.g09.slc.cpg/sg65_40_cif.got.tgz:78265.got - 2010.04.10 20:52:16.
