data_PCOD8271321
_publ_section_title
;
Structure prediction by ZEFSAII (Michael W. Deem and Ramdas Pophale) SiO2 
 PCOD8271321
Probable space group: C M M M
;
_chemical_formula_sum "Si O2"
_cell_formula_units_Z 104
_cell_length_a 21.530192
_cell_length_b 26.878609
_cell_length_c 9.746100
_cell_angle_alpha 90.000000
_cell_angle_beta 90.000000
_cell_angle_gamma 90.000000
_cell_volume 5640.083785
_symmetry_space_group_name_H-M "C M M M"
_symmetry_group_IT_number 65
_symmetry_cell_setting 'orthorhombic'
loop_
_space_group_symop_operation_xyz
x,y,z
-x,-y,z
x,-y,-z
-x,y,-z
-x,-y,-z
x,y,-z
-x,y,z
x,-y,z
1/2+x,1/2+y,z
1/2-x,1/2-y,z
1/2+x,1/2-y,-z
1/2-x,1/2+y,-z
1/2-x,1/2-y,-z
1/2+x,1/2+y,-z
1/2-x,1/2+y,z
1/2+x,1/2-y,z
loop_
_atom_site_type_symbol
_atom_site_label
_atom_site_fract_x
_atom_site_fract_y
_atom_site_fract_z
Si Si1 0.276929 0.623185 0.845308
Si Si2 0.069452 0.725239 0.663018
Si Si3 0.000000 0.940440 0.346160
Si Si4 0.072158 0.613319 0.653942
Si Si5 0.161437 0.556941 0.840149
Si Si6 0.809246 0.215537 0.340127
Si Si7 0.605148 0.442722 0.151740
O O1 0.215188 0.595230 0.796007
O O2 0.296173 0.665969 0.742344
O O3 0.328669 0.581597 0.839454
O O4 0.269718 0.644521 0.000000
O O5 0.068547 0.724873 0.500000
O O6 0.083419 0.669062 0.713152
O O7 0.126042 0.760129 0.715641
O O8 0.000000 0.742464 0.715186
O O9 0.940239 0.919380 0.266098
O O10 0.000000 0.918927 0.500000
O O11 0.000000 0.000000 0.344541
O O12 0.100082 0.608849 0.500000
O O13 0.101923 0.572349 0.752443
O O14 0.000000 0.601246 0.650003
O O15 0.180154 0.500000 0.806179
O O16 0.145528 0.562420 0.000000
O O17 0.815898 0.202504 0.500000
O O18 0.750000 0.250000 0.313598
O O19 0.615816 0.500000 0.184465
O O20 0.575666 0.435408 0.000000
#
# Coordination Sequence:
#
# PCOD8271321 Si02
#       7
#    16  16   8  16  16  16  16
#     4  10  21  36  53  75 102 134 174 220 264 306
#     4   8  15  31  54  77 103 136 173 212 259 317
#     4   9  17  29  47  73 101 127 161 207 253 295
#     4   9  18  34  57  82 106 136 175 216 257 307
#     4  10  21  36  53  75 106 143 179 215 259 313
#     4  10  20  34  54  78 103 134 174 217 262 319
#     4   9  17  32  53  72  95 133 175 209 250 308
#
# _framework density 18.439442
#
# number of rings (size 3 to 8) (size 9 to 14) (size 15 to 20)
#    0.000    2.692    0.000    2.538    0.000    6.462 
#    1.385    2.308    0.000    3.692    0.000    0.000 
#    0.000    0.000    0.000    0.000    0.000    0.000 
#
# Total GULP energy -644550.665785 kJ/mol
# GULP energy per Si atom -12395.205111 kJ/mol
# Density = 1.839747 g / cm^3
# Si number density = 18.439442 Si / 1000 Ang^3
#
#
#
# Elastic Constant Matrix: (Units=GPa)
#
#
# Indices 1 2 3 4 5 6 
#
# 1 101.9985 50.1152 41.9083 0.0000 0.0000 0.0000
# 2 50.1152 85.0333 44.5449 0.0000 0.0000 0.0000
# 3 41.9083 44.5449 68.3513 0.0000 0.0000 0.0000
# 4 0.0000 0.0000 0.0000 31.0744 0.0000 0.0000
# 5 0.0000 0.0000 0.0000 0.0000 15.8683 0.0000
# 6 0.0000 0.0000 0.0000 0.0000 0.0000 29.4555
#
#
#
# Elastic Compliance Matrix: (Units=1/GPa)
#
#
# Indices 1 2 3 4 5 6 
#
# 1 0.014921 -0.006076 -0.005189 0.000000 0.000000 0.000000
# 2 -0.006076 0.020330 -0.009524 0.000000 0.000000 0.000000
# 3 -0.005189 -0.009524 0.024019 0.000000 0.000000 0.000000
# 4 0.000000 0.000000 0.000000 0.032181 0.000000 0.000000
# 5 0.000000 0.000000 0.000000 0.000000 0.063019 0.000000
# 6 0.000000 0.000000 0.000000 0.000000 0.000000 0.033950
#
#
# Mechanical properties :
#
#
# Convention : Reuss Voigt Hill
#
# Bulk Modulus (GPa) = 56.52133 58.72444 57.62289
# Shear Modulus (GPa) = 21.19592 23.20061 22.19827
#
# Velocity S-wave (km/s) = 3.39409 3.55097 3.47341
# Velocity P-wave (km/s) = 6.78813 6.98060 6.88504
#
# Compressibility (1/GPa) = 0.01769244
#
# Stress axis : x y z
#
# Youngs Moduli (GPa) = 67.01814 49.18833 41.63408
#
# Poissons Ratio (x) = 0.29885 0.21605
# Poissons Ratio (y) = 0.40718 0.39652
# Poissons Ratio (z) = 0.34777 0.46847
#
# Static dielectric constant tensor:
#      x y z
#    x 3.683350 0.000000 0.000000 
#    y 0.000000 3.160710 0.000000 
#    z 0.000000 0.000000 3.420860 
# 
# 
# High freq. dielectric constant tensor:
#      x y z
#    x 1.726100 0.000000 0.000000 
#    y 0.000000 1.701750 0.000000 
#    z 0.000000 0.000000 1.697440 
# 
# From -- ./inp_files/12390.got.cif
#   From: 2010.03.12/outbox.cif.g09.slc.cpg/sg65_7_cif.got.tgz:12390.got - 2010.04.10 20:52:16.
