data_PCOD8271592
_publ_section_title
;
Structure prediction by ZEFSAII (Michael W. Deem and Ramdas Pophale) SiO2 
 PCOD8271592
Probable space group: C M M M
;
_chemical_formula_sum "Si O2"
_cell_formula_units_Z 80
_cell_length_a 9.395368
_cell_length_b 24.077554
_cell_length_c 17.815378
_cell_angle_alpha 90.000000
_cell_angle_beta 90.000000
_cell_angle_gamma 90.000000
_cell_volume 4030.149923
_symmetry_space_group_name_H-M "C M M M"
_symmetry_group_IT_number 65
_symmetry_cell_setting 'orthorhombic'
loop_
_space_group_symop_operation_xyz
x,y,z
-x,-y,z
x,-y,-z
-x,y,-z
-x,-y,-z
x,y,-z
-x,y,z
x,-y,z
1/2+x,1/2+y,z
1/2-x,1/2-y,z
1/2+x,1/2-y,-z
1/2-x,1/2+y,-z
1/2-x,1/2-y,-z
1/2+x,1/2+y,-z
1/2-x,1/2+y,z
1/2+x,1/2-y,z
loop_
_atom_site_type_symbol
_atom_site_label
_atom_site_fract_x
_atom_site_fract_y
_atom_site_fract_z
Si Si1 0.000000 0.795954 0.588698
Si Si2 0.834133 0.090592 0.913517
Si Si3 0.000000 0.329172 0.410950
Si Si4 0.159142 0.000000 0.673813
Si Si5 0.780095 0.886625 0.411311
Si Si6 0.340184 0.799610 0.912706
Si Si7 0.329004 0.000000 0.178066
O O1 0.000000 0.733500 0.624285
O O2 0.132378 0.832721 0.615430
O O3 0.000000 0.788374 0.500000
O O4 0.763444 0.149306 0.899849
O O5 0.738471 0.052425 0.862044
O O6 0.000000 0.090791 0.888550
O O7 0.822573 0.071558 0.000000
O O8 0.126548 0.368187 0.383313
O O9 0.000000 0.322258 0.500000
O O10 0.173979 0.055408 0.624514
O O11 0.282076 0.000000 0.735641
O O12 0.000000 0.000000 0.709180
O O13 0.793756 0.895391 0.500000
O O14 0.500000 0.806654 0.877147
O O15 0.250000 0.750000 0.874583
O O16 0.362346 0.787379 0.000000
O O17 0.500000 0.000000 0.171417
#
# Coordination Sequence:
#
# PCOD8271592 Si02
#       7
#     8  16   8   8  16  16   8
#     4   9  16  31  55  87 119 150 191 236 292 351
#     4  10  20  37  62  90 118 148 186 235 290 351
#     4   9  18  31  53  87 123 150 183 242 300 349
#     4  12  25  41  58  79 113 159 203 246 294 349
#     4  10  20  34  58  88 119 156 196 242 292 347
#     4   9  16  27  48  82 120 153 185 225 277 335
#     4  12  27  42  59  82 110 151 193 242 292 349
#
# _framework density 19.850379
#
# number of rings (size 3 to 8) (size 9 to 14) (size 15 to 20)
#    0.000    2.000    1.000    3.300    1.400    7.600 
#    0.000    1.500    0.000    2.400    0.000    0.000 
#    0.000    0.000    0.000    0.000    0.000    0.000 
#
# Total GULP energy -495573.500783 kJ/mol
# GULP energy per Si atom -12389.337520 kJ/mol
# Density = 1.980520 g / cm^3
# Si number density = 19.850379 Si / 1000 Ang^3
#
#
#
# Elastic Constant Matrix: (Units=GPa)
#
#
# Indices 1 2 3 4 5 6 
#
# 1 194.6893 57.1105 32.2529 0.0000 0.0000 0.0000
# 2 57.1105 122.3546 29.9205 0.0000 0.0000 0.0000
# 3 32.2529 29.9205 44.0698 0.0000 0.0000 0.0000
# 4 0.0000 0.0000 0.0000 17.0011 0.0000 0.0000
# 5 0.0000 0.0000 0.0000 0.0000 21.9666 0.0000
# 6 0.0000 0.0000 0.0000 0.0000 0.0000 39.4971
#
#
#
# Elastic Compliance Matrix: (Units=1/GPa)
#
#
# Indices 1 2 3 4 5 6 
#
# 1 0.006292 -0.002171 -0.003131 0.000000 0.000000 0.000000
# 2 -0.002171 0.010549 -0.005573 0.000000 0.000000 0.000000
# 3 -0.003131 -0.005573 0.028766 0.000000 0.000000 0.000000
# 4 0.000000 0.000000 0.000000 0.058820 0.000000 0.000000
# 5 0.000000 0.000000 0.000000 0.000000 0.045524 0.000000
# 6 0.000000 0.000000 0.000000 0.000000 0.000000 0.025318
#
#
# Mechanical properties :
#
#
# Convention : Reuss Voigt Hill
#
# Bulk Modulus (GPa) = 41.91594 66.63128 54.27361
# Shear Modulus (GPa) = 24.39355 31.81495 28.10425
#
# Velocity S-wave (km/s) = 3.50933 4.00776 3.76680
# Velocity P-wave (km/s) = 6.13044 7.41996 6.80581
#
# Compressibility (1/GPa) = 0.02385727
#
# Stress axis : x y z
#
# Youngs Moduli (GPa) = 158.93322 94.79305 34.76284
#
# Poissons Ratio (x) = 0.20582 0.10883
# Poissons Ratio (y) = 0.34509 0.19374
# Poissons Ratio (z) = 0.49757 0.52830
#
# Static dielectric constant tensor:
#      x y z
#    x 4.081920 0.000000 0.000000 
#    y 0.000000 2.857970 0.000000 
#    z 0.000000 0.000000 3.131650 
# 
# 
# High freq. dielectric constant tensor:
#      x y z
#    x 1.799630 0.000000 0.000000 
#    y 0.000000 1.794600 0.000000 
#    z 0.000000 0.000000 1.713870 
# 
# From -- ./inp_files/59713.got.cif
#   From: 2010.03.12/outbox.cif.g09.slc.cpg/sg65_30_cif.got.tgz:59713.got - 2010.04.10 20:52:16.
