data_PCOD8271285
_publ_section_title
;
Structure prediction by ZEFSAII (Michael W. Deem and Ramdas Pophale) SiO2 
 PCOD8271285
Probable space group: C M M M
;
_chemical_formula_sum "Si O2"
_cell_formula_units_Z 96
_cell_length_a 23.746334
_cell_length_b 14.642091
_cell_length_c 14.063590
_cell_angle_alpha 90.000000
_cell_angle_beta 90.000000
_cell_angle_gamma 90.000000
_cell_volume 4889.853754
_symmetry_space_group_name_H-M "C M M M"
_symmetry_group_IT_number 65
_symmetry_cell_setting 'orthorhombic'
loop_
_space_group_symop_operation_xyz
x,y,z
-x,-y,z
x,-y,-z
-x,y,-z
-x,-y,-z
x,y,-z
-x,y,z
x,-y,z
1/2+x,1/2+y,z
1/2-x,1/2-y,z
1/2+x,1/2-y,-z
1/2-x,1/2+y,-z
1/2-x,1/2-y,-z
1/2+x,1/2+y,-z
1/2-x,1/2+y,z
1/2+x,1/2-y,z
loop_
_atom_site_type_symbol
_atom_site_label
_atom_site_fract_x
_atom_site_fract_y
_atom_site_fract_z
Si Si1 0.727256 0.607655 0.292754
Si Si2 0.826644 0.892407 0.896151
Si Si3 0.563182 0.715337 0.104958
Si Si4 0.387335 0.395438 0.388908
Si Si5 0.338546 0.106590 0.389837
Si Si6 0.436858 0.221753 0.696211
O O1 0.735581 0.500000 0.288097
O O2 0.712835 0.648077 0.187696
O O3 0.677022 0.631490 0.365173
O O4 0.785896 0.649601 0.331061
O O5 0.891391 0.864376 0.881541
O O6 0.825911 0.000000 0.888283
O O7 0.804095 0.859896 0.000000
O O8 0.500000 0.673682 0.113972
O O9 0.572190 0.788956 0.189539
O O10 0.570675 0.761594 0.000000
O O11 0.397332 0.381722 0.500000
O O12 0.400039 0.500000 0.357945
O O13 0.428427 0.327971 0.332109
O O14 0.326481 0.124587 0.500000
O O15 0.395291 0.156342 0.359809
O O16 0.346503 0.000000 0.368610
O O17 0.500000 0.192601 0.668056
#
# Coordination Sequence:
#
# PCOD8271285 Si02
#       6
#    16  16  16  16  16  16
#     4   9  17  33  54  78 110 144 179 224 275 327
#     4   9  16  28  50  80 113 148 186 229 274 321
#     4   9  18  33  52  75 108 149 187 224 268 323
#     4  10  20  34  53  79 113 151 184 217 266 331
#     4  10  22  40  61  82 105 140 188 240 287 329
#     4  11  23  38  57  82 112 144 184 233 281 331
#
# _framework density 19.632490000000001
#
# number of rings (size 3 to 8) (size 9 to 14) (size 15 to 20)
#    0.000    2.333    1.667    1.000    0.000    5.000 
#    0.000    7.500    0.000    3.500    0.000    2.333 
#    0.000    0.000    0.000    0.000    0.000    0.000 
#
# Total GULP energy -594907.086933 kJ/mol
# GULP energy per Si atom -12393.897644 kJ/mol
# Density = 1.958781 g / cm^3
# Si number density = 19.632490 Si / 1000 Ang^3
#
#
#
# Elastic Constant Matrix: (Units=GPa)
#
#
# Indices 1 2 3 4 5 6 
#
# 1 114.1483 30.8632 45.8518 0.0000 0.0000 0.0000
# 2 30.8632 30.7831 33.0778 0.0000 0.0000 0.0000
# 3 45.8518 33.0778 111.0760 0.0000 0.0000 0.0000
# 4 0.0000 0.0000 0.0000 19.0979 0.0000 0.0000
# 5 0.0000 0.0000 0.0000 0.0000 32.8178 0.0000
# 6 0.0000 0.0000 0.0000 0.0000 0.0000 25.5295
#
#
#
# Elastic Compliance Matrix: (Units=1/GPa)
#
#
# Indices 1 2 3 4 5 6 
#
# 1 0.012334 -0.010140 -0.002072 0.000000 0.000000 0.000000
# 2 -0.010140 0.056108 -0.012523 0.000000 0.000000 0.000000
# 3 -0.002072 -0.012523 0.013587 0.000000 0.000000 0.000000
# 4 0.000000 0.000000 0.000000 0.052362 0.000000 0.000000
# 5 0.000000 0.000000 0.000000 0.000000 0.030471 0.000000
# 6 0.000000 0.000000 0.000000 0.000000 0.000000 0.039170
#
#
# Mechanical properties :
#
#
# Convention : Reuss Voigt Hill
#
# Bulk Modulus (GPa) = 30.71244 52.84365 41.77805
# Shear Modulus (GPa) = 18.91382 25.23667 22.07525
#
# Velocity S-wave (km/s) = 3.10723 3.58921 3.35688
# Velocity P-wave (km/s) = 5.34329 6.64466 6.02919
#
# Compressibility (1/GPa) = 0.03256010
#
# Stress axis : x y z
#
# Youngs Moduli (GPa) = 81.07351 17.82269 73.59769
#
# Poissons Ratio (x) = 0.18073 0.15249
# Poissons Ratio (y) = 0.82210 0.92166
# Poissons Ratio (z) = 0.16798 0.22319
#
# Static dielectric constant tensor:
#      x y z
#    x 3.600960 0.000000 0.000000 
#    y 0.000000 3.172790 0.000000 
#    z 0.000000 0.000000 4.137630 
# 
# 
# High freq. dielectric constant tensor:
#      x y z
#    x 1.762180 0.000000 0.000000 
#    y 0.000000 1.721240 0.000000 
#    z 0.000000 0.000000 1.787710 
# 
# From -- ./inp_files/40322.got.cif
#   From: 2010.03.12/outbox.cif.g09.slc.cpg/sg65_21_cif.got.tgz:40322.got - 2010.04.10 20:52:16.
