data_PCOD8271640
_publ_section_title
;
Structure prediction by ZEFSAII (Michael W. Deem and Ramdas Pophale) SiO2 
 PCOD8271640
Probable space group: C M M M
;
_chemical_formula_sum "Si O2"
_cell_formula_units_Z 88
_cell_length_a 23.811736
_cell_length_b 9.813419
_cell_length_c 21.321179
_cell_angle_alpha 90.000000
_cell_angle_beta 90.000000
_cell_angle_gamma 90.000000
_cell_volume 4982.216748
_symmetry_space_group_name_H-M "C M M M"
_symmetry_group_IT_number 65
_symmetry_cell_setting 'orthorhombic'
loop_
_space_group_symop_operation_xyz
x,y,z
-x,-y,z
x,-y,-z
-x,y,-z
-x,-y,-z
x,y,-z
-x,y,z
x,-y,z
1/2+x,1/2+y,z
1/2-x,1/2-y,z
1/2+x,1/2-y,-z
1/2-x,1/2+y,-z
1/2-x,1/2-y,-z
1/2+x,1/2+y,-z
1/2-x,1/2+y,z
1/2+x,1/2-y,z
loop_
_atom_site_type_symbol
_atom_site_label
_atom_site_fract_x
_atom_site_fract_y
_atom_site_fract_z
Si Si1 0.803914 0.844154 0.135522
Si Si2 0.880144 0.754989 0.622276
Si Si3 0.500000 0.154679 0.233111
Si Si4 0.602856 0.660570 0.763815
Si Si5 0.500000 0.152501 0.618535
Si Si6 0.301940 0.652941 0.000000
Si Si7 0.312665 0.000000 0.575970
Si Si8 0.686988 0.500000 0.570756
O O1 0.750000 0.750000 0.143479
O O2 0.847045 0.806183 0.189390
O O3 0.834110 0.822447 0.066496
O O4 0.784090 0.000000 0.143056
O O5 0.878119 0.794196 0.695039
O O6 0.843200 0.624845 0.608391
O O7 0.944096 0.733471 0.597601
O O8 0.851517 0.872223 0.583378
O O9 0.553051 0.243465 0.211286
O O10 0.500000 0.140360 0.307249
O O11 0.500000 0.000000 0.204333
O O12 0.585891 0.500000 0.764072
O O13 0.500000 0.000000 0.589195
O O14 0.250000 0.750000 0.000000
O O15 0.278222 0.500000 0.000000
O O16 0.318643 0.000000 0.500000
O O17 0.248578 0.000000 0.602914
O O18 0.705572 0.500000 0.500000
#
# Coordination Sequence:
#
# PCOD8271640 Si02
#       8
#    16  16   8  16   8   8   8   8
#     4   9  18  31  49  77 110 145 181 220 266 315
#     4  11  21  39  60  82 108 140 180 226 276 320
#     4   9  19  33  57  79 103 140 181 217 262 326
#     4  10  20  35  53  81 111 140 173 219 273 316
#     4   9  18  36  59  81 104 132 170 222 275 323
#     4   8  14  28  48  69 102 145 185 218 256 312
#     4  11  24  41  61  79 107 149 184 219 262 329
#     4  11  24  41  57  79 109 145 184 215 262 331
#
# _framework density 17.66282
#
# number of rings (size 3 to 8) (size 9 to 14) (size 15 to 20)
#    0.000    2.182    1.818    1.364    1.273    4.000 
#    0.000    2.727    0.000    0.545    0.000    3.818 
#    0.000    0.000    0.000    0.000    0.000    0.000 
#
# Total GULP energy -545124.476230 kJ/mol
# GULP energy per Si atom -12389.192642 kJ/mol
# Density = 1.762262 g / cm^3
# Si number density = 17.662820 Si / 1000 Ang^3
#
#
#
# Elastic Constant Matrix: (Units=GPa)
#
#
# Indices 1 2 3 4 5 6 
#
# 1 138.6655 73.2785 38.4049 0.0000 0.0000 0.0000
# 2 73.2785 135.6013 33.2808 0.0000 0.0000 0.0000
# 3 38.4049 33.2808 65.5768 0.0000 0.0000 0.0000
# 4 0.0000 0.0000 0.0000 -23.7572 0.0000 0.0000
# 5 0.0000 0.0000 0.0000 0.0000 -1.2302 0.0000
# 6 0.0000 0.0000 0.0000 0.0000 0.0000 5.3507
#
#
#
# Elastic Compliance Matrix: (Units=1/GPa)
#
#
# Indices 1 2 3 4 5 6 
#
# 1 0.010893 -0.004936 -0.003875 0.000000 0.000000 0.000000
# 2 -0.004936 0.010660 -0.002520 0.000000 0.000000 0.000000
# 3 -0.003875 -0.002520 0.018797 0.000000 0.000000 0.000000
# 4 0.000000 0.000000 0.000000 -0.042092 0.000000 0.000000
# 5 0.000000 0.000000 0.000000 0.000000 -0.812870 0.000000
# 6 0.000000 0.000000 0.000000 0.000000 0.000000 0.186892
#
#
# Mechanical properties :
#
#
# Convention : Reuss Voigt Hill
#
# Bulk Modulus (GPa) = 56.52685 69.97468 63.25076
# Shear Modulus (GPa) = -8.34496 9.06461 0.35982
#
# Velocity S-wave (km/s) = -2.17597 2.26786 0.45184
# Velocity P-wave (km/s) = 5.07540 6.82353 6.01332
#
# Compressibility (1/GPa) = 0.01769071
#
# Stress axis : x y z
#
# Youngs Moduli (GPa) = 91.80267 93.80766 53.19955
#
# Poissons Ratio (x) = 0.46299 0.20613
# Poissons Ratio (y) = 0.45310 0.13404
# Poissons Ratio (z) = 0.35570 0.23636
#
# Static dielectric constant tensor:
#      x y z
#    x 3.426730 0.000000 0.000000 
#    y 0.000000 3.530780 0.000000 
#    z 0.000000 0.000000 3.469470 
# 
# 
# High freq. dielectric constant tensor:
#      x y z
#    x 1.673140 0.000000 0.000000 
#    y 0.000000 1.701930 0.000000 
#    z 0.000000 0.000000 1.672570 
# 
# From -- ./inp_files/65285.got.cif
#   From: 2010.03.12/outbox.cif.g09.slc.cpg/sg65_33_cif.got.tgz:65285.got - 2010.04.10 20:52:16.
