data_PCOD8271397
_publ_section_title
;
Structure prediction by ZEFSAII (Michael W. Deem and Ramdas Pophale) SiO2 
 PCOD8271397
Probable space group: C M M M
;
_chemical_formula_sum "Si O2"
_cell_formula_units_Z 88
_cell_length_a 40.343633
_cell_length_b 10.138689
_cell_length_c 11.772741
_cell_angle_alpha 90.000000
_cell_angle_beta 90.000000
_cell_angle_gamma 90.000000
_cell_volume 4815.422477
_symmetry_space_group_name_H-M "C M M M"
_symmetry_group_IT_number 65
_symmetry_cell_setting 'orthorhombic'
loop_
_space_group_symop_operation_xyz
x,y,z
-x,-y,z
x,-y,-z
-x,y,-z
-x,-y,-z
x,y,-z
-x,y,z
x,-y,z
1/2+x,1/2+y,z
1/2-x,1/2-y,z
1/2+x,1/2-y,-z
1/2-x,1/2+y,-z
1/2-x,1/2-y,-z
1/2+x,1/2+y,-z
1/2-x,1/2+y,z
1/2+x,1/2-y,z
loop_
_atom_site_type_symbol
_atom_site_label
_atom_site_fract_x
_atom_site_fract_y
_atom_site_fract_z
Si Si1 0.961569 0.745780 0.733999
Si Si2 0.630222 0.345036 0.500000
Si Si3 0.092630 0.851149 0.874646
Si Si4 0.960676 0.500000 0.875754
Si Si5 0.220239 0.847456 0.131935
Si Si6 0.154880 0.154668 0.256003
Si Si7 0.566510 0.159228 0.500000
O O1 0.938585 0.859319 0.786728
O O2 0.948080 0.626322 0.809984
O O3 0.955656 0.706416 0.604875
O O4 0.000000 0.782437 0.751561
O O5 0.618265 0.500000 0.500000
O O6 0.652324 0.312736 0.610176
O O7 0.600018 0.242478 0.500000
O O8 0.123850 0.779877 0.812204
O O9 0.102998 0.000000 0.896623
O O10 0.085041 0.787414 0.000000
O O11 0.000000 0.500000 0.879299
O O12 0.944860 0.500000 0.000000
O O13 0.250000 0.750000 0.163993
O O14 0.189451 0.793132 0.205888
O O15 0.229426 0.000000 0.161081
O O16 0.210671 0.834885 0.000000
O O17 0.153709 0.000000 0.236716
O O18 0.572361 0.000000 0.500000
#
# Coordination Sequence:
#
# PCOD8271397 Si02
#       7
#    16   8  16   8  16  16   8
#     4  11  22  35  53  75 101 136 180 226 279 335
#     4  10  20  37  60  80 105 141 184 231 275 323
#     4  10  20  34  54  80 109 140 178 226 279 334
#     4   9  18  33  51  69  93 128 171 217 265 325
#     4   9  17  31  54  83 113 144 178 216 260 313
#     4   9  17  32  55  80 105 141 185 223 262 319
#     4  12  23  38  58  79 105 143 189 237 284 331
#
# _framework density 18.274616999999999
#
# number of rings (size 3 to 8) (size 9 to 14) (size 15 to 20)
#    0.000    2.091    2.727    1.364    0.000    4.000 
#    0.000    2.273    2.000    1.636    0.000    0.000 
#    0.000    0.000    0.000    0.000    0.000    0.000 
#
# Total GULP energy -545191.931569 kJ/mol
# GULP energy per Si atom -12390.725717 kJ/mol
# Density = 1.823302 g / cm^3
# Si number density = 18.274617 Si / 1000 Ang^3
#
#
#
# Elastic Constant Matrix: (Units=GPa)
#
#
# Indices 1 2 3 4 5 6 
#
# 1 143.3898 33.3385 68.6986 0.0000 0.0000 0.0000
# 2 33.3385 42.1149 23.7567 0.0000 0.0000 0.0000
# 3 68.6986 23.7567 152.8689 0.0000 0.0000 0.0000
# 4 0.0000 0.0000 0.0000 23.3287 0.0000 0.0000
# 5 0.0000 0.0000 0.0000 0.0000 27.8339 0.0000
# 6 0.0000 0.0000 0.0000 0.0000 0.0000 14.9527
#
#
#
# Elastic Compliance Matrix: (Units=1/GPa)
#
#
# Indices 1 2 3 4 5 6 
#
# 1 0.010086 -0.005949 -0.003608 0.000000 0.000000 0.000000
# 2 -0.005949 0.029535 -0.001917 0.000000 0.000000 0.000000
# 3 -0.003608 -0.001917 0.008461 0.000000 0.000000 0.000000
# 4 0.000000 0.000000 0.000000 0.042866 0.000000 0.000000
# 5 0.000000 0.000000 0.000000 0.000000 0.035927 0.000000
# 6 0.000000 0.000000 0.000000 0.000000 0.000000 0.066878
#
#
# Mechanical properties :
#
#
# Convention : Reuss Voigt Hill
#
# Bulk Modulus (GPa) = 39.78558 65.55126 52.66842
# Shear Modulus (GPa) = 22.21465 27.39503 24.80484
#
# Velocity S-wave (km/s) = 3.49033 3.87599 3.68820
# Velocity P-wave (km/s) = 6.16939 7.48192 6.85713
#
# Compressibility (1/GPa) = 0.02513473
#
# Stress axis : x y z
#
# Youngs Moduli (GPa) = 99.15040 33.85851 118.19188
#
# Poissons Ratio (x) = 0.20141 0.42644
# Poissons Ratio (y) = 0.58981 0.22652
# Poissons Ratio (z) = 0.35774 0.06489
#
# Static dielectric constant tensor:
#      x y z
#    x 3.325330 0.000000 0.000000 
#    y 0.000000 3.400780 0.000000 
#    z 0.000000 0.000000 3.819800 
# 
# 
# High freq. dielectric constant tensor:
#      x y z
#    x 1.696150 0.000000 0.000000 
#    y 0.000000 1.678200 0.000000 
#    z 0.000000 0.000000 1.726800 
# 
# From -- ./inp_files/33667.got.cif
#   From: 2010.03.12/outbox.cif.g09.slc.cpg/sg65_17_cif.got.tgz:33667.got - 2010.04.10 20:52:16.
