data_PCOD8271857
_publ_section_title
;
Structure prediction by ZEFSAII (Michael W. Deem and Ramdas Pophale) SiO2 
 PCOD8271857
Probable space group: C M M M
;
_chemical_formula_sum "Si O2"
_cell_formula_units_Z 104
_cell_length_a 19.395844
_cell_length_b 19.780848
_cell_length_c 14.449734
_cell_angle_alpha 90.000000
_cell_angle_beta 90.000000
_cell_angle_gamma 90.000000
_cell_volume 5543.875142
_symmetry_space_group_name_H-M "C M M M"
_symmetry_group_IT_number 65
_symmetry_cell_setting 'orthorhombic'
loop_
_space_group_symop_operation_xyz
x,y,z
-x,-y,z
x,-y,-z
-x,y,-z
-x,-y,-z
x,y,-z
-x,y,z
x,-y,z
1/2+x,1/2+y,z
1/2-x,1/2-y,z
1/2+x,1/2-y,-z
1/2-x,1/2+y,-z
1/2-x,1/2-y,-z
1/2+x,1/2+y,-z
1/2-x,1/2+y,z
1/2+x,1/2-y,z
loop_
_atom_site_type_symbol
_atom_site_label
_atom_site_fract_x
_atom_site_fract_y
_atom_site_fract_z
Si Si1 0.573645 0.105672 0.788736
Si Si2 0.077167 0.000000 0.109742
Si Si3 0.921518 0.241396 0.761887
Si Si4 0.630776 0.924796 0.396799
Si Si5 0.678818 0.219491 0.606102
Si Si6 0.706803 0.075038 0.102607
Si Si7 0.348020 0.365477 0.109876
O O1 0.500000 0.079100 0.828974
O O2 0.577689 0.185049 0.807484
O O3 0.571868 0.086327 0.679791
O O4 0.640109 0.071823 0.833114
O O5 0.114579 0.932889 0.145893
O O6 0.000000 0.000000 0.149836
O O7 0.077240 0.000000 0.000000
O O8 0.883260 0.246248 0.663259
O O9 0.879543 0.196319 0.834159
O O10 0.000000 0.214785 0.747453
O O11 0.598142 0.919161 0.500000
O O12 0.684376 0.862479 0.382392
O O13 0.665248 0.000000 0.385081
O O14 0.666019 0.240107 0.500000
O O15 0.750000 0.250000 0.643648
O O16 0.766428 0.127223 0.133937
O O17 0.740063 0.000000 0.102387
O O18 0.681694 0.094858 0.000000
O O19 0.358797 0.353993 0.000000
#
# Coordination Sequence:
#
# PCOD8271857 Si02
#       7
#    16   8  16  16  16  16  16
#     4  10  22  37  52  76 112 148 181 224 275 326
#     4   9  16  30  54  80 106 136 172 225 288 334
#     4  10  22  36  55  83 111 145 185 225 273 333
#     4   9  18  33  55  82 109 138 178 228 278 325
#     4   9  19  36  58  82 112 150 187 226 274 330
#     4  10  21  37  55  76 103 141 187 226 270 329
#     4  10  20  35  56  81 110 143 181 231 284 333
#
# _framework density 18.759442
#
# number of rings (size 3 to 8) (size 9 to 14) (size 15 to 20)
#    0.000    2.385    0.769    0.923    4.308    3.692 
#    0.000    7.692    0.000    0.000    0.000    0.000 
#    0.000    1.846    0.000    0.000    0.000    0.000 
#
# Total GULP energy -644301.328413 kJ/mol
# GULP energy per Si atom -12390.410162 kJ/mol
# Density = 1.871674 g / cm^3
# Si number density = 18.759442 Si / 1000 Ang^3
#
#
#
# Elastic Constant Matrix: (Units=GPa)
#
#
# Indices 1 2 3 4 5 6 
#
# 1 136.5298 47.7136 55.6877 0.0000 0.0000 0.0000
# 2 47.7136 107.2957 41.3470 0.0000 0.0000 0.0000
# 3 55.6877 41.3470 78.5443 0.0000 0.0000 0.0000
# 4 0.0000 0.0000 0.0000 26.5100 0.0000 0.0000
# 5 0.0000 0.0000 0.0000 0.0000 20.5672 0.0000
# 6 0.0000 0.0000 0.0000 0.0000 0.0000 21.6413
#
#
#
# Elastic Compliance Matrix: (Units=1/GPa)
#
#
# Indices 1 2 3 4 5 6 
#
# 1 0.010742 -0.002311 -0.006400 0.000000 0.000000 0.000000
# 2 -0.002311 0.012189 -0.004778 0.000000 0.000000 0.000000
# 3 -0.006400 -0.004778 0.019784 0.000000 0.000000 0.000000
# 4 0.000000 0.000000 0.000000 0.037722 0.000000 0.000000
# 5 0.000000 0.000000 0.000000 0.000000 0.048621 0.000000
# 6 0.000000 0.000000 0.000000 0.000000 0.000000 0.046208
#
#
# Mechanical properties :
#
#
# Convention : Reuss Voigt Hill
#
# Bulk Modulus (GPa) = 63.53977 67.98514 65.76246
# Shear Modulus (GPa) = 24.09755 25.58511 24.84133
#
# Velocity S-wave (km/s) = 3.58796 3.69704 3.64291
# Velocity P-wave (km/s) = 7.14905 7.38535 7.26816
#
# Compressibility (1/GPa) = 0.01573817
#
# Stress axis : x y z
#
# Youngs Moduli (GPa) = 93.08953 82.04179 50.54484
#
# Poissons Ratio (x) = 0.18958 0.32348
# Poissons Ratio (y) = 0.21511 0.24151
# Poissons Ratio (z) = 0.59576 0.39200
#
# Static dielectric constant tensor:
#      x y z
#    x 3.437930 0.000000 0.000000 
#    y 0.000000 3.567800 0.000000 
#    z 0.000000 0.000000 3.331990 
# 
# 
# High freq. dielectric constant tensor:
#      x y z
#    x 1.720430 0.000000 0.000000 
#    y 0.000000 1.733060 0.000000 
#    z 0.000000 0.000000 1.714340 
# 
# From -- ./inp_files/44402.got.cif
#   From: 2010.03.12/outbox.cif.g09.slc.cpg/sg65_23_cif.got.tgz:44402.got - 2010.04.10 20:52:16.
