data_PCOD8271823
_publ_section_title
;
Structure prediction by ZEFSAII (Michael W. Deem and Ramdas Pophale) SiO2 
 PCOD8271823
Probable space group: C M M M
;
_chemical_formula_sum "Si O2"
_cell_formula_units_Z 104
_cell_length_a 28.857445
_cell_length_b 8.946239
_cell_length_c 22.902306
_cell_angle_alpha 90.000000
_cell_angle_beta 90.000000
_cell_angle_gamma 90.000000
_cell_volume 5912.587568
_symmetry_space_group_name_H-M "C M M M"
_symmetry_group_IT_number 65
_symmetry_cell_setting 'orthorhombic'
loop_
_space_group_symop_operation_xyz
x,y,z
-x,-y,z
x,-y,-z
-x,y,-z
-x,-y,-z
x,y,-z
-x,y,z
x,-y,z
1/2+x,1/2+y,z
1/2-x,1/2-y,z
1/2+x,1/2-y,-z
1/2-x,1/2+y,-z
1/2-x,1/2-y,-z
1/2+x,1/2+y,-z
1/2-x,1/2+y,z
1/2+x,1/2-y,z
loop_
_atom_site_type_symbol
_atom_site_label
_atom_site_fract_x
_atom_site_fract_y
_atom_site_fract_z
Si Si1 0.391369 0.822229 0.105358
Si Si2 0.298276 0.674331 0.068506
Si Si3 0.207317 0.337172 0.431174
Si Si4 0.054910 0.174465 0.000000
Si Si5 0.553792 0.324975 0.794072
Si Si6 0.393188 0.176961 0.564384
Si Si7 0.445509 0.664090 0.662589
O O1 0.339669 0.755892 0.102531
O O2 0.424166 0.751531 0.056606
O O3 0.413542 0.778919 0.167103
O O4 0.389244 0.000000 0.097788
O O5 0.296881 0.500000 0.085252
O O6 0.250000 0.750000 0.087470
O O7 0.307234 0.697160 0.000000
O O8 0.215096 0.351204 0.500000
O O9 0.207659 0.500000 0.401877
O O10 0.250000 0.250000 0.401728
O O11 0.157747 0.257572 0.419433
O O12 0.000000 0.196846 0.000000
O O13 0.068562 0.000000 0.000000
O O14 0.500000 0.285375 0.805550
O O15 0.562124 0.500000 0.807636
O O16 0.568435 0.285768 0.727728
O O17 0.408880 0.235915 0.500000
O O18 0.428949 0.220987 0.613981
O O19 0.389197 0.000000 0.561507
O O20 0.500000 0.656202 0.658939
O O21 0.424619 0.500000 0.649271
#
# Coordination Sequence:
#
# PCOD8271823 Si02
#       7
#    16  16  16   8  16  16  16
#     4  12  23  34  53  81 110 137 172 216 261 307
#     4  10  20  35  56  79 108 143 179 216 259 309
#     4   8  14  25  41  63  92 124 157 192 233 286
#     4  11  23  37  52  73 106 145 177 209 257 309
#     4   9  19  37  57  74  98 135 175 214 261 316
#     4   9  18  31  47  71 103 134 163 202 256 313
#     4   9  19  35  53  73  97 129 172 217 256 300
#
# _framework density 17.589592
#
# number of rings (size 3 to 8) (size 9 to 14) (size 15 to 20)
#    0.000    2.385    0.769    4.385    0.000    5.538 
#    0.000    4.615    0.000    0.923    0.000    2.154 
#    0.000    0.000    0.000    0.000    0.000    0.000 
#
# Total GULP energy -644590.800619 kJ/mol
# GULP energy per Si atom -12395.976935 kJ/mol
# Density = 1.754956 g / cm^3
# Si number density = 17.589592 Si / 1000 Ang^3
#
#
#
# Elastic Constant Matrix: (Units=GPa)
#
#
# Indices 1 2 3 4 5 6 
#
# 1 85.5239 51.0278 54.0816 0.0000 0.0000 0.0000
# 2 51.0278 98.1871 43.7433 0.0000 0.0000 0.0000
# 3 54.0816 43.7433 94.0206 0.0000 0.0000 0.0000
# 4 0.0000 0.0000 0.0000 13.1628 0.0000 0.0000
# 5 0.0000 0.0000 0.0000 0.0000 6.2338 0.0000
# 6 0.0000 0.0000 0.0000 0.0000 0.0000 32.3120
#
#
#
# Elastic Compliance Matrix: (Units=1/GPa)
#
#
# Indices 1 2 3 4 5 6 
#
# 1 0.021825 -0.007253 -0.009179 0.000000 0.000000 0.000000
# 2 -0.007253 0.015258 -0.002927 0.000000 0.000000 0.000000
# 3 -0.009179 -0.002927 0.017278 0.000000 0.000000 0.000000
# 4 0.000000 0.000000 0.000000 0.075971 0.000000 0.000000
# 5 0.000000 0.000000 0.000000 0.000000 0.160417 0.000000
# 6 0.000000 0.000000 0.000000 0.000000 0.000000 0.030948
#
#
# Mechanical properties :
#
#
# Convention : Reuss Voigt Hill
#
# Bulk Modulus (GPa) = 63.92959 63.93742 63.93351
# Shear Modulus (GPa) = 13.67506 18.93364 16.30435
#
# Velocity S-wave (km/s) = 2.79131 3.28443 3.04786
# Velocity P-wave (km/s) = 6.84197 7.12824 6.98657
#
# Compressibility (1/GPa) = 0.01564221
#
# Stress axis : x y z
#
# Youngs Moduli (GPa) = 45.81978 65.54007 57.87778
#
# Poissons Ratio (x) = 0.47535 0.53128
# Poissons Ratio (y) = 0.33232 0.16940
# Poissons Ratio (z) = 0.42060 0.19183
#
# Static dielectric constant tensor:
#      x y z
#    x 3.361620 0.000000 0.000000 
#    y 0.000000 3.229710 0.000000 
#    z 0.000000 0.000000 3.127120 
# 
# 
# High freq. dielectric constant tensor:
#      x y z
#    x 1.684580 0.000000 0.000000 
#    y 0.000000 1.679460 0.000000 
#    z 0.000000 0.000000 1.652990 
# 
# From -- ./inp_files/72153.got.cif
#   From: 2010.03.12/outbox.cif.g09.slc.cpg/sg65_37_cif.got.tgz:72153.got - 2010.04.10 20:52:16.
