data_PCOD8271793
_publ_section_title
;
Structure prediction by ZEFSAII (Michael W. Deem and Ramdas Pophale) SiO2 
 PCOD8271793
Probable space group: C M M M
;
_chemical_formula_sum "Si O2"
_cell_formula_units_Z 104
_cell_length_a 11.260204
_cell_length_b 17.314097
_cell_length_c 28.711549
_cell_angle_alpha 90.000000
_cell_angle_beta 90.000000
_cell_angle_gamma 90.000000
_cell_volume 5597.611181
_symmetry_space_group_name_H-M "C M M M"
_symmetry_group_IT_number 65
_symmetry_cell_setting 'orthorhombic'
loop_
_space_group_symop_operation_xyz
x,y,z
-x,-y,z
x,-y,-z
-x,y,-z
-x,-y,-z
x,y,-z
-x,y,z
x,-y,z
1/2+x,1/2+y,z
1/2-x,1/2-y,z
1/2+x,1/2-y,-z
1/2-x,1/2+y,-z
1/2-x,1/2-y,-z
1/2+x,1/2+y,-z
1/2-x,1/2+y,z
1/2+x,1/2-y,z
loop_
_atom_site_type_symbol
_atom_site_label
_atom_site_fract_x
_atom_site_fract_y
_atom_site_fract_z
Si Si1 0.362469 0.914878 0.636193
Si Si2 0.636643 0.087149 0.178738
Si Si3 0.358252 0.811609 0.911930
Si Si4 0.253113 0.591858 0.271618
Si Si5 0.000000 0.092347 0.588146
Si Si6 0.138261 0.414658 0.000000
Si Si7 0.000000 0.908901 0.694056
Si Si8 0.243031 0.841035 0.448337
O O1 0.500000 0.922407 0.643687
O O2 0.311683 0.873682 0.682578
O O3 0.337607 0.869233 0.589237
O O4 0.303227 0.000000 0.631228
O O5 0.500000 0.084563 0.192526
O O6 0.659914 0.140507 0.134792
O O7 0.703642 0.124873 0.223073
O O8 0.681872 0.000000 0.167594
O O9 0.500000 0.782464 0.915344
O O10 0.250000 0.750000 0.912443
O O11 0.325485 0.867154 0.954510
O O12 0.235260 0.500000 0.270873
O O13 0.388400 0.619461 0.276065
O O14 0.000000 0.122954 0.641405
O O15 0.113245 0.127412 0.562862
O O16 0.000000 0.000000 0.584219
O O17 0.199907 0.500000 0.000000
O O18 0.000000 0.428821 0.000000
O O19 0.000000 0.000000 0.689543
O O20 0.278678 0.870662 0.500000
O O21 0.250000 0.750000 0.446982
#
# Coordination Sequence:
#
# PCOD8271793 Si02
#       8
#    16  16  16  16   8   8   8  16
#     4  10  20  35  57  81 105 136 176 222 272 331
#     4   9  17  31  54  80 107 142 187 234 275 324
#     4  10  20  35  55  81 116 154 192 233 284 338
#     4   9  16  30  52  80 108 135 176 228 280 324
#     4  11  21  40  67  88 107 140 191 234 269 330
#     4   9  17  32  59  89 112 143 196 250 286 327
#     4   9  16  29  54  83 108 132 172 233 280 319
#     4  11  25  40  56  79 111 143 175 221 279 335
#
# _framework density 18.579353999999999
#
# number of rings (size 3 to 8) (size 9 to 14) (size 15 to 20)
#    0.000    2.231    1.538    1.846    1.077    5.538 
#    1.385    1.538    0.000    1.846    0.000    0.000 
#    0.000    0.000    0.000    0.000    0.000    0.000 
#
# Total GULP energy -644351.244503 kJ/mol
# GULP energy per Si atom -12391.370087 kJ/mol
# Density = 1.853707 g / cm^3
# Si number density = 18.579354 Si / 1000 Ang^3
#
#
#
# Elastic Constant Matrix: (Units=GPa)
#
#
# Indices 1 2 3 4 5 6 
#
# 1 99.3081 42.7680 61.7347 0.0000 0.0000 0.0000
# 2 42.7680 66.4507 50.9146 0.0000 0.0000 0.0000
# 3 61.7347 50.9146 181.4926 0.0000 0.0000 0.0000
# 4 0.0000 0.0000 0.0000 -13.4797 0.0000 0.0000
# 5 0.0000 0.0000 0.0000 0.0000 35.8022 0.0000
# 6 0.0000 0.0000 0.0000 0.0000 0.0000 24.1155
#
#
#
# Elastic Compliance Matrix: (Units=1/GPa)
#
#
# Indices 1 2 3 4 5 6 
#
# 1 0.015176 -0.007403 -0.003085 0.000000 0.000000 0.000000
# 2 -0.007403 0.022781 -0.003872 0.000000 0.000000 0.000000
# 3 -0.003085 -0.003872 0.007646 0.000000 0.000000 0.000000
# 4 0.000000 0.000000 0.000000 -0.074185 0.000000 0.000000
# 5 0.000000 0.000000 0.000000 0.000000 0.027931 0.000000
# 6 0.000000 0.000000 0.000000 0.000000 0.000000 0.041467
#
#
# Mechanical properties :
#
#
# Convention : Reuss Voigt Hill
#
# Bulk Modulus (GPa) = 59.24121 73.12067 66.18094
# Shear Modulus (GPa) = 66.52118 22.07655 44.29886
#
# Velocity S-wave (km/s) = 5.99012 3.45081 4.88823
# Velocity P-wave (km/s) = 8.93290 7.43766 8.21935
#
# Compressibility (1/GPa) = 0.01688014
#
# Stress axis : x y z
#
# Youngs Moduli (GPa) = 65.89381 43.89675 130.79341
#
# Poissons Ratio (x) = 0.32499 0.40352
# Poissons Ratio (y) = 0.48784 0.50649
# Poissons Ratio (z) = 0.20329 0.16999
#
# Static dielectric constant tensor:
#      x y z
#    x 3.595230 0.000000 0.000000 
#    y 0.000000 3.258400 0.000000 
#    z 0.000000 0.000000 3.681210 
# 
# 
# High freq. dielectric constant tensor:
#      x y z
#    x 1.717670 0.000000 0.000000 
#    y 0.000000 1.690430 0.000000 
#    z 0.000000 0.000000 1.738350 
# 
# From -- ./inp_files/74431.got.cif
#   From: 2010.03.12/outbox.cif.g09.slc.cpg/sg65_38_cif.got.tgz:74431.got - 2010.04.10 20:52:16.
