data_PCOD8271145
_publ_section_title
;
Structure prediction by ZEFSAII (Michael W. Deem and Ramdas Pophale) SiO2 
 PCOD8271145
Probable space group: C M M M
;
_chemical_formula_sum "Si O2"
_cell_formula_units_Z 80
_cell_length_a 9.253735
_cell_length_b 16.831664
_cell_length_c 26.937434
_cell_angle_alpha 90.000000
_cell_angle_beta 90.000000
_cell_angle_gamma 90.000000
_cell_volume 4195.660458
_symmetry_space_group_name_H-M "C M M M"
_symmetry_group_IT_number 65
_symmetry_cell_setting 'orthorhombic'
loop_
_space_group_symop_operation_xyz
x,y,z
-x,-y,z
x,-y,-z
-x,y,-z
-x,-y,-z
x,y,-z
-x,y,z
x,-y,z
1/2+x,1/2+y,z
1/2-x,1/2-y,z
1/2+x,1/2-y,-z
1/2-x,1/2+y,-z
1/2-x,1/2-y,-z
1/2+x,1/2+y,-z
1/2-x,1/2+y,z
1/2+x,1/2-y,z
loop_
_atom_site_type_symbol
_atom_site_label
_atom_site_fract_x
_atom_site_fract_y
_atom_site_fract_z
Si Si1 0.329830 0.000000 0.557131
Si Si2 0.667738 0.828069 0.719899
Si Si3 0.328958 0.331125 0.099949
Si Si4 0.342396 0.591240 0.799130
Si Si5 0.330478 0.167480 0.395229
Si Si6 0.828017 0.087880 0.000000
O O1 0.271611 0.915341 0.579776
O O2 0.500000 0.000000 0.565523
O O3 0.283958 0.000000 0.500000
O O4 0.500000 0.817322 0.729937
O O5 0.750000 0.750000 0.737745
O O6 0.769858 0.602738 0.754185
O O7 0.699579 0.846749 0.662599
O O8 0.500000 0.320203 0.097233
O O9 0.250000 0.250000 0.106298
O O10 0.280690 0.379691 0.148363
O O11 0.269333 0.370477 0.049595
O O12 0.500000 0.630659 0.787180
O O13 0.366916 0.500000 0.805907
O O14 0.500000 0.179804 0.407127
O O15 0.250000 0.250000 0.412897
O O16 0.000000 0.086365 0.000000
O O17 0.763675 0.000000 0.000000
#
# Coordination Sequence:
#
# PCOD8271145 Si02
#       6
#     8  16  16  16  16   8
#     4   9  18  34  57  83 111 147 187 226 273 328
#     4  10  20  34  54  77 105 139 178 219 264 318
#     4  10  20  34  53  75 100 131 168 209 254 307
#     4  10  21  35  51  75 106 137 172 216 264 312
#     4   9  19  35  56  81 111 145 185 229 274 327
#     4   9  17  32  55  77  96 125 166 208 252 305
#
# _framework density 19.067319999999999
#
# number of rings (size 3 to 8) (size 9 to 14) (size 15 to 20)
#    0.000    2.400    0.000    2.100    1.400    6.400 
#    0.000    0.500    0.000    3.000    0.000    0.000 
#    0.000    0.000    0.000    0.000    0.000    0.000 
#
# Total GULP energy -495697.101606 kJ/mol
# GULP energy per Si atom -12392.427540 kJ/mol
# Density = 1.902392 g / cm^3
# Si number density = 19.067320 Si / 1000 Ang^3
#
#
#
# Elastic Constant Matrix: (Units=GPa)
#
#
# Indices 1 2 3 4 5 6 
#
# 1 48.3879 43.2666 42.3643 0.0000 0.0000 0.0000
# 2 43.2666 129.5518 62.1257 0.0000 0.0000 0.0000
# 3 42.3643 62.1257 114.8069 0.0000 0.0000 0.0000
# 4 0.0000 0.0000 0.0000 39.2306 0.0000 0.0000
# 5 0.0000 0.0000 0.0000 0.0000 22.4934 0.0000
# 6 0.0000 0.0000 0.0000 0.0000 0.0000 20.7433
#
#
#
# Elastic Compliance Matrix: (Units=1/GPa)
#
#
# Indices 1 2 3 4 5 6 
#
# 1 0.035159 -0.007455 -0.008940 0.000000 0.000000 0.000000
# 2 -0.007455 0.012005 -0.003745 0.000000 0.000000 0.000000
# 3 -0.008940 -0.003745 0.014036 0.000000 0.000000 0.000000
# 4 0.000000 0.000000 0.000000 0.025490 0.000000 0.000000
# 5 0.000000 0.000000 0.000000 0.000000 0.044458 0.000000
# 6 0.000000 0.000000 0.000000 0.000000 0.000000 0.048208
#
#
# Mechanical properties :
#
#
# Convention : Reuss Voigt Hill
#
# Bulk Modulus (GPa) = 47.80204 65.36221 56.58212
# Shear Modulus (GPa) = 22.06442 26.15945 24.11193
#
# Velocity S-wave (km/s) = 3.40543 3.70801 3.55994
# Velocity P-wave (km/s) = 6.37081 7.25855 6.82912
#
# Compressibility (1/GPa) = 0.02091961
#
# Stress axis : x y z
#
# Youngs Moduli (GPa) = 28.44197 83.30074 71.24708
#
# Poissons Ratio (x) = 0.62103 0.63693
# Poissons Ratio (y) = 0.21204 0.26683
# Poissons Ratio (z) = 0.25426 0.31197
#
# Static dielectric constant tensor:
#      x y z
#    x 3.335140 0.000000 0.000000 
#    y 0.000000 3.592770 0.000000 
#    z 0.000000 0.000000 3.458920 
# 
# 
# High freq. dielectric constant tensor:
#      x y z
#    x 1.712550 0.000000 0.000000 
#    y 0.000000 1.750280 0.000000 
#    z 0.000000 0.000000 1.749240 
# 
# From -- ./inp_files/68849.got.cif
#   From: 2010.03.12/outbox.cif.g09.slc.cpg/sg65_35_cif.got.tgz:68849.got - 2010.04.10 20:52:16.
