data_PCOD8271340
_publ_section_title
;
Structure prediction by ZEFSAII (Michael W. Deem and Ramdas Pophale) SiO2 
 PCOD8271340
Probable space group: C M M M
;
_chemical_formula_sum "Si O2"
_cell_formula_units_Z 72
_cell_length_a 18.396871
_cell_length_b 9.041612
_cell_length_c 24.773188
_cell_angle_alpha 90.000000
_cell_angle_beta 90.000000
_cell_angle_gamma 90.000000
_cell_volume 4120.706928
_symmetry_space_group_name_H-M "C M M M"
_symmetry_group_IT_number 65
_symmetry_cell_setting 'orthorhombic'
loop_
_space_group_symop_operation_xyz
x,y,z
-x,-y,z
x,-y,-z
-x,y,-z
-x,-y,-z
x,y,-z
-x,y,z
x,-y,z
1/2+x,1/2+y,z
1/2-x,1/2-y,z
1/2+x,1/2-y,-z
1/2-x,1/2+y,-z
1/2-x,1/2-y,-z
1/2+x,1/2+y,-z
1/2-x,1/2+y,z
1/2+x,1/2-y,z
loop_
_atom_site_type_symbol
_atom_site_label
_atom_site_fract_x
_atom_site_fract_y
_atom_site_fract_z
Si Si1 0.825205 0.826224 0.059865
Si Si2 0.176905 0.835394 0.358515
Si Si3 0.416289 0.174414 0.731247
Si Si4 0.585375 0.500000 0.436785
Si Si5 0.415285 0.668810 0.839119
O O1 0.750000 0.750000 0.073237
O O2 0.881111 0.771767 0.105286
O O3 0.813275 0.000000 0.063009
O O4 0.853662 0.780857 0.000000
O O5 0.250000 0.750000 0.375670
O O6 0.134439 0.745272 0.313517
O O7 0.196954 0.000000 0.336363
O O8 0.123677 0.854113 0.410678
O O9 0.500000 0.222804 0.721422
O O10 0.388755 0.231292 0.789309
O O11 0.407439 0.000000 0.728955
O O12 0.500000 0.500000 0.423075
O O13 0.599970 0.500000 0.500000
O O14 0.500000 0.684756 0.847740
O O15 0.392634 0.500000 0.826857
#
# Coordination Sequence:
#
# PCOD8271340 Si02
#       5
#    16  16  16   8  16
#     4   9  18  32  49  69  94 127 167 212 267 326
#     4  10  21  35  57  84 116 148 186 228 276 324
#     4  10  20  34  54  78 109 146 184 227 274 331
#     4   9  20  38  62  88 115 153 194 228 271 330
#     4   9  18  32  50  73 100 134 176 220 269 322
#
# _framework density 17.472731
#
# number of rings (size 3 to 8) (size 9 to 14) (size 15 to 20)
#    0.667    1.889    0.000    2.000    0.000    3.556 
#    0.000    4.444    0.000    0.000    0.000   10.889 
#    0.000    0.000    0.000    0.000    0.000    0.000 
#
# Total GULP energy -446223.517235 kJ/mol
# GULP energy per Si atom -12395.097701 kJ/mol
# Density = 1.743296 g / cm^3
# Si number density = 17.472731 Si / 1000 Ang^3
#
#
#
# Elastic Constant Matrix: (Units=GPa)
#
#
# Indices 1 2 3 4 5 6 
#
# 1 99.2853 45.7468 79.5712 0.0000 0.0000 0.0000
# 2 45.7468 65.9772 49.0854 0.0000 0.0000 0.0000
# 3 79.5712 49.0854 142.2112 0.0000 0.0000 0.0000
# 4 0.0000 0.0000 0.0000 18.4089 0.0000 0.0000
# 5 0.0000 0.0000 0.0000 0.0000 13.9187 0.0000
# 6 0.0000 0.0000 0.0000 0.0000 0.0000 33.1652
#
#
#
# Elastic Compliance Matrix: (Units=1/GPa)
#
#
# Indices 1 2 3 4 5 6 
#
# 1 0.020857 -0.007776 -0.008986 0.000000 0.000000 0.000000
# 2 -0.007776 0.023293 -0.003689 0.000000 0.000000 0.000000
# 3 -0.008986 -0.003689 0.013333 0.000000 0.000000 0.000000
# 4 0.000000 0.000000 0.000000 0.054322 0.000000 0.000000
# 5 0.000000 0.000000 0.000000 0.000000 0.071846 0.000000
# 6 0.000000 0.000000 0.000000 0.000000 0.000000 0.030152
#
#
# Mechanical properties :
#
#
# Convention : Reuss Voigt Hill
#
# Bulk Modulus (GPa) = 60.31078 72.92005 66.61542
# Shear Modulus (GPa) = 19.21380 21.96993 20.59186
#
# Velocity S-wave (km/s) = 3.31969 3.54981 3.43667
# Velocity P-wave (km/s) = 7.02038 7.65675 7.34546
#
# Compressibility (1/GPa) = 0.01658078
#
# Stress axis : x y z
#
# Youngs Moduli (GPa) = 47.94668 42.93164 75.00291
#
# Poissons Ratio (x) = 0.33384 0.67396
# Poissons Ratio (y) = 0.37284 0.27667
# Poissons Ratio (z) = 0.43084 0.15836
#
# Static dielectric constant tensor:
#      x y z
#    x 3.201540 0.000000 0.000000 
#    y 0.000000 3.243870 0.000000 
#    z 0.000000 0.000000 3.336940 
# 
# 
# High freq. dielectric constant tensor:
#      x y z
#    x 1.673050 0.000000 0.000000 
#    y 0.000000 1.668400 0.000000 
#    z 0.000000 0.000000 1.676650 
# 
# From -- ./inp_files/70752.got.cif
#   From: 2010.03.12/outbox.cif.g09.slc.cpg/sg65_36_cif.got.tgz:70752.got - 2010.04.10 20:52:16.
