data_PCOD8271373
_publ_section_title
;
Structure prediction by ZEFSAII (Michael W. Deem and Ramdas Pophale) SiO2 
 PCOD8271373
Probable space group: C M M M
;
_chemical_formula_sum "Si O2"
_cell_formula_units_Z 80
_cell_length_a 15.343860
_cell_length_b 23.931194
_cell_length_c 12.559718
_cell_angle_alpha 90.000000
_cell_angle_beta 90.000000
_cell_angle_gamma 90.000000
_cell_volume 4611.889394
_symmetry_space_group_name_H-M "C M M M"
_symmetry_group_IT_number 65
_symmetry_cell_setting 'orthorhombic'
loop_
_space_group_symop_operation_xyz
x,y,z
-x,-y,z
x,-y,-z
-x,y,-z
-x,-y,-z
x,y,-z
-x,y,z
x,-y,z
1/2+x,1/2+y,z
1/2-x,1/2-y,z
1/2+x,1/2-y,-z
1/2-x,1/2+y,-z
1/2-x,1/2-y,-z
1/2+x,1/2+y,-z
1/2-x,1/2+y,z
1/2+x,1/2-y,z
loop_
_atom_site_type_symbol
_atom_site_label
_atom_site_fract_x
_atom_site_fract_y
_atom_site_fract_z
Si Si1 0.000000 0.740617 0.253101
Si Si2 0.101914 0.000000 0.124468
Si Si3 0.840449 0.779985 0.876401
Si Si4 0.500000 0.124965 0.623991
Si Si5 0.838341 0.106413 0.751727
Si Si6 0.500000 0.354388 0.625468
Si Si7 0.177904 0.435274 0.375528
O O1 0.914951 0.743928 0.179842
O O2 0.000000 0.682078 0.311943
O O3 0.000000 0.790012 0.339345
O O4 0.146544 0.053536 0.174717
O O5 0.000000 0.000000 0.149534
O O6 0.121209 0.000000 0.000000
O O7 0.750000 0.750000 0.854910
O O8 0.834531 0.841542 0.829938
O O9 0.863684 0.784477 0.000000
O O10 0.500000 0.140269 0.500000
O O11 0.583418 0.088180 0.655147
O O12 0.748569 0.100526 0.688174
O O13 0.915548 0.113121 0.667103
O O14 0.500000 0.357073 0.500000
O O15 0.196863 0.427820 0.500000
O O16 0.182512 0.500000 0.342321
#
# Coordination Sequence:
#
# PCOD8271373 Si02
#       7
#     8   8  16   8  16   8  16
#     4  10  20  35  55  77 105 139 175 218 268 319
#     4  11  22  36  54  79 106 139 177 216 261 315
#     4  10  21  36  55  79 104 134 176 222 267 316
#     4  10  20  35  55  80 106 142 182 225 268 313
#     4  11  20  36  54  79 108 142 175 214 264 318
#     4  10  21  34  51  77 110 140 171 209 259 319
#     4  10  20  34  54  79 110 142 182 222 263 315
#
# _framework density 17.34647
#
# number of rings (size 3 to 8) (size 9 to 14) (size 15 to 20)
#    0.000    1.700    2.000    3.300    0.000    1.200 
#    0.000    0.500    0.000    9.600    0.000    0.700 
#    0.000    0.000    0.000    0.000    0.000    0.000 
#
# Total GULP energy -496168.938194 kJ/mol
# GULP energy per Si atom -12404.223455 kJ/mol
# Density = 1.730699 g / cm^3
# Si number density = 17.346470 Si / 1000 Ang^3
#
#
#
# Elastic Constant Matrix: (Units=GPa)
#
#
# Indices 1 2 3 4 5 6 
#
# 1 124.1898 35.5116 57.9654 0.0000 0.0000 0.0000
# 2 35.5116 74.9238 37.2681 0.0000 0.0000 0.0000
# 3 57.9654 37.2681 88.7363 0.0000 0.0000 0.0000
# 4 0.0000 0.0000 0.0000 32.6177 0.0000 0.0000
# 5 0.0000 0.0000 0.0000 0.0000 30.4079 0.0000
# 6 0.0000 0.0000 0.0000 0.0000 0.0000 17.2779
#
#
#
# Elastic Compliance Matrix: (Units=1/GPa)
#
#
# Indices 1 2 3 4 5 6 
#
# 1 0.011874 -0.002237 -0.006817 0.000000 0.000000 0.000000
# 2 -0.002237 0.017293 -0.005802 0.000000 0.000000 0.000000
# 3 -0.006817 -0.005802 0.018159 0.000000 0.000000 0.000000
# 4 0.000000 0.000000 0.000000 0.030658 0.000000 0.000000
# 5 0.000000 0.000000 0.000000 0.000000 0.032886 0.000000
# 6 0.000000 0.000000 0.000000 0.000000 0.000000 0.057877
#
#
# Mechanical properties :
#
#
# Convention : Reuss Voigt Hill
#
# Bulk Modulus (GPa) = 56.77026 61.03779 58.90402
# Shear Modulus (GPa) = 24.47037 26.53438 25.50238
#
# Velocity S-wave (km/s) = 3.75998 3.91534 3.83845
# Velocity P-wave (km/s) = 7.18667 7.46349 7.32639
#
# Compressibility (1/GPa) = 0.01761486
#
# Stress axis : x y z
#
# Youngs Moduli (GPa) = 84.22116 57.82711 55.06984
#
# Poissons Ratio (x) = 0.12936 0.37539
# Poissons Ratio (y) = 0.18840 0.31949
# Poissons Ratio (z) = 0.57411 0.33549
#
# Static dielectric constant tensor:
#      x y z
#    x 3.600580 0.000000 0.000000 
#    y 0.000000 3.102560 0.000000 
#    z 0.000000 0.000000 3.201420 
# 
# 
# High freq. dielectric constant tensor:
#      x y z
#    x 1.684040 0.000000 0.000000 
#    y 0.000000 1.679490 0.000000 
#    z 0.000000 0.000000 1.672570 
# 
# From -- ./inp_files/25061.got.cif
#   From: 2010.03.12/outbox.cif.g09.slc.cpg/sg65_13_cif.got.tgz:25061.got - 2010.04.10 20:52:16.
