data_PCOD8271344
_publ_section_title
;
Structure prediction by ZEFSAII (Michael W. Deem and Ramdas Pophale) SiO2 
 PCOD8271344
Probable space group: C M M M
;
_chemical_formula_sum "Si O2"
_cell_formula_units_Z 120
_cell_length_a 26.403497
_cell_length_b 9.253902
_cell_length_c 27.792071
_cell_angle_alpha 90.000000
_cell_angle_beta 90.000000
_cell_angle_gamma 90.000000
_cell_volume 6790.586054
_symmetry_space_group_name_H-M "C M M M"
_symmetry_group_IT_number 65
_symmetry_cell_setting 'orthorhombic'
loop_
_space_group_symop_operation_xyz
x,y,z
-x,-y,z
x,-y,-z
-x,y,-z
-x,-y,-z
x,y,-z
-x,y,z
x,-y,z
1/2+x,1/2+y,z
1/2-x,1/2-y,z
1/2+x,1/2-y,-z
1/2-x,1/2+y,-z
1/2-x,1/2-y,-z
1/2+x,1/2+y,-z
1/2-x,1/2+y,z
1/2+x,1/2-y,z
loop_
_atom_site_type_symbol
_atom_site_label
_atom_site_fract_x
_atom_site_fract_y
_atom_site_fract_z
Si Si1 0.363920 0.330588 0.355987
Si Si2 0.601241 0.332483 0.211078
Si Si3 0.199838 0.331254 0.055516
Si Si4 0.201324 0.837142 0.266828
Si Si5 0.500000 0.828889 0.946512
Si Si6 0.598657 0.171247 0.111460
Si Si7 0.558334 0.164349 0.700803
Si Si8 0.699584 0.332209 0.554087
O O1 0.376825 0.500000 0.349683
O O2 0.320508 0.284303 0.318089
O O3 0.413457 0.237210 0.344533
O O4 0.345765 0.291871 0.409748
O O5 0.585013 0.500000 0.207637
O O6 0.659827 0.317588 0.225387
O O7 0.592946 0.253935 0.161111
O O8 0.566691 0.255206 0.250781
O O9 0.209818 0.500000 0.062153
O O10 0.250000 0.250000 0.074725
O O11 0.150635 0.281605 0.085366
O O12 0.189454 0.291577 0.000000
O O13 0.250000 0.750000 0.250670
O O14 0.219527 0.000000 0.271719
O O15 0.550910 0.776870 0.920036
O O16 0.500000 0.000000 0.949638
O O17 0.500000 0.761760 0.000000
O O18 0.597501 0.000000 0.120633
O O19 0.500000 0.166542 0.686962
O O20 0.577578 0.000000 0.708447
O O21 0.682634 0.289252 0.500000
O O22 0.712690 0.500000 0.557983
O O23 0.750000 0.250000 0.569766
#
# Coordination Sequence:
#
# PCOD8271344 Si02
#       8
#    16  16  16  16   8  16  16  16
#     4   9  18  32  49  73 103 135 172 211 256 306
#     4  10  22  37  51  73 104 135 165 199 249 305
#     4   9  18  33  53  76 102 134 171 209 250 297
#     4   9  18  31  47  68  96 131 168 204 243 292
#     4   9  18  34  57  81 103 129 163 207 254 299
#     4  10  20  34  54  79 104 131 167 210 253 301
#     4  10  21  36  55  76  97 124 166 216 258 303
#     4   9  17  29  47  74 108 143 177 213 253 301
#
# _framework density 17.671523000000001
#
# number of rings (size 3 to 8) (size 9 to 14) (size 15 to 20)
#    0.000    2.600    0.000    2.400    0.933    6.933 
#    0.000    2.667    0.000    2.000    0.000    2.800 
#    0.000    0.000    0.000    0.000    0.000    0.000 
#
# Total GULP energy -744015.306409 kJ/mol
# GULP energy per Si atom -12400.255107 kJ/mol
# Density = 1.763130 g / cm^3
# Si number density = 17.671523 Si / 1000 Ang^3
#
#
#
# Elastic Constant Matrix: (Units=GPa)
#
#
# Indices 1 2 3 4 5 6 
#
# 1 116.1816 50.4916 58.0341 0.0000 0.0000 0.0000
# 2 50.4916 69.3891 46.3993 0.0000 0.0000 0.0000
# 3 58.0341 46.3993 121.1271 0.0000 0.0000 0.0000
# 4 0.0000 0.0000 0.0000 27.2299 0.0000 0.0000
# 5 0.0000 0.0000 0.0000 0.0000 18.9458 0.0000
# 6 0.0000 0.0000 0.0000 0.0000 0.0000 29.7826
#
#
#
# Elastic Compliance Matrix: (Units=1/GPa)
#
#
# Indices 1 2 3 4 5 6 
#
# 1 0.013717 -0.007510 -0.003695 0.000000 0.000000 0.000000
# 2 -0.007510 0.023486 -0.005398 0.000000 0.000000 0.000000
# 3 -0.003695 -0.005398 0.012094 0.000000 0.000000 0.000000
# 4 0.000000 0.000000 0.000000 0.036724 0.000000 0.000000
# 5 0.000000 0.000000 0.000000 0.000000 0.052782 0.000000
# 6 0.000000 0.000000 0.000000 0.000000 0.000000 0.033577
#
#
# Mechanical properties :
#
#
# Convention : Reuss Voigt Hill
#
# Bulk Modulus (GPa) = 62.15186 68.50530 65.32858
# Shear Modulus (GPa) = 23.70218 25.30986 24.50602
#
# Velocity S-wave (km/s) = 3.66630 3.78860 3.72795
# Velocity P-wave (km/s) = 7.29173 7.61499 7.45511
#
# Compressibility (1/GPa) = 0.01608962
#
# Stress axis : x y z
#
# Youngs Moduli (GPa) = 72.90273 42.57801 82.68520
#
# Poissons Ratio (x) = 0.31978 0.30553
# Poissons Ratio (y) = 0.54753 0.44636
# Poissons Ratio (z) = 0.26938 0.22985
#
# Static dielectric constant tensor:
#      x y z
#    x 3.240330 0.000000 0.000000 
#    y 0.000000 3.270960 0.000000 
#    z 0.000000 0.000000 3.312750 
# 
# 
# High freq. dielectric constant tensor:
#      x y z
#    x 1.679050 0.000000 0.000000 
#    y 0.000000 1.678450 0.000000 
#    z 0.000000 0.000000 1.679890 
# 
# From -- ./inp_files/76091.got.cif
#   From: 2010.03.12/outbox.cif.g09.slc.cpg/sg65_39_cif.got.tgz:76091.got - 2010.04.10 20:52:16.
