data_PCOD8271881
_publ_section_title
;
Structure prediction by ZEFSAII (Michael W. Deem and Ramdas Pophale) SiO2 
 PCOD8271881
Probable space group: C M M M
;
_chemical_formula_sum "Si O2"
_cell_formula_units_Z 88
_cell_length_a 8.722527
_cell_length_b 23.219434
_cell_length_c 22.701276
_cell_angle_alpha 90.000000
_cell_angle_beta 90.000000
_cell_angle_gamma 90.000000
_cell_volume 4597.738009
_symmetry_space_group_name_H-M "C M M M"
_symmetry_group_IT_number 65
_symmetry_cell_setting 'orthorhombic'
loop_
_space_group_symop_operation_xyz
x,y,z
-x,-y,z
x,-y,-z
-x,y,-z
-x,-y,-z
x,y,-z
-x,y,z
x,-y,z
1/2+x,1/2+y,z
1/2-x,1/2-y,z
1/2+x,1/2-y,-z
1/2-x,1/2+y,-z
1/2-x,1/2-y,-z
1/2+x,1/2+y,-z
1/2-x,1/2+y,z
1/2+x,1/2-y,z
loop_
_atom_site_type_symbol
_atom_site_label
_atom_site_fract_x
_atom_site_fract_y
_atom_site_fract_z
Si Si1 0.181026 0.812826 0.500000
Si Si2 0.821313 0.877822 0.177395
Si Si3 0.180593 0.312241 0.281307
Si Si4 0.179410 0.809825 0.934557
Si Si5 0.818096 0.882785 0.613603
Si Si6 0.818765 0.500000 0.643386
Si Si7 0.178457 0.000000 0.228183
O O1 0.250000 0.750000 0.500000
O O2 0.238975 0.846318 0.442319
O O3 0.000000 0.807417 0.500000
O O4 0.720157 0.835224 0.216769
O O5 0.779898 0.861995 0.109884
O O6 0.000000 0.866352 0.191107
O O7 0.778347 0.944284 0.189172
O O8 0.250000 0.250000 0.292316
O O9 0.255369 0.355697 0.326945
O O10 0.000000 0.309657 0.290786
O O11 0.250000 0.750000 0.911574
O O12 0.000000 0.799895 0.936734
O O13 0.242211 0.825585 0.000000
O O14 0.748861 0.946074 0.608272
O O15 0.000000 0.886480 0.616796
O O16 0.773384 0.500000 0.711923
O O17 0.000000 0.500000 0.639214
O O18 0.000000 0.000000 0.245461
#
# Coordination Sequence:
#
# PCOD8271881 Si02
#       7
#     8  16  16  16  16   8   8
#     4  10  24  43  66  91 119 156 196 238 293 350
#     4  10  20  35  56  82 112 151 194 239 295 350
#     4  12  24  37  56  85 117 150 192 242 294 351
#     4   9  18  33  53  79 112 149 192 241 291 348
#     4  11  23  42  64  88 119 156 195 240 291 348
#     4  12  24  39  61  91 120 155 198 243 291 344
#     4  10  20  36  58  81 114 156 193 237 293 350
#
# _framework density 19.139847
#
# number of rings (size 3 to 8) (size 9 to 14) (size 15 to 20)
#    0.000    1.455    1.818    4.091    0.000    5.455 
#    0.000    2.273    0.000    2.727    0.000    0.000 
#    0.000    5.091    0.000    0.000    0.000    0.000 
#
# Total GULP energy -545745.897971 kJ/mol
# GULP energy per Si atom -12403.315863 kJ/mol
# Density = 1.909628 g / cm^3
# Si number density = 19.139847 Si / 1000 Ang^3
#
#
#
# Elastic Constant Matrix: (Units=GPa)
#
#
# Indices 1 2 3 4 5 6 
#
# 1 80.7002 45.1211 33.2379 0.0000 0.0000 0.0000
# 2 45.1211 143.9598 55.4913 0.0000 0.0000 0.0000
# 3 33.2379 55.4913 112.7231 0.0000 0.0000 0.0000
# 4 0.0000 0.0000 0.0000 37.8125 0.0000 0.0000
# 5 0.0000 0.0000 0.0000 0.0000 13.9610 0.0000
# 6 0.0000 0.0000 0.0000 0.0000 0.0000 29.7283
#
#
#
# Elastic Compliance Matrix: (Units=1/GPa)
#
#
# Indices 1 2 3 4 5 6 
#
# 1 0.015672 -0.003864 -0.002719 0.000000 0.000000 0.000000
# 2 -0.003864 0.009526 -0.003550 0.000000 0.000000 0.000000
# 3 -0.002719 -0.003550 0.011421 0.000000 0.000000 0.000000
# 4 0.000000 0.000000 0.000000 0.026446 0.000000 0.000000
# 5 0.000000 0.000000 0.000000 0.000000 0.071628 0.000000
# 6 0.000000 0.000000 0.000000 0.000000 0.000000 0.033638
#
#
# Mechanical properties :
#
#
# Convention : Reuss Voigt Hill
#
# Bulk Modulus (GPa) = 61.15280 67.23152 64.19216
# Shear Modulus (GPa) = 25.76693 29.86921 27.81807
#
# Velocity S-wave (km/s) = 3.67310 3.95470 3.81650
# Velocity P-wave (km/s) = 7.07169 7.48703 7.28232
#
# Compressibility (1/GPa) = 0.01635248
#
# Stress axis : x y z
#
# Youngs Moduli (GPa) = 63.80894 104.97725 87.56097
#
# Poissons Ratio (x) = 0.40563 0.23807
# Poissons Ratio (y) = 0.24655 0.31085
# Poissons Ratio (z) = 0.17349 0.37267
#
# Static dielectric constant tensor:
#      x y z
#    x 3.480380 0.000000 0.000000 
#    y 0.000000 3.679230 0.000000 
#    z 0.000000 0.000000 3.721600 
# 
# 
# High freq. dielectric constant tensor:
#      x y z
#    x 1.742620 0.000000 0.000000 
#    y 0.000000 1.752920 0.000000 
#    z 0.000000 0.000000 1.746810 
# 
# From -- ./inp_files/59868.got.cif
#   From: 2010.03.12/outbox.cif.g09.slc.cpg/sg65_30_cif.got.tgz:59868.got - 2010.04.10 20:52:16.
