data_PCOD8271111
_publ_section_title
;
Structure prediction by ZEFSAII (Michael W. Deem and Ramdas Pophale) SiO2 
 PCOD8271111
Probable space group: C M M M
;
_chemical_formula_sum "Si O2"
_cell_formula_units_Z 88
_cell_length_a 19.435832
_cell_length_b 8.749288
_cell_length_c 27.894430
_cell_angle_alpha 90.000000
_cell_angle_beta 90.000000
_cell_angle_gamma 90.000000
_cell_volume 4743.439221
_symmetry_space_group_name_H-M "C M M M"
_symmetry_group_IT_number 65
_symmetry_cell_setting 'orthorhombic'
loop_
_space_group_symop_operation_xyz
x,y,z
-x,-y,z
x,-y,-z
-x,y,-z
-x,-y,-z
x,y,-z
-x,y,z
x,-y,z
1/2+x,1/2+y,z
1/2-x,1/2-y,z
1/2+x,1/2-y,-z
1/2-x,1/2+y,-z
1/2-x,1/2-y,-z
1/2+x,1/2+y,-z
1/2-x,1/2+y,z
1/2+x,1/2-y,z
loop_
_atom_site_type_symbol
_atom_site_label
_atom_site_fract_x
_atom_site_fract_y
_atom_site_fract_z
Si Si1 0.322866 0.319618 0.270487
Si Si2 0.418269 0.328623 0.095932
Si Si3 0.417856 0.827665 0.000000
Si Si4 0.079977 0.174649 0.445063
Si Si5 0.178065 0.320828 0.371570
Si Si6 0.580862 0.823610 0.806485
O O1 0.315335 0.500000 0.274396
O O2 0.250000 0.250000 0.254150
O O3 0.345925 0.253728 0.321743
O O4 0.381185 0.278180 0.232606
O O5 0.500000 0.330578 0.093168
O O6 0.389237 0.500000 0.101536
O O7 0.393895 0.227839 0.140940
O O8 0.388438 0.256085 0.047151
O O9 0.500000 0.824853 0.000000
O O10 0.390184 0.000000 0.000000
O O11 0.098883 0.210017 0.500000
O O12 0.121572 0.289887 0.411841
O O13 0.000000 0.204254 0.435842
O O14 0.099081 0.000000 0.432455
O O15 0.187078 0.500000 0.363784
O O16 0.250000 0.250000 0.388926
O O17 0.500000 0.794562 0.800278
O O18 0.600144 0.000000 0.799332
#
# Coordination Sequence:
#
# PCOD8271111 Si02
#       6
#    16  16   8  16  16  16
#     4  11  22  38  58  78 104 137 175 217 262 313
#     4   9  16  26  41  64  95 130 168 210 257 308
#     4   9  15  23  37  59  90 129 168 207 256 309
#     4   9  19  37  59  82 110 143 177 214 258 308
#     4  11  22  37  57  80 107 138 175 218 261 307
#     4  10  20  34  52  76 106 137 172 215 261 310
#
# _framework density 18.551940999999999
#
# number of rings (size 3 to 8) (size 9 to 14) (size 15 to 20)
#    0.000    2.091    0.000    6.273    0.000    6.182 
#    0.000    0.909    0.000    0.000    0.000    0.636 
#    0.000    0.000    0.000    0.000    0.000    0.000 
#
# Total GULP energy -545708.851820 kJ/mol
# GULP energy per Si atom -12402.473905 kJ/mol
# Density = 1.850972 g / cm^3
# Si number density = 18.551941 Si / 1000 Ang^3
#
#
#
# Elastic Constant Matrix: (Units=GPa)
#
#
# Indices 1 2 3 4 5 6 
#
# 1 47.5009 38.5149 53.5122 0.0000 0.0000 0.0000
# 2 38.5149 152.0780 59.1240 0.0000 0.0000 0.0000
# 3 53.5122 59.1240 124.3476 0.0000 0.0000 0.0000
# 4 0.0000 0.0000 0.0000 37.6681 0.0000 0.0000
# 5 0.0000 0.0000 0.0000 0.0000 -6.1777 0.0000
# 6 0.0000 0.0000 0.0000 0.0000 0.0000 24.5332
#
#
#
# Elastic Compliance Matrix: (Units=1/GPa)
#
#
# Indices 1 2 3 4 5 6 
#
# 1 0.043301 -0.004566 -0.016464 0.000000 0.000000 0.000000
# 2 -0.004566 0.008548 -0.002100 0.000000 0.000000 0.000000
# 3 -0.016464 -0.002100 0.016125 0.000000 0.000000 0.000000
# 4 0.000000 0.000000 0.000000 0.026548 0.000000 0.000000
# 5 0.000000 0.000000 0.000000 0.000000 -0.161873 0.000000
# 6 0.000000 0.000000 0.000000 0.000000 0.000000 0.040761
#
#
# Mechanical properties :
#
#
# Convention : Reuss Voigt Hill
#
# Bulk Modulus (GPa) = 46.04702 69.58098 57.81400
# Shear Modulus (GPa) = 185.82354 22.72307 104.27330
#
# Velocity S-wave (km/s) = 10.01905 3.50356 7.50521
# Velocity P-wave (km/s) = 12.59827 7.34534 10.31190
#
# Compressibility (1/GPa) = 0.02171693
#
# Stress axis : x y z
#
# Youngs Moduli (GPa) = 23.09399 116.98447 62.01458
#
# Poissons Ratio (x) = 0.53412 1.02098
# Poissons Ratio (y) = 0.10544 0.13020
# Poissons Ratio (z) = 0.38021 0.24562
#
# Static dielectric constant tensor:
#      x y z
#    x 3.025490 0.000000 0.000000 
#    y 0.000000 3.534790 0.000000 
#    z 0.000000 0.000000 3.500790 
# 
# 
# High freq. dielectric constant tensor:
#      x y z
#    x 1.679980 0.000000 0.000000 
#    y 0.000000 1.735960 0.000000 
#    z 0.000000 0.000000 1.731350 
# 
# From -- ./inp_files/70965.got.cif
#   From: 2010.03.12/outbox.cif.g09.slc.cpg/sg65_36_cif.got.tgz:70965.got - 2010.04.10 20:52:16.
