data_PCOD8271691
_publ_section_title
;
Structure prediction by ZEFSAII (Michael W. Deem and Ramdas Pophale) SiO2 
 PCOD8271691
Probable space group: C M M M
;
_chemical_formula_sum "Si O2"
_cell_formula_units_Z 96
_cell_length_a 27.164701
_cell_length_b 16.713780
_cell_length_c 10.364984
_cell_angle_alpha 90.000000
_cell_angle_beta 90.000000
_cell_angle_gamma 90.000000
_cell_volume 4705.960164
_symmetry_space_group_name_H-M "C M M M"
_symmetry_group_IT_number 65
_symmetry_cell_setting 'orthorhombic'
loop_
_space_group_symop_operation_xyz
x,y,z
-x,-y,z
x,-y,-z
-x,y,-z
-x,-y,-z
x,y,-z
-x,y,z
x,-y,z
1/2+x,1/2+y,z
1/2-x,1/2-y,z
1/2+x,1/2-y,-z
1/2-x,1/2+y,-z
1/2-x,1/2-y,-z
1/2+x,1/2+y,-z
1/2-x,1/2+y,z
1/2+x,1/2-y,z
loop_
_atom_site_type_symbol
_atom_site_label
_atom_site_fract_x
_atom_site_fract_y
_atom_site_fract_z
Si Si1 0.708839 0.910229 0.642023
Si Si2 0.446529 0.906926 0.861756
Si Si3 0.609342 0.169297 0.357464
Si Si4 0.624393 0.591101 0.145389
Si Si5 0.442124 0.336120 0.351941
Si Si6 0.227786 0.837250 0.852845
O O1 0.733899 0.902200 0.500000
O O2 0.668044 0.840096 0.652430
O O3 0.748341 0.899426 0.754102
O O4 0.686219 0.000000 0.656056
O O5 0.500000 0.867962 0.832499
O O6 0.410011 0.891610 0.746998
O O7 0.453044 0.000000 0.875364
O O8 0.426725 0.872901 0.000000
O O9 0.591107 0.143573 0.500000
O O10 0.589555 0.256840 0.326366
O O11 0.643991 0.500000 0.159209
O O12 0.580425 0.601708 0.249455
O O13 0.668988 0.654241 0.169158
O O14 0.603567 0.604716 0.000000
O O15 0.434847 0.365871 0.500000
O O16 0.500000 0.322367 0.323991
O O17 0.250000 0.750000 0.822468
O O18 0.240848 0.861507 0.000000
#
# Coordination Sequence:
#
# PCOD8271691 Si02
#       6
#    16  16  16  16  16  16
#     4  10  21  35  53  82 118 154 193 234 277 331
#     4   9  18  31  46  68 100 138 183 234 283 331
#     4  10  20  35  54  77 109 147 186 230 279 331
#     4  10  22  40  61  86 116 149 187 231 279 335
#     4  10  22  39  59  85 114 145 187 238 289 341
#     4  10  21  38  61  88 117 150 189 231 278 334
#
# _framework density 20.399663
#
# number of rings (size 3 to 8) (size 9 to 14) (size 15 to 20)
#    0.000    2.167    0.000    3.000    0.000    6.333 
#    0.000    2.500    0.000    0.000    0.000    0.000 
#    0.000    0.000    0.000    0.000    0.000    0.000 
#
# Total GULP energy -594768.420010 kJ/mol
# GULP energy per Si atom -12391.008750 kJ/mol
# Density = 2.035323 g / cm^3
# Si number density = 20.399663 Si / 1000 Ang^3
#
#
#
# Elastic Constant Matrix: (Units=GPa)
#
#
# Indices 1 2 3 4 5 6 
#
# 1 85.3635 33.2119 64.2731 0.0000 0.0000 0.0000
# 2 33.2119 61.7699 37.9596 0.0000 0.0000 0.0000
# 3 64.2731 37.9596 139.1480 0.0000 0.0000 0.0000
# 4 0.0000 0.0000 0.0000 28.7143 0.0000 0.0000
# 5 0.0000 0.0000 0.0000 0.0000 40.9492 0.0000
# 6 0.0000 0.0000 0.0000 0.0000 0.0000 28.8391
#
#
#
# Elastic Compliance Matrix: (Units=1/GPa)
#
#
# Indices 1 2 3 4 5 6 
#
# 1 0.019648 -0.005992 -0.007441 0.000000 0.000000 0.000000
# 2 -0.005992 0.021277 -0.003037 0.000000 0.000000 0.000000
# 3 -0.007441 -0.003037 0.011452 0.000000 0.000000 0.000000
# 4 0.000000 0.000000 0.000000 0.034826 0.000000 0.000000
# 5 0.000000 0.000000 0.000000 0.000000 0.024420 0.000000
# 6 0.000000 0.000000 0.000000 0.000000 0.000000 0.034675
#
#
# Mechanical properties :
#
#
# Convention : Reuss Voigt Hill
#
# Bulk Modulus (GPa) = 51.44482 61.90785 56.67633
# Shear Modulus (GPa) = 26.92262 29.75631 28.33947
#
# Velocity S-wave (km/s) = 3.63679 3.82339 3.73126
# Velocity P-wave (km/s) = 6.55043 7.06431 6.81222
#
# Compressibility (1/GPa) = 0.01943830
#
# Stress axis : x y z
#
# Youngs Moduli (GPa) = 50.89462 46.99958 87.31981
#
# Poissons Ratio (x) = 0.28160 0.64976
# Poissons Ratio (y) = 0.30494 0.26517
# Poissons Ratio (z) = 0.37872 0.14273
#
# Static dielectric constant tensor:
#      x y z
#    x 3.528980 0.000000 0.000000 
#    y 0.000000 3.425110 0.000000 
#    z 0.000000 0.000000 3.962580 
# 
# 
# High freq. dielectric constant tensor:
#      x y z
#    x 1.779210 0.000000 0.000000 
#    y 0.000000 1.779870 0.000000 
#    z 0.000000 0.000000 1.818250 
# 
# From -- ./inp_files/16303.got.cif
#   From: 2010.03.12/outbox.cif.g09.slc.cpg/sg65_9_cif.got.tgz:16303.got - 2010.04.10 20:52:16.
