data_PCOD8271166
_publ_section_title
;
Structure prediction by ZEFSAII (Michael W. Deem and Ramdas Pophale) SiO2 
 PCOD8271166
Probable space group: C M M M
;
_chemical_formula_sum "Si O2"
_cell_formula_units_Z 72
_cell_length_a 13.582302
_cell_length_b 32.599890
_cell_length_c 8.971623
_cell_angle_alpha 90.000000
_cell_angle_beta 90.000000
_cell_angle_gamma 90.000000
_cell_volume 3972.469148
_symmetry_space_group_name_H-M "C M M M"
_symmetry_group_IT_number 65
_symmetry_cell_setting 'orthorhombic'
loop_
_space_group_symop_operation_xyz
x,y,z
-x,-y,z
x,-y,-z
-x,y,-z
-x,-y,-z
x,y,-z
-x,y,z
x,-y,z
1/2+x,1/2+y,z
1/2-x,1/2-y,z
1/2+x,1/2-y,-z
1/2-x,1/2+y,-z
1/2-x,1/2-y,-z
1/2+x,1/2+y,-z
1/2-x,1/2+y,z
1/2+x,1/2-y,z
loop_
_atom_site_type_symbol
_atom_site_label
_atom_site_fract_x
_atom_site_fract_y
_atom_site_fract_z
Si Si1 0.887951 0.864858 0.675090
Si Si2 0.608916 0.856348 0.835461
Si Si3 0.787131 0.422825 0.326779
Si Si4 0.384600 0.000000 0.823260
Si Si5 0.276827 0.705970 0.169260
O O1 0.876194 0.859255 0.500000
O O2 0.817903 0.902968 0.726900
O O3 0.858580 0.821063 0.745822
O O4 0.000000 0.875663 0.720884
O O5 0.500000 0.839959 0.811930
O O6 0.631258 0.888532 0.705150
O O7 0.673854 0.816566 0.822374
O O8 0.622403 0.877079 0.000000
O O9 0.784600 0.434675 0.500000
O O10 0.820165 0.461959 0.233268
O O11 0.500000 0.000000 0.766245
O O12 0.385648 0.000000 0.000000
O O13 0.250000 0.750000 0.242880
O O14 0.314639 0.711873 0.000000
#
# Coordination Sequence:
#
# PCOD8271166 Si02
#       5
#    16  16  16   8  16
#     4   9  19  36  55  74 100 136 174 211 254 301
#     4   9  17  30  47  67  96 132 163 196 245 299
#     4  10  20  34  53  76 100 127 164 207 246 291
#     4  11  23  37  54  77 106 136 161 193 246 307
#     4   9  18  31  48  73 102 131 168 212 252 294
#
# _framework density 18.124748
#
# number of rings (size 3 to 8) (size 9 to 14) (size 15 to 20)
#    0.000    2.556    0.000    1.667    0.000    6.667 
#    0.000    2.778    0.000    3.333    0.000    0.000 
#    0.000    0.000    0.000    0.000    0.000    0.000 
#
# Total GULP energy -446072.968839 kJ/mol
# GULP energy per Si atom -12390.915801 kJ/mol
# Density = 1.808350 g / cm^3
# Si number density = 18.124748 Si / 1000 Ang^3
#
#
#
# Elastic Constant Matrix: (Units=GPa)
#
#
# Indices 1 2 3 4 5 6 
#
# 1 129.0699 60.3861 38.4408 0.0000 0.0000 0.0000
# 2 60.3861 122.7934 37.8451 0.0000 0.0000 0.0000
# 3 38.4408 37.8451 48.6706 0.0000 0.0000 0.0000
# 4 0.0000 0.0000 0.0000 20.7034 0.0000 0.0000
# 5 0.0000 0.0000 0.0000 0.0000 23.4051 0.0000
# 6 0.0000 0.0000 0.0000 0.0000 0.0000 14.4138
#
#
#
# Elastic Compliance Matrix: (Units=1/GPa)
#
#
# Indices 1 2 3 4 5 6 
#
# 1 0.011268 -0.003680 -0.006038 0.000000 0.000000 0.000000
# 2 -0.003680 0.011913 -0.006356 0.000000 0.000000 0.000000
# 3 -0.006038 -0.006356 0.030257 0.000000 0.000000 0.000000
# 4 0.000000 0.000000 0.000000 0.048301 0.000000 0.000000
# 5 0.000000 0.000000 0.000000 0.000000 0.042726 0.000000
# 6 0.000000 0.000000 0.000000 0.000000 0.000000 0.069378
#
#
# Mechanical properties :
#
#
# Convention : Reuss Voigt Hill
#
# Bulk Modulus (GPa) = 46.97196 63.76422 55.36809
# Shear Modulus (GPa) = 19.75600 22.62859 21.19229
#
# Velocity S-wave (km/s) = 3.30510 3.53723 3.42313
# Velocity P-wave (km/s) = 6.36687 7.20693 6.79989
#
# Compressibility (1/GPa) = 0.02128930
#
# Stress axis : x y z
#
# Youngs Moduli (GPa) = 88.74812 83.94461 33.04975
#
# Poissons Ratio (x) = 0.30894 0.19955
# Poissons Ratio (y) = 0.32662 0.21007
# Poissons Ratio (z) = 0.53584 0.53357
#
# Static dielectric constant tensor:
#      x y z
#    x 3.515980 0.000000 0.000000 
#    y 0.000000 3.471390 0.000000 
#    z 0.000000 0.000000 3.399220 
# 
# 
# High freq. dielectric constant tensor:
#      x y z
#    x 1.703340 0.000000 0.000000 
#    y 0.000000 1.697800 0.000000 
#    z 0.000000 0.000000 1.695530 
# 
# From -- ./inp_files/7634.got.cif
#   From: 2010.03.12/outbox.cif.g09.slc.cpg/sg65_4_cif.got.tgz:7634.got - 2010.04.10 20:52:16.
