data_PCOD8271965
_publ_section_title
;
Structure prediction by ZEFSAII (Michael W. Deem and Ramdas Pophale) SiO2 
 PCOD8271965
Probable space group: C M M M
;
_chemical_formula_sum "Si O2"
_cell_formula_units_Z 88
_cell_length_a 8.982741
_cell_length_b 17.886758
_cell_length_c 29.108502
_cell_angle_alpha 90.000000
_cell_angle_beta 90.000000
_cell_angle_gamma 90.000000
_cell_volume 4676.924565
_symmetry_space_group_name_H-M "C M M M"
_symmetry_group_IT_number 65
_symmetry_cell_setting 'orthorhombic'
loop_
_space_group_symop_operation_xyz
x,y,z
-x,-y,z
x,-y,-z
-x,y,-z
-x,-y,-z
x,y,-z
-x,y,z
x,-y,z
1/2+x,1/2+y,z
1/2-x,1/2-y,z
1/2+x,1/2-y,-z
1/2-x,1/2+y,-z
1/2-x,1/2-y,-z
1/2+x,1/2+y,-z
1/2-x,1/2+y,z
1/2+x,1/2-y,z
loop_
_atom_site_type_symbol
_atom_site_label
_atom_site_fract_x
_atom_site_fract_y
_atom_site_fract_z
Si Si1 0.330911 0.911243 0.591139
Si Si2 0.332486 0.910629 0.146570
Si Si3 0.823013 0.170105 0.326810
Si Si4 0.175470 0.915555 0.236751
Si Si5 0.177107 0.415990 0.048649
Si Si6 0.168744 0.089047 0.500000
O O1 0.500000 0.880762 0.594161
O O2 0.233185 0.884043 0.633484
O O3 0.255621 0.880505 0.544579
O O4 0.329893 0.000000 0.591544
O O5 0.500000 0.882438 0.155127
O O6 0.234920 0.880748 0.188979
O O7 0.268849 0.878902 0.097138
O O8 0.326812 0.000000 0.143930
O O9 0.750000 0.250000 0.333367
O O10 0.768530 0.135559 0.278515
O O11 0.000000 0.176484 0.329385
O O12 0.000000 0.916418 0.234307
O O13 0.236619 0.000000 0.244004
O O14 0.239675 0.500000 0.046278
O O15 0.000000 0.418396 0.051558
O O16 0.226160 0.375591 0.000000
O O17 0.000000 0.120153 0.500000
O O18 0.167227 0.000000 0.500000
#
# Coordination Sequence:
#
# PCOD8271965 Si02
#       6
#    16  16  16  16  16   8
#     4  10  20  35  57  84 111 138 170 207 245 287
#     4   8  13  21  36  59  84 112 150 193 231 272
#     4  11  23  38  54  73 100 133 169 208 253 302
#     4   9  18  32  49  68  92 124 159 196 241 293
#     4   7   9  14  26  47  77 111 144 179 222 271
#     4   9  17  31  54  83 112 141 172 205 241 283
#
# _framework density 18.815783
#
# number of rings (size 3 to 8) (size 9 to 14) (size 15 to 20)
#    0.000    3.000    0.000    3.545    0.000    4.364 
#    0.000    2.273    0.000    0.545    0.000    3.818 
#    0.000    0.727    0.000    1.636    0.000    4.364 
#
# Total GULP energy -545099.539283 kJ/mol
# GULP energy per Si atom -12388.625893 kJ/mol
# Density = 1.877296 g / cm^3
# Si number density = 18.815783 Si / 1000 Ang^3
#
#
#
# Elastic Constant Matrix: (Units=GPa)
#
#
# Indices 1 2 3 4 5 6 
#
# 1 60.0961 14.7294 47.0810 0.0000 0.0000 0.0000
# 2 14.7294 16.2576 16.0711 0.0000 0.0000 0.0000
# 3 47.0810 16.0711 188.5073 0.0000 0.0000 0.0000
# 4 0.0000 0.0000 0.0000 -0.1749 0.0000 0.0000
# 5 0.0000 0.0000 0.0000 0.0000 20.3150 0.0000
# 6 0.0000 0.0000 0.0000 0.0000 0.0000 16.3860
#
#
#
# Elastic Compliance Matrix: (Units=1/GPa)
#
#
# Indices 1 2 3 4 5 6 
#
# 1 0.024616 -0.017718 -0.004637 0.000000 0.000000 0.000000
# 2 -0.017718 0.079923 -0.002389 0.000000 0.000000 0.000000
# 3 -0.004637 -0.002389 0.006667 0.000000 0.000000 0.000000
# 4 0.000000 0.000000 0.000000 -5.718956 0.000000 0.000000
# 5 0.000000 0.000000 0.000000 0.000000 0.049225 0.000000
# 6 0.000000 0.000000 0.000000 0.000000 0.000000 0.061028
#
#
# Mechanical properties :
#
#
# Convention : Reuss Voigt Hill
#
# Bulk Modulus (GPa) = 16.20269 46.73601 31.46935
# Shear Modulus (GPa) = -0.92125 19.77052 9.42464
#
# Velocity S-wave (km/s) = -0.70048 3.24503 2.24049
# Velocity P-wave (km/s) = 2.82413 6.23963 4.84297
#
# Compressibility (1/GPa) = 0.06171814
#
# Stress axis : x y z
#
# Youngs Moduli (GPa) = 40.62465 12.51202 149.99897
#
# Poissons Ratio (x) = 0.22168 0.69561
# Poissons Ratio (y) = 0.71977 0.35831
# Poissons Ratio (z) = 0.18839 0.02989
#
# Static dielectric constant tensor:
#      x y z
#    x 3.347680 0.000000 0.000000 
#    y 0.000000 2.895010 0.000000 
#    z 0.000000 0.000000 4.091940 
# 
# 
# High freq. dielectric constant tensor:
#      x y z
#    x 1.712590 0.000000 0.000000 
#    y 0.000000 1.663750 0.000000 
#    z 0.000000 0.000000 1.764460 
# 
# From -- ./inp_files/76678.got.cif
#   From: 2010.03.12/outbox.cif.g09.slc.cpg/sg65_39_cif.got.tgz:76678.got - 2010.04.10 20:52:16.
