data_PCOD8271675
_publ_section_title
;
Structure prediction by ZEFSAII (Michael W. Deem and Ramdas Pophale) SiO2 
 PCOD8271675
Probable space group: C M M M
;
_chemical_formula_sum "Si O2"
_cell_formula_units_Z 104
_cell_length_a 9.132159
_cell_length_b 28.966720
_cell_length_c 20.264594
_cell_angle_alpha 90.000000
_cell_angle_beta 90.000000
_cell_angle_gamma 90.000000
_cell_volume 5360.566560
_symmetry_space_group_name_H-M "C M M M"
_symmetry_group_IT_number 65
_symmetry_cell_setting 'orthorhombic'
loop_
_space_group_symop_operation_xyz
x,y,z
-x,-y,z
x,-y,-z
-x,y,-z
-x,-y,-z
x,y,-z
-x,y,z
x,-y,z
1/2+x,1/2+y,z
1/2-x,1/2-y,z
1/2+x,1/2-y,-z
1/2-x,1/2+y,-z
1/2-x,1/2-y,-z
1/2+x,1/2+y,-z
1/2-x,1/2+y,z
1/2+x,1/2-y,z
loop_
_atom_site_type_symbol
_atom_site_label
_atom_site_fract_x
_atom_site_fract_y
_atom_site_fract_z
Si Si1 0.329015 0.947930 0.323570
Si Si2 0.666340 0.206006 0.268420
Si Si3 0.831768 0.117197 0.073312
Si Si4 0.828754 0.947595 0.809467
Si Si5 0.172903 0.296451 0.119460
Si Si6 0.674825 0.699652 0.500000
Si Si7 0.832258 0.643123 0.389019
O O1 0.500000 0.946315 0.307764
O O2 0.249106 0.931255 0.257354
O O3 0.293163 0.911592 0.382805
O O4 0.280422 0.000000 0.344810
O O5 0.500000 0.221953 0.265148
O O6 0.750000 0.250000 0.298169
O O7 0.720992 0.193138 0.195165
O O8 0.689302 0.162525 0.315518
O O9 0.773066 0.081295 0.127702
O O10 0.732441 0.162481 0.074883
O O11 0.000000 0.130507 0.087977
O O12 0.816791 0.095319 0.000000
O O13 0.000000 0.941366 0.797953
O O14 0.786030 0.000000 0.825206
O O15 0.250000 0.250000 0.094497
O O16 0.000000 0.291847 0.110475
O O17 0.500000 0.706239 0.500000
O O18 0.750000 0.750000 0.500000
O O19 0.722751 0.669775 0.436981
O O20 0.000000 0.649983 0.413661
#
# Coordination Sequence:
#
# PCOD8271675 Si02
#       7
#    16  16  16  16  16   8  16
#     4   9  18  34  58  86 113 142 178 221 268 316
#     4   9  18  31  50  76 102 129 165 212 263 314
#     4  10  21  35  50  71 101 138 180 222 265 318
#     4   9  18  33  54  80 109 141 177 220 270 320
#     4  10  20  35  54  76 102 132 170 218 271 324
#     4  12  26  42  59  82 113 149 186 221 261 310
#     4  10  20  36  57  81 111 146 182 219 261 311
#
# _framework density 19.400935
#
# number of rings (size 3 to 8) (size 9 to 14) (size 15 to 20)
#    0.000    2.308    0.000    2.538    0.000    5.846 
#    0.000    1.923    0.000    2.308    0.000    3.231 
#    0.000    0.000    0.000    0.000    0.000    0.000 
#
# Total GULP energy -644741.350668 kJ/mol
# GULP energy per Si atom -12398.872128 kJ/mol
# Density = 1.935678 g / cm^3
# Si number density = 19.400935 Si / 1000 Ang^3
#
#
#
# Elastic Constant Matrix: (Units=GPa)
#
#
# Indices 1 2 3 4 5 6 
#
# 1 69.7194 44.6478 33.4098 0.0000 0.0000 0.0000
# 2 44.6478 115.6781 51.2286 0.0000 0.0000 0.0000
# 3 33.4098 51.2286 76.7768 0.0000 0.0000 0.0000
# 4 0.0000 0.0000 0.0000 25.8071 0.0000 0.0000
# 5 0.0000 0.0000 0.0000 0.0000 26.0534 0.0000
# 6 0.0000 0.0000 0.0000 0.0000 0.0000 28.0074
#
#
#
# Elastic Compliance Matrix: (Units=1/GPa)
#
#
# Indices 1 2 3 4 5 6 
#
# 1 0.020388 -0.005593 -0.005140 0.000000 0.000000 0.000000
# 2 -0.005593 0.013805 -0.006777 0.000000 0.000000 0.000000
# 3 -0.005140 -0.006777 0.019784 0.000000 0.000000 0.000000
# 4 0.000000 0.000000 0.000000 0.038749 0.000000 0.000000
# 5 0.000000 0.000000 0.000000 0.000000 0.038383 0.000000
# 6 0.000000 0.000000 0.000000 0.000000 0.000000 0.035705
#
#
# Mechanical properties :
#
#
# Convention : Reuss Voigt Hill
#
# Bulk Modulus (GPa) = 52.75443 57.86073 55.30758
# Shear Modulus (GPa) = 24.02090 24.83278 24.42684
#
# Velocity S-wave (km/s) = 3.52253 3.58156 3.55217
# Velocity P-wave (km/s) = 6.61778 6.85506 6.73746
#
# Compressibility (1/GPa) = 0.01895576
#
# Stress axis : x y z
#
# Youngs Moduli (GPa) = 49.04857 72.43942 50.54666
#
# Poissons Ratio (x) = 0.40513 0.25982
# Poissons Ratio (y) = 0.27431 0.34257
# Poissons Ratio (z) = 0.25212 0.49095
#
# Static dielectric constant tensor:
#      x y z
#    x 3.464110 0.000000 0.000000 
#    y 0.000000 3.709800 0.000000 
#    z 0.000000 0.000000 3.498790 
# 
# 
# High freq. dielectric constant tensor:
#      x y z
#    x 1.747050 0.000000 0.000000 
#    y 0.000000 1.760120 0.000000 
#    z 0.000000 0.000000 1.744590 
# 
# From -- ./inp_files/60365.got.cif
#   From: 2010.03.12/outbox.cif.g09.slc.cpg/sg65_31_cif.got.tgz:60365.got - 2010.04.10 20:52:16.
