data_PCOD8271170
_publ_section_title
;
Structure prediction by ZEFSAII (Michael W. Deem and Ramdas Pophale) SiO2 
 PCOD8271170
Probable space group: C M M M
;
_chemical_formula_sum "Si O2"
_cell_formula_units_Z 96
_cell_length_a 8.857944
_cell_length_b 19.139904
_cell_length_c 30.963543
_cell_angle_alpha 90.000000
_cell_angle_beta 90.000000
_cell_angle_gamma 90.000000
_cell_volume 5249.565205
_symmetry_space_group_name_H-M "C M M M"
_symmetry_group_IT_number 65
_symmetry_cell_setting 'orthorhombic'
loop_
_space_group_symop_operation_xyz
x,y,z
-x,-y,z
x,-y,-z
-x,y,-z
-x,-y,-z
x,y,-z
-x,y,z
x,-y,z
1/2+x,1/2+y,z
1/2-x,1/2-y,z
1/2+x,1/2-y,-z
1/2-x,1/2+y,-z
1/2-x,1/2-y,-z
1/2+x,1/2+y,-z
1/2-x,1/2+y,z
1/2+x,1/2-y,z
loop_
_atom_site_type_symbol
_atom_site_label
_atom_site_fract_x
_atom_site_fract_y
_atom_site_fract_z
Si Si1 0.820221 0.922648 0.877409
Si Si2 0.179341 0.078069 0.548107
Si Si3 0.324972 0.081624 0.697404
Si Si4 0.167480 0.082821 0.783468
Si Si5 0.322203 0.323749 0.951730
Si Si6 0.821043 0.826147 0.375038
O O1 0.774678 0.890133 0.830433
O O2 0.754054 0.876744 0.916459
O O3 0.000000 0.926205 0.879851
O O4 0.751339 0.000000 0.883016
O O5 0.235192 0.099021 0.500000
O O6 0.241816 0.134527 0.582158
O O7 0.000000 0.077162 0.549596
O O8 0.238994 0.000000 0.559755
O O9 0.500000 0.097190 0.689329
O O10 0.283100 0.105360 0.746009
O O11 0.224893 0.127530 0.665649
O O12 0.286443 0.000000 0.690128
O O13 0.000000 0.112533 0.772754
O O14 0.157356 0.000000 0.787048
O O15 0.500000 0.316228 0.946507
O O16 0.250000 0.250000 0.941828
O O17 0.280207 0.350056 0.000000
O O18 0.750000 0.750000 0.372383
O O19 0.000000 0.818513 0.375978
#
# Coordination Sequence:
#
# PCOD8271170 Si02
#       6
#    16  16  16  16  16  16
#     4   8  14  26  46  71  94 117 153 200 241 277
#     4   8  15  30  53  79 103 129 166 208 245 287
#     4  10  20  34  53  76 101 129 165 208 249 293
#     4   8  14  27  48  71  94 122 157 197 242 291
#     4   9  17  29  45  65  91 123 156 190 231 281
#     4  11  22  35  52  75 105 139 172 206 248 295
#
# _framework density 18.287229
#
# number of rings (size 3 to 8) (size 9 to 14) (size 15 to 20)
#    0.000    3.000    0.000    3.000    0.000    2.333 
#    0.000    3.333    0.000    5.000    0.000    8.167 
#    0.000    0.000    0.000    0.000    0.000    0.000 
#
# Total GULP energy -594908.781565 kJ/mol
# GULP energy per Si atom -12393.932949 kJ/mol
# Density = 1.824561 g / cm^3
# Si number density = 18.287229 Si / 1000 Ang^3
#
#
#
# Elastic Constant Matrix: (Units=GPa)
#
#
# Indices 1 2 3 4 5 6 
#
# 1 37.8920 28.8258 30.3852 0.0000 0.0000 0.0000
# 2 28.8258 90.4367 77.9770 0.0000 0.0000 0.0000
# 3 30.3852 77.9770 159.5972 0.0000 0.0000 0.0000
# 4 0.0000 0.0000 0.0000 8.0840 0.0000 0.0000
# 5 0.0000 0.0000 0.0000 0.0000 14.5361 0.0000
# 6 0.0000 0.0000 0.0000 0.0000 0.0000 18.2172
#
#
#
# Elastic Compliance Matrix: (Units=1/GPa)
#
#
# Indices 1 2 3 4 5 6 
#
# 1 0.035245 -0.009414 -0.002111 0.000000 0.000000 0.000000
# 2 -0.009414 0.021621 -0.008771 0.000000 0.000000 0.000000
# 3 -0.002111 -0.008771 0.010953 0.000000 0.000000 0.000000
# 4 0.000000 0.000000 0.000000 0.123702 0.000000 0.000000
# 5 0.000000 0.000000 0.000000 0.000000 0.068794 0.000000
# 6 0.000000 0.000000 0.000000 0.000000 0.000000 0.054893
#
#
# Mechanical properties :
#
#
# Convention : Reuss Voigt Hill
#
# Bulk Modulus (GPa) = 36.72839 62.47798 49.60318
# Shear Modulus (GPa) = 13.70329 18.21666 15.95998
#
# Velocity S-wave (km/s) = 2.74037 3.15959 2.95742
# Velocity P-wave (km/s) = 5.49005 6.89563 6.23259
#
# Compressibility (1/GPa) = 0.02722690
#
# Stress axis : x y z
#
# Youngs Moduli (GPa) = 28.37289 46.25110 91.29761
#
# Poissons Ratio (x) = 0.43542 0.19268
# Poissons Ratio (y) = 0.26711 0.80081
# Poissons Ratio (z) = 0.05988 0.40569
#
# Static dielectric constant tensor:
#      x y z
#    x 3.029050 0.000000 0.000000 
#    y 0.000000 3.258430 0.000000 
#    z 0.000000 0.000000 3.856040 
# 
# 
# High freq. dielectric constant tensor:
#      x y z
#    x 1.675000 0.000000 0.000000 
#    y 0.000000 1.684860 0.000000 
#    z 0.000000 0.000000 1.728160 
# 
# From -- ./inp_files/73107.got.cif
#   From: 2010.03.12/outbox.cif.g09.slc.cpg/sg65_37_cif.got.tgz:73107.got - 2010.04.10 20:52:16.
