data_PCOD8271953
_publ_section_title
;
Structure prediction by ZEFSAII (Michael W. Deem and Ramdas Pophale) SiO2 
 PCOD8271953
Probable space group: C M M M
;
_chemical_formula_sum "Si O2"
_cell_formula_units_Z 88
_cell_length_a 27.583223
_cell_length_b 18.895238
_cell_length_c 8.876575
_cell_angle_alpha 90.000000
_cell_angle_beta 90.000000
_cell_angle_gamma 90.000000
_cell_volume 4626.396002
_symmetry_space_group_name_H-M "C M M M"
_symmetry_group_IT_number 65
_symmetry_cell_setting 'orthorhombic'
loop_
_space_group_symop_operation_xyz
x,y,z
-x,-y,z
x,-y,-z
-x,y,-z
-x,-y,-z
x,y,-z
-x,y,z
x,-y,z
1/2+x,1/2+y,z
1/2-x,1/2-y,z
1/2+x,1/2-y,-z
1/2-x,1/2+y,-z
1/2-x,1/2-y,-z
1/2+x,1/2+y,-z
1/2-x,1/2+y,z
1/2+x,1/2-y,z
loop_
_atom_site_type_symbol
_atom_site_label
_atom_site_fract_x
_atom_site_fract_y
_atom_site_fract_z
Si Si1 0.410589 0.157516 0.822056
Si Si2 0.178910 0.582764 0.675890
Si Si3 0.223412 0.083978 0.831035
Si Si4 0.944181 0.202886 0.675485
Si Si5 0.626838 0.419824 0.675028
Si Si6 0.000000 0.583516 0.329818
O O1 0.359441 0.128164 0.767750
O O2 0.416347 0.238185 0.770714
O O3 0.452523 0.109689 0.753275
O O4 0.413597 0.152808 0.000000
O O5 0.172969 0.598256 0.500000
O O6 0.171196 0.500000 0.712075
O O7 0.231699 0.609273 0.729115
O O8 0.173110 0.112389 0.762277
O O9 0.221440 0.000000 0.830606
O O10 0.229666 0.113765 0.000000
O O11 0.939544 0.221893 0.500000
O O12 0.920037 0.127361 0.712083
O O13 0.000000 0.199134 0.726156
O O14 0.640227 0.417658 0.500000
O O15 0.614751 0.500000 0.726310
O O16 0.000000 0.500000 0.330233
O O17 0.000000 0.613659 0.500000
#
# Coordination Sequence:
#
# PCOD8271953 Si02
#       6
#    16  16  16  16  16   8
#     4  12  24  37  55  81 113 149 188 232 279 330
#     4  10  20  35  57  83 112 148 188 231 278 330
#     4   9  17  31  53  82 115 148 181 224 280 335
#     4  10  21  38  59  80 110 152 190 230 282 337
#     4   9  18  34  58  87 114 143 185 232 278 334
#     4  11  23  39  59  81 108 145 190 235 277 326
#
# _framework density 19.021284999999999
#
# number of rings (size 3 to 8) (size 9 to 14) (size 15 to 20)
#    0.000    1.909    0.909    3.545    0.000    7.273 
#    0.000    2.727    0.000    5.455    0.000    3.818 
#    0.000    0.000    0.000    0.000    0.000    0.000 
#
# Total GULP energy -545723.640175 kJ/mol
# GULP energy per Si atom -12402.810004 kJ/mol
# Density = 1.897799 g / cm^3
# Si number density = 19.021285 Si / 1000 Ang^3
#
#
#
# Elastic Constant Matrix: (Units=GPa)
#
#
# Indices 1 2 3 4 5 6 
#
# 1 111.9401 54.3678 49.8392 0.0000 0.0000 0.0000
# 2 54.3678 84.1982 47.3935 0.0000 0.0000 0.0000
# 3 49.8392 47.3935 114.8128 0.0000 0.0000 0.0000
# 4 0.0000 0.0000 0.0000 18.0116 0.0000 0.0000
# 5 0.0000 0.0000 0.0000 0.0000 39.5030 0.0000
# 6 0.0000 0.0000 0.0000 0.0000 0.0000 17.4221
#
#
#
# Elastic Compliance Matrix: (Units=1/GPa)
#
#
# Indices 1 2 3 4 5 6 
#
# 1 0.013767 -0.007198 -0.003005 0.000000 0.000000 0.000000
# 2 -0.007198 0.019235 -0.004815 0.000000 0.000000 0.000000
# 3 -0.003005 -0.004815 0.012002 0.000000 0.000000 0.000000
# 4 0.000000 0.000000 0.000000 0.055520 0.000000 0.000000
# 5 0.000000 0.000000 0.000000 0.000000 0.025315 0.000000
# 6 0.000000 0.000000 0.000000 0.000000 0.000000 0.057398
#
#
# Mechanical properties :
#
#
# Convention : Reuss Voigt Hill
#
# Bulk Modulus (GPa) = 66.81202 68.23912 67.52557
# Shear Modulus (GPa) = 22.90807 25.61072 24.25940
#
# Velocity S-wave (km/s) = 3.47412 3.67335 3.57512
# Velocity P-wave (km/s) = 7.16197 7.34468 7.25390
#
# Compressibility (1/GPa) = 0.01496737
#
# Stress axis : x y z
#
# Youngs Moduli (GPa) = 72.63557 51.98783 83.31974
#
# Poissons Ratio (x) = 0.37423 0.25037
# Poissons Ratio (y) = 0.52286 0.40121
# Poissons Ratio (z) = 0.21826 0.25034
#
# Static dielectric constant tensor:
#      x y z
#    x 3.582550 0.000000 0.000000 
#    y 0.000000 3.372760 0.000000 
#    z 0.000000 0.000000 3.593860 
# 
# 
# High freq. dielectric constant tensor:
#      x y z
#    x 1.750210 0.000000 0.000000 
#    y 0.000000 1.719190 0.000000 
#    z 0.000000 0.000000 1.744500 
# 
# From -- ./inp_files/11762.got.cif
#   From: 2010.03.12/outbox.cif.g09.slc.cpg/sg65_6_cif.got.tgz:11762.got - 2010.04.10 20:52:16.
