data_PCOD8271588
_publ_section_title
;
Structure prediction by ZEFSAII (Michael W. Deem and Ramdas Pophale) SiO2 
 PCOD8271588
Probable space group: C M M M
;
_chemical_formula_sum "Si O2"
_cell_formula_units_Z 88
_cell_length_a 28.231184
_cell_length_b 8.924892
_cell_length_c 17.913403
_cell_angle_alpha 90.000000
_cell_angle_beta 90.000000
_cell_angle_gamma 90.000000
_cell_volume 4513.465825
_symmetry_space_group_name_H-M "C M M M"
_symmetry_group_IT_number 65
_symmetry_cell_setting 'orthorhombic'
loop_
_space_group_symop_operation_xyz
x,y,z
-x,-y,z
x,-y,-z
-x,y,-z
-x,-y,-z
x,y,-z
-x,y,z
x,-y,z
1/2+x,1/2+y,z
1/2-x,1/2-y,z
1/2+x,1/2-y,-z
1/2-x,1/2+y,-z
1/2-x,1/2-y,-z
1/2+x,1/2+y,-z
1/2-x,1/2+y,z
1/2+x,1/2-y,z
loop_
_atom_site_type_symbol
_atom_site_label
_atom_site_fract_x
_atom_site_fract_y
_atom_site_fract_z
Si Si1 0.358075 0.172145 0.415186
Si Si2 0.699209 0.323423 0.000000
Si Si3 0.053210 0.672724 0.800949
Si Si4 0.800050 0.824262 0.287337
Si Si5 0.139592 0.824950 0.858027
Si Si6 0.946385 0.174298 0.356705
O O1 0.340228 0.188436 0.500000
O O2 0.322197 0.262796 0.363446
O O3 0.411221 0.237178 0.410784
O O4 0.358673 0.000000 0.389614
O O5 0.750000 0.250000 0.000000
O O6 0.671162 0.269228 0.926911
O O7 0.706331 0.500000 0.000000
O O8 0.063562 0.500000 0.782147
O O9 0.090162 0.734445 0.861866
O O10 0.060539 0.769643 0.727036
O O11 0.000000 0.693273 0.832506
O O12 0.750000 0.750000 0.271004
O O13 0.834070 0.784435 0.218664
O O14 0.792474 0.000000 0.295934
O O15 0.128412 0.000000 0.864703
O O16 0.000000 0.202318 0.384615
O O17 0.933035 0.000000 0.358264
#
# Coordination Sequence:
#
# PCOD8271588 Si02
#       6
#    16   8  16  16  16  16
#     4  11  24  40  58  83 116 153 195 244 295 346
#     4  10  22  40  61  90 125 157 196 241 291 346
#     4  10  20  34  57  88 119 154 196 240 287 343
#     4  11  23  39  61  86 112 149 196 242 293 350
#     4  10  21  38  61  89 120 156 195 238 288 347
#     4  10  20  35  57  85 117 153 193 238 290 349
#
# _framework density 19.497211
#
# number of rings (size 3 to 8) (size 9 to 14) (size 15 to 20)
#    0.000    1.636    1.818    2.727    0.000    5.818 
#    0.000    2.273    0.000    2.727    0.000    0.000 
#    0.000    0.000    0.000    0.000    0.000    0.000 
#
# Total GULP energy -545789.879765 kJ/mol
# GULP energy per Si atom -12404.315449 kJ/mol
# Density = 1.945283 g / cm^3
# Si number density = 19.497211 Si / 1000 Ang^3
#
#
#
# Elastic Constant Matrix: (Units=GPa)
#
#
# Indices 1 2 3 4 5 6 
#
# 1 127.3447 59.6152 46.6888 0.0000 0.0000 0.0000
# 2 59.6152 92.7280 43.6981 0.0000 0.0000 0.0000
# 3 46.6888 43.6981 91.6611 0.0000 0.0000 0.0000
# 4 0.0000 0.0000 0.0000 22.4383 0.0000 0.0000
# 5 0.0000 0.0000 0.0000 0.0000 24.2502 0.0000
# 6 0.0000 0.0000 0.0000 0.0000 0.0000 41.1420
#
#
#
# Elastic Compliance Matrix: (Units=1/GPa)
#
#
# Indices 1 2 3 4 5 6 
#
# 1 0.011883 -0.006175 -0.003109 0.000000 0.000000 0.000000
# 2 -0.006175 0.017117 -0.005015 0.000000 0.000000 0.000000
# 3 -0.003109 -0.005015 0.014885 0.000000 0.000000 0.000000
# 4 0.000000 0.000000 0.000000 0.044567 0.000000 0.000000
# 5 0.000000 0.000000 0.000000 0.000000 0.041237 0.000000
# 6 0.000000 0.000000 0.000000 0.000000 0.000000 0.024306
#
#
# Mechanical properties :
#
#
# Convention : Reuss Voigt Hill
#
# Bulk Modulus (GPa) = 65.41611 67.97090 66.69351
# Shear Modulus (GPa) = 26.63989 28.34820 27.49404
#
# Velocity S-wave (km/s) = 3.70042 3.81722 3.75927
# Velocity P-wave (km/s) = 7.20290 7.37332 7.28861
#
# Compressibility (1/GPa) = 0.01528675
#
# Stress axis : x y z
#
# Youngs Moduli (GPa) = 84.15241 58.42021 67.18388
#
# Poissons Ratio (x) = 0.36072 0.20889
# Poissons Ratio (y) = 0.51960 0.33695
# Poissons Ratio (z) = 0.26165 0.29300
#
# Static dielectric constant tensor:
#      x y z
#    x 3.789950 0.000000 0.000000 
#    y 0.000000 3.627410 0.000000 
#    z 0.000000 0.000000 3.410060 
# 
# 
# High freq. dielectric constant tensor:
#      x y z
#    x 1.771630 0.000000 0.000000 
#    y 0.000000 1.769120 0.000000 
#    z 0.000000 0.000000 1.742500 
# 
# From -- ./inp_files/50409.got.cif
#   From: 2010.03.12/outbox.cif.g09.slc.cpg/sg65_26_cif.got.tgz:50409.got - 2010.04.10 20:52:16.
