data_PCOD8271492
_publ_section_title
;
Structure prediction by ZEFSAII (Michael W. Deem and Ramdas Pophale) SiO2 
 PCOD8271492
Probable space group: C M M M
;
_chemical_formula_sum "Si O2"
_cell_formula_units_Z 88
_cell_length_a 8.832956
_cell_length_b 31.093253
_cell_length_c 17.297841
_cell_angle_alpha 90.000000
_cell_angle_beta 90.000000
_cell_angle_gamma 90.000000
_cell_volume 4750.771347
_symmetry_space_group_name_H-M "C M M M"
_symmetry_group_IT_number 65
_symmetry_cell_setting 'orthorhombic'
loop_
_space_group_symop_operation_xyz
x,y,z
-x,-y,z
x,-y,-z
-x,y,-z
-x,-y,-z
x,y,-z
-x,y,z
x,-y,z
1/2+x,1/2+y,z
1/2-x,1/2-y,z
1/2+x,1/2-y,-z
1/2-x,1/2+y,-z
1/2-x,1/2-y,-z
1/2+x,1/2+y,-z
1/2-x,1/2+y,z
1/2+x,1/2-y,z
loop_
_atom_site_type_symbol
_atom_site_label
_atom_site_fract_x
_atom_site_fract_y
_atom_site_fract_z
Si Si1 0.321512 0.622991 0.254914
Si Si2 0.163188 0.000000 0.590540
Si Si3 0.679967 0.574773 0.000000
Si Si4 0.324743 0.951533 0.843262
Si Si5 0.679934 0.408092 0.584919
Si Si6 0.820427 0.172328 0.000000
Si Si7 0.320686 0.294198 0.162858
O O1 0.500000 0.618053 0.241155
O O2 0.243595 0.581955 0.217058
O O3 0.278547 0.625021 0.346484
O O4 0.262723 0.667206 0.217476
O O5 0.250024 0.955069 0.609371
O O6 0.133963 0.000000 0.500000
O O7 0.000000 0.000000 0.633959
O O8 0.740731 0.550935 0.924879
O O9 0.500000 0.573028 0.000000
O O10 0.740682 0.623761 0.000000
O O11 0.500000 0.940754 0.856119
O O12 0.302611 0.000000 0.810575
O O13 0.741122 0.392702 0.500000
O O14 0.500000 0.413733 0.579426
O O15 0.760600 0.196792 0.923960
O O16 0.000000 0.171037 0.000000
O O17 0.500000 0.290430 0.165570
O O18 0.250000 0.250000 0.193768
#
# Coordination Sequence:
#
# PCOD8271492 Si02
#       7
#    16   8   8  16  16   8  16
#     4  10  20  34  55  80 105 136 178 225 266 312
#     4   7  10  18  34  62  99 128 153 196 251 299
#     4  11  20  37  60  78 102 138 182 228 261 297
#     4  11  24  38  51  74 111 149 182 217 258 309
#     4   8  14  25  44  74 107 134 166 215 268 309
#     4   9  17  33  53  75 104 127 157 213 263 305
#     4  10  20  35  53  76 103 132 169 216 267 318
#
# _framework density 18.523309000000001
#
# number of rings (size 3 to 8) (size 9 to 14) (size 15 to 20)
#    0.000    2.455    1.818    2.455    1.273    3.273 
#    0.000    0.000    0.000    1.091    0.000    1.273 
#    0.000    0.000    0.000    0.000    0.000    0.000 
#
# Total GULP energy -545239.818479 kJ/mol
# GULP energy per Si atom -12391.814056 kJ/mol
# Density = 1.848115 g / cm^3
# Si number density = 18.523309 Si / 1000 Ang^3
#
#
#
# Elastic Constant Matrix: (Units=GPa)
#
#
# Indices 1 2 3 4 5 6 
#
# 1 40.5202 30.0782 23.4546 0.0000 0.0000 0.0000
# 2 30.0782 136.1903 69.7819 0.0000 0.0000 0.0000
# 3 23.4546 69.7819 141.3704 0.0000 0.0000 0.0000
# 4 0.0000 0.0000 0.0000 17.1950 0.0000 0.0000
# 5 0.0000 0.0000 0.0000 0.0000 6.4841 0.0000
# 6 0.0000 0.0000 0.0000 0.0000 0.0000 24.5280
#
#
#
# Elastic Compliance Matrix: (Units=1/GPa)
#
#
# Indices 1 2 3 4 5 6 
#
# 1 0.030062 -0.005466 -0.002289 0.000000 0.000000 0.000000
# 2 -0.005466 0.010822 -0.004435 0.000000 0.000000 0.000000
# 3 -0.002289 -0.004435 0.009643 0.000000 0.000000 0.000000
# 4 0.000000 0.000000 0.000000 0.058156 0.000000 0.000000
# 5 0.000000 0.000000 0.000000 0.000000 0.154223 0.000000
# 6 0.000000 0.000000 0.000000 0.000000 0.000000 0.040770
#
#
# Mechanical properties :
#
#
# Convention : Reuss Voigt Hill
#
# Bulk Modulus (GPa) = 38.24761 62.74560 50.49660
# Shear Modulus (GPa) = 14.84683 22.62585 18.73634
#
# Velocity S-wave (km/s) = 2.83419 3.49876 3.18386
# Velocity P-wave (km/s) = 5.60387 7.09007 6.39032
#
# Compressibility (1/GPa) = 0.02614543
#
# Stress axis : x y z
#
# Youngs Moduli (GPa) = 33.26480 92.40076 103.70569
#
# Poissons Ratio (x) = 0.50509 0.23741
# Poissons Ratio (y) = 0.18183 0.45995
# Poissons Ratio (z) = 0.07615 0.40981
#
# Static dielectric constant tensor:
#      x y z
#    x 2.991010 0.000000 0.000000 
#    y 0.000000 3.525040 0.000000 
#    z 0.000000 0.000000 3.681130 
# 
# 
# High freq. dielectric constant tensor:
#      x y z
#    x 1.676470 0.000000 0.000000 
#    y 0.000000 1.711370 0.000000 
#    z 0.000000 0.000000 1.717930 
# 
# From -- ./inp_files/50536.got.cif
#   From: 2010.03.12/outbox.cif.g09.slc.cpg/sg65_26_cif.got.tgz:50536.got - 2010.04.10 20:52:16.
