data_PCOD8271509
_publ_section_title
;
Structure prediction by ZEFSAII (Michael W. Deem and Ramdas Pophale) SiO2 
 PCOD8271509
Probable space group: C M M M
;
_chemical_formula_sum "Si O2"
_cell_formula_units_Z 72
_cell_length_a 15.492406
_cell_length_b 26.721597
_cell_length_c 9.062000
_cell_angle_alpha 90.000000
_cell_angle_beta 90.000000
_cell_angle_gamma 90.000000
_cell_volume 3751.503341
_symmetry_space_group_name_H-M "C M M M"
_symmetry_group_IT_number 65
_symmetry_cell_setting 'orthorhombic'
loop_
_space_group_symop_operation_xyz
x,y,z
-x,-y,z
x,-y,-z
-x,y,-z
-x,-y,-z
x,y,-z
-x,y,z
x,-y,z
1/2+x,1/2+y,z
1/2-x,1/2-y,z
1/2+x,1/2-y,-z
1/2-x,1/2+y,-z
1/2-x,1/2-y,-z
1/2+x,1/2+y,-z
1/2-x,1/2+y,z
1/2+x,1/2-y,z
loop_
_atom_site_type_symbol
_atom_site_label
_atom_site_fract_x
_atom_site_fract_y
_atom_site_fract_z
Si Si1 0.162314 0.277260 0.173696
Si Si2 0.664899 0.442083 0.329870
Si Si3 0.165110 0.383420 0.674601
Si Si4 0.000000 0.786092 0.825029
Si Si5 0.000000 0.899182 0.175278
Si Si6 0.500000 0.055956 0.324427
O O1 0.250000 0.250000 0.218153
O O2 0.158348 0.329639 0.253840
O O3 0.084468 0.242738 0.232513
O O4 0.155693 0.286650 0.000000
O O5 0.642534 0.430850 0.500000
O O6 0.688106 0.500000 0.307160
O O7 0.746721 0.410116 0.275781
O O8 0.583844 0.427905 0.231005
O O9 0.160990 0.377573 0.500000
O O10 0.085021 0.415936 0.733836
O O11 0.000000 0.842480 0.762224
O O12 0.000000 0.788305 0.000000
O O13 0.000000 0.899987 0.000000
O O14 0.500000 0.054005 0.500000
O O15 0.500000 0.000000 0.259020
#
# Coordination Sequence:
#
# PCOD8271509 Si02
#       6
#    16  16  16   8   8   8
#     4  10  20  35  54  74 101 139 176 212 261 317
#     4  10  21  37  55  77 109 145 175 209 263 323
#     4  10  20  34  55  82 108 137 176 220 261 304
#     4   9  19  35  53  74 102 137 174 212 263 321
#     4  11  22  37  58  81 104 135 180 227 262 303
#     4   9  17  32  55  81 108 139 176 215 257 311
#
# _framework density 19.192305999999999
#
# number of rings (size 3 to 8) (size 9 to 14) (size 15 to 20)
#    0.000    2.111    0.000    3.333    0.000    7.556 
#    0.000    2.222    0.000    2.667    0.000    0.000 
#    0.000    0.000    0.000    0.000    0.000    0.000 
#
# Total GULP energy -446526.281653 kJ/mol
# GULP energy per Si atom -12403.507824 kJ/mol
# Density = 1.914862 g / cm^3
# Si number density = 19.192306 Si / 1000 Ang^3
#
#
#
# Elastic Constant Matrix: (Units=GPa)
#
#
# Indices 1 2 3 4 5 6 
#
# 1 130.5636 26.2977 21.1121 0.0000 0.0000 0.0000
# 2 26.2977 98.6094 16.2236 0.0000 0.0000 0.0000
# 3 21.1121 16.2236 26.6583 0.0000 0.0000 0.0000
# 4 0.0000 0.0000 0.0000 70.4505 0.0000 0.0000
# 5 0.0000 0.0000 0.0000 0.0000 32.0136 0.0000
# 6 0.0000 0.0000 0.0000 0.0000 0.0000 17.9241
#
#
#
# Elastic Compliance Matrix: (Units=1/GPa)
#
#
# Indices 1 2 3 4 5 6 
#
# 1 0.008944 -0.001356 -0.006258 0.000000 0.000000 0.000000
# 2 -0.001356 0.011475 -0.005910 0.000000 0.000000 0.000000
# 3 -0.006258 -0.005910 0.046065 0.000000 0.000000 0.000000
# 4 0.000000 0.000000 0.000000 0.014194 0.000000 0.000000
# 5 0.000000 0.000000 0.000000 0.000000 0.031237 0.000000
# 6 0.000000 0.000000 0.000000 0.000000 0.000000 0.055791
#
#
# Mechanical properties :
#
#
# Convention : Reuss Voigt Hill
#
# Bulk Modulus (GPa) = 25.35739 42.56646 33.96192
# Shear Modulus (GPa) = 24.05020 36.89081 30.47050
#
# Velocity S-wave (km/s) = 3.54378 4.38901 3.98884
# Velocity P-wave (km/s) = 5.47590 6.92182 6.24087
#
# Compressibility (1/GPa) = 0.03943624
#
# Stress axis : x y z
#
# Youngs Moduli (GPa) = 111.80527 87.14717 21.70860
#
# Poissons Ratio (x) = 0.11814 0.13586
# Poissons Ratio (y) = 0.15157 0.12829
# Poissons Ratio (z) = 0.69972 0.51502
#
# Static dielectric constant tensor:
#      x y z
#    x 3.472290 0.000000 0.000000 
#    y 0.000000 3.655850 0.000000 
#    z 0.000000 0.000000 3.203670 
# 
# 
# High freq. dielectric constant tensor:
#      x y z
#    x 1.766890 0.000000 0.000000 
#    y 0.000000 1.764850 0.000000 
#    z 0.000000 0.000000 1.713570 
# 
# From -- ./inp_files/7383.got.cif
#   From: 2010.03.12/outbox.cif.g09.slc.cpg/sg65_4_cif.got.tgz:7383.got - 2010.04.10 20:52:16.
