data_PCOD8271113
_publ_section_title
;
Structure prediction by ZEFSAII (Michael W. Deem and Ramdas Pophale) SiO2 
 PCOD8271113
Probable space group: C M M M
;
_chemical_formula_sum "Si O2"
_cell_formula_units_Z 80
_cell_length_a 8.861165
_cell_length_b 17.736805
_cell_length_c 26.090979
_cell_angle_alpha 90.000000
_cell_angle_beta 90.000000
_cell_angle_gamma 90.000000
_cell_volume 4100.686704
_symmetry_space_group_name_H-M "C M M M"
_symmetry_group_IT_number 65
_symmetry_cell_setting 'orthorhombic'
loop_
_space_group_symop_operation_xyz
x,y,z
-x,-y,z
x,-y,-z
-x,y,-z
-x,-y,-z
x,y,-z
-x,y,z
x,-y,z
1/2+x,1/2+y,z
1/2-x,1/2-y,z
1/2+x,1/2-y,-z
1/2-x,1/2+y,-z
1/2-x,1/2-y,-z
1/2+x,1/2+y,-z
1/2-x,1/2+y,z
1/2+x,1/2-y,z
loop_
_atom_site_type_symbol
_atom_site_label
_atom_site_fract_x
_atom_site_fract_y
_atom_site_fract_z
Si Si1 0.820574 0.917288 0.500000
Si Si2 0.669011 0.589870 0.390526
Si Si3 0.170149 0.589439 0.102188
Si Si4 0.670521 0.589889 0.000000
Si Si5 0.321945 0.669185 0.194982
Si Si6 0.674611 0.911785 0.711500
O O1 0.774385 0.876508 0.446048
O O2 0.000000 0.925362 0.500000
O O3 0.745169 0.000000 0.500000
O O4 0.500000 0.618611 0.377509
O O5 0.667614 0.500000 0.395480
O O6 0.781416 0.615827 0.345581
O O7 0.168406 0.500000 0.101181
O O8 0.268746 0.614200 0.150183
O O9 0.000000 0.621128 0.106866
O O10 0.243944 0.621267 0.050065
O O11 0.671139 0.500000 0.000000
O O12 0.500000 0.620941 0.000000
O O13 0.500000 0.676705 0.193714
O O14 0.250000 0.750000 0.186024
O O15 0.273335 0.635236 0.249133
O O16 0.500000 0.894251 0.721248
O O17 0.710659 0.000000 0.718628
#
# Coordination Sequence:
#
# PCOD8271113 Si02
#       6
#     8  16  16   8  16  16
#     4   7  10  18  35  61  94 129 164 205 252 301
#     4   8  13  23  41  66  96 131 170 210 254 304
#     4  10  20  36  59  86 115 145 177 215 259 306
#     4   9  17  31  54  85 116 145 180 217 253 299
#     4  12  25  40  57  77 104 138 177 220 267 317
#     4  10  20  34  52  76 106 138 174 217 262 309
#
# _framework density 19.508927
#
# number of rings (size 3 to 8) (size 9 to 14) (size 15 to 20)
#    0.000    2.400    0.000    5.100    0.000    6.000 
#    0.000    1.000    0.000    3.000    0.000    0.700 
#    0.000    0.000    0.000    0.000    0.000    0.000 
#
# Total GULP energy -495809.097171 kJ/mol
# GULP energy per Si atom -12395.227429 kJ/mol
# Density = 1.946452 g / cm^3
# Si number density = 19.508927 Si / 1000 Ang^3
#
#
#
# Elastic Constant Matrix: (Units=GPa)
#
#
# Indices 1 2 3 4 5 6 
#
# 1 130.3964 19.1801 49.8724 0.0000 0.0000 0.0000
# 2 19.1801 16.7330 12.0357 0.0000 0.0000 0.0000
# 3 49.8724 12.0357 149.7588 0.0000 0.0000 0.0000
# 4 0.0000 0.0000 0.0000 -4.6157 0.0000 0.0000
# 5 0.0000 0.0000 0.0000 0.0000 33.7987 0.0000
# 6 0.0000 0.0000 0.0000 0.0000 0.0000 21.5620
#
#
#
# Elastic Compliance Matrix: (Units=1/GPa)
#
#
# Indices 1 2 3 4 5 6 
#
# 1 0.010082 -0.009702 -0.002578 0.000000 0.000000 0.000000
# 2 -0.009702 0.072765 -0.002617 0.000000 0.000000 0.000000
# 3 -0.002578 -0.002617 0.007746 0.000000 0.000000 0.000000
# 4 0.000000 0.000000 0.000000 -0.216650 0.000000 0.000000
# 5 0.000000 0.000000 0.000000 0.000000 0.029587 0.000000
# 6 0.000000 0.000000 0.000000 0.000000 0.000000 0.046378
#
#
# Mechanical properties :
#
#
# Convention : Reuss Voigt Hill
#
# Bulk Modulus (GPa) = 16.44744 51.00718 33.72731
# Shear Modulus (GPa) = -157145.21046 24.53567 -78560.33739
#
# Velocity S-wave (km/s) = -284.12194 3.55020 -200.88887
# Velocity P-wave (km/s) = 328.06288 6.55802 231.92914
#
# Compressibility (1/GPa) = 0.06079973
#
# Stress axis : x y z
#
# Youngs Moduli (GPa) = 99.18736 13.74279 129.09640
#
# Poissons Ratio (x) = 0.13334 0.33277
# Poissons Ratio (y) = 0.96234 0.33784
# Poissons Ratio (z) = 0.25568 0.03596
#
# Static dielectric constant tensor:
#      x y z
#    x 3.596040 0.000000 0.000000 
#    y 0.000000 3.059610 0.000000 
#    z 0.000000 0.000000 4.033800 
# 
# 
# High freq. dielectric constant tensor:
#      x y z
#    x 1.758600 0.000000 0.000000 
#    y 0.000000 1.700320 0.000000 
#    z 0.000000 0.000000 1.787390 
# 
# From -- ./inp_files/72945.got.cif
#   From: 2010.03.12/outbox.cif.g09.slc.cpg/sg65_37_cif.got.tgz:72945.got - 2010.04.10 20:52:16.
