data_PCOD8271768
_publ_section_title
;
Structure prediction by ZEFSAII (Michael W. Deem and Ramdas Pophale) SiO2 
 PCOD8271768
Probable space group: C M M M
;
_chemical_formula_sum "Si O2"
_cell_formula_units_Z 104
_cell_length_a 19.012901
_cell_length_b 8.105056
_cell_length_c 34.518311
_cell_angle_alpha 90.000000
_cell_angle_beta 90.000000
_cell_angle_gamma 90.000000
_cell_volume 5319.293379
_symmetry_space_group_name_H-M "C M M M"
_symmetry_group_IT_number 65
_symmetry_cell_setting 'orthorhombic'
loop_
_space_group_symop_operation_xyz
x,y,z
-x,-y,z
x,-y,-z
-x,y,-z
-x,-y,-z
x,y,-z
-x,y,z
x,-y,z
1/2+x,1/2+y,z
1/2-x,1/2-y,z
1/2+x,1/2-y,-z
1/2-x,1/2+y,-z
1/2-x,1/2-y,-z
1/2+x,1/2+y,-z
1/2-x,1/2+y,z
1/2+x,1/2-y,z
loop_
_atom_site_type_symbol
_atom_site_label
_atom_site_fract_x
_atom_site_fract_y
_atom_site_fract_z
Si Si1 0.675469 0.192171 0.334771
Si Si2 0.171109 0.811026 0.887606
Si Si3 0.578314 0.306539 0.181091
Si Si4 0.326516 0.804979 0.248550
Si Si5 0.079606 0.306304 0.044077
Si Si6 0.417029 0.189289 0.406193
Si Si7 0.916479 0.000000 0.543475
O O1 0.750000 0.250000 0.352024
O O2 0.661768 0.268239 0.292071
O O3 0.614747 0.241352 0.364793
O O4 0.678502 0.000000 0.328950
O O5 0.250000 0.750000 0.889006
O O6 0.125328 0.724878 0.853376
O O7 0.134435 0.786728 0.928913
O O8 0.175173 0.000000 0.877168
O O9 0.500000 0.227756 0.180044
O O10 0.571865 0.500000 0.174544
O O11 0.613070 0.272342 0.222412
O O12 0.250000 0.750000 0.233062
O O13 0.332899 0.000000 0.246856
O O14 0.089756 0.500000 0.049372
O O15 0.000000 0.254849 0.055141
O O16 0.095625 0.253950 0.000000
O O17 0.500000 0.197358 0.401712
O O18 0.390304 0.329043 0.436424
O O19 0.394481 0.000000 0.418285
O O20 0.885888 0.000000 0.500000
O O21 0.000000 0.000000 0.543029
#
# Coordination Sequence:
#
# PCOD8271768 Si02
#       7
#    16  16  16  16  16  16   8
#     4   9  19  33  52  78 105 140 178 217 266 319
#     4  11  23  38  57  80 108 143 182 223 267 318
#     4  10  22  39  56  78 108 140 177 222 271 319
#     4  10  20  35  55  79 108 140 180 222 264 319
#     4   9  19  37  60  85 112 140 173 218 269 321
#     4   9  18  33  52  77 108 140 178 227 277 324
#     4   9  18  32  52  80 108 138 181 227 275 333
#
# _framework density 19.551469999999998
#
# number of rings (size 3 to 8) (size 9 to 14) (size 15 to 20)
#    0.000    2.385    0.000    2.308    1.077    5.846 
#    0.000    3.846    0.000    0.462    0.000    0.000 
#    0.000    0.000    0.000    0.000    0.000    0.000 
#
# Total GULP energy -644614.409829 kJ/mol
# GULP energy per Si atom -12396.430958 kJ/mol
# Density = 1.950697 g / cm^3
# Si number density = 19.551470 Si / 1000 Ang^3
#
#
#
# Elastic Constant Matrix: (Units=GPa)
#
#
# Indices 1 2 3 4 5 6 
#
# 1 120.0040 32.5815 70.8069 0.0000 0.0000 0.0000
# 2 32.5815 51.2214 38.4452 0.0000 0.0000 0.0000
# 3 70.8069 38.4452 126.6972 0.0000 0.0000 0.0000
# 4 0.0000 0.0000 0.0000 27.1557 0.0000 0.0000
# 5 0.0000 0.0000 0.0000 0.0000 -29.2753 0.0000
# 6 0.0000 0.0000 0.0000 0.0000 0.0000 15.0413
#
#
#
# Elastic Compliance Matrix: (Units=1/GPa)
#
#
# Indices 1 2 3 4 5 6 
#
# 1 0.012933 -0.003628 -0.006127 0.000000 0.000000 0.000000
# 2 -0.003628 0.026299 -0.005953 0.000000 0.000000 0.000000
# 3 -0.006127 -0.005953 0.013123 0.000000 0.000000 0.000000
# 4 0.000000 0.000000 0.000000 0.036825 0.000000 0.000000
# 5 0.000000 0.000000 0.000000 0.000000 -0.034159 0.000000
# 6 0.000000 0.000000 0.000000 0.000000 0.000000 0.066484
#
#
# Mechanical properties :
#
#
# Convention : Reuss Voigt Hill
#
# Bulk Modulus (GPa) = 47.75550 64.62108 56.18829
# Shear Modulus (GPa) = 31.26947 12.99027 22.12987
#
# Velocity S-wave (km/s) = 4.00352 2.58042 3.36799
# Velocity P-wave (km/s) = 6.77122 6.48087 6.62763
#
# Compressibility (1/GPa) = 0.02094000
#
# Stress axis : x y z
#
# Youngs Moduli (GPa) = 77.31985 38.02487 76.20005
#
# Poissons Ratio (x) = 0.13795 0.46689
# Poissons Ratio (y) = 0.28051 0.45359
# Poissons Ratio (z) = 0.47375 0.22635
#
# Static dielectric constant tensor:
#      x y z
#    x 5.187270 0.000000 0.000000 
#    y 0.000000 3.568010 0.000000 
#    z 0.000000 0.000000 3.807230 
# 
# 
# High freq. dielectric constant tensor:
#      x y z
#    x 1.752760 0.000000 0.000000 
#    y 0.000000 1.757780 0.000000 
#    z 0.000000 0.000000 1.762540 
# 
# From -- ./inp_files/78212.got.cif
#   From: 2010.03.12/outbox.cif.g09.slc.cpg/sg65_40_cif.got.tgz:78212.got - 2010.04.10 20:52:16.
