data_PCOD8271426
_publ_section_title
;
Structure prediction by ZEFSAII (Michael W. Deem and Ramdas Pophale) SiO2 
 PCOD8271426
Probable space group: C M M M
;
_chemical_formula_sum "Si O2"
_cell_formula_units_Z 104
_cell_length_a 17.639256
_cell_length_b 17.719780
_cell_length_c 17.937812
_cell_angle_alpha 90.000000
_cell_angle_beta 90.000000
_cell_angle_gamma 90.000000
_cell_volume 5606.709529
_symmetry_space_group_name_H-M "C M M M"
_symmetry_group_IT_number 65
_symmetry_cell_setting 'orthorhombic'
loop_
_space_group_symop_operation_xyz
x,y,z
-x,-y,z
x,-y,-z
-x,y,-z
-x,-y,-z
x,y,-z
-x,y,z
x,-y,z
1/2+x,1/2+y,z
1/2-x,1/2-y,z
1/2+x,1/2-y,-z
1/2-x,1/2+y,-z
1/2-x,1/2-y,-z
1/2+x,1/2+y,-z
1/2-x,1/2+y,z
1/2+x,1/2-y,z
loop_
_atom_site_type_symbol
_atom_site_label
_atom_site_fract_x
_atom_site_fract_y
_atom_site_fract_z
Si Si1 0.086799 0.696459 0.281405
Si Si2 0.000000 0.589580 0.082456
Si Si3 0.911761 0.914185 0.646347
Si Si4 0.645796 0.911701 0.171683
Si Si5 0.836121 0.770419 0.414283
Si Si6 0.797366 0.088559 0.914215
Si Si7 0.414359 0.648966 0.802086
O O1 0.141532 0.629972 0.251439
O O2 0.109922 0.717295 0.365271
O O3 0.099121 0.766964 0.227001
O O4 0.000000 0.669152 0.282554
O O5 0.074280 0.618277 0.124656
O O6 0.000000 0.500000 0.077287
O O7 0.000000 0.624994 0.000000
O O8 0.856413 0.858466 0.600732
O O9 0.894266 0.908064 0.734532
O O10 0.000000 0.891562 0.631934
O O11 0.895919 0.000000 0.620425
O O12 0.719591 0.888843 0.125828
O O13 0.642274 0.000000 0.187501
O O14 0.852120 0.751373 0.500000
O O15 0.750000 0.750000 0.392841
O O16 0.863799 0.133788 0.874060
O O17 0.813154 0.000000 0.907929
O O18 0.792911 0.114145 0.000000
O O19 0.500000 0.636659 0.828679
#
# Coordination Sequence:
#
# PCOD8271426 Si02
#       7
#    16   8  16  16  16  16  16
#     4  10  21  37  58  81 106 142 185 224 268 327
#     4   9  16  30  52  74 103 137 170 227 291 321
#     4   9  18  34  59  88 112 142 188 237 280 322
#     4  10  20  34  54  81 107 137 185 236 275 319
#     4  10  22  38  56  83 117 150 179 216 275 340
#     4  10  21  35  52  77 108 143 183 225 274 331
#     4   9  19  35  54  77 110 146 182 223 270 330
#
# _framework density 18.549204
#
# number of rings (size 3 to 8) (size 9 to 14) (size 15 to 20)
#    0.000    2.385    0.769    2.308    4.308    4.615 
#    0.000    3.846    0.000    1.385    0.000    1.077 
#    0.000    0.000    0.000    0.000    0.000    0.000 
#
# Total GULP energy -644826.156479 kJ/mol
# GULP energy per Si atom -12400.503009 kJ/mol
# Density = 1.850699 g / cm^3
# Si number density = 18.549204 Si / 1000 Ang^3
#
#
#
# Elastic Constant Matrix: (Units=GPa)
#
#
# Indices 1 2 3 4 5 6 
#
# 1 115.6836 47.0134 61.9440 0.0000 0.0000 0.0000
# 2 47.0134 59.5667 45.4641 0.0000 0.0000 0.0000
# 3 61.9440 45.4641 115.1981 0.0000 0.0000 0.0000
# 4 0.0000 0.0000 0.0000 21.5725 0.0000 0.0000
# 5 0.0000 0.0000 0.0000 0.0000 27.9493 0.0000
# 6 0.0000 0.0000 0.0000 0.0000 0.0000 28.2286
#
#
#
# Elastic Compliance Matrix: (Units=1/GPa)
#
#
# Indices 1 2 3 4 5 6 
#
# 1 0.014257 -0.007730 -0.004616 0.000000 0.000000 0.000000
# 2 -0.007730 0.028215 -0.006979 0.000000 0.000000 0.000000
# 3 -0.004616 -0.006979 0.013917 0.000000 0.000000 0.000000
# 4 0.000000 0.000000 0.000000 0.046355 0.000000 0.000000
# 5 0.000000 0.000000 0.000000 0.000000 0.035779 0.000000
# 6 0.000000 0.000000 0.000000 0.000000 0.000000 0.035425
#
#
# Mechanical properties :
#
#
# Convention : Reuss Voigt Hill
#
# Bulk Modulus (GPa) = 56.36796 66.58794 61.47795
# Shear Modulus (GPa) = 22.88212 24.61854 23.75033
#
# Velocity S-wave (km/s) = 3.51606 3.64703 3.58214
# Velocity P-wave (km/s) = 6.85112 7.32874 7.09395
#
# Compressibility (1/GPa) = 0.01774058
#
# Stress axis : x y z
#
# Youngs Moduli (GPa) = 70.14062 35.44176 71.85432
#
# Poissons Ratio (x) = 0.27395 0.33166
# Poissons Ratio (y) = 0.54216 0.50148
# Poissons Ratio (z) = 0.32375 0.24735
#
# Static dielectric constant tensor:
#      x y z
#    x 3.481850 0.000000 0.000000 
#    y 0.000000 3.256730 0.000000 
#    z 0.000000 0.000000 3.346910 
# 
# 
# High freq. dielectric constant tensor:
#      x y z
#    x 1.723800 0.000000 0.000000 
#    y 0.000000 1.705290 0.000000 
#    z 0.000000 0.000000 1.712990 
# 
# From -- ./inp_files/54573.got.cif
#   From: 2010.03.12/outbox.cif.g09.slc.cpg/sg65_28_cif.got.tgz:54573.got - 2010.04.10 20:52:16.
