data_PCOD8271307
_publ_section_title
;
Structure prediction by ZEFSAII (Michael W. Deem and Ramdas Pophale) SiO2 
 PCOD8271307
Probable space group: C M M M
;
_chemical_formula_sum "Si O2"
_cell_formula_units_Z 104
_cell_length_a 19.165179
_cell_length_b 31.419846
_cell_length_c 8.968143
_cell_angle_alpha 90.000000
_cell_angle_beta 90.000000
_cell_angle_gamma 90.000000
_cell_volume 5400.319521
_symmetry_space_group_name_H-M "C M M M"
_symmetry_group_IT_number 65
_symmetry_cell_setting 'orthorhombic'
loop_
_space_group_symop_operation_xyz
x,y,z
-x,-y,z
x,-y,-z
-x,y,-z
-x,-y,-z
x,y,-z
-x,y,z
x,-y,z
1/2+x,1/2+y,z
1/2-x,1/2-y,z
1/2+x,1/2-y,-z
1/2-x,1/2+y,-z
1/2-x,1/2-y,-z
1/2+x,1/2+y,-z
1/2-x,1/2+y,z
1/2+x,1/2-y,z
loop_
_atom_site_type_symbol
_atom_site_label
_atom_site_fract_x
_atom_site_fract_y
_atom_site_fract_z
Si Si1 0.661569 0.176887 0.673178
Si Si2 0.576860 0.549957 0.835545
Si Si3 0.312977 0.598118 0.668712
Si Si4 0.695958 0.684959 0.824559
Si Si5 0.657332 0.082546 0.329496
Si Si6 0.419841 0.000000 0.322248
Si Si7 0.920414 0.241418 0.327344
O O1 0.682332 0.171319 0.500000
O O2 0.729430 0.197292 0.752959
O O3 0.641308 0.129900 0.738603
O O4 0.596882 0.208561 0.695608
O O5 0.500000 0.569740 0.809690
O O6 0.571692 0.500000 0.825339
O O7 0.626934 0.564931 0.704485
O O8 0.604437 0.563561 0.000000
O O9 0.320909 0.614932 0.500000
O O10 0.321524 0.636762 0.782464
O O11 0.239580 0.573930 0.689279
O O12 0.632678 0.713947 0.768626
O O13 0.702230 0.690551 0.000000
O O14 0.633193 0.083533 0.500000
O O15 0.615956 0.042981 0.253627
O O16 0.500000 0.000000 0.272866
O O17 0.410594 0.000000 0.500000
O O18 0.911687 0.228833 0.500000
O O19 0.000000 0.233780 0.273998
#
# Coordination Sequence:
#
# PCOD8271307 Si02
#       7
#    16  16  16  16  16   8  16
#     4   9  18  35  56  78 107 142 180 223 267 316
#     4   9  19  35  52  73 105 141 176 217 267 322
#     4  10  20  34  54  77 104 139 180 226 270 315
#     4  11  22  36  55  78 106 139 178 223 273 328
#     4   8  16  29  46  73 106 137 172 213 259 305
#     4   9  16  26  44  74 112 145 168 202 257 313
#     4  10  21  36  55  79 107 141 180 222 271 326
#
# _framework density 19.258119000000001
#
# number of rings (size 3 to 8) (size 9 to 14) (size 15 to 20)
#    0.000    2.538    0.000    3.692    1.077    4.615 
#    0.000    3.846    0.000    0.000    0.000    0.000 
#    0.000   17.231    0.000    0.000    0.000    0.000 
#
# Total GULP energy -644518.023383 kJ/mol
# GULP energy per Si atom -12394.577373 kJ/mol
# Density = 1.921429 g / cm^3
# Si number density = 19.258119 Si / 1000 Ang^3
#
#
#
# Elastic Constant Matrix: (Units=GPa)
#
#
# Indices 1 2 3 4 5 6 
#
# 1 106.7021 64.7423 39.8242 0.0000 0.0000 0.0000
# 2 64.7423 91.1126 31.0291 0.0000 0.0000 0.0000
# 3 39.8242 31.0291 65.2839 0.0000 0.0000 0.0000
# 4 0.0000 0.0000 0.0000 19.6548 0.0000 0.0000
# 5 0.0000 0.0000 0.0000 0.0000 13.7981 0.0000
# 6 0.0000 0.0000 0.0000 0.0000 0.0000 28.4941
#
#
#
# Elastic Compliance Matrix: (Units=1/GPa)
#
#
# Indices 1 2 3 4 5 6 
#
# 1 0.018207 -0.010923 -0.005915 0.000000 0.000000 0.000000
# 2 -0.010923 0.019648 -0.002675 0.000000 0.000000 0.000000
# 3 -0.005915 -0.002675 0.020198 0.000000 0.000000 0.000000
# 4 0.000000 0.000000 0.000000 0.050878 0.000000 0.000000
# 5 0.000000 0.000000 0.000000 0.000000 0.072474 0.000000
# 6 0.000000 0.000000 0.000000 0.000000 0.000000 0.035095
#
#
# Mechanical properties :
#
#
# Convention : Reuss Voigt Hill
#
# Bulk Modulus (GPa) = 52.55984 59.36553 55.96268
# Shear Modulus (GPa) = 19.09349 20.88959 19.99154
#
# Velocity S-wave (km/s) = 3.15215 3.29708 3.22543
# Velocity P-wave (km/s) = 6.37178 6.73702 6.55694
#
# Compressibility (1/GPa) = 0.01902593
#
# Stress axis : x y z
#
# Youngs Moduli (GPa) = 54.92304 50.89484 49.51095
#
# Poissons Ratio (x) = 0.55594 0.29286
# Poissons Ratio (y) = 0.59994 0.13246
# Poissons Ratio (z) = 0.32487 0.13616
#
# Static dielectric constant tensor:
#      x y z
#    x 3.604600 0.000000 0.000000 
#    y 0.000000 3.648590 0.000000 
#    z 0.000000 0.000000 3.250480 
# 
# 
# High freq. dielectric constant tensor:
#      x y z
#    x 1.747430 0.000000 0.000000 
#    y 0.000000 1.754700 0.000000 
#    z 0.000000 0.000000 1.714240 
# 
# From -- ./inp_files/12791.got.cif
#   From: 2010.03.12/outbox.cif.g09.slc.cpg/sg65_7_cif.got.tgz:12791.got - 2010.04.10 20:52:16.
