data_PCOD8271728
_publ_section_title
;
Structure prediction by ZEFSAII (Michael W. Deem and Ramdas Pophale) SiO2 
 PCOD8271728
Probable space group: C M M M
;
_chemical_formula_sum "Si O2"
_cell_formula_units_Z 88
_cell_length_a 18.582269
_cell_length_b 9.402913
_cell_length_c 27.958039
_cell_angle_alpha 90.000000
_cell_angle_beta 90.000000
_cell_angle_gamma 90.000000
_cell_volume 4885.037106
_symmetry_space_group_name_H-M "C M M M"
_symmetry_group_IT_number 65
_symmetry_cell_setting 'orthorhombic'
loop_
_space_group_symop_operation_xyz
x,y,z
-x,-y,z
x,-y,-z
-x,y,-z
-x,-y,-z
x,y,-z
-x,y,z
x,-y,z
1/2+x,1/2+y,z
1/2-x,1/2-y,z
1/2+x,1/2-y,-z
1/2-x,1/2+y,-z
1/2-x,1/2-y,-z
1/2+x,1/2+y,-z
1/2-x,1/2+y,z
1/2+x,1/2-y,z
loop_
_atom_site_type_symbol
_atom_site_label
_atom_site_fract_x
_atom_site_fract_y
_atom_site_fract_z
Si Si1 0.324079 0.665030 0.000000
Si Si2 0.082185 0.334602 0.359349
Si Si3 0.676926 0.167638 0.835808
Si Si4 0.914427 0.839182 0.552431
Si Si5 0.583848 0.335272 0.907297
Si Si6 0.680618 0.163721 0.726357
O O1 0.250000 0.750000 0.000000
O O2 0.371575 0.705881 0.954290
O O3 0.303835 0.500000 0.000000
O O4 0.091206 0.500000 0.369382
O O5 0.118292 0.256332 0.404946
O O6 0.117967 0.288410 0.309506
O O7 0.000000 0.288496 0.353764
O O8 0.750000 0.250000 0.850102
O O9 0.610802 0.233230 0.865031
O O10 0.656939 0.195584 0.780600
O O11 0.686350 0.000000 0.847009
O O12 0.886702 0.787420 0.500000
O O13 0.000000 0.828083 0.552965
O O14 0.889201 0.000000 0.561419
O O15 0.500000 0.304741 0.916919
O O16 0.596022 0.500000 0.893210
O O17 0.750000 0.250000 0.711264
O O18 0.700357 0.000000 0.720038
#
# Coordination Sequence:
#
# PCOD8271728 Si02
#       6
#     8  16  16  16  16  16
#     4  10  21  37  57  79 105 140 177 212 252 298
#     4   9  17  29  46  69  95 122 155 196 241 288
#     4  10  20  35  55  77 102 134 172 211 252 301
#     4   8  14  25  41  63  92 123 154 191 237 287
#     4  10  21  37  56  79 108 139 171 210 256 302
#     4   9  19  34  51  71  97 130 164 200 243 291
#
# _framework density 18.014192000000001
#
# number of rings (size 3 to 8) (size 9 to 14) (size 15 to 20)
#    0.000    2.727    0.000    1.909    0.000    6.182 
#    0.000    3.636    0.000    4.364    0.000    0.000 
#    0.000    0.000    0.000    0.000    0.000    0.000 
#
# Total GULP energy -545515.753527 kJ/mol
# GULP energy per Si atom -12398.085307 kJ/mol
# Density = 1.797319 g / cm^3
# Si number density = 18.014192 Si / 1000 Ang^3
#
#
#
# Elastic Constant Matrix: (Units=GPa)
#
#
# Indices 1 2 3 4 5 6 
#
# 1 95.9358 53.5234 69.3291 0.0000 0.0000 0.0000
# 2 53.5234 74.6349 66.2581 0.0000 0.0000 0.0000
# 3 69.3291 66.2581 134.7051 0.0000 0.0000 0.0000
# 4 0.0000 0.0000 0.0000 31.9542 0.0000 0.0000
# 5 0.0000 0.0000 0.0000 0.0000 17.2811 0.0000
# 6 0.0000 0.0000 0.0000 0.0000 0.0000 27.1350
#
#
#
# Elastic Compliance Matrix: (Units=1/GPa)
#
#
# Indices 1 2 3 4 5 6 
#
# 1 0.019500 -0.009008 -0.005605 0.000000 0.000000 0.000000
# 2 -0.009008 0.027946 -0.009110 0.000000 0.000000 0.000000
# 3 -0.005605 -0.009110 0.014789 0.000000 0.000000 0.000000
# 4 0.000000 0.000000 0.000000 0.031295 0.000000 0.000000
# 5 0.000000 0.000000 0.000000 0.000000 0.057867 0.000000
# 6 0.000000 0.000000 0.000000 0.000000 0.000000 0.036853
#
#
# Mechanical properties :
#
#
# Convention : Reuss Voigt Hill
#
# Bulk Modulus (GPa) = 67.61704 75.94412 71.78058
# Shear Modulus (GPa) = 20.77924 23.01841 21.89882
#
# Velocity S-wave (km/s) = 3.40000 3.57850 3.49039
# Velocity P-wave (km/s) = 7.28218 7.70219 7.49513
#
# Compressibility (1/GPa) = 0.01478917
#
# Stress axis : x y z
#
# Youngs Moduli (GPa) = 51.28202 35.78376 67.61627
#
# Poissons Ratio (x) = 0.32234 0.37901
# Poissons Ratio (y) = 0.46195 0.61596
# Poissons Ratio (z) = 0.28745 0.32598
#
# Static dielectric constant tensor:
#      x y z
#    x 3.150270 0.000000 0.000000 
#    y 0.000000 3.363150 0.000000 
#    z 0.000000 0.000000 3.675630 
# 
# 
# High freq. dielectric constant tensor:
#      x y z
#    x 1.671630 0.000000 0.000000 
#    y 0.000000 1.695850 0.000000 
#    z 0.000000 0.000000 1.712140 
# 
# From -- ./inp_files/77877.got.cif
#   From: 2010.03.12/outbox.cif.g09.slc.cpg/sg65_39_cif.got.tgz:77877.got - 2010.04.10 20:52:16.
