data_PCOD8271660
_publ_section_title
;
Structure prediction by ZEFSAII (Michael W. Deem and Ramdas Pophale) SiO2 
 PCOD8271660
Probable space group: C M M M
;
_chemical_formula_sum "Si O2"
_cell_formula_units_Z 96
_cell_length_a 8.944818
_cell_length_b 19.560112
_cell_length_c 30.683436
_cell_angle_alpha 90.000000
_cell_angle_beta 90.000000
_cell_angle_gamma 90.000000
_cell_volume 5368.424342
_symmetry_space_group_name_H-M "C M M M"
_symmetry_group_IT_number 65
_symmetry_cell_setting 'orthorhombic'
loop_
_space_group_symop_operation_xyz
x,y,z
-x,-y,z
x,-y,-z
-x,y,-z
-x,-y,-z
x,y,-z
-x,y,z
x,-y,z
1/2+x,1/2+y,z
1/2-x,1/2-y,z
1/2+x,1/2-y,-z
1/2-x,1/2+y,-z
1/2-x,1/2-y,-z
1/2+x,1/2+y,-z
1/2-x,1/2+y,z
1/2+x,1/2-y,z
loop_
_atom_site_type_symbol
_atom_site_label
_atom_site_fract_x
_atom_site_fract_y
_atom_site_fract_z
Si Si1 0.332815 0.418536 0.368308
Si Si2 0.177377 0.821625 0.114665
Si Si3 0.329570 0.920844 0.050442
Si Si4 0.321760 0.178315 0.205362
Si Si5 0.331709 0.081296 0.547621
Si Si6 0.824532 0.577319 0.281806
O O1 0.500000 0.391013 0.364775
O O2 0.324971 0.500000 0.369930
O O3 0.264524 0.387350 0.412856
O O4 0.245633 0.391795 0.325876
O O5 0.250000 0.750000 0.100179
O O6 0.212782 0.877341 0.078137
O O7 0.250731 0.846237 0.159913
O O8 0.000000 0.813234 0.120044
O O9 0.500000 0.901684 0.062893
O O10 0.299715 0.000000 0.060454
O O11 0.300278 0.904718 0.000000
O O12 0.500000 0.185525 0.200586
O O13 0.250000 0.250000 0.219712
O O14 0.274633 0.122664 0.241024
O O15 0.268339 0.104205 0.500000
O O16 0.500000 0.108306 0.552997
O O17 0.329597 0.000000 0.550340
O O18 0.768197 0.500000 0.273105
O O19 0.000000 0.579028 0.288553
#
# Coordination Sequence:
#
# PCOD8271660 Si02
#       6
#    16  16  16  16  16  16
#     4   9  16  24  36  57  85 115 147 189 238 281
#     4  11  22  36  55  78 105 136 170 209 251 296
#     4   9  19  37  59  81 107 139 172 207 249 296
#     4  10  20  35  54  74  98 129 164 204 249 294
#     4   8  13  21  33  49  73 110 152 188 225 275
#     4   9  18  32  49  68  91 123 161 196 234 286
#
# _framework density 17.882342000000001
#
# number of rings (size 3 to 8) (size 9 to 14) (size 15 to 20)
#    0.000    2.667    0.000    4.500    0.000    5.333 
#    0.000    4.167    0.000    0.000    0.000    0.000 
#    0.000    0.667    0.000    2.167    0.000    4.333 
#
# Total GULP energy -595069.559712 kJ/mol
# GULP energy per Si atom -12397.282494 kJ/mol
# Density = 1.784164 g / cm^3
# Si number density = 17.882342 Si / 1000 Ang^3
#
#
#
# Elastic Constant Matrix: (Units=GPa)
#
#
# Indices 1 2 3 4 5 6 
#
# 1 86.9747 34.7342 61.1727 0.0000 0.0000 0.0000
# 2 34.7342 53.8530 63.4315 0.0000 0.0000 0.0000
# 3 61.1727 63.4315 140.6391 0.0000 0.0000 0.0000
# 4 0.0000 0.0000 0.0000 0.6401 0.0000 0.0000
# 5 0.0000 0.0000 0.0000 0.0000 30.7003 0.0000
# 6 0.0000 0.0000 0.0000 0.0000 0.0000 21.6388
#
#
#
# Elastic Compliance Matrix: (Units=1/GPa)
#
#
# Indices 1 2 3 4 5 6 
#
# 1 0.017139 -0.004850 -0.005267 0.000000 0.000000 0.000000
# 2 -0.004850 0.040986 -0.016376 0.000000 0.000000 0.000000
# 3 -0.005267 -0.016376 0.016787 0.000000 0.000000 0.000000
# 4 0.000000 0.000000 0.000000 1.562173 0.000000 0.000000
# 5 0.000000 0.000000 0.000000 0.000000 0.032573 0.000000
# 6 0.000000 0.000000 0.000000 0.000000 0.000000 0.046213
#
#
# Mechanical properties :
#
#
# Convention : Reuss Voigt Hill
#
# Bulk Modulus (GPa) = 45.60888 66.68262 56.14575
# Shear Modulus (GPa) = 2.81505 18.73775 10.77640
#
# Velocity S-wave (km/s) = 1.25604 3.24054 2.45751
# Velocity P-wave (km/s) = 5.25964 7.16743 6.28633
#
# Compressibility (1/GPa) = 0.02192556
#
# Stress axis : x y z
#
# Youngs Moduli (GPa) = 58.34516 24.39852 59.56833
#
# Poissons Ratio (x) = 0.11834 0.31377
# Poissons Ratio (y) = 0.28300 0.97549
# Poissons Ratio (z) = 0.30732 0.39955
#
# Static dielectric constant tensor:
#      x y z
#    x 3.340900 0.000000 0.000000 
#    y 0.000000 2.942910 0.000000 
#    z 0.000000 0.000000 3.518250 
# 
# 
# High freq. dielectric constant tensor:
#      x y z
#    x 1.695090 0.000000 0.000000 
#    y 0.000000 1.644920 0.000000 
#    z 0.000000 0.000000 1.706890 
# 
# From -- ./inp_files/73157.got.cif
#   From: 2010.03.12/outbox.cif.g09.slc.cpg/sg65_37_cif.got.tgz:73157.got - 2010.04.10 20:52:16.
