data_PCOD8271868
_publ_section_title
;
Structure prediction by ZEFSAII (Michael W. Deem and Ramdas Pophale) SiO2 
 PCOD8271868
Probable space group: C M M M
;
_chemical_formula_sum "Si O2"
_cell_formula_units_Z 80
_cell_length_a 9.024615
_cell_length_b 18.075221
_cell_length_c 26.073389
_cell_angle_alpha 90.000000
_cell_angle_beta 90.000000
_cell_angle_gamma 90.000000
_cell_volume 4253.141029
_symmetry_space_group_name_H-M "C M M M"
_symmetry_group_IT_number 65
_symmetry_cell_setting 'orthorhombic'
loop_
_space_group_symop_operation_xyz
x,y,z
-x,-y,z
x,-y,-z
-x,y,-z
-x,-y,-z
x,y,-z
-x,y,z
x,-y,z
1/2+x,1/2+y,z
1/2-x,1/2-y,z
1/2+x,1/2-y,-z
1/2-x,1/2+y,-z
1/2-x,1/2-y,-z
1/2+x,1/2+y,-z
1/2-x,1/2+y,z
1/2+x,1/2-y,z
loop_
_atom_site_type_symbol
_atom_site_label
_atom_site_fract_x
_atom_site_fract_y
_atom_site_fract_z
Si Si1 0.676359 0.582390 0.789998
Si Si2 0.335543 0.588082 0.098162
Si Si3 0.830986 0.412138 0.398324
Si Si4 0.165175 0.588369 0.000000
Si Si5 0.676540 0.671258 0.308106
Si Si6 0.168137 0.911940 0.500000
O O1 0.500000 0.578119 0.791641
O O2 0.738982 0.500000 0.777987
O O3 0.732531 0.610362 0.846086
O O4 0.730616 0.638985 0.746568
O O5 0.500000 0.620937 0.091866
O O6 0.341164 0.500000 0.095359
O O7 0.239941 0.620664 0.051455
O O8 0.828088 0.500000 0.396910
O O9 0.733969 0.383729 0.351374
O O10 0.755614 0.382162 0.450355
O O11 0.000000 0.382762 0.395436
O O12 0.172582 0.500000 0.000000
O O13 0.000000 0.618493 0.000000
O O14 0.500000 0.677377 0.311420
O O15 0.750000 0.750000 0.316481
O O16 0.000000 0.880976 0.500000
O O17 0.165703 0.000000 0.500000
#
# Coordination Sequence:
#
# PCOD8271868 Si02
#       6
#    16  16  16   8  16   8
#     4   8  15  29  50  73  94 122 165 211 249 291
#     4   8  13  23  40  61  85 116 155 195 235 284
#     4  10  20  35  56  82 110 138 170 209 251 296
#     4   9  15  21  31  55  92 125 148 179 233 293
#     4  11  22  36  53  74 103 137 173 212 256 304
#     4   9  17  31  54  83 110 137 170 205 245 295
#
# _framework density 18.809629000000001
#
# number of rings (size 3 to 8) (size 9 to 14) (size 15 to 20)
#    0.000    2.800    0.000    3.600    0.000    4.400 
#    0.000    2.500    0.000    4.800    0.000    0.700 
#    0.000    0.000    0.000    0.000    0.000    0.000 
#
# Total GULP energy -495823.744790 kJ/mol
# GULP energy per Si atom -12395.593620 kJ/mol
# Density = 1.876682 g / cm^3
# Si number density = 18.809629 Si / 1000 Ang^3
#
#
#
# Elastic Constant Matrix: (Units=GPa)
#
#
# Indices 1 2 3 4 5 6 
#
# 1 106.2116 18.8469 64.5233 0.0000 0.0000 0.0000
# 2 18.8469 21.4655 20.0341 0.0000 0.0000 0.0000
# 3 64.5233 20.0341 171.5282 0.0000 0.0000 0.0000
# 4 0.0000 0.0000 0.0000 1.0648 0.0000 0.0000
# 5 0.0000 0.0000 0.0000 0.0000 14.8129 0.0000
# 6 0.0000 0.0000 0.0000 0.0000 0.0000 16.6206
#
#
#
# Elastic Compliance Matrix: (Units=1/GPa)
#
#
# Indices 1 2 3 4 5 6 
#
# 1 0.013289 -0.007859 -0.004081 0.000000 0.000000 0.000000
# 2 -0.007859 0.056934 -0.003693 0.000000 0.000000 0.000000
# 3 -0.004081 -0.003693 0.007796 0.000000 0.000000 0.000000
# 4 0.000000 0.000000 0.000000 0.939111 0.000000 0.000000
# 5 0.000000 0.000000 0.000000 0.000000 0.067509 0.000000
# 6 0.000000 0.000000 0.000000 0.000000 0.000000 0.060166
#
#
# Mechanical properties :
#
#
# Convention : Reuss Voigt Hill
#
# Bulk Modulus (GPa) = 21.38925 56.22375 38.80650
# Shear Modulus (GPa) = 4.19584 19.55307 11.87446
#
# Velocity S-wave (km/s) = 1.49517 3.22766 2.51529
# Velocity P-wave (km/s) = 3.79168 6.62165 5.39551
#
# Compressibility (1/GPa) = 0.04675246
#
# Stress axis : x y z
#
# Youngs Moduli (GPa) = 75.25094 17.56426 128.26352
#
# Poissons Ratio (x) = 0.13804 0.52344
# Poissons Ratio (y) = 0.59139 0.47374
# Poissons Ratio (z) = 0.30709 0.06487
#
# Static dielectric constant tensor:
#      x y z
#    x 3.447850 0.000000 0.000000 
#    y 0.000000 2.940420 0.000000 
#    z 0.000000 0.000000 3.901030 
# 
# 
# High freq. dielectric constant tensor:
#      x y z
#    x 1.719320 0.000000 0.000000 
#    y 0.000000 1.674540 0.000000 
#    z 0.000000 0.000000 1.754010 
# 
# From -- ./inp_files/67371.got.cif
#   From: 2010.03.12/outbox.cif.g09.slc.cpg/sg65_34_cif.got.tgz:67371.got - 2010.04.10 20:52:16.
