data_PCOD8271481
_publ_section_title
;
Structure prediction by ZEFSAII (Michael W. Deem and Ramdas Pophale) SiO2 
 PCOD8271481
Probable space group: C M M M
;
_chemical_formula_sum "Si O2"
_cell_formula_units_Z 96
_cell_length_a 24.497767
_cell_length_b 15.029017
_cell_length_c 13.246116
_cell_angle_alpha 90.000000
_cell_angle_beta 90.000000
_cell_angle_gamma 90.000000
_cell_volume 4876.919975
_symmetry_space_group_name_H-M "C M M M"
_symmetry_group_IT_number 65
_symmetry_cell_setting 'orthorhombic'
loop_
_space_group_symop_operation_xyz
x,y,z
-x,-y,z
x,-y,-z
-x,y,-z
-x,-y,-z
x,y,-z
-x,y,z
x,-y,z
1/2+x,1/2+y,z
1/2-x,1/2-y,z
1/2+x,1/2-y,-z
1/2-x,1/2+y,-z
1/2-x,1/2-y,-z
1/2+x,1/2+y,-z
1/2-x,1/2+y,z
1/2+x,1/2-y,z
loop_
_atom_site_type_symbol
_atom_site_label
_atom_site_fract_x
_atom_site_fract_y
_atom_site_fract_z
Si Si1 0.224688 0.000000 0.380979
Si Si2 0.350654 0.000000 0.380790
Si Si3 0.437547 0.259695 0.117030
Si Si4 0.635130 0.168109 0.741764
Si Si5 0.805296 0.805529 0.382367
Si Si6 0.349661 0.597147 0.881042
Si Si7 0.270578 0.894139 0.885050
O O1 0.198657 0.092403 0.339770
O O2 0.220633 0.000000 0.500000
O O3 0.287583 0.000000 0.348926
O O4 0.377968 0.912660 0.333530
O O5 0.359797 0.000000 0.500000
O O6 0.500000 0.284763 0.139117
O O7 0.418401 0.177982 0.187443
O O8 0.399516 0.341128 0.152286
O O9 0.429101 0.234208 0.000000
O O10 0.645907 0.257134 0.676586
O O11 0.686831 0.152874 0.813050
O O12 0.820349 0.807631 0.500000
O O13 0.750000 0.750000 0.366387
O O14 0.357253 0.500000 0.829898
O O15 0.290308 0.638673 0.852571
O O16 0.350345 0.584278 0.000000
O O17 0.273395 0.000000 0.873251
O O18 0.283766 0.865789 0.000000
#
# Coordination Sequence:
#
# PCOD8271481 Si02
#       7
#     8   8  16  16  16  16  16
#     4   9  18  34  52  80 123 160 184 218 278 351
#     4  11  22  36  56  84 117 145 184 240 291 349
#     4  10  23  41  57  78 112 154 202 249 287 335
#     4  12  22  35  58  88 113 156 195 231 296 345
#     4  10  20  34  54  83 120 155 189 229 282 350
#     4   8  16  32  54  80 114 151 186 230 283 338
#     4   9  18  32  51  84 123 150 183 231 285 352
#
# _framework density 19.684555
#
# number of rings (size 3 to 8) (size 9 to 14) (size 15 to 20)
#    0.000    2.167    2.500    2.000    2.333    0.333 
#    1.500    4.583    0.000    3.500    0.000    0.000 
#    0.000    2.000    0.000    0.000    0.000    0.000 
#
# Total GULP energy -595074.296489 kJ/mol
# GULP energy per Si atom -12397.381177 kJ/mol
# Density = 1.963975 g / cm^3
# Si number density = 19.684555 Si / 1000 Ang^3
#
#
#
# Elastic Constant Matrix: (Units=GPa)
#
#
# Indices 1 2 3 4 5 6 
#
# 1 82.4383 24.0575 36.9952 0.0000 0.0000 0.0000
# 2 24.0575 106.6564 41.9396 0.0000 0.0000 0.0000
# 3 36.9952 41.9396 85.7731 0.0000 0.0000 0.0000
# 4 0.0000 0.0000 0.0000 33.4875 0.0000 0.0000
# 5 0.0000 0.0000 0.0000 0.0000 18.5115 0.0000
# 6 0.0000 0.0000 0.0000 0.0000 0.0000 7.6804
#
#
#
# Elastic Compliance Matrix: (Units=1/GPa)
#
#
# Indices 1 2 3 4 5 6 
#
# 1 0.015136 -0.001049 -0.006016 0.000000 0.000000 0.000000
# 2 -0.001049 0.011680 -0.005259 0.000000 0.000000 0.000000
# 3 -0.006016 -0.005259 0.016825 0.000000 0.000000 0.000000
# 4 0.000000 0.000000 0.000000 0.029862 0.000000 0.000000
# 5 0.000000 0.000000 0.000000 0.000000 0.054020 0.000000
# 6 0.000000 0.000000 0.000000 0.000000 0.000000 0.130202
#
#
# Mechanical properties :
#
#
# Convention : Reuss Voigt Hill
#
# Bulk Modulus (GPa) = 52.64646 53.42804 53.03725
# Shear Modulus (GPa) = 17.31886 23.39426 20.35656
#
# Velocity S-wave (km/s) = 2.96939 3.45114 3.21929
# Velocity P-wave (km/s) = 6.20963 6.56365 6.38909
#
# Compressibility (1/GPa) = 0.01899463
#
# Stress axis : x y z
#
# Youngs Moduli (GPa) = 66.06823 85.61382 59.43640
#
# Poissons Ratio (x) = 0.08977 0.35755
# Poissons Ratio (y) = 0.06928 0.31257
# Poissons Ratio (z) = 0.39744 0.45024
#
# Static dielectric constant tensor:
#      x y z
#    x 3.213430 0.000000 0.000000 
#    y 0.000000 4.357310 0.000000 
#    z 0.000000 0.000000 3.845990 
# 
# 
# High freq. dielectric constant tensor:
#      x y z
#    x 1.708140 0.000000 0.000000 
#    y 0.000000 1.774870 0.000000 
#    z 0.000000 0.000000 1.786680 
# 
# From -- ./inp_files/45659.got.cif
#   From: 2010.03.12/outbox.cif.g09.slc.cpg/sg65_23_cif.got.tgz:45659.got - 2010.04.10 20:52:16.
