data_PCOD8271149
_publ_section_title
;
Structure prediction by ZEFSAII (Michael W. Deem and Ramdas Pophale) SiO2 
 PCOD8271149
Probable space group: C M M M
;
_chemical_formula_sum "Si O2"
_cell_formula_units_Z 88
_cell_length_a 17.991615
_cell_length_b 29.645763
_cell_length_c 8.925395
_cell_angle_alpha 90.000000
_cell_angle_beta 90.000000
_cell_angle_gamma 90.000000
_cell_volume 4760.583935
_symmetry_space_group_name_H-M "C M M M"
_symmetry_group_IT_number 65
_symmetry_cell_setting 'orthorhombic'
loop_
_space_group_symop_operation_xyz
x,y,z
-x,-y,z
x,-y,-z
-x,y,-z
-x,-y,-z
x,y,-z
-x,y,z
x,-y,z
1/2+x,1/2+y,z
1/2-x,1/2-y,z
1/2+x,1/2-y,-z
1/2-x,1/2+y,-z
1/2-x,1/2-y,-z
1/2+x,1/2+y,-z
1/2-x,1/2+y,z
1/2+x,1/2-y,z
loop_
_atom_site_type_symbol
_atom_site_label
_atom_site_fract_x
_atom_site_fract_y
_atom_site_fract_z
Si Si1 0.500000 0.946408 0.169799
Si Si2 0.585541 0.741574 0.669039
Si Si3 0.148980 0.448537 0.324035
Si Si4 0.798127 0.294786 0.829808
Si Si5 0.774731 0.879708 0.322801
Si Si6 0.915801 0.853364 0.823760
O O1 0.574822 0.927980 0.248171
O O2 0.500000 0.000000 0.183414
O O3 0.500000 0.929379 0.000000
O O4 0.615882 0.734561 0.500000
O O5 0.500000 0.754467 0.666398
O O6 0.624328 0.783959 0.748717
O O7 0.600132 0.696315 0.761904
O O8 0.136244 0.444907 0.500000
O O9 0.162980 0.500000 0.273349
O O10 0.220839 0.420311 0.272313
O O11 0.750000 0.250000 0.823541
O O12 0.757052 0.333203 0.738253
O O13 0.812008 0.310713 0.000000
O O14 0.782401 0.877458 0.500000
O O15 0.856974 0.887675 0.252219
O O16 0.000000 0.869003 0.785283
O O17 0.901872 0.852085 0.000000
#
# Coordination Sequence:
#
# PCOD8271149 Si02
#       6
#     8  16  16  16  16  16
#     4   9  17  31  55  85 111 139 177 217 259 311
#     4  10  20  34  53  75 100 135 179 223 261 305
#     4   9  19  37  59  82 109 141 176 217 267 318
#     4  11  22  35  52  75 106 144 177 214 263 314
#     4  11  22  35  56  82 106 138 178 222 267 315
#     4  10  20  34  53  77 106 140 177 218 264 317
#
# _framework density 18.485126999999999
#
# number of rings (size 3 to 8) (size 9 to 14) (size 15 to 20)
#    0.000    1.909    1.818    2.455    0.000    5.455 
#    1.636    0.000    0.000    0.545    0.000    3.818 
#    0.000    0.000    0.000    0.000    0.000    0.000 
#
# Total GULP energy -545627.488147 kJ/mol
# GULP energy per Si atom -12400.624731 kJ/mol
# Density = 1.844305 g / cm^3
# Si number density = 18.485127 Si / 1000 Ang^3
#
#
#
# Elastic Constant Matrix: (Units=GPa)
#
#
# Indices 1 2 3 4 5 6 
#
# 1 156.6279 54.6953 69.9455 0.0000 0.0000 0.0000
# 2 54.6953 52.5522 32.0012 0.0000 0.0000 0.0000
# 3 69.9455 32.0012 97.0378 0.0000 0.0000 0.0000
# 4 0.0000 0.0000 0.0000 13.9979 0.0000 0.0000
# 5 0.0000 0.0000 0.0000 0.0000 36.3973 0.0000
# 6 0.0000 0.0000 0.0000 0.0000 0.0000 30.9556
#
#
#
# Elastic Compliance Matrix: (Units=1/GPa)
#
#
# Indices 1 2 3 4 5 6 
#
# 1 0.012137 -0.009140 -0.005734 0.000000 0.000000 0.000000
# 2 -0.009140 0.030694 -0.003534 0.000000 0.000000 0.000000
# 3 -0.005734 -0.003534 0.015604 0.000000 0.000000 0.000000
# 4 0.000000 0.000000 0.000000 0.071439 0.000000 0.000000
# 5 0.000000 0.000000 0.000000 0.000000 0.027475 0.000000
# 6 0.000000 0.000000 0.000000 0.000000 0.000000 0.032304
#
#
# Mechanical properties :
#
#
# Convention : Reuss Voigt Hill
#
# Bulk Modulus (GPa) = 46.25773 68.83357 57.54565
# Shear Modulus (GPa) = 21.39720 26.24188 23.81954
#
# Velocity S-wave (km/s) = 3.40595 3.77187 3.59357
# Velocity P-wave (km/s) = 6.36757 7.50250 6.95821
#
# Compressibility (1/GPa) = 0.02161801
#
# Stress axis : x y z
#
# Youngs Moduli (GPa) = 82.39183 32.58016 64.08646
#
# Poissons Ratio (x) = 0.29779 0.36749
# Poissons Ratio (y) = 0.75308 0.22647
# Poissons Ratio (z) = 0.47245 0.11513
#
# Static dielectric constant tensor:
#      x y z
#    x 3.785460 0.000000 0.000000 
#    y 0.000000 3.166050 0.000000 
#    z 0.000000 0.000000 3.590900 
# 
# 
# High freq. dielectric constant tensor:
#      x y z
#    x 1.733090 0.000000 0.000000 
#    y 0.000000 1.672360 0.000000 
#    z 0.000000 0.000000 1.731540 
# 
# From -- ./inp_files/10002.got.cif
#   From: 2010.03.12/outbox.cif.g09.slc.cpg/sg65_6_cif.got.tgz:10002.got - 2010.04.10 20:52:16.
