data_PCOD8271352
_publ_section_title
;
Structure prediction by ZEFSAII (Michael W. Deem and Ramdas Pophale) SiO2 
 PCOD8271352
Probable space group: C M M M
;
_chemical_formula_sum "Si O2"
_cell_formula_units_Z 96
_cell_length_a 18.755970
_cell_length_b 9.089514
_cell_length_c 30.239089
_cell_angle_alpha 90.000000
_cell_angle_beta 90.000000
_cell_angle_gamma 90.000000
_cell_volume 5155.240084
_symmetry_space_group_name_H-M "C M M M"
_symmetry_group_IT_number 65
_symmetry_cell_setting 'orthorhombic'
loop_
_space_group_symop_operation_xyz
x,y,z
-x,-y,z
x,-y,-z
-x,y,-z
-x,-y,-z
x,y,-z
-x,y,z
x,-y,z
1/2+x,1/2+y,z
1/2-x,1/2-y,z
1/2+x,1/2-y,-z
1/2-x,1/2+y,-z
1/2-x,1/2-y,-z
1/2+x,1/2+y,-z
1/2-x,1/2+y,z
1/2+x,1/2-y,z
loop_
_atom_site_type_symbol
_atom_site_label
_atom_site_fract_x
_atom_site_fract_y
_atom_site_fract_z
Si Si1 0.320570 0.170035 0.783790
Si Si2 0.082835 0.329381 0.703308
Si Si3 0.678202 0.827419 0.883529
Si Si4 0.915961 0.165790 0.950471
Si Si5 0.920451 0.825410 0.450867
Si Si6 0.673723 0.324809 0.370208
O O1 0.250000 0.250000 0.765724
O O2 0.387237 0.204531 0.752198
O O3 0.340426 0.222169 0.833347
O O4 0.300999 0.000000 0.783542
O O5 0.095130 0.500000 0.690523
O O6 0.123146 0.224543 0.669410
O O7 0.000000 0.287819 0.703133
O O8 0.750000 0.750000 0.899938
O O9 0.614913 0.779478 0.915389
O O10 0.688847 0.000000 0.887081
O O11 0.000000 0.179179 0.947889
O O12 0.891646 0.000000 0.938718
O O13 0.889858 0.206297 0.000000
O O14 0.898394 0.770280 0.500000
O O15 0.862857 0.767792 0.415630
O O16 0.000000 0.766088 0.439113
O O17 0.922391 0.000000 0.449791
O O18 0.682705 0.500000 0.369018
O O19 0.750000 0.250000 0.365558
#
# Coordination Sequence:
#
# PCOD8271352 Si02
#       6
#    16  16  16  16  16  16
#     4   9  19  35  54  76 103 136 171 209 255 306
#     4  10  21  37  56  78 106 138 171 211 261 313
#     4  10  20  34  54  79 106 136 172 213 255 303
#     4   9  19  36  55  75 103 138 173 212 260 310
#     4   8  15  30  52  76 102 134 172 214 260 308
#     4  11  22  35  53  78 107 139 177 218 259 306
#
# _framework density 18.621829000000002
#
# number of rings (size 3 to 8) (size 9 to 14) (size 15 to 20)
#    0.000    2.500    0.000    3.000    0.000    5.667 
#    0.000    2.500    0.000    1.500    0.000    5.833 
#    0.000    0.000    0.000    0.000    0.000    0.000 
#
# Total GULP energy -595176.378241 kJ/mol
# GULP energy per Si atom -12399.507880 kJ/mol
# Density = 1.857944 g / cm^3
# Si number density = 18.621829 Si / 1000 Ang^3
#
#
#
# Elastic Constant Matrix: (Units=GPa)
#
#
# Indices 1 2 3 4 5 6 
#
# 1 118.0399 44.2356 68.3077 0.0000 0.0000 0.0000
# 2 44.2356 61.6527 44.9805 0.0000 0.0000 0.0000
# 3 68.3077 44.9805 113.4855 0.0000 0.0000 0.0000
# 4 0.0000 0.0000 0.0000 11.7995 0.0000 0.0000
# 5 0.0000 0.0000 0.0000 0.0000 37.2984 0.0000
# 6 0.0000 0.0000 0.0000 0.0000 0.0000 23.0693
#
#
#
# Elastic Compliance Matrix: (Units=1/GPa)
#
#
# Indices 1 2 3 4 5 6 
#
# 1 0.014244 -0.005578 -0.006363 0.000000 0.000000 0.000000
# 2 -0.005578 0.025003 -0.006552 0.000000 0.000000 0.000000
# 3 -0.006363 -0.006552 0.015239 0.000000 0.000000 0.000000
# 4 0.000000 0.000000 0.000000 0.084749 0.000000 0.000000
# 5 0.000000 0.000000 0.000000 0.000000 0.026811 0.000000
# 6 0.000000 0.000000 0.000000 0.000000 0.000000 0.043348
#
#
# Mechanical properties :
#
#
# Convention : Reuss Voigt Hill
#
# Bulk Modulus (GPa) = 57.14653 67.58064 62.36359
# Shear Modulus (GPa) = 19.82456 23.47707 21.65081
#
# Velocity S-wave (km/s) = 3.26634 3.55453 3.41348
# Velocity P-wave (km/s) = 6.70670 7.29493 7.00699
#
# Compressibility (1/GPa) = 0.01749888
#
# Stress axis : x y z
#
# Youngs Moduli (GPa) = 70.20459 39.99582 65.62283
#
# Poissons Ratio (x) = 0.22309 0.41754
# Poissons Ratio (y) = 0.39160 0.42999
# Poissons Ratio (z) = 0.44670 0.26207
#
# Static dielectric constant tensor:
#      x y z
#    x 3.421970 0.000000 0.000000 
#    y 0.000000 3.308660 0.000000 
#    z 0.000000 0.000000 3.713930 
# 
# 
# High freq. dielectric constant tensor:
#      x y z
#    x 1.721370 0.000000 0.000000 
#    y 0.000000 1.706950 0.000000 
#    z 0.000000 0.000000 1.733710 
# 
# From -- ./inp_files/73170.got.cif
#   From: 2010.03.12/outbox.cif.g09.slc.cpg/sg65_37_cif.got.tgz:73170.got - 2010.04.10 20:52:16.
