data_PCOD8271851
_publ_section_title
;
Structure prediction by ZEFSAII (Michael W. Deem and Ramdas Pophale) SiO2 
 PCOD8271851
Probable space group: C M M M
;
_chemical_formula_sum "Si O2"
_cell_formula_units_Z 80
_cell_length_a 27.001689
_cell_length_b 8.808036
_cell_length_c 18.327476
_cell_angle_alpha 90.000000
_cell_angle_beta 90.000000
_cell_angle_gamma 90.000000
_cell_volume 4358.857500
_symmetry_space_group_name_H-M "C M M M"
_symmetry_group_IT_number 65
_symmetry_cell_setting 'orthorhombic'
loop_
_space_group_symop_operation_xyz
x,y,z
-x,-y,z
x,-y,-z
-x,y,-z
-x,-y,-z
x,y,-z
-x,y,z
x,-y,z
1/2+x,1/2+y,z
1/2-x,1/2-y,z
1/2+x,1/2-y,-z
1/2-x,1/2+y,-z
1/2-x,1/2-y,-z
1/2+x,1/2+y,-z
1/2-x,1/2+y,z
1/2+x,1/2-y,z
loop_
_atom_site_type_symbol
_atom_site_label
_atom_site_fract_x
_atom_site_fract_y
_atom_site_fract_z
Si Si1 0.302914 0.822176 0.788937
Si Si2 0.943344 0.824062 0.708080
Si Si3 0.696200 0.678176 0.500000
Si Si4 0.556318 0.820414 0.000000
Si Si5 0.105430 0.822703 0.859864
Si Si6 0.353724 0.824119 0.362851
O O1 0.250000 0.750000 0.803129
O O2 0.340345 0.743820 0.844957
O O3 0.319203 0.788102 0.706245
O O4 0.301469 0.000000 0.805060
O O5 0.930523 0.788293 0.791900
O O6 0.910061 0.723302 0.654305
O O7 0.000000 0.779027 0.693772
O O8 0.933228 0.000000 0.690795
O O9 0.703300 0.500000 0.500000
O O10 0.750000 0.750000 0.500000
O O11 0.665922 0.725694 0.570848
O O12 0.583262 0.759655 0.070966
O O13 0.500000 0.761315 0.000000
O O14 0.558843 0.000000 0.000000
O O15 0.110023 0.000000 0.875998
O O16 0.352383 0.000000 0.384423
#
# Coordination Sequence:
#
# PCOD8271851 Si02
#       6
#    16  16   8   8  16  16
#     4  10  20  35  56  81 109 142 179 220 266 316
#     4   9  18  34  56  81 109 142 180 222 267 315
#     4  12  24  38  57  80 109 142 176 219 269 319
#     4  11  23  37  54  79 112 145 177 219 269 317
#     4  10  20  35  56  81 109 142 181 222 265 317
#     4  10  21  36  55  81 111 142 179 221 265 317
#
# _framework density 18.353432999999999
#
# number of rings (size 3 to 8) (size 9 to 14) (size 15 to 20)
#    0.000    1.900    0.000    4.200    0.000    6.800 
#    0.000    1.000    0.000    3.000    0.000    0.000 
#    0.000    0.000    0.000    0.000    0.000    0.000 
#
# Total GULP energy -496201.109758 kJ/mol
# GULP energy per Si atom -12405.027744 kJ/mol
# Density = 1.831166 g / cm^3
# Si number density = 18.353433 Si / 1000 Ang^3
#
#
#
# Elastic Constant Matrix: (Units=GPa)
#
#
# Indices 1 2 3 4 5 6 
#
# 1 146.8832 57.3721 62.4261 0.0000 0.0000 0.0000
# 2 57.3721 100.8981 56.6289 0.0000 0.0000 0.0000
# 3 62.4261 56.6289 105.1463 0.0000 0.0000 0.0000
# 4 0.0000 0.0000 0.0000 10.4944 0.0000 0.0000
# 5 0.0000 0.0000 0.0000 0.0000 20.2464 0.0000
# 6 0.0000 0.0000 0.0000 0.0000 0.0000 36.2709
#
#
#
# Elastic Compliance Matrix: (Units=1/GPa)
#
#
# Indices 1 2 3 4 5 6 
#
# 1 0.009822 -0.003314 -0.004047 0.000000 0.000000 0.000000
# 2 -0.003314 0.015323 -0.006285 0.000000 0.000000 0.000000
# 3 -0.004047 -0.006285 0.015298 0.000000 0.000000 0.000000
# 4 0.000000 0.000000 0.000000 0.095289 0.000000 0.000000
# 5 0.000000 0.000000 0.000000 0.000000 0.049392 0.000000
# 6 0.000000 0.000000 0.000000 0.000000 0.000000 0.027570
#
#
# Mechanical properties :
#
#
# Convention : Reuss Voigt Hill
#
# Bulk Modulus (GPa) = 76.03464 78.42018 77.22741
# Shear Modulus (GPa) = 20.46082 25.16903 22.81492
#
# Velocity S-wave (km/s) = 3.34252 3.70720 3.52957
# Velocity P-wave (km/s) = 7.51096 7.81952 7.66679
#
# Compressibility (1/GPa) = 0.01315190
#
# Stress axis : x y z
#
# Youngs Moduli (GPa) = 101.80728 65.26263 65.36750
#
# Poissons Ratio (x) = 0.21627 0.26454
# Poissons Ratio (y) = 0.33738 0.41083
# Poissons Ratio (z) = 0.41201 0.41017
#
# Static dielectric constant tensor:
#      x y z
#    x 3.501830 0.000000 0.000000 
#    y 0.000000 3.507260 0.000000 
#    z 0.000000 0.000000 3.213770 
# 
# 
# High freq. dielectric constant tensor:
#      x y z
#    x 1.721330 0.000000 0.000000 
#    y 0.000000 1.725990 0.000000 
#    z 0.000000 0.000000 1.702350 
# 
# From -- ./inp_files/57268.got.cif
#   From: 2010.03.12/outbox.cif.g09.slc.cpg/sg65_29_cif.got.tgz:57268.got - 2010.04.10 20:52:16.
