data_PCOD8271576
_publ_section_title
;
Structure prediction by ZEFSAII (Michael W. Deem and Ramdas Pophale) SiO2 
 PCOD8271576
Probable space group: C M M M
;
_chemical_formula_sum "Si O2"
_cell_formula_units_Z 112
_cell_length_a 26.564225
_cell_length_b 14.143057
_cell_length_c 14.812619
_cell_angle_alpha 90.000000
_cell_angle_beta 90.000000
_cell_angle_gamma 90.000000
_cell_volume 5565.091305
_symmetry_space_group_name_H-M "C M M M"
_symmetry_group_IT_number 65
_symmetry_cell_setting 'orthorhombic'
loop_
_space_group_symop_operation_xyz
x,y,z
-x,-y,z
x,-y,-z
-x,y,-z
-x,-y,-z
x,y,-z
-x,y,z
x,-y,z
1/2+x,1/2+y,z
1/2-x,1/2-y,z
1/2+x,1/2-y,-z
1/2-x,1/2+y,-z
1/2-x,1/2-y,-z
1/2+x,1/2+y,-z
1/2-x,1/2+y,z
1/2+x,1/2-y,z
loop_
_atom_site_type_symbol
_atom_site_label
_atom_site_fract_x
_atom_site_fract_y
_atom_site_fract_z
Si Si1 0.942169 0.269332 0.399601
Si Si2 0.776150 0.391287 0.213771
Si Si3 0.363779 0.200325 0.898527
Si Si4 0.132266 0.893424 0.641185
Si Si5 0.559244 0.891304 0.230738
Si Si6 0.258210 0.611628 0.598120
Si Si7 0.662473 0.396021 0.156812
O O1 0.934971 0.312996 0.500000
O O2 0.912507 0.171682 0.392918
O O3 0.923709 0.346151 0.326215
O O4 0.000000 0.243850 0.381202
O O5 0.793558 0.500000 0.212406
O O6 0.815555 0.330859 0.158316
O O7 0.774860 0.350575 0.317514
O O8 0.721886 0.378604 0.168974
O O9 0.414296 0.163399 0.851322
O O10 0.362087 0.314545 0.904636
O O11 0.361980 0.159263 0.000000
O O12 0.184580 0.851308 0.602426
O O13 0.133857 0.892598 0.748722
O O14 0.122673 0.000000 0.605628
O O15 0.500000 0.882492 0.214717
O O16 0.576803 0.000000 0.231916
O O17 0.234887 0.640661 0.500000
O O18 0.261390 0.500000 0.611040
O O19 0.654274 0.500000 0.112393
#
# Coordination Sequence:
#
# PCOD8271576 Si02
#       7
#    16  16  16  16  16  16  16
#     4  10  20  34  56  87 119 152 193 237 284 342
#     4   9  19  34  54  85 124 156 189 238 287 338
#     4  12  24  39  63  89 113 145 192 249 301 349
#     4   9  16  30  54  83 119 160 197 234 277 331
#     4  10  23  44  65  85 114 150 190 241 297 351
#     4   8  14  27  50  79 114 159 199 228 269 330
#     4   9  19  37  59  84 119 160 193 226 281 350
#
# _framework density 20.125457000000001
#
# number of rings (size 3 to 8) (size 9 to 14) (size 15 to 20)
#    0.000    2.429    1.429    3.000    0.000    4.286 
#    0.000    5.000    0.000    3.857    0.000    1.000 
#    0.000    0.000    0.000    0.000    0.000    0.000 
#
# Total GULP energy -694163.762211 kJ/mol
# GULP energy per Si atom -12395.781468 kJ/mol
# Density = 2.007965 g / cm^3
# Si number density = 20.125457 Si / 1000 Ang^3
#
#
#
# Elastic Constant Matrix: (Units=GPa)
#
#
# Indices 1 2 3 4 5 6 
#
# 1 60.5813 40.5345 49.7183 0.0000 0.0000 0.0000
# 2 40.5345 111.7174 46.3043 0.0000 0.0000 0.0000
# 3 49.7183 46.3043 141.8341 0.0000 0.0000 0.0000
# 4 0.0000 0.0000 0.0000 16.3121 0.0000 0.0000
# 5 0.0000 0.0000 0.0000 0.0000 6.9694 0.0000
# 6 0.0000 0.0000 0.0000 0.0000 0.0000 26.5629
#
#
#
# Elastic Compliance Matrix: (Units=1/GPa)
#
#
# Indices 1 2 3 4 5 6 
#
# 1 0.026999 -0.006792 -0.007247 0.000000 0.000000 0.000000
# 2 -0.006792 0.012061 -0.001556 0.000000 0.000000 0.000000
# 3 -0.007247 -0.001556 0.010099 0.000000 0.000000 0.000000
# 4 0.000000 0.000000 0.000000 0.061304 0.000000 0.000000
# 5 0.000000 0.000000 0.000000 0.000000 0.143484 0.000000
# 6 0.000000 0.000000 0.000000 0.000000 0.000000 0.037647
#
#
# Mechanical properties :
#
#
# Convention : Reuss Voigt Hill
#
# Bulk Modulus (GPa) = 55.65638 65.24966 60.45302
# Shear Modulus (GPa) = 15.20808 21.80726 18.50767
#
# Velocity S-wave (km/s) = 2.75192 3.29533 3.03581
# Velocity P-wave (km/s) = 6.14916 6.85352 6.51087
#
# Compressibility (1/GPa) = 0.01796739
#
# Stress axis : x y z
#
# Youngs Moduli (GPa) = 37.03893 82.91352 99.02146
#
# Poissons Ratio (x) = 0.56318 0.71757
# Poissons Ratio (y) = 0.25158 0.15412
# Poissons Ratio (z) = 0.26840 0.12905
#
# Static dielectric constant tensor:
#      x y z
#    x 3.407790 0.000000 0.000000 
#    y 0.000000 3.768500 0.000000 
#    z 0.000000 0.000000 3.680190 
# 
# 
# High freq. dielectric constant tensor:
#      x y z
#    x 1.762390 0.000000 0.000000 
#    y 0.000000 1.789100 0.000000 
#    z 0.000000 0.000000 1.784510 
# 
# From -- ./inp_files/47034.got.cif
#   From: 2010.03.12/outbox.cif.g09.slc.cpg/sg65_24_cif.got.tgz:47034.got - 2010.04.10 20:52:16.
