data_PCOD8271861
_publ_section_title
;
Structure prediction by ZEFSAII (Michael W. Deem and Ramdas Pophale) SiO2 
 PCOD8271861
Probable space group: C M M M
;
_chemical_formula_sum "Si O2"
_cell_formula_units_Z 64
_cell_length_a 8.790809
_cell_length_b 15.414153
_cell_length_c 22.552953
_cell_angle_alpha 90.000000
_cell_angle_beta 90.000000
_cell_angle_gamma 90.000000
_cell_volume 3055.989969
_symmetry_space_group_name_H-M "C M M M"
_symmetry_group_IT_number 65
_symmetry_cell_setting 'orthorhombic'
loop_
_space_group_symop_operation_xyz
x,y,z
-x,-y,z
x,-y,-z
-x,y,-z
-x,-y,-z
x,y,-z
-x,y,z
x,-y,z
1/2+x,1/2+y,z
1/2-x,1/2-y,z
1/2+x,1/2-y,-z
1/2-x,1/2+y,-z
1/2-x,1/2-y,-z
1/2+x,1/2+y,-z
1/2-x,1/2+y,z
1/2+x,1/2-y,z
loop_
_atom_site_type_symbol
_atom_site_label
_atom_site_fract_x
_atom_site_fract_y
_atom_site_fract_z
Si Si1 0.318164 0.346156 0.140015
Si Si2 0.325712 0.000000 0.070130
Si Si3 0.667039 0.603973 0.500000
Si Si4 0.834653 0.400333 0.386479
Si Si5 0.318090 0.156066 0.739069
O O1 0.500000 0.340116 0.139233
O O2 0.250000 0.250000 0.128599
O O3 0.260449 0.412884 0.090624
O O4 0.259228 0.385620 0.202787
O O5 0.500000 0.000000 0.093268
O O6 0.320862 0.000000 0.000000
O O7 0.667354 0.500000 0.500000
O O8 0.500000 0.642182 0.500000
O O9 0.741265 0.642977 0.559989
O O10 0.850958 0.500000 0.402758
O O11 0.763025 0.392467 0.320740
O O12 0.000000 0.355023 0.385320
O O13 0.500000 0.155032 0.747165
O O14 0.250000 0.250000 0.732380
#
# Coordination Sequence:
#
# PCOD8271861 Si02
#       5
#    16   8   8  16  16
#     4  11  23  41  65  94 129 169 208 254 309 365
#     4  11  25  45  69  97 129 166 209 256 303 359
#     4   9  17  29  46  71 102 135 173 229 288 341
#     4   9  18  32  51  74 100 139 184 229 283 346
#     4  10  20  35  56  81 112 149 190 238 292 350
#
# _framework density 20.942475999999999
#
# number of rings (size 3 to 8) (size 9 to 14) (size 15 to 20)
#    0.000    2.000    0.000    5.250    1.750    5.000 
#    0.000    0.625    0.000    0.000    0.000    0.000 
#    0.000    0.000    0.000    0.000    0.000    0.000 
#
# Total GULP energy -396542.041542 kJ/mol
# GULP energy per Si atom -12391.938798 kJ/mol
# Density = 2.089481 g / cm^3
# Si number density = 20.942476 Si / 1000 Ang^3
#
#
#
# Elastic Constant Matrix: (Units=GPa)
#
#
# Indices 1 2 3 4 5 6 
#
# 1 148.8029 35.0022 71.2664 0.0000 0.0000 0.0000
# 2 35.0022 55.9910 40.9712 0.0000 0.0000 0.0000
# 3 71.2664 40.9712 142.0626 0.0000 0.0000 0.0000
# 4 0.0000 0.0000 0.0000 -19.0176 0.0000 0.0000
# 5 0.0000 0.0000 0.0000 0.0000 26.1066 0.0000
# 6 0.0000 0.0000 0.0000 0.0000 0.0000 25.2290
#
#
#
# Elastic Compliance Matrix: (Units=1/GPa)
#
#
# Indices 1 2 3 4 5 6 
#
# 1 0.009231 -0.003019 -0.003760 0.000000 0.000000 0.000000
# 2 -0.003019 0.023625 -0.005299 0.000000 0.000000 0.000000
# 3 -0.003760 -0.005299 0.010454 0.000000 0.000000 0.000000
# 4 0.000000 0.000000 0.000000 -0.052583 0.000000 0.000000
# 5 0.000000 0.000000 0.000000 0.000000 0.038305 0.000000
# 6 0.000000 0.000000 0.000000 0.000000 0.000000 0.039637
#
#
# Mechanical properties :
#
#
# Convention : Reuss Voigt Hill
#
# Bulk Modulus (GPa) = 52.21049 71.25955 61.73502
# Shear Modulus (GPa) = 50.39828 19.77137 35.08483
#
# Velocity S-wave (km/s) = 4.91094 3.07592 4.09748
# Velocity P-wave (km/s) = 7.55917 6.83486 7.20612
#
# Compressibility (1/GPa) = 0.01915324
#
# Stress axis : x y z
#
# Youngs Moduli (GPa) = 108.32582 42.32811 95.66047
#
# Poissons Ratio (x) = 0.12781 0.35970
# Poissons Ratio (y) = 0.32708 0.50688
# Poissons Ratio (z) = 0.40732 0.22429
#
# Static dielectric constant tensor:
#      x y z
#    x 4.049970 0.000000 0.000000 
#    y 0.000000 3.468610 0.000000 
#    z 0.000000 0.000000 4.351830 
# 
# 
# High freq. dielectric constant tensor:
#      x y z
#    x 1.826250 0.000000 0.000000 
#    y 0.000000 1.796350 0.000000 
#    z 0.000000 0.000000 1.834490 
# 
# From -- ./inp_files/66792.got.cif
#   From: 2010.03.12/outbox.cif.g09.slc.cpg/sg65_34_cif.got.tgz:66792.got - 2010.04.10 20:52:16.
