data_PCOD8271049
_publ_section_title
;
Structure prediction by ZEFSAII (Michael W. Deem and Ramdas Pophale) SiO2 
 PCOD8271049
Probable space group: C M M M
;
_chemical_formula_sum "Si O2"
_cell_formula_units_Z 96
_cell_length_a 8.517869
_cell_length_b 29.816568
_cell_length_c 18.974715
_cell_angle_alpha 90.000000
_cell_angle_beta 90.000000
_cell_angle_gamma 90.000000
_cell_volume 4819.077062
_symmetry_space_group_name_H-M "C M M M"
_symmetry_group_IT_number 65
_symmetry_cell_setting 'orthorhombic'
loop_
_space_group_symop_operation_xyz
x,y,z
-x,-y,z
x,-y,-z
-x,y,-z
-x,-y,-z
x,y,-z
-x,y,z
x,-y,z
1/2+x,1/2+y,z
1/2-x,1/2-y,z
1/2+x,1/2-y,-z
1/2-x,1/2+y,-z
1/2-x,1/2-y,-z
1/2+x,1/2+y,-z
1/2-x,1/2+y,z
1/2+x,1/2-y,z
loop_
_atom_site_type_symbol
_atom_site_label
_atom_site_fract_x
_atom_site_fract_y
_atom_site_fract_z
Si Si1 0.312407 0.203380 0.222007
Si Si2 0.313054 0.050568 0.579565
Si Si3 0.825243 0.049040 0.211316
Si Si4 0.821346 0.617242 0.695819
Si Si5 0.179498 0.573229 0.078180
Si Si6 0.317017 0.329952 0.921229
O O1 0.500000 0.201717 0.217334
O O2 0.250000 0.250000 0.254709
O O3 0.248818 0.164403 0.276127
O O4 0.241184 0.201108 0.142939
O O5 0.259665 0.061440 0.500000
O O6 0.500000 0.051107 0.586170
O O7 0.241026 0.090584 0.629268
O O8 0.254102 0.000000 0.600321
O O9 0.693809 0.082484 0.240213
O O10 0.793958 0.045017 0.128177
O O11 0.000000 0.067898 0.225783
O O12 0.807329 0.000000 0.245813
O O13 0.000000 0.626594 0.676403
O O14 0.215042 0.625629 0.084645
O O15 0.000000 0.565012 0.099820
O O16 0.212404 0.555589 0.000000
O O17 0.500000 0.341047 0.910566
O O18 0.290330 0.308409 0.000000
#
# Coordination Sequence:
#
# PCOD8271049 Si02
#       6
#    16  16  16  16  16  16
#     4  11  23  37  55  79 106 141 185 231 280 332
#     4   8  14  27  52  87 120 145 173 215 266 317
#     4  11  23  35  50  75 106 142 181 220 269 326
#     4  10  20  35  56  81 108 141 180 223 271 322
#     4  10  20  34  52  73  99 135 179 225 271 321
#     4  10  20  35  56  79 104 136 175 226 286 339
#
# _framework density 19.920826999999999
#
# number of rings (size 3 to 8) (size 9 to 14) (size 15 to 20)
#    0.000    2.000    1.667    3.000    0.000    5.333 
#    0.000    1.667    0.000    1.000    0.000    2.333 
#    0.000    0.000    0.000    0.000    0.000    0.167 
#
# Total GULP energy -594626.304714 kJ/mol
# GULP energy per Si atom -12388.048015 kJ/mol
# Density = 1.987549 g / cm^3
# Si number density = 19.920827 Si / 1000 Ang^3
#
#
#
# Elastic Constant Matrix: (Units=GPa)
#
#
# Indices 1 2 3 4 5 6 
#
# 1 25.7003 13.8206 18.0400 0.0000 0.0000 0.0000
# 2 13.8206 129.2835 66.4218 0.0000 0.0000 0.0000
# 3 18.0400 66.4218 119.9834 0.0000 0.0000 0.0000
# 4 0.0000 0.0000 0.0000 21.8718 0.0000 0.0000
# 5 0.0000 0.0000 0.0000 0.0000 10.1949 0.0000
# 6 0.0000 0.0000 0.0000 0.0000 0.0000 19.5489
#
#
#
# Elastic Compliance Matrix: (Units=1/GPa)
#
#
# Indices 1 2 3 4 5 6 
#
# 1 0.043804 -0.001815 -0.005581 0.000000 0.000000 0.000000
# 2 -0.001815 0.010885 -0.005753 0.000000 0.000000 0.000000
# 3 -0.005581 -0.005753 0.012358 0.000000 0.000000 0.000000
# 4 0.000000 0.000000 0.000000 0.045721 0.000000 0.000000
# 5 0.000000 0.000000 0.000000 0.000000 0.098088 0.000000
# 6 0.000000 0.000000 0.000000 0.000000 0.000000 0.051154
#
#
# Mechanical properties :
#
#
# Convention : Reuss Voigt Hill
#
# Bulk Modulus (GPa) = 24.54078 52.39243 38.46660
# Shear Modulus (GPa) = 16.56231 22.10211 19.33221
#
# Velocity S-wave (km/s) = 2.88654 3.33453 3.11859
# Velocity P-wave (km/s) = 4.84308 6.41739 5.68499
#
# Compressibility (1/GPa) = 0.04074851
#
# Stress axis : x y z
#
# Youngs Moduli (GPa) = 22.82902 91.87359 80.91757
#
# Poissons Ratio (x) = 0.16677 0.45161
# Poissons Ratio (y) = 0.04144 0.46549
# Poissons Ratio (z) = 0.12741 0.52852
#
# Static dielectric constant tensor:
#      x y z
#    x 3.337720 0.000000 0.000000 
#    y 0.000000 3.664140 0.000000 
#    z 0.000000 0.000000 3.845720 
# 
# 
# High freq. dielectric constant tensor:
#      x y z
#    x 1.756100 0.000000 0.000000 
#    y 0.000000 1.765990 0.000000 
#    z 0.000000 0.000000 1.764640 
# 
# From -- ./inp_files/60156.got.cif
#   From: 2010.03.12/outbox.cif.g09.slc.cpg/sg65_31_cif.got.tgz:60156.got - 2010.04.10 20:52:16.
