data_PCOD8271858
_publ_section_title
;
Structure prediction by ZEFSAII (Michael W. Deem and Ramdas Pophale) SiO2 
 PCOD8271858
Probable space group: C M M M
;
_chemical_formula_sum "Si O2"
_cell_formula_units_Z 104
_cell_length_a 20.886721
_cell_length_b 28.051137
_cell_length_c 9.311231
_cell_angle_alpha 90.000000
_cell_angle_beta 90.000000
_cell_angle_gamma 90.000000
_cell_volume 5455.415533
_symmetry_space_group_name_H-M "C M M M"
_symmetry_group_IT_number 65
_symmetry_cell_setting 'orthorhombic'
loop_
_space_group_symop_operation_xyz
x,y,z
-x,-y,z
x,-y,-z
-x,y,-z
-x,-y,-z
x,y,-z
-x,y,z
x,-y,z
1/2+x,1/2+y,z
1/2-x,1/2-y,z
1/2+x,1/2-y,-z
1/2-x,1/2+y,-z
1/2-x,1/2-y,-z
1/2+x,1/2+y,-z
1/2-x,1/2+y,z
1/2+x,1/2-y,z
loop_
_atom_site_type_symbol
_atom_site_label
_atom_site_fract_x
_atom_site_fract_y
_atom_site_fract_z
Si Si1 0.500000 0.554784 0.670756
Si Si2 0.689367 0.945703 0.663589
Si Si3 0.392988 0.627743 0.335725
Si Si4 0.570974 0.733044 0.337361
Si Si5 0.571721 0.884459 0.662473
Si Si6 0.737078 0.631587 0.831011
Si Si7 0.855922 0.693661 0.168875
O O1 0.500000 0.500000 0.730063
O O2 0.500000 0.554645 0.500000
O O3 0.563611 0.583495 0.722324
O O4 0.712513 0.936880 0.500000
O O5 0.615454 0.930980 0.681549
O O6 0.733138 0.916884 0.772267
O O7 0.696231 0.000000 0.708721
O O8 0.372034 0.617766 0.500000
O O9 0.433121 0.676112 0.323289
O O10 0.331496 0.637194 0.239177
O O11 0.587627 0.747704 0.500000
O O12 0.500000 0.752435 0.295352
O O13 0.626921 0.755152 0.237588
O O14 0.577204 0.864361 0.500000
O O15 0.500000 0.900461 0.699512
O O16 0.592698 0.843423 0.770834
O O17 0.783730 0.676357 0.791895
O O18 0.728830 0.627042 0.000000
O O19 0.864411 0.697831 0.000000
#
# Coordination Sequence:
#
# PCOD8271858 Si02
#       7
#     8  16  16  16  16  16  16
#     4   9  18  36  63  91 115 139 173 221 276 333
#     4   9  18  33  53  76 102 136 180 225 269 322
#     4  10  20  37  60  85 111 139 175 220 270 327
#     4  10  20  35  56  81 111 144 179 223 274 325
#     4   9  17  30  49  74 105 139 177 224 274 320
#     4  10  22  38  54  76 110 147 181 224 274 324
#     4  10  21  35  51  75 108 147 188 225 265 317
#
# _framework density 19.063627
#
# number of rings (size 3 to 8) (size 9 to 14) (size 15 to 20)
#    0.000    2.385    0.769    1.385    0.000    6.769 
#    0.000    6.538    0.000    0.462    0.000    4.308 
#    0.000    0.000    0.000    0.000    0.000    0.000 
#
# Total GULP energy -644630.310673 kJ/mol
# GULP energy per Si atom -12396.736744 kJ/mol
# Density = 1.902024 g / cm^3
# Si number density = 19.063627 Si / 1000 Ang^3
#
#
#
# Elastic Constant Matrix: (Units=GPa)
#
#
# Indices 1 2 3 4 5 6 
#
# 1 122.8923 42.9606 55.3975 0.0000 0.0000 0.0000
# 2 42.9606 102.4590 41.2687 0.0000 0.0000 0.0000
# 3 55.3975 41.2687 77.9908 0.0000 0.0000 0.0000
# 4 0.0000 0.0000 0.0000 12.0277 0.0000 0.0000
# 5 0.0000 0.0000 0.0000 0.0000 22.6507 0.0000
# 6 0.0000 0.0000 0.0000 0.0000 0.0000 22.0508
#
#
#
# Elastic Compliance Matrix: (Units=1/GPa)
#
#
# Indices 1 2 3 4 5 6 
#
# 1 0.012310 -0.002084 -0.007641 0.000000 0.000000 0.000000
# 2 -0.002084 0.012756 -0.005270 0.000000 0.000000 0.000000
# 3 -0.007641 -0.005270 0.021038 0.000000 0.000000 0.000000
# 4 0.000000 0.000000 0.000000 0.083142 0.000000 0.000000
# 5 0.000000 0.000000 0.000000 0.000000 0.044149 0.000000
# 6 0.000000 0.000000 0.000000 0.000000 0.000000 0.045350
#
#
# Mechanical properties :
#
#
# Convention : Reuss Voigt Hill
#
# Bulk Modulus (GPa) = 62.05495 64.73285 63.39390
# Shear Modulus (GPa) = 19.67675 22.26019 20.96847
#
# Velocity S-wave (km/s) = 3.21621 3.42084 3.32010
# Velocity P-wave (km/s) = 6.81280 7.04505 6.92990
#
# Compressibility (1/GPa) = 0.01611475
#
# Stress axis : x y z
#
# Youngs Moduli (GPa) = 81.23285 78.39241 47.53217
#
# Poissons Ratio (x) = 0.16335 0.36322
# Poissons Ratio (y) = 0.16927 0.25049
# Poissons Ratio (z) = 0.62074 0.41312
#
# Static dielectric constant tensor:
#      x y z
#    x 3.543440 0.000000 0.000000 
#    y 0.000000 3.502700 0.000000 
#    z 0.000000 0.000000 3.391630 
# 
# 
# High freq. dielectric constant tensor:
#      x y z
#    x 1.744850 0.000000 0.000000 
#    y 0.000000 1.737500 0.000000 
#    z 0.000000 0.000000 1.724200 
# 
# From -- ./inp_files/12457.got.cif
#   From: 2010.03.12/outbox.cif.g09.slc.cpg/sg65_7_cif.got.tgz:12457.got - 2010.04.10 20:52:16.
