data_PCOD8271519
_publ_section_title
;
Structure prediction by ZEFSAII (Michael W. Deem and Ramdas Pophale) SiO2 
 PCOD8271519
Probable space group: C M M M
;
_chemical_formula_sum "Si O2"
_cell_formula_units_Z 104
_cell_length_a 21.675930
_cell_length_b 25.959188
_cell_length_c 9.391350
_cell_angle_alpha 90.000000
_cell_angle_beta 90.000000
_cell_angle_gamma 90.000000
_cell_volume 5284.414430
_symmetry_space_group_name_H-M "C M M M"
_symmetry_group_IT_number 65
_symmetry_cell_setting 'orthorhombic'
loop_
_space_group_symop_operation_xyz
x,y,z
-x,-y,z
x,-y,-z
-x,y,-z
-x,-y,-z
x,y,-z
-x,y,z
x,-y,z
1/2+x,1/2+y,z
1/2-x,1/2-y,z
1/2+x,1/2-y,-z
1/2-x,1/2+y,-z
1/2-x,1/2-y,-z
1/2+x,1/2+y,-z
1/2-x,1/2+y,z
1/2+x,1/2-y,z
loop_
_atom_site_type_symbol
_atom_site_label
_atom_site_fract_x
_atom_site_fract_y
_atom_site_fract_z
Si Si1 0.156959 0.942729 0.662315
Si Si2 0.747772 0.144765 0.331785
Si Si3 0.568628 0.615941 0.837766
Si Si4 0.569854 0.000000 0.831011
Si Si5 0.131390 0.393873 0.836715
Si Si6 0.932775 0.708490 0.163130
Si Si7 0.160506 0.790933 0.164967
O O1 0.138100 0.935022 0.500000
O O2 0.211011 0.904419 0.706209
O O3 0.095342 0.932142 0.751066
O O4 0.181323 0.000000 0.694165
O O5 0.741384 0.155132 0.500000
O O6 0.682733 0.129953 0.265300
O O7 0.778205 0.195298 0.256645
O O8 0.500000 0.628761 0.784107
O O9 0.609506 0.665797 0.811695
O O10 0.568830 0.598518 0.000000
O O11 0.606672 0.948988 0.779476
O O12 0.500000 0.000000 0.768158
O O13 0.565587 0.000000 0.000000
O O14 0.075770 0.352962 0.827754
O O15 0.155538 0.398668 0.000000
O O16 0.873553 0.739468 0.227347
O O17 0.000000 0.721295 0.233758
O O18 0.935626 0.727113 0.000000
O O19 0.181080 0.785411 0.000000
#
# Coordination Sequence:
#
# PCOD8271519 Si02
#       7
#    16  16  16   8  16  16  16
#     4   9  19  34  49  65  89 127 172 214 254 303
#     4  10  21  36  53  74 104 140 178 219 265 315
#     4   9  17  29  46  70  98 126 160 206 260 310
#     4   9  18  34  57  85 115 143 174 221 276 323
#     4  10  20  34  55  83 110 139 177 220 266 319
#     4   9  17  31  55  84 109 137 176 219 263 315
#     4   9  17  32  54  77 103 136 175 217 258 307
#
# _framework density 19.680515
#
# number of rings (size 3 to 8) (size 9 to 14) (size 15 to 20)
#    0.000    2.692    0.000    1.385    1.077    5.846 
#    0.000    5.385    0.000    4.615    0.000    0.000 
#    0.000    0.000    0.000    0.000    0.000    0.000 
#
# Total GULP energy -644503.621151 kJ/mol
# GULP energy per Si atom -12394.300407 kJ/mol
# Density = 1.963572 g / cm^3
# Si number density = 19.680515 Si / 1000 Ang^3
#
#
#
# Elastic Constant Matrix: (Units=GPa)
#
#
# Indices 1 2 3 4 5 6 
#
# 1 110.5870 37.3188 37.4889 0.0000 0.0000 0.0000
# 2 37.3188 107.3829 26.5712 0.0000 0.0000 0.0000
# 3 37.4889 26.5712 52.5926 0.0000 0.0000 0.0000
# 4 0.0000 0.0000 0.0000 13.8737 0.0000 0.0000
# 5 0.0000 0.0000 0.0000 0.0000 17.8449 0.0000
# 6 0.0000 0.0000 0.0000 0.0000 0.0000 20.3013
#
#
#
# Elastic Compliance Matrix: (Units=1/GPa)
#
#
# Indices 1 2 3 4 5 6 
#
# 1 0.012458 -0.002437 -0.007649 0.000000 0.000000 0.000000
# 2 -0.002437 0.011120 -0.003881 0.000000 0.000000 0.000000
# 3 -0.007649 -0.003881 0.026427 0.000000 0.000000 0.000000
# 4 0.000000 0.000000 0.000000 0.072079 0.000000 0.000000
# 5 0.000000 0.000000 0.000000 0.000000 0.056038 0.000000
# 6 0.000000 0.000000 0.000000 0.000000 0.000000 0.049258
#
#
# Mechanical properties :
#
#
# Convention : Reuss Voigt Hill
#
# Bulk Modulus (GPa) = 45.30802 52.59114 48.94958
# Shear Modulus (GPa) = 19.03519 21.68287 20.35903
#
# Velocity S-wave (km/s) = 3.11337 3.32285 3.21982
# Velocity P-wave (km/s) = 5.99966 6.44222 6.22487
#
# Compressibility (1/GPa) = 0.02207115
#
# Stress axis : x y z
#
# Youngs Moduli (GPa) = 80.26943 89.93091 37.83965
#
# Poissons Ratio (x) = 0.21914 0.28944
# Poissons Ratio (y) = 0.19560 0.14685
# Poissons Ratio (z) = 0.61399 0.34902
#
# Static dielectric constant tensor:
#      x y z
#    x 3.637080 0.000000 0.000000 
#    y 0.000000 3.843240 0.000000 
#    z 0.000000 0.000000 3.298400 
# 
# 
# High freq. dielectric constant tensor:
#      x y z
#    x 1.771490 0.000000 0.000000 
#    y 0.000000 1.775170 0.000000 
#    z 0.000000 0.000000 1.725370 
# 
# From -- ./inp_files/12405.got.cif
#   From: 2010.03.12/outbox.cif.g09.slc.cpg/sg65_7_cif.got.tgz:12405.got - 2010.04.10 20:52:16.
