data_PCOD8271108
_publ_section_title
;
Structure prediction by ZEFSAII (Michael W. Deem and Ramdas Pophale) SiO2 
 PCOD8271108
Probable space group: C M M M
;
_chemical_formula_sum "Si O2"
_cell_formula_units_Z 80
_cell_length_a 8.142280
_cell_length_b 19.833694
_cell_length_c 26.977990
_cell_angle_alpha 90.000000
_cell_angle_beta 90.000000
_cell_angle_gamma 90.000000
_cell_volume 4356.715802
_symmetry_space_group_name_H-M "C M M M"
_symmetry_group_IT_number 65
_symmetry_cell_setting 'orthorhombic'
loop_
_space_group_symop_operation_xyz
x,y,z
-x,-y,z
x,-y,-z
-x,y,-z
-x,-y,-z
x,y,-z
-x,y,z
x,-y,z
1/2+x,1/2+y,z
1/2-x,1/2-y,z
1/2+x,1/2-y,-z
1/2-x,1/2+y,-z
1/2-x,1/2-y,-z
1/2+x,1/2+y,-z
1/2-x,1/2+y,z
1/2+x,1/2-y,z
loop_
_atom_site_type_symbol
_atom_site_label
_atom_site_fract_x
_atom_site_fract_y
_atom_site_fract_z
Si Si1 0.192414 0.178172 0.707151
Si Si2 0.809304 0.920921 0.378937
Si Si3 0.686666 0.579765 0.000000
Si Si4 0.000000 0.579652 0.555195
Si Si5 0.809829 0.179081 0.183429
Si Si6 0.690897 0.076133 0.896114
O O1 0.250000 0.250000 0.685130
O O2 0.244103 0.117762 0.670916
O O3 0.271420 0.166441 0.762087
O O4 0.000000 0.179341 0.711723
O O5 0.672039 0.897603 0.419005
O O6 0.000000 0.903806 0.395252
O O7 0.794562 0.000000 0.367816
O O8 0.771644 0.608170 0.049778
O O9 0.707433 0.500000 0.000000
O O10 0.500000 0.603759 0.000000
O O11 0.000000 0.500000 0.552389
O O12 0.000000 0.611111 0.500000
O O13 0.750000 0.250000 0.160499
O O14 0.774546 0.118510 0.146633
O O15 0.000000 0.184629 0.191367
O O16 0.500000 0.076917 0.886371
O O17 0.761525 0.000000 0.893156
#
# Coordination Sequence:
#
# PCOD8271108 Si02
#       6
#    16  16   8   8  16  16
#     4   9  19  33  52  76 100 136 174 209 257 311
#     4   9  18  33  52  78 108 137 175 220 262 307
#     4   9  17  31  52  75  98 129 170 209 253 311
#     4   9  18  32  52  80 108 138 175 214 264 314
#     4  10  20  35  53  74 104 136 172 213 257 312
#     4  10  20  34  52  76 104 134 169 211 258 306
#
# _framework density 18.362456999999999
#
# number of rings (size 3 to 8) (size 9 to 14) (size 15 to 20)
#    0.000    2.600    0.000    1.500    1.400    4.400 
#    0.000    4.500    0.000    0.600    0.000    0.000 
#    0.000    0.000    0.000    0.000    0.000    0.000 
#
# Total GULP energy -495713.067489 kJ/mol
# GULP energy per Si atom -12392.826687 kJ/mol
# Density = 1.832066 g / cm^3
# Si number density = 18.362457 Si / 1000 Ang^3
#
#
#
# Elastic Constant Matrix: (Units=GPa)
#
#
# Indices 1 2 3 4 5 6 
#
# 1 58.5532 22.8881 42.0710 0.0000 0.0000 0.0000
# 2 22.8881 67.4850 57.0680 0.0000 0.0000 0.0000
# 3 42.0710 57.0680 126.8546 0.0000 0.0000 0.0000
# 4 0.0000 0.0000 0.0000 10.3298 0.0000 0.0000
# 5 0.0000 0.0000 0.0000 0.0000 28.0023 0.0000
# 6 0.0000 0.0000 0.0000 0.0000 0.0000 24.5848
#
#
#
# Elastic Compliance Matrix: (Units=1/GPa)
#
#
# Indices 1 2 3 4 5 6 
#
# 1 0.022612 -0.002142 -0.006535 0.000000 0.000000 0.000000
# 2 -0.002142 0.024120 -0.010140 0.000000 0.000000 0.000000
# 3 -0.006535 -0.010140 0.014612 0.000000 0.000000 0.000000
# 4 0.000000 0.000000 0.000000 0.096807 0.000000 0.000000
# 5 0.000000 0.000000 0.000000 0.000000 0.035711 0.000000
# 6 0.000000 0.000000 0.000000 0.000000 0.000000 0.040675
#
#
# Mechanical properties :
#
#
# Convention : Reuss Voigt Hill
#
# Bulk Modulus (GPa) = 42.18034 55.21634 48.69834
# Shear Modulus (GPa) = 17.85233 21.30778 19.58006
#
# Velocity S-wave (km/s) = 3.12142 3.41016 3.26898
# Velocity P-wave (km/s) = 6.00099 6.75582 6.38956
#
# Compressibility (1/GPa) = 0.02370773
#
# Stress axis : x y z
#
# Youngs Moduli (GPa) = 44.22514 41.45995 68.43599
#
# Poissons Ratio (x) = 0.08882 0.44725
# Poissons Ratio (y) = 0.09475 0.69395
# Poissons Ratio (z) = 0.28902 0.42041
#
# Static dielectric constant tensor:
#      x y z
#    x 3.491480 0.000000 0.000000 
#    y 0.000000 3.031400 0.000000 
#    z 0.000000 0.000000 5.016670 
# 
# 
# High freq. dielectric constant tensor:
#      x y z
#    x 1.721550 0.000000 0.000000 
#    y 0.000000 1.684300 0.000000 
#    z 0.000000 0.000000 1.710550 
# 
# From -- ./inp_files/70807.got.cif
#   From: 2010.03.12/outbox.cif.g09.slc.cpg/sg65_36_cif.got.tgz:70807.got - 2010.04.10 20:52:16.
