data_PCOD8271054
_publ_section_title
;
Structure prediction by ZEFSAII (Michael W. Deem and Ramdas Pophale) SiO2 
 PCOD8271054
Probable space group: C M M M
;
_chemical_formula_sum "Si O2"
_cell_formula_units_Z 72
_cell_length_a 31.763321
_cell_length_b 14.438533
_cell_length_c 7.570357
_cell_angle_alpha 90.000000
_cell_angle_beta 90.000000
_cell_angle_gamma 90.000000
_cell_volume 3471.885017
_symmetry_space_group_name_H-M "C M M M"
_symmetry_group_IT_number 65
_symmetry_cell_setting 'orthorhombic'
loop_
_space_group_symop_operation_xyz
x,y,z
-x,-y,z
x,-y,-z
-x,y,-z
-x,-y,-z
x,y,-z
-x,y,z
x,-y,z
1/2+x,1/2+y,z
1/2-x,1/2-y,z
1/2+x,1/2-y,-z
1/2-x,1/2+y,-z
1/2-x,1/2-y,-z
1/2+x,1/2+y,-z
1/2-x,1/2+y,z
1/2+x,1/2-y,z
loop_
_atom_site_type_symbol
_atom_site_label
_atom_site_fract_x
_atom_site_fract_y
_atom_site_fract_z
Si Si1 0.164500 0.392289 0.296903
Si Si2 0.821748 0.899742 0.000000
Si Si3 0.880207 0.106087 0.700686
Si Si4 0.000000 0.393688 0.288905
Si Si5 0.230599 0.649290 0.000000
Si Si6 0.581588 0.208241 0.295096
O O1 0.175049 0.365402 0.500000
O O2 0.153786 0.500000 0.280656
O O3 0.204475 0.368042 0.176761
O O4 0.124348 0.337143 0.219859
O O5 0.840962 0.856789 0.819892
O O6 0.771897 0.913866 0.000000
O O7 0.842693 0.000000 0.000000
O O8 0.864252 0.115926 0.500000
O O9 0.918029 0.179831 0.737421
O O10 0.895519 0.000000 0.736490
O O11 0.040549 0.339510 0.209103
O O12 0.000000 0.500000 0.222562
O O13 0.000000 0.389995 0.500000
O O14 0.250000 0.750000 0.000000
O O15 0.580377 0.184032 0.500000
#
# Coordination Sequence:
#
# PCOD8271054 Si02
#       6
#    16   8  16   8   8  16
#     4  10  21  37  56  78 108 145 182 223 272 325
#     4  10  20  34  52  74 100 134 178 220 260 310
#     4   9  18  33  53  77 107 142 178 218 264 315
#     4   9  16  28  51  82 111 138 174 220 263 311
#     4  12  24  36  54  80 109 142 182 228 275 324
#     4   9  17  31  52  79 108 140 179 218 264 321
#
# _framework density 20.738012999999999
#
# number of rings (size 3 to 8) (size 9 to 14) (size 15 to 20)
#    0.000    2.333    0.000    3.000    0.000    4.000 
#    0.000    2.778    0.000    6.000    0.000    7.000 
#    0.000    0.000    0.000    0.000    0.000    0.000 
#
# Total GULP energy -445971.177290 kJ/mol
# GULP energy per Si atom -12388.088258 kJ/mol
# Density = 2.069081 g / cm^3
# Si number density = 20.738013 Si / 1000 Ang^3
#
#
#
# Elastic Constant Matrix: (Units=GPa)
#
#
# Indices 1 2 3 4 5 6 
#
# 1 150.3830 76.1038 50.5415 0.0000 0.0000 0.0000
# 2 76.1038 145.3017 36.5172 0.0000 0.0000 0.0000
# 3 50.5415 36.5172 87.8739 0.0000 0.0000 0.0000
# 4 0.0000 0.0000 0.0000 12.9588 0.0000 0.0000
# 5 0.0000 0.0000 0.0000 0.0000 5.4824 0.0000
# 6 0.0000 0.0000 0.0000 0.0000 0.0000 33.3405
#
#
#
# Elastic Compliance Matrix: (Units=1/GPa)
#
#
# Indices 1 2 3 4 5 6 
#
# 1 0.010206 -0.004322 -0.004074 0.000000 0.000000 0.000000
# 2 -0.004322 0.009515 -0.001468 0.000000 0.000000 0.000000
# 3 -0.004074 -0.001468 0.014333 0.000000 0.000000 0.000000
# 4 0.000000 0.000000 0.000000 0.077167 0.000000 0.000000
# 5 0.000000 0.000000 0.000000 0.000000 0.182403 0.000000
# 6 0.000000 0.000000 0.000000 0.000000 0.000000 0.029994
#
#
# Mechanical properties :
#
#
# Convention : Reuss Voigt Hill
#
# Bulk Modulus (GPa) = 69.80367 78.87597 74.33982
# Shear Modulus (GPa) = 14.36279 25.04941 19.70610
#
# Velocity S-wave (km/s) = 2.63455 3.47925 3.08594
# Velocity P-wave (km/s) = 6.55647 7.36596 6.97297
#
# Compressibility (1/GPa) = 0.01432590
#
# Stress axis : x y z
#
# Youngs Moduli (GPa) = 97.98181 105.09983 69.76687
#
# Poissons Ratio (x) = 0.45420 0.28424
# Poissons Ratio (y) = 0.42344 0.10244
# Poissons Ratio (z) = 0.39919 0.15433
#
# Static dielectric constant tensor:
#      x y z
#    x 3.360700 0.000000 0.000000 
#    y 0.000000 3.982320 0.000000 
#    z 0.000000 0.000000 3.648560 
# 
# 
# High freq. dielectric constant tensor:
#      x y z
#    x 1.786710 0.000000 0.000000 
#    y 0.000000 1.830470 0.000000 
#    z 0.000000 0.000000 1.802080 
# 
# From -- ./inp_files/7752.got.cif
#   From: 2010.03.12/outbox.cif.g09.slc.cpg/sg65_4_cif.got.tgz:7752.got - 2010.04.10 20:52:16.
