data_PCOD8271440
_publ_section_title
;
Structure prediction by ZEFSAII (Michael W. Deem and Ramdas Pophale) SiO2 
 PCOD8271440
Probable space group: C M M M
;
_chemical_formula_sum "Si O2"
_cell_formula_units_Z 80
_cell_length_a 25.832336
_cell_length_b 18.150763
_cell_length_c 8.936265
_cell_angle_alpha 90.000000
_cell_angle_beta 90.000000
_cell_angle_gamma 90.000000
_cell_volume 4190.005626
_symmetry_space_group_name_H-M "C M M M"
_symmetry_group_IT_number 65
_symmetry_cell_setting 'orthorhombic'
loop_
_space_group_symop_operation_xyz
x,y,z
-x,-y,z
x,-y,-z
-x,y,-z
-x,-y,-z
x,y,-z
-x,y,z
x,-y,z
1/2+x,1/2+y,z
1/2-x,1/2-y,z
1/2+x,1/2-y,-z
1/2-x,1/2+y,-z
1/2-x,1/2-y,-z
1/2+x,1/2+y,-z
1/2-x,1/2+y,z
1/2+x,1/2-y,z
loop_
_atom_site_type_symbol
_atom_site_label
_atom_site_fract_x
_atom_site_fract_y
_atom_site_fract_z
Si Si1 0.697420 0.916439 0.323663
Si Si2 0.095414 0.166919 0.822468
Si Si3 0.098115 0.324808 0.322653
Si Si4 0.697996 0.415938 0.824518
Si Si5 0.500000 0.918090 0.322842
Si Si6 0.500000 0.413060 0.673240
O O1 0.703264 0.914515 0.500000
O O2 0.650607 0.864803 0.271129
O O3 0.750239 0.885170 0.253211
O O4 0.686766 0.000000 0.268262
O O5 0.092402 0.249391 0.764781
O O6 0.149947 0.132822 0.770188
O O7 0.050569 0.118804 0.750762
O O8 0.089056 0.164691 0.000000
O O9 0.096700 0.310378 0.500000
O O10 0.050921 0.375630 0.268755
O O11 0.687449 0.500000 0.775146
O O12 0.706311 0.409587 0.000000
O O13 0.500000 0.924200 0.500000
O O14 0.500000 0.000000 0.252484
O O15 0.500000 0.500000 0.695024
O O16 0.500000 0.389922 0.500000
#
# Coordination Sequence:
#
# PCOD8271440 Si02
#       6
#    16  16  16  16   8   8
#     4   9  18  33  54  80 109 143 185 232 279 326
#     4  11  23  38  57  81 112 147 182 222 269 325
#     4  10  20  34  54  81 112 143 180 227 275 325
#     4   9  19  36  56  77 103 140 185 227 268 319
#     4   9  17  32  56  80 102 135 178 221 266 320
#     4  11  24  41  62  86 110 139 178 223 272 326
#
# _framework density 19.093055
#
# number of rings (size 3 to 8) (size 9 to 14) (size 15 to 20)
#    0.000    2.200    0.000    2.700    0.000    8.000 
#    0.000    6.000    0.000    2.400    0.000    0.000 
#    0.000    0.000    0.000    0.000    0.000    0.000 
#
# Total GULP energy -496114.522149 kJ/mol
# GULP energy per Si atom -12402.863054 kJ/mol
# Density = 1.904960 g / cm^3
# Si number density = 19.093055 Si / 1000 Ang^3
#
#
#
# Elastic Constant Matrix: (Units=GPa)
#
#
# Indices 1 2 3 4 5 6 
#
# 1 183.7014 85.0248 52.5177 0.0000 0.0000 0.0000
# 2 85.0248 123.2671 41.7208 0.0000 0.0000 0.0000
# 3 52.5177 41.7208 50.9928 0.0000 0.0000 0.0000
# 4 0.0000 0.0000 0.0000 22.6884 0.0000 0.0000
# 5 0.0000 0.0000 0.0000 0.0000 18.7177 0.0000
# 6 0.0000 0.0000 0.0000 0.0000 0.0000 -19.4691
#
#
#
# Elastic Compliance Matrix: (Units=1/GPa)
#
#
# Indices 1 2 3 4 5 6 
#
# 1 0.009110 -0.004298 -0.005866 0.000000 0.000000 0.000000
# 2 -0.004298 0.013247 -0.006412 0.000000 0.000000 0.000000
# 3 -0.005866 -0.006412 0.030897 0.000000 0.000000 0.000000
# 4 0.000000 0.000000 0.000000 0.044075 0.000000 0.000000
# 5 0.000000 0.000000 0.000000 0.000000 0.053425 0.000000
# 6 0.000000 0.000000 0.000000 0.000000 0.000000 -0.051364
#
#
# Mechanical properties :
#
#
# Convention : Reuss Voigt Hill
#
# Bulk Modulus (GPa) = 49.74262 79.60978 64.67620
# Shear Modulus (GPa) = 35.90804 16.30062 26.10433
#
# Velocity S-wave (km/s) = 4.34139 2.92506 3.70160
# Velocity P-wave (km/s) = 7.15818 7.29343 7.22612
#
# Compressibility (1/GPa) = 0.02010349
#
# Stress axis : x y z
#
# Youngs Moduli (GPa) = 109.76925 75.48616 32.36523
#
# Poissons Ratio (x) = 0.32448 0.18984
# Poissons Ratio (y) = 0.47184 0.20751
# Poissons Ratio (z) = 0.64386 0.48399
#
# Static dielectric constant tensor:
#      x y z
#    x 3.966650 0.000000 0.000000 
#    y 0.000000 3.592180 0.000000 
#    z 0.000000 0.000000 3.326640 
# 
# 
# High freq. dielectric constant tensor:
#      x y z
#    x 1.760980 0.000000 0.000000 
#    y 0.000000 1.747820 0.000000 
#    z 0.000000 0.000000 1.726020 
# 
# From -- ./inp_files/16102.got.cif
#   From: 2010.03.12/outbox.cif.g09.slc.cpg/sg65_9_cif.got.tgz:16102.got - 2010.04.10 20:52:16.
