data_PCOD8271665
_publ_section_title
;
Structure prediction by ZEFSAII (Michael W. Deem and Ramdas Pophale) SiO2 
 PCOD8271665
Probable space group: C M M M
;
_chemical_formula_sum "Si O2"
_cell_formula_units_Z 72
_cell_length_a 9.265922
_cell_length_b 15.284568
_cell_length_c 26.518589
_cell_angle_alpha 90.000000
_cell_angle_beta 90.000000
_cell_angle_gamma 90.000000
_cell_volume 3755.711473
_symmetry_space_group_name_H-M "C M M M"
_symmetry_group_IT_number 65
_symmetry_cell_setting 'orthorhombic'
loop_
_space_group_symop_operation_xyz
x,y,z
-x,-y,z
x,-y,-z
-x,y,-z
-x,-y,-z
x,y,-z
-x,y,z
x,-y,z
1/2+x,1/2+y,z
1/2-x,1/2-y,z
1/2+x,1/2-y,-z
1/2-x,1/2+y,-z
1/2-x,1/2-y,-z
1/2+x,1/2+y,-z
1/2-x,1/2+y,z
1/2+x,1/2-y,z
loop_
_atom_site_type_symbol
_atom_site_label
_atom_site_fract_x
_atom_site_fract_y
_atom_site_fract_z
Si Si1 0.170629 0.165256 0.750999
Si Si2 0.329026 0.500000 0.073687
Si Si3 0.832856 0.339983 0.556133
Si Si4 0.328232 0.653742 0.000000
Si Si5 0.171747 0.000000 0.186909
Si Si6 0.840499 0.097676 0.645246
O O1 0.250000 0.250000 0.772655
O O2 0.214250 0.155338 0.692053
O O3 0.000000 0.175499 0.756594
O O4 0.229639 0.084920 0.783892
O O5 0.500000 0.500000 0.072843
O O6 0.280431 0.591657 0.047238
O O7 0.265811 0.500000 0.130209
O O8 0.809764 0.379819 0.500000
O O9 0.750000 0.250000 0.561819
O O10 0.768721 0.403516 0.598231
O O11 0.000000 0.324049 0.567042
O O12 0.250000 0.750000 0.000000
O O13 0.500000 0.671911 0.000000
O O14 0.000000 0.000000 0.186368
O O15 0.000000 0.128674 0.627268
O O16 0.850165 0.000000 0.666694
#
# Coordination Sequence:
#
# PCOD8271665 Si02
#       6
#    16   8  16   8   8  16
#     4  10  20  35  55  78 104 137 177 220 266 318
#     4   8  16  31  52  76 106 147 187 221 261 320
#     4  10  21  36  53  74 100 130 166 210 260 316
#     4   9  17  31  52  80 110 143 187 227 264 314
#     4   9  17  34  56  76 105 145 184 220 265 318
#     4  10  20  35  54  75 101 133 170 212 260 319
#
# _framework density 19.170801999999998
#
# number of rings (size 3 to 8) (size 9 to 14) (size 15 to 20)
#    0.000    2.444    1.111    2.000    0.000    5.778 
#    0.000    3.889    0.000    1.333    0.000    0.000 
#    0.000    0.000    0.000    0.000    0.000    0.000 
#
# Total GULP energy -446146.556538 kJ/mol
# GULP energy per Si atom -12392.959904 kJ/mol
# Density = 1.912717 g / cm^3
# Si number density = 19.170802 Si / 1000 Ang^3
#
#
#
# Elastic Constant Matrix: (Units=GPa)
#
#
# Indices 1 2 3 4 5 6 
#
# 1 60.5809 38.6779 50.6080 0.0000 0.0000 0.0000
# 2 38.6779 143.2174 65.2452 0.0000 0.0000 0.0000
# 3 50.6080 65.2452 135.9992 0.0000 0.0000 0.0000
# 4 0.0000 0.0000 0.0000 18.7607 0.0000 0.0000
# 5 0.0000 0.0000 0.0000 0.0000 14.3414 0.0000
# 6 0.0000 0.0000 0.0000 0.0000 0.0000 32.2798
#
#
#
# Elastic Compliance Matrix: (Units=1/GPa)
#
#
# Indices 1 2 3 4 5 6 
#
# 1 0.025065 -0.003225 -0.007780 0.000000 0.000000 0.000000
# 2 -0.003225 0.009350 -0.003286 0.000000 0.000000 0.000000
# 3 -0.007780 -0.003286 0.011824 0.000000 0.000000 0.000000
# 4 0.000000 0.000000 0.000000 0.053303 0.000000 0.000000
# 5 0.000000 0.000000 0.000000 0.000000 0.069728 0.000000
# 6 0.000000 0.000000 0.000000 0.000000 0.000000 0.030979
#
#
# Mechanical properties :
#
#
# Convention : Reuss Voigt Hill
#
# Bulk Modulus (GPa) = 56.63026 72.09554 64.36290
# Shear Modulus (GPa) = 21.30222 25.42747 23.36485
#
# Velocity S-wave (km/s) = 3.33705 3.64588 3.49488
# Velocity P-wave (km/s) = 6.66722 7.44391 7.06625
#
# Compressibility (1/GPa) = 0.01765841
#
# Stress axis : x y z
#
# Youngs Moduli (GPa) = 39.89614 106.95012 84.57062
#
# Poissons Ratio (x) = 0.34489 0.65797
# Poissons Ratio (y) = 0.12866 0.27787
# Poissons Ratio (z) = 0.31040 0.35141
#
# Static dielectric constant tensor:
#      x y z
#    x 3.278190 0.000000 0.000000 
#    y 0.000000 3.470910 0.000000 
#    z 0.000000 0.000000 3.725710 
# 
# 
# High freq. dielectric constant tensor:
#      x y z
#    x 1.714860 0.000000 0.000000 
#    y 0.000000 1.748490 0.000000 
#    z 0.000000 0.000000 1.746330 
# 
# From -- ./inp_files/76376.got.cif
#   From: 2010.03.12/outbox.cif.g09.slc.cpg/sg65_39_cif.got.tgz:76376.got - 2010.04.10 20:52:16.
