data_PCOD8271121
_publ_section_title
;
Structure prediction by ZEFSAII (Michael W. Deem and Ramdas Pophale) SiO2 
 PCOD8271121
Probable space group: C M M M
;
_chemical_formula_sum "Si O2"
_cell_formula_units_Z 64
_cell_length_a 15.928994
_cell_length_b 8.998827
_cell_length_c 22.351161
_cell_angle_alpha 90.000000
_cell_angle_beta 90.000000
_cell_angle_gamma 90.000000
_cell_volume 3203.865960
_symmetry_space_group_name_H-M "C M M M"
_symmetry_group_IT_number 65
_symmetry_cell_setting 'orthorhombic'
loop_
_space_group_symop_operation_xyz
x,y,z
-x,-y,z
x,-y,-z
-x,y,-z
-x,-y,-z
x,y,-z
-x,y,z
x,-y,z
1/2+x,1/2+y,z
1/2-x,1/2-y,z
1/2+x,1/2-y,-z
1/2-x,1/2+y,-z
1/2-x,1/2-y,-z
1/2+x,1/2+y,-z
1/2-x,1/2+y,z
1/2+x,1/2-y,z
loop_
_atom_site_type_symbol
_atom_site_label
_atom_site_fract_x
_atom_site_fract_y
_atom_site_fract_z
Si Si1 0.339130 0.674219 0.371982
Si Si2 0.904870 0.171863 0.247037
Si Si3 0.338753 0.673628 0.500000
Si Si4 0.834823 0.323931 0.137124
Si Si5 0.000000 0.676540 0.067561
O O1 0.323384 0.500000 0.369582
O O2 0.250000 0.750000 0.365011
O O3 0.396730 0.722824 0.316278
O O4 0.383520 0.717269 0.436500
O O5 0.845544 0.272705 0.205822
O O6 0.000000 0.199131 0.227090
O O7 0.878944 0.000000 0.238764
O O8 0.322455 0.500000 0.500000
O O9 0.250000 0.750000 0.500000
O O10 0.825727 0.500000 0.133815
O O11 0.750000 0.250000 0.110702
O O12 0.915290 0.265412 0.099693
O O13 0.000000 0.500000 0.068955
O O14 0.000000 0.737753 0.000000
#
# Coordination Sequence:
#
# PCOD8271121 Si02
#       5
#    16  16   8  16   8
#     4   9  17  29  46  69  95 130 173 222 274 328
#     4  10  20  34  52  76 109 144 182 231 283 330
#     4   8  14  26  43  63  91 125 169 218 269 325
#     4  11  22  38  61  88 116 151 191 230 277 330
#     4   9  20  40  63  87 119 154 187 226 272 327
#
# _framework density 19.975868999999999
#
# number of rings (size 3 to 8) (size 9 to 14) (size 15 to 20)
#    0.000    2.375    1.250    1.500    0.000    3.500 
#    0.000    0.625    0.000    9.000    0.000    0.000 
#    0.000   12.000    0.000    0.000    0.000    0.000 
#
# Total GULP energy -396477.354135 kJ/mol
# GULP energy per Si atom -12389.917317 kJ/mol
# Density = 1.993040 g / cm^3
# Si number density = 19.975869 Si / 1000 Ang^3
#
#
#
# Elastic Constant Matrix: (Units=GPa)
#
#
# Indices 1 2 3 4 5 6 
#
# 1 114.4042 33.1224 56.1044 0.0000 0.0000 0.0000
# 2 33.1224 39.8726 29.9145 0.0000 0.0000 0.0000
# 3 56.1044 29.9145 143.6763 0.0000 0.0000 0.0000
# 4 0.0000 0.0000 0.0000 21.1925 0.0000 0.0000
# 5 0.0000 0.0000 0.0000 0.0000 488.5438 0.0000
# 6 0.0000 0.0000 0.0000 0.0000 0.0000 25.7785
#
#
#
# Elastic Compliance Matrix: (Units=1/GPa)
#
#
# Indices 1 2 3 4 5 6 
#
# 1 0.012685 -0.008084 -0.003270 0.000000 0.000000 0.000000
# 2 -0.008084 0.034875 -0.004104 0.000000 0.000000 0.000000
# 3 -0.003270 -0.004104 0.009092 0.000000 0.000000 0.000000
# 4 0.000000 0.000000 0.000000 0.047186 0.000000 0.000000
# 5 0.000000 0.000000 0.000000 0.000000 0.002047 0.000000
# 6 0.000000 0.000000 0.000000 0.000000 0.000000 0.038792
#
#
# Mechanical properties :
#
#
# Convention : Reuss Voigt Hill
#
# Bulk Modulus (GPa) = 38.85914 59.58174 49.22044
# Shear Modulus (GPa) = 27.14842 119.02376 73.08609
#
# Velocity S-wave (km/s) = 3.69054 7.72743 6.05530
# Velocity P-wave (km/s) = 6.13640 10.46466 8.57801
#
# Compressibility (1/GPa) = 0.02573397
#
# Stress axis : x y z
#
# Youngs Moduli (GPa) = 78.83172 28.67403 109.99071
#
# Poissons Ratio (x) = 0.23181 0.35970
# Poissons Ratio (y) = 0.63729 0.45145
# Poissons Ratio (z) = 0.25780 0.11769
#
# Static dielectric constant tensor:
#      x y z
#    x 3.493230 0.000000 0.000000 
#    y 0.000000 3.392320 0.000000 
#    z 0.000000 0.000000 4.181520 
# 
# 
# High freq. dielectric constant tensor:
#      x y z
#    x 1.760680 0.000000 0.000000 
#    y 0.000000 1.756670 0.000000 
#    z 0.000000 0.000000 1.796390 
# 
# From -- ./inp_files/66809.got.cif
#   From: 2010.03.12/outbox.cif.g09.slc.cpg/sg65_34_cif.got.tgz:66809.got - 2010.04.10 20:52:16.
