data_PCOD8271087
_publ_section_title
;
Structure prediction by ZEFSAII (Michael W. Deem and Ramdas Pophale) SiO2 
 PCOD8271087
Probable space group: C M M M
;
_chemical_formula_sum "Si O2"
_cell_formula_units_Z 72
_cell_length_a 7.994523
_cell_length_b 20.095004
_cell_length_c 24.350350
_cell_angle_alpha 90.000000
_cell_angle_beta 90.000000
_cell_angle_gamma 90.000000
_cell_volume 3911.883037
_symmetry_space_group_name_H-M "C M M M"
_symmetry_group_IT_number 65
_symmetry_cell_setting 'orthorhombic'
loop_
_space_group_symop_operation_xyz
x,y,z
-x,-y,z
x,-y,-z
-x,y,-z
-x,-y,-z
x,y,-z
-x,y,z
x,-y,z
1/2+x,1/2+y,z
1/2-x,1/2-y,z
1/2+x,1/2-y,-z
1/2-x,1/2+y,-z
1/2-x,1/2-y,-z
1/2+x,1/2+y,-z
1/2-x,1/2+y,z
1/2+x,1/2-y,z
loop_
_atom_site_type_symbol
_atom_site_label
_atom_site_fract_x
_atom_site_fract_y
_atom_site_fract_z
Si Si1 0.807868 0.179982 0.851420
Si Si2 0.000000 0.578445 0.560901
Si Si3 0.302828 0.924911 0.938853
Si Si4 0.194606 0.922174 0.362647
Si Si5 0.303683 0.678107 0.269430
O O1 0.750000 0.250000 0.877480
O O2 0.777095 0.121334 0.893558
O O3 0.721978 0.167483 0.791562
O O4 0.000000 0.185588 0.839471
O O5 0.173702 0.600154 0.590402
O O6 0.000000 0.500000 0.556254
O O7 0.000000 0.610596 0.500000
O O8 0.500000 0.919615 0.934817
O O9 0.243244 0.000000 0.927052
O O10 0.243781 0.903416 0.000000
O O11 0.254515 0.881076 0.309317
O O12 0.000000 0.906505 0.379664
O O13 0.213530 0.000000 0.348588
O O14 0.500000 0.675162 0.265565
O O15 0.250000 0.750000 0.293272
#
# Coordination Sequence:
#
# PCOD8271087 Si02
#       5
#    16   8  16  16  16
#     4  10  20  34  52  75 103 131 169 214 255 308
#     4   9  18  32  52  80 108 136 174 216 258 305
#     4   9  19  36  54  72  98 132 169 210 259 312
#     4   9  18  33  52  77 107 137 173 216 260 308
#     4   9  19  33  51  75 101 135 169 206 257 308
#
# _framework density 18.405459
#
# number of rings (size 3 to 8) (size 9 to 14) (size 15 to 20)
#    0.000    2.778    0.000    1.333    1.556    3.556 
#    0.000    5.556    0.000    0.667    0.000    0.000 
#    0.000    0.000    0.000    0.000    0.000    0.000 
#
# Total GULP energy -446108.591240 kJ/mol
# GULP energy per Si atom -12391.905312 kJ/mol
# Density = 1.836357 g / cm^3
# Si number density = 18.405459 Si / 1000 Ang^3
#
#
#
# Elastic Constant Matrix: (Units=GPa)
#
#
# Indices 1 2 3 4 5 6 
#
# 1 58.9780 28.4712 45.3809 0.0000 0.0000 0.0000
# 2 28.4712 83.5447 65.5218 0.0000 0.0000 0.0000
# 3 45.3809 65.5218 123.7286 0.0000 0.0000 0.0000
# 4 0.0000 0.0000 0.0000 14.7979 0.0000 0.0000
# 5 0.0000 0.0000 0.0000 0.0000 25.7665 0.0000
# 6 0.0000 0.0000 0.0000 0.0000 0.0000 24.9391
#
#
#
# Elastic Compliance Matrix: (Units=1/GPa)
#
#
# Indices 1 2 3 4 5 6 
#
# 1 0.023849 -0.002167 -0.007600 0.000000 0.000000 0.000000
# 2 -0.002167 0.020669 -0.010151 0.000000 0.000000 0.000000
# 3 -0.007600 -0.010151 0.016245 0.000000 0.000000 0.000000
# 4 0.000000 0.000000 0.000000 0.067577 0.000000 0.000000
# 5 0.000000 0.000000 0.000000 0.000000 0.038810 0.000000
# 6 0.000000 0.000000 0.000000 0.000000 0.000000 0.040098
#
#
# Mechanical properties :
#
#
# Convention : Reuss Voigt Hill
#
# Bulk Modulus (GPa) = 47.78267 60.55546 54.16907
# Shear Modulus (GPa) = 19.68041 21.55918 20.61979
#
# Velocity S-wave (km/s) = 3.27352 3.42621 3.35073
# Velocity P-wave (km/s) = 6.34865 6.97310 6.66819
#
# Compressibility (1/GPa) = 0.02092809
#
# Stress axis : x y z
#
# Youngs Moduli (GPa) = 41.92983 48.38140 61.55773
#
# Poissons Ratio (x) = 0.10487 0.46781
# Poissons Ratio (y) = 0.09088 0.62485
# Poissons Ratio (z) = 0.31865 0.49110
#
# Static dielectric constant tensor:
#      x y z
#    x 3.414900 0.000000 0.000000 
#    y 0.000000 3.073610 0.000000 
#    z 0.000000 0.000000 2.199400 
# 
# 
# High freq. dielectric constant tensor:
#      x y z
#    x 1.716330 0.000000 0.000000 
#    y 0.000000 1.700640 0.000000 
#    z 0.000000 0.000000 1.707950 
# 
# From -- ./inp_files/59201.got.cif
#   From: 2010.03.12/outbox.cif.g09.slc.cpg/sg65_30_cif.got.tgz:59201.got - 2010.04.10 20:52:16.
