data_PCOD8271379
_publ_section_title
;
Structure prediction by ZEFSAII (Michael W. Deem and Ramdas Pophale) SiO2 
 PCOD8271379
Probable space group: C M M M
;
_chemical_formula_sum "Si O2"
_cell_formula_units_Z 80
_cell_length_a 25.949948
_cell_length_b 8.977324
_cell_length_c 18.554397
_cell_angle_alpha 90.000000
_cell_angle_beta 90.000000
_cell_angle_gamma 90.000000
_cell_volume 4322.452568
_symmetry_space_group_name_H-M "C M M M"
_symmetry_group_IT_number 65
_symmetry_cell_setting 'orthorhombic'
loop_
_space_group_symop_operation_xyz
x,y,z
-x,-y,z
x,-y,-z
-x,y,-z
-x,-y,-z
x,y,-z
-x,y,z
x,-y,z
1/2+x,1/2+y,z
1/2-x,1/2-y,z
1/2+x,1/2-y,-z
1/2-x,1/2+y,-z
1/2-x,1/2-y,-z
1/2+x,1/2+y,-z
1/2-x,1/2+y,z
1/2+x,1/2-y,z
loop_
_atom_site_type_symbol
_atom_site_label
_atom_site_fract_x
_atom_site_fract_y
_atom_site_fract_z
Si Si1 0.500000 0.824233 0.921594
Si Si2 0.500000 0.331259 0.414247
Si Si3 0.696941 0.675741 0.662397
Si Si4 0.397155 0.829970 0.414410
Si Si5 0.698099 0.673414 0.827694
Si Si6 0.888937 0.670152 0.914080
O O1 0.554135 0.781625 0.883118
O O2 0.500000 0.000000 0.933063
O O3 0.500000 0.746969 0.000000
O O4 0.500000 0.500000 0.384276
O O5 0.500000 0.331661 0.500000
O O6 0.550494 0.245967 0.385267
O O7 0.700851 0.500000 0.650297
O O8 0.750000 0.750000 0.635761
O O9 0.650995 0.739822 0.615315
O O10 0.686406 0.718362 0.745388
O O11 0.395056 0.822982 0.500000
O O12 0.395655 0.000000 0.386895
O O13 0.706725 0.500000 0.835975
O O14 0.750000 0.750000 0.855899
O O15 0.651299 0.721340 0.877602
O O16 0.876291 0.500000 0.892665
O O17 0.887334 0.689313 0.000000
#
# Coordination Sequence:
#
# PCOD8271379 Si02
#       6
#     8   8  16  16  16  16
#     4   7  12  26  48  73 100 129 161 197 240 291
#     4   9  17  31  52  77 106 139 171 207 254 301
#     4  10  21  37  55  74  99 134 173 212 258 309
#     4  10  20  34  54  80 107 135 170 211 253 302
#     4  10  21  36  53  73  99 133 170 209 254 302
#     4   9  17  31  53  78 102 131 168 208 249 297
#
# _framework density 18.508012000000001
#
# number of rings (size 3 to 8) (size 9 to 14) (size 15 to 20)
#    0.000    2.600    0.000    3.300    0.000    6.000 
#    0.000    1.500    0.000    6.600    0.000    0.000 
#    0.000    0.000    0.000    0.000    0.000    0.000 
#
# Total GULP energy -495866.431552 kJ/mol
# GULP energy per Si atom -12396.660789 kJ/mol
# Density = 1.846589 g / cm^3
# Si number density = 18.508012 Si / 1000 Ang^3
#
#
#
# Elastic Constant Matrix: (Units=GPa)
#
#
# Indices 1 2 3 4 5 6 
#
# 1 166.7049 60.3054 33.4088 0.0000 0.0000 0.0000
# 2 60.3054 94.8354 22.7699 0.0000 0.0000 0.0000
# 3 33.4088 22.7699 24.4912 0.0000 0.0000 0.0000
# 4 0.0000 0.0000 0.0000 25.4601 0.0000 0.0000
# 5 0.0000 0.0000 0.0000 0.0000 98.2697 0.0000
# 6 0.0000 0.0000 0.0000 0.0000 0.0000 37.5425
#
#
#
# Elastic Compliance Matrix: (Units=1/GPa)
#
#
# Indices 1 2 3 4 5 6 
#
# 1 0.009131 -0.003625 -0.009085 0.000000 0.000000 0.000000
# 2 -0.003625 0.015014 -0.009014 0.000000 0.000000 0.000000
# 3 -0.009085 -0.009014 0.061605 0.000000 0.000000 0.000000
# 4 0.000000 0.000000 0.000000 0.039277 0.000000 0.000000
# 5 0.000000 0.000000 0.000000 0.000000 0.010176 0.000000
# 6 0.000000 0.000000 0.000000 0.000000 0.000000 0.026636
#
#
# Mechanical properties :
#
#
# Convention : Reuss Voigt Hill
#
# Bulk Modulus (GPa) = 23.63999 57.66664 40.65332
# Shear Modulus (GPa) = 22.79077 43.55763 33.17420
#
# Velocity S-wave (km/s) = 3.51294 4.85650 4.23830
# Velocity P-wave (km/s) = 5.40878 7.91661 6.77966
#
# Compressibility (1/GPa) = 0.04230120
#
# Stress axis : x y z
#
# Youngs Moduli (GPa) = 109.52163 66.60533 16.23253
#
# Poissons Ratio (x) = 0.24143 0.14748
# Poissons Ratio (y) = 0.39699 0.14632
# Poissons Ratio (z) = 0.99503 0.60038
#
# Static dielectric constant tensor:
#      x y z
#    x 3.716930 0.000000 0.000000 
#    y 0.000000 3.413460 0.000000 
#    z 0.000000 0.000000 3.085630 
# 
# 
# High freq. dielectric constant tensor:
#      x y z
#    x 1.738870 0.000000 0.000000 
#    y 0.000000 1.719260 0.000000 
#    z 0.000000 0.000000 1.681890 
# 
# From -- ./inp_files/65081.got.cif
#   From: 2010.03.12/outbox.cif.g09.slc.cpg/sg65_33_cif.got.tgz:65081.got - 2010.04.10 20:52:16.
