data_PCOD8271430
_publ_section_title
;
Structure prediction by ZEFSAII (Michael W. Deem and Ramdas Pophale) SiO2 
 PCOD8271430
Probable space group: C M M M
;
_chemical_formula_sum "Si O2"
_cell_formula_units_Z 56
_cell_length_a 9.095196
_cell_length_b 33.459811
_cell_length_c 9.692610
_cell_angle_alpha 90.000000
_cell_angle_beta 90.000000
_cell_angle_gamma 90.000000
_cell_volume 2949.689379
_symmetry_space_group_name_H-M "C M M M"
_symmetry_group_IT_number 65
_symmetry_cell_setting 'orthorhombic'
loop_
_space_group_symop_operation_xyz
x,y,z
-x,-y,z
x,-y,-z
-x,y,-z
-x,-y,-z
x,y,-z
-x,y,z
x,-y,z
1/2+x,1/2+y,z
1/2-x,1/2-y,z
1/2+x,1/2-y,-z
1/2-x,1/2+y,-z
1/2-x,1/2-y,-z
1/2+x,1/2+y,-z
1/2-x,1/2+y,z
1/2+x,1/2-y,z
loop_
_atom_site_type_symbol
_atom_site_label
_atom_site_fract_x
_atom_site_fract_y
_atom_site_fract_z
Si Si1 0.174292 0.206585 0.000000
Si Si2 0.325525 0.073590 0.657312
Si Si3 0.829437 0.340922 0.234691
Si Si4 0.824837 0.500000 0.158666
Si Si5 0.336392 0.210018 0.500000
O O1 0.250000 0.250000 0.000000
O O2 0.222255 0.179974 0.128090
O O3 0.000000 0.213402 0.000000
O O4 0.261581 0.070649 0.500000
O O5 0.500000 0.072098 0.645449
O O6 0.277474 0.113994 0.735030
O O7 0.266222 0.038140 0.755291
O O8 0.801127 0.316934 0.371608
O O9 0.000000 0.339475 0.185626
O O10 0.000000 0.500000 0.153765
O O11 0.764511 0.500000 0.000000
O O12 0.500000 0.225511 0.500000
O O13 0.250000 0.250000 0.500000
#
# Coordination Sequence:
#
# PCOD8271430 Si02
#       5
#     8  16  16   8   8
#     4  12  26  42  58  81 112 149 191 234 285 340
#     4   9  16  29  49  76 113 151 185 226 280 334
#     4  10  20  36  58  83 112 149 189 232 281 337
#     4   9  17  25  41  77 117 152 187 224 270 328
#     4  10  20  34  54  81 109 139 183 228 278 334
#
# _framework density 18.985047999999999
#
# number of rings (size 3 to 8) (size 9 to 14) (size 15 to 20)
#    0.000    2.143    1.429    2.571    2.000    5.143 
#    0.000    0.000    0.000    0.000    0.000    2.000 
#    0.000    2.286    0.000    0.000    0.000    0.000 
#
# Total GULP energy -347033.295711 kJ/mol
# GULP energy per Si atom -12394.046275 kJ/mol
# Density = 1.894184 g / cm^3
# Si number density = 18.985048 Si / 1000 Ang^3
#
#
#
# Elastic Constant Matrix: (Units=GPa)
#
#
# Indices 1 2 3 4 5 6 
#
# 1 59.0747 52.0197 54.3762 0.0000 0.0000 0.0000
# 2 52.0197 200.3927 86.0218 0.0000 0.0000 0.0000
# 3 54.3762 86.0218 151.2963 0.0000 0.0000 0.0000
# 4 0.0000 0.0000 0.0000 39.6747 0.0000 0.0000
# 5 0.0000 0.0000 0.0000 0.0000 22.4137 0.0000
# 6 0.0000 0.0000 0.0000 0.0000 0.0000 19.0183
#
#
#
# Elastic Compliance Matrix: (Units=1/GPa)
#
#
# Indices 1 2 3 4 5 6 
#
# 1 0.027329 -0.003807 -0.007657 0.000000 0.000000 0.000000
# 2 -0.003807 0.007132 -0.002687 0.000000 0.000000 0.000000
# 3 -0.007657 -0.002687 0.010889 0.000000 0.000000 0.000000
# 4 0.000000 0.000000 0.000000 0.025205 0.000000 0.000000
# 5 0.000000 0.000000 0.000000 0.000000 0.044616 0.000000
# 6 0.000000 0.000000 0.000000 0.000000 0.000000 0.052581
#
#
# Mechanical properties :
#
#
# Convention : Reuss Voigt Hill
#
# Bulk Modulus (GPa) = 58.66035 88.39990 73.53012
# Shear Modulus (GPa) = 24.78493 30.77771 27.78132
#
# Velocity S-wave (km/s) = 3.61709 4.03073 3.82949
# Velocity P-wave (km/s) = 6.95771 8.26597 7.63990
#
# Compressibility (1/GPa) = 0.01704729
#
# Stress axis : x y z
#
# Youngs Moduli (GPa) = 36.59183 140.21808 91.83496
#
# Poissons Ratio (x) = 0.53383 0.70321
# Poissons Ratio (y) = 0.13931 0.24672
# Poissons Ratio (z) = 0.28020 0.37671
#
# Static dielectric constant tensor:
#      x y z
#    x 3.057650 0.000000 0.000000 
#    y 0.000000 3.747360 0.000000 
#    z 0.000000 0.000000 3.770180 
# 
# 
# High freq. dielectric constant tensor:
#      x y z
#    x 1.675160 0.000000 0.000000 
#    y 0.000000 1.759950 0.000000 
#    z 0.000000 0.000000 1.757440 
# 
# From -- ./inp_files/4747.got.cif
#   From: 2010.03.12/outbox.cif.g09.slc.cpg/sg65_3_cif.got.tgz:4747.got - 2010.04.10 20:52:16.
