data_PCOD8271621
_publ_section_title
;
Structure prediction by ZEFSAII (Michael W. Deem and Ramdas Pophale) SiO2 
 PCOD8271621
Probable space group: C M M M
;
_chemical_formula_sum "Si O2"
_cell_formula_units_Z 104
_cell_length_a 8.740197
_cell_length_b 26.943440
_cell_length_c 26.521681
_cell_angle_alpha 90.000000
_cell_angle_beta 90.000000
_cell_angle_gamma 90.000000
_cell_volume 6245.616476
_symmetry_space_group_name_H-M "C M M M"
_symmetry_group_IT_number 65
_symmetry_cell_setting 'orthorhombic'
loop_
_space_group_symop_operation_xyz
x,y,z
-x,-y,z
x,-y,-z
-x,y,-z
-x,-y,-z
x,y,-z
-x,y,z
x,-y,z
1/2+x,1/2+y,z
1/2-x,1/2-y,z
1/2+x,1/2-y,-z
1/2-x,1/2+y,-z
1/2-x,1/2-y,-z
1/2+x,1/2+y,-z
1/2-x,1/2+y,z
1/2+x,1/2-y,z
loop_
_atom_site_type_symbol
_atom_site_label
_atom_site_fract_x
_atom_site_fract_y
_atom_site_fract_z
Si Si1 0.820261 0.851946 0.249083
Si Si2 0.821237 0.944720 0.000000
Si Si3 0.676885 0.943445 0.798602
Si Si4 0.824604 0.399293 0.903760
Si Si5 0.180965 0.695187 0.654591
Si Si6 0.821003 0.804008 0.554621
Si Si7 0.179191 0.301104 0.153914
O O1 0.782323 0.908954 0.235933
O O2 0.738771 0.840064 0.301312
O O3 0.758746 0.815043 0.206370
O O4 0.000000 0.844556 0.254622
O O5 0.776717 0.913819 0.950948
O O6 0.000000 0.950847 0.000000
O O7 0.745643 0.000000 0.000000
O O8 0.500000 0.928617 0.789746
O O9 0.716698 0.935375 0.857305
O O10 0.710228 0.000000 0.783689
O O11 0.787965 0.342680 0.888187
O O12 0.000000 0.405463 0.919705
O O13 0.250000 0.750000 0.661008
O O14 0.236992 0.669630 0.601832
O O15 0.000000 0.698729 0.655785
O O16 0.794501 0.831032 0.500000
O O17 0.750000 0.750000 0.550599
O O18 0.000000 0.799849 0.566729
O O19 0.250000 0.250000 0.133387
O O20 0.000000 0.295479 0.164246
#
# Coordination Sequence:
#
# PCOD8271621 Si02
#       7
#    16   8  16  16  16  16  16
#     4  11  21  32  47  69  97 126 158 194 233 278
#     4  11  23  35  50  75 102 123 150 193 236 273
#     4   9  18  34  54  74  96 122 153 190 233 280
#     4   9  19  35  54  74  96 124 156 187 224 277
#     4  11  20  30  44  63  91 125 162 200 237 276
#     4   9  16  26  40  59  85 118 156 195 235 279
#     4  10  20  35  53  73  96 124 159 194 232 276
#
# _framework density 16.651679000000001
#
# number of rings (size 3 to 8) (size 9 to 14) (size 15 to 20)
#    0.000    2.077    0.000    6.692    0.000    5.538 
#    0.000    0.385    0.000    0.000    0.000    0.000 
#    0.000    0.615    0.000    6.462    0.000    2.769 
#
# Total GULP energy -644706.839427 kJ/mol
# GULP energy per Si atom -12398.208451 kJ/mol
# Density = 1.661378 g / cm^3
# Si number density = 16.651679 Si / 1000 Ang^3
#
#
#
# Elastic Constant Matrix: (Units=GPa)
#
#
# Indices 1 2 3 4 5 6 
#
# 1 117.9920 36.3181 57.2778 0.0000 0.0000 0.0000
# 2 36.3181 77.4370 41.3474 0.0000 0.0000 0.0000
# 3 57.2778 41.3474 127.2716 0.0000 0.0000 0.0000
# 4 0.0000 0.0000 0.0000 15.6885 0.0000 0.0000
# 5 0.0000 0.0000 0.0000 0.0000 27.7939 0.0000
# 6 0.0000 0.0000 0.0000 0.0000 0.0000 24.5413
#
#
#
# Elastic Compliance Matrix: (Units=1/GPa)
#
#
# Indices 1 2 3 4 5 6 
#
# 1 0.011453 -0.003169 -0.004125 0.000000 0.000000 0.000000
# 2 -0.003169 0.016501 -0.003935 0.000000 0.000000 0.000000
# 3 -0.004125 -0.003935 0.010992 0.000000 0.000000 0.000000
# 4 0.000000 0.000000 0.000000 0.063741 0.000000 0.000000
# 5 0.000000 0.000000 0.000000 0.000000 0.035979 0.000000
# 6 0.000000 0.000000 0.000000 0.000000 0.000000 0.040748
#
#
# Mechanical properties :
#
#
# Convention : Reuss Voigt Hill
#
# Bulk Modulus (GPa) = 60.64690 65.84303 63.24497
# Shear Modulus (GPa) = 24.11195 26.12190 25.11692
#
# Velocity S-wave (km/s) = 3.80941 3.96501 3.88799
# Velocity P-wave (km/s) = 7.47321 7.78389 7.63013
#
# Compressibility (1/GPa) = 0.01648889
#
# Stress axis : x y z
#
# Youngs Moduli (GPa) = 87.31408 60.60303 90.97712
#
# Poissons Ratio (x) = 0.19205 0.37526
# Poissons Ratio (y) = 0.27670 0.35795
# Poissons Ratio (z) = 0.36015 0.23844
#
# Static dielectric constant tensor:
#      x y z
#    x 3.221410 0.000000 0.000000 
#    y 0.000000 3.002090 0.000000 
#    z 0.000000 0.000000 3.452890 
# 
# 
# High freq. dielectric constant tensor:
#      x y z
#    x 1.654840 0.000000 0.000000 
#    y 0.000000 1.610130 0.000000 
#    z 0.000000 0.000000 1.641840 
# 
# From -- ./inp_files/68241.got.cif
#   From: 2010.03.12/outbox.cif.g09.slc.cpg/sg65_35_cif.got.tgz:68241.got - 2010.04.10 20:52:16.
