data_PCOD8271502
_publ_section_title
;
Structure prediction by ZEFSAII (Michael W. Deem and Ramdas Pophale) SiO2 
 PCOD8271502
Probable space group: C M M M
;
_chemical_formula_sum "Si O2"
_cell_formula_units_Z 104
_cell_length_a 18.269906
_cell_length_b 13.788243
_cell_length_c 22.622566
_cell_angle_alpha 90.000000
_cell_angle_beta 90.000000
_cell_angle_gamma 90.000000
_cell_volume 5698.848418
_symmetry_space_group_name_H-M "C M M M"
_symmetry_group_IT_number 65
_symmetry_cell_setting 'orthorhombic'
loop_
_space_group_symop_operation_xyz
x,y,z
-x,-y,z
x,-y,-z
-x,y,-z
-x,-y,-z
x,y,-z
-x,y,z
x,-y,z
1/2+x,1/2+y,z
1/2-x,1/2-y,z
1/2+x,1/2-y,-z
1/2-x,1/2+y,-z
1/2-x,1/2-y,-z
1/2+x,1/2+y,-z
1/2-x,1/2+y,z
1/2+x,1/2-y,z
loop_
_atom_site_type_symbol
_atom_site_label
_atom_site_fract_x
_atom_site_fract_y
_atom_site_fract_z
Si Si1 0.303209 0.888449 0.346131
Si Si2 0.500000 0.108806 0.070143
Si Si3 0.913623 0.776587 0.340868
Si Si4 0.323750 0.385846 0.566780
Si Si5 0.708382 0.612230 0.881926
Si Si6 0.181575 0.888193 0.745719
Si Si7 0.851098 0.701377 0.931023
O O1 0.378140 0.829437 0.346775
O O2 0.253382 0.859236 0.402424
O O3 0.257059 0.862051 0.287476
O O4 0.326099 0.000000 0.347872
O O5 0.570538 0.166973 0.092849
O O6 0.500000 0.000000 0.096412
O O7 0.500000 0.104466 0.000000
O O8 0.891287 0.838977 0.398103
O O9 0.885599 0.826911 0.280592
O O10 0.000000 0.764768 0.337839
O O11 0.322335 0.346247 0.500000
O O12 0.336466 0.500000 0.568787
O O13 0.692721 0.500000 0.898234
O O14 0.691810 0.635114 0.814093
O O15 0.792289 0.638661 0.894959
O O16 0.656795 0.683034 0.920505
O O17 0.162206 0.000000 0.734491
O O18 0.840418 0.678900 0.000000
#
# Coordination Sequence:
#
# PCOD8271502 Si02
#       7
#    16   8  16  16  16  16  16
#     4   9  19  35  55  76 102 138 181 220 257 308
#     4   9  18  36  57  77 109 145 174 210 262 323
#     4  11  22  33  52  79 109 144 173 214 271 322
#     4   9  18  34  57  82 105 135 179 226 267 312
#     4  10  20  34  55  81 107 138 180 228 269 314
#     4   9  19  36  56  76  98 134 179 220 262 309
#     4  10  21  34  55  84 110 141 178 219 269 325
#
# _framework density 18.249300999999999
#
# number of rings (size 3 to 8) (size 9 to 14) (size 15 to 20)
#    0.000    2.385    0.000    4.615    4.308    4.923 
#    1.385    1.154    0.000    1.385    0.000    3.231 
#    0.000    0.000    0.000    0.000    0.000    0.000 
#
# Total GULP energy -644821.734225 kJ/mol
# GULP energy per Si atom -12400.417966 kJ/mol
# Density = 1.820776 g / cm^3
# Si number density = 18.249301 Si / 1000 Ang^3
#
#
#
# Elastic Constant Matrix: (Units=GPa)
#
#
# Indices 1 2 3 4 5 6 
#
# 1 162.3598 71.2292 41.6013 0.0000 0.0000 0.0000
# 2 71.2292 102.9450 28.5564 0.0000 0.0000 0.0000
# 3 41.6013 28.5564 81.9026 0.0000 0.0000 0.0000
# 4 0.0000 0.0000 0.0000 21.3218 0.0000 0.0000
# 5 0.0000 0.0000 0.0000 0.0000 10.9317 0.0000
# 6 0.0000 0.0000 0.0000 0.0000 0.0000 20.9784
#
#
#
# Elastic Compliance Matrix: (Units=1/GPa)
#
#
# Indices 1 2 3 4 5 6 
#
# 1 0.009379 -0.005721 -0.002769 0.000000 0.000000 0.000000
# 2 -0.005721 0.014244 -0.002060 0.000000 0.000000 0.000000
# 3 -0.002769 -0.002060 0.014334 0.000000 0.000000 0.000000
# 4 0.000000 0.000000 0.000000 0.046900 0.000000 0.000000
# 5 0.000000 0.000000 0.000000 0.000000 0.091477 0.000000
# 6 0.000000 0.000000 0.000000 0.000000 0.000000 0.047668
#
#
# Mechanical properties :
#
#
# Convention : Reuss Voigt Hill
#
# Bulk Modulus (GPa) = 59.32572 69.99788 64.66180
# Shear Modulus (GPa) = 19.94240 24.36776 22.15508
#
# Velocity S-wave (km/s) = 3.30930 3.65810 3.48806
# Velocity P-wave (km/s) = 6.86885 7.50213 7.19246
#
# Compressibility (1/GPa) = 0.01685610
#
# Stress axis : x y z
#
# Youngs Moduli (GPa) = 106.62628 70.20527 69.76184
#
# Poissons Ratio (x) = 0.40165 0.19317
# Poissons Ratio (y) = 0.61001 0.14374
# Poissons Ratio (z) = 0.29525 0.14465
#
# Static dielectric constant tensor:
#      x y z
#    x 3.152060 0.000000 0.000000 
#    y 0.000000 3.495410 0.000000 
#    z 0.000000 0.000000 3.501930 
# 
# 
# High freq. dielectric constant tensor:
#      x y z
#    x 1.682620 0.000000 0.000000 
#    y 0.000000 1.722030 0.000000 
#    z 0.000000 0.000000 1.704540 
# 
# From -- ./inp_files/63814.got.cif
#   From: 2010.03.12/outbox.cif.g09.slc.cpg/sg65_32_cif.got.tgz:63814.got - 2010.04.10 20:52:16.
