data_PCOD8271510
_publ_section_title
;
Structure prediction by ZEFSAII (Michael W. Deem and Ramdas Pophale) SiO2 
 PCOD8271510
Probable space group: C M M M
;
_chemical_formula_sum "Si O2"
_cell_formula_units_Z 72
_cell_length_a 14.888930
_cell_length_b 28.771674
_cell_length_c 8.957416
_cell_angle_alpha 90.000000
_cell_angle_beta 90.000000
_cell_angle_gamma 90.000000
_cell_volume 3837.172851
_symmetry_space_group_name_H-M "C M M M"
_symmetry_group_IT_number 65
_symmetry_cell_setting 'orthorhombic'
loop_
_space_group_symop_operation_xyz
x,y,z
-x,-y,z
x,-y,-z
-x,y,-z
-x,-y,-z
x,y,-z
-x,y,z
x,-y,z
1/2+x,1/2+y,z
1/2-x,1/2-y,z
1/2+x,1/2-y,-z
1/2-x,1/2+y,-z
1/2-x,1/2-y,-z
1/2+x,1/2+y,-z
1/2-x,1/2+y,z
1/2+x,1/2-y,z
loop_
_atom_site_type_symbol
_atom_site_label
_atom_site_fract_x
_atom_site_fract_y
_atom_site_fract_z
Si Si1 0.664293 0.135886 0.326931
Si Si2 0.394577 0.949338 0.163342
Si Si3 0.500000 0.701548 0.822227
Si Si4 0.000000 0.698033 0.320593
Si Si5 0.500000 0.553030 0.324452
Si Si6 0.366281 0.633202 0.322038
O O1 0.668824 0.145004 0.500000
O O2 0.634656 0.083568 0.296531
O O3 0.589842 0.171381 0.261072
O O4 0.764831 0.139277 0.262056
O O5 0.500000 0.954224 0.164516
O O6 0.351338 0.000000 0.192473
O O7 0.363242 0.930504 0.000000
O O8 0.500000 0.752738 0.756247
O O9 0.586836 0.675370 0.761717
O O10 0.500000 0.703241 0.000000
O O11 0.000000 0.701902 0.500000
O O12 0.500000 0.500000 0.254254
O O13 0.500000 0.546874 0.500000
O O14 0.411537 0.583309 0.276537
O O15 0.375082 0.639702 0.500000
#
# Coordination Sequence:
#
# PCOD8271510 Si02
#       6
#    16  16   8   8   8  16
#     4  10  20  34  55  82 108 139 182 229 273 320
#     4   9  18  32  49  71 106 151 187 216 259 312
#     4  11  23  39  58  79 102 136 180 223 270 329
#     4  10  21  37  55  77 108 139 174 224 280 331
#     4   8  14  28  52  79 105 136 175 214 254 307
#     4   9  19  36  57  80 109 142 175 220 275 322
#
# _framework density 18.763815999999998
#
# number of rings (size 3 to 8) (size 9 to 14) (size 15 to 20)
#    0.000    2.556    1.111    2.333    0.000    4.000 
#    0.000    7.778    0.000    5.333    0.000    0.000 
#    0.000    0.000    0.000    0.000    0.000    0.000 
#
# Total GULP energy -445989.734862 kJ/mol
# GULP energy per Si atom -12388.603746 kJ/mol
# Density = 1.872111 g / cm^3
# Si number density = 18.763816 Si / 1000 Ang^3
#
#
#
# Elastic Constant Matrix: (Units=GPa)
#
#
# Indices 1 2 3 4 5 6 
#
# 1 145.4334 86.3797 28.5134 0.0000 0.0000 0.0000
# 2 86.3797 157.5739 31.8569 0.0000 0.0000 0.0000
# 3 28.5134 31.8569 18.8749 0.0000 0.0000 0.0000
# 4 0.0000 0.0000 0.0000 12.8480 0.0000 0.0000
# 5 0.0000 0.0000 0.0000 0.0000 12.0277 0.0000
# 6 0.0000 0.0000 0.0000 0.0000 0.0000 9.0770
#
#
#
# Elastic Compliance Matrix: (Units=1/GPa)
#
#
# Indices 1 2 3 4 5 6 
#
# 1 0.011330 -0.004175 -0.010068 0.000000 0.000000 0.000000
# 2 -0.004175 0.011172 -0.012549 0.000000 0.000000 0.000000
# 3 -0.010068 -0.012549 0.089370 0.000000 0.000000 0.000000
# 4 0.000000 0.000000 0.000000 0.077833 0.000000 0.000000
# 5 0.000000 0.000000 0.000000 0.000000 0.083141 0.000000
# 6 0.000000 0.000000 0.000000 0.000000 0.000000 0.110168
#
#
# Mechanical properties :
#
#
# Convention : Reuss Voigt Hill
#
# Bulk Modulus (GPa) = 17.15649 68.37578 42.76613
# Shear Modulus (GPa) = 10.96423 18.46603 14.71513
#
# Velocity S-wave (km/s) = 2.41991 3.14049 2.80345
# Velocity P-wave (km/s) = 4.11961 7.04766 5.77238
#
# Compressibility (1/GPa) = 0.05828697
#
# Stress axis : x y z
#
# Youngs Moduli (GPa) = 88.26168 89.50904 11.18946
#
# Poissons Ratio (x) = 0.37373 0.11266
# Poissons Ratio (y) = 0.36852 0.14041
# Poissons Ratio (z) = 0.88866 1.12321
#
# Static dielectric constant tensor:
#      x y z
#    x 3.805960 0.000000 0.000000 
#    y 0.000000 3.659660 0.000000 
#    z 0.000000 0.000000 3.216060 
# 
# 
# High freq. dielectric constant tensor:
#      x y z
#    x 1.730670 0.000000 0.000000 
#    y 0.000000 1.731730 0.000000 
#    z 0.000000 0.000000 1.700210 
# 
# From -- ./inp_files/7360.got.cif
#   From: 2010.03.12/outbox.cif.g09.slc.cpg/sg65_4_cif.got.tgz:7360.got - 2010.04.10 20:52:16.
