data_PCOD8271997
_publ_section_title
;
Structure prediction by ZEFSAII (Michael W. Deem and Ramdas Pophale) SiO2 
 PCOD8271997
Probable space group: C M M M
;
_chemical_formula_sum "Si O2"
_cell_formula_units_Z 104
_cell_length_a 8.956609
_cell_length_b 21.199494
_cell_length_c 28.117609
_cell_angle_alpha 90.000000
_cell_angle_beta 90.000000
_cell_angle_gamma 90.000000
_cell_volume 5338.847282
_symmetry_space_group_name_H-M "C M M M"
_symmetry_group_IT_number 65
_symmetry_cell_setting 'orthorhombic'
loop_
_space_group_symop_operation_xyz
x,y,z
-x,-y,z
x,-y,-z
-x,y,-z
-x,-y,-z
x,y,-z
-x,y,z
x,-y,z
1/2+x,1/2+y,z
1/2-x,1/2-y,z
1/2+x,1/2-y,-z
1/2-x,1/2+y,-z
1/2-x,1/2-y,-z
1/2+x,1/2+y,-z
1/2-x,1/2+y,z
1/2+x,1/2-y,z
loop_
_atom_site_type_symbol
_atom_site_label
_atom_site_fract_x
_atom_site_fract_y
_atom_site_fract_z
Si Si1 0.175736 0.814511 0.609259
Si Si2 0.330645 0.500000 0.055686
Si Si3 0.176177 0.399518 0.117048
Si Si4 0.327826 0.928524 0.555766
Si Si5 0.827720 0.813612 0.948711
Si Si6 0.324870 0.313891 0.281460
Si Si7 0.826302 0.071235 0.215863
O O1 0.250000 0.750000 0.589118
O O2 0.228510 0.876762 0.582001
O O3 0.222754 0.823616 0.664006
O O4 0.000000 0.807671 0.602529
O O5 0.500000 0.500000 0.075221
O O6 0.244803 0.440238 0.074886
O O7 0.326446 0.500000 0.000000
O O8 0.234850 0.332948 0.098687
O O9 0.234941 0.419848 0.168029
O O10 0.000000 0.404745 0.118292
O O11 0.302033 0.920075 0.500000
O O12 0.500000 0.917055 0.569031
O O13 0.280908 0.000000 0.570893
O O14 0.750000 0.750000 0.962620
O O15 0.000000 0.807671 0.933245
O O16 0.819002 0.852274 0.000000
O O17 0.500000 0.304830 0.276058
O O18 0.250000 0.250000 0.260782
O O19 0.270011 0.376445 0.253596
O O20 0.000000 0.081009 0.204612
O O21 0.797569 0.000000 0.235600
#
# Coordination Sequence:
#
# PCOD8271997 Si02
#       7
#    16   8  16  16  16  16  16
#     4  10  20  35  57  85 117 151 195 246 296 352
#     4  11  23  39  59  81 107 143 183 221 268 325
#     4  12  24  37  56  83 113 142 178 223 271 326
#     4   9  19  36  56  80 115 158 201 245 297 356
#     4  10  21  38  59  82 109 142 180 220 265 321
#     4   9  20  38  60  86 113 148 191 238 294 350
#     4  10  21  39  61  81 110 150 190 233 285 343
#
# _framework density 19.479861
#
# number of rings (size 3 to 8) (size 9 to 14) (size 15 to 20)
#    0.000    1.923    0.769    3.462    0.000    6.769 
#    0.000    3.846    0.000    0.000    0.000    0.000 
#    0.000    0.000    0.000    0.000    0.000    0.000 
#
# Total GULP energy -644360.256045 kJ/mol
# GULP energy per Si atom -12391.543385 kJ/mol
# Density = 1.943552 g / cm^3
# Si number density = 19.479861 Si / 1000 Ang^3
#
#
#
# Elastic Constant Matrix: (Units=GPa)
#
#
# Indices 1 2 3 4 5 6 
#
# 1 101.3316 58.3613 45.6735 0.0000 0.0000 0.0000
# 2 58.3613 142.7387 61.2580 0.0000 0.0000 0.0000
# 3 45.6735 61.2580 65.8507 0.0000 0.0000 0.0000
# 4 0.0000 0.0000 0.0000 46.1461 0.0000 0.0000
# 5 0.0000 0.0000 0.0000 0.0000 19.4579 0.0000
# 6 0.0000 0.0000 0.0000 0.0000 0.0000 36.2600
#
#
#
# Elastic Compliance Matrix: (Units=1/GPa)
#
#
# Indices 1 2 3 4 5 6 
#
# 1 0.014989 -0.002775 -0.007815 0.000000 0.000000 0.000000
# 2 -0.002775 0.012175 -0.009401 0.000000 0.000000 0.000000
# 3 -0.007815 -0.009401 0.029352 0.000000 0.000000 0.000000
# 4 0.000000 0.000000 0.000000 0.021670 0.000000 0.000000
# 5 0.000000 0.000000 0.000000 0.000000 0.051393 0.000000
# 6 0.000000 0.000000 0.000000 0.000000 0.000000 0.027579
#
#
# Mechanical properties :
#
#
# Convention : Reuss Voigt Hill
#
# Bulk Modulus (GPa) = 60.48221 71.16741 65.82481
# Shear Modulus (GPa) = 24.67281 30.01468 27.34375
#
# Velocity S-wave (km/s) = 3.56277 3.92957 3.75065
# Velocity P-wave (km/s) = 6.93112 7.56319 7.25404
#
# Compressibility (1/GPa) = 0.01653379
#
# Stress axis : x y z
#
# Youngs Moduli (GPa) = 66.71464 82.13567 34.06891
#
# Poissons Ratio (x) = 0.22789 0.26626
# Poissons Ratio (y) = 0.18510 0.32030
# Poissons Ratio (z) = 0.52140 0.77219
#
# Static dielectric constant tensor:
#      x y z
#    x 3.539980 0.000000 0.000000 
#    y 0.000000 3.869550 0.000000 
#    z 0.000000 0.000000 3.466900 
# 
# 
# High freq. dielectric constant tensor:
#      x y z
#    x 1.758690 0.000000 0.000000 
#    y 0.000000 1.770160 0.000000 
#    z 0.000000 0.000000 1.750520 
# 
# From -- ./inp_files/73331.got.cif
#   From: 2010.03.12/outbox.cif.g09.slc.cpg/sg65_37_cif.got.tgz:73331.got - 2010.04.10 20:52:16.
