data_PCOD8271795
_publ_section_title
;
Structure prediction by ZEFSAII (Michael W. Deem and Ramdas Pophale) SiO2 
 PCOD8271795
Probable space group: C M M M
;
_chemical_formula_sum "Si O2"
_cell_formula_units_Z 88
_cell_length_a 13.472572
_cell_length_b 23.864070
_cell_length_c 14.079622
_cell_angle_alpha 90.000000
_cell_angle_beta 90.000000
_cell_angle_gamma 90.000000
_cell_volume 4526.744919
_symmetry_space_group_name_H-M "C M M M"
_symmetry_group_IT_number 65
_symmetry_cell_setting 'orthorhombic'
loop_
_space_group_symop_operation_xyz
x,y,z
-x,-y,z
x,-y,-z
-x,y,-z
-x,-y,-z
x,y,-z
-x,y,z
x,-y,z
1/2+x,1/2+y,z
1/2-x,1/2-y,z
1/2+x,1/2-y,-z
1/2-x,1/2+y,-z
1/2-x,1/2-y,-z
1/2+x,1/2+y,-z
1/2-x,1/2+y,z
1/2+x,1/2-y,z
loop_
_atom_site_type_symbol
_atom_site_label
_atom_site_fract_x
_atom_site_fract_y
_atom_site_fract_z
Si Si1 0.884895 0.865166 0.269939
Si Si2 0.117873 0.663844 0.789604
Si Si3 0.250017 0.564657 0.829694
Si Si4 0.882630 0.224018 0.891585
Si Si5 0.890567 0.065009 0.000000
Si Si6 0.761310 0.684779 0.395789
O O1 0.818487 0.921953 0.262171
O O2 0.851942 0.825028 0.181576
O O3 0.849009 0.836677 0.367070
O O4 0.000000 0.879566 0.273123
O O5 0.153717 0.604691 0.834791
O O6 0.159654 0.716109 0.852749
O O7 0.156335 0.667519 0.681455
O O8 0.000000 0.663739 0.787538
O O9 0.215472 0.500000 0.833663
O O10 0.326717 0.582565 0.910883
O O11 0.000000 0.229097 0.891225
O O12 0.844491 0.212575 0.000000
O O13 0.000000 0.095789 0.000000
O O14 0.912201 0.000000 0.000000
O O15 0.790378 0.660451 0.500000
O O16 0.750000 0.750000 0.403026
#
# Coordination Sequence:
#
# PCOD8271795 Si02
#       6
#    16  16  16  16   8  16
#     4  10  20  35  56  82 113 146 184 227 278 339
#     4  10  21  38  58  81 113 150 191 234 277 333
#     4  10  22  36  53  80 111 149 194 235 274 321
#     4   9  18  32  52  80 112 147 184 220 269 329
#     4   9  18  34  53  76 109 147 191 235 274 321
#     4  10  20  35  55  83 116 144 176 226 287 344
#
# _framework density 19.440017000000001
#
# number of rings (size 3 to 8) (size 9 to 14) (size 15 to 20)
#    0.000    2.273    1.818    0.545    2.545    2.182 
#    0.000    5.455    0.000   10.364    0.000   10.182 
#    0.000    0.000    0.000    0.000    0.000    0.000 
#
# Total GULP energy -545171.423682 kJ/mol
# GULP energy per Si atom -12390.259629 kJ/mol
# Density = 1.939577 g / cm^3
# Si number density = 19.440017 Si / 1000 Ang^3
#
#
#
# Elastic Constant Matrix: (Units=GPa)
#
#
# Indices 1 2 3 4 5 6 
#
# 1 57.4975 14.2824 13.6970 0.0000 0.0000 0.0000
# 2 14.2824 87.5039 25.3280 0.0000 0.0000 0.0000
# 3 13.6970 25.3280 112.4800 0.0000 0.0000 0.0000
# 4 0.0000 0.0000 0.0000 24.3301 0.0000 0.0000
# 5 0.0000 0.0000 0.0000 0.0000 34.9922 0.0000
# 6 0.0000 0.0000 0.0000 0.0000 0.0000 24.4114
#
#
#
# Elastic Compliance Matrix: (Units=1/GPa)
#
#
# Indices 1 2 3 4 5 6 
#
# 1 0.018417 -0.002521 -0.001675 0.000000 0.000000 0.000000
# 2 -0.002521 0.012570 -0.002523 0.000000 0.000000 0.000000
# 3 -0.001675 -0.002523 0.009663 0.000000 0.000000 0.000000
# 4 0.000000 0.000000 0.000000 0.041101 0.000000 0.000000
# 5 0.000000 0.000000 0.000000 0.000000 0.028578 0.000000
# 6 0.000000 0.000000 0.000000 0.000000 0.000000 0.040964
#
#
# Mechanical properties :
#
#
# Convention : Reuss Voigt Hill
#
# Bulk Modulus (GPa) = 36.75042 40.45515 38.60278
# Shear Modulus (GPa) = 28.76817 30.35834 29.56325
#
# Velocity S-wave (km/s) = 3.85105 3.95605 3.90390
# Velocity P-wave (km/s) = 6.22251 6.45930 6.34201
#
# Compressibility (1/GPa) = 0.02721057
#
# Stress axis : x y z
#
# Youngs Moduli (GPa) = 54.29663 79.55451 103.49108
#
# Poissons Ratio (x) = 0.20058 0.17335
# Poissons Ratio (y) = 0.13690 0.26116
# Poissons Ratio (z) = 0.09095 0.20075
#
# Static dielectric constant tensor:
#      x y z
#    x 3.516320 0.000000 0.000000 
#    y 0.000000 3.490020 0.000000 
#    z 0.000000 0.000000 3.999570 
# 
# 
# High freq. dielectric constant tensor:
#      x y z
#    x 1.760750 0.000000 0.000000 
#    y 0.000000 1.748140 0.000000 
#    z 0.000000 0.000000 1.741640 
# 
# From -- ./inp_files/40606.got.cif
#   From: 2010.03.12/outbox.cif.g09.slc.cpg/sg65_21_cif.got.tgz:40606.got - 2010.04.10 20:52:16.
