data_PCOD8271431
_publ_section_title
;
Structure prediction by ZEFSAII (Michael W. Deem and Ramdas Pophale) SiO2 
 PCOD8271431
Probable space group: C M M M
;
_chemical_formula_sum "Si O2"
_cell_formula_units_Z 88
_cell_length_a 23.025750
_cell_length_b 25.485283
_cell_length_c 7.596178
_cell_angle_alpha 90.000000
_cell_angle_beta 90.000000
_cell_angle_gamma 90.000000
_cell_volume 4457.572121
_symmetry_space_group_name_H-M "C M M M"
_symmetry_group_IT_number 65
_symmetry_cell_setting 'orthorhombic'
loop_
_space_group_symop_operation_xyz
x,y,z
-x,-y,z
x,-y,-z
-x,y,-z
-x,-y,-z
x,y,-z
-x,y,z
x,-y,z
1/2+x,1/2+y,z
1/2-x,1/2-y,z
1/2+x,1/2-y,-z
1/2-x,1/2+y,-z
1/2-x,1/2-y,-z
1/2+x,1/2+y,-z
1/2-x,1/2+y,z
1/2+x,1/2-y,z
loop_
_atom_site_type_symbol
_atom_site_label
_atom_site_fract_x
_atom_site_fract_y
_atom_site_fract_z
Si Si1 0.329121 0.061892 0.500000
Si Si2 0.770859 0.376416 0.200676
Si Si3 0.874477 0.703933 0.200561
Si Si4 0.661264 0.315660 0.195274
Si Si5 0.934466 0.111364 0.301176
Si Si6 0.931166 0.000000 0.196956
Si Si7 0.066854 0.643000 0.500000
O O1 0.291609 0.076265 0.673720
O O2 0.390871 0.092335 0.500000
O O3 0.341981 0.000000 0.500000
O O4 0.818398 0.331699 0.201666
O O5 0.712808 0.349561 0.284729
O O6 0.760960 0.397572 0.000000
O O7 0.854749 0.760016 0.283914
O O8 0.923058 0.678386 0.325974
O O9 0.899072 0.709723 0.000000
O O10 0.603436 0.350405 0.183317
O O11 0.683662 0.302419 0.000000
O O12 0.931760 0.131734 0.500000
O O13 0.000000 0.112790 0.226710
O O14 0.908747 0.052264 0.293564
O O15 0.000000 0.000000 0.202127
O O16 0.906555 0.000000 0.000000
O O17 0.000000 0.623764 0.500000
#
# Coordination Sequence:
#
# PCOD8271431 Si02
#       7
#     8  16  16  16  16   8   8
#     4  10  22  40  61  85 114 151 190 235 293 345
#     4   9  19  37  59  84 112 144 185 232 282 337
#     4   9  19  36  58  83 115 149 181 226 280 334
#     4  10  20  34  54  81 109 143 186 226 271 333
#     4  10  21  34  48  69 100 137 177 223 269 315
#     4   9  17  33  53  65  83 125 177 221 261 306
#     4  10  22  38  59  87 117 151 192 233 281 345
#
# _framework density 19.741686999999999
#
# number of rings (size 3 to 8) (size 9 to 14) (size 15 to 20)
#    0.000    2.455    0.000    1.364    2.545    6.000 
#    1.636    4.545    0.000    0.000    0.000    5.091 
#    0.000    0.000    0.000    0.000    0.000    0.000 
#
# Total GULP energy -545349.377589 kJ/mol
# GULP energy per Si atom -12394.304036 kJ/mol
# Density = 1.969675 g / cm^3
# Si number density = 19.741687 Si / 1000 Ang^3
#
#
#
# Elastic Constant Matrix: (Units=GPa)
#
#
# Indices 1 2 3 4 5 6 
#
# 1 79.2214 40.6231 31.4555 0.0000 0.0000 0.0000
# 2 40.6231 119.5614 38.7693 0.0000 0.0000 0.0000
# 3 31.4555 38.7693 87.3010 0.0000 0.0000 0.0000
# 4 0.0000 0.0000 0.0000 24.5556 0.0000 0.0000
# 5 0.0000 0.0000 0.0000 0.0000 21.3734 0.0000
# 6 0.0000 0.0000 0.0000 0.0000 0.0000 12.9992
#
#
#
# Elastic Compliance Matrix: (Units=1/GPa)
#
#
# Indices 1 2 3 4 5 6 
#
# 1 0.016408 -0.004273 -0.004014 0.000000 0.000000 0.000000
# 2 -0.004273 0.010884 -0.003294 0.000000 0.000000 0.000000
# 3 -0.004014 -0.003294 0.014364 0.000000 0.000000 0.000000
# 4 0.000000 0.000000 0.000000 0.040724 0.000000 0.000000
# 5 0.000000 0.000000 0.000000 0.000000 0.046787 0.000000
# 6 0.000000 0.000000 0.000000 0.000000 0.000000 0.076928
#
#
# Mechanical properties :
#
#
# Convention : Reuss Voigt Hill
#
# Bulk Modulus (GPa) = 54.07417 56.41995 55.24706
# Shear Modulus (GPa) = 21.23851 23.46802 22.35326
#
# Velocity S-wave (km/s) = 3.28353 3.45157 3.36860
# Velocity P-wave (km/s) = 6.46728 6.67275 6.57082
#
# Compressibility (1/GPa) = 0.01849312
#
# Stress axis : x y z
#
# Youngs Moduli (GPa) = 60.94597 91.87941 69.61995
#
# Poissons Ratio (x) = 0.39262 0.27947
# Poissons Ratio (y) = 0.26044 0.22931
# Poissons Ratio (z) = 0.24465 0.30262
#
# Static dielectric constant tensor:
#      x y z
#    x 3.373520 0.000000 0.000000 
#    y 0.000000 3.538100 0.000000 
#    z 0.000000 0.000000 3.857260 
# 
# 
# High freq. dielectric constant tensor:
#      x y z
#    x 1.749830 0.000000 0.000000 
#    y 0.000000 1.761240 0.000000 
#    z 0.000000 0.000000 1.770300 
# 
# From -- ./inp_files/11886.got.cif
#   From: 2010.03.12/outbox.cif.g09.slc.cpg/sg65_6_cif.got.tgz:11886.got - 2010.04.10 20:52:16.
