data_PCOD8271422
_publ_section_title
;
Structure prediction by ZEFSAII (Michael W. Deem and Ramdas Pophale) SiO2 
 PCOD8271422
Probable space group: C M M M
;
_chemical_formula_sum "Si O2"
_cell_formula_units_Z 104
_cell_length_a 8.761276
_cell_length_b 28.394974
_cell_length_c 22.919457
_cell_angle_alpha 90.000000
_cell_angle_beta 90.000000
_cell_angle_gamma 90.000000
_cell_volume 5701.815515
_symmetry_space_group_name_H-M "C M M M"
_symmetry_group_IT_number 65
_symmetry_cell_setting 'orthorhombic'
loop_
_space_group_symop_operation_xyz
x,y,z
-x,-y,z
x,-y,-z
-x,y,-z
-x,-y,-z
x,y,-z
-x,y,z
x,-y,z
1/2+x,1/2+y,z
1/2-x,1/2-y,z
1/2+x,1/2-y,-z
1/2-x,1/2+y,-z
1/2-x,1/2-y,-z
1/2+x,1/2+y,-z
1/2-x,1/2+y,z
1/2+x,1/2-y,z
loop_
_atom_site_type_symbol
_atom_site_label
_atom_site_fract_x
_atom_site_fract_y
_atom_site_fract_z
Si Si1 0.820307 0.944896 0.000000
Si Si2 0.818483 0.607584 0.890395
Si Si3 0.181275 0.552503 0.223280
Si Si4 0.179334 0.798836 0.715542
Si Si5 0.676294 0.446137 0.432768
Si Si6 0.679298 0.889109 0.666893
Si Si7 0.180552 0.200529 0.849293
O O1 0.746458 0.921362 0.943929
O O2 0.000000 0.935997 0.000000
O O3 0.779893 0.000000 0.000000
O O4 0.760023 0.581479 0.832241
O O5 0.751765 0.660267 0.890166
O O6 0.000000 0.609801 0.894468
O O7 0.250543 0.500000 0.220561
O O8 0.242106 0.577078 0.281915
O O9 0.000000 0.550341 0.223461
O O10 0.250000 0.750000 0.693899
O O11 0.240918 0.838804 0.672644
O O12 0.229057 0.809343 0.782270
O O13 0.000000 0.795299 0.709821
O O14 0.706058 0.433674 0.500000
O O15 0.500000 0.438281 0.416605
O O16 0.723627 0.500000 0.420215
O O17 0.780728 0.411716 0.395049
O O18 0.500000 0.881643 0.672138
O O19 0.250000 0.250000 0.870401
O O20 0.000000 0.201795 0.857193
#
# Coordination Sequence:
#
# PCOD8271422 Si02
#       7
#     8  16  16  16  16  16  16
#     4  11  25  43  60  81 112 149 191 235 277 327
#     4  11  21  37  60  83 111 147 188 229 277 334
#     4   9  18  31  49  77 111 142 175 222 274 323
#     4  10  20  34  54  80 113 148 185 225 274 332
#     4   9  19  36  55  76 108 151 194 233 275 326
#     4  11  20  32  53  82 115 145 182 229 280 331
#     4  10  20  35  57  84 115 147 183 226 277 332
#
# _framework density 18.239803999999999
#
# number of rings (size 3 to 8) (size 9 to 14) (size 15 to 20)
#    0.000    1.923    1.538    3.462    0.000    3.692 
#    0.000    1.154    0.000    4.154    0.000    0.000 
#    0.000    0.000    0.000    0.000    0.000    0.000 
#
# Total GULP energy -645011.928390 kJ/mol
# GULP energy per Si atom -12404.075546 kJ/mol
# Density = 1.819829 g / cm^3
# Si number density = 18.239804 Si / 1000 Ang^3
#
#
#
# Elastic Constant Matrix: (Units=GPa)
#
#
# Indices 1 2 3 4 5 6 
#
# 1 74.7307 51.6406 34.5952 0.0000 0.0000 0.0000
# 2 51.6406 153.2712 59.0564 0.0000 0.0000 0.0000
# 3 34.5952 59.0564 93.1981 0.0000 0.0000 0.0000
# 4 0.0000 0.0000 0.0000 23.7317 0.0000 0.0000
# 5 0.0000 0.0000 0.0000 0.0000 28.1838 0.0000
# 6 0.0000 0.0000 0.0000 0.0000 0.0000 31.0919
#
#
#
# Elastic Compliance Matrix: (Units=1/GPa)
#
#
# Indices 1 2 3 4 5 6 
#
# 1 0.018428 -0.004727 -0.003845 0.000000 0.000000 0.000000
# 2 -0.004727 0.009845 -0.004483 0.000000 0.000000 0.000000
# 3 -0.003845 -0.004483 0.014998 0.000000 0.000000 0.000000
# 4 0.000000 0.000000 0.000000 0.042138 0.000000 0.000000
# 5 0.000000 0.000000 0.000000 0.000000 0.035481 0.000000
# 6 0.000000 0.000000 0.000000 0.000000 0.000000 0.032163
#
#
# Mechanical properties :
#
#
# Convention : Reuss Voigt Hill
#
# Bulk Modulus (GPa) = 58.27734 67.97605 63.12669
# Shear Modulus (GPa) = 27.04402 28.32866 27.68634
#
# Velocity S-wave (km/s) = 3.85475 3.94524 3.90026
# Velocity P-wave (km/s) = 7.19945 7.62248 7.41398
#
# Compressibility (1/GPa) = 0.01715933
#
# Stress axis : x y z
#
# Youngs Moduli (GPa) = 54.26510 101.57836 66.67530
#
# Poissons Ratio (x) = 0.48020 0.25636
# Poissons Ratio (y) = 0.25653 0.29893
# Poissons Ratio (z) = 0.20865 0.45542
#
# Static dielectric constant tensor:
#      x y z
#    x 3.229270 0.000000 0.000000 
#    y 0.000000 3.475840 0.000000 
#    z 0.000000 0.000000 3.243720 
# 
# 
# High freq. dielectric constant tensor:
#      x y z
#    x 1.704790 0.000000 0.000000 
#    y 0.000000 1.717460 0.000000 
#    z 0.000000 0.000000 1.689770 
# 
# From -- ./inp_files/60915.got.cif
#   From: 2010.03.12/outbox.cif.g09.slc.cpg/sg65_31_cif.got.tgz:60915.got - 2010.04.10 20:52:16.
