data_PCOD8271036
_publ_section_title
;
Structure prediction by ZEFSAII (Michael W. Deem and Ramdas Pophale) SiO2 
 PCOD8271036
Probable space group: C M M M
;
_chemical_formula_sum "Si O2"
_cell_formula_units_Z 104
_cell_length_a 8.930114
_cell_length_b 30.455997
_cell_length_c 23.102935
_cell_angle_alpha 90.000000
_cell_angle_beta 90.000000
_cell_angle_gamma 90.000000
_cell_volume 6283.432880
_symmetry_space_group_name_H-M "C M M M"
_symmetry_group_IT_number 65
_symmetry_cell_setting 'orthorhombic'
loop_
_space_group_symop_operation_xyz
x,y,z
-x,-y,z
x,-y,-z
-x,y,-z
-x,-y,-z
x,y,-z
-x,y,z
x,-y,z
1/2+x,1/2+y,z
1/2-x,1/2-y,z
1/2+x,1/2-y,-z
1/2-x,1/2+y,-z
1/2-x,1/2-y,-z
1/2+x,1/2+y,-z
1/2-x,1/2+y,z
1/2+x,1/2-y,z
loop_
_atom_site_type_symbol
_atom_site_label
_atom_site_fract_x
_atom_site_fract_y
_atom_site_fract_z
Si Si1 0.665626 0.500000 0.432384
Si Si2 0.825778 0.173059 0.435021
Si Si3 0.822093 0.705954 0.321843
Si Si4 0.333040 0.884929 0.727942
Si Si5 0.333194 0.551988 0.938823
Si Si6 0.678416 0.450227 0.814132
Si Si7 0.668605 0.087338 0.402416
O O1 0.500000 0.500000 0.403291
O O2 0.645438 0.500000 0.500000
O O3 0.760107 0.459090 0.412673
O O4 0.799745 0.191956 0.500000
O O5 0.734716 0.200980 0.387901
O O6 0.769856 0.123062 0.434454
O O7 0.000000 0.174293 0.418314
O O8 0.750000 0.750000 0.295044
O O9 0.773403 0.665187 0.280682
O O10 0.000000 0.709454 0.324472
O O11 0.500000 0.884452 0.754611
O O12 0.227797 0.913854 0.768416
O O13 0.334848 0.906690 0.665780
O O14 0.500000 0.572003 0.940303
O O15 0.344122 0.500000 0.937797
O O16 0.256178 0.565216 0.877529
O O17 0.251865 0.566836 0.000000
O O18 0.500000 0.450754 0.816755
O O19 0.734769 0.500000 0.798405
O O20 0.500000 0.089656 0.427557
#
# Coordination Sequence:
#
# PCOD8271036 Si02
#       7
#     8  16  16  16  16  16  16
#     4  11  23  35  47  65  87 113 150 195 240 283
#     4  10  20  34  52  73  95 117 143 180 229 283
#     4  10  21  37  55  73  92 118 152 189 235 288
#     4   9  20  35  48  66  93 123 152 186 232 280
#     4   7  10  19  36  59  90 125 159 196 231 259
#     4   9  17  27  43  70  97 126 166 200 226 262
#     4  10  21  35  49  65  87 119 156 192 232 279
#
# _framework density 16.551461
#
# number of rings (size 3 to 8) (size 9 to 14) (size 15 to 20)
#    0.000    2.692    0.000    4.385    1.077    8.000 
#    0.000    0.000    0.000    0.462    0.000    2.154 
#    0.000    0.615    0.000    1.385    0.000    2.154 
#
# Total GULP energy -644180.891223 kJ/mol
# GULP energy per Si atom -12388.094062 kJ/mol
# Density = 1.651379 g / cm^3
# Si number density = 16.551461 Si / 1000 Ang^3
#
#
#
# Elastic Constant Matrix: (Units=GPa)
#
#
# Indices 1 2 3 4 5 6 
#
# 1 61.4250 29.6646 32.7014 0.0000 0.0000 0.0000
# 2 29.6646 99.9225 40.6224 0.0000 0.0000 0.0000
# 3 32.7014 40.6224 73.4702 0.0000 0.0000 0.0000
# 4 0.0000 0.0000 0.0000 9.7375 0.0000 0.0000
# 5 0.0000 0.0000 0.0000 0.0000 -10.4332 0.0000
# 6 0.0000 0.0000 0.0000 0.0000 0.0000 26.5749
#
#
#
# Elastic Compliance Matrix: (Units=1/GPa)
#
#
# Indices 1 2 3 4 5 6 
#
# 1 0.022155 -0.003313 -0.008029 0.000000 0.000000 0.000000
# 2 -0.003313 0.013405 -0.005937 0.000000 0.000000 0.000000
# 3 -0.008029 -0.005937 0.020467 0.000000 0.000000 0.000000
# 4 0.000000 0.000000 0.000000 0.102696 0.000000 0.000000
# 5 0.000000 0.000000 0.000000 0.000000 -0.095848 0.000000
# 6 0.000000 0.000000 0.000000 0.000000 0.000000 0.037629
#
#
# Mechanical properties :
#
#
# Convention : Reuss Voigt Hill
#
# Bulk Modulus (GPa) = 46.58015 48.97719 47.77867
# Shear Modulus (GPa) = 35.15702 13.96446 24.56074
#
# Velocity S-wave (km/s) = 4.61380 2.90780 3.85632
# Velocity P-wave (km/s) = 7.52241 6.39757 6.98267
#
# Compressibility (1/GPa) = 0.02146837
#
# Stress axis : x y z
#
# Youngs Moduli (GPa) = 45.13743 74.59908 48.85813
#
# Poissons Ratio (x) = 0.24715 0.39229
# Poissons Ratio (y) = 0.14954 0.29008
# Poissons Ratio (z) = 0.36242 0.44291
#
# Static dielectric constant tensor:
#      x y z
#    x 3.202670 0.000000 0.000000 
#    y 0.000000 2.958500 0.000000 
#    z 0.000000 0.000000 3.400630 
# 
# 
# High freq. dielectric constant tensor:
#      x y z
#    x 1.629340 0.000000 0.000000 
#    y 0.000000 1.616780 0.000000 
#    z 0.000000 0.000000 1.625470 
# 
# From -- ./inp_files/68576.got.cif
#   From: 2010.03.12/outbox.cif.g09.slc.cpg/sg65_35_cif.got.tgz:68576.got - 2010.04.10 20:52:16.
