data_PCOD8271864
_publ_section_title
;
Structure prediction by ZEFSAII (Michael W. Deem and Ramdas Pophale) SiO2 
 PCOD8271864
Probable space group: C M M M
;
_chemical_formula_sum "Si O2"
_cell_formula_units_Z 72
_cell_length_a 8.954130
_cell_length_b 15.872116
_cell_length_c 25.037484
_cell_angle_alpha 90.000000
_cell_angle_beta 90.000000
_cell_angle_gamma 90.000000
_cell_volume 3558.352014
_symmetry_space_group_name_H-M "C M M M"
_symmetry_group_IT_number 65
_symmetry_cell_setting 'orthorhombic'
loop_
_space_group_symop_operation_xyz
x,y,z
-x,-y,z
x,-y,-z
-x,y,-z
-x,-y,-z
x,y,-z
-x,y,z
x,-y,z
1/2+x,1/2+y,z
1/2-x,1/2-y,z
1/2+x,1/2-y,-z
1/2-x,1/2+y,-z
1/2-x,1/2-y,-z
1/2+x,1/2+y,-z
1/2-x,1/2+y,z
1/2+x,1/2-y,z
loop_
_atom_site_type_symbol
_atom_site_label
_atom_site_fract_x
_atom_site_fract_y
_atom_site_fract_z
Si Si1 0.676029 0.839523 0.942317
Si Si2 0.822699 0.336748 0.375182
Si Si3 0.164542 0.402923 0.168736
Si Si4 0.822564 0.500000 0.439760
Si Si5 0.328935 0.599927 0.271874
O O1 0.500000 0.828585 0.939786
O O2 0.750000 0.750000 0.937674
O O3 0.731817 0.892398 0.891098
O O4 0.719945 0.881527 0.000000
O O5 0.750000 0.250000 0.396887
O O6 0.764021 0.415346 0.410713
O O7 0.772820 0.352543 0.314620
O O8 0.000000 0.328244 0.377900
O O9 0.146093 0.500000 0.180650
O O10 0.276193 0.366623 0.213584
O O11 0.000000 0.360075 0.173517
O O12 0.760275 0.500000 0.500000
O O13 0.000000 0.500000 0.438864
O O14 0.500000 0.626716 0.280043
O O15 0.308571 0.500000 0.278133
#
# Coordination Sequence:
#
# PCOD8271864 Si02
#       5
#    16  16  16   8  16
#     4   9  18  32  49  69  95 130 171 218 272 330
#     4  11  22  38  62  91 122 159 201 243 290 346
#     4   9  18  32  51  75 103 137 178 223 275 335
#     4   9  20  40  65  91 123 163 200 239 290 343
#     4  10  20  35  56  81 113 149 188 236 289 344
#
# _framework density 20.234086000000001
#
# number of rings (size 3 to 8) (size 9 to 14) (size 15 to 20)
#    0.000    2.333    1.111    1.333    0.000    3.556 
#    0.000    4.444    0.000    4.667    0.000    6.222 
#    0.000    0.000    0.000    0.000    0.000    0.000 
#
# Total GULP energy -446158.161155 kJ/mol
# GULP energy per Si atom -12393.282254 kJ/mol
# Density = 2.018803 g / cm^3
# Si number density = 20.234086 Si / 1000 Ang^3
#
#
#
# Elastic Constant Matrix: (Units=GPa)
#
#
# Indices 1 2 3 4 5 6 
#
# 1 60.2088 34.9089 38.2506 0.0000 0.0000 0.0000
# 2 34.9089 88.1423 54.2852 0.0000 0.0000 0.0000
# 3 38.2506 54.2852 157.5109 0.0000 0.0000 0.0000
# 4 0.0000 0.0000 0.0000 24.2712 0.0000 0.0000
# 5 0.0000 0.0000 0.0000 0.0000 17.1720 0.0000
# 6 0.0000 0.0000 0.0000 0.0000 0.0000 27.8754
#
#
#
# Elastic Compliance Matrix: (Units=1/GPa)
#
#
# Indices 1 2 3 4 5 6 
#
# 1 0.022665 -0.007092 -0.003060 0.000000 0.000000 0.000000
# 2 -0.007092 0.016621 -0.004006 0.000000 0.000000 0.000000
# 3 -0.003060 -0.004006 0.008473 0.000000 0.000000 0.000000
# 4 0.000000 0.000000 0.000000 0.041201 0.000000 0.000000
# 5 0.000000 0.000000 0.000000 0.000000 0.058234 0.000000
# 6 0.000000 0.000000 0.000000 0.000000 0.000000 0.035874
#
#
# Mechanical properties :
#
#
# Convention : Reuss Voigt Hill
#
# Bulk Modulus (GPa) = 51.43316 62.30573 56.86944
# Shear Modulus (GPa) = 22.95002 25.75821 24.35411
#
# Velocity S-wave (km/s) = 3.37148 3.57180 3.47308
# Velocity P-wave (km/s) = 6.37417 6.91879 6.65206
#
# Compressibility (1/GPa) = 0.01944271
#
# Stress axis : x y z
#
# Youngs Moduli (GPa) = 44.12168 60.16339 118.02830
#
# Poissons Ratio (x) = 0.42667 0.36114
# Poissons Ratio (y) = 0.31291 0.47285
# Poissons Ratio (z) = 0.13500 0.24103
#
# Static dielectric constant tensor:
#      x y z
#    x 3.574740 0.000000 0.000000 
#    y 0.000000 3.569080 0.000000 
#    z 0.000000 0.000000 4.051490 
# 
# 
# High freq. dielectric constant tensor:
#      x y z
#    x 1.773950 0.000000 0.000000 
#    y 0.000000 1.773010 0.000000 
#    z 0.000000 0.000000 1.802270 
# 
# From -- ./inp_files/72525.got.cif
#   From: 2010.03.12/outbox.cif.g09.slc.cpg/sg65_37_cif.got.tgz:72525.got - 2010.04.10 20:52:16.
