data_PCOD8271743
_publ_section_title
;
Structure prediction by ZEFSAII (Michael W. Deem and Ramdas Pophale) SiO2 
 PCOD8271743
Probable space group: C M M M
;
_chemical_formula_sum "Si O2"
_cell_formula_units_Z 104
_cell_length_a 19.726300
_cell_length_b 8.939470
_cell_length_c 32.374814
_cell_angle_alpha 90.000000
_cell_angle_beta 90.000000
_cell_angle_gamma 90.000000
_cell_volume 5709.061046
_symmetry_space_group_name_H-M "C M M M"
_symmetry_group_IT_number 65
_symmetry_cell_setting 'orthorhombic'
loop_
_space_group_symop_operation_xyz
x,y,z
-x,-y,z
x,-y,-z
-x,y,-z
-x,-y,-z
x,y,-z
-x,y,z
x,-y,z
1/2+x,1/2+y,z
1/2-x,1/2-y,z
1/2+x,1/2-y,-z
1/2-x,1/2+y,-z
1/2-x,1/2-y,-z
1/2+x,1/2+y,-z
1/2-x,1/2+y,z
1/2+x,1/2-y,z
loop_
_atom_site_type_symbol
_atom_site_label
_atom_site_fract_x
_atom_site_fract_y
_atom_site_fract_z
Si Si1 0.920732 0.174050 0.693225
Si Si2 0.919393 0.168841 0.000000
Si Si3 0.818686 0.675175 0.150394
Si Si4 0.077024 0.323721 0.082252
Si Si5 0.819348 0.173409 0.548469
Si Si6 0.179823 0.676822 0.755198
Si Si7 0.420961 0.174001 0.391780
O O1 0.882190 0.257189 0.729720
O O2 0.897441 0.244831 0.649990
O O3 0.000000 0.201085 0.700759
O O4 0.901899 0.000000 0.692925
O O5 0.891801 0.249639 0.041063
O O6 0.000000 0.178729 0.000000
O O7 0.892618 0.000000 0.000000
O O8 0.808295 0.500000 0.146613
O O9 0.750000 0.750000 0.134396
O O10 0.880180 0.730850 0.121715
O O11 0.834630 0.721581 0.197394
O O12 0.081038 0.500000 0.076064
O O13 0.000000 0.270985 0.090068
O O14 0.829802 0.196372 0.500000
O O15 0.750000 0.250000 0.563567
O O16 0.882146 0.253590 0.570028
O O17 0.817005 0.000000 0.560799
O O18 0.184239 0.500000 0.748720
O O19 0.250000 0.750000 0.739911
O O20 0.500000 0.200277 0.400134
O O21 0.402952 0.000000 0.388003
#
# Coordination Sequence:
#
# PCOD8271743 Si02
#       7
#    16   8  16  16  16  16  16
#     4  10  21  37  56  79 108 139 173 216 263 310
#     4   9  17  29  46  71 100 127 159 203 252 295
#     4   9  19  34  52  74 101 133 166 205 251 299
#     4   9  17  31  51  73  97 128 166 204 245 296
#     4  10  21  37  57  81 110 143 179 220 264 310
#     4  10  20  35  55  78 105 137 174 214 257 308
#     4  10  21  37  57  81 109 141 177 217 262 312
#
# _framework density 18.216654999999999
#
# number of rings (size 3 to 8) (size 9 to 14) (size 15 to 20)
#    0.000    2.385    0.000    2.077    0.000    6.462 
#    0.000    6.538    0.000    1.846    0.000    0.000 
#    0.000    0.000    0.000    0.000    0.000    0.000 
#
# Total GULP energy -644970.234895 kJ/mol
# GULP energy per Si atom -12403.273748 kJ/mol
# Density = 1.817519 g / cm^3
# Si number density = 18.216655 Si / 1000 Ang^3
#
#
#
# Elastic Constant Matrix: (Units=GPa)
#
#
# Indices 1 2 3 4 5 6 
#
# 1 83.8158 49.7164 61.8590 0.0000 0.0000 0.0000
# 2 49.7164 95.3932 51.7763 0.0000 0.0000 0.0000
# 3 61.8590 51.7763 94.2896 0.0000 0.0000 0.0000
# 4 0.0000 0.0000 0.0000 29.0672 0.0000 0.0000
# 5 0.0000 0.0000 0.0000 0.0000 20.0754 0.0000
# 6 0.0000 0.0000 0.0000 0.0000 0.0000 32.5462
#
#
#
# Elastic Compliance Matrix: (Units=1/GPa)
#
#
# Indices 1 2 3 4 5 6 
#
# 1 0.025298 -0.005950 -0.013330 0.000000 0.000000 0.000000
# 2 -0.005950 0.016333 -0.005066 0.000000 0.000000 0.000000
# 3 -0.013330 -0.005066 0.022132 0.000000 0.000000 0.000000
# 4 0.000000 0.000000 0.000000 0.034403 0.000000 0.000000
# 5 0.000000 0.000000 0.000000 0.000000 0.049812 0.000000
# 6 0.000000 0.000000 0.000000 0.000000 0.000000 0.030726
#
#
# Mechanical properties :
#
#
# Convention : Reuss Voigt Hill
#
# Bulk Modulus (GPa) = 66.34194 66.68909 66.51551
# Shear Modulus (GPa) = 21.51296 23.68088 22.59692
#
# Velocity S-wave (km/s) = 3.44022 3.60940 3.52583
# Velocity P-wave (km/s) = 7.23032 7.35246 7.29165
#
# Compressibility (1/GPa) = 0.01507342
#
# Stress axis : x y z
#
# Youngs Moduli (GPa) = 39.52916 61.22519 45.18306
#
# Poissons Ratio (x) = 0.36427 0.60227
# Poissons Ratio (y) = 0.23518 0.22888
# Poissons Ratio (z) = 0.52691 0.31014
#
# Static dielectric constant tensor:
#      x y z
#    x 3.324220 0.000000 0.000000 
#    y 0.000000 3.457980 0.000000 
#    z 0.000000 0.000000 3.446850 
# 
# 
# High freq. dielectric constant tensor:
#      x y z
#    x 1.696650 0.000000 0.000000 
#    y 0.000000 1.716370 0.000000 
#    z 0.000000 0.000000 1.709900 
# 
# From -- ./inp_files/73316.got.cif
#   From: 2010.03.12/outbox.cif.g09.slc.cpg/sg65_37_cif.got.tgz:73316.got - 2010.04.10 20:52:16.
