data_PCOD8271125
_publ_section_title
;
Structure prediction by ZEFSAII (Michael W. Deem and Ramdas Pophale) SiO2 
 PCOD8271125
Probable space group: C M M M
;
_chemical_formula_sum "Si O2"
_cell_formula_units_Z 80
_cell_length_a 12.654674
_cell_length_b 29.545145
_cell_length_c 11.747412
_cell_angle_alpha 90.000000
_cell_angle_beta 90.000000
_cell_angle_gamma 90.000000
_cell_volume 4392.171482
_symmetry_space_group_name_H-M "C M M M"
_symmetry_group_IT_number 65
_symmetry_cell_setting 'orthorhombic'
loop_
_space_group_symop_operation_xyz
x,y,z
-x,-y,z
x,-y,-z
-x,y,-z
-x,-y,-z
x,y,-z
-x,y,z
x,-y,z
1/2+x,1/2+y,z
1/2-x,1/2-y,z
1/2+x,1/2-y,-z
1/2-x,1/2+y,-z
1/2-x,1/2-y,-z
1/2+x,1/2+y,-z
1/2-x,1/2+y,z
1/2+x,1/2-y,z
loop_
_atom_site_type_symbol
_atom_site_label
_atom_site_fract_x
_atom_site_fract_y
_atom_site_fract_z
Si Si1 0.375291 0.053056 0.000000
Si Si2 0.232906 0.394191 0.795943
Si Si3 0.619909 0.169770 0.372217
Si Si4 0.250000 0.750000 0.280828
Si Si5 0.619013 0.446616 0.372523
Si Si6 0.380483 0.685494 0.129677
O O1 0.326972 0.075648 0.887939
O O2 0.500000 0.061260 0.000000
O O3 0.347145 0.000000 0.000000
O O4 0.147143 0.368913 0.718396
O O5 0.301191 0.426324 0.716926
O O6 0.308935 0.358740 0.857534
O O7 0.634579 0.150556 0.500000
O O8 0.500000 0.185149 0.350534
O O9 0.695140 0.213047 0.360206
O O10 0.339383 0.727221 0.203482
O O11 0.646318 0.429374 0.500000
O O12 0.500000 0.431608 0.341010
O O13 0.629454 0.500000 0.367345
O O14 0.500000 0.673792 0.167525
O O15 0.376960 0.701782 0.000000
#
# Coordination Sequence:
#
# PCOD8271125 Si02
#       6
#     8  16  16   8  16  16
#     4  11  24  40  57  78 107 142 184 231 275 326
#     4  11  20  36  56  79 106 144 181 219 276 321
#     4  10  21  36  55  80 108 139 179 226 269 318
#     4  10  20  34  56  76 108 143 181 212 272 318
#     4   9  18  33  54  81 111 141 176 219 267 325
#     4  10  20  34  52  77 109 141 178 220 259 310
#
# _framework density 18.214224999999999
#
# number of rings (size 3 to 8) (size 9 to 14) (size 15 to 20)
#    0.000    1.900    1.000    4.200    0.000    0.000 
#    0.000    0.000    0.000   12.000    0.000    8.400 
#    0.000    0.000    0.000    0.000    0.000    0.000 
#
# Total GULP energy -496058.884870 kJ/mol
# GULP energy per Si atom -12401.472122 kJ/mol
# Density = 1.817277 g / cm^3
# Si number density = 18.214225 Si / 1000 Ang^3
#
#
#
# Elastic Constant Matrix: (Units=GPa)
#
#
# Indices 1 2 3 4 5 6 
#
# 1 113.9595 44.9257 67.6862 0.0000 0.0000 0.0000
# 2 44.9257 83.2698 54.2097 0.0000 0.0000 0.0000
# 3 67.6862 54.2097 123.7933 0.0000 0.0000 0.0000
# 4 0.0000 0.0000 0.0000 35.8204 0.0000 0.0000
# 5 0.0000 0.0000 0.0000 0.0000 37.1514 0.0000
# 6 0.0000 0.0000 0.0000 0.0000 0.0000 107.0866
#
#
#
# Elastic Compliance Matrix: (Units=1/GPa)
#
#
# Indices 1 2 3 4 5 6 
#
# 1 0.013694 -0.003516 -0.005948 0.000000 0.000000 0.000000
# 2 -0.003516 0.017701 -0.005829 0.000000 0.000000 0.000000
# 3 -0.005948 -0.005829 0.013882 0.000000 0.000000 0.000000
# 4 0.000000 0.000000 0.000000 0.027917 0.000000 0.000000
# 5 0.000000 0.000000 0.000000 0.000000 0.026917 0.000000
# 6 0.000000 0.000000 0.000000 0.000000 0.000000 0.009338
#
#
# Mechanical properties :
#
#
# Convention : Reuss Voigt Hill
#
# Bulk Modulus (GPa) = 68.06427 72.74063 70.40245
# Shear Modulus (GPa) = 34.49912 46.29175 40.39543
#
# Velocity S-wave (km/s) = 4.35682 5.04681 4.71446
# Velocity P-wave (km/s) = 7.92206 8.60136 8.26869
#
# Compressibility (1/GPa) = 0.01469200
#
# Stress axis : x y z
#
# Youngs Moduli (GPa) = 73.02605 56.49477 72.03374
#
# Poissons Ratio (x) = 0.19864 0.42843
# Poissons Ratio (y) = 0.25677 0.41987
# Poissons Ratio (z) = 0.43433 0.32929
#
# Static dielectric constant tensor:
#      x y z
#    x 3.454540 0.000000 0.000000 
#    y 0.000000 3.257760 0.000000 
#    z 0.000000 0.000000 6.317060 
# 
# 
# High freq. dielectric constant tensor:
#      x y z
#    x 1.716350 0.000000 0.000000 
#    y 0.000000 1.702500 0.000000 
#    z 0.000000 0.000000 1.717080 
# 
# From -- ./inp_files/22888.got.cif
#   From: 2010.03.12/outbox.cif.g09.slc.cpg/sg65_12_cif.got.tgz:22888.got - 2010.04.10 20:52:16.
