data_PCOD8271223
_publ_section_title
;
Structure prediction by ZEFSAII (Michael W. Deem and Ramdas Pophale) SiO2 
 PCOD8271223
Probable space group: C M M M
;
_chemical_formula_sum "Si O2"
_cell_formula_units_Z 72
_cell_length_a 17.970268
_cell_length_b 8.830877
_cell_length_c 23.580174
_cell_angle_alpha 90.000000
_cell_angle_beta 90.000000
_cell_angle_gamma 90.000000
_cell_volume 3742.013890
_symmetry_space_group_name_H-M "C M M M"
_symmetry_group_IT_number 65
_symmetry_cell_setting 'orthorhombic'
loop_
_space_group_symop_operation_xyz
x,y,z
-x,-y,z
x,-y,-z
-x,y,-z
-x,-y,-z
x,y,-z
-x,y,z
x,-y,z
1/2+x,1/2+y,z
1/2-x,1/2-y,z
1/2+x,1/2-y,-z
1/2-x,1/2+y,-z
1/2-x,1/2-y,-z
1/2+x,1/2+y,-z
1/2-x,1/2+y,z
1/2+x,1/2-y,z
loop_
_atom_site_type_symbol
_atom_site_label
_atom_site_fract_x
_atom_site_fract_y
_atom_site_fract_z
Si Si1 0.170069 0.674730 0.168853
Si Si2 0.168916 0.322942 0.294391
Si Si3 0.331184 0.322967 0.938584
Si Si4 0.330717 0.178940 0.500000
Si Si5 0.087484 0.174557 0.604383
O O1 0.178603 0.500000 0.154534
O O2 0.250000 0.750000 0.172093
O O3 0.134271 0.699550 0.231019
O O4 0.124798 0.751519 0.115873
O O5 0.175671 0.500000 0.309373
O O6 0.250000 0.250000 0.301278
O O7 0.111280 0.240471 0.335213
O O8 0.323731 0.500000 0.928616
O O9 0.250000 0.250000 0.939751
O O10 0.370267 0.289821 0.000000
O O11 0.250000 0.250000 0.500000
O O12 0.373896 0.230295 0.555548
O O13 0.323480 0.000000 0.500000
O O14 0.000000 0.193065 0.597532
O O15 0.111904 0.000000 0.599567
#
# Coordination Sequence:
#
# PCOD8271223 Si02
#       5
#    16  16  16   8  16
#     4   9  16  25  39  60  87 122 163 207 253 302
#     4  10  20  34  53  77 105 138 178 220 263 313
#     4   9  15  21  31  50  79 117 159 202 250 304
#     4  12  25  42  65  89 115 145 177 214 255 302
#     4  11  24  41  60  83 112 143 176 216 261 308
#
# _framework density 19.240977000000001
#
# number of rings (size 3 to 8) (size 9 to 14) (size 15 to 20)
#    0.000    2.000    0.000    6.000    0.000    7.111 
#    0.000    0.000    0.000    0.000    0.000    0.000 
#    0.000    0.889    0.000    9.778    0.000   10.889 
#
# Total GULP energy -446077.796603 kJ/mol
# GULP energy per Si atom -12391.049906 kJ/mol
# Density = 1.919718 g / cm^3
# Si number density = 19.240977 Si / 1000 Ang^3
#
#
#
# Elastic Constant Matrix: (Units=GPa)
#
#
# Indices 1 2 3 4 5 6 
#
# 1 46.1227 41.1922 39.0948 0.0000 0.0000 0.0000
# 2 41.1922 164.6963 85.6954 0.0000 0.0000 0.0000
# 3 39.0948 85.6954 178.2929 0.0000 0.0000 0.0000
# 4 0.0000 0.0000 0.0000 23.3169 0.0000 0.0000
# 5 0.0000 0.0000 0.0000 0.0000 -3.1343 0.0000
# 6 0.0000 0.0000 0.0000 0.0000 0.0000 19.8133
#
#
#
# Elastic Compliance Matrix: (Units=1/GPa)
#
#
# Indices 1 2 3 4 5 6 
#
# 1 0.029862 -0.005416 -0.003945 0.000000 0.000000 0.000000
# 2 -0.005416 0.009079 -0.003176 0.000000 0.000000 0.000000
# 3 -0.003945 -0.003176 0.008000 0.000000 0.000000 0.000000
# 4 0.000000 0.000000 0.000000 0.042887 0.000000 0.000000
# 5 0.000000 0.000000 0.000000 0.000000 -0.319053 0.000000
# 6 0.000000 0.000000 0.000000 0.000000 0.000000 0.050471
#
#
# Mechanical properties :
#
#
# Convention : Reuss Voigt Hill
#
# Bulk Modulus (GPa) = 45.73029 80.11960 62.92494
# Shear Modulus (GPa) = -34.15547 22.87448 -5.64050
#
# Velocity S-wave (km/s) = -4.21781 3.45170 -1.71402
# Velocity P-wave (km/s) = 0.31430 7.59053 5.37191
#
# Compressibility (1/GPa) = 0.02186735
#
# Stress axis : x y z
#
# Youngs Moduli (GPa) = 33.48711 110.14316 124.99536
#
# Poissons Ratio (x) = 0.59657 0.49306
# Poissons Ratio (y) = 0.18138 0.39700
# Poissons Ratio (z) = 0.13209 0.34983
#
# Static dielectric constant tensor:
#      x y z
#    x 2.918060 0.000000 0.000000 
#    y 0.000000 3.766520 0.000000 
#    z 0.000000 0.000000 4.897170 
# 
# 
# High freq. dielectric constant tensor:
#      x y z
#    x 1.676260 0.000000 0.000000 
#    y 0.000000 1.771060 0.000000 
#    z 0.000000 0.000000 1.787520 
# 
# From -- ./inp_files/70355.got.cif
#   From: 2010.03.12/outbox.cif.g09.slc.cpg/sg65_36_cif.got.tgz:70355.got - 2010.04.10 20:52:16.
