data_PCOD8271220
_publ_section_title
;
Structure prediction by ZEFSAII (Michael W. Deem and Ramdas Pophale) SiO2 
 PCOD8271220
Probable space group: C M M M
;
_chemical_formula_sum "Si O2"
_cell_formula_units_Z 104
_cell_length_a 8.989896
_cell_length_b 20.872939
_cell_length_c 29.679210
_cell_angle_alpha 90.000000
_cell_angle_beta 90.000000
_cell_angle_gamma 90.000000
_cell_volume 5569.171708
_symmetry_space_group_name_H-M "C M M M"
_symmetry_group_IT_number 65
_symmetry_cell_setting 'orthorhombic'
loop_
_space_group_symop_operation_xyz
x,y,z
-x,-y,z
x,-y,-z
-x,y,-z
-x,-y,-z
x,y,-z
-x,y,z
x,-y,z
1/2+x,1/2+y,z
1/2-x,1/2-y,z
1/2+x,1/2-y,-z
1/2-x,1/2+y,-z
1/2-x,1/2-y,-z
1/2+x,1/2+y,-z
1/2-x,1/2+y,z
1/2+x,1/2-y,z
loop_
_atom_site_type_symbol
_atom_site_label
_atom_site_fract_x
_atom_site_fract_y
_atom_site_fract_z
Si Si1 0.827748 0.180504 0.228516
Si Si2 0.175130 0.573071 0.288883
Si Si3 0.169096 0.811210 0.869285
Si Si4 0.172194 0.927529 0.382925
Si Si5 0.325061 0.874412 0.948992
Si Si6 0.825221 0.185361 0.551272
Si Si7 0.663878 0.500000 0.946777
O O1 0.750000 0.250000 0.235569
O O2 0.754072 0.125427 0.258027
O O3 0.821875 0.149141 0.177316
O O4 0.000000 0.190281 0.242025
O O5 0.216448 0.500000 0.274006
O O6 0.227245 0.584951 0.339614
O O7 0.000000 0.584095 0.285773
O O8 0.250000 0.750000 0.849539
O O9 0.268189 0.824253 0.913252
O O10 0.000000 0.802785 0.886227
O O11 0.224714 0.876990 0.420629
O O12 0.000000 0.916833 0.369789
O O13 0.196159 0.000000 0.401352
O O14 0.500000 0.881576 0.947814
O O15 0.253265 0.939119 0.930184
O O16 0.272119 0.857502 0.000000
O O17 0.772947 0.173562 0.500000
O O18 0.750000 0.250000 0.570734
O O19 0.000000 0.195566 0.554405
O O20 0.500000 0.500000 0.924647
O O21 0.651768 0.500000 0.000000
#
# Coordination Sequence:
#
# PCOD8271220 Si02
#       7
#    16  16  16  16  16  16   8
#     4  10  21  38  60  83 108 141 179 222 271 327
#     4  10  21  37  57  82 112 144 180 225 274 326
#     4  10  21  37  56  78 104 136 171 213 260 310
#     4   9  18  33  53  76 104 140 180 224 273 322
#     4  10  20  34  53  77 105 138 174 212 256 307
#     4   9  18  32  50  74 105 141 181 225 272 321
#     4   9  17  31  51  73  99 131 167 209 253 297
#
# _framework density 18.674230999999999
#
# number of rings (size 3 to 8) (size 9 to 14) (size 15 to 20)
#    0.000    2.385    0.000    2.077    0.000    6.462 
#    1.385    3.077    0.000    0.000    0.000    4.308 
#    0.000    0.000    0.000    0.000    0.000    0.000 
#
# Total GULP energy -644212.927078 kJ/mol
# GULP energy per Si atom -12388.710136 kJ/mol
# Density = 1.863173 g / cm^3
# Si number density = 18.674231 Si / 1000 Ang^3
#
#
#
# Elastic Constant Matrix: (Units=GPa)
#
#
# Indices 1 2 3 4 5 6 
#
# 1 95.7425 51.7903 49.7353 0.0000 0.0000 0.0000
# 2 51.7903 118.0956 71.5056 0.0000 0.0000 0.0000
# 3 49.7353 71.5056 98.3213 0.0000 0.0000 0.0000
# 4 0.0000 0.0000 0.0000 18.0850 0.0000 0.0000
# 5 0.0000 0.0000 0.0000 0.0000 25.5334 0.0000
# 6 0.0000 0.0000 0.0000 0.0000 0.0000 36.9246
#
#
#
# Elastic Compliance Matrix: (Units=1/GPa)
#
#
# Indices 1 2 3 4 5 6 
#
# 1 0.014949 -0.003533 -0.004993 0.000000 0.000000 0.000000
# 2 -0.003533 0.015965 -0.009824 0.000000 0.000000 0.000000
# 3 -0.004993 -0.009824 0.019841 0.000000 0.000000 0.000000
# 4 0.000000 0.000000 0.000000 0.055294 0.000000 0.000000
# 5 0.000000 0.000000 0.000000 0.000000 0.039164 0.000000
# 6 0.000000 0.000000 0.000000 0.000000 0.000000 0.027082
#
#
# Mechanical properties :
#
#
# Convention : Reuss Voigt Hill
#
# Bulk Modulus (GPa) = 71.14162 73.13576 72.13869
# Shear Modulus (GPa) = 23.39938 25.38382 24.39160
#
# Velocity S-wave (km/s) = 3.54366 3.69086 3.61801
# Velocity P-wave (km/s) = 7.41095 7.57709 7.49448
#
# Compressibility (1/GPa) = 0.01405647
#
# Stress axis : x y z
#
# Youngs Moduli (GPa) = 66.89274 62.63571 50.40122
#
# Poissons Ratio (x) = 0.22129 0.25163
# Poissons Ratio (y) = 0.23633 0.49514
# Poissons Ratio (z) = 0.33397 0.61533
#
# Static dielectric constant tensor:
#      x y z
#    x 3.502280 0.000000 0.000000 
#    y 0.000000 3.553050 0.000000 
#    z 0.000000 0.000000 3.383350 
# 
# 
# High freq. dielectric constant tensor:
#      x y z
#    x 1.734230 0.000000 0.000000 
#    y 0.000000 1.721070 0.000000 
#    z 0.000000 0.000000 1.719400 
# 
# From -- ./inp_files/73360.got.cif
#   From: 2010.03.12/outbox.cif.g09.slc.cpg/sg65_37_cif.got.tgz:73360.got - 2010.04.10 20:52:16.
