data_PCOD8271449
_publ_section_title
;
Structure prediction by ZEFSAII (Michael W. Deem and Ramdas Pophale) SiO2 
 PCOD8271449
Probable space group: C M M M
;
_chemical_formula_sum "Si O2"
_cell_formula_units_Z 96
_cell_length_a 14.097056
_cell_length_b 18.274770
_cell_length_c 20.074242
_cell_angle_alpha 90.000000
_cell_angle_beta 90.000000
_cell_angle_gamma 90.000000
_cell_volume 5171.535379
_symmetry_space_group_name_H-M "C M M M"
_symmetry_group_IT_number 65
_symmetry_cell_setting 'orthorhombic'
loop_
_space_group_symop_operation_xyz
x,y,z
-x,-y,z
x,-y,-z
-x,y,-z
-x,-y,-z
x,y,-z
-x,y,z
x,-y,z
1/2+x,1/2+y,z
1/2-x,1/2-y,z
1/2+x,1/2-y,-z
1/2-x,1/2+y,-z
1/2-x,1/2-y,-z
1/2+x,1/2+y,-z
1/2-x,1/2+y,z
1/2+x,1/2-y,z
loop_
_atom_site_type_symbol
_atom_site_label
_atom_site_fract_x
_atom_site_fract_y
_atom_site_fract_z
Si Si1 0.394266 0.915760 0.229878
Si Si2 0.226386 0.915876 0.424866
Si Si3 0.606301 0.831812 0.367198
Si Si4 0.222456 0.167142 0.816256
Si Si5 0.111568 0.082481 0.924659
Si Si6 0.888774 0.169652 0.320864
O O1 0.500000 0.904588 0.200139
O O2 0.386520 0.878809 0.301090
O O3 0.318959 0.879607 0.180614
O O4 0.369049 0.000000 0.239092
O O5 0.187640 0.907586 0.500000
O O6 0.320690 0.866046 0.419541
O O7 0.144293 0.889845 0.374796
O O8 0.251959 0.000000 0.408955
O O9 0.500000 0.834324 0.397399
O O10 0.636005 0.749327 0.349551
O O11 0.250000 0.250000 0.828251
O O12 0.158108 0.141694 0.876897
O O13 0.167452 0.155649 0.747081
O O14 0.000000 0.093224 0.920210
O O15 0.139066 0.000000 0.902526
O O16 0.146656 0.096562 0.000000
O O17 0.000000 0.160557 0.306600
#
# Coordination Sequence:
#
# PCOD8271449 Si02
#       6
#    16  16  16  16  16  16
#     4  10  20  34  54  81 113 146 181 225 278 333
#     4  11  24  40  57  80 112 147 185 234 289 341
#     4  10  20  37  58  81 108 143 185 231 282 335
#     4  12  21  34  60  89 118 147 184 237 284 335
#     4   9  20  39  60  84 117 157 198 236 276 325
#     4  11  23  39  58  82 112 147 188 232 280 338
#
# _framework density 18.563151999999999
#
# number of rings (size 3 to 8) (size 9 to 14) (size 15 to 20)
#    0.000    1.500    3.333    2.500    0.000    5.000 
#    0.000    3.333    0.000    0.500    0.000    2.333 
#    0.000    0.000    0.000    0.000    0.000    0.000 
#
# Total GULP energy -595290.549919 kJ/mol
# GULP energy per Si atom -12401.886457 kJ/mol
# Density = 1.852090 g / cm^3
# Si number density = 18.563152 Si / 1000 Ang^3
#
#
#
# Elastic Constant Matrix: (Units=GPa)
#
#
# Indices 1 2 3 4 5 6 
#
# 1 89.7179 45.4591 38.3954 0.0000 0.0000 0.0000
# 2 45.4591 80.5305 54.0341 0.0000 0.0000 0.0000
# 3 38.3954 54.0341 96.1098 0.0000 0.0000 0.0000
# 4 0.0000 0.0000 0.0000 60.4199 0.0000 0.0000
# 5 0.0000 0.0000 0.0000 0.0000 26.3992 0.0000
# 6 0.0000 0.0000 0.0000 0.0000 0.0000 30.4314
#
#
#
# Elastic Compliance Matrix: (Units=1/GPa)
#
#
# Indices 1 2 3 4 5 6 
#
# 1 0.015869 -0.007554 -0.002093 0.000000 0.000000 0.000000
# 2 -0.007554 0.023535 -0.010214 0.000000 0.000000 0.000000
# 3 -0.002093 -0.010214 0.016983 0.000000 0.000000 0.000000
# 4 0.000000 0.000000 0.000000 0.016551 0.000000 0.000000
# 5 0.000000 0.000000 0.000000 0.000000 0.037880 0.000000
# 6 0.000000 0.000000 0.000000 0.000000 0.000000 0.032861
#
#
# Mechanical properties :
#
#
# Convention : Reuss Voigt Hill
#
# Bulk Modulus (GPa) = 60.00149 60.23726 60.11938
# Shear Modulus (GPa) = 26.46121 32.01473 29.23797
#
# Velocity S-wave (km/s) = 3.77963 4.15738 3.97300
# Velocity P-wave (km/s) = 7.17221 7.45422 7.31458
#
# Compressibility (1/GPa) = 0.01666625
#
# Stress axis : x y z
#
# Youngs Moduli (GPa) = 63.01549 42.48963 58.88152
#
# Poissons Ratio (x) = 0.32096 0.12323
# Poissons Ratio (y) = 0.47601 0.60142
# Poissons Ratio (z) = 0.13188 0.43399
#
# Static dielectric constant tensor:
#      x y z
#    x 3.631030 0.000000 0.000000 
#    y 0.000000 3.620400 0.000000 
#    z 0.000000 0.000000 3.188410 
# 
# 
# High freq. dielectric constant tensor:
#      x y z
#    x 1.729870 0.000000 0.000000 
#    y 0.000000 1.732800 0.000000 
#    z 0.000000 0.000000 1.697280 
# 
# From -- ./inp_files/62581.got.cif
#   From: 2010.03.12/outbox.cif.g09.slc.cpg/sg65_32_cif.got.tgz:62581.got - 2010.04.10 20:52:16.
