data_PCOD8271988
_publ_section_title
;
Structure prediction by ZEFSAII (Michael W. Deem and Ramdas Pophale) SiO2 
 PCOD8271988
Probable space group: C M M M
;
_chemical_formula_sum "Si O2"
_cell_formula_units_Z 64
_cell_length_a 22.292086
_cell_length_b 16.543104
_cell_length_c 9.050040
_cell_angle_alpha 90.000000
_cell_angle_beta 90.000000
_cell_angle_gamma 90.000000
_cell_volume 3337.476440
_symmetry_space_group_name_H-M "C M M M"
_symmetry_group_IT_number 65
_symmetry_cell_setting 'orthorhombic'
loop_
_space_group_symop_operation_xyz
x,y,z
-x,-y,z
x,-y,-z
-x,y,-z
-x,-y,-z
x,y,-z
-x,y,z
x,-y,z
1/2+x,1/2+y,z
1/2-x,1/2-y,z
1/2+x,1/2-y,-z
1/2-x,1/2+y,-z
1/2-x,1/2-y,-z
1/2+x,1/2+y,-z
1/2-x,1/2+y,z
1/2+x,1/2-y,z
loop_
_atom_site_type_symbol
_atom_site_label
_atom_site_fract_x
_atom_site_fract_y
_atom_site_fract_z
Si Si1 0.067092 0.000000 0.324570
Si Si2 0.621520 0.171603 0.671515
Si Si3 0.350920 0.645795 0.671071
Si Si4 0.000000 0.409147 0.324568
Si Si5 0.233828 0.592953 0.825618
O O1 0.102280 0.920703 0.268538
O O2 0.062740 0.000000 0.500000
O O3 0.000000 0.000000 0.256575
O O4 0.631785 0.149927 0.500000
O O5 0.619400 0.267406 0.696042
O O6 0.558847 0.137097 0.732593
O O7 0.673247 0.130607 0.765014
O O8 0.335655 0.630029 0.500000
O O9 0.289412 0.642343 0.760691
O O10 0.000000 0.500000 0.260750
O O11 0.000000 0.409955 0.500000
O O12 0.238546 0.500000 0.775484
O O13 0.234377 0.602144 0.000000
#
# Coordination Sequence:
#
# PCOD8271988 Si02
#       5
#     8  16  16   8  16
#     4   9  18  32  55  85 117 148 177 218 275 327
#     4  10  21  35  57  85 112 142 183 229 274 326
#     4  10  20  35  57  85 113 144 182 225 273 327
#     4   9  18  34  55  82 114 145 176 221 277 327
#     4  11  23  38  56  79 110 148 188 229 275 325
#
# _framework density 19.176165000000001
#
# number of rings (size 3 to 8) (size 9 to 14) (size 15 to 20)
#    0.000    2.000    1.250    2.250    1.750    6.500 
#    0.000    0.625    0.000    3.750    0.000    0.000 
#    0.000    0.000    0.000    0.000    0.000    0.000 
#
# Total GULP energy -396928.589310 kJ/mol
# GULP energy per Si atom -12404.018416 kJ/mol
# Density = 1.913252 g / cm^3
# Si number density = 19.176165 Si / 1000 Ang^3
#
#
#
# Elastic Constant Matrix: (Units=GPa)
#
#
# Indices 1 2 3 4 5 6 
#
# 1 183.0101 77.5015 38.0986 0.0000 0.0000 0.0000
# 2 77.5015 136.7980 39.3836 0.0000 0.0000 0.0000
# 3 38.0986 39.3836 42.9016 0.0000 0.0000 0.0000
# 4 0.0000 0.0000 0.0000 22.0974 0.0000 0.0000
# 5 0.0000 0.0000 0.0000 0.0000 -8.3756 0.0000
# 6 0.0000 0.0000 0.0000 0.0000 0.0000 38.2413
#
#
#
# Elastic Compliance Matrix: (Units=1/GPa)
#
#
# Indices 1 2 3 4 5 6 
#
# 1 0.007622 -0.003220 -0.003812 0.000000 0.000000 0.000000
# 2 -0.003220 0.011297 -0.007511 0.000000 0.000000 0.000000
# 3 -0.003812 -0.007511 0.033589 0.000000 0.000000 0.000000
# 4 0.000000 0.000000 0.000000 0.045254 0.000000 0.000000
# 5 0.000000 0.000000 0.000000 0.000000 -0.119395 0.000000
# 6 0.000000 0.000000 0.000000 0.000000 0.000000 0.026150
#
#
# Mechanical properties :
#
#
# Convention : Reuss Voigt Hill
#
# Bulk Modulus (GPa) = 42.69578 74.74190 58.71884
# Shear Modulus (GPa) = 120.74520 24.24103 72.49312
#
# Velocity S-wave (km/s) = 7.94374 3.55931 6.15515
# Velocity P-wave (km/s) = 10.31749 7.48015 9.01120
#
# Compressibility (1/GPa) = 0.02342152
#
# Stress axis : x y z
#
# Youngs Moduli (GPa) = 131.20707 88.52035 29.77167
#
# Poissons Ratio (x) = 0.28508 0.11349
# Poissons Ratio (y) = 0.42255 0.22360
# Poissons Ratio (z) = 0.50015 0.66484
#
# Static dielectric constant tensor:
#      x y z
#    x 3.711840 0.000000 0.000000 
#    y 0.000000 3.733180 0.000000 
#    z 0.000000 0.000000 3.168320 
# 
# 
# High freq. dielectric constant tensor:
#      x y z
#    x 1.758320 0.000000 0.000000 
#    y 0.000000 1.763550 0.000000 
#    z 0.000000 0.000000 1.708870 
# 
# From -- ./inp_files/6727.got.cif
#   From: 2010.03.12/outbox.cif.g09.slc.cpg/sg65_4_cif.got.tgz:6727.got - 2010.04.10 20:52:16.
