data_PCOD8271241
_publ_section_title
;
Structure prediction by ZEFSAII (Michael W. Deem and Ramdas Pophale) SiO2 
 PCOD8271241
Probable space group: C M M M
;
_chemical_formula_sum "Si O2"
_cell_formula_units_Z 104
_cell_length_a 23.528827
_cell_length_b 8.695480
_cell_length_c 28.126054
_cell_angle_alpha 90.000000
_cell_angle_beta 90.000000
_cell_angle_gamma 90.000000
_cell_volume 5754.434397
_symmetry_space_group_name_H-M "C M M M"
_symmetry_group_IT_number 65
_symmetry_cell_setting 'orthorhombic'
loop_
_space_group_symop_operation_xyz
x,y,z
-x,-y,z
x,-y,-z
-x,y,-z
-x,-y,-z
x,y,-z
-x,y,z
x,-y,z
1/2+x,1/2+y,z
1/2-x,1/2-y,z
1/2+x,1/2-y,-z
1/2-x,1/2+y,-z
1/2-x,1/2-y,-z
1/2+x,1/2+y,-z
1/2-x,1/2+y,z
1/2+x,1/2-y,z
loop_
_atom_site_type_symbol
_atom_site_label
_atom_site_fract_x
_atom_site_fract_y
_atom_site_fract_z
Si Si1 0.000000 0.679272 0.207025
Si Si2 0.883719 0.176970 0.358682
Si Si3 0.000000 0.174606 0.305131
Si Si4 0.618274 0.317362 0.191911
Si Si5 0.811492 0.819765 0.000000
Si Si6 0.312050 0.681583 0.897847
Si Si7 0.064566 0.320401 0.445832
Si Si8 0.312154 0.181782 0.278796
O O1 0.054471 0.760818 0.184529
O O2 0.000000 0.500000 0.194804
O O3 0.000000 0.702031 0.263442
O O4 0.889590 0.233388 0.412939
O O5 0.835587 0.271665 0.330663
O O6 0.944915 0.206153 0.336055
O O7 0.865316 0.000000 0.357531
O O8 0.000000 0.000000 0.284704
O O9 0.620264 0.500000 0.197248
O O10 0.650135 0.255122 0.145091
O O11 0.645266 0.245781 0.239085
O O12 0.750000 0.750000 0.000000
O O13 0.840445 0.770804 0.050512
O O14 0.803876 0.000000 0.000000
O O15 0.306837 0.500000 0.893753
O O16 0.250000 0.750000 0.892090
O O17 0.082336 0.286527 0.500000
O O18 0.067583 0.500000 0.434443
O O19 0.000000 0.261267 0.437031
O O20 0.250000 0.250000 0.270254
O O21 0.308802 0.000000 0.274492
#
# Coordination Sequence:
#
# PCOD8271241 Si02
#       8
#     8  16   8  16   8  16  16  16
#     4  12  24  36  54  78 104 142 183 221 264 319
#     4  11  21  35  56  81 110 144 178 220 268 317
#     4  10  20  34  53  77 109 142 176 218 265 317
#     4  11  22  37  55  78 109 143 177 220 268 317
#     4   8  14  28  48  75 104 133 173 216 262 316
#     4   9  18  31  52  78 107 140 174 217 267 316
#     4   9  18  32  51  78 112 146 180 220 265 313
#     4  12  25  40  57  79 107 142 181 221 265 319
#
# _framework density 18.073018000000001
#
# number of rings (size 3 to 8) (size 9 to 14) (size 15 to 20)
#    0.000    1.692    2.308    3.923    0.000    3.385 
#    0.000    0.769    0.000    0.923    0.000    3.231 
#    0.000    0.000    0.000    0.000    0.000    0.000 
#
# Total GULP energy -644630.194246 kJ/mol
# GULP energy per Si atom -12396.734505 kJ/mol
# Density = 1.803188 g / cm^3
# Si number density = 18.073018 Si / 1000 Ang^3
#
#
#
# Elastic Constant Matrix: (Units=GPa)
#
#
# Indices 1 2 3 4 5 6 
#
# 1 91.6499 32.2134 43.4280 0.0000 0.0000 0.0000
# 2 32.2134 81.2260 35.8563 0.0000 0.0000 0.0000
# 3 43.4280 35.8563 129.0831 0.0000 0.0000 0.0000
# 4 0.0000 0.0000 0.0000 21.1016 0.0000 0.0000
# 5 0.0000 0.0000 0.0000 0.0000 24.6475 0.0000
# 6 0.0000 0.0000 0.0000 0.0000 0.0000 26.4035
#
#
#
# Elastic Compliance Matrix: (Units=1/GPa)
#
#
# Indices 1 2 3 4 5 6 
#
# 1 0.014017 -0.003963 -0.003615 0.000000 0.000000 0.000000
# 2 -0.003963 0.015153 -0.002876 0.000000 0.000000 0.000000
# 3 -0.003615 -0.002876 0.009762 0.000000 0.000000 0.000000
# 4 0.000000 0.000000 0.000000 0.047390 0.000000 0.000000
# 5 0.000000 0.000000 0.000000 0.000000 0.040572 0.000000
# 6 0.000000 0.000000 0.000000 0.000000 0.000000 0.037874
#
#
# Mechanical properties :
#
#
# Convention : Reuss Voigt Hill
#
# Bulk Modulus (GPa) = 55.48203 58.32827 56.90515
# Shear Modulus (GPa) = 26.08480 27.12796 26.60638
#
# Velocity S-wave (km/s) = 3.80320 3.87850 3.84104
# Velocity P-wave (km/s) = 7.07469 7.23884 7.15724
#
# Compressibility (1/GPa) = 0.01802385
#
# Stress axis : x y z
#
# Youngs Moduli (GPa) = 71.34190 65.99558 102.43892
#
# Poissons Ratio (x) = 0.26156 0.37031
# Poissons Ratio (y) = 0.28275 0.29458
# Poissons Ratio (z) = 0.25789 0.18978
#
# Static dielectric constant tensor:
#      x y z
#    x 3.252000 0.000000 0.000000 
#    y 0.000000 3.477310 0.000000 
#    z 0.000000 0.000000 3.758160 
# 
# 
# High freq. dielectric constant tensor:
#      x y z
#    x 1.673140 0.000000 0.000000 
#    y 0.000000 1.704570 0.000000 
#    z 0.000000 0.000000 1.710080 
# 
# From -- ./inp_files/75810.got.cif
#   From: 2010.03.12/outbox.cif.g09.slc.cpg/sg65_38_cif.got.tgz:75810.got - 2010.04.10 20:52:16.
