data_PCOD8271970
_publ_section_title
;
Structure prediction by ZEFSAII (Michael W. Deem and Ramdas Pophale) SiO2 
 PCOD8271970
Probable space group: C M M M
;
_chemical_formula_sum "Si O2"
_cell_formula_units_Z 104
_cell_length_a 9.206708
_cell_length_b 26.380853
_cell_length_c 22.983112
_cell_angle_alpha 90.000000
_cell_angle_beta 90.000000
_cell_angle_gamma 90.000000
_cell_volume 5582.156867
_symmetry_space_group_name_H-M "C M M M"
_symmetry_group_IT_number 65
_symmetry_cell_setting 'orthorhombic'
loop_
_space_group_symop_operation_xyz
x,y,z
-x,-y,z
x,-y,-z
-x,y,-z
-x,-y,-z
x,y,-z
-x,y,z
x,-y,z
1/2+x,1/2+y,z
1/2-x,1/2-y,z
1/2+x,1/2-y,-z
1/2-x,1/2+y,-z
1/2-x,1/2-y,-z
1/2+x,1/2+y,-z
1/2-x,1/2+y,z
1/2+x,1/2-y,z
loop_
_atom_site_type_symbol
_atom_site_label
_atom_site_fract_x
_atom_site_fract_y
_atom_site_fract_z
Si Si1 0.672188 0.603265 0.873999
Si Si2 0.672263 0.500000 0.934669
Si Si3 0.335759 0.298469 0.328661
Si Si4 0.830247 0.698413 0.931598
Si Si5 0.165940 0.898344 0.259647
Si Si6 0.336524 0.058268 0.362286
Si Si7 0.329297 0.363723 0.434139
O O1 0.500000 0.612024 0.882832
O O2 0.727343 0.551208 0.903578
O O3 0.757491 0.650688 0.900197
O O4 0.714852 0.597660 0.806735
O O5 0.500000 0.500000 0.934111
O O6 0.734191 0.500000 0.000000
O O7 0.500000 0.281152 0.334592
O O8 0.250000 0.250000 0.307396
O O9 0.314048 0.340591 0.279606
O O10 0.279629 0.318327 0.391530
O O11 0.750000 0.750000 0.911360
O O12 0.000000 0.702176 0.914763
O O13 0.809215 0.690311 0.000000
O O14 0.263785 0.934538 0.299213
O O15 0.000000 0.916052 0.267492
O O16 0.500000 0.079645 0.359145
O O17 0.251170 0.085569 0.414258
O O18 0.335183 0.000000 0.379120
O O19 0.286624 0.349582 0.500000
O O20 0.500000 0.373949 0.426951
#
# Coordination Sequence:
#
# PCOD8271970 Si02
#       7
#    16   8  16  16  16  16  16
#     4  10  20  35  57  84 111 145 188 233 280 333
#     4   9  18  32  53  83 115 145 180 227 280 333
#     4   9  18  33  51  74 103 136 172 214 262 313
#     4  10  21  37  57  81 110 146 186 229 279 334
#     4   9  20  36  54  77 105 139 181 222 261 314
#     4  10  21  35  52  76 106 139 174 218 270 317
#     4   9  19  36  55  76 103 135 176 221 263 319
#
# _framework density 18.630792
#
# number of rings (size 3 to 8) (size 9 to 14) (size 15 to 20)
#    0.000    2.538    0.000    2.308    1.077    7.385 
#    0.000    3.462    0.000    1.385    0.000    0.000 
#    0.000    0.000    0.000    0.000    0.000    0.000 
#
# Total GULP energy -644803.026914 kJ/mol
# GULP energy per Si atom -12400.058210 kJ/mol
# Density = 1.858839 g / cm^3
# Si number density = 18.630792 Si / 1000 Ang^3
#
#
#
# Elastic Constant Matrix: (Units=GPa)
#
#
# Indices 1 2 3 4 5 6 
#
# 1 59.4657 31.2243 22.4234 0.0000 0.0000 0.0000
# 2 31.2243 92.9174 31.6016 0.0000 0.0000 0.0000
# 3 22.4234 31.6016 109.8739 0.0000 0.0000 0.0000
# 4 0.0000 0.0000 0.0000 11.9898 0.0000 0.0000
# 5 0.0000 0.0000 0.0000 0.0000 19.7920 0.0000
# 6 0.0000 0.0000 0.0000 0.0000 0.0000 33.4906
#
#
#
# Elastic Compliance Matrix: (Units=1/GPa)
#
#
# Indices 1 2 3 4 5 6 
#
# 1 0.021023 -0.006213 -0.002503 0.000000 0.000000 0.000000
# 2 -0.006213 0.013765 -0.002691 0.000000 0.000000 0.000000
# 3 -0.002503 -0.002691 0.010386 0.000000 0.000000 0.000000
# 4 0.000000 0.000000 0.000000 0.083404 0.000000 0.000000
# 5 0.000000 0.000000 0.000000 0.000000 0.050526 0.000000
# 6 0.000000 0.000000 0.000000 0.000000 0.000000 0.029859
#
#
# Mechanical properties :
#
#
# Convention : Reuss Voigt Hill
#
# Bulk Modulus (GPa) = 44.72461 48.08396 46.40428
# Shear Modulus (GPa) = 20.90022 24.85498 22.87760
#
# Velocity S-wave (km/s) = 3.35298 3.65647 3.50801
# Velocity P-wave (km/s) = 6.24882 6.60994 6.43192
#
# Compressibility (1/GPa) = 0.02235905
#
# Stress axis : x y z
#
# Youngs Moduli (GPa) = 47.56729 72.64575 96.28102
#
# Poissons Ratio (x) = 0.45136 0.24103
# Poissons Ratio (y) = 0.29554 0.25911
# Poissons Ratio (z) = 0.11908 0.19550
#
# Static dielectric constant tensor:
#      x y z
#    x 3.401450 0.000000 0.000000 
#    y 0.000000 3.346580 0.000000 
#    z 0.000000 0.000000 3.579270 
# 
# 
# High freq. dielectric constant tensor:
#      x y z
#    x 1.713670 0.000000 0.000000 
#    y 0.000000 1.724310 0.000000 
#    z 0.000000 0.000000 1.725650 
# 
# From -- ./inp_files/68160.got.cif
#   From: 2010.03.12/outbox.cif.g09.slc.cpg/sg65_35_cif.got.tgz:68160.got - 2010.04.10 20:52:16.
