data_PCOD8271260
_publ_section_title
;
Structure prediction by ZEFSAII (Michael W. Deem and Ramdas Pophale) SiO2 
 PCOD8271260
Probable space group: C M M M
;
_chemical_formula_sum "Si O2"
_cell_formula_units_Z 104
_cell_length_a 27.560936
_cell_length_b 8.760670
_cell_length_c 23.195425
_cell_angle_alpha 90.000000
_cell_angle_beta 90.000000
_cell_angle_gamma 90.000000
_cell_volume 5600.587908
_symmetry_space_group_name_H-M "C M M M"
_symmetry_group_IT_number 65
_symmetry_cell_setting 'orthorhombic'
loop_
_space_group_symop_operation_xyz
x,y,z
-x,-y,z
x,-y,-z
-x,y,-z
-x,-y,-z
x,y,-z
-x,y,z
x,-y,z
1/2+x,1/2+y,z
1/2-x,1/2-y,z
1/2+x,1/2-y,-z
1/2-x,1/2+y,-z
1/2-x,1/2-y,-z
1/2+x,1/2+y,-z
1/2-x,1/2+y,z
1/2+x,1/2-y,z
loop_
_atom_site_type_symbol
_atom_site_label
_atom_site_fract_x
_atom_site_fract_y
_atom_site_fract_z
Si Si1 0.802175 0.681349 0.817119
Si Si2 0.641340 0.325633 0.713124
Si Si3 0.944142 0.820610 0.000000
Si Si4 0.554068 0.670235 0.205947
Si Si5 0.868588 0.679820 0.590295
Si Si6 0.446680 0.819911 0.500000
Si Si7 0.698538 0.320983 0.500000
Si Si8 0.106269 0.675748 0.108162
O O1 0.798777 0.500000 0.809943
O O2 0.750000 0.750000 0.834367
O O3 0.819334 0.752849 0.756487
O O4 0.840196 0.724723 0.868363
O O5 0.657047 0.500000 0.700234
O O6 0.587853 0.317542 0.738978
O O7 0.635634 0.227358 0.656108
O O8 0.911796 0.771992 0.945815
O O9 0.000000 0.752985 0.000000
O O10 0.948847 0.000000 0.000000
O O11 0.500000 0.704308 0.227590
O O12 0.558323 0.500000 0.178372
O O13 0.568032 0.796180 0.159034
O O14 0.861426 0.500000 0.584647
O O15 0.918541 0.730852 0.558403
O O16 0.825815 0.764461 0.558186
O O17 0.500000 0.742753 0.500000
O O18 0.451979 0.000000 0.500000
O O19 0.700782 0.500000 0.500000
O O20 0.750000 0.250000 0.500000
O O21 0.105980 0.500000 0.090183
#
# Coordination Sequence:
#
# PCOD8271260 Si02
#       8
#    16  16   8  16  16   8   8  16
#     4  10  21  38  59  82 108 140 179 222 271 323
#     4  10  20  34  53  78 108 141 177 218 264 313
#     4  11  23  37  56  83 114 149 186 221 262 315
#     4   9  18  33  52  75 107 145 180 215 260 314
#     4  10  20  35  54  78 108 138 174 219 263 312
#     4   8  16  32  53  75 102 140 180 218 264 315
#     4  11  22  38  58  78 101 130 166 208 261 318
#     4  10  21  36  55  81 111 141 179 226 269 314
#
# _framework density 18.569479000000001
#
# number of rings (size 3 to 8) (size 9 to 14) (size 15 to 20)
#    0.000    2.154    0.000    3.692    0.000    6.462 
#    0.000    3.462    0.000    7.846    0.000    0.000 
#    0.000    0.000    0.000    0.000    0.000    0.000 
#
# Total GULP energy -644613.248262 kJ/mol
# GULP energy per Si atom -12396.408620 kJ/mol
# Density = 1.852721 g / cm^3
# Si number density = 18.569479 Si / 1000 Ang^3
#
#
#
# Elastic Constant Matrix: (Units=GPa)
#
#
# Indices 1 2 3 4 5 6 
#
# 1 154.6838 50.8670 57.0872 0.0000 0.0000 0.0000
# 2 50.8670 95.1660 40.6573 0.0000 0.0000 0.0000
# 3 57.0872 40.6573 105.6528 0.0000 0.0000 0.0000
# 4 0.0000 0.0000 0.0000 30.8673 0.0000 0.0000
# 5 0.0000 0.0000 0.0000 0.0000 14.7036 0.0000
# 6 0.0000 0.0000 0.0000 0.0000 0.0000 26.4907
#
#
#
# Elastic Compliance Matrix: (Units=1/GPa)
#
#
# Indices 1 2 3 4 5 6 
#
# 1 0.008823 -0.003207 -0.003534 0.000000 0.000000 0.000000
# 2 -0.003207 0.013741 -0.003555 0.000000 0.000000 0.000000
# 3 -0.003534 -0.003555 0.012742 0.000000 0.000000 0.000000
# 4 0.000000 0.000000 0.000000 0.032397 0.000000 0.000000
# 5 0.000000 0.000000 0.000000 0.000000 0.068010 0.000000
# 6 0.000000 0.000000 0.000000 0.000000 0.000000 0.037749
#
#
# Mechanical properties :
#
#
# Convention : Reuss Voigt Hill
#
# Bulk Modulus (GPa) = 67.95347 72.52507 70.23927
# Shear Modulus (GPa) = 25.13088 28.20507 26.66797
#
# Velocity S-wave (km/s) = 3.68277 3.90153 3.79373
# Velocity P-wave (km/s) = 7.39982 7.70952 7.55626
#
# Compressibility (1/GPa) = 0.01471595
#
# Stress axis : x y z
#
# Youngs Moduli (GPa) = 113.33588 72.77653 78.47855
#
# Poissons Ratio (x) = 0.23336 0.27731
# Poissons Ratio (y) = 0.36341 0.27900
# Poissons Ratio (z) = 0.40048 0.25873
#
# Static dielectric constant tensor:
#      x y z
#    x 3.651190 0.000000 0.000000 
#    y 0.000000 3.493380 0.000000 
#    z 0.000000 0.000000 3.420670 
# 
# 
# High freq. dielectric constant tensor:
#      x y z
#    x 1.726490 0.000000 0.000000 
#    y 0.000000 1.725640 0.000000 
#    z 0.000000 0.000000 1.714470 
# 
# From -- ./inp_files/65975.got.cif
#   From: 2010.03.12/outbox.cif.g09.slc.cpg/sg65_33_cif.got.tgz:65975.got - 2010.04.10 20:52:16.
