data_PCOD8271447
_publ_section_title
;
Structure prediction by ZEFSAII (Michael W. Deem and Ramdas Pophale) SiO2 
 PCOD8271447
Probable space group: C M M M
;
_chemical_formula_sum "Si O2"
_cell_formula_units_Z 88
_cell_length_a 24.393279
_cell_length_b 8.770991
_cell_length_c 22.224899
_cell_angle_alpha 90.000000
_cell_angle_beta 90.000000
_cell_angle_gamma 90.000000
_cell_volume 4755.088940
_symmetry_space_group_name_H-M "C M M M"
_symmetry_group_IT_number 65
_symmetry_cell_setting 'orthorhombic'
loop_
_space_group_symop_operation_xyz
x,y,z
-x,-y,z
x,-y,-z
-x,y,-z
-x,-y,-z
x,y,-z
-x,y,z
x,-y,z
1/2+x,1/2+y,z
1/2-x,1/2-y,z
1/2+x,1/2-y,-z
1/2-x,1/2+y,-z
1/2-x,1/2-y,-z
1/2+x,1/2+y,-z
1/2-x,1/2+y,z
1/2+x,1/2-y,z
loop_
_atom_site_type_symbol
_atom_site_label
_atom_site_fract_x
_atom_site_fract_y
_atom_site_fract_z
Si Si1 0.810167 0.820749 0.000000
Si Si2 0.000000 0.680706 0.930024
Si Si3 0.000000 0.669395 0.429300
Si Si4 0.305353 0.177374 0.342498
Si Si5 0.191854 0.318852 0.205790
Si Si6 0.885805 0.181334 0.889768
Si Si7 0.889490 0.823259 0.429894
O O1 0.750000 0.750000 0.000000
O O2 0.844955 0.765863 0.942694
O O3 0.802248 0.000000 0.000000
O O4 0.053950 0.748726 0.898587
O O5 0.000000 0.500000 0.921738
O O6 0.000000 0.728272 0.000000
O O7 0.948946 0.769612 0.408831
O O8 0.000000 0.500000 0.399353
O O9 0.000000 0.647764 0.500000
O O10 0.250000 0.250000 0.366579
O O11 0.318813 0.230923 0.274714
O O12 0.350517 0.222837 0.389781
O O13 0.297061 0.000000 0.343182
O O14 0.193288 0.500000 0.196328
O O15 0.250000 0.250000 0.183200
O O16 0.140711 0.246212 0.170921
O O17 0.891513 0.000000 0.886738
O O18 0.878591 0.788929 0.500000
O O19 0.881974 0.000000 0.415193
#
# Coordination Sequence:
#
# PCOD8271447 Si02
#       7
#     8   8   8  16  16  16  16
#     4  10  22  35  52  81 113 142 176 220 267 316
#     4  11  23  39  60  85 114 153 190 228 278 333
#     4   9  17  31  52  77 106 141 179 219 269 326
#     4  10  21  37  57  80 110 147 186 230 279 335
#     4  10  21  38  59  84 112 145 187 232 280 334
#     4  11  22  38  59  83 113 149 186 228 275 328
#     4  10  20  34  54  81 112 145 184 231 281 335
#
# _framework density 18.506488999999998
#
# number of rings (size 3 to 8) (size 9 to 14) (size 15 to 20)
#    0.000    1.818    0.909    3.273    0.000    8.000 
#    0.000    0.909    0.000    5.455    0.000    0.000 
#    0.000    0.000    0.000    0.000    0.000    0.000 
#
# Total GULP energy -545644.316710 kJ/mol
# GULP energy per Si atom -12401.007198 kJ/mol
# Density = 1.846437 g / cm^3
# Si number density = 18.506489 Si / 1000 Ang^3
#
#
#
# Elastic Constant Matrix: (Units=GPa)
#
#
# Indices 1 2 3 4 5 6 
#
# 1 149.1464 30.1439 53.6617 0.0000 0.0000 0.0000
# 2 30.1439 55.8062 22.1856 0.0000 0.0000 0.0000
# 3 53.6617 22.1856 64.0082 0.0000 0.0000 0.0000
# 4 0.0000 0.0000 0.0000 29.1543 0.0000 0.0000
# 5 0.0000 0.0000 0.0000 0.0000 8.8567 0.0000
# 6 0.0000 0.0000 0.0000 0.0000 0.0000 38.7721
#
#
#
# Elastic Compliance Matrix: (Units=1/GPa)
#
#
# Indices 1 2 3 4 5 6 
#
# 1 0.009863 -0.002366 -0.007448 0.000000 0.000000 0.000000
# 2 -0.002366 0.021351 -0.005416 0.000000 0.000000 0.000000
# 3 -0.007448 -0.005416 0.023745 0.000000 0.000000 0.000000
# 4 0.000000 0.000000 0.000000 0.034300 0.000000 0.000000
# 5 0.000000 0.000000 0.000000 0.000000 0.112909 0.000000
# 6 0.000000 0.000000 0.000000 0.000000 0.000000 0.025792
#
#
# Mechanical properties :
#
#
# Convention : Reuss Voigt Hill
#
# Bulk Modulus (GPa) = 40.82306 53.43810 47.13058
# Shear Modulus (GPa) = 18.75561 26.22128 22.48845
#
# Velocity S-wave (km/s) = 3.18694 3.76822 3.48970
# Velocity P-wave (km/s) = 5.97066 6.91886 6.46218
#
# Compressibility (1/GPa) = 0.02449596
#
# Stress axis : x y z
#
# Youngs Moduli (GPa) = 101.38901 46.83703 42.11448
#
# Poissons Ratio (x) = 0.11084 0.31369
# Poissons Ratio (y) = 0.23993 0.22811
# Poissons Ratio (z) = 0.75520 0.25369
#
# Static dielectric constant tensor:
#      x y z
#    x 3.457960 0.000000 0.000000 
#    y 0.000000 3.501610 0.000000 
#    z 0.000000 0.000000 3.396030 
# 
# 
# High freq. dielectric constant tensor:
#      x y z
#    x 1.725890 0.000000 0.000000 
#    y 0.000000 1.734030 0.000000 
#    z 0.000000 0.000000 1.706730 
# 
# From -- ./inp_files/65240.got.cif
#   From: 2010.03.12/outbox.cif.g09.slc.cpg/sg65_33_cif.got.tgz:65240.got - 2010.04.10 20:52:16.
