data_PCOD8271514
_publ_section_title
;
Structure prediction by ZEFSAII (Michael W. Deem and Ramdas Pophale) SiO2 
 PCOD8271514
Probable space group: C M M M
;
_chemical_formula_sum "Si O2"
_cell_formula_units_Z 128
_cell_length_a 18.045479
_cell_length_b 18.555772
_cell_length_c 19.671353
_cell_angle_alpha 90.000000
_cell_angle_beta 90.000000
_cell_angle_gamma 90.000000
_cell_volume 6586.909156
_symmetry_space_group_name_H-M "C M M M"
_symmetry_group_IT_number 65
_symmetry_cell_setting 'orthorhombic'
loop_
_space_group_symop_operation_xyz
x,y,z
-x,-y,z
x,-y,-z
-x,y,-z
-x,-y,-z
x,y,-z
-x,y,z
x,-y,z
1/2+x,1/2+y,z
1/2-x,1/2-y,z
1/2+x,1/2-y,-z
1/2-x,1/2+y,-z
1/2-x,1/2-y,-z
1/2+x,1/2+y,-z
1/2-x,1/2+y,z
1/2+x,1/2-y,z
loop_
_atom_site_type_symbol
_atom_site_label
_atom_site_fract_x
_atom_site_fract_y
_atom_site_fract_z
Si Si1 0.776915 0.668673 0.206422
Si Si2 0.420163 0.416432 0.892537
Si Si3 0.769672 0.824906 0.424094
Si Si4 0.358909 0.582084 0.251517
Si Si5 0.239744 0.084969 0.074961
Si Si6 0.862695 0.583644 0.579953
Si Si7 0.580954 0.331926 0.365366
Si Si8 0.082659 0.677700 0.698601
O O1 0.750000 0.750000 0.194408
O O2 0.715623 0.629908 0.253136
O O3 0.783527 0.629349 0.132647
O O4 0.856170 0.660267 0.243859
O O5 0.500000 0.380741 0.914806
O O6 0.426683 0.500000 0.909026
O O7 0.409650 0.401319 0.813059
O O8 0.346197 0.387215 0.929496
O O9 0.742692 0.812785 0.500000
O O10 0.750000 0.750000 0.383666
O O11 0.720891 0.892224 0.398378
O O12 0.856878 0.840482 0.422892
O O13 0.332954 0.500000 0.253420
O O14 0.409755 0.600450 0.315554
O O15 0.241598 0.000000 0.094535
O O16 0.275092 0.097977 0.000000
O O17 0.881725 0.598616 0.500000
O O18 0.871571 0.500000 0.596422
O O19 0.915123 0.628607 0.630322
O O20 0.500000 0.333971 0.399867
O O21 0.593978 0.259900 0.322716
O O22 0.000000 0.666904 0.729805
#
# Coordination Sequence:
#
# PCOD8271514 Si02
#       8
#    16  16  16  16  16  16  16  16
#     4  11  21  37  60  85 115 154 195 240 290 347
#     4   8  14  26  46  75 112 147 178 220 275 327
#     4  10  20  36  57  78 105 145 189 232 280 341
#     4  10  20  34  55  82 111 149 191 229 272 332
#     4   9  19  35  55  82 114 151 199 247 288 340
#     4  10  22  40  63  89 115 149 196 249 300 350
#     4  11  22  34  53  82 114 148 185 227 279 340
#     4  11  24  39  57  85 120 154 191 240 299 355
#
# _framework density 19.432483000000001
#
# number of rings (size 3 to 8) (size 9 to 14) (size 15 to 20)
#    0.000    2.000    2.500    2.250    0.000    4.500 
#    0.000    3.125    0.000    0.375    0.000    3.500 
#    0.000    0.000    0.000    0.000    0.000    0.000 
#
# Total GULP energy -792859.044007 kJ/mol
# GULP energy per Si atom -12388.422563 kJ/mol
# Density = 1.938825 g / cm^3
# Si number density = 19.432483 Si / 1000 Ang^3
#
#
#
# Elastic Constant Matrix: (Units=GPa)
#
#
# Indices 1 2 3 4 5 6 
#
# 1 110.8754 23.5643 30.7117 0.0000 0.0000 0.0000
# 2 23.5643 72.5819 31.9657 0.0000 0.0000 0.0000
# 3 30.7117 31.9657 65.6214 0.0000 0.0000 0.0000
# 4 0.0000 0.0000 0.0000 20.4306 0.0000 0.0000
# 5 0.0000 0.0000 0.0000 0.0000 14.0267 0.0000
# 6 0.0000 0.0000 0.0000 0.0000 0.0000 16.9312
#
#
#
# Elastic Compliance Matrix: (Units=1/GPa)
#
#
# Indices 1 2 3 4 5 6 
#
# 1 0.010504 -0.001585 -0.004144 0.000000 0.000000 0.000000
# 2 -0.001585 0.017780 -0.007919 0.000000 0.000000 0.000000
# 3 -0.004144 -0.007919 0.021036 0.000000 0.000000 0.000000
# 4 0.000000 0.000000 0.000000 0.048946 0.000000 0.000000
# 5 0.000000 0.000000 0.000000 0.000000 0.071292 0.000000
# 6 0.000000 0.000000 0.000000 0.000000 0.000000 0.059063
#
#
# Mechanical properties :
#
#
# Convention : Reuss Voigt Hill
#
# Bulk Modulus (GPa) = 45.40616 46.84021 46.12318
# Shear Modulus (GPa) = 18.99280 21.13352 20.06316
#
# Velocity S-wave (km/s) = 3.12969 3.30136 3.21667
# Velocity P-wave (km/s) = 6.03960 6.22000 6.13046
#
# Compressibility (1/GPa) = 0.02202345
#
# Stress axis : x y z
#
# Youngs Moduli (GPa) = 95.20350 56.24358 47.53807
#
# Poissons Ratio (x) = 0.08916 0.19698
# Poissons Ratio (y) = 0.15092 0.37646
# Poissons Ratio (z) = 0.39450 0.44539
#
# Static dielectric constant tensor:
#      x y z
#    x 3.614590 0.000000 0.000000 
#    y 0.000000 3.476510 0.000000 
#    z 0.000000 0.000000 3.448130 
# 
# 
# High freq. dielectric constant tensor:
#      x y z
#    x 1.750110 0.000000 0.000000 
#    y 0.000000 1.740470 0.000000 
#    z 0.000000 0.000000 1.743020 
# 
# From -- ./inp_files/64096.got.cif
#   From: 2010.03.12/outbox.cif.g09.slc.cpg/sg65_33_cif.got.tgz:64096.got - 2010.04.10 20:52:16.
