data_PCOD8271532
_publ_section_title
;
Structure prediction by ZEFSAII (Michael W. Deem and Ramdas Pophale) SiO2 
 PCOD8271532
Probable space group: C M M M
;
_chemical_formula_sum "Si O2"
_cell_formula_units_Z 72
_cell_length_a 19.964786
_cell_length_b 7.990960
_cell_length_c 24.122947
_cell_angle_alpha 90.000000
_cell_angle_beta 90.000000
_cell_angle_gamma 90.000000
_cell_volume 3848.522047
_symmetry_space_group_name_H-M "C M M M"
_symmetry_group_IT_number 65
_symmetry_cell_setting 'orthorhombic'
loop_
_space_group_symop_operation_xyz
x,y,z
-x,-y,z
x,-y,-z
-x,y,-z
-x,-y,-z
x,y,-z
-x,y,z
x,-y,z
1/2+x,1/2+y,z
1/2-x,1/2-y,z
1/2+x,1/2-y,-z
1/2-x,1/2+y,-z
1/2-x,1/2-y,-z
1/2+x,1/2+y,-z
1/2-x,1/2+y,z
1/2+x,1/2-y,z
loop_
_atom_site_type_symbol
_atom_site_label
_atom_site_fract_x
_atom_site_fract_y
_atom_site_fract_z
Si Si1 0.922290 0.689517 0.635911
Si Si2 0.420727 0.500000 0.438247
Si Si3 0.923709 0.696345 0.062029
Si Si4 0.180270 0.190132 0.849965
Si Si5 0.176391 0.198334 0.727042
O O1 0.912572 0.500000 0.612170
O O2 0.896641 0.829606 0.592235
O O3 0.879805 0.708108 0.691666
O O4 0.000000 0.721143 0.650685
O O5 0.500000 0.500000 0.442037
O O6 0.389468 0.500000 0.500000
O O7 0.914465 0.500000 0.068718
O O8 0.879214 0.787056 0.107102
O O9 0.000000 0.749451 0.072927
O O10 0.902375 0.751872 0.000000
O O11 0.250000 0.250000 0.877142
O O12 0.166831 0.272211 0.789718
O O13 0.189485 0.000000 0.835654
O O14 0.250000 0.250000 0.705297
O O15 0.165613 0.000000 0.722003
#
# Coordination Sequence:
#
# PCOD8271532 Si02
#       5
#    16   8  16  16  16
#     4  10  20  34  55  84 113 145 186 226 270 326
#     4   9  18  34  56  82 114 148 182 228 274 313
#     4   9  19  36  55  74 100 136 175 217 269 324
#     4  10  21  35  53  77 105 136 175 221 265 318
#     4  10  20  35  54  78 108 143 180 222 274 327
#
# _framework density 18.708480999999999
#
# number of rings (size 3 to 8) (size 9 to 14) (size 15 to 20)
#    0.000    2.333    1.111    2.000    0.000    5.333 
#    0.000    7.778    0.000    0.667    0.000    0.000 
#    0.000    0.000    0.000    0.000    0.000    0.000 
#
# Total GULP energy -446267.473325 kJ/mol
# GULP energy per Si atom -12396.318703 kJ/mol
# Density = 1.866590 g / cm^3
# Si number density = 18.708481 Si / 1000 Ang^3
#
#
#
# Elastic Constant Matrix: (Units=GPa)
#
#
# Indices 1 2 3 4 5 6 
#
# 1 78.4674 31.9593 57.3575 0.0000 0.0000 0.0000
# 2 31.9593 94.0585 43.4147 0.0000 0.0000 0.0000
# 3 57.3575 43.4147 111.7448 0.0000 0.0000 0.0000
# 4 0.0000 0.0000 0.0000 23.2289 0.0000 0.0000
# 5 0.0000 0.0000 0.0000 0.0000 0.4419 0.0000
# 6 0.0000 0.0000 0.0000 0.0000 0.0000 29.0631
#
#
#
# Elastic Compliance Matrix: (Units=1/GPa)
#
#
# Indices 1 2 3 4 5 6 
#
# 1 0.020915 -0.002621 -0.009717 0.000000 0.000000 0.000000
# 2 -0.002621 0.013283 -0.003815 0.000000 0.000000 0.000000
# 3 -0.009717 -0.003815 0.015419 0.000000 0.000000 0.000000
# 4 0.000000 0.000000 0.000000 0.043050 0.000000 0.000000
# 5 0.000000 0.000000 0.000000 0.000000 2.262899 0.000000
# 6 0.000000 0.000000 0.000000 0.000000 0.000000 0.034408
#
#
# Mechanical properties :
#
#
# Convention : Reuss Voigt Hill
#
# Bulk Modulus (GPa) = 57.77066 61.08154 59.42610
# Shear Modulus (GPa) = 2.05927 20.64939 11.35433
#
# Velocity S-wave (km/s) = 1.05029 3.32587 2.46622
# Velocity P-wave (km/s) = 5.69361 6.88974 6.32004
#
# Compressibility (1/GPa) = 0.01730983
#
# Stress axis : x y z
#
# Youngs Moduli (GPa) = 47.81370 75.28187 64.85595
#
# Poissons Ratio (x) = 0.19734 0.63019
# Poissons Ratio (y) = 0.12534 0.24744
# Poissons Ratio (z) = 0.46459 0.28722
#
# Static dielectric constant tensor:
#      x y z
#    x 3.269030 0.000000 0.000000 
#    y 0.000000 3.521500 0.000000 
#    z 0.000000 0.000000 3.657820 
# 
# 
# High freq. dielectric constant tensor:
#      x y z
#    x 1.712440 0.000000 0.000000 
#    y 0.000000 1.735940 0.000000 
#    z 0.000000 0.000000 1.717080 
# 
# From -- ./inp_files/64326.got.cif
#   From: 2010.03.12/outbox.cif.g09.slc.cpg/sg65_33_cif.got.tgz:64326.got - 2010.04.10 20:52:16.
