data_PCOD8271902
_publ_section_title
;
Structure prediction by ZEFSAII (Michael W. Deem and Ramdas Pophale) SiO2 
 PCOD8271902
Probable space group: C M M M
;
_chemical_formula_sum "Si O2"
_cell_formula_units_Z 104
_cell_length_a 28.966342
_cell_length_b 26.366450
_cell_length_c 7.746784
_cell_angle_alpha 90.000000
_cell_angle_beta 90.000000
_cell_angle_gamma 90.000000
_cell_volume 5916.525776
_symmetry_space_group_name_H-M "C M M M"
_symmetry_group_IT_number 65
_symmetry_cell_setting 'orthorhombic'
loop_
_space_group_symop_operation_xyz
x,y,z
-x,-y,z
x,-y,-z
-x,y,-z
-x,-y,-z
x,y,-z
-x,y,z
x,-y,z
1/2+x,1/2+y,z
1/2-x,1/2-y,z
1/2+x,1/2-y,-z
1/2-x,1/2+y,-z
1/2-x,1/2-y,-z
1/2+x,1/2+y,-z
1/2-x,1/2+y,z
1/2+x,1/2-y,z
loop_
_atom_site_type_symbol
_atom_site_label
_atom_site_fract_x
_atom_site_fract_y
_atom_site_fract_z
Si Si1 0.798594 0.942263 0.300930
Si Si2 0.799012 0.557054 0.203214
Si Si3 0.051750 0.500000 0.206116
Si Si4 0.395797 0.440554 0.806727
Si Si5 0.945835 0.697572 0.199593
Si Si6 0.054782 0.114791 0.500000
Si Si7 0.105642 0.597075 0.795346
Si Si8 0.445634 0.271584 0.500000
O O1 0.810635 0.937241 0.500000
O O2 0.749432 0.915894 0.257405
O O3 0.843024 0.919261 0.202801
O O4 0.792205 0.000000 0.239662
O O5 0.803201 0.500000 0.282234
O O6 0.841406 0.591691 0.271277
O O7 0.802001 0.553139 0.000000
O O8 0.076940 0.450182 0.279800
O O9 0.000000 0.500000 0.277633
O O10 0.052724 0.500000 0.000000
O O11 0.395761 0.500000 0.759143
O O12 0.428609 0.412484 0.673258
O O13 0.414698 0.431032 0.000000
O O14 0.916997 0.649336 0.267658
O O15 0.929983 0.743331 0.324189
O O16 0.000000 0.685105 0.220313
O O17 0.934527 0.711621 0.000000
O O18 0.075186 0.171863 0.500000
O O19 0.000000 0.113641 0.500000
O O20 0.103358 0.595620 0.000000
O O21 0.500000 0.275819 0.500000
#
# Coordination Sequence:
#
# PCOD8271902 Si02
#       8
#    16  16   8  16  16   8  16   8
#     4   9  16  28  46  68  99 138 175 206 239 281
#     4   9  15  24  39  63  97 132 169 214 260 304
#     4   9  14  20  34  59  93 133 174 211 257 323
#     4  10  20  35  56  83 114 145 172 194 226 282
#     4   9  17  31  51  71  93 127 174 223 267 311
#     4  11  23  38  57  81 111 141 168 201 239 284
#     4   9  15  24  39  64  96 131 170 217 268 316
#     4   9  20  37  54  73  96 126 167 217 262 292
#
# _framework density 17.577884000000001
#
# number of rings (size 3 to 8) (size 9 to 14) (size 15 to 20)
#    0.000    2.692    1.538    1.154    0.000    5.231 
#    1.385    2.308    0.000    0.462    0.000    4.308 
#    0.000    4.923    0.000    0.000    0.000    0.000 
#
# Total GULP energy -644461.236200 kJ/mol
# GULP energy per Si atom -12393.485312 kJ/mol
# Density = 1.753788 g / cm^3
# Si number density = 17.577884 Si / 1000 Ang^3
#
#
#
# Elastic Constant Matrix: (Units=GPa)
#
#
# Indices 1 2 3 4 5 6 
#
# 1 106.9785 48.1713 36.3647 0.0000 0.0000 0.0000
# 2 48.1713 94.1081 45.4557 0.0000 0.0000 0.0000
# 3 36.3647 45.4557 75.6589 0.0000 0.0000 0.0000
# 4 0.0000 0.0000 0.0000 12.2901 0.0000 0.0000
# 5 0.0000 0.0000 0.0000 0.0000 19.2515 0.0000
# 6 0.0000 0.0000 0.0000 0.0000 0.0000 9.5731
#
#
#
# Elastic Compliance Matrix: (Units=1/GPa)
#
#
# Indices 1 2 3 4 5 6 
#
# 1 0.012638 -0.004980 -0.003082 0.000000 0.000000 0.000000
# 2 -0.004980 0.016933 -0.007780 0.000000 0.000000 0.000000
# 3 -0.003082 -0.007780 0.019373 0.000000 0.000000 0.000000
# 4 0.000000 0.000000 0.000000 0.081366 0.000000 0.000000
# 5 0.000000 0.000000 0.000000 0.000000 0.051944 0.000000
# 6 0.000000 0.000000 0.000000 0.000000 0.000000 0.104459
#
#
# Mechanical properties :
#
#
# Convention : Reuss Voigt Hill
#
# Bulk Modulus (GPa) = 57.93919 59.63655 58.78787
# Shear Modulus (GPa) = 15.42497 18.00654 16.71576
#
# Velocity S-wave (km/s) = 2.96551 3.20408 3.08710
# Velocity P-wave (km/s) = 6.69019 6.90571 6.79880
#
# Compressibility (1/GPa) = 0.01725947
#
# Stress axis : x y z
#
# Youngs Moduli (GPa) = 79.12685 59.05627 51.61936
#
# Poissons Ratio (x) = 0.29412 0.15910
# Poissons Ratio (y) = 0.39407 0.40158
# Poissons Ratio (z) = 0.24388 0.45943
#
# Static dielectric constant tensor:
#      x y z
#    x 3.428540 0.000000 0.000000 
#    y 0.000000 3.114430 0.000000 
#    z 0.000000 0.000000 3.134640 
# 
# 
# High freq. dielectric constant tensor:
#      x y z
#    x 1.679720 0.000000 0.000000 
#    y 0.000000 1.628350 0.000000 
#    z 0.000000 0.000000 1.676850 
# 
# From -- ./inp_files/16849.got.cif
#   From: 2010.03.12/outbox.cif.g09.slc.cpg/sg65_9_cif.got.tgz:16849.got - 2010.04.10 20:52:16.
