data_PCOD8271495
_publ_section_title
;
Structure prediction by ZEFSAII (Michael W. Deem and Ramdas Pophale) SiO2 
 PCOD8271495
Probable space group: C M M M
;
_chemical_formula_sum "Si O2"
_cell_formula_units_Z 88
_cell_length_a 29.603906
_cell_length_b 9.487634
_cell_length_c 16.824720
_cell_angle_alpha 90.000000
_cell_angle_beta 90.000000
_cell_angle_gamma 90.000000
_cell_volume 4725.576353
_symmetry_space_group_name_H-M "C M M M"
_symmetry_group_IT_number 65
_symmetry_cell_setting 'orthorhombic'
loop_
_space_group_symop_operation_xyz
x,y,z
-x,-y,z
x,-y,-z
-x,y,-z
-x,-y,-z
x,y,-z
-x,y,z
x,-y,z
1/2+x,1/2+y,z
1/2-x,1/2-y,z
1/2+x,1/2-y,-z
1/2-x,1/2+y,-z
1/2-x,1/2-y,-z
1/2+x,1/2+y,-z
1/2-x,1/2+y,z
1/2+x,1/2-y,z
loop_
_atom_site_type_symbol
_atom_site_label
_atom_site_fract_x
_atom_site_fract_y
_atom_site_fract_z
Si Si1 0.205922 0.836150 0.908595
Si Si2 0.123425 0.163817 0.373081
Si Si3 0.449565 0.665370 0.500000
Si Si4 0.619155 0.662618 0.187509
Si Si5 0.210236 0.656791 0.591432
Si Si6 0.052526 0.340533 0.089359
O O1 0.250000 0.750000 0.883603
O O2 0.165831 0.782917 0.851273
O O3 0.216573 0.000000 0.895286
O O4 0.192295 0.805438 0.000000
O O5 0.078265 0.209564 0.420861
O O6 0.117008 0.191787 0.280546
O O7 0.163348 0.262070 0.402698
O O8 0.135334 0.000000 0.390407
O O9 0.456233 0.500000 0.500000
O O10 0.500000 0.735664 0.500000
O O11 0.613226 0.500000 0.166467
O O12 0.577100 0.742285 0.151288
O O13 0.222784 0.636149 0.500000
O O14 0.207579 0.500000 0.631071
O O15 0.250000 0.750000 0.632795
O O16 0.069727 0.500000 0.099693
O O17 0.000000 0.330832 0.108352
O O18 0.062619 0.288262 0.000000
#
# Coordination Sequence:
#
# PCOD8271495 Si02
#       6
#    16  16   8  16  16  16
#     4   9  18  33  51  72 102 138 176 215 256 307
#     4  10  20  35  55  79 109 142 180 225 272 326
#     4   9  18  34  56  77 100 137 180 221 268 323
#     4  10  21  34  52  81 111 140 176 224 275 321
#     4  10  20  34  55  80 106 138 177 220 269 322
#     4   9  19  36  56  78 106 141 180 221 269 327
#
# _framework density 18.622067000000001
#
# number of rings (size 3 to 8) (size 9 to 14) (size 15 to 20)
#    0.000    2.455    0.909    1.636    0.000    5.091 
#    0.000    6.364    0.000    1.091    0.000    0.000 
#    0.000    0.000    0.000    0.000    0.000    0.000 
#
# Total GULP energy -545543.909567 kJ/mol
# GULP energy per Si atom -12398.725217 kJ/mol
# Density = 1.857968 g / cm^3
# Si number density = 18.622067 Si / 1000 Ang^3
#
#
#
# Elastic Constant Matrix: (Units=GPa)
#
#
# Indices 1 2 3 4 5 6 
#
# 1 128.4469 54.7464 58.9273 0.0000 0.0000 0.0000
# 2 54.7464 71.1813 37.7502 0.0000 0.0000 0.0000
# 3 58.9273 37.7502 101.8559 0.0000 0.0000 0.0000
# 4 0.0000 0.0000 0.0000 19.7701 0.0000 0.0000
# 5 0.0000 0.0000 0.0000 0.0000 -379.2445 0.0000
# 6 0.0000 0.0000 0.0000 0.0000 0.0000 36.0435
#
#
#
# Elastic Compliance Matrix: (Units=1/GPa)
#
#
# Indices 1 2 3 4 5 6 
#
# 1 0.013259 -0.007629 -0.004843 0.000000 0.000000 0.000000
# 2 -0.007629 0.021875 -0.003694 0.000000 0.000000 0.000000
# 3 -0.004843 -0.003694 0.013989 0.000000 0.000000 0.000000
# 4 0.000000 0.000000 0.000000 0.050582 0.000000 0.000000
# 5 0.000000 0.000000 0.000000 0.000000 -0.002637 0.000000
# 6 0.000000 0.000000 0.000000 0.000000 0.000000 0.027744
#
#
# Mechanical properties :
#
#
# Convention : Reuss Voigt Hill
#
# Bulk Modulus (GPa) = 59.55669 67.14800 63.35235
# Shear Modulus (GPa) = 30.72372 -54.68217 -11.97923
#
# Velocity S-wave (km/s) = 4.06625 -5.42475 -2.53905
# Velocity P-wave (km/s) = 7.35507 1.76087 5.04957
#
# Compressibility (1/GPa) = 0.01679073
#
# Stress axis : x y z
#
# Youngs Moduli (GPa) = 75.42130 45.71398 71.48583
#
# Poissons Ratio (x) = 0.34875 0.34622
# Poissons Ratio (y) = 0.57539 0.26405
# Poissons Ratio (z) = 0.36528 0.16886
#
# Static dielectric constant tensor:
#      x y z
#    x 3.448770 0.000000 0.000000 
#    y 0.000000 3.465920 0.000000 
#    z 0.000000 0.000000 2.946280 
# 
# 
# High freq. dielectric constant tensor:
#      x y z
#    x 1.725030 0.000000 0.000000 
#    y 0.000000 1.713600 0.000000 
#    z 0.000000 0.000000 1.715730 
# 
# From -- ./inp_files/58033.got.cif
#   From: 2010.03.12/outbox.cif.g09.slc.cpg/sg65_30_cif.got.tgz:58033.got - 2010.04.10 20:52:16.
