data_PCOD8271945
_publ_section_title
;
Structure prediction by ZEFSAII (Michael W. Deem and Ramdas Pophale) SiO2 
 PCOD8271945
Probable space group: C M M M
;
_chemical_formula_sum "Si O2"
_cell_formula_units_Z 72
_cell_length_a 18.180835
_cell_length_b 8.919449
_cell_length_c 24.574931
_cell_angle_alpha 90.000000
_cell_angle_beta 90.000000
_cell_angle_gamma 90.000000
_cell_volume 3985.145287
_symmetry_space_group_name_H-M "C M M M"
_symmetry_group_IT_number 65
_symmetry_cell_setting 'orthorhombic'
loop_
_space_group_symop_operation_xyz
x,y,z
-x,-y,z
x,-y,-z
-x,y,-z
-x,-y,-z
x,y,-z
-x,y,z
x,-y,z
1/2+x,1/2+y,z
1/2-x,1/2-y,z
1/2+x,1/2-y,-z
1/2-x,1/2+y,-z
1/2-x,1/2-y,-z
1/2+x,1/2+y,-z
1/2-x,1/2+y,z
1/2+x,1/2-y,z
loop_
_atom_site_type_symbol
_atom_site_label
_atom_site_fract_x
_atom_site_fract_y
_atom_site_fract_z
Si Si1 0.824561 0.166863 0.855702
Si Si2 0.415136 0.823523 0.762386
Si Si3 0.413136 0.331677 0.347214
Si Si4 0.086548 0.000000 0.063345
Si Si5 0.174005 0.324061 0.562189
O O1 0.750000 0.250000 0.873045
O O2 0.866860 0.264475 0.811668
O O3 0.876692 0.148074 0.909117
O O4 0.806846 0.000000 0.832050
O O5 0.500000 0.778801 0.772627
O O6 0.384343 0.749432 0.707181
O O7 0.405459 0.000000 0.757010
O O8 0.500000 0.333849 0.346952
O O9 0.380965 0.500000 0.348931
O O10 0.389896 0.240690 0.400405
O O11 0.000000 0.000000 0.074922
O O12 0.104856 0.000000 0.000000
O O13 0.154996 0.282237 0.500000
O O14 0.180463 0.500000 0.570590
O O15 0.250000 0.250000 0.580638
#
# Coordination Sequence:
#
# PCOD8271945 Si02
#       5
#    16  16  16   8  16
#     4  10  21  35  57  85 119 152 193 238 286 338
#     4  10  20  35  57  82 113 150 189 235 286 345
#     4  10  21  36  55  81 111 145 186 231 282 338
#     4   9  20  38  62  88 117 159 202 238 285 346
#     4  10  21  37  56  77 104 140 183 231 285 344
#
# _framework density 18.067095999999999
#
# number of rings (size 3 to 8) (size 9 to 14) (size 15 to 20)
#    0.667    1.444    0.000    3.333    0.000    5.333 
#    0.000    6.667    0.000    0.000    0.000    4.667 
#    0.000    0.000    0.000    0.000    0.000    0.000 
#
# Total GULP energy -446369.410586 kJ/mol
# GULP energy per Si atom -12399.150294 kJ/mol
# Density = 1.802597 g / cm^3
# Si number density = 18.067096 Si / 1000 Ang^3
#
#
#
# Elastic Constant Matrix: (Units=GPa)
#
#
# Indices 1 2 3 4 5 6 
#
# 1 77.4226 40.6743 57.6486 0.0000 0.0000 0.0000
# 2 40.6743 93.3965 47.4229 0.0000 0.0000 0.0000
# 3 57.6486 47.4229 126.9609 0.0000 0.0000 0.0000
# 4 0.0000 0.0000 0.0000 27.7908 0.0000 0.0000
# 5 0.0000 0.0000 0.0000 0.0000 12.0279 0.0000
# 6 0.0000 0.0000 0.0000 0.0000 0.0000 35.6848
#
#
#
# Elastic Compliance Matrix: (Units=1/GPa)
#
#
# Indices 1 2 3 4 5 6 
#
# 1 0.021549 -0.005450 -0.007749 0.000000 0.000000 0.000000
# 2 -0.005450 0.014591 -0.002976 0.000000 0.000000 0.000000
# 3 -0.007749 -0.002976 0.012506 0.000000 0.000000 0.000000
# 4 0.000000 0.000000 0.000000 0.035983 0.000000 0.000000
# 5 0.000000 0.000000 0.000000 0.000000 0.083140 0.000000
# 6 0.000000 0.000000 0.000000 0.000000 0.000000 0.028023
#
#
# Mechanical properties :
#
#
# Convention : Reuss Voigt Hill
#
# Bulk Modulus (GPa) = 61.35805 65.47463 63.41634
# Shear Modulus (GPa) = 21.40635 25.23630 23.32133
#
# Velocity S-wave (km/s) = 3.44586 3.74145 3.59669
# Velocity P-wave (km/s) = 7.06165 7.41505 7.24051
#
# Compressibility (1/GPa) = 0.01629778
#
# Stress axis : x y z
#
# Youngs Moduli (GPa) = 46.40529 68.53342 79.95876
#
# Poissons Ratio (x) = 0.37351 0.61960
# Poissons Ratio (y) = 0.25291 0.23792
# Poissons Ratio (z) = 0.35960 0.20392
#
# Static dielectric constant tensor:
#      x y z
#    x 3.253570 0.000000 0.000000 
#    y 0.000000 3.470740 0.000000 
#    z 0.000000 0.000000 3.262890 
# 
# 
# High freq. dielectric constant tensor:
#      x y z
#    x 1.696690 0.000000 0.000000 
#    y 0.000000 1.708140 0.000000 
#    z 0.000000 0.000000 1.696590 
# 
# From -- ./inp_files/64313.got.cif
#   From: 2010.03.12/outbox.cif.g09.slc.cpg/sg65_33_cif.got.tgz:64313.got - 2010.04.10 20:52:16.
