data_PCOD8271284
_publ_section_title
;
Structure prediction by ZEFSAII (Michael W. Deem and Ramdas Pophale) SiO2 
 PCOD8271284
Probable space group: C M M M
;
_chemical_formula_sum "Si O2"
_cell_formula_units_Z 64
_cell_length_a 30.093951
_cell_length_b 7.654700
_cell_length_c 14.095219
_cell_angle_alpha 90.000000
_cell_angle_beta 90.000000
_cell_angle_gamma 90.000000
_cell_volume 3246.976999
_symmetry_space_group_name_H-M "C M M M"
_symmetry_group_IT_number 65
_symmetry_cell_setting 'orthorhombic'
loop_
_space_group_symop_operation_xyz
x,y,z
-x,-y,z
x,-y,-z
-x,y,-z
-x,-y,-z
x,y,-z
-x,y,z
x,-y,z
1/2+x,1/2+y,z
1/2-x,1/2-y,z
1/2+x,1/2-y,-z
1/2-x,1/2+y,-z
1/2-x,1/2-y,-z
1/2+x,1/2+y,-z
1/2-x,1/2+y,z
1/2+x,1/2-y,z
loop_
_atom_site_type_symbol
_atom_site_label
_atom_site_fract_x
_atom_site_fract_y
_atom_site_fract_z
Si Si1 0.500000 0.809091 0.890054
Si Si2 0.905012 0.802505 0.894364
Si Si3 0.797102 0.295731 0.394826
Si Si4 0.886575 0.699700 0.303480
Si Si5 0.447210 0.500000 0.612528
O O1 0.543261 0.698383 0.863853
O O2 0.500000 0.000000 0.838059
O O3 0.500000 0.846917 0.000000
O O4 0.880692 0.697049 0.811145
O O5 0.887909 0.000000 0.895021
O O6 0.897268 0.719516 0.000000
O O7 0.796867 0.211181 0.500000
O O8 0.802987 0.500000 0.400470
O O9 0.750000 0.250000 0.344056
O O10 0.839757 0.221515 0.339892
O O11 0.895744 0.500000 0.337724
O O12 0.925766 0.825749 0.340945
O O13 0.500000 0.500000 0.633556
O O14 0.437983 0.500000 0.500000
#
# Coordination Sequence:
#
# PCOD8271284 Si02
#       5
#     8  16  16  16   8
#     4   9  17  29  47  73 103 140 187 239 291 337
#     4  10  20  34  53  79 112 150 194 243 292 343
#     4   9  19  35  58  88 115 144 186 241 304 358
#     4  11  23  39  61  88 120 157 199 246 295 356
#     4  11  26  44  61  85 119 163 208 244 292 354
#
# _framework density 19.710643000000001
#
# number of rings (size 3 to 8) (size 9 to 14) (size 15 to 20)
#    0.000    2.000    1.250    1.875    3.500    5.000 
#    0.000    1.250    0.000    0.750    0.000    0.000 
#    0.000    0.000    0.000    0.000    0.000    0.000 
#
# Total GULP energy -396474.342645 kJ/mol
# GULP energy per Si atom -12389.823208 kJ/mol
# Density = 1.966578 g / cm^3
# Si number density = 19.710643 Si / 1000 Ang^3
#
#
#
# Elastic Constant Matrix: (Units=GPa)
#
#
# Indices 1 2 3 4 5 6 
#
# 1 137.5471 30.0532 60.0940 0.0000 0.0000 0.0000
# 2 30.0532 85.8892 21.1774 0.0000 0.0000 0.0000
# 3 60.0940 21.1774 113.6598 0.0000 0.0000 0.0000
# 4 0.0000 0.0000 0.0000 22.1285 0.0000 0.0000
# 5 0.0000 0.0000 0.0000 0.0000 21.1716 0.0000
# 6 0.0000 0.0000 0.0000 0.0000 0.0000 16.8419
#
#
#
# Elastic Compliance Matrix: (Units=1/GPa)
#
#
# Indices 1 2 3 4 5 6 
#
# 1 0.009859 -0.002269 -0.004790 0.000000 0.000000 0.000000
# 2 -0.002269 0.012726 -0.001172 0.000000 0.000000 0.000000
# 3 -0.004790 -0.001172 0.011549 0.000000 0.000000 0.000000
# 4 0.000000 0.000000 0.000000 0.045191 0.000000 0.000000
# 5 0.000000 0.000000 0.000000 0.000000 0.047233 0.000000
# 6 0.000000 0.000000 0.000000 0.000000 0.000000 0.059376
#
#
# Mechanical properties :
#
#
# Convention : Reuss Voigt Hill
#
# Bulk Modulus (GPa) = 56.58288 62.19391 59.38840
# Shear Modulus (GPa) = 24.00576 27.07982 25.54279
#
# Velocity S-wave (km/s) = 3.49364 3.71059 3.60375
# Velocity P-wave (km/s) = 6.71142 7.06965 6.89286
#
# Compressibility (1/GPa) = 0.01767319
#
# Stress axis : x y z
#
# Youngs Moduli (GPa) = 101.43524 78.58188 86.58851
#
# Poissons Ratio (x) = 0.17827 0.41473
# Poissons Ratio (y) = 0.23011 0.10145
# Poissons Ratio (z) = 0.48584 0.09207
#
# Static dielectric constant tensor:
#      x y z
#    x 3.761800 0.000000 0.000000 
#    y 0.000000 3.459660 0.000000 
#    z 0.000000 0.000000 3.806350 
# 
# 
# High freq. dielectric constant tensor:
#      x y z
#    x 1.747060 0.000000 0.000000 
#    y 0.000000 1.770460 0.000000 
#    z 0.000000 0.000000 1.758490 
# 
# From -- ./inp_files/47359.got.cif
#   From: 2010.03.12/outbox.cif.g09.slc.cpg/sg65_24_cif.got.tgz:47359.got - 2010.04.10 20:52:16.
