data_PCOD8271293
_publ_section_title
;
Structure prediction by ZEFSAII (Michael W. Deem and Ramdas Pophale) SiO2 
 PCOD8271293
Probable space group: C M M M
;
_chemical_formula_sum "Si O2"
_cell_formula_units_Z 88
_cell_length_a 21.162238
_cell_length_b 15.545240
_cell_length_c 14.037760
_cell_angle_alpha 90.000000
_cell_angle_beta 90.000000
_cell_angle_gamma 90.000000
_cell_volume 4618.030946
_symmetry_space_group_name_H-M "C M M M"
_symmetry_group_IT_number 65
_symmetry_cell_setting 'orthorhombic'
loop_
_space_group_symop_operation_xyz
x,y,z
-x,-y,z
x,-y,-z
-x,y,-z
-x,-y,-z
x,y,-z
-x,y,z
x,-y,z
1/2+x,1/2+y,z
1/2-x,1/2-y,z
1/2+x,1/2-y,-z
1/2-x,1/2+y,-z
1/2-x,1/2-y,-z
1/2+x,1/2+y,-z
1/2-x,1/2+y,z
1/2+x,1/2-y,z
loop_
_atom_site_type_symbol
_atom_site_label
_atom_site_fract_x
_atom_site_fract_y
_atom_site_fract_z
Si Si1 0.500000 0.399037 0.606454
Si Si2 0.070724 0.677541 0.394640
Si Si3 0.811778 0.197495 0.392355
Si Si4 0.425250 0.733477 0.109912
Si Si5 0.072654 0.407026 0.202528
Si Si6 0.385112 0.599388 0.740270
O O1 0.500000 0.500000 0.591275
O O2 0.500000 0.355550 0.500000
O O3 0.561156 0.372257 0.665850
O O4 0.075391 0.635809 0.500000
O O5 0.125710 0.745778 0.380524
O O6 0.079755 0.603573 0.316393
O O7 0.000000 0.720570 0.380589
O O8 0.805115 0.161667 0.500000
O O9 0.750000 0.250000 0.363061
O O10 0.819649 0.119502 0.316561
O O11 0.500000 0.726986 0.128091
O O12 0.397648 0.825307 0.147080
O O13 0.390868 0.655863 0.164526
O O14 0.407720 0.723665 0.000000
O O15 0.104018 0.500000 0.175292
O O16 0.000000 0.411177 0.172139
O O17 0.388358 0.500000 0.770577
#
# Coordination Sequence:
#
# PCOD8271293 Si02
#       6
#     8  16  16  16  16  16
#     4   9  18  30  49  83 118 147 185 231 275 329
#     4   9  17  30  52  80 111 148 186 226 278 343
#     4  10  21  36  55  81 117 156 193 233 282 342
#     4  10  20  34  53  81 118 153 189 241 302 352
#     4   9  17  30  49  76 109 144 189 240 288 338
#     4  11  21  35  56  83 116 153 195 237 284 343
#
# _framework density 19.05574
#
# number of rings (size 3 to 8) (size 9 to 14) (size 15 to 20)
#    0.000    2.273    2.727    0.545    1.273    2.182 
#    0.000    5.455    0.000    3.818    0.000    0.000 
#    0.000    0.000    0.000    0.000    0.000    0.000 
#
# Total GULP energy -545244.251587 kJ/mol
# GULP energy per Si atom -12391.914809 kJ/mol
# Density = 1.901237 g / cm^3
# Si number density = 19.055740 Si / 1000 Ang^3
#
#
#
# Elastic Constant Matrix: (Units=GPa)
#
#
# Indices 1 2 3 4 5 6 
#
# 1 58.2477 35.4889 29.0853 0.0000 0.0000 0.0000
# 2 35.4889 136.9140 72.6378 0.0000 0.0000 0.0000
# 3 29.0853 72.6378 135.1233 0.0000 0.0000 0.0000
# 4 0.0000 0.0000 0.0000 17.2125 0.0000 0.0000
# 5 0.0000 0.0000 0.0000 0.0000 16.1414 0.0000
# 6 0.0000 0.0000 0.0000 0.0000 0.0000 17.6315
#
#
#
# Elastic Compliance Matrix: (Units=1/GPa)
#
#
# Indices 1 2 3 4 5 6 
#
# 1 0.020851 -0.004230 -0.002214 0.000000 0.000000 0.000000
# 2 -0.004230 0.011076 -0.005044 0.000000 0.000000 0.000000
# 3 -0.002214 -0.005044 0.010589 0.000000 0.000000 0.000000
# 4 0.000000 0.000000 0.000000 0.058097 0.000000 0.000000
# 5 0.000000 0.000000 0.000000 0.000000 0.061952 0.000000
# 6 0.000000 0.000000 0.000000 0.000000 0.000000 0.056717
#
#
# Mechanical properties :
#
#
# Convention : Reuss Voigt Hill
#
# Bulk Modulus (GPa) = 51.17739 67.18989 59.18364
# Shear Modulus (GPa) = 20.09881 23.06862 21.58372
#
# Velocity S-wave (km/s) = 3.25120 3.48312 3.36916
# Velocity P-wave (km/s) = 6.40380 7.17721 6.80151
#
# Compressibility (1/GPa) = 0.01953988
#
# Stress axis : x y z
#
# Youngs Moduli (GPa) = 47.95944 90.28429 94.44134
#
# Poissons Ratio (x) = 0.38190 0.20912
# Poissons Ratio (y) = 0.20287 0.47633
# Poissons Ratio (z) = 0.10620 0.45536
#
# Static dielectric constant tensor:
#      x y z
#    x 3.212880 0.000000 0.000000 
#    y 0.000000 3.511900 0.000000 
#    z 0.000000 0.000000 3.515730 
# 
# 
# High freq. dielectric constant tensor:
#      x y z
#    x 1.689560 0.000000 0.000000 
#    y 0.000000 1.739350 0.000000 
#    z 0.000000 0.000000 1.738030 
# 
# From -- ./inp_files/44005.got.cif
#   From: 2010.03.12/outbox.cif.g09.slc.cpg/sg65_23_cif.got.tgz:44005.got - 2010.04.10 20:52:16.
