data_PCOD8271253
_publ_section_title
;
Structure prediction by ZEFSAII (Michael W. Deem and Ramdas Pophale) SiO2 
 PCOD8271253
Probable space group: C M M M
;
_chemical_formula_sum "Si O2"
_cell_formula_units_Z 96
_cell_length_a 30.383210
_cell_length_b 19.412627
_cell_length_c 8.945849
_cell_angle_alpha 90.000000
_cell_angle_beta 90.000000
_cell_angle_gamma 90.000000
_cell_volume 5276.422075
_symmetry_space_group_name_H-M "C M M M"
_symmetry_group_IT_number 65
_symmetry_cell_setting 'orthorhombic'
loop_
_space_group_symop_operation_xyz
x,y,z
-x,-y,z
x,-y,-z
-x,y,-z
-x,-y,-z
x,y,-z
-x,y,z
x,-y,z
1/2+x,1/2+y,z
1/2-x,1/2-y,z
1/2+x,1/2-y,-z
1/2-x,1/2+y,-z
1/2-x,1/2-y,-z
1/2+x,1/2+y,-z
1/2-x,1/2+y,z
1/2+x,1/2-y,z
loop_
_atom_site_type_symbol
_atom_site_label
_atom_site_fract_x
_atom_site_fract_y
_atom_site_fract_z
Si Si1 0.870307 0.299061 0.823419
Si Si2 0.331049 0.077892 0.671740
Si Si3 0.262155 0.421780 0.824713
Si Si4 0.049081 0.790989 0.825276
Si Si5 0.204992 0.209519 0.324893
Si Si6 0.552309 0.574606 0.331884
O O1 0.867789 0.373300 0.744274
O O2 0.918744 0.271185 0.781903
O O3 0.833701 0.248413 0.759282
O O4 0.863668 0.306361 0.000000
O O5 0.321880 0.098964 0.500000
O O6 0.286736 0.088394 0.763607
O O7 0.348575 0.000000 0.683204
O O8 0.278434 0.500000 0.792980
O O9 0.293532 0.368133 0.739706
O O10 0.262059 0.405363 0.000000
O O11 0.070375 0.862048 0.764700
O O12 0.000000 0.776284 0.759417
O O13 0.046064 0.800520 0.000000
O O14 0.194674 0.206225 0.500000
O O15 0.250000 0.250000 0.291644
O O16 0.569542 0.584339 0.500000
O O17 0.500000 0.575589 0.327489
O O18 0.568858 0.500000 0.269840
#
# Coordination Sequence:
#
# PCOD8271253 Si02
#       6
#    16  16  16  16  16  16
#     4  11  22  35  55  80 106 139 177 219 264 313
#     4  10  20  34  53  78 107 137 172 215 260 311
#     4  10  20  34  54  79 107 141 179 218 260 309
#     4   9  19  35  53  76 105 136 174 220 268 314
#     4  11  22  35  53  78 108 142 175 214 260 308
#     4   8  14  26  46  72  99 128 166 210 254 303
#
# _framework density 18.194146
#
# number of rings (size 3 to 8) (size 9 to 14) (size 15 to 20)
#    0.000    2.167    1.667    2.500    0.000    4.333 
#    0.000    2.500    0.000    1.500    0.000    3.500 
#    0.000    0.000    0.000    0.000    0.000    0.000 
#
# Total GULP energy -595094.575113 kJ/mol
# GULP energy per Si atom -12397.803648 kJ/mol
# Density = 1.815274 g / cm^3
# Si number density = 18.194146 Si / 1000 Ang^3
#
#
#
# Elastic Constant Matrix: (Units=GPa)
#
#
# Indices 1 2 3 4 5 6 
#
# 1 52.4928 38.6190 16.6844 0.0000 0.0000 0.0000
# 2 38.6190 128.1123 38.5495 0.0000 0.0000 0.0000
# 3 16.6844 38.5495 36.2600 0.0000 0.0000 0.0000
# 4 0.0000 0.0000 0.0000 36.9707 0.0000 0.0000
# 5 0.0000 0.0000 0.0000 0.0000 14.1150 0.0000
# 6 0.0000 0.0000 0.0000 0.0000 0.0000 21.0271
#
#
#
# Elastic Compliance Matrix: (Units=1/GPa)
#
#
# Indices 1 2 3 4 5 6 
#
# 1 0.025118 -0.006020 -0.005158 0.000000 0.000000 0.000000
# 2 -0.006020 0.012920 -0.010966 0.000000 0.000000 0.000000
# 3 -0.005158 -0.010966 0.041610 0.000000 0.000000 0.000000
# 4 0.000000 0.000000 0.000000 0.027048 0.000000 0.000000
# 5 0.000000 0.000000 0.000000 0.000000 0.070847 0.000000
# 6 0.000000 0.000000 0.000000 0.000000 0.000000 0.047558
#
#
# Mechanical properties :
#
#
# Convention : Reuss Voigt Hill
#
# Bulk Modulus (GPa) = 28.27938 44.95234 36.61586
# Shear Modulus (GPa) = 17.78250 22.62338 20.20294
#
# Velocity S-wave (km/s) = 3.12969 3.53007 3.33589
# Velocity P-wave (km/s) = 5.35134 6.43241 5.91662
#
# Compressibility (1/GPa) = 0.03536145
#
# Stress axis : x y z
#
# Youngs Moduli (GPa) = 39.81144 77.39955 24.03266
#
# Poissons Ratio (x) = 0.46593 0.12396
# Poissons Ratio (y) = 0.23966 0.26354
# Poissons Ratio (z) = 0.20534 0.84875
#
# Static dielectric constant tensor:
#      x y z
#    x 3.302560 0.000000 0.000000 
#    y 0.000000 3.797750 0.000000 
#    z 0.000000 0.000000 3.464300 
# 
# 
# High freq. dielectric constant tensor:
#      x y z
#    x 1.666110 0.000000 0.000000 
#    y 0.000000 1.716160 0.000000 
#    z 0.000000 0.000000 1.714230 
# 
# From -- ./inp_files/12198.got.cif
#   From: 2010.03.12/outbox.cif.g09.slc.cpg/sg65_7_cif.got.tgz:12198.got - 2010.04.10 20:52:16.
