data_PCOD8271920
_publ_section_title
;
Structure prediction by ZEFSAII (Michael W. Deem and Ramdas Pophale) SiO2 
 PCOD8271920
Probable space group: C M M M
;
_chemical_formula_sum "Si O2"
_cell_formula_units_Z 88
_cell_length_a 9.479826
_cell_length_b 16.048365
_cell_length_c 29.744866
_cell_angle_alpha 90.000000
_cell_angle_beta 90.000000
_cell_angle_gamma 90.000000
_cell_volume 4525.256242
_symmetry_space_group_name_H-M "C M M M"
_symmetry_group_IT_number 65
_symmetry_cell_setting 'orthorhombic'
loop_
_space_group_symop_operation_xyz
x,y,z
-x,-y,z
x,-y,-z
-x,y,-z
-x,-y,-z
x,y,-z
-x,y,z
x,-y,z
1/2+x,1/2+y,z
1/2-x,1/2-y,z
1/2+x,1/2-y,-z
1/2-x,1/2+y,-z
1/2-x,1/2-y,-z
1/2+x,1/2+y,-z
1/2-x,1/2+y,z
1/2+x,1/2-y,z
loop_
_atom_site_type_symbol
_atom_site_label
_atom_site_fract_x
_atom_site_fract_y
_atom_site_fract_z
Si Si1 0.657257 0.598392 0.449649
Si Si2 0.332924 0.500000 0.051299
Si Si3 0.833700 0.668056 0.629694
Si Si4 0.162355 0.904142 0.803507
Si Si5 0.666167 0.332887 0.898989
Si Si6 0.845841 0.403249 0.722870
O O1 0.690784 0.630756 0.500000
O O2 0.500000 0.628972 0.435224
O O3 0.661845 0.500000 0.448796
O O4 0.776714 0.631912 0.416840
O O5 0.500000 0.500000 0.056141
O O6 0.277257 0.414599 0.074275
O O7 0.281552 0.500000 0.000000
O O8 0.750000 0.750000 0.641948
O O9 0.796039 0.608367 0.671512
O O10 0.000000 0.683326 0.624094
O O11 0.198462 0.848541 0.846650
O O12 0.243265 0.864837 0.760565
O O13 0.000000 0.898680 0.790729
O O14 0.204100 0.000000 0.814008
O O15 0.500000 0.318865 0.907890
O O16 0.750000 0.250000 0.914782
O O17 0.853033 0.500000 0.732456
O O18 0.000000 0.361794 0.729112
#
# Coordination Sequence:
#
# PCOD8271920 Si02
#       6
#    16   8  16  16  16  16
#     4   9  19  37  60  83 105 131 168 215 265 321
#     4   9  18  36  61  83 111 155 197 235 284 343
#     4  11  23  37  53  75 107 143 178 219 267 319
#     4   9  17  32  54  77 104 141 184 226 269 327
#     4  10  20  35  56  84 115 148 191 238 285 340
#     4   9  19  35  54  77 105 138 178 224 272 321
#
# _framework density 19.446414000000001
#
# number of rings (size 3 to 8) (size 9 to 14) (size 15 to 20)
#    0.000    2.455    0.909    1.636    0.000    5.091 
#    0.000    6.818    0.000    0.545    0.000    0.000 
#    0.000    0.000    0.000    0.000    0.000    0.000 
#
# Total GULP energy -545377.580845 kJ/mol
# GULP energy per Si atom -12394.945019 kJ/mol
# Density = 1.940215 g / cm^3
# Si number density = 19.446414 Si / 1000 Ang^3
#
#
#
# Elastic Constant Matrix: (Units=GPa)
#
#
# Indices 1 2 3 4 5 6 
#
# 1 87.1908 44.6655 62.2969 0.0000 0.0000 0.0000
# 2 44.6655 84.8162 44.7768 0.0000 0.0000 0.0000
# 3 62.2969 44.7768 126.5545 0.0000 0.0000 0.0000
# 4 0.0000 0.0000 0.0000 15.1253 0.0000 0.0000
# 5 0.0000 0.0000 0.0000 0.0000 23.0967 0.0000
# 6 0.0000 0.0000 0.0000 0.0000 0.0000 29.2309
#
#
#
# Elastic Compliance Matrix: (Units=1/GPa)
#
#
# Indices 1 2 3 4 5 6 
#
# 1 0.020365 -0.006680 -0.007661 0.000000 0.000000 0.000000
# 2 -0.006680 0.016689 -0.002617 0.000000 0.000000 0.000000
# 3 -0.007661 -0.002617 0.012599 0.000000 0.000000 0.000000
# 4 0.000000 0.000000 0.000000 0.066114 0.000000 0.000000
# 5 0.000000 0.000000 0.000000 0.000000 0.043296 0.000000
# 6 0.000000 0.000000 0.000000 0.000000 0.000000 0.034210
#
#
# Mechanical properties :
#
#
# Convention : Reuss Voigt Hill
#
# Bulk Modulus (GPa) = 63.54300 66.89333 65.21816
# Shear Modulus (GPa) = 21.51135 23.27875 22.39505
#
# Velocity S-wave (km/s) = 3.32955 3.46363 3.39725
# Velocity P-wave (km/s) = 6.89406 7.10416 6.99990
#
# Compressibility (1/GPa) = 0.01573737
#
# Stress axis : x y z
#
# Youngs Moduli (GPa) = 49.10406 59.91836 79.37225
#
# Poissons Ratio (x) = 0.40025 0.60809
# Poissons Ratio (y) = 0.32801 0.20770
# Poissons Ratio (z) = 0.37620 0.15679
#
# Static dielectric constant tensor:
#      x y z
#    x 3.313890 0.000000 0.000000 
#    y 0.000000 3.463700 0.000000 
#    z 0.000000 0.000000 3.956050 
# 
# 
# High freq. dielectric constant tensor:
#      x y z
#    x 1.742320 0.000000 0.000000 
#    y 0.000000 1.747640 0.000000 
#    z 0.000000 0.000000 1.763920 
# 
# From -- ./inp_files/76662.got.cif
#   From: 2010.03.12/outbox.cif.g09.slc.cpg/sg65_39_cif.got.tgz:76662.got - 2010.04.10 20:52:16.
