data_PCOD8271384
_publ_section_title
;
Structure prediction by ZEFSAII (Michael W. Deem and Ramdas Pophale) SiO2 
 PCOD8271384
Probable space group: C M M M
;
_chemical_formula_sum "Si O2"
_cell_formula_units_Z 104
_cell_length_a 19.946722
_cell_length_b 8.980410
_cell_length_c 32.314873
_cell_angle_alpha 90.000000
_cell_angle_beta 90.000000
_cell_angle_gamma 90.000000
_cell_volume 5788.554854
_symmetry_space_group_name_H-M "C M M M"
_symmetry_group_IT_number 65
_symmetry_cell_setting 'orthorhombic'
loop_
_space_group_symop_operation_xyz
x,y,z
-x,-y,z
x,-y,-z
-x,y,-z
-x,-y,-z
x,y,-z
-x,y,z
x,-y,z
1/2+x,1/2+y,z
1/2-x,1/2-y,z
1/2+x,1/2-y,-z
1/2-x,1/2+y,-z
1/2-x,1/2-y,-z
1/2+x,1/2+y,-z
1/2-x,1/2+y,z
1/2+x,1/2-y,z
loop_
_atom_site_type_symbol
_atom_site_label
_atom_site_fract_x
_atom_site_fract_y
_atom_site_fract_z
Si Si1 0.079513 0.167894 0.500000
Si Si2 0.817415 0.827208 0.261298
Si Si3 0.921605 0.671403 0.204566
Si Si4 0.681286 0.325047 0.642626
Si Si5 0.426045 0.176848 0.888176
Si Si6 0.680826 0.824598 0.046929
Si Si7 0.421415 0.825518 0.416734
O O1 0.104940 0.255302 0.540366
O O2 0.000000 0.164180 0.500000
O O3 0.108733 0.000000 0.500000
O O4 0.750000 0.750000 0.244677
O O5 0.881621 0.771371 0.236593
O O6 0.829182 0.789845 0.309221
O O7 0.808329 0.000000 0.253400
O O8 0.901945 0.500000 0.211545
O O9 0.902831 0.722495 0.157932
O O10 0.000000 0.696151 0.212661
O O11 0.684355 0.500000 0.633242
O O12 0.750000 0.250000 0.626611
O O13 0.617862 0.252518 0.620297
O O14 0.500000 0.242341 0.897432
O O15 0.375479 0.241294 0.922446
O O16 0.429346 0.000000 0.890948
O O17 0.750000 0.750000 0.059936
O O18 0.688987 0.000000 0.052269
O O19 0.660705 0.782569 0.000000
O O20 0.500000 0.794018 0.409958
O O21 0.405864 0.000000 0.417454
#
# Coordination Sequence:
#
# PCOD8271384 Si02
#       7
#     8  16  16  16  16  16  16
#     4   9  17  31  52  77 106 139 174 213 255 297
#     4  10  21  36  54  75 100 131 168 209 250 298
#     4   9  18  33  52  73 100 132 163 201 250 300
#     4  10  21  37  55  75 102 135 169 208 255 302
#     4   8  15  29  48  70  95 123 158 199 241 286
#     4   9  17  29  46  68  94 124 158 198 242 287
#     4  10  20  34  54  80 108 138 173 211 251 299
#
# _framework density 17.966487999999998
#
# number of rings (size 3 to 8) (size 9 to 14) (size 15 to 20)
#    0.000    2.692    0.000    2.538    0.000    5.538 
#    0.000    7.308    0.000    1.385    0.000    2.154 
#    0.000    0.000    0.000    0.000    0.000    0.000 
#
# Total GULP energy -644820.674712 kJ/mol
# GULP energy per Si atom -12400.397591 kJ/mol
# Density = 1.792560 g / cm^3
# Si number density = 17.966488 Si / 1000 Ang^3
#
#
#
# Elastic Constant Matrix: (Units=GPa)
#
#
# Indices 1 2 3 4 5 6 
#
# 1 96.7697 50.6074 73.2705 0.0000 0.0000 0.0000
# 2 50.6074 79.6625 54.2869 0.0000 0.0000 0.0000
# 3 73.2705 54.2869 103.6674 0.0000 0.0000 0.0000
# 4 0.0000 0.0000 0.0000 24.7769 0.0000 0.0000
# 5 0.0000 0.0000 0.0000 0.0000 24.5083 0.0000
# 6 0.0000 0.0000 0.0000 0.0000 0.0000 31.8973
#
#
#
# Elastic Compliance Matrix: (Units=1/GPa)
#
#
# Indices 1 2 3 4 5 6 
#
# 1 0.023776 -0.005679 -0.013830 0.000000 0.000000 0.000000
# 2 -0.005679 0.020875 -0.006917 0.000000 0.000000 0.000000
# 3 -0.013830 -0.006917 0.023044 0.000000 0.000000 0.000000
# 4 0.000000 0.000000 0.000000 0.040360 0.000000 0.000000
# 5 0.000000 0.000000 0.000000 0.000000 0.040802 0.000000
# 6 0.000000 0.000000 0.000000 0.000000 0.000000 0.031351
#
#
# Mechanical properties :
#
#
# Convention : Reuss Voigt Hill
#
# Bulk Modulus (GPa) = 67.38404 70.71437 69.04920
# Shear Modulus (GPa) = 21.00772 23.03214 22.01993
#
# Velocity S-wave (km/s) = 3.42317 3.58432 3.50467
# Velocity P-wave (km/s) = 7.29458 7.52159 7.40895
#
# Compressibility (1/GPa) = 0.01484031
#
# Stress axis : x y z
#
# Youngs Moduli (GPa) = 42.05983 47.90485 43.39598
#
# Poissons Ratio (x) = 0.27206 0.60018
# Poissons Ratio (y) = 0.23887 0.30018
# Poissons Ratio (z) = 0.58170 0.33137
#
# Static dielectric constant tensor:
#      x y z
#    x 3.366710 0.000000 0.000000 
#    y 0.000000 3.233650 0.000000 
#    z 0.000000 0.000000 3.428630 
# 
# 
# High freq. dielectric constant tensor:
#      x y z
#    x 1.689880 0.000000 0.000000 
#    y 0.000000 1.687090 0.000000 
#    z 0.000000 0.000000 1.699310 
# 
# From -- ./inp_files/75482.got.cif
#   From: 2010.03.12/outbox.cif.g09.slc.cpg/sg65_38_cif.got.tgz:75482.got - 2010.04.10 20:52:16.
