data_PCOD8271439
_publ_section_title
;
Structure prediction by ZEFSAII (Michael W. Deem and Ramdas Pophale) SiO2 
 PCOD8271439
Probable space group: C M M M
;
_chemical_formula_sum "Si O2"
_cell_formula_units_Z 80
_cell_length_a 18.110994
_cell_length_b 8.961675
_cell_length_c 25.589259
_cell_angle_alpha 90.000000
_cell_angle_beta 90.000000
_cell_angle_gamma 90.000000
_cell_volume 4153.260643
_symmetry_space_group_name_H-M "C M M M"
_symmetry_group_IT_number 65
_symmetry_cell_setting 'orthorhombic'
loop_
_space_group_symop_operation_xyz
x,y,z
-x,-y,z
x,-y,-z
-x,y,-z
-x,-y,-z
x,y,-z
-x,y,z
x,-y,z
1/2+x,1/2+y,z
1/2-x,1/2-y,z
1/2+x,1/2-y,-z
1/2-x,1/2+y,-z
1/2-x,1/2-y,-z
1/2+x,1/2+y,-z
1/2-x,1/2+y,z
1/2+x,1/2-y,z
loop_
_atom_site_type_symbol
_atom_site_label
_atom_site_fract_x
_atom_site_fract_y
_atom_site_fract_z
Si Si1 0.584809 0.825833 0.657153
Si Si2 0.912264 0.167627 0.057430
Si Si3 0.412240 0.830937 0.159060
Si Si4 0.829123 0.176475 0.749082
Si Si5 0.175226 0.673699 0.558241
O O1 0.500000 0.779004 0.663511
O O2 0.634209 0.728552 0.695412
O O3 0.609001 0.788911 0.597868
O O4 0.596198 0.000000 0.670427
O O5 0.882241 0.277191 0.102465
O O6 0.000000 0.167963 0.058205
O O7 0.883412 0.000000 0.068266
O O8 0.884687 0.222057 0.000000
O O9 0.500000 0.820206 0.162012
O O10 0.380451 0.723728 0.203039
O O11 0.385181 0.000000 0.168135
O O12 0.750000 0.250000 0.755985
O O13 0.820319 0.000000 0.748289
O O14 0.153136 0.730264 0.500000
O O15 0.191920 0.500000 0.557418
O O16 0.250000 0.750000 0.578239
#
# Coordination Sequence:
#
# PCOD8271439 Si02
#       5
#    16  16  16  16  16
#     4  10  21  37  57  82 112 143 178 223 271 319
#     4   8  14  26  46  74 108 144 181 220 262 310
#     4  10  20  34  54  81 112 143 178 222 269 318
#     4  12  25  40  58  78 104 139 180 224 272 328
#     4   9  18  33  54  80 110 146 185 222 263 313
#
# _framework density 19.261976000000001
#
# number of rings (size 3 to 8) (size 9 to 14) (size 15 to 20)
#    0.000    2.200    0.000    4.200    0.000    7.200 
#    0.000    4.000    0.000    0.600    0.000    4.200 
#    0.000    0.000    0.000    0.000    0.000    0.000 
#
# Total GULP energy -495974.999065 kJ/mol
# GULP energy per Si atom -12399.374977 kJ/mol
# Density = 1.921813 g / cm^3
# Si number density = 19.261976 Si / 1000 Ang^3
#
#
#
# Elastic Constant Matrix: (Units=GPa)
#
#
# Indices 1 2 3 4 5 6 
#
# 1 37.5403 28.3516 23.8931 0.0000 0.0000 0.0000
# 2 28.3516 98.7978 49.1142 0.0000 0.0000 0.0000
# 3 23.8931 49.1142 118.1327 0.0000 0.0000 0.0000
# 4 0.0000 0.0000 0.0000 32.6794 0.0000 0.0000
# 5 0.0000 0.0000 0.0000 0.0000 2.6544 0.0000
# 6 0.0000 0.0000 0.0000 0.0000 0.0000 24.8786
#
#
#
# Elastic Compliance Matrix: (Units=1/GPa)
#
#
# Indices 1 2 3 4 5 6 
#
# 1 0.035236 -0.008280 -0.003684 0.000000 0.000000 0.000000
# 2 -0.008280 0.014704 -0.004439 0.000000 0.000000 0.000000
# 3 -0.003684 -0.004439 0.011056 0.000000 0.000000 0.000000
# 4 0.000000 0.000000 0.000000 0.030600 0.000000 0.000000
# 5 0.000000 0.000000 0.000000 0.000000 0.376729 0.000000
# 6 0.000000 0.000000 0.000000 0.000000 0.000000 0.040195
#
#
# Mechanical properties :
#
#
# Convention : Reuss Voigt Hill
#
# Bulk Modulus (GPa) = 35.47336 50.79874 43.13605
# Shear Modulus (GPa) = 9.07895 22.24994 15.66444
#
# Velocity S-wave (km/s) = 2.17339 3.40240 2.85482
# Velocity P-wave (km/s) = 4.97538 6.47031 5.77145
#
# Compressibility (1/GPa) = 0.02819017
#
# Stress axis : x y z
#
# Youngs Moduli (GPa) = 28.37975 68.00710 90.45170
#
# Poissons Ratio (x) = 0.56311 0.33325
# Poissons Ratio (y) = 0.23499 0.40149
# Poissons Ratio (z) = 0.10456 0.30186
#
# Static dielectric constant tensor:
#      x y z
#    x 3.330780 0.000000 0.000000 
#    y 0.000000 3.604640 0.000000 
#    z 0.000000 0.000000 3.942170 
# 
# 
# High freq. dielectric constant tensor:
#      x y z
#    x 1.721650 0.000000 0.000000 
#    y 0.000000 1.746820 0.000000 
#    z 0.000000 0.000000 1.768900 
# 
# From -- ./inp_files/72765.got.cif
#   From: 2010.03.12/outbox.cif.g09.slc.cpg/sg65_37_cif.got.tgz:72765.got - 2010.04.10 20:52:16.
