data_PCOD8271829
_publ_section_title
;
Structure prediction by ZEFSAII (Michael W. Deem and Ramdas Pophale) SiO2 
 PCOD8271829
Probable space group: C M M M
;
_chemical_formula_sum "Si O2"
_cell_formula_units_Z 64
_cell_length_a 15.574924
_cell_length_b 8.813455
_cell_length_c 23.712568
_cell_angle_alpha 90.000000
_cell_angle_beta 90.000000
_cell_angle_gamma 90.000000
_cell_volume 3254.997931
_symmetry_space_group_name_H-M "C M M M"
_symmetry_group_IT_number 65
_symmetry_cell_setting 'orthorhombic'
loop_
_space_group_symop_operation_xyz
x,y,z
-x,-y,z
x,-y,-z
-x,y,-z
-x,-y,-z
x,y,-z
-x,y,z
x,-y,z
1/2+x,1/2+y,z
1/2-x,1/2-y,z
1/2+x,1/2-y,-z
1/2-x,1/2+y,-z
1/2-x,1/2-y,-z
1/2+x,1/2+y,-z
1/2-x,1/2+y,z
1/2+x,1/2-y,z
loop_
_atom_site_type_symbol
_atom_site_label
_atom_site_fract_x
_atom_site_fract_y
_atom_site_fract_z
Si Si1 0.500000 0.821424 0.251208
Si Si2 0.660436 0.823316 0.434148
Si Si3 0.096629 0.680274 0.938796
Si Si4 0.163614 0.678631 0.822288
Si Si5 0.000000 0.820880 0.372084
O O1 0.583442 0.773564 0.215840
O O2 0.500000 0.723080 0.307119
O O3 0.500000 0.000000 0.265478
O O4 0.644318 0.795271 0.500000
O O5 0.750000 0.750000 0.414720
O O6 0.584378 0.745320 0.400719
O O7 0.662652 0.000000 0.419063
O O8 0.093616 0.500000 0.934870
O O9 0.151120 0.743718 0.886112
O O10 0.000000 0.743264 0.933458
O O11 0.135249 0.731063 0.000000
O O12 0.173838 0.500000 0.822718
O O13 0.250000 0.750000 0.796581
O O14 0.000000 0.000000 0.379461
#
# Coordination Sequence:
#
# PCOD8271829 Si02
#       5
#     8  16  16  16   8
#     4  10  22  41  58  74 106 149 195 240 283 336
#     4  10  21  39  64  94 127 160 194 235 285 340
#     4   8  13  25  49  78 105 135 175 220 268 333
#     4  10  20  35  56  80 105 140 183 229 283 339
#     4  12  25  39  60  88 119 157 201 244 291 344
#
# _framework density 19.662071000000001
#
# number of rings (size 3 to 8) (size 9 to 14) (size 15 to 20)
#    0.000    2.250    1.250    3.000    0.000    5.500 
#    0.000    2.500    0.000    0.000    0.000    1.750 
#    0.000    0.000    0.000    0.000    0.000    0.000 
#
# Total GULP energy -396718.017001 kJ/mol
# GULP energy per Si atom -12397.438031 kJ/mol
# Density = 1.961732 g / cm^3
# Si number density = 19.662071 Si / 1000 Ang^3
#
#
#
# Elastic Constant Matrix: (Units=GPa)
#
#
# Indices 1 2 3 4 5 6 
#
# 1 179.0855 62.9597 86.2496 0.0000 0.0000 0.0000
# 2 62.9597 77.9969 61.6454 0.0000 0.0000 0.0000
# 3 86.2496 61.6454 118.0452 0.0000 0.0000 0.0000
# 4 0.0000 0.0000 0.0000 21.2310 0.0000 0.0000
# 5 0.0000 0.0000 0.0000 0.0000 4.3165 0.0000
# 6 0.0000 0.0000 0.0000 0.0000 0.0000 31.8648
#
#
#
# Elastic Compliance Matrix: (Units=1/GPa)
#
#
# Indices 1 2 3 4 5 6 
#
# 1 0.009169 -0.003587 -0.004826 0.000000 0.000000 0.000000
# 2 -0.003587 0.023235 -0.009513 0.000000 0.000000 0.000000
# 3 -0.004826 -0.009513 0.016966 0.000000 0.000000 0.000000
# 4 0.000000 0.000000 0.000000 0.047101 0.000000 0.000000
# 5 0.000000 0.000000 0.000000 0.000000 0.231668 0.000000
# 6 0.000000 0.000000 0.000000 0.000000 0.000000 0.031383
#
#
# Mechanical properties :
#
#
# Convention : Reuss Voigt Hill
#
# Bulk Modulus (GPa) = 73.97906 88.53746 81.25826
# Shear Modulus (GPa) = 12.50372 22.43398 17.46885
#
# Velocity S-wave (km/s) = 2.52450 3.38150 2.98393
# Velocity P-wave (km/s) = 6.79738 7.77003 7.29993
#
# Compressibility (1/GPa) = 0.01351734
#
# Stress axis : x y z
#
# Youngs Moduli (GPa) = 109.05754 43.03817 58.94275
#
# Poissons Ratio (x) = 0.15438 0.28448
# Poissons Ratio (y) = 0.39120 0.56072
# Poissons Ratio (z) = 0.52636 0.40942
#
# Static dielectric constant tensor:
#      x y z
#    x 3.778760 0.000000 0.000000 
#    y 0.000000 3.280300 0.000000 
#    z 0.000000 0.000000 3.794500 
# 
# 
# High freq. dielectric constant tensor:
#      x y z
#    x 1.774110 0.000000 0.000000 
#    y 0.000000 1.737600 0.000000 
#    z 0.000000 0.000000 1.771720 
# 
# From -- ./inp_files/69510.got.cif
#   From: 2010.03.12/outbox.cif.g09.slc.cpg/sg65_35_cif.got.tgz:69510.got - 2010.04.10 20:52:16.
