data_PCOD8271413
_publ_section_title
;
Structure prediction by ZEFSAII (Michael W. Deem and Ramdas Pophale) SiO2 
 PCOD8271413
Probable space group: C M M M
;
_chemical_formula_sum "Si O2"
_cell_formula_units_Z 104
_cell_length_a 8.643354
_cell_length_b 28.155586
_cell_length_c 21.683646
_cell_angle_alpha 90.000000
_cell_angle_beta 90.000000
_cell_angle_gamma 90.000000
_cell_volume 5276.903834
_symmetry_space_group_name_H-M "C M M M"
_symmetry_group_IT_number 65
_symmetry_cell_setting 'orthorhombic'
loop_
_space_group_symop_operation_xyz
x,y,z
-x,-y,z
x,-y,-z
-x,y,-z
-x,-y,-z
x,y,-z
-x,y,z
x,-y,z
1/2+x,1/2+y,z
1/2-x,1/2-y,z
1/2+x,1/2-y,-z
1/2-x,1/2+y,-z
1/2-x,1/2-y,-z
1/2+x,1/2+y,-z
1/2-x,1/2+y,z
1/2+x,1/2-y,z
loop_
_atom_site_type_symbol
_atom_site_label
_atom_site_fract_x
_atom_site_fract_y
_atom_site_fract_z
Si Si1 0.321110 0.299792 0.572123
Si Si2 0.816675 0.301650 0.814974
Si Si3 0.817600 0.357704 0.067680
Si Si4 0.319587 0.053884 0.855229
Si Si5 0.184159 0.446492 0.500000
Si Si6 0.680766 0.610545 0.748033
Si Si7 0.181658 0.391880 0.380145
O O1 0.298991 0.309285 0.500000
O O2 0.500000 0.302451 0.591595
O O3 0.250000 0.250000 0.591742
O O4 0.220762 0.337044 0.609871
O O5 0.750000 0.250000 0.800062
O O6 0.754918 0.319834 0.882040
O O7 0.764001 0.339557 0.763753
O O8 0.000000 0.298984 0.813911
O O9 0.774853 0.411386 0.088309
O O10 0.000000 0.352335 0.063174
O O11 0.743190 0.348095 0.000000
O O12 0.500000 0.059446 0.838695
O O13 0.222893 0.069004 0.795593
O O14 0.277915 0.000000 0.874021
O O15 0.245690 0.500000 0.500000
O O16 0.248348 0.421309 0.438384
O O17 0.000000 0.443701 0.500000
O O18 0.500000 0.620162 0.748370
O O19 0.734620 0.590964 0.681789
O O20 0.000000 0.399529 0.372595
#
# Coordination Sequence:
#
# PCOD8271413 Si02
#       7
#    16  16  16  16   8  16  16
#     4  10  20  34  54  80 111 142 176 214 262 320
#     4  10  20  36  57  82 113 150 190 231 276 326
#     4   8  15  29  51  82 117 149 184 227 274 327
#     4   9  18  34  56  81 110 146 187 231 280 332
#     4   9  20  38  60  85 110 139 176 219 268 325
#     4  11  23  38  56  80 110 145 187 233 282 331
#     4  11  21  37  60  84 111 143 182 226 278 333
#
# _framework density 19.708527
#
# number of rings (size 3 to 8) (size 9 to 14) (size 15 to 20)
#    0.000    2.231    0.769    3.692    0.000    2.769 
#    0.000    6.154    0.000   14.308    0.000    4.308 
#    0.000    0.000    0.000    0.000    0.000    0.000 
#
# Total GULP energy -644793.283627 kJ/mol
# GULP energy per Si atom -12399.870839 kJ/mol
# Density = 1.966367 g / cm^3
# Si number density = 19.708527 Si / 1000 Ang^3
#
#
#
# Elastic Constant Matrix: (Units=GPa)
#
#
# Indices 1 2 3 4 5 6 
#
# 1 64.2761 18.2919 21.3949 0.0000 0.0000 0.0000
# 2 18.2919 80.0652 20.5879 0.0000 0.0000 0.0000
# 3 21.3949 20.5879 113.3274 0.0000 0.0000 0.0000
# 4 0.0000 0.0000 0.0000 24.8245 0.0000 0.0000
# 5 0.0000 0.0000 0.0000 0.0000 17.2683 0.0000
# 6 0.0000 0.0000 0.0000 0.0000 0.0000 25.1739
#
#
#
# Elastic Compliance Matrix: (Units=1/GPa)
#
#
# Indices 1 2 3 4 5 6 
#
# 1 0.017386 -0.003281 -0.002686 0.000000 0.000000 0.000000
# 2 -0.003281 0.013721 -0.001873 0.000000 0.000000 0.000000
# 3 -0.002686 -0.001873 0.009671 0.000000 0.000000 0.000000
# 4 0.000000 0.000000 0.000000 0.040283 0.000000 0.000000
# 5 0.000000 0.000000 0.000000 0.000000 0.057910 0.000000
# 6 0.000000 0.000000 0.000000 0.000000 0.000000 0.039724
#
#
# Mechanical properties :
#
#
# Convention : Reuss Voigt Hill
#
# Bulk Modulus (GPa) = 39.84529 42.02423 40.93476
# Shear Modulus (GPa) = 24.66195 26.61293 25.63744
#
# Velocity S-wave (km/s) = 3.54126 3.67866 3.61061
# Velocity P-wave (km/s) = 6.08127 6.27794 6.18039
#
# Compressibility (1/GPa) = 0.02509707
#
# Stress axis : x y z
#
# Youngs Moduli (GPa) = 57.51822 72.88020 103.39756
#
# Poissons Ratio (x) = 0.23914 0.27774
# Poissons Ratio (y) = 0.18873 0.19369
# Poissons Ratio (z) = 0.15450 0.13652
#
# Static dielectric constant tensor:
#      x y z
#    x 3.337870 0.000000 0.000000 
#    y 0.000000 3.641140 0.000000 
#    z 0.000000 0.000000 3.833680 
# 
# 
# High freq. dielectric constant tensor:
#      x y z
#    x 1.748180 0.000000 0.000000 
#    y 0.000000 1.766310 0.000000 
#    z 0.000000 0.000000 1.770030 
# 
# From -- ./inp_files/60452.got.cif
#   From: 2010.03.12/outbox.cif.g09.slc.cpg/sg65_31_cif.got.tgz:60452.got - 2010.04.10 20:52:16.
