data_PCOD8271386
_publ_section_title
;
Structure prediction by ZEFSAII (Michael W. Deem and Ramdas Pophale) SiO2 
 PCOD8271386
Probable space group: C M M M
;
_chemical_formula_sum "Si O2"
_cell_formula_units_Z 104
_cell_length_a 9.083121
_cell_length_b 19.025106
_cell_length_c 32.764567
_cell_angle_alpha 90.000000
_cell_angle_beta 90.000000
_cell_angle_gamma 90.000000
_cell_volume 5661.957664
_symmetry_space_group_name_H-M "C M M M"
_symmetry_group_IT_number 65
_symmetry_cell_setting 'orthorhombic'
loop_
_space_group_symop_operation_xyz
x,y,z
-x,-y,z
x,-y,-z
-x,y,-z
-x,-y,-z
x,y,-z
-x,y,z
x,-y,z
1/2+x,1/2+y,z
1/2-x,1/2-y,z
1/2+x,1/2-y,-z
1/2-x,1/2+y,-z
1/2-x,1/2-y,-z
1/2+x,1/2+y,-z
1/2-x,1/2+y,z
1/2+x,1/2-y,z
loop_
_atom_site_type_symbol
_atom_site_label
_atom_site_fract_x
_atom_site_fract_y
_atom_site_fract_z
Si Si1 0.334080 0.583498 0.657458
Si Si2 0.326611 0.174829 0.500000
Si Si3 0.668971 0.916653 0.262444
Si Si4 0.170817 0.179745 0.105681
Si Si5 0.673253 0.321873 0.800371
Si Si6 0.166708 0.417355 0.954123
Si Si7 0.827608 0.580977 0.576364
O O1 0.500000 0.613373 0.659744
O O2 0.334422 0.500000 0.658361
O O3 0.241259 0.612173 0.695785
O O4 0.258437 0.609438 0.615856
O O5 0.500000 0.186983 0.500000
O O6 0.250000 0.250000 0.500000
O O7 0.277034 0.129896 0.539160
O O8 0.500000 0.891797 0.261118
O O9 0.758279 0.886017 0.224498
O O10 0.681554 0.000000 0.259589
O O11 0.250000 0.250000 0.090607
O O12 0.209562 0.162609 0.152485
O O13 0.221984 0.115685 0.077954
O O14 0.000000 0.192009 0.099486
O O15 0.500000 0.316405 0.792065
O O16 0.750000 0.250000 0.785996
O O17 0.186303 0.500000 0.951001
O O18 0.000000 0.395535 0.943085
O O19 0.204898 0.392008 0.000000
O O20 0.787263 0.500000 0.566111
O O21 0.000000 0.587750 0.585363
#
# Coordination Sequence:
#
# PCOD8271386 Si02
#       7
#    16   8  16  16  16  16  16
#     4   9  17  30  50  77 106 133 165 211 262 304
#     4  10  21  35  51  73 103 136 166 204 254 302
#     4  10  20  34  54  80 108 139 175 213 256 308
#     4  10  21  36  55  78 104 137 176 217 260 307
#     4  10  21  37  55  76 105 139 175 216 261 309
#     4   9  19  36  56  78 106 139 173 212 260 311
#     4   9  17  32  54  76  98 129 171 212 250 299
#
# _framework density 18.368205
#
# number of rings (size 3 to 8) (size 9 to 14) (size 15 to 20)
#    0.000    2.462    0.000    2.538    0.000    7.692 
#    0.000    4.615    0.000    4.154    0.000    0.000 
#    0.000    0.000    0.000    0.000    0.000    0.000 
#
# Total GULP energy -644909.365442 kJ/mol
# GULP energy per Si atom -12402.103182 kJ/mol
# Density = 1.832640 g / cm^3
# Si number density = 18.368205 Si / 1000 Ang^3
#
#
#
# Elastic Constant Matrix: (Units=GPa)
#
#
# Indices 1 2 3 4 5 6 
#
# 1 102.6927 39.5758 65.1540 0.0000 0.0000 0.0000
# 2 39.5758 59.0571 50.7034 0.0000 0.0000 0.0000
# 3 65.1540 50.7034 118.4913 0.0000 0.0000 0.0000
# 4 0.0000 0.0000 0.0000 9.9137 0.0000 0.0000
# 5 0.0000 0.0000 0.0000 0.0000 35.7086 0.0000
# 6 0.0000 0.0000 0.0000 0.0000 0.0000 32.6247
#
#
#
# Elastic Compliance Matrix: (Units=1/GPa)
#
#
# Indices 1 2 3 4 5 6 
#
# 1 0.015821 -0.004953 -0.006580 0.000000 0.000000 0.000000
# 2 -0.004953 0.028317 -0.009393 0.000000 0.000000 0.000000
# 3 -0.006580 -0.009393 0.016077 0.000000 0.000000 0.000000
# 4 0.000000 0.000000 0.000000 0.100870 0.000000 0.000000
# 5 0.000000 0.000000 0.000000 0.000000 0.028004 0.000000
# 6 0.000000 0.000000 0.000000 0.000000 0.000000 0.030652
#
#
# Mechanical properties :
#
#
# Convention : Reuss Voigt Hill
#
# Bulk Modulus (GPa) = 54.46035 65.67861 60.06948
# Shear Modulus (GPa) = 18.67653 23.96993 21.32323
#
# Velocity S-wave (km/s) = 3.19217 3.61635 3.41086
# Velocity P-wave (km/s) = 6.58029 7.29874 6.94881
#
# Compressibility (1/GPa) = 0.01836198
#
# Stress axis : x y z
#
# Youngs Moduli (GPa) = 63.20552 35.31495 62.19991
#
# Poissons Ratio (x) = 0.17491 0.40929
# Poissons Ratio (y) = 0.31305 0.58427
# Poissons Ratio (z) = 0.41590 0.33173
#
# Static dielectric constant tensor:
#      x y z
#    x 3.493760 0.000000 0.000000 
#    y 0.000000 3.127890 0.000000 
#    z 0.000000 0.000000 3.493790 
# 
# 
# High freq. dielectric constant tensor:
#      x y z
#    x 1.720620 0.000000 0.000000 
#    y 0.000000 1.689310 0.000000 
#    z 0.000000 0.000000 1.721230 
# 
# From -- ./inp_files/73343.got.cif
#   From: 2010.03.12/outbox.cif.g09.slc.cpg/sg65_37_cif.got.tgz:73343.got - 2010.04.10 20:52:16.
