data_PCOD8271715
_publ_section_title
;
Structure prediction by ZEFSAII (Michael W. Deem and Ramdas Pophale) SiO2 
 PCOD8271715
Probable space group: C M M M
;
_chemical_formula_sum "Si O2"
_cell_formula_units_Z 88
_cell_length_a 16.855585
_cell_length_b 30.380485
_cell_length_c 8.765949
_cell_angle_alpha 90.000000
_cell_angle_beta 90.000000
_cell_angle_gamma 90.000000
_cell_volume 4488.874591
_symmetry_space_group_name_H-M "C M M M"
_symmetry_group_IT_number 65
_symmetry_cell_setting 'orthorhombic'
loop_
_space_group_symop_operation_xyz
x,y,z
-x,-y,z
x,-y,-z
-x,y,-z
-x,-y,-z
x,y,-z
-x,y,z
x,-y,z
1/2+x,1/2+y,z
1/2-x,1/2-y,z
1/2+x,1/2-y,-z
1/2-x,1/2+y,-z
1/2-x,1/2-y,-z
1/2+x,1/2+y,-z
1/2-x,1/2+y,z
1/2+x,1/2-y,z
loop_
_atom_site_type_symbol
_atom_site_label
_atom_site_fract_x
_atom_site_fract_y
_atom_site_fract_z
Si Si1 0.126315 0.383879 0.180375
Si Si2 0.911864 0.048280 0.818587
Si Si3 0.408080 0.292596 0.820065
Si Si4 0.000000 0.448328 0.319290
Si Si5 0.194175 0.125260 0.818303
Si Si6 0.089839 0.705134 0.666612
O O1 0.079043 0.424530 0.255657
O O2 0.216478 0.381007 0.240996
O O3 0.089395 0.337450 0.226466
O O4 0.120702 0.390283 0.000000
O O5 0.853174 0.084073 0.748287
O O6 0.000000 0.057060 0.755098
O O7 0.882105 0.000000 0.768110
O O8 0.913290 0.051843 0.000000
O O9 0.500000 0.302876 0.775290
O O10 0.349501 0.330806 0.758267
O O11 0.372285 0.247584 0.749262
O O12 0.401383 0.287882 0.000000
O O13 0.000000 0.500000 0.271244
O O14 0.000000 0.443153 0.500000
O O15 0.193099 0.125291 0.000000
O O16 0.129872 0.696444 0.500000
O O17 0.000000 0.718611 0.639774
#
# Coordination Sequence:
#
# PCOD8271715 Si02
#       6
#    16  16  16   8  16  16
#     4  11  22  36  58  84 110 140 178 225 279 333
#     4   8  13  23  42  68 101 142 179 209 253 316
#     4   9  17  31  53  79 110 149 189 225 265 317
#     4  11  25  45  65  83 107 141 183 231 284 341
#     4   9  18  30  46  76 113 143 175 225 277 322
#     4  10  20  35  55  76 105 144 187 230 274 326
#
# _framework density 19.604023999999999
#
# number of rings (size 3 to 8) (size 9 to 14) (size 15 to 20)
#    0.000    2.455    0.909    2.455    0.000    5.091 
#    0.000    7.273    0.000    0.000    0.000    0.000 
#    0.000    0.000    0.000   18.545    0.000   16.727 
#
# Total GULP energy -545267.248035 kJ/mol
# GULP energy per Si atom -12392.437455 kJ/mol
# Density = 1.955940 g / cm^3
# Si number density = 19.604024 Si / 1000 Ang^3
#
#
#
# Elastic Constant Matrix: (Units=GPa)
#
#
# Indices 1 2 3 4 5 6 
#
# 1 104.0673 74.9147 31.4388 0.0000 0.0000 0.0000
# 2 74.9147 182.1747 40.5140 0.0000 0.0000 0.0000
# 3 31.4388 40.5140 51.5405 0.0000 0.0000 0.0000
# 4 0.0000 0.0000 0.0000 19.7815 0.0000 0.0000
# 5 0.0000 0.0000 0.0000 0.0000 9.5336 0.0000
# 6 0.0000 0.0000 0.0000 0.0000 0.0000 11.2659
#
#
#
# Elastic Compliance Matrix: (Units=1/GPa)
#
#
# Indices 1 2 3 4 5 6 
#
# 1 0.014679 -0.004902 -0.005101 0.000000 0.000000 0.000000
# 2 -0.004902 0.008289 -0.003526 0.000000 0.000000 0.000000
# 3 -0.005101 -0.003526 0.025285 0.000000 0.000000 0.000000
# 4 0.000000 0.000000 0.000000 0.050552 0.000000 0.000000
# 5 0.000000 0.000000 0.000000 0.000000 0.104892 0.000000
# 6 0.000000 0.000000 0.000000 0.000000 0.000000 0.088763
#
#
# Mechanical properties :
#
#
# Convention : Reuss Voigt Hill
#
# Bulk Modulus (GPa) = 47.17781 70.16862 58.67322
# Shear Modulus (GPa) = 15.31007 20.84387 18.07697
#
# Velocity S-wave (km/s) = 2.79761 3.26428 3.03991
# Velocity P-wave (km/s) = 5.87819 7.07658 6.50504
#
# Compressibility (1/GPa) = 0.02119641
#
# Stress axis : x y z
#
# Youngs Moduli (GPa) = 68.12531 120.64004 39.54941
#
# Poissons Ratio (x) = 0.59137 0.20172
# Poissons Ratio (y) = 0.33395 0.13944
# Poissons Ratio (z) = 0.34748 0.42533
#
# Static dielectric constant tensor:
#      x y z
#    x 3.735630 0.000000 0.000000 
#    y 0.000000 3.768830 0.000000 
#    z 0.000000 0.000000 3.304860 
# 
# 
# High freq. dielectric constant tensor:
#      x y z
#    x 1.757040 0.000000 0.000000 
#    y 0.000000 1.775180 0.000000 
#    z 0.000000 0.000000 1.726970 
# 
# From -- ./inp_files/10094.got.cif
#   From: 2010.03.12/outbox.cif.g09.slc.cpg/sg65_6_cif.got.tgz:10094.got - 2010.04.10 20:52:16.
