data_PCOD8271547
_publ_section_title
;
Structure prediction by ZEFSAII (Michael W. Deem and Ramdas Pophale) SiO2 
 PCOD8271547
Probable space group: C M M M
;
_chemical_formula_sum "Si O2"
_cell_formula_units_Z 88
_cell_length_a 28.321852
_cell_length_b 8.665889
_cell_length_c 17.956398
_cell_angle_alpha 90.000000
_cell_angle_beta 90.000000
_cell_angle_gamma 90.000000
_cell_volume 4407.111048
_symmetry_space_group_name_H-M "C M M M"
_symmetry_group_IT_number 65
_symmetry_cell_setting 'orthorhombic'
loop_
_space_group_symop_operation_xyz
x,y,z
-x,-y,z
x,-y,-z
-x,y,-z
-x,-y,-z
x,y,-z
-x,y,z
x,-y,z
1/2+x,1/2+y,z
1/2-x,1/2-y,z
1/2+x,1/2-y,-z
1/2-x,1/2+y,-z
1/2-x,1/2-y,-z
1/2+x,1/2+y,-z
1/2-x,1/2+y,z
1/2+x,1/2-y,z
loop_
_atom_site_type_symbol
_atom_site_label
_atom_site_fract_x
_atom_site_fract_y
_atom_site_fract_z
Si Si1 0.947089 0.323757 0.659002
Si Si2 0.354946 0.180719 0.138918
Si Si3 0.553251 0.320642 0.183741
Si Si4 0.862873 0.822187 0.416740
Si Si5 0.198299 0.818336 0.277196
Si Si6 0.801636 0.818480 0.000000
O O1 0.938819 0.500000 0.684274
O O2 0.938812 0.214489 0.729560
O O3 0.909956 0.277901 0.595705
O O4 0.000000 0.301779 0.626933
O O5 0.410532 0.221615 0.134089
O O6 0.335627 0.238501 0.217770
O O7 0.346986 0.000000 0.130109
O O8 0.328497 0.266033 0.073202
O O9 0.500000 0.276140 0.159551
O O10 0.563490 0.500000 0.170456
O O11 0.844024 0.787540 0.500000
O O12 0.821618 0.777476 0.359007
O O13 0.877030 0.000000 0.407050
O O14 0.250000 0.750000 0.269383
O O15 0.199806 0.000000 0.261916
O O16 0.750000 0.750000 0.000000
O O17 0.797460 0.000000 0.000000
#
# Coordination Sequence:
#
# PCOD8271547 Si02
#       6
#    16  16  16  16  16   8
#     4  10  20  34  55  85 119 156 200 251 304 360
#     4  12  24  41  66  96 129 162 203 250 303 361
#     4  10  20  36  61  92 125 163 205 248 298 359
#     4  10  22  39  58  82 116 158 205 255 307 366
#     4  11  23  40  62  87 117 156 205 254 307 367
#     4  12  26  46  69  96 131 166 206 253 307 359
#
# _framework density 19.967728999999999
#
# number of rings (size 3 to 8) (size 9 to 14) (size 15 to 20)
#    0.000    1.273    1.818    4.636    0.000    4.000 
#    0.000    2.273    0.000    2.727    0.000    0.000 
#    0.000    0.000    0.000    0.000    0.000    0.000 
#
# Total GULP energy -545788.544759 kJ/mol
# GULP energy per Si atom -12404.285108 kJ/mol
# Density = 1.992228 g / cm^3
# Si number density = 19.967729 Si / 1000 Ang^3
#
#
#
# Elastic Constant Matrix: (Units=GPa)
#
#
# Indices 1 2 3 4 5 6 
#
# 1 131.6438 50.9437 47.5384 0.0000 0.0000 0.0000
# 2 50.9437 116.1638 40.2225 0.0000 0.0000 0.0000
# 3 47.5384 40.2225 97.3080 0.0000 0.0000 0.0000
# 4 0.0000 0.0000 0.0000 -2.9829 0.0000 0.0000
# 5 0.0000 0.0000 0.0000 0.0000 20.3024 0.0000
# 6 0.0000 0.0000 0.0000 0.0000 0.0000 38.3246
#
#
#
# Elastic Compliance Matrix: (Units=1/GPa)
#
#
# Indices 1 2 3 4 5 6 
#
# 1 0.010144 -0.003189 -0.003637 0.000000 0.000000 0.000000
# 2 -0.003189 0.011049 -0.003009 0.000000 0.000000 0.000000
# 3 -0.003637 -0.003009 0.013297 0.000000 0.000000 0.000000
# 4 0.000000 0.000000 0.000000 -0.335243 0.000000 0.000000
# 5 0.000000 0.000000 0.000000 0.000000 0.049255 0.000000
# 6 0.000000 0.000000 0.000000 0.000000 0.000000 0.026093
#
#
# Mechanical properties :
#
#
# Convention : Reuss Voigt Hill
#
# Bulk Modulus (GPa) = 67.48067 69.16941 68.32504
# Shear Modulus (GPa) = -24.90124 24.88955 -0.00584
#
# Velocity S-wave (km/s) = -3.53522 3.53439 -0.05416
# Velocity P-wave (km/s) = 4.14783 7.16741 5.85560
#
# Compressibility (1/GPa) = 0.01481906
#
# Stress axis : x y z
#
# Youngs Moduli (GPa) = 98.58130 90.50533 75.20216
#
# Poissons Ratio (x) = 0.28863 0.27354
# Poissons Ratio (y) = 0.31439 0.22629
# Poissons Ratio (z) = 0.35858 0.27234
#
# Static dielectric constant tensor:
#      x y z
#    x 3.868510 0.000000 0.000000 
#    y 0.000000 3.717760 0.000000 
#    z 0.000000 0.000000 3.571590 
# 
# 
# High freq. dielectric constant tensor:
#      x y z
#    x 1.792170 0.000000 0.000000 
#    y 0.000000 1.790550 0.000000 
#    z 0.000000 0.000000 1.763250 
# 
# From -- ./inp_files/57957.got.cif
#   From: 2010.03.12/outbox.cif.g09.slc.cpg/sg65_29_cif.got.tgz:57957.got - 2010.04.10 20:52:16.
