data_PCOD8271273
_publ_section_title
;
Structure prediction by ZEFSAII (Michael W. Deem and Ramdas Pophale) SiO2 
 PCOD8271273
Probable space group: C M M M
;
_chemical_formula_sum "Si O2"
_cell_formula_units_Z 120
_cell_length_a 23.357135
_cell_length_b 27.836080
_cell_length_c 9.590745
_cell_angle_alpha 90.000000
_cell_angle_beta 90.000000
_cell_angle_gamma 90.000000
_cell_volume 6235.625020
_symmetry_space_group_name_H-M "C M M M"
_symmetry_group_IT_number 65
_symmetry_cell_setting 'orthorhombic'
loop_
_space_group_symop_operation_xyz
x,y,z
-x,-y,z
x,-y,-z
-x,y,-z
-x,-y,-z
x,y,-z
-x,y,z
x,-y,z
1/2+x,1/2+y,z
1/2-x,1/2-y,z
1/2+x,1/2-y,-z
1/2-x,1/2+y,-z
1/2-x,1/2-y,-z
1/2+x,1/2+y,-z
1/2-x,1/2+y,z
1/2+x,1/2-y,z
loop_
_atom_site_type_symbol
_atom_site_label
_atom_site_fract_x
_atom_site_fract_y
_atom_site_fract_z
Si Si1 0.754986 0.695984 0.660195
Si Si2 0.850197 0.126611 0.336020
Si Si3 0.817335 0.372750 0.151203
Si Si4 0.932992 0.552799 0.500000
Si Si5 0.934676 0.270332 0.348873
Si Si6 0.568072 0.685831 0.840514
Si Si7 0.219952 0.055493 0.161619
Si Si8 0.935157 0.621321 0.748282
O O1 0.773174 0.695750 0.500000
O O2 0.750000 0.750000 0.717186
O O3 0.695940 0.668593 0.686735
O O4 0.806897 0.670171 0.740315
O O5 0.862904 0.117695 0.500000
O O6 0.907141 0.142508 0.253430
O O7 0.827793 0.077983 0.263644
O O8 0.781374 0.420046 0.193357
O O9 0.885312 0.384248 0.137545
O O10 0.796229 0.355201 0.000000
O O11 0.903346 0.500000 0.500000
O O12 0.915495 0.582550 0.635008
O O13 0.000000 0.546032 0.500000
O O14 0.904202 0.260619 0.500000
O O15 0.909450 0.236228 0.227302
O O16 0.931158 0.325996 0.314737
O O17 0.000000 0.254892 0.365089
O O18 0.500000 0.681123 0.839839
O O19 0.590903 0.683684 0.000000
O O20 0.226114 0.000000 0.200625
O O21 0.201728 0.062447 0.000000
O O22 0.000000 0.611889 0.806254
#
# Coordination Sequence:
#
# PCOD8271273 Si02
#       8
#    16  16  16   8  16  16  16  16
#     4   9  20  37  55  76 106 146 188 234 283 330
#     4  10  20  35  57  86 115 146 186 233 283 334
#     4  10  22  36  54  82 111 145 188 231 281 339
#     4   9  18  34  54  76 101 136 188 242 289 338
#     4   9  17  31  50  71 101 146 193 230 271 321
#     4  10  21  35  53  82 120 158 192 225 265 325
#     4   9  19  39  63  82 107 145 187 234 288 345
#     4  10  20  34  53  78 112 149 188 236 286 339
#
# _framework density 19.244263
#
# number of rings (size 3 to 8) (size 9 to 14) (size 15 to 20)
#    0.000    2.467    0.667    0.800    2.800    3.200 
#    0.000    1.333    0.000    0.400    0.000    6.533 
#    0.000    0.000    0.000    0.000    0.000    0.000 
#
# Total GULP energy -743596.640525 kJ/mol
# GULP energy per Si atom -12393.277342 kJ/mol
# Density = 1.920046 g / cm^3
# Si number density = 19.244263 Si / 1000 Ang^3
#
#
#
# Elastic Constant Matrix: (Units=GPa)
#
#
# Indices 1 2 3 4 5 6 
#
# 1 57.8046 35.9633 32.9318 0.0000 0.0000 0.0000
# 2 35.9633 134.1969 60.0639 0.0000 0.0000 0.0000
# 3 32.9318 60.0639 109.7529 0.0000 0.0000 0.0000
# 4 0.0000 0.0000 0.0000 24.0335 0.0000 0.0000
# 5 0.0000 0.0000 0.0000 0.0000 21.6246 0.0000
# 6 0.0000 0.0000 0.0000 0.0000 0.0000 16.5008
#
#
#
# Elastic Compliance Matrix: (Units=1/GPa)
#
#
# Indices 1 2 3 4 5 6 
#
# 1 0.022348 -0.003957 -0.004540 0.000000 0.000000 0.000000
# 2 -0.003957 0.010570 -0.004597 0.000000 0.000000 0.000000
# 3 -0.004540 -0.004597 0.012990 0.000000 0.000000 0.000000
# 4 0.000000 0.000000 0.000000 0.041609 0.000000 0.000000
# 5 0.000000 0.000000 0.000000 0.000000 0.046244 0.000000
# 6 0.000000 0.000000 0.000000 0.000000 0.000000 0.060603
#
#
# Mechanical properties :
#
#
# Convention : Reuss Voigt Hill
#
# Bulk Modulus (GPa) = 50.71288 62.18581 56.44934
# Shear Modulus (GPa) = 22.01439 23.95146 22.98293
#
# Velocity S-wave (km/s) = 3.38590 3.53172 3.45958
# Velocity P-wave (km/s) = 6.45718 7.00106 6.73461
#
# Compressibility (1/GPa) = 0.01971886
#
# Stress axis : x y z
#
# Youngs Moduli (GPa) = 44.74663 94.60959 76.98512
#
# Poissons Ratio (x) = 0.37437 0.34952
# Poissons Ratio (y) = 0.17706 0.35391
# Poissons Ratio (z) = 0.20316 0.43493
#
# Static dielectric constant tensor:
#      x y z
#    x 3.469600 0.000000 0.000000 
#    y 0.000000 3.564640 0.000000 
#    z 0.000000 0.000000 3.575710 
# 
# 
# High freq. dielectric constant tensor:
#      x y z
#    x 1.735430 0.000000 0.000000 
#    y 0.000000 1.734850 0.000000 
#    z 0.000000 0.000000 1.749880 
# 
# From -- ./inp_files/17097.got.cif
#   From: 2010.03.12/outbox.cif.g09.slc.cpg/sg65_9_cif.got.tgz:17097.got - 2010.04.10 20:52:16.
