data_PCOD8271105
_publ_section_title
;
Structure prediction by ZEFSAII (Michael W. Deem and Ramdas Pophale) SiO2 
 PCOD8271105
Probable space group: C M M M
;
_chemical_formula_sum "Si O2"
_cell_formula_units_Z 104
_cell_length_a 21.440896
_cell_length_b 26.836225
_cell_length_c 9.390099
_cell_angle_alpha 90.000000
_cell_angle_beta 90.000000
_cell_angle_gamma 90.000000
_cell_volume 5402.994504
_symmetry_space_group_name_H-M "C M M M"
_symmetry_group_IT_number 65
_symmetry_cell_setting 'orthorhombic'
loop_
_space_group_symop_operation_xyz
x,y,z
-x,-y,z
x,-y,-z
-x,y,-z
-x,-y,-z
x,y,-z
-x,y,z
x,-y,z
1/2+x,1/2+y,z
1/2-x,1/2-y,z
1/2+x,1/2-y,-z
1/2-x,1/2+y,-z
1/2-x,1/2-y,-z
1/2+x,1/2+y,-z
1/2-x,1/2+y,z
1/2+x,1/2-y,z
loop_
_atom_site_type_symbol
_atom_site_label
_atom_site_fract_x
_atom_site_fract_y
_atom_site_fract_z
Si Si1 0.285715 0.606386 0.663247
Si Si2 0.071166 0.722253 0.667130
Si Si3 0.000000 0.940400 0.339935
Si Si4 0.072520 0.623188 0.839499
Si Si5 0.155692 0.556778 0.660816
Si Si6 0.807865 0.218113 0.331592
Si Si7 0.613938 0.441742 0.158188
O O1 0.308045 0.599504 0.500000
O O2 0.213431 0.594058 0.678199
O O3 0.299602 0.661688 0.721349
O O4 0.321041 0.568065 0.764811
O O5 0.076959 0.711029 0.500000
O O6 0.088356 0.671947 0.748613
O O7 0.123441 0.762368 0.716120
O O8 0.000000 0.740287 0.704019
O O9 0.940437 0.918741 0.256392
O O10 0.000000 0.918493 0.500000
O O11 0.000000 0.000000 0.345359
O O12 0.103357 0.574640 0.769915
O O13 0.000000 0.612024 0.839995
O O14 0.097566 0.630844 0.000000
O O15 0.129629 0.560047 0.500000
O O16 0.175076 0.500000 0.697013
O O17 0.802736 0.219948 0.500000
O O18 0.750000 0.250000 0.266804
O O19 0.603320 0.500000 0.143876
O O20 0.612262 0.417758 0.000000
#
# Coordination Sequence:
#
# PCOD8271105 Si02
#       7
#    16  16   8  16  16  16  16
#     4  10  20  35  55  80 107 138 179 225 270 317
#     4   9  17  32  55  80 106 138 177 220 265 319
#     4   9  17  31  53  77  99 131 177 223 263 305
#     4  10  21  36  55  80 109 141 177 218 269 330
#     4  10  21  36  55  79 107 142 184 228 271 319
#     4   9  17  31  53  79 105 135 174 222 273 321
#     4  10  20  34  52  75 107 144 179 217 265 321
#
# _framework density 19.248584999999999
#
# number of rings (size 3 to 8) (size 9 to 14) (size 15 to 20)
#    0.000    2.385    0.000    2.538    0.000    7.077 
#    1.385    2.308    0.000    1.846    0.000    0.000 
#    0.000    0.000    0.000    0.000    0.000    0.000 
#
# Total GULP energy -644726.895772 kJ/mol
# GULP energy per Si atom -12398.594149 kJ/mol
# Density = 1.920477 g / cm^3
# Si number density = 19.248585 Si / 1000 Ang^3
#
#
#
# Elastic Constant Matrix: (Units=GPa)
#
#
# Indices 1 2 3 4 5 6 
#
# 1 85.8243 44.5629 41.0049 0.0000 0.0000 0.0000
# 2 44.5629 86.0083 34.9884 0.0000 0.0000 0.0000
# 3 41.0049 34.9884 101.1335 0.0000 0.0000 0.0000
# 4 0.0000 0.0000 0.0000 15.1898 0.0000 0.0000
# 5 0.0000 0.0000 0.0000 0.0000 17.2881 0.0000
# 6 0.0000 0.0000 0.0000 0.0000 0.0000 35.9688
#
#
#
# Elastic Compliance Matrix: (Units=1/GPa)
#
#
# Indices 1 2 3 4 5 6 
#
# 1 0.017633 -0.007248 -0.004642 0.000000 0.000000 0.000000
# 2 -0.007248 0.016510 -0.002773 0.000000 0.000000 0.000000
# 3 -0.004642 -0.002773 0.012729 0.000000 0.000000 0.000000
# 4 0.000000 0.000000 0.000000 0.065834 0.000000 0.000000
# 5 0.000000 0.000000 0.000000 0.000000 0.057843 0.000000
# 6 0.000000 0.000000 0.000000 0.000000 0.000000 0.027802
#
#
# Mechanical properties :
#
#
# Convention : Reuss Voigt Hill
#
# Bulk Modulus (GPa) = 56.99063 57.11982 57.05522
# Shear Modulus (GPa) = 21.41094 23.85000 22.63047
#
# Velocity S-wave (km/s) = 3.33879 3.52384 3.43256
# Velocity P-wave (km/s) = 6.67348 6.80410 6.73911
#
# Compressibility (1/GPa) = 0.01754674
#
# Stress axis : x y z
#
# Youngs Moduli (GPa) = 56.71287 60.56888 78.55806
#
# Poissons Ratio (x) = 0.43898 0.36465
# Poissons Ratio (y) = 0.41103 0.21787
# Poissons Ratio (z) = 0.26325 0.16798
#
# Static dielectric constant tensor:
#      x y z
#    x 3.596740 0.000000 0.000000 
#    y 0.000000 3.356570 0.000000 
#    z 0.000000 0.000000 3.544100 
# 
# 
# High freq. dielectric constant tensor:
#      x y z
#    x 1.755400 0.000000 0.000000 
#    y 0.000000 1.730730 0.000000 
#    z 0.000000 0.000000 1.734260 
# 
# From -- ./inp_files/12389.got.cif
#   From: 2010.03.12/outbox.cif.g09.slc.cpg/sg65_7_cif.got.tgz:12389.got - 2010.04.10 20:52:16.
