data_PCOD8271681
_publ_section_title
;
Structure prediction by ZEFSAII (Michael W. Deem and Ramdas Pophale) SiO2 
 PCOD8271681
Probable space group: C M M M
;
_chemical_formula_sum "Si O2"
_cell_formula_units_Z 112
_cell_length_a 26.152588
_cell_length_b 9.724742
_cell_length_c 22.569387
_cell_angle_alpha 90.000000
_cell_angle_beta 90.000000
_cell_angle_gamma 90.000000
_cell_volume 5740.008345
_symmetry_space_group_name_H-M "C M M M"
_symmetry_group_IT_number 65
_symmetry_cell_setting 'orthorhombic'
loop_
_space_group_symop_operation_xyz
x,y,z
-x,-y,z
x,-y,-z
-x,y,-z
-x,-y,-z
x,y,-z
-x,y,z
x,-y,z
1/2+x,1/2+y,z
1/2-x,1/2-y,z
1/2+x,1/2-y,-z
1/2-x,1/2+y,-z
1/2-x,1/2-y,-z
1/2+x,1/2+y,-z
1/2-x,1/2+y,z
1/2+x,1/2-y,z
loop_
_atom_site_type_symbol
_atom_site_label
_atom_site_fract_x
_atom_site_fract_y
_atom_site_fract_z
Si Si1 0.557920 0.346918 0.644575
Si Si2 0.296750 0.152723 0.665195
Si Si3 0.852423 0.661552 0.069260
Si Si4 0.623135 0.259191 0.249060
Si Si5 0.704394 0.657573 0.159657
Si Si6 0.444309 0.158059 0.853107
Si Si7 0.374481 0.160247 0.432232
O O1 0.500000 0.304084 0.660556
O O2 0.559947 0.500000 0.617688
O O3 0.591909 0.349382 0.704015
O O4 0.578187 0.243270 0.594817
O O5 0.250000 0.250000 0.680827
O O6 0.339920 0.154903 0.715992
O O7 0.322278 0.196242 0.602694
O O8 0.274050 0.000000 0.661745
O O9 0.842203 0.500000 0.084243
O O10 0.810508 0.759009 0.100038
O O11 0.907720 0.710217 0.093889
O O12 0.850436 0.689821 0.000000
O O13 0.657802 0.353082 0.206140
O O14 0.582397 0.175901 0.210379
O O15 0.721186 0.500000 0.144950
O O16 0.750000 0.750000 0.188030
O O17 0.500000 0.233890 0.855354
O O18 0.454553 0.000000 0.863327
O O19 0.366165 0.203518 0.500000
O O20 0.387798 0.000000 0.425387
#
# Coordination Sequence:
#
# PCOD8271681 Si02
#       7
#    16  16  16  16  16  16  16
#     4  10  21  36  55  81 111 141 175 217 263 310
#     4  10  21  35  54  79 107 140 178 220 266 315
#     4   9  19  36  56  79 109 142 176 217 264 314
#     4  10  20  35  54  76 109 145 179 213 259 316
#     4  11  23  37  56  80 106 139 178 220 266 316
#     4   9  17  30  52  82 111 140 177 220 263 307
#     4   9  20  39  58  77 105 140 178 219 263 315
#
# _framework density 19.512167000000002
#
# number of rings (size 3 to 8) (size 9 to 14) (size 15 to 20)
#    0.000    2.286    0.000    2.143    0.000    8.286 
#    0.000    2.857    0.000    3.857    0.000    4.000 
#    0.000    0.000    0.000    0.000    0.000    0.000 
#
# Total GULP energy -694176.847906 kJ/mol
# GULP energy per Si atom -12396.015141 kJ/mol
# Density = 1.946776 g / cm^3
# Si number density = 19.512167 Si / 1000 Ang^3
#
#
#
# Elastic Constant Matrix: (Units=GPa)
#
#
# Indices 1 2 3 4 5 6 
#
# 1 104.0170 39.9028 25.6975 0.0000 0.0000 0.0000
# 2 39.9028 81.5164 27.1878 0.0000 0.0000 0.0000
# 3 25.6975 27.1878 104.0235 0.0000 0.0000 0.0000
# 4 0.0000 0.0000 0.0000 21.4989 0.0000 0.0000
# 5 0.0000 0.0000 0.0000 0.0000 11.9026 0.0000
# 6 0.0000 0.0000 0.0000 0.0000 0.0000 25.6436
#
#
#
# Elastic Compliance Matrix: (Units=1/GPa)
#
#
# Indices 1 2 3 4 5 6 
#
# 1 0.012067 -0.005382 -0.001574 0.000000 0.000000 0.000000
# 2 -0.005382 0.015839 -0.002810 0.000000 0.000000 0.000000
# 3 -0.001574 -0.002810 0.010737 0.000000 0.000000 0.000000
# 4 0.000000 0.000000 0.000000 0.046514 0.000000 0.000000
# 5 0.000000 0.000000 0.000000 0.000000 0.084015 0.000000
# 6 0.000000 0.000000 0.000000 0.000000 0.000000 0.038996
#
#
# Mechanical properties :
#
#
# Convention : Reuss Voigt Hill
#
# Bulk Modulus (GPa) = 52.32856 52.79257 52.56056
# Shear Modulus (GPa) = 21.36097 24.92694 23.14395
#
# Velocity S-wave (km/s) = 3.31229 3.57810 3.44776
# Velocity P-wave (km/s) = 6.44244 6.64721 6.54562
#
# Compressibility (1/GPa) = 0.01911002
#
# Stress axis : x y z
#
# Youngs Moduli (GPa) = 82.86789 63.13426 93.13890
#
# Poissons Ratio (x) = 0.33979 0.14664
# Poissons Ratio (y) = 0.44599 0.26174
# Poissons Ratio (z) = 0.13047 0.17742
#
# Static dielectric constant tensor:
#      x y z
#    x 4.034600 0.000000 0.000000 
#    y 0.000000 3.336900 0.000000 
#    z 0.000000 0.000000 3.558220 
# 
# 
# High freq. dielectric constant tensor:
#      x y z
#    x 1.766890 0.000000 0.000000 
#    y 0.000000 1.743140 0.000000 
#    z 0.000000 0.000000 1.757580 
# 
# From -- ./inp_files/65428.got.cif
#   From: 2010.03.12/outbox.cif.g09.slc.cpg/sg65_33_cif.got.tgz:65428.got - 2010.04.10 20:52:16.
