data_PCOD8271994
_publ_section_title
;
Structure prediction by ZEFSAII (Michael W. Deem and Ramdas Pophale) SiO2 
 PCOD8271994
Probable space group: C M M M
;
_chemical_formula_sum "Si O2"
_cell_formula_units_Z 88
_cell_length_a 8.902120
_cell_length_b 17.779709
_cell_length_c 27.952011
_cell_angle_alpha 90.000000
_cell_angle_beta 90.000000
_cell_angle_gamma 90.000000
_cell_volume 4424.163326
_symmetry_space_group_name_H-M "C M M M"
_symmetry_group_IT_number 65
_symmetry_cell_setting 'orthorhombic'
loop_
_space_group_symop_operation_xyz
x,y,z
-x,-y,z
x,-y,-z
-x,y,-z
-x,-y,-z
x,y,-z
-x,y,z
x,-y,z
1/2+x,1/2+y,z
1/2-x,1/2-y,z
1/2+x,1/2-y,-z
1/2-x,1/2+y,-z
1/2-x,1/2-y,-z
1/2+x,1/2+y,-z
1/2-x,1/2+y,z
1/2+x,1/2-y,z
loop_
_atom_site_type_symbol
_atom_site_label
_atom_site_fract_x
_atom_site_fract_y
_atom_site_fract_z
Si Si1 0.323374 0.329515 0.861828
Si Si2 0.673704 0.086881 0.777617
Si Si3 0.677339 0.830626 0.318637
Si Si4 0.326412 0.913806 0.055180
Si Si5 0.330207 0.089662 0.500000
Si Si6 0.330457 0.589217 0.404912
O O1 0.500000 0.319484 0.860446
O O2 0.250000 0.250000 0.849516
O O3 0.272888 0.390206 0.822818
O O4 0.275289 0.358098 0.914060
O O5 0.500000 0.101853 0.790015
O O6 0.726364 0.134761 0.732041
O O7 0.702863 0.000000 0.765892
O O8 0.500000 0.823802 0.322585
O O9 0.750000 0.750000 0.324754
O O10 0.734532 0.884966 0.359925
O O11 0.500000 0.900476 0.068336
O O12 0.282270 0.000000 0.066015
O O13 0.296389 0.894612 0.000000
O O14 0.500000 0.120662 0.500000
O O15 0.244947 0.120914 0.546718
O O16 0.329681 0.000000 0.500000
O O17 0.500000 0.620645 0.401603
O O18 0.330359 0.500000 0.405634
#
# Coordination Sequence:
#
# PCOD8271994 Si02
#       6
#    16  16  16  16   8  16
#     4  12  25  39  58  85 118 155 193 236 286 339
#     4  10  22  41  64  88 115 148 187 233 284 340
#     4  11  23  39  59  84 115 151 190 232 283 339
#     4   9  19  38  63  88 116 152 192 235 285 340
#     4   9  17  31  54  83 114 149 190 235 281 333
#     4  10  20  35  57  85 116 150 190 236 284 335
#
# _framework density 19.890767
#
# number of rings (size 3 to 8) (size 9 to 14) (size 15 to 20)
#    0.000    1.727    0.000    5.182    0.000    9.455 
#    0.000    1.364    0.000    0.000    0.000    0.000 
#    0.000    0.000    0.000    0.000    0.000    0.000 
#
# Total GULP energy -545838.923055 kJ/mol
# GULP energy per Si atom -12405.430069 kJ/mol
# Density = 1.984550 g / cm^3
# Si number density = 19.890767 Si / 1000 Ang^3
#
#
#
# Elastic Constant Matrix: (Units=GPa)
#
#
# Indices 1 2 3 4 5 6 
#
# 1 111.8225 27.5254 51.3232 0.0000 0.0000 0.0000
# 2 27.5254 41.6558 16.5486 0.0000 0.0000 0.0000
# 3 51.3232 16.5486 113.5338 0.0000 0.0000 0.0000
# 4 0.0000 0.0000 0.0000 10.3988 0.0000 0.0000
# 5 0.0000 0.0000 0.0000 0.0000 28.2891 0.0000
# 6 0.0000 0.0000 0.0000 0.0000 0.0000 31.7974
#
#
#
# Elastic Compliance Matrix: (Units=1/GPa)
#
#
# Indices 1 2 3 4 5 6 
#
# 1 0.012758 -0.006516 -0.004817 0.000000 0.000000 0.000000
# 2 -0.006516 0.028810 -0.001254 0.000000 0.000000 0.000000
# 3 -0.004817 -0.001254 0.011168 0.000000 0.000000 0.000000
# 4 0.000000 0.000000 0.000000 0.096165 0.000000 0.000000
# 5 0.000000 0.000000 0.000000 0.000000 0.035349 0.000000
# 6 0.000000 0.000000 0.000000 0.000000 0.000000 0.031449
#
#
# Mechanical properties :
#
#
# Convention : Reuss Voigt Hill
#
# Bulk Modulus (GPa) = 36.28225 50.86739 43.57482
# Shear Modulus (GPa) = 19.99509 25.53806 22.76657
#
# Velocity S-wave (km/s) = 3.17400 3.58706 3.38683
# Velocity P-wave (km/s) = 5.63140 6.54102 6.10318
#
# Compressibility (1/GPa) = 0.02756169
#
# Stress axis : x y z
#
# Youngs Moduli (GPa) = 78.38353 34.70997 89.53853
#
# Poissons Ratio (x) = 0.22618 0.43134
# Poissons Ratio (y) = 0.51077 0.11225
# Poissons Ratio (z) = 0.37760 0.04351
#
# Static dielectric constant tensor:
#      x y z
#    x 3.698980 0.000000 0.000000 
#    y 0.000000 3.471850 0.000000 
#    z 0.000000 0.000000 3.721050 
# 
# 
# High freq. dielectric constant tensor:
#      x y z
#    x 1.779710 0.000000 0.000000 
#    y 0.000000 1.766620 0.000000 
#    z 0.000000 0.000000 1.790920 
# 
# From -- ./inp_files/73176.got.cif
#   From: 2010.03.12/outbox.cif.g09.slc.cpg/sg65_37_cif.got.tgz:73176.got - 2010.04.10 20:52:16.
