data_PCOD8271511
_publ_section_title
;
Structure prediction by ZEFSAII (Michael W. Deem and Ramdas Pophale) SiO2 
 PCOD8271511
Probable space group: C M M M
;
_chemical_formula_sum "Si O2"
_cell_formula_units_Z 104
_cell_length_a 26.431264
_cell_length_b 9.216922
_cell_length_c 22.819803
_cell_angle_alpha 90.000000
_cell_angle_beta 90.000000
_cell_angle_gamma 90.000000
_cell_volume 5559.243995
_symmetry_space_group_name_H-M "C M M M"
_symmetry_group_IT_number 65
_symmetry_cell_setting 'orthorhombic'
loop_
_space_group_symop_operation_xyz
x,y,z
-x,-y,z
x,-y,-z
-x,y,-z
-x,-y,-z
x,y,-z
-x,y,z
x,-y,z
1/2+x,1/2+y,z
1/2-x,1/2-y,z
1/2+x,1/2-y,-z
1/2-x,1/2+y,-z
1/2-x,1/2-y,-z
1/2+x,1/2+y,-z
1/2-x,1/2+y,z
1/2+x,1/2-y,z
loop_
_atom_site_type_symbol
_atom_site_label
_atom_site_fract_x
_atom_site_fract_y
_atom_site_fract_z
Si Si1 0.136816 0.669030 0.433480
Si Si2 0.401228 0.671996 0.864446
Si Si3 0.000000 0.828138 0.065271
Si Si4 0.441987 0.664967 0.364195
Si Si5 0.898909 0.331569 0.257572
Si Si6 0.699795 0.669533 0.067574
Si Si7 0.701422 0.164096 0.326304
O O1 0.153727 0.699180 0.500000
O O2 0.123836 0.500000 0.422567
O O3 0.087449 0.762102 0.418260
O O4 0.181740 0.718142 0.389932
O O5 0.402356 0.500000 0.853741
O O6 0.449188 0.724413 0.902378
O O7 0.406030 0.754007 0.803715
O O8 0.349470 0.719886 0.896443
O O9 0.000000 0.000000 0.061635
O O10 0.000000 0.761320 0.000000
O O11 0.500000 0.667858 0.382583
O O12 0.422975 0.500000 0.354651
O O13 0.434947 0.754692 0.304548
O O14 0.914239 0.500000 0.252918
O O15 0.841063 0.313427 0.277364
O O16 0.709393 0.500000 0.075500
O O17 0.750000 0.750000 0.091385
O O18 0.689841 0.710326 0.000000
O O19 0.750000 0.250000 0.305283
O O20 0.718878 0.000000 0.331283
#
# Coordination Sequence:
#
# PCOD8271511 Si02
#       7
#    16  16   8  16  16  16  16
#     4   9  19  36  55  78 110 144 179 217 262 323
#     4  10  20  34  55  82 109 139 180 227 272 323
#     4   9  18  34  57  83 111 143 178 221 272 325
#     4  10  21  36  55  78 105 137 176 224 271 314
#     4  10  22  38  54  76 107 141 177 218 267 323
#     4   9  18  33  53  77 106 141 180 222 269 322
#     4   9  19  35  54  76 104 140 179 219 265 315
#
# _framework density 18.707578999999999
#
# number of rings (size 3 to 8) (size 9 to 14) (size 15 to 20)
#    0.000    2.538    0.000    2.308    1.077    8.308 
#    0.000    4.615    0.000    1.846    0.000    0.000 
#    0.000    0.000    0.000    0.000    0.000    0.000 
#
# Total GULP energy -644833.025241 kJ/mol
# GULP energy per Si atom -12400.635101 kJ/mol
# Density = 1.866500 g / cm^3
# Si number density = 18.707579 Si / 1000 Ang^3
#
#
#
# Elastic Constant Matrix: (Units=GPa)
#
#
# Indices 1 2 3 4 5 6 
#
# 1 95.4798 29.6995 23.8035 0.0000 0.0000 0.0000
# 2 29.6995 58.3111 23.6754 0.0000 0.0000 0.0000
# 3 23.8035 23.6754 99.0916 0.0000 0.0000 0.0000
# 4 0.0000 0.0000 0.0000 31.6643 0.0000 0.0000
# 5 0.0000 0.0000 0.0000 0.0000 12.8887 0.0000
# 6 0.0000 0.0000 0.0000 0.0000 0.0000 31.0519
#
#
#
# Elastic Compliance Matrix: (Units=1/GPa)
#
#
# Indices 1 2 3 4 5 6 
#
# 1 0.012689 -0.005786 -0.001665 0.000000 0.000000 0.000000
# 2 -0.005786 0.021631 -0.003778 0.000000 0.000000 0.000000
# 3 -0.001665 -0.003778 0.011394 0.000000 0.000000 0.000000
# 4 0.000000 0.000000 0.000000 0.031581 0.000000 0.000000
# 5 0.000000 0.000000 0.000000 0.000000 0.077588 0.000000
# 6 0.000000 0.000000 0.000000 0.000000 0.000000 0.032204
#
#
# Mechanical properties :
#
#
# Convention : Reuss Voigt Hill
#
# Bulk Modulus (GPa) = 43.00416 45.24881 44.12648
# Shear Modulus (GPa) = 23.00992 26.83458 24.92225
#
# Velocity S-wave (km/s) = 3.51091 3.79149 3.65389
# Velocity P-wave (km/s) = 6.28274 6.58841 6.43739
#
# Compressibility (1/GPa) = 0.02325357
#
# Stress axis : x y z
#
# Youngs Moduli (GPa) = 78.81139 46.23088 87.76218
#
# Poissons Ratio (x) = 0.26751 0.14617
# Poissons Ratio (y) = 0.45603 0.33157
# Poissons Ratio (z) = 0.13126 0.17466
#
# Static dielectric constant tensor:
#      x y z
#    x 3.430800 0.000000 0.000000 
#    y 0.000000 3.407150 0.000000 
#    z 0.000000 0.000000 3.433560 
# 
# 
# High freq. dielectric constant tensor:
#      x y z
#    x 1.727790 0.000000 0.000000 
#    y 0.000000 1.718400 0.000000 
#    z 0.000000 0.000000 1.726720 
# 
# From -- ./inp_files/65843.got.cif
#   From: 2010.03.12/outbox.cif.g09.slc.cpg/sg65_33_cif.got.tgz:65843.got - 2010.04.10 20:52:16.
