data_PCOD8271816
_publ_section_title
;
Structure prediction by ZEFSAII (Michael W. Deem and Ramdas Pophale) SiO2 
 PCOD8271816
Probable space group: C M M M
;
_chemical_formula_sum "Si O2"
_cell_formula_units_Z 80
_cell_length_a 15.380902
_cell_length_b 9.479264
_cell_length_c 30.380443
_cell_angle_alpha 90.000000
_cell_angle_beta 90.000000
_cell_angle_gamma 90.000000
_cell_volume 4429.457367
_symmetry_space_group_name_H-M "C M M M"
_symmetry_group_IT_number 65
_symmetry_cell_setting 'orthorhombic'
loop_
_space_group_symop_operation_xyz
x,y,z
-x,-y,z
x,-y,-z
-x,y,-z
-x,-y,-z
x,y,-z
-x,y,z
x,-y,z
1/2+x,1/2+y,z
1/2-x,1/2-y,z
1/2+x,1/2-y,-z
1/2-x,1/2+y,-z
1/2-x,1/2-y,-z
1/2+x,1/2+y,-z
1/2-x,1/2+y,z
1/2+x,1/2-y,z
loop_
_atom_site_type_symbol
_atom_site_label
_atom_site_fract_x
_atom_site_fract_y
_atom_site_fract_z
Si Si1 0.597006 0.332569 0.500000
Si Si2 0.500000 0.167732 0.950368
Si Si3 0.167085 0.834848 0.592824
Si Si4 0.500000 0.336600 0.650923
Si Si5 0.333497 0.836625 0.795364
Si Si6 0.500000 0.833586 0.740076
Si Si7 0.165992 0.664447 0.897132
O O1 0.588796 0.500000 0.500000
O O2 0.500000 0.267517 0.500000
O O3 0.647651 0.281296 0.543321
O O4 0.585323 0.222963 0.925294
O O5 0.500000 0.000000 0.949680
O O6 0.500000 0.226890 0.000000
O O7 0.250000 0.750000 0.611164
O O8 0.084656 0.798554 0.622740
O O9 0.188484 0.000000 0.593980
O O10 0.500000 0.500000 0.664469
O O11 0.500000 0.242568 0.693846
O O12 0.250000 0.750000 0.779206
O O13 0.415583 0.785737 0.767249
O O14 0.355097 0.806077 0.846191
O O15 0.312803 0.000000 0.787518
O O16 0.500000 0.000000 0.732295
O O17 0.183294 0.500000 0.905875
O O18 0.250000 0.750000 0.912893
#
# Coordination Sequence:
#
# PCOD8271816 Si02
#       7
#     8   8  16   8  16   8  16
#     4   9  15  30  57  80 101 132 169 205 242 290
#     4   9  17  29  47  71  99 134 171 201 238 296
#     4  10  20  35  56  79 103 134 170 206 245 291
#     4  10  22  38  53  73 103 139 171 199 242 301
#     4   9  18  33  53  76  99 126 163 207 253 297
#     4  10  21  36  54  74  99 131 166 206 251 295
#     4   9  17  31  51  73  98 128 164 206 249 294
#
# _framework density 18.060903
#
# number of rings (size 3 to 8) (size 9 to 14) (size 15 to 20)
#    0.000    2.600    1.000    0.900    0.000    5.200 
#    0.000    4.500    0.000    6.000    0.000    0.000 
#    0.000    0.000    0.000    0.000    0.000    0.000 
#
# Total GULP energy -496066.379154 kJ/mol
# GULP energy per Si atom -12401.659479 kJ/mol
# Density = 1.801980 g / cm^3
# Si number density = 18.060903 Si / 1000 Ang^3
#
#
#
# Elastic Constant Matrix: (Units=GPa)
#
#
# Indices 1 2 3 4 5 6 
#
# 1 186.0958 63.1915 87.2275 0.0000 0.0000 0.0000
# 2 63.1915 43.0391 43.5827 0.0000 0.0000 0.0000
# 3 87.2275 43.5827 115.8695 0.0000 0.0000 0.0000
# 4 0.0000 0.0000 0.0000 22.4201 0.0000 0.0000
# 5 0.0000 0.0000 0.0000 0.0000 21.4341 0.0000
# 6 0.0000 0.0000 0.0000 0.0000 0.0000 32.9107
#
#
#
# Elastic Compliance Matrix: (Units=1/GPa)
#
#
# Indices 1 2 3 4 5 6 
#
# 1 0.011657 -0.013291 -0.003776 0.000000 0.000000 0.000000
# 2 -0.013291 0.052683 -0.009811 0.000000 0.000000 0.000000
# 3 -0.003776 -0.009811 0.015163 0.000000 0.000000 0.000000
# 4 0.000000 0.000000 0.000000 0.044603 0.000000 0.000000
# 5 0.000000 0.000000 0.000000 0.000000 0.046655 0.000000
# 6 0.000000 0.000000 0.000000 0.000000 0.000000 0.030385
#
#
# Mechanical properties :
#
#
# Convention : Reuss Voigt Hill
#
# Bulk Modulus (GPa) = 38.83789 81.44532 60.14161
# Shear Modulus (GPa) = 18.97653 25.41983 22.19818
#
# Velocity S-wave (km/s) = 3.24496 3.75567 3.50962
# Velocity P-wave (km/s) = 5.96575 7.99997 7.05655
#
# Compressibility (1/GPa) = 0.02574805
#
# Stress axis : x y z
#
# Youngs Moduli (GPa) = 85.78835 18.98134 65.94957
#
# Poissons Ratio (x) = 0.25228 0.24902
# Poissons Ratio (y) = 1.14021 0.64700
# Poissons Ratio (z) = 0.32394 0.18622
#
# Static dielectric constant tensor:
#      x y z
#    x 3.476810 0.000000 0.000000 
#    y 0.000000 3.047010 0.000000 
#    z 0.000000 0.000000 3.355100 
# 
# 
# High freq. dielectric constant tensor:
#      x y z
#    x 1.713360 0.000000 0.000000 
#    y 0.000000 1.670610 0.000000 
#    z 0.000000 0.000000 1.699100 
# 
# From -- ./inp_files/69756.got.cif
#   From: 2010.03.12/outbox.cif.g09.slc.cpg/sg65_35_cif.got.tgz:69756.got - 2010.04.10 20:52:16.
