data_PCOD8271023
_publ_section_title
;
Structure prediction by ZEFSAII (Michael W. Deem and Ramdas Pophale) SiO2 
 PCOD8271023
Probable space group: C M M M
;
_chemical_formula_sum "Si O2"
_cell_formula_units_Z 88
_cell_length_a 19.563449
_cell_length_b 7.873320
_cell_length_c 32.028264
_cell_angle_alpha 90.000000
_cell_angle_beta 90.000000
_cell_angle_gamma 90.000000
_cell_volume 4933.290901
_symmetry_space_group_name_H-M "C M M M"
_symmetry_group_IT_number 65
_symmetry_cell_setting 'orthorhombic'
loop_
_space_group_symop_operation_xyz
x,y,z
-x,-y,z
x,-y,-z
-x,y,-z
-x,-y,-z
x,y,-z
-x,y,z
x,-y,z
1/2+x,1/2+y,z
1/2-x,1/2-y,z
1/2+x,1/2-y,-z
1/2-x,1/2+y,-z
1/2-x,1/2-y,-z
1/2+x,1/2+y,-z
1/2-x,1/2+y,z
1/2+x,1/2-y,z
loop_
_atom_site_type_symbol
_atom_site_label
_atom_site_fract_x
_atom_site_fract_y
_atom_site_fract_z
Si Si1 0.081819 0.808514 0.175936
Si Si2 0.923417 0.302524 0.000000
Si Si3 0.425060 0.301916 0.914095
Si Si4 0.918906 0.500000 0.674458
Si Si5 0.078912 0.809611 0.381826
Si Si6 0.581559 0.000000 0.231945
Si Si7 0.174901 0.300917 0.452290
O O1 0.110046 0.748243 0.129979
O O2 0.108867 0.671231 0.209392
O O3 0.000000 0.808688 0.173952
O O4 0.107303 0.000000 0.187747
O O5 0.884484 0.245390 0.957043
O O6 0.927337 0.500000 0.000000
O O7 0.000000 0.219983 0.000000
O O8 0.500000 0.213506 0.917230
O O9 0.434395 0.500000 0.910945
O O10 0.892933 0.670291 0.651032
O O11 0.888556 0.500000 0.721171
O O12 0.000000 0.500000 0.676939
O O13 0.119502 0.797517 0.425013
O O14 0.000000 0.772231 0.392059
O O15 0.088115 0.000000 0.363198
O O16 0.500000 0.000000 0.231958
O O17 0.165233 0.241418 0.500000
O O18 0.163235 0.500000 0.447256
O O19 0.250000 0.250000 0.436357
#
# Coordination Sequence:
#
# PCOD8271023 Si02
#       7
#    16   8  16   8  16   8  16
#     4   8  14  22  31  44  60  80 109 147 194 248
#     4   9  15  17  21  33  45  63  93 129 171 229
#     4   8  13  20  26  32  47  70  96 131 178 234
#     4   9  18  32  45  64  88 114 150 186 226 273
#     4  10  20  34  52  72  98 131 163 197 235 277
#     4   9  16  24  38  52  68  92 120 161 206 253
#     4  10  20  34  53  77 105 133 163 199 234 274
#
# _framework density 17.837990000000001
#
# number of rings (size 3 to 8) (size 9 to 14) (size 15 to 20)
#    0.000    3.000    0.909    1.909    1.273    3.273 
#    0.000    5.455    0.000    0.000    0.000    0.000 
#    0.000    0.000    0.000    0.000    0.000    0.000 
#
# Total GULP energy -545085.737729 kJ/mol
# GULP energy per Si atom -12388.312221 kJ/mol
# Density = 1.779739 g / cm^3
# Si number density = 17.837990 Si / 1000 Ang^3
#
#
#
# Elastic Constant Matrix: (Units=GPa)
#
#
# Indices 1 2 3 4 5 6 
#
# 1 22.7828 17.3064 28.8842 0.0000 0.0000 0.0000
# 2 17.3064 106.5077 68.0786 0.0000 0.0000 0.0000
# 3 28.8842 68.0786 151.2028 0.0000 0.0000 0.0000
# 4 0.0000 0.0000 0.0000 27.4891 0.0000 0.0000
# 5 0.0000 0.0000 0.0000 0.0000 -0.0392 0.0000
# 6 0.0000 0.0000 0.0000 0.0000 0.0000 11.4698
#
#
#
# Elastic Compliance Matrix: (Units=1/GPa)
#
#
# Indices 1 2 3 4 5 6 
#
# 1 0.058750 -0.003331 -0.009723 0.000000 0.000000 0.000000
# 2 -0.003331 0.013372 -0.005384 0.000000 0.000000 0.000000
# 3 -0.009723 -0.005384 0.010895 0.000000 0.000000 0.000000
# 4 0.000000 0.000000 0.000000 0.036378 0.000000 0.000000
# 5 0.000000 0.000000 0.000000 0.000000-25.531994 0.000000
# 6 0.000000 0.000000 0.000000 0.000000 0.000000 0.087185
#
#
# Mechanical properties :
#
#
# Convention : Reuss Voigt Hill
#
# Bulk Modulus (GPa) = 21.67317 56.55908 39.11612
# Shear Modulus (GPa) = -0.19784 18.86557 9.33387
#
# Velocity S-wave (km/s) = -0.33339 3.25561 2.28996
# Velocity P-wave (km/s) = 3.46817 6.77554 5.38220
#
# Compressibility (1/GPa) = 0.04614000
#
# Stress axis : x y z
#
# Youngs Moduli (GPa) = 17.02116 74.78393 91.78295
#
# Poissons Ratio (x) = 0.24914 0.89242
# Poissons Ratio (y) = 0.05670 0.49418
# Poissons Ratio (z) = 0.16550 0.40265
#
# Static dielectric constant tensor:
#      x y z
#    x 2.554730 0.000000 0.000000 
#    y 0.000000 3.428000 0.000000 
#    z 0.000000 0.000000 3.918430 
# 
# 
# High freq. dielectric constant tensor:
#      x y z
#    x 1.590530 0.000000 0.000000 
#    y 0.000000 1.704440 0.000000 
#    z 0.000000 0.000000 1.701210 
# 
# From -- ./inp_files/77991.got.cif
#   From: 2010.03.12/outbox.cif.g09.slc.cpg/sg65_39_cif.got.tgz:77991.got - 2010.04.10 20:52:16.
