data_PCOD8271084
_publ_section_title
;
Structure prediction by ZEFSAII (Michael W. Deem and Ramdas Pophale) SiO2 
 PCOD8271084
Probable space group: C M M M
;
_chemical_formula_sum "Si O2"
_cell_formula_units_Z 88
_cell_length_a 9.031538
_cell_length_b 17.648758
_cell_length_c 28.681317
_cell_angle_alpha 90.000000
_cell_angle_beta 90.000000
_cell_angle_gamma 90.000000
_cell_volume 4571.670814
_symmetry_space_group_name_H-M "C M M M"
_symmetry_group_IT_number 65
_symmetry_cell_setting 'orthorhombic'
loop_
_space_group_symop_operation_xyz
x,y,z
-x,-y,z
x,-y,-z
-x,y,-z
-x,-y,-z
x,y,-z
-x,y,z
x,-y,z
1/2+x,1/2+y,z
1/2-x,1/2-y,z
1/2+x,1/2-y,-z
1/2-x,1/2+y,-z
1/2-x,1/2-y,-z
1/2+x,1/2+y,-z
1/2-x,1/2+y,z
1/2+x,1/2-y,z
loop_
_atom_site_type_symbol
_atom_site_label
_atom_site_fract_x
_atom_site_fract_y
_atom_site_fract_z
Si Si1 0.176113 0.831074 0.592777
Si Si2 0.333909 0.909541 0.140658
Si Si3 0.667788 0.089940 0.323143
Si Si4 0.166866 0.909726 0.231559
Si Si5 0.333432 0.590109 0.051204
Si Si6 0.175583 0.084939 0.500000
O O1 0.250000 0.750000 0.596266
O O2 0.229230 0.881891 0.635387
O O3 0.232185 0.870820 0.545458
O O4 0.000000 0.823169 0.594215
O O5 0.500000 0.879028 0.146328
O O6 0.237714 0.878426 0.183792
O O7 0.269243 0.876546 0.092158
O O8 0.330969 0.000000 0.140192
O O9 0.500000 0.120886 0.328031
O O10 0.736123 0.120586 0.274778
O O11 0.668979 0.000000 0.323965
O O12 0.000000 0.878375 0.235926
O O13 0.166585 0.000000 0.231225
O O14 0.500000 0.619780 0.059097
O O15 0.332366 0.500000 0.053546
O O16 0.275405 0.616440 0.000000
O O17 0.000000 0.080395 0.500000
O O18 0.242577 0.000000 0.500000
#
# Coordination Sequence:
#
# PCOD8271084 Si02
#       6
#    16  16  16  16  16   8
#     4  11  22  37  57  80 109 142 175 210 251 299
#     4   9  15  21  30  46  69  97 132 179 233 284
#     4  10  20  34  52  75 102 130 165 210 256 302
#     4   9  16  26  41  60  82 111 148 190 238 291
#     4   8  13  20  28  38  56  87 129 176 225 279
#     4   9  19  36  59  85 110 139 176 215 252 294
#
# _framework density 19.24898
#
# number of rings (size 3 to 8) (size 9 to 14) (size 15 to 20)
#    0.000    2.636    0.000    3.545    0.000    6.545 
#    0.000    3.182    0.000    3.273    0.000    0.000 
#    0.000    0.000    0.000    0.000    0.000    0.909 
#
# Total GULP energy -545504.410230 kJ/mol
# GULP energy per Si atom -12397.827505 kJ/mol
# Density = 1.920517 g / cm^3
# Si number density = 19.248980 Si / 1000 Ang^3
#
#
#
# Elastic Constant Matrix: (Units=GPa)
#
#
# Indices 1 2 3 4 5 6 
#
# 1 124.1883 17.4442 69.9171 0.0000 0.0000 0.0000
# 2 17.4442 11.9868 14.8478 0.0000 0.0000 0.0000
# 3 69.9171 14.8478 178.3197 0.0000 0.0000 0.0000
# 4 0.0000 0.0000 0.0000 -1.1332 0.0000 0.0000
# 5 0.0000 0.0000 0.0000 0.0000 26.1960 0.0000
# 6 0.0000 0.0000 0.0000 0.0000 0.0000 12.8632
#
#
#
# Elastic Compliance Matrix: (Units=1/GPa)
#
#
# Indices 1 2 3 4 5 6 
#
# 1 0.011875 -0.012838 -0.003587 0.000000 0.000000 0.000000
# 2 -0.012838 0.106899 -0.003867 0.000000 0.000000 0.000000
# 3 -0.003587 -0.003867 0.007336 0.000000 0.000000 0.000000
# 4 0.000000 0.000000 0.000000 -0.882451 0.000000 0.000000
# 5 0.000000 0.000000 0.000000 0.000000 0.038174 0.000000
# 6 0.000000 0.000000 0.000000 0.000000 0.000000 0.077741
#
#
# Mechanical properties :
#
#
# Convention : Reuss Voigt Hill
#
# Bulk Modulus (GPa) = 11.69248 57.65699 34.67474
# Shear Modulus (GPa) = -8.75148 21.73758 6.49305
#
# Velocity S-wave (km/s) = -2.13456 3.36413 1.83862
# Velocity P-wave (km/s) = 0.11142 6.71626 4.74976
#
# Compressibility (1/GPa) = 0.08552503
#
# Stress axis : x y z
#
# Youngs Moduli (GPa) = 84.20936 9.35463 136.30716
#
# Poissons Ratio (x) = 0.12010 0.48895
# Poissons Ratio (y) = 1.08111 0.52712
# Poissons Ratio (z) = 0.30207 0.03618
#
# Static dielectric constant tensor:
#      x y z
#    x 3.653670 0.000000 0.000000 
#    y 0.000000 2.901470 0.000000 
#    z 0.000000 0.000000 3.918990 
# 
# 
# High freq. dielectric constant tensor:
#      x y z
#    x 1.752050 0.000000 0.000000 
#    y 0.000000 1.680450 0.000000 
#    z 0.000000 0.000000 1.771460 
# 
# From -- ./inp_files/76679.got.cif
#   From: 2010.03.12/outbox.cif.g09.slc.cpg/sg65_39_cif.got.tgz:76679.got - 2010.04.10 20:52:16.
