data_PCOD8271950
_publ_section_title
;
Structure prediction by ZEFSAII (Michael W. Deem and Ramdas Pophale) SiO2 
 PCOD8271950
Probable space group: C M M M
;
_chemical_formula_sum "Si O2"
_cell_formula_units_Z 112
_cell_length_a 15.919362
_cell_length_b 14.803417
_cell_length_c 23.248319
_cell_angle_alpha 90.000000
_cell_angle_beta 90.000000
_cell_angle_gamma 90.000000
_cell_volume 5478.721036
_symmetry_space_group_name_H-M "C M M M"
_symmetry_group_IT_number 65
_symmetry_cell_setting 'orthorhombic'
loop_
_space_group_symop_operation_xyz
x,y,z
-x,-y,z
x,-y,-z
-x,y,-z
-x,-y,-z
x,y,-z
-x,y,z
x,-y,z
1/2+x,1/2+y,z
1/2-x,1/2-y,z
1/2+x,1/2-y,-z
1/2-x,1/2+y,-z
1/2-x,1/2-y,-z
1/2+x,1/2+y,-z
1/2-x,1/2+y,z
1/2+x,1/2-y,z
loop_
_atom_site_type_symbol
_atom_site_label
_atom_site_fract_x
_atom_site_fract_y
_atom_site_fract_z
Si Si1 0.402106 0.099297 0.936742
Si Si2 0.242363 0.857110 0.564663
Si Si3 0.594791 0.099591 0.755485
Si Si4 0.657629 0.232923 0.841458
Si Si5 0.098298 0.099692 0.774368
Si Si6 0.593232 0.137404 0.372472
Si Si7 0.595375 0.349182 0.647051
O O1 0.500000 0.088416 0.942676
O O2 0.388048 0.180971 0.892663
O O3 0.365959 0.000000 0.917045
O O4 0.364505 0.123792 0.000000
O O5 0.226076 0.891350 0.500000
O O6 0.250000 0.750000 0.567398
O O7 0.332652 0.896335 0.585415
O O8 0.163697 0.892435 0.603107
O O9 0.500000 0.135942 0.766832
O O10 0.658519 0.169040 0.785073
O O11 0.612418 0.091372 0.688248
O O12 0.605623 0.000000 0.782727
O O13 0.750000 0.250000 0.863762
O O14 0.619513 0.330175 0.825113
O O15 0.129422 0.131869 0.711395
O O16 0.000000 0.091496 0.771043
O O17 0.136973 0.000000 0.788124
O O18 0.500000 0.108055 0.395323
O O19 0.593807 0.243626 0.363488
O O20 0.500000 0.388167 0.637288
#
# Coordination Sequence:
#
# PCOD8271950 Si02
#       7
#    16  16  16  16  16  16  16
#     4   9  19  39  67  93 118 155 201 244 285 331
#     4   9  18  30  48  74 103 137 182 233 290 354
#     4  10  20  35  57  83 111 147 190 240 294 345
#     4  12  24  34  55  88 125 156 187 232 290 344
#     4  10  21  37  56  78 109 153 199 240 284 338
#     4   9  17  30  50  74 104 140 179 229 294 358
#     4   9  17  31  51  72 101 141 187 238 293 344
#
# _framework density 20.442727000000001
#
# number of rings (size 3 to 8) (size 9 to 14) (size 15 to 20)
#    0.000    2.286    1.429    2.143    2.000    3.143 
#    0.000    2.857    0.000    2.143    0.000    6.000 
#    0.000    0.000    0.000    0.000    0.000    0.000 
#
# Total GULP energy -693876.518108 kJ/mol
# GULP energy per Si atom -12390.652109 kJ/mol
# Density = 2.039620 g / cm^3
# Si number density = 20.442727 Si / 1000 Ang^3
#
#
#
# Elastic Constant Matrix: (Units=GPa)
#
#
# Indices 1 2 3 4 5 6 
#
# 1 86.5136 27.9822 46.7233 0.0000 0.0000 0.0000
# 2 27.9822 82.9834 52.0381 0.0000 0.0000 0.0000
# 3 46.7233 52.0381 125.2168 0.0000 0.0000 0.0000
# 4 0.0000 0.0000 0.0000 -6.2037 0.0000 0.0000
# 5 0.0000 0.0000 0.0000 0.0000 22.0214 0.0000
# 6 0.0000 0.0000 0.0000 0.0000 0.0000 1.1111
#
#
#
# Elastic Compliance Matrix: (Units=1/GPa)
#
#
# Indices 1 2 3 4 5 6 
#
# 1 0.014731 -0.002056 -0.004642 0.000000 0.000000 0.000000
# 2 -0.002056 0.016585 -0.006125 0.000000 0.000000 0.000000
# 3 -0.004642 -0.006125 0.012264 0.000000 0.000000 0.000000
# 4 0.000000 0.000000 0.000000 -0.161193 0.000000 0.000000
# 5 0.000000 0.000000 0.000000 0.000000 0.045410 0.000000
# 6 0.000000 0.000000 0.000000 0.000000 0.000000 0.900027
#
#
# Mechanical properties :
#
#
# Convention : Reuss Voigt Hill
#
# Bulk Modulus (GPa) = 55.76420 60.91120 58.33770
# Shear Modulus (GPa) = 5.81768 14.58377 10.20072
#
# Velocity S-wave (km/s) = 1.68879 2.67385 2.23623
# Velocity P-wave (km/s) = 5.58034 6.27641 5.93858
#
# Compressibility (1/GPa) = 0.01793265
#
# Stress axis : x y z
#
# Youngs Moduli (GPa) = 67.88376 60.29531 81.54041
#
# Poissons Ratio (x) = 0.12398 0.37852
# Poissons Ratio (y) = 0.13959 0.49945
# Poissons Ratio (z) = 0.31513 0.36932
#
# Static dielectric constant tensor:
#      x y z
#    x 3.866730 0.000000 0.000000 
#    y 0.000000 3.351740 0.000000 
#    z 0.000000 0.000000 3.647940 
# 
# 
# High freq. dielectric constant tensor:
#      x y z
#    x 1.786280 0.000000 0.000000 
#    y 0.000000 1.797960 0.000000 
#    z 0.000000 0.000000 1.778250 
# 
# From -- ./inp_files/70065.got.cif
#   From: 2010.03.12/outbox.cif.g09.slc.cpg/sg65_36_cif.got.tgz:70065.got - 2010.04.10 20:52:16.
