data_PCOD8271567
_publ_section_title
;
Structure prediction by ZEFSAII (Michael W. Deem and Ramdas Pophale) SiO2 
 PCOD8271567
Probable space group: C M M M
;
_chemical_formula_sum "Si O2"
_cell_formula_units_Z 96
_cell_length_a 28.622156
_cell_length_b 8.780919
_cell_length_c 20.218342
_cell_angle_alpha 90.000000
_cell_angle_beta 90.000000
_cell_angle_gamma 90.000000
_cell_volume 5081.452309
_symmetry_space_group_name_H-M "C M M M"
_symmetry_group_IT_number 65
_symmetry_cell_setting 'orthorhombic'
loop_
_space_group_symop_operation_xyz
x,y,z
-x,-y,z
x,-y,-z
-x,y,-z
-x,-y,-z
x,y,-z
-x,y,z
x,-y,z
1/2+x,1/2+y,z
1/2-x,1/2-y,z
1/2+x,1/2-y,-z
1/2-x,1/2+y,-z
1/2-x,1/2-y,-z
1/2+x,1/2+y,-z
1/2-x,1/2+y,z
1/2+x,1/2-y,z
loop_
_atom_site_type_symbol
_atom_site_label
_atom_site_fract_x
_atom_site_fract_y
_atom_site_fract_z
Si Si1 0.642950 0.325320 0.925548
Si Si2 0.862082 0.320359 0.683231
Si Si3 0.447342 0.178196 0.119017
Si Si4 0.300672 0.820864 0.191232
Si Si5 0.447400 0.324710 0.740805
Si Si6 0.201074 0.176350 0.577103
O O1 0.644368 0.500000 0.902929
O O2 0.589403 0.268187 0.925670
O O3 0.675239 0.229423 0.876733
O O4 0.662350 0.305959 0.000000
O O5 0.869115 0.500000 0.681172
O O6 0.831588 0.268239 0.746422
O O7 0.912245 0.237732 0.685556
O O8 0.838986 0.264570 0.615782
O O9 0.500000 0.220209 0.096132
O O10 0.439397 0.222824 0.194742
O O11 0.437701 0.000000 0.111568
O O12 0.250000 0.750000 0.198739
O O13 0.294911 0.000000 0.189604
O O14 0.500000 0.305810 0.713600
O O15 0.436731 0.500000 0.758288
O O16 0.190769 0.198832 0.500000
O O17 0.250000 0.250000 0.597641
O O18 0.202099 0.000000 0.597385
#
# Coordination Sequence:
#
# PCOD8271567 Si02
#       6
#    16  16  16  16  16  16
#     4  11  24  40  58  80 108 145 188 235 287 342
#     4  11  22  36  59  89 118 151 190 233 281 333
#     4  10  20  35  56  82 112 145 183 229 282 339
#     4  11  24  40  59  83 110 144 186 234 284 336
#     4  10  20  34  56  85 116 150 187 231 281 332
#     4  10  21  37  58  86 121 159 196 235 281 333
#
# _framework density 18.892237000000002
#
# number of rings (size 3 to 8) (size 9 to 14) (size 15 to 20)
#    0.000    1.500    1.667    3.500    0.000    8.333 
#    0.000    1.667    0.000    0.500    0.000    3.500 
#    0.000    0.000    0.000    0.000    0.000    0.000 
#
# Total GULP energy -595420.965575 kJ/mol
# GULP energy per Si atom -12404.603449 kJ/mol
# Density = 1.884924 g / cm^3
# Si number density = 18.892237 Si / 1000 Ang^3
#
#
#
# Elastic Constant Matrix: (Units=GPa)
#
#
# Indices 1 2 3 4 5 6 
#
# 1 112.4358 41.8463 39.4812 0.0000 0.0000 0.0000
# 2 41.8463 67.0089 27.6174 0.0000 0.0000 0.0000
# 3 39.4812 27.6174 64.7764 0.0000 0.0000 0.0000
# 4 0.0000 0.0000 0.0000 29.5652 0.0000 0.0000
# 5 0.0000 0.0000 0.0000 0.0000 43.2752 0.0000
# 6 0.0000 0.0000 0.0000 0.0000 0.0000 37.9600
#
#
#
# Elastic Compliance Matrix: (Units=1/GPa)
#
#
# Indices 1 2 3 4 5 6 
#
# 1 0.012980 -0.005878 -0.005405 0.000000 0.000000 0.000000
# 2 -0.005878 0.020767 -0.005271 0.000000 0.000000 0.000000
# 3 -0.005405 -0.005271 0.020979 0.000000 0.000000 0.000000
# 4 0.000000 0.000000 0.000000 0.033824 0.000000 0.000000
# 5 0.000000 0.000000 0.000000 0.000000 0.023108 0.000000
# 6 0.000000 0.000000 0.000000 0.000000 0.000000 0.026344
#
#
# Mechanical properties :
#
#
# Convention : Reuss Voigt Hill
#
# Bulk Modulus (GPa) = 46.25925 51.34565 48.80245
# Shear Modulus (GPa) = 28.04031 31.17848 29.60940
#
# Velocity S-wave (km/s) = 3.85674 4.06684 3.96318
# Velocity P-wave (km/s) = 6.66120 7.02064 6.84328
#
# Compressibility (1/GPa) = 0.02161730
#
# Stress axis : x y z
#
# Youngs Moduli (GPa) = 77.04434 48.15419 47.66569
#
# Poissons Ratio (x) = 0.28305 0.25763
# Poissons Ratio (y) = 0.45286 0.25126
# Poissons Ratio (z) = 0.41642 0.25383
#
# Static dielectric constant tensor:
#      x y z
#    x 3.598950 0.000000 0.000000 
#    y 0.000000 3.586090 0.000000 
#    z 0.000000 0.000000 3.263140 
# 
# 
# High freq. dielectric constant tensor:
#      x y z
#    x 1.739660 0.000000 0.000000 
#    y 0.000000 1.752370 0.000000 
#    z 0.000000 0.000000 1.714620 
# 
# From -- ./inp_files/60286.got.cif
#   From: 2010.03.12/outbox.cif.g09.slc.cpg/sg65_31_cif.got.tgz:60286.got - 2010.04.10 20:52:16.
