data_PCOD8271176
_publ_section_title
;
Structure prediction by ZEFSAII (Michael W. Deem and Ramdas Pophale) SiO2 
 PCOD8271176
Probable space group: C M M M
;
_chemical_formula_sum "Si O2"
_cell_formula_units_Z 104
_cell_length_a 19.725894
_cell_length_b 9.326019
_cell_length_c 32.667108
_cell_angle_alpha 90.000000
_cell_angle_beta 90.000000
_cell_angle_gamma 90.000000
_cell_volume 6009.573889
_symmetry_space_group_name_H-M "C M M M"
_symmetry_group_IT_number 65
_symmetry_cell_setting 'orthorhombic'
loop_
_space_group_symop_operation_xyz
x,y,z
-x,-y,z
x,-y,-z
-x,y,-z
-x,-y,-z
x,y,-z
-x,y,z
x,-y,z
1/2+x,1/2+y,z
1/2-x,1/2-y,z
1/2+x,1/2-y,-z
1/2-x,1/2+y,-z
1/2-x,1/2-y,-z
1/2+x,1/2+y,-z
1/2-x,1/2+y,z
1/2+x,1/2-y,z
loop_
_atom_site_type_symbol
_atom_site_label
_atom_site_fract_x
_atom_site_fract_y
_atom_site_fract_z
Si Si1 0.179289 0.832211 0.411277
Si Si2 0.817381 0.836714 0.500000
Si Si3 0.078792 0.836999 0.047239
Si Si4 0.577476 0.331510 0.658407
Si Si5 0.815957 0.333785 0.194231
Si Si6 0.577350 0.833119 0.738790
Si Si7 0.817643 0.668361 0.100287
O O1 0.250000 0.750000 0.405236
O O2 0.145418 0.803057 0.456637
O O3 0.124378 0.776850 0.378699
O O4 0.194193 0.000000 0.404974
O O5 0.750000 0.750000 0.500000
O O6 0.794595 0.000000 0.500000
O O7 0.119695 0.724202 0.074104
O O8 0.000000 0.806887 0.054892
O O9 0.096940 0.000000 0.059943
O O10 0.097392 0.812039 0.000000
O O11 0.500000 0.288874 0.648189
O O12 0.584672 0.500000 0.665413
O O13 0.602875 0.253698 0.699373
O O14 0.799476 0.500000 0.199436
O O15 0.750000 0.250000 0.209419
O O16 0.879024 0.285914 0.222030
O O17 0.834020 0.296288 0.147490
O O18 0.500000 0.794105 0.749371
O O19 0.586164 0.000000 0.728847
O O20 0.807655 0.500000 0.092618
O O21 0.750000 0.750000 0.085994
#
# Coordination Sequence:
#
# PCOD8271176 Si02
#       7
#    16   8  16  16  16  16  16
#     4   9  17  29  46  67  90 117 150 188 227 270
#     4   8  14  26  43  63  87 115 147 182 224 270
#     4   9  19  36  55  75 102 134 166 203 246 289
#     4   9  18  32  47  65  92 122 151 187 230 273
#     4   9  19  34  51  72  98 126 156 195 239 280
#     4   9  18  33  51  69  91 122 158 192 229 276
#     4  10  20  34  53  76 102 132 165 202 244 290
#
# _framework density 17.305719
#
# number of rings (size 3 to 8) (size 9 to 14) (size 15 to 20)
#    0.000    2.923    0.000    0.923    0.000    4.000 
#    0.000    5.769    0.000    4.154    0.000    0.000 
#    0.000    8.615    0.000    0.000    0.000    0.000 
#
# Total GULP energy -644616.513319 kJ/mol
# GULP energy per Si atom -12396.471410 kJ/mol
# Density = 1.726633 g / cm^3
# Si number density = 17.305719 Si / 1000 Ang^3
#
#
#
# Elastic Constant Matrix: (Units=GPa)
#
#
# Indices 1 2 3 4 5 6 
#
# 1 91.5830 44.2178 74.1684 0.0000 0.0000 0.0000
# 2 44.2178 56.2016 49.6325 0.0000 0.0000 0.0000
# 3 74.1684 49.6325 115.3365 0.0000 0.0000 0.0000
# 4 0.0000 0.0000 0.0000 28.7782 0.0000 0.0000
# 5 0.0000 0.0000 0.0000 0.0000 32.8359 0.0000
# 6 0.0000 0.0000 0.0000 0.0000 0.0000 28.9778
#
#
#
# Elastic Compliance Matrix: (Units=1/GPa)
#
#
# Indices 1 2 3 4 5 6 
#
# 1 0.025287 -0.008927 -0.012420 0.000000 0.000000 0.000000
# 2 -0.008927 0.031852 -0.007966 0.000000 0.000000 0.000000
# 3 -0.012420 -0.007966 0.020085 0.000000 0.000000 0.000000
# 4 0.000000 0.000000 0.000000 0.034749 0.000000 0.000000
# 5 0.000000 0.000000 0.000000 0.000000 0.030454 0.000000
# 6 0.000000 0.000000 0.000000 0.000000 0.000000 0.034509
#
#
# Mechanical properties :
#
#
# Convention : Reuss Voigt Hill
#
# Bulk Modulus (GPa) = 53.76884 66.57319 60.17102
# Shear Modulus (GPa) = 20.68160 24.45854 22.57007
#
# Velocity S-wave (km/s) = 3.46073 3.76350 3.61528
# Velocity P-wave (km/s) = 6.86341 7.57876 7.22994
#
# Compressibility (1/GPa) = 0.01859813
#
# Stress axis : x y z
#
# Youngs Moduli (GPa) = 39.54544 31.39560 49.78903
#
# Poissons Ratio (x) = 0.28028 0.61836
# Poissons Ratio (y) = 0.35304 0.39661
# Poissons Ratio (z) = 0.49114 0.25009
#
# Static dielectric constant tensor:
#      x y z
#    x 3.112500 0.000000 0.000000 
#    y 0.000000 3.175440 0.000000 
#    z 0.000000 0.000000 3.553610 
# 
# 
# High freq. dielectric constant tensor:
#      x y z
#    x 1.654640 0.000000 0.000000 
#    y 0.000000 1.667680 0.000000 
#    z 0.000000 0.000000 1.676530 
# 
# From -- ./inp_files/75487.got.cif
#   From: 2010.03.12/outbox.cif.g09.slc.cpg/sg65_38_cif.got.tgz:75487.got - 2010.04.10 20:52:16.
