data_PCOD8271668
_publ_section_title
;
Structure prediction by ZEFSAII (Michael W. Deem and Ramdas Pophale) SiO2 
 PCOD8271668
Probable space group: C M M M
;
_chemical_formula_sum "Si O2"
_cell_formula_units_Z 80
_cell_length_a 25.643863
_cell_length_b 8.727695
_cell_length_c 19.283397
_cell_angle_alpha 90.000000
_cell_angle_beta 90.000000
_cell_angle_gamma 90.000000
_cell_volume 4315.852080
_symmetry_space_group_name_H-M "C M M M"
_symmetry_group_IT_number 65
_symmetry_cell_setting 'orthorhombic'
loop_
_space_group_symop_operation_xyz
x,y,z
-x,-y,z
x,-y,-z
-x,y,-z
-x,-y,-z
x,y,-z
-x,y,z
x,-y,z
1/2+x,1/2+y,z
1/2-x,1/2-y,z
1/2+x,1/2-y,-z
1/2-x,1/2+y,-z
1/2-x,1/2-y,-z
1/2+x,1/2+y,-z
1/2-x,1/2+y,z
1/2+x,1/2-y,z
loop_
_atom_site_type_symbol
_atom_site_label
_atom_site_fract_x
_atom_site_fract_y
_atom_site_fract_z
Si Si1 0.305208 0.181145 0.329424
Si Si2 0.805211 0.817900 0.182057
Si Si3 0.000000 0.327029 0.417558
Si Si4 0.000000 0.672412 0.082403
Si Si5 0.606310 0.675438 0.417834
Si Si6 0.894586 0.819280 0.078345
O O1 0.250000 0.250000 0.353559
O O2 0.322466 0.251443 0.256023
O O3 0.347839 0.222746 0.386468
O O4 0.299710 0.000000 0.322483
O O5 0.750000 0.750000 0.158425
O O6 0.846911 0.762728 0.125358
O O7 0.801329 0.000000 0.187191
O O8 0.948945 0.238853 0.390133
O O9 0.000000 0.500000 0.388298
O O10 0.000000 0.328147 0.500000
O O11 0.051978 0.753773 0.110753
O O12 0.000000 0.500000 0.109843
O O13 0.000000 0.683595 0.000000
O O14 0.609935 0.690983 0.500000
O O15 0.612047 0.500000 0.393785
O O16 0.899393 0.000000 0.078957
O O17 0.885168 0.758616 0.000000
#
# Coordination Sequence:
#
# PCOD8271668 Si02
#       6
#    16  16   8   8  16  16
#     4  11  22  37  56  76 103 138 175 215 261 311
#     4  10  20  35  54  75 102 136 173 211 256 308
#     4   9  17  31  52  79 110 141 172 208 254 305
#     4   9  17  29  48  75 104 133 166 208 256 301
#     4  10  20  35  56  81 108 138 173 213 257 306
#     4   9  18  33  53  76 103 136 171 207 251 305
#
# _framework density 18.536317
#
# number of rings (size 3 to 8) (size 9 to 14) (size 15 to 20)
#    0.000    2.200    0.000    4.800    0.000    6.000 
#    0.000    1.000    0.000    3.600    0.000    0.000 
#    0.000    0.000    0.000    0.000    0.000    0.000 
#
# Total GULP energy -496072.285969 kJ/mol
# GULP energy per Si atom -12401.807149 kJ/mol
# Density = 1.849413 g / cm^3
# Si number density = 18.536317 Si / 1000 Ang^3
#
#
#
# Elastic Constant Matrix: (Units=GPa)
#
#
# Indices 1 2 3 4 5 6 
#
# 1 148.5532 53.1125 56.7482 0.0000 0.0000 0.0000
# 2 53.1125 93.1785 30.0701 0.0000 0.0000 0.0000
# 3 56.7482 30.0701 47.7225 0.0000 0.0000 0.0000
# 4 0.0000 0.0000 0.0000 24.3000 0.0000 0.0000
# 5 0.0000 0.0000 0.0000 0.0000 6.4016 0.0000
# 6 0.0000 0.0000 0.0000 0.0000 0.0000 36.3426
#
#
#
# Elastic Compliance Matrix: (Units=1/GPa)
#
#
# Indices 1 2 3 4 5 6 
#
# 1 0.012985 -0.003036 -0.013527 0.000000 0.000000 0.000000
# 2 -0.003036 0.014181 -0.005326 0.000000 0.000000 0.000000
# 3 -0.013527 -0.005326 0.040396 0.000000 0.000000 0.000000
# 4 0.000000 0.000000 0.000000 0.041152 0.000000 0.000000
# 5 0.000000 0.000000 0.000000 0.000000 0.156210 0.000000
# 6 0.000000 0.000000 0.000000 0.000000 0.000000 0.027516
#
#
# Mechanical properties :
#
#
# Convention : Reuss Voigt Hill
#
# Bulk Modulus (GPa) = 42.04507 63.25729 52.65118
# Shear Modulus (GPa) = 14.52873 23.37708 18.95291
#
# Velocity S-wave (km/s) = 2.80268 3.55512 3.20108
# Velocity P-wave (km/s) = 5.76239 7.14507 6.49065
#
# Compressibility (1/GPa) = 0.02378400
#
# Stress axis : x y z
#
# Youngs Moduli (GPa) = 77.01463 70.51597 24.75492
#
# Poissons Ratio (x) = 0.21407 0.33487
# Poissons Ratio (y) = 0.23380 0.13184
# Poissons Ratio (z) = 1.04181 0.37554
#
# Static dielectric constant tensor:
#      x y z
#    x 3.587250 0.000000 0.000000 
#    y 0.000000 3.513200 0.000000 
#    z 0.000000 0.000000 3.211600 
# 
# 
# High freq. dielectric constant tensor:
#      x y z
#    x 1.732510 0.000000 0.000000 
#    y 0.000000 1.732270 0.000000 
#    z 0.000000 0.000000 1.689940 
# 
# From -- ./inp_files/65089.got.cif
#   From: 2010.03.12/outbox.cif.g09.slc.cpg/sg65_33_cif.got.tgz:65089.got - 2010.04.10 20:52:16.
