data_PCOD8271585
_publ_section_title
;
Structure prediction by ZEFSAII (Michael W. Deem and Ramdas Pophale) SiO2 
 PCOD8271585
Probable space group: C M M M
;
_chemical_formula_sum "Si O2"
_cell_formula_units_Z 120
_cell_length_a 27.317464
_cell_length_b 27.024604
_cell_length_c 8.660793
_cell_angle_alpha 90.000000
_cell_angle_beta 90.000000
_cell_angle_gamma 90.000000
_cell_volume 6393.775409
_symmetry_space_group_name_H-M "C M M M"
_symmetry_group_IT_number 65
_symmetry_cell_setting 'orthorhombic'
loop_
_space_group_symop_operation_xyz
x,y,z
-x,-y,z
x,-y,-z
-x,y,-z
-x,-y,-z
x,y,-z
-x,y,z
x,-y,z
1/2+x,1/2+y,z
1/2-x,1/2-y,z
1/2+x,1/2-y,-z
1/2-x,1/2+y,-z
1/2-x,1/2-y,-z
1/2+x,1/2+y,-z
1/2-x,1/2+y,z
1/2+x,1/2-y,z
loop_
_atom_site_type_symbol
_atom_site_label
_atom_site_fract_x
_atom_site_fract_y
_atom_site_fract_z
Si Si1 0.786078 0.100327 0.178821
Si Si2 0.232494 0.698842 0.179474
Si Si3 0.056553 0.708026 0.319884
Si Si4 0.362007 0.143756 0.817224
Si Si5 0.191061 0.443449 0.321661
Si Si6 0.944100 0.188043 0.819221
Si Si7 0.110908 0.096441 0.681194
Si Si8 0.945176 0.000000 0.683506
O O1 0.773839 0.157813 0.208319
O O2 0.740700 0.066352 0.227357
O O3 0.832464 0.086843 0.282643
O O4 0.797978 0.090370 0.000000
O O5 0.250000 0.750000 0.260208
O O6 0.180601 0.680327 0.247219
O O7 0.224126 0.708703 0.000000
O O8 0.066803 0.703136 0.500000
O O9 0.085825 0.665316 0.231235
O O10 0.073547 0.762181 0.265081
O O11 0.000000 0.699814 0.277784
O O12 0.353493 0.090038 0.741345
O O13 0.358702 0.137382 0.000000
O O14 0.201052 0.431257 0.500000
O O15 0.175062 0.500000 0.297314
O O16 0.908554 0.144254 0.769704
O O17 0.000000 0.174910 0.772701
O O18 0.938913 0.197294 0.000000
O O19 0.102924 0.104117 0.500000
O O20 0.081746 0.048934 0.744663
O O21 0.944977 0.000000 0.500000
O O22 0.000000 0.000000 0.750229
#
# Coordination Sequence:
#
# PCOD8271585 Si02
#       8
#    16  16  16  16  16  16  16   8
#     4  10  21  35  53  80 111 144 184 230 281 332
#     4   8  16  31  50  74 106 143 178 214 262 323
#     4  10  21  37  58  85 118 154 190 230 275 328
#     4  10  20  34  57  86 115 150 188 232 284 336
#     4  10  21  38  60  82 111 150 190 233 280 337
#     4  10  21  37  56  79 108 144 187 234 284 337
#     4  11  22  36  56  80 107 140 184 237 292 348
#     4   9  20  38  57  75  99 139 187 235 290 347
#
# _framework density 18.768253999999999
#
# number of rings (size 3 to 8) (size 9 to 14) (size 15 to 20)
#    0.000    2.200    0.000    3.600    2.800    3.200 
#    0.000    1.000    0.000    5.200    0.000    2.800 
#    0.000    0.000    0.000    0.000    0.000    0.000 
#
# Total GULP energy -744156.899450 kJ/mol
# GULP energy per Si atom -12402.614991 kJ/mol
# Density = 1.872554 g / cm^3
# Si number density = 18.768254 Si / 1000 Ang^3
#
#
#
# Elastic Constant Matrix: (Units=GPa)
#
#
# Indices 1 2 3 4 5 6 
#
# 1 82.7112 51.7998 17.1166 0.0000 0.0000 0.0000
# 2 51.7998 128.2098 32.6152 0.0000 0.0000 0.0000
# 3 17.1166 32.6152 51.5703 0.0000 0.0000 0.0000
# 4 0.0000 0.0000 0.0000 24.8663 0.0000 0.0000
# 5 0.0000 0.0000 0.0000 0.0000 31.4678 0.0000
# 6 0.0000 0.0000 0.0000 0.0000 0.0000 26.4636
#
#
#
# Elastic Compliance Matrix: (Units=1/GPa)
#
#
# Indices 1 2 3 4 5 6 
#
# 1 0.016280 -0.006201 -0.001482 0.000000 0.000000 0.000000
# 2 -0.006201 0.011657 -0.005314 0.000000 0.000000 0.000000
# 3 -0.001482 -0.005314 0.023244 0.000000 0.000000 0.000000
# 4 0.000000 0.000000 0.000000 0.040215 0.000000 0.000000
# 5 0.000000 0.000000 0.000000 0.000000 0.031779 0.000000
# 6 0.000000 0.000000 0.000000 0.000000 0.000000 0.037788
#
#
# Mechanical properties :
#
#
# Convention : Reuss Voigt Hill
#
# Bulk Modulus (GPa) = 39.70274 51.72830 45.71552
# Shear Modulus (GPa) = 25.59487 27.29017 26.44252
#
# Velocity S-wave (km/s) = 3.69688 3.81735 3.75760
# Velocity P-wave (km/s) = 6.27875 6.85937 6.57547
#
# Compressibility (1/GPa) = 0.02518718
#
# Stress axis : x y z
#
# Youngs Moduli (GPa) = 61.42422 85.78700 43.02217
#
# Poissons Ratio (x) = 0.53193 0.06376
# Poissons Ratio (y) = 0.38087 0.22863
# Poissons Ratio (z) = 0.09103 0.45589
#
# Static dielectric constant tensor:
#      x y z
#    x 3.388760 0.000000 0.000000 
#    y 0.000000 3.533150 0.000000 
#    z 0.000000 0.000000 3.350300 
# 
# 
# High freq. dielectric constant tensor:
#      x y z
#    x 1.721110 0.000000 0.000000 
#    y 0.000000 1.729610 0.000000 
#    z 0.000000 0.000000 1.723960 
# 
# From -- ./inp_files/17116.got.cif
#   From: 2010.03.12/outbox.cif.g09.slc.cpg/sg65_9_cif.got.tgz:17116.got - 2010.04.10 20:52:16.
