data_PCOD8271179
_publ_section_title
;
Structure prediction by ZEFSAII (Michael W. Deem and Ramdas Pophale) SiO2 
 PCOD8271179
Probable space group: C M M M
;
_chemical_formula_sum "Si O2"
_cell_formula_units_Z 96
_cell_length_a 19.893757
_cell_length_b 9.322191
_cell_length_c 29.537761
_cell_angle_alpha 90.000000
_cell_angle_beta 90.000000
_cell_angle_gamma 90.000000
_cell_volume 5477.878279
_symmetry_space_group_name_H-M "C M M M"
_symmetry_group_IT_number 65
_symmetry_cell_setting 'orthorhombic'
loop_
_space_group_symop_operation_xyz
x,y,z
-x,-y,z
x,-y,-z
-x,y,-z
-x,-y,-z
x,y,-z
-x,y,z
x,-y,z
1/2+x,1/2+y,z
1/2-x,1/2-y,z
1/2+x,1/2-y,-z
1/2-x,1/2+y,-z
1/2-x,1/2-y,-z
1/2+x,1/2+y,-z
1/2-x,1/2+y,z
1/2+x,1/2-y,z
loop_
_atom_site_type_symbol
_atom_site_label
_atom_site_fract_x
_atom_site_fract_y
_atom_site_fract_z
Si Si1 0.422143 0.163273 0.052465
Si Si2 0.182953 0.168430 0.109668
Si Si3 0.076640 0.667458 0.375141
Si Si4 0.076529 0.167565 0.286407
Si Si5 0.183974 0.332549 0.551553
Si Si6 0.815471 0.833607 0.786198
O O1 0.500000 0.194899 0.062132
O O2 0.379739 0.275312 0.081308
O O3 0.404398 0.000000 0.066383
O O4 0.405409 0.187583 0.000000
O O5 0.250000 0.250000 0.093565
O O6 0.167516 0.203269 0.161967
O O7 0.192604 0.000000 0.100915
O O8 0.084023 0.500000 0.365076
O O9 0.102175 0.750156 0.330797
O O10 0.121444 0.715436 0.417684
O O11 0.000000 0.709157 0.386823
O O12 0.121261 0.215396 0.243782
O O13 0.000000 0.210227 0.274755
O O14 0.083523 0.000000 0.296390
O O15 0.165854 0.291048 0.500000
O O16 0.198972 0.500000 0.556405
O O17 0.250000 0.250000 0.568320
O O18 0.750000 0.750000 0.769194
O O19 0.799671 0.000000 0.779900
#
# Coordination Sequence:
#
# PCOD8271179 Si02
#       6
#    16  16  16  16  16  16
#     4   9  19  36  55  75 102 134 166 203 248 296
#     4  10  20  34  53  76 102 132 167 207 248 292
#     4   9  18  32  49  70  95 122 156 197 236 277
#     4   9  18  33  51  70  95 127 160 194 236 285
#     4   9  18  32  49  69  94 124 156 192 235 281
#     4   9  19  34  51  72  98 128 161 199 241 285
#
# _framework density 17.525033000000001
#
# number of rings (size 3 to 8) (size 9 to 14) (size 15 to 20)
#    0.000    2.833    0.000    1.000    0.000    4.667 
#    0.000    7.500    0.000    2.000    0.000    4.667 
#    0.000    0.000    0.000    0.000    0.000    0.000 
#
# Total GULP energy -595296.899820 kJ/mol
# GULP energy per Si atom -12402.018746 kJ/mol
# Density = 1.748515 g / cm^3
# Si number density = 17.525033 Si / 1000 Ang^3
#
#
#
# Elastic Constant Matrix: (Units=GPa)
#
#
# Indices 1 2 3 4 5 6 
#
# 1 112.3790 53.9868 76.2902 0.0000 0.0000 0.0000
# 2 53.9868 61.4786 49.0101 0.0000 0.0000 0.0000
# 3 76.2902 49.0101 95.9017 0.0000 0.0000 0.0000
# 4 0.0000 0.0000 0.0000 30.2303 0.0000 0.0000
# 5 0.0000 0.0000 0.0000 0.0000 34.3410 0.0000
# 6 0.0000 0.0000 0.0000 0.0000 0.0000 32.8930
#
#
#
# Elastic Compliance Matrix: (Units=1/GPa)
#
#
# Indices 1 2 3 4 5 6 
#
# 1 0.021971 -0.009045 -0.012855 0.000000 0.000000 0.000000
# 2 -0.009045 0.031172 -0.008735 0.000000 0.000000 0.000000
# 3 -0.012855 -0.008735 0.025118 0.000000 0.000000 0.000000
# 4 0.000000 0.000000 0.000000 0.033079 0.000000 0.000000
# 5 0.000000 0.000000 0.000000 0.000000 0.029120 0.000000
# 6 0.000000 0.000000 0.000000 0.000000 0.000000 0.030402
#
#
# Mechanical properties :
#
#
# Convention : Reuss Voigt Hill
#
# Bulk Modulus (GPa) = 58.85884 69.81482 64.33683
# Shear Modulus (GPa) = 21.02647 25.52435 23.27541
#
# Velocity S-wave (km/s) = 3.46757 3.82049 3.64830
# Velocity P-wave (km/s) = 7.04915 7.70618 7.38497
#
# Compressibility (1/GPa) = 0.01698980
#
# Stress axis : x y z
#
# Youngs Moduli (GPa) = 45.51474 32.07992 39.81266
#
# Poissons Ratio (x) = 0.29018 0.51181
# Poissons Ratio (y) = 0.41170 0.34775
# Poissons Ratio (z) = 0.58511 0.28021
#
# Static dielectric constant tensor:
#      x y z
#    x 3.308870 0.000000 0.000000 
#    y 0.000000 3.213620 0.000000 
#    z 0.000000 0.000000 3.293640 
# 
# 
# High freq. dielectric constant tensor:
#      x y z
#    x 1.678740 0.000000 0.000000 
#    y 0.000000 1.675840 0.000000 
#    z 0.000000 0.000000 1.675750 
# 
# From -- ./inp_files/73103.got.cif
#   From: 2010.03.12/outbox.cif.g09.slc.cpg/sg65_37_cif.got.tgz:73103.got - 2010.04.10 20:52:16.
