data_PCOD8271464
_publ_section_title
;
Structure prediction by ZEFSAII (Michael W. Deem and Ramdas Pophale) SiO2 
 PCOD8271464
Probable space group: C M M M
;
_chemical_formula_sum "Si O2"
_cell_formula_units_Z 88
_cell_length_a 8.861593
_cell_length_b 29.754927
_cell_length_c 17.489626
_cell_angle_alpha 90.000000
_cell_angle_beta 90.000000
_cell_angle_gamma 90.000000
_cell_volume 4611.595549
_symmetry_space_group_name_H-M "C M M M"
_symmetry_group_IT_number 65
_symmetry_cell_setting 'orthorhombic'
loop_
_space_group_symop_operation_xyz
x,y,z
-x,-y,z
x,-y,-z
-x,y,-z
-x,-y,-z
x,y,-z
-x,y,z
x,-y,z
1/2+x,1/2+y,z
1/2-x,1/2-y,z
1/2+x,1/2-y,-z
1/2-x,1/2+y,-z
1/2-x,1/2-y,-z
1/2+x,1/2+y,-z
1/2-x,1/2+y,z
1/2+x,1/2-y,z
loop_
_atom_site_type_symbol
_atom_site_label
_atom_site_fract_x
_atom_site_fract_y
_atom_site_fract_z
Si Si1 0.677362 0.946966 0.500000
Si Si2 0.831370 0.293991 0.376825
Si Si3 0.170732 0.947144 0.086123
Si Si4 0.164514 0.292214 0.804158
Si Si5 0.178467 0.389288 0.790977
Si Si6 0.320181 0.387799 0.628944
O O1 0.500000 0.936231 0.500000
O O2 0.754011 0.926019 0.574630
O O3 0.708577 0.000000 0.500000
O O4 0.750000 0.250000 0.412574
O O5 0.841844 0.287621 0.286622
O O6 0.738854 0.338877 0.397607
O O7 0.000000 0.298047 0.411370
O O8 0.288136 0.925649 0.144588
O O9 0.000000 0.932311 0.106078
O O10 0.187402 0.000000 0.093888
O O11 0.211614 0.932006 0.000000
O O12 0.250000 0.250000 0.841310
O O13 0.236945 0.340844 0.822804
O O14 0.000000 0.290015 0.840990
O O15 0.266327 0.401080 0.713707
O O16 0.000000 0.387186 0.772779
O O17 0.500000 0.387663 0.625063
#
# Coordination Sequence:
#
# PCOD8271464 Si02
#       6
#     8  16  16  16  16  16
#     4  11  25  45  64  79 102 139 181 229 283 331
#     4   9  16  29  50  78 111 144 179 219 266 318
#     4   9  19  36  56  79 108 140 175 219 273 330
#     4   8  15  26  43  70 103 137 173 213 254 301
#     4  10  20  34  54  82 112 142 180 223 265 316
#     4  11  22  37  58  83 111 144 183 225 271 324
#
# _framework density 19.082331
#
# number of rings (size 3 to 8) (size 9 to 14) (size 15 to 20)
#    0.000    2.455    0.000    4.636    0.000    7.273 
#    0.000    1.364    0.000    0.545    0.000    0.000 
#    0.000    0.000    0.000    0.000    0.000    0.000 
#
# Total GULP energy -545429.601999 kJ/mol
# GULP energy per Si atom -12396.127318 kJ/mol
# Density = 1.903890 g / cm^3
# Si number density = 19.082331 Si / 1000 Ang^3
#
#
#
# Elastic Constant Matrix: (Units=GPa)
#
#
# Indices 1 2 3 4 5 6 
#
# 1 135.4049 64.5694 43.7666 0.0000 0.0000 0.0000
# 2 64.5694 114.3808 55.5753 0.0000 0.0000 0.0000
# 3 43.7666 55.5753 74.3750 0.0000 0.0000 0.0000
# 4 0.0000 0.0000 0.0000 -18.0139 0.0000 0.0000
# 5 0.0000 0.0000 0.0000 0.0000 22.2352 0.0000
# 6 0.0000 0.0000 0.0000 0.0000 0.0000 34.2178
#
#
#
# Elastic Compliance Matrix: (Units=1/GPa)
#
#
# Indices 1 2 3 4 5 6 
#
# 1 0.010448 -0.004570 -0.002733 0.000000 0.000000 0.000000
# 2 -0.004570 0.015725 -0.009061 0.000000 0.000000 0.000000
# 3 -0.002733 -0.009061 0.021825 0.000000 0.000000 0.000000
# 4 0.000000 0.000000 0.000000 -0.055513 0.000000 0.000000
# 5 0.000000 0.000000 0.000000 0.000000 0.044974 0.000000
# 6 0.000000 0.000000 0.000000 0.000000 0.000000 0.029225
#
#
# Mechanical properties :
#
#
# Convention : Reuss Voigt Hill
#
# Bulk Modulus (GPa) = 65.49278 72.44261 68.96769
# Shear Modulus (GPa) = 47.84610 18.37112 33.10861
#
# Velocity S-wave (km/s) = 5.01278 3.10615 4.16990
# Velocity P-wave (km/s) = 8.24012 7.13511 7.70745
#
# Compressibility (1/GPa) = 0.01526886
#
# Stress axis : x y z
#
# Youngs Moduli (GPa) = 95.71218 63.59264 45.81980
#
# Poissons Ratio (x) = 0.29061 0.12525
# Poissons Ratio (y) = 0.43740 0.41518
# Poissons Ratio (z) = 0.26162 0.57622
#
# Static dielectric constant tensor:
#      x y z
#    x 3.654920 0.000000 0.000000 
#    y 0.000000 3.654940 0.000000 
#    z 0.000000 0.000000 3.157490 
# 
# 
# High freq. dielectric constant tensor:
#      x y z
#    x 1.748570 0.000000 0.000000 
#    y 0.000000 1.749910 0.000000 
#    z 0.000000 0.000000 1.708020 
# 
# From -- ./inp_files/50393.got.cif
#   From: 2010.03.12/outbox.cif.g09.slc.cpg/sg65_26_cif.got.tgz:50393.got - 2010.04.10 20:52:16.
