data_PCOD8271805
_publ_section_title
;
Structure prediction by ZEFSAII (Michael W. Deem and Ramdas Pophale) SiO2 
 PCOD8271805
Probable space group: C M M M
;
_chemical_formula_sum "Si O2"
_cell_formula_units_Z 104
_cell_length_a 21.559725
_cell_length_b 26.182465
_cell_length_c 9.664612
_cell_angle_alpha 90.000000
_cell_angle_beta 90.000000
_cell_angle_gamma 90.000000
_cell_volume 5455.545372
_symmetry_space_group_name_H-M "C M M M"
_symmetry_group_IT_number 65
_symmetry_cell_setting 'orthorhombic'
loop_
_space_group_symop_operation_xyz
x,y,z
-x,-y,z
x,-y,-z
-x,y,-z
-x,-y,-z
x,y,-z
-x,y,z
x,-y,z
1/2+x,1/2+y,z
1/2-x,1/2-y,z
1/2+x,1/2-y,-z
1/2-x,1/2+y,-z
1/2-x,1/2-y,-z
1/2+x,1/2+y,-z
1/2-x,1/2+y,z
1/2+x,1/2-y,z
loop_
_atom_site_type_symbol
_atom_site_label
_atom_site_fract_x
_atom_site_fract_y
_atom_site_fract_z
Si Si1 0.107962 0.557519 0.847788
Si Si2 0.622401 0.218010 0.148800
Si Si3 0.929391 0.825490 0.841662
Si Si4 0.686462 0.647526 0.661293
Si Si5 0.246592 0.941744 0.159518
Si Si6 0.430692 0.860051 0.653767
Si Si7 0.750000 0.750000 0.244399
O O1 0.084812 0.500000 0.839654
O O2 0.180434 0.561672 0.817741
O O3 0.068890 0.586628 0.732698
O O4 0.093292 0.579944 0.000000
O O5 0.575308 0.264461 0.170157
O O6 0.615390 0.178636 0.272373
O O7 0.693481 0.235440 0.145716
O O8 0.608645 0.191998 0.000000
O O9 0.881128 0.849142 0.733131
O O10 0.000000 0.841602 0.803414
O O11 0.913651 0.842472 0.000000
O O12 0.676973 0.634577 0.500000
O O13 0.718433 0.599575 0.736138
O O14 0.726684 0.700219 0.668707
O O15 0.224193 0.000000 0.193279
O O16 0.229370 0.928461 0.000000
O O17 0.404952 0.868233 0.500000
O O18 0.500000 0.837557 0.652289
#
# Coordination Sequence:
#
# PCOD8271805 Si02
#       7
#    16  16  16  16  16  16   8
#     4   9  19  36  57  78  98 127 173 225 269 310
#     4  10  20  35  56  78 101 134 177 221 261 306
#     4   9  19  36  56  77 103 138 179 219 261 312
#     4  11  22  34  53  82 115 148 180 217 263 320
#     4   9  19  37  59  82 109 140 177 224 275 323
#     4  11  24  37  49  71 105 142 176 214 264 318
#     4  10  22  36  52  82 118 146 174 216 272 330
#
# _framework density 19.063171000000001
#
# number of rings (size 3 to 8) (size 9 to 14) (size 15 to 20)
#    0.000    2.154    0.000    3.692    0.000   11.077 
#    0.000    3.077    0.000    0.462    0.000    3.231 
#    0.000    0.000    0.000    0.000    0.000    0.000 
#
# Total GULP energy -644461.429502 kJ/mol
# GULP energy per Si atom -12393.489029 kJ/mol
# Density = 1.901978 g / cm^3
# Si number density = 19.063171 Si / 1000 Ang^3
#
#
#
# Elastic Constant Matrix: (Units=GPa)
#
#
# Indices 1 2 3 4 5 6 
#
# 1 69.4459 27.4764 38.9700 0.0000 0.0000 0.0000
# 2 27.4764 91.5157 60.3203 0.0000 0.0000 0.0000
# 3 38.9700 60.3203 153.3051 0.0000 0.0000 0.0000
# 4 0.0000 0.0000 0.0000 10.8876 0.0000 0.0000
# 5 0.0000 0.0000 0.0000 0.0000 24.8525 0.0000
# 6 0.0000 0.0000 0.0000 0.0000 0.0000 24.1463
#
#
#
# Elastic Compliance Matrix: (Units=1/GPa)
#
#
# Indices 1 2 3 4 5 6 
#
# 1 0.017432 -0.003123 -0.003203 0.000000 0.000000 0.000000
# 2 -0.003123 0.015313 -0.005231 0.000000 0.000000 0.000000
# 3 -0.003203 -0.005231 0.009395 0.000000 0.000000 0.000000
# 4 0.000000 0.000000 0.000000 0.091847 0.000000 0.000000
# 5 0.000000 0.000000 0.000000 0.000000 0.040237 0.000000
# 6 0.000000 0.000000 0.000000 0.000000 0.000000 0.041414
#
#
# Mechanical properties :
#
#
# Convention : Reuss Voigt Hill
#
# Bulk Modulus (GPa) = 52.55664 63.08889 57.82276
# Shear Modulus (GPa) = 20.40025 24.47728 22.43876
#
# Velocity S-wave (km/s) = 3.27485 3.58719 3.43457
# Velocity P-wave (km/s) = 6.47527 7.09393 6.79164
#
# Compressibility (1/GPa) = 0.01902709
#
# Stress axis : x y z
#
# Youngs Moduli (GPa) = 57.36432 65.30514 106.43619
#
# Poissons Ratio (x) = 0.20395 0.34086
# Poissons Ratio (y) = 0.17915 0.55679
# Poissons Ratio (z) = 0.18371 0.34162
#
# Static dielectric constant tensor:
#      x y z
#    x 3.396060 0.000000 0.000000 
#    y 0.000000 3.489230 0.000000 
#    z 0.000000 0.000000 3.464500 
# 
# 
# High freq. dielectric constant tensor:
#      x y z
#    x 1.736240 0.000000 0.000000 
#    y 0.000000 1.727910 0.000000 
#    z 0.000000 0.000000 1.741360 
# 
# From -- ./inp_files/12411.got.cif
#   From: 2010.03.12/outbox.cif.g09.slc.cpg/sg65_7_cif.got.tgz:12411.got - 2010.04.10 20:52:16.
