data_PCOD8271275
_publ_section_title
;
Structure prediction by ZEFSAII (Michael W. Deem and Ramdas Pophale) SiO2 
 PCOD8271275
Probable space group: C M M M
;
_chemical_formula_sum "Si O2"
_cell_formula_units_Z 104
_cell_length_a 32.515504
_cell_length_b 8.772435
_cell_length_c 20.622570
_cell_angle_alpha 90.000000
_cell_angle_beta 90.000000
_cell_angle_gamma 90.000000
_cell_volume 5882.384864
_symmetry_space_group_name_H-M "C M M M"
_symmetry_group_IT_number 65
_symmetry_cell_setting 'orthorhombic'
loop_
_space_group_symop_operation_xyz
x,y,z
-x,-y,z
x,-y,-z
-x,y,-z
-x,-y,-z
x,y,-z
-x,y,z
x,-y,z
1/2+x,1/2+y,z
1/2-x,1/2-y,z
1/2+x,1/2-y,-z
1/2-x,1/2+y,-z
1/2-x,1/2-y,-z
1/2+x,1/2+y,-z
1/2-x,1/2+y,z
1/2+x,1/2-y,z
loop_
_atom_site_type_symbol
_atom_site_label
_atom_site_fract_x
_atom_site_fract_y
_atom_site_fract_z
Si Si1 0.371954 0.673811 0.174802
Si Si2 0.338468 0.180143 0.368662
Si Si3 0.584022 0.678317 0.691307
Si Si4 0.576026 0.824727 0.925397
Si Si5 0.000000 0.177769 0.859159
Si Si6 0.207731 0.822229 0.749240
Si Si7 0.705069 0.820839 0.500000
Si Si8 0.000000 0.680103 0.281606
O O1 0.378540 0.500000 0.152848
O O2 0.401089 0.711608 0.235692
O O3 0.383271 0.785050 0.115703
O O4 0.324822 0.704726 0.193361
O O5 0.383442 0.253144 0.359443
O O6 0.306321 0.239049 0.315779
O O7 0.320914 0.232496 0.437798
O O8 0.342692 0.000000 0.362541
O O9 0.580315 0.500000 0.677901
O O10 0.539935 0.756303 0.681210
O O11 0.539524 0.716755 0.901801
O O12 0.563442 0.000000 0.914720
O O13 0.585740 0.790495 0.000000
O O14 0.000000 0.270775 0.792981
O O15 0.000000 0.000000 0.841393
O O16 0.250000 0.750000 0.774024
O O17 0.212530 0.000000 0.733349
O O18 0.750000 0.750000 0.500000
O O19 0.711373 0.000000 0.500000
O O20 0.000000 0.500000 0.285790
#
# Coordination Sequence:
#
# PCOD8271275 Si02
#       8
#    16  16  16  16   8  16   8   8
#     4   9  19  34  52  73 101 134 170 213 264 318
#     4  10  20  35  54  79 111 146 181 217 262 314
#     4  10  20  35  54  79 108 139 177 222 266 313
#     4  11  23  36  51  74 104 137 176 219 263 317
#     4  12  23  35  52  75 105 141 177 216 261 315
#     4  10  20  34  53  79 107 134 171 218 266 318
#     4  10  22  36  54  81 114 149 184 220 261 314
#     4  12  22  33  55  81 107 141 177 220 268 312
#
# _framework density 17.679904000000001
#
# number of rings (size 3 to 8) (size 9 to 14) (size 15 to 20)
#    0.000    1.692    1.538    4.846    0.000    7.692 
#    0.000    0.000    0.000    0.923    0.000    3.231 
#    0.000    0.000    0.000    0.000    0.000    0.000 
#
# Total GULP energy -645005.257568 kJ/mol
# GULP energy per Si atom -12403.947261 kJ/mol
# Density = 1.763966 g / cm^3
# Si number density = 17.679904 Si / 1000 Ang^3
#
#
#
# Elastic Constant Matrix: (Units=GPa)
#
#
# Indices 1 2 3 4 5 6 
#
# 1 150.0022 59.4824 56.5094 0.0000 0.0000 0.0000
# 2 59.4824 98.3515 43.4720 0.0000 0.0000 0.0000
# 3 56.5094 43.4720 94.5772 0.0000 0.0000 0.0000
# 4 0.0000 0.0000 0.0000 23.3827 0.0000 0.0000
# 5 0.0000 0.0000 0.0000 0.0000 23.1381 0.0000
# 6 0.0000 0.0000 0.0000 0.0000 0.0000 36.0502
#
#
#
# Elastic Compliance Matrix: (Units=1/GPa)
#
#
# Indices 1 2 3 4 5 6 
#
# 1 0.009812 -0.004195 -0.003934 0.000000 0.000000 0.000000
# 2 -0.004195 0.014554 -0.004183 0.000000 0.000000 0.000000
# 3 -0.003934 -0.004183 0.014847 0.000000 0.000000 0.000000
# 4 0.000000 0.000000 0.000000 0.042767 0.000000 0.000000
# 5 0.000000 0.000000 0.000000 0.000000 0.043219 0.000000
# 6 0.000000 0.000000 0.000000 0.000000 0.000000 0.027739
#
#
# Mechanical properties :
#
#
# Convention : Reuss Voigt Hill
#
# Bulk Modulus (GPa) = 68.55145 73.53981 71.04563
# Shear Modulus (GPa) = 27.40843 28.74535 28.07689
#
# Velocity S-wave (km/s) = 3.94160 4.03659 3.98938
# Velocity P-wave (km/s) = 7.71834 7.96309 7.84167
#
# Compressibility (1/GPa) = 0.01458758
#
# Stress axis : x y z
#
# Youngs Moduli (GPa) = 101.91132 68.71039 67.35449
#
# Poissons Ratio (x) = 0.28827 0.26500
# Poissons Ratio (y) = 0.42756 0.28173
# Poissons Ratio (z) = 0.40097 0.28741
#
# Static dielectric constant tensor:
#      x y z
#    x 3.411800 0.000000 0.000000 
#    y 0.000000 3.373170 0.000000 
#    z 0.000000 0.000000 3.147110 
# 
# 
# High freq. dielectric constant tensor:
#      x y z
#    x 1.689350 0.000000 0.000000 
#    y 0.000000 1.698480 0.000000 
#    z 0.000000 0.000000 1.657980 
# 
# From -- ./inp_files/66452.got.cif
#   From: 2010.03.12/outbox.cif.g09.slc.cpg/sg65_34_cif.got.tgz:66452.got - 2010.04.10 20:52:16.
