data_PCOD8271498
_publ_section_title
;
Structure prediction by ZEFSAII (Michael W. Deem and Ramdas Pophale) SiO2 
 PCOD8271498
Probable space group: C M M M
;
_chemical_formula_sum "Si O2"
_cell_formula_units_Z 112
_cell_length_a 16.440363
_cell_length_b 13.939068
_cell_length_c 24.127712
_cell_angle_alpha 90.000000
_cell_angle_beta 90.000000
_cell_angle_gamma 90.000000
_cell_volume 5529.187015
_symmetry_space_group_name_H-M "C M M M"
_symmetry_group_IT_number 65
_symmetry_cell_setting 'orthorhombic'
loop_
_space_group_symop_operation_xyz
x,y,z
-x,-y,z
x,-y,-z
-x,y,-z
-x,-y,-z
x,y,-z
-x,y,z
x,-y,z
1/2+x,1/2+y,z
1/2-x,1/2-y,z
1/2+x,1/2-y,-z
1/2-x,1/2+y,-z
1/2-x,1/2-y,-z
1/2+x,1/2+y,-z
1/2-x,1/2+y,z
1/2+x,1/2-y,z
loop_
_atom_site_type_symbol
_atom_site_label
_atom_site_fract_x
_atom_site_fract_y
_atom_site_fract_z
Si Si1 0.091552 0.608599 0.894435
Si Si2 0.842798 0.391438 0.660592
Si Si3 0.093852 0.274906 0.437952
Si Si4 0.657281 0.607271 0.627793
Si Si5 0.662656 0.277645 0.163620
Si Si6 0.591941 0.281619 0.274334
Si Si7 0.232949 0.110106 0.938784
O O1 0.097370 0.500000 0.871019
O O2 0.104251 0.685533 0.845893
O O3 0.169092 0.626830 0.934936
O O4 0.000000 0.623128 0.921090
O O5 0.869308 0.500000 0.676757
O O6 0.889079 0.361514 0.604286
O O7 0.747988 0.386370 0.649528
O O8 0.860818 0.316971 0.710186
O O9 0.117448 0.308142 0.500000
O O10 0.145735 0.179913 0.423277
O O11 0.000000 0.246033 0.433944
O O12 0.634342 0.500000 0.608602
O O13 0.599726 0.638364 0.678477
O O14 0.750000 0.250000 0.186745
O O15 0.621682 0.329922 0.216084
O O16 0.677268 0.337096 0.106860
O O17 0.500000 0.250269 0.268343
O O18 0.211320 0.000000 0.931410
O O19 0.207222 0.146675 0.000000
#
# Coordination Sequence:
#
# PCOD8271498 Si02
#       7
#    16  16  16  16  16  16  16
#     4   9  18  32  51  79 112 140 171 216 268 321
#     4  10  21  37  58  83 111 145 183 223 270 323
#     4  10  21  36  55  81 114 150 186 226 270 317
#     4  10  21  37  57  80 107 142 184 229 275 322
#     4  10  20  34  55  80 109 144 181 220 266 323
#     4  11  22  36  56  81 109 140 177 225 277 326
#     4   9  19  36  57  80 106 140 181 221 264 318
#
# _framework density 20.256143000000002
#
# number of rings (size 3 to 8) (size 9 to 14) (size 15 to 20)
#    0.000    2.143    0.000    4.714    0.000    8.000 
#    0.000    7.143    0.000    2.571    0.000    4.000 
#    0.000    0.000    0.000    0.000    0.000    0.000 
#
# Total GULP energy -693808.591909 kJ/mol
# GULP energy per Si atom -12389.439141 kJ/mol
# Density = 2.021004 g / cm^3
# Si number density = 20.256143 Si / 1000 Ang^3
#
#
#
# Elastic Constant Matrix: (Units=GPa)
#
#
# Indices 1 2 3 4 5 6 
#
# 1 71.0442 35.6029 33.2511 0.0000 0.0000 0.0000
# 2 35.6029 88.1891 21.1948 0.0000 0.0000 0.0000
# 3 33.2511 21.1948 121.1772 0.0000 0.0000 0.0000
# 4 0.0000 0.0000 0.0000 14.6982 0.0000 0.0000
# 5 0.0000 0.0000 0.0000 0.0000 17.1543 0.0000
# 6 0.0000 0.0000 0.0000 0.0000 0.0000 22.6041
#
#
#
# Elastic Compliance Matrix: (Units=1/GPa)
#
#
# Indices 1 2 3 4 5 6 
#
# 1 0.019449 -0.006857 -0.004137 0.000000 0.000000 0.000000
# 2 -0.006857 0.014255 -0.000612 0.000000 0.000000 0.000000
# 3 -0.004137 -0.000612 0.009495 0.000000 0.000000 0.000000
# 4 0.000000 0.000000 0.000000 0.068036 0.000000 0.000000
# 5 0.000000 0.000000 0.000000 0.000000 0.058294 0.000000
# 6 0.000000 0.000000 0.000000 0.000000 0.000000 0.044240
#
#
# Mechanical properties :
#
#
# Convention : Reuss Voigt Hill
#
# Bulk Modulus (GPa) = 50.03637 51.16756 50.60197
# Shear Modulus (GPa) = 20.52193 23.58209 22.05201
#
# Velocity S-wave (km/s) = 3.18641 3.41573 3.30306
# Velocity P-wave (km/s) = 6.18814 6.39307 6.29144
#
# Compressibility (1/GPa) = 0.01998546
#
# Stress axis : x y z
#
# Youngs Moduli (GPa) = 51.41759 70.15270 105.32260
#
# Poissons Ratio (x) = 0.48106 0.43575
# Poissons Ratio (y) = 0.35258 0.06442
# Poissons Ratio (z) = 0.21273 0.04291
#
# Static dielectric constant tensor:
#      x y z
#    x 3.743960 0.000000 0.000000 
#    y 0.000000 3.779920 0.000000 
#    z 0.000000 0.000000 3.646520 
# 
# 
# High freq. dielectric constant tensor:
#      x y z
#    x 1.793800 0.000000 0.000000 
#    y 0.000000 1.783680 0.000000 
#    z 0.000000 0.000000 1.781140 
# 
# From -- ./inp_files/70052.got.cif
#   From: 2010.03.12/outbox.cif.g09.slc.cpg/sg65_36_cif.got.tgz:70052.got - 2010.04.10 20:52:16.
