data_PCOD8271629
_publ_section_title
;
Structure prediction by ZEFSAII (Michael W. Deem and Ramdas Pophale) SiO2 
 PCOD8271629
Probable space group: C M M M
;
_chemical_formula_sum "Si O2"
_cell_formula_units_Z 88
_cell_length_a 27.062277
_cell_length_b 8.760105
_cell_length_c 21.151825
_cell_angle_alpha 90.000000
_cell_angle_beta 90.000000
_cell_angle_gamma 90.000000
_cell_volume 5014.429057
_symmetry_space_group_name_H-M "C M M M"
_symmetry_group_IT_number 65
_symmetry_cell_setting 'orthorhombic'
loop_
_space_group_symop_operation_xyz
x,y,z
-x,-y,z
x,-y,-z
-x,y,-z
-x,-y,-z
x,y,-z
-x,y,z
x,-y,z
1/2+x,1/2+y,z
1/2-x,1/2-y,z
1/2+x,1/2-y,-z
1/2-x,1/2+y,-z
1/2-x,1/2-y,-z
1/2+x,1/2+y,-z
1/2-x,1/2+y,z
1/2+x,1/2-y,z
loop_
_atom_site_type_symbol
_atom_site_label
_atom_site_fract_x
_atom_site_fract_y
_atom_site_fract_z
Si Si1 0.055095 0.680097 0.930131
Si Si2 0.800367 0.176523 0.740437
Si Si3 0.852783 0.680356 0.377553
Si Si4 0.556730 0.679158 0.685093
Si Si5 0.695535 0.318963 0.500000
Si Si6 0.396983 0.326447 0.185631
O O1 0.054622 0.500000 0.930238
O O2 0.093743 0.733718 0.877905
O O3 0.000000 0.741495 0.914142
O O4 0.071018 0.739277 0.000000
O O5 0.750000 0.250000 0.765906
O O6 0.817436 0.269246 0.679220
O O7 0.839684 0.193824 0.796686
O O8 0.793381 0.000000 0.721543
O O9 0.849551 0.500000 0.387076
O O10 0.909412 0.729012 0.364129
O O11 0.834913 0.764587 0.439789
O O12 0.500000 0.715109 0.669152
O O13 0.569382 0.500000 0.679069
O O14 0.569098 0.733661 0.756414
O O15 0.700057 0.500000 0.500000
O O16 0.750000 0.250000 0.500000
O O17 0.410775 0.500000 0.171285
#
# Coordination Sequence:
#
# PCOD8271629 Si02
#       6
#    16  16  16  16   8  16
#     4   9  18  31  46  68 100 134 166 202 245 293
#     4  10  20  35  53  75 102 131 165 206 253 300
#     4  11  22  36  54  79 107 134 168 207 249 298
#     4   9  18  34  54  76 105 138 170 207 252 298
#     4  12  24  40  59  78 103 134 168 207 255 303
#     4   9  18  31  49  74 101 129 164 206 248 294
#
# _framework density 17.549357000000001
#
# number of rings (size 3 to 8) (size 9 to 14) (size 15 to 20)
#    0.000    2.182    0.000    5.727    0.000    5.455 
#    0.000    1.364    0.000    3.273    0.000    0.000 
#    0.000    0.000    0.000    0.000    0.000    0.000 
#
# Total GULP energy -545624.192513 kJ/mol
# GULP energy per Si atom -12400.549830 kJ/mol
# Density = 1.750941 g / cm^3
# Si number density = 17.549357 Si / 1000 Ang^3
#
#
#
# Elastic Constant Matrix: (Units=GPa)
#
#
# Indices 1 2 3 4 5 6 
#
# 1 112.7006 47.2362 55.5232 0.0000 0.0000 0.0000
# 2 47.2362 98.2506 46.9621 0.0000 0.0000 0.0000
# 3 55.5232 46.9621 119.3630 0.0000 0.0000 0.0000
# 4 0.0000 0.0000 0.0000 30.8503 0.0000 0.0000
# 5 0.0000 0.0000 0.0000 0.0000 16.1929 0.0000
# 6 0.0000 0.0000 0.0000 0.0000 0.0000 31.9507
#
#
#
# Elastic Compliance Matrix: (Units=1/GPa)
#
#
# Indices 1 2 3 4 5 6 
#
# 1 0.012692 -0.004040 -0.004314 0.000000 0.000000 0.000000
# 2 -0.004040 0.013821 -0.003559 0.000000 0.000000 0.000000
# 3 -0.004314 -0.003559 0.011785 0.000000 0.000000 0.000000
# 4 0.000000 0.000000 0.000000 0.032415 0.000000 0.000000
# 5 0.000000 0.000000 0.000000 0.000000 0.061756 0.000000
# 6 0.000000 0.000000 0.000000 0.000000 0.000000 0.031298
#
#
# Mechanical properties :
#
#
# Convention : Reuss Voigt Hill
#
# Bulk Modulus (GPa) = 69.09743 69.97301 69.53522
# Shear Modulus (GPa) = 25.98540 27.83828 26.91184
#
# Velocity S-wave (km/s) = 3.85217 3.98714 3.92023
# Velocity P-wave (km/s) = 7.69703 7.82017 7.75884
#
# Compressibility (1/GPa) = 0.01447232
#
# Stress axis : x y z
#
# Youngs Moduli (GPa) = 78.79158 72.35255 84.85493
#
# Poissons Ratio (x) = 0.29228 0.36609
# Poissons Ratio (y) = 0.31829 0.30197
# Poissons Ratio (z) = 0.33993 0.25748
#
# Static dielectric constant tensor:
#      x y z
#    x 3.332970 0.000000 0.000000 
#    y 0.000000 3.250320 0.000000 
#    z 0.000000 0.000000 3.249910 
# 
# 
# High freq. dielectric constant tensor:
#      x y z
#    x 1.677750 0.000000 0.000000 
#    y 0.000000 1.681750 0.000000 
#    z 0.000000 0.000000 1.667540 
# 
# From -- ./inp_files/57969.got.cif
#   From: 2010.03.12/outbox.cif.g09.slc.cpg/sg65_29_cif.got.tgz:57969.got - 2010.04.10 20:52:16.
