data_PCOD8271616
_publ_section_title
;
Structure prediction by ZEFSAII (Michael W. Deem and Ramdas Pophale) SiO2 
 PCOD8271616
Probable space group: C M M M
;
_chemical_formula_sum "Si O2"
_cell_formula_units_Z 104
_cell_length_a 9.199434
_cell_length_b 23.482705
_cell_length_c 28.970675
_cell_angle_alpha 90.000000
_cell_angle_beta 90.000000
_cell_angle_gamma 90.000000
_cell_volume 6258.465240
_symmetry_space_group_name_H-M "C M M M"
_symmetry_group_IT_number 65
_symmetry_cell_setting 'orthorhombic'
loop_
_space_group_symop_operation_xyz
x,y,z
-x,-y,z
x,-y,-z
-x,y,-z
-x,-y,-z
x,y,-z
-x,y,z
x,-y,z
1/2+x,1/2+y,z
1/2-x,1/2-y,z
1/2+x,1/2-y,-z
1/2-x,1/2+y,-z
1/2-x,1/2-y,-z
1/2+x,1/2+y,-z
1/2-x,1/2+y,z
1/2+x,1/2-y,z
loop_
_atom_site_type_symbol
_atom_site_label
_atom_site_fract_x
_atom_site_fract_y
_atom_site_fract_z
Si Si1 0.829809 0.809782 0.697549
Si Si2 0.168651 0.191188 0.597550
Si Si3 0.669764 0.690276 0.500000
Si Si4 0.166710 0.890905 0.052497
Si Si5 0.327724 0.000000 0.806741
Si Si6 0.328944 0.387552 0.218461
Si Si7 0.830794 0.808965 0.867026
Si Si8 0.171598 0.500000 0.086643
O O1 0.750000 0.750000 0.704887
O O2 0.793097 0.838179 0.646859
O O3 0.778163 0.854436 0.735753
O O4 0.000000 0.797366 0.703354
O O5 0.250000 0.250000 0.596379
O O6 0.208299 0.157553 0.548980
O O7 0.000000 0.205680 0.597749
O O8 0.500000 0.703689 0.500000
O O9 0.750000 0.750000 0.500000
O O10 0.214736 0.838734 0.085004
O O11 0.000000 0.908207 0.063068
O O12 0.266555 0.944962 0.061390
O O13 0.186525 0.870309 0.000000
O O14 0.261233 0.945361 0.781813
O O15 0.280261 0.000000 0.860159
O O16 0.500000 0.000000 0.800857
O O17 0.500000 0.401482 0.218519
O O18 0.284185 0.350328 0.174336
O O19 0.750000 0.750000 0.861635
O O20 0.000000 0.795289 0.865099
O O21 0.000000 0.500000 0.081000
#
# Coordination Sequence:
#
# PCOD8271616 Si02
#       8
#    16  16   8  16   8  16  16   8
#     4   9  17  28  44  67  94 125 159 192 228 272
#     4   8  13  21  33  53  82 116 154 189 222 263
#     4   8  12  18  30  48  76 115 152 187 223 258
#     4  10  21  37  56  76  99 129 160 188 224 274
#     4  11  23  36  54  77  96 117 149 192 236 277
#     4  10  20  35  53  71  93 124 156 188 231 280
#     4  10  21  35  52  73  97 126 158 188 222 268
#     4  11  22  36  55  80 102 120 149 193 239 275
#
# _framework density 16.617491999999999
#
# number of rings (size 3 to 8) (size 9 to 14) (size 15 to 20)
#    0.000    2.462    1.538    1.154    0.000    4.000 
#    0.000    0.000    0.000    0.000    0.000    0.000 
#    0.000    0.615    0.000    7.846    0.000    1.231 
#
# Total GULP energy -644260.071317 kJ/mol
# GULP energy per Si atom -12389.616756 kJ/mol
# Density = 1.657967 g / cm^3
# Si number density = 16.617492 Si / 1000 Ang^3
#
#
#
# Elastic Constant Matrix: (Units=GPa)
#
#
# Indices 1 2 3 4 5 6 
#
# 1 37.5083 35.4413 33.3082 0.0000 0.0000 0.0000
# 2 35.4413 97.0428 59.5277 0.0000 0.0000 0.0000
# 3 33.3082 59.5277 172.2656 0.0000 0.0000 0.0000
# 4 0.0000 0.0000 0.0000 58.2217 0.0000 0.0000
# 5 0.0000 0.0000 0.0000 0.0000 15.4702 0.0000
# 6 0.0000 0.0000 0.0000 0.0000 0.0000 24.7605
#
#
#
# Elastic Compliance Matrix: (Units=1/GPa)
#
#
# Indices 1 2 3 4 5 6 
#
# 1 0.042411 -0.013272 -0.003614 0.000000 0.000000 0.000000
# 2 -0.013272 0.017230 -0.003388 0.000000 0.000000 0.000000
# 3 -0.003614 -0.003388 0.007674 0.000000 0.000000 0.000000
# 4 0.000000 0.000000 0.000000 0.017176 0.000000 0.000000
# 5 0.000000 0.000000 0.000000 0.000000 0.064641 0.000000
# 6 0.000000 0.000000 0.000000 0.000000 0.000000 0.040387
#
#
# Mechanical properties :
#
#
# Convention : Reuss Voigt Hill
#
# Bulk Modulus (GPa) = 37.35871 62.59679 49.97775
# Shear Modulus (GPa) = 20.92150 31.59310 26.25730
#
# Velocity S-wave (km/s) = 3.55209 4.36500 3.97936
# Velocity P-wave (km/s) = 6.27324 7.94703 7.15922
#
# Compressibility (1/GPa) = 0.02676752
#
# Stress axis : x y z
#
# Youngs Moduli (GPa) = 23.57886 58.03837 130.30277
#
# Poissons Ratio (x) = 0.77029 0.47092
# Poissons Ratio (y) = 0.31294 0.44143
# Poissons Ratio (z) = 0.08521 0.19662
#
# Static dielectric constant tensor:
#      x y z
#    x 3.028210 0.000000 0.000000 
#    y 0.000000 2.745070 0.000000 
#    z 0.000000 0.000000 3.961210 
# 
# 
# High freq. dielectric constant tensor:
#      x y z
#    x 1.639560 0.000000 0.000000 
#    y 0.000000 1.593730 0.000000 
#    z 0.000000 0.000000 1.666840 
# 
# From -- ./inp_files/76964.got.cif
#   From: 2010.03.12/outbox.cif.g09.slc.cpg/sg65_39_cif.got.tgz:76964.got - 2010.04.10 20:52:16.
