data_PCOD8271903
_publ_section_title
;
Structure prediction by ZEFSAII (Michael W. Deem and Ramdas Pophale) SiO2 
 PCOD8271903
Probable space group: C M M M
;
_chemical_formula_sum "Si O2"
_cell_formula_units_Z 88
_cell_length_a 18.976860
_cell_length_b 24.811985
_cell_length_c 9.311200
_cell_angle_alpha 90.000000
_cell_angle_beta 90.000000
_cell_angle_gamma 90.000000
_cell_volume 4384.211721
_symmetry_space_group_name_H-M "C M M M"
_symmetry_group_IT_number 65
_symmetry_cell_setting 'orthorhombic'
loop_
_space_group_symop_operation_xyz
x,y,z
-x,-y,z
x,-y,-z
-x,y,-z
-x,-y,-z
x,y,-z
-x,y,z
x,-y,z
1/2+x,1/2+y,z
1/2-x,1/2-y,z
1/2+x,1/2-y,-z
1/2-x,1/2+y,-z
1/2-x,1/2-y,-z
1/2+x,1/2+y,-z
1/2-x,1/2+y,z
1/2+x,1/2-y,z
loop_
_atom_site_type_symbol
_atom_site_label
_atom_site_fract_x
_atom_site_fract_y
_atom_site_fract_z
Si Si1 0.500000 0.436336 0.339737
Si Si2 0.136244 0.062443 0.832724
Si Si3 0.918981 0.439010 0.168042
Si Si4 0.356123 0.842476 0.335551
Si Si5 0.420770 0.733384 0.670459
Si Si6 0.802977 0.849136 0.664740
O O1 0.500000 0.500000 0.352610
O O2 0.500000 0.410174 0.500000
O O3 0.567383 0.416974 0.251750
O O4 0.198773 0.097322 0.764072
O O5 0.152681 0.000000 0.805279
O O6 0.125968 0.074351 0.000000
O O7 0.898155 0.500000 0.212906
O O8 0.869570 0.397161 0.249697
O O9 0.000000 0.427893 0.208687
O O10 0.906673 0.431206 0.000000
O O11 0.376249 0.854198 0.500000
O O12 0.402465 0.793304 0.271883
O O13 0.274651 0.823875 0.322829
O O14 0.415389 0.734938 0.500000
O O15 0.500000 0.717252 0.721173
O O16 0.362252 0.691505 0.727804
O O17 0.819909 0.864929 0.500000
#
# Coordination Sequence:
#
# PCOD8271903 Si02
#       6
#     8  16  16  16  16  16
#     4   9  17  31  53  77 101 135 179 225 272 323
#     4  10  21  36  53  76 109 147 185 228 277 324
#     4   9  19  36  57  82 113 148 185 224 269 329
#     4  10  20  35  56  83 114 145 180 229 283 331
#     4   9  18  34  57  82 107 140 184 231 280 334
#     4  10  21  35  54  81 112 146 186 231 277 331
#
# _framework density 20.072023000000002
#
# number of rings (size 3 to 8) (size 9 to 14) (size 15 to 20)
#    0.000    2.455    0.000    2.455    1.273    7.273 
#    0.000    5.455    0.000    3.273    0.000    0.000 
#    0.000    0.000    0.000    0.000    0.000    0.000 
#
# Total GULP energy -545532.876728 kJ/mol
# GULP energy per Si atom -12398.474471 kJ/mol
# Density = 2.002634 g / cm^3
# Si number density = 20.072023 Si / 1000 Ang^3
#
#
#
# Elastic Constant Matrix: (Units=GPa)
#
#
# Indices 1 2 3 4 5 6 
#
# 1 96.8338 47.7148 27.9542 0.0000 0.0000 0.0000
# 2 47.7148 107.4776 41.7003 0.0000 0.0000 0.0000
# 3 27.9542 41.7003 67.8641 0.0000 0.0000 0.0000
# 4 0.0000 0.0000 0.0000 19.4146 0.0000 0.0000
# 5 0.0000 0.0000 0.0000 0.0000 23.1490 0.0000
# 6 0.0000 0.0000 0.0000 0.0000 0.0000 35.3027
#
#
#
# Elastic Compliance Matrix: (Units=1/GPa)
#
#
# Indices 1 2 3 4 5 6 
#
# 1 0.013527 -0.005047 -0.002471 0.000000 0.000000 0.000000
# 2 -0.005047 0.014100 -0.006585 0.000000 0.000000 0.000000
# 3 -0.002471 -0.006585 0.019799 0.000000 0.000000 0.000000
# 4 0.000000 0.000000 0.000000 0.051508 0.000000 0.000000
# 5 0.000000 0.000000 0.000000 0.000000 0.043198 0.000000
# 6 0.000000 0.000000 0.000000 0.000000 0.000000 0.028326
#
#
# Mechanical properties :
#
#
# Convention : Reuss Voigt Hill
#
# Bulk Modulus (GPa) = 52.02674 56.32379 54.17527
# Shear Modulus (GPa) = 24.38183 25.89368 25.13776
#
# Velocity S-wave (km/s) = 3.48906 3.59561 3.54273
# Velocity P-wave (km/s) = 6.49674 6.73495 6.61692
#
# Compressibility (1/GPa) = 0.01922088
#
# Stress axis : x y z
#
# Youngs Moduli (GPa) = 73.92604 70.92384 50.50647
#
# Poissons Ratio (x) = 0.35793 0.12480
# Poissons Ratio (y) = 0.37308 0.33258
# Poissons Ratio (z) = 0.18267 0.46703
#
# Static dielectric constant tensor:
#      x y z
#    x 3.656440 0.000000 0.000000 
#    y 0.000000 3.608360 0.000000 
#    z 0.000000 0.000000 3.363320 
# 
# 
# High freq. dielectric constant tensor:
#      x y z
#    x 1.785310 0.000000 0.000000 
#    y 0.000000 1.786860 0.000000 
#    z 0.000000 0.000000 1.753040 
# 
# From -- ./inp_files/11726.got.cif
#   From: 2010.03.12/outbox.cif.g09.slc.cpg/sg65_6_cif.got.tgz:11726.got - 2010.04.10 20:52:16.
