data_PCOD8271153
_publ_section_title
;
Structure prediction by ZEFSAII (Michael W. Deem and Ramdas Pophale) SiO2 
 PCOD8271153
Probable space group: C M M M
;
_chemical_formula_sum "Si O2"
_cell_formula_units_Z 88
_cell_length_a 9.003934
_cell_length_b 19.446093
_cell_length_c 28.885514
_cell_angle_alpha 90.000000
_cell_angle_beta 90.000000
_cell_angle_gamma 90.000000
_cell_volume 5057.603293
_symmetry_space_group_name_H-M "C M M M"
_symmetry_group_IT_number 65
_symmetry_cell_setting 'orthorhombic'
loop_
_space_group_symop_operation_xyz
x,y,z
-x,-y,z
x,-y,-z
-x,y,-z
-x,-y,-z
x,y,-z
-x,y,z
x,-y,z
1/2+x,1/2+y,z
1/2-x,1/2-y,z
1/2+x,1/2-y,-z
1/2-x,1/2+y,-z
1/2-x,1/2-y,-z
1/2+x,1/2+y,-z
1/2-x,1/2+y,z
1/2+x,1/2-y,z
loop_
_atom_site_type_symbol
_atom_site_label
_atom_site_fract_x
_atom_site_fract_y
_atom_site_fract_z
Si Si1 0.173229 0.180473 0.308109
Si Si2 0.674409 0.920773 0.867753
Si Si3 0.673809 0.819449 0.052206
Si Si4 0.324332 0.500000 0.553473
Si Si5 0.334344 0.075863 0.626873
Si Si6 0.673559 0.320481 0.799145
O O1 0.250000 0.250000 0.325008
O O2 0.239501 0.119520 0.337782
O O3 0.208215 0.166218 0.254543
O O4 0.000000 0.186588 0.317739
O O5 0.500000 0.914127 0.858030
O O6 0.719369 0.883390 0.915605
O O7 0.761042 0.885754 0.825713
O O8 0.723793 0.000000 0.871606
O O9 0.500000 0.805996 0.053911
O O10 0.750000 0.750000 0.070807
O O11 0.727105 0.836600 0.000000
O O12 0.500000 0.500000 0.560984
O O13 0.279955 0.500000 0.500000
O O14 0.252611 0.431773 0.577578
O O15 0.500000 0.106848 0.619007
O O16 0.347317 0.000000 0.649412
O O17 0.500000 0.313597 0.809263
O O18 0.750000 0.250000 0.816276
#
# Coordination Sequence:
#
# PCOD8271153 Si02
#       6
#    16  16  16   8  16  16
#     4  10  20  34  53  75 103 136 173 216 262 313
#     4  10  21  35  51  74 103 135 168 208 257 306
#     4   9  18  33  53  75  98 127 166 209 253 305
#     4   9  17  31  53  79 107 141 181 221 260 305
#     4   9  19  32  50  77 106 138 175 215 259 306
#     4  10  21  36  54  75  99 134 173 212 255 305
#
# _framework density 17.399546000000001
#
# number of rings (size 3 to 8) (size 9 to 14) (size 15 to 20)
#    0.545    1.909    0.000    2.182    0.000    6.545 
#    0.000    5.455    0.000    0.545    0.000    3.818 
#    0.000    0.000    0.000    0.000    0.000    0.000 
#
# Total GULP energy -545503.032140 kJ/mol
# GULP energy per Si atom -12397.796185 kJ/mol
# Density = 1.735994 g / cm^3
# Si number density = 17.399546 Si / 1000 Ang^3
#
#
#
# Elastic Constant Matrix: (Units=GPa)
#
#
# Indices 1 2 3 4 5 6 
#
# 1 86.3655 52.8334 56.7579 0.0000 0.0000 0.0000
# 2 52.8334 124.8478 68.2435 0.0000 0.0000 0.0000
# 3 56.7579 68.2435 96.6630 0.0000 0.0000 0.0000
# 4 0.0000 0.0000 0.0000 -337.7984 0.0000 0.0000
# 5 0.0000 0.0000 0.0000 0.0000 27.9335 0.0000
# 6 0.0000 0.0000 0.0000 0.0000 0.0000 32.5787
#
#
#
# Elastic Compliance Matrix: (Units=1/GPa)
#
#
# Indices 1 2 3 4 5 6 
#
# 1 0.019641 -0.003270 -0.009224 0.000000 0.000000 0.000000
# 2 -0.003270 0.013587 -0.007673 0.000000 0.000000 0.000000
# 3 -0.009224 -0.007673 0.021179 0.000000 0.000000 0.000000
# 4 0.000000 0.000000 0.000000 -0.002960 0.000000 0.000000
# 5 0.000000 0.000000 0.000000 0.000000 0.035799 0.000000
# 6 0.000000 0.000000 0.000000 0.000000 0.000000 0.030695
#
#
# Mechanical properties :
#
#
# Convention : Reuss Voigt Hill
#
# Bulk Modulus (GPa) = 71.05621 73.72730 72.39176
# Shear Modulus (GPa) = 30.68139 -46.78780 -8.05320
#
# Velocity S-wave (km/s) = 4.20377 -5.19121 -2.15371
# Velocity P-wave (km/s) = 8.03050 2.55609 5.95913
#
# Compressibility (1/GPa) = 0.01407337
#
# Stress axis : x y z
#
# Youngs Moduli (GPa) = 50.91419 73.59725 47.21769
#
# Poissons Ratio (x) = 0.24063 0.43555
# Poissons Ratio (y) = 0.16647 0.36230
# Poissons Ratio (z) = 0.46965 0.56470
#
# Static dielectric constant tensor:
#      x y z
#    x 3.303400 0.000000 0.000000 
#    y 0.000000 3.223580 0.000000 
#    z 0.000000 0.000000 3.196510 
# 
# 
# High freq. dielectric constant tensor:
#      x y z
#    x 1.683190 0.000000 0.000000 
#    y 0.000000 1.660130 0.000000 
#    z 0.000000 0.000000 1.665970 
# 
# From -- ./inp_files/76579.got.cif
#   From: 2010.03.12/outbox.cif.g09.slc.cpg/sg65_39_cif.got.tgz:76579.got - 2010.04.10 20:52:16.
