data_PCOD8271683
_publ_section_title
;
Structure prediction by ZEFSAII (Michael W. Deem and Ramdas Pophale) SiO2 
 PCOD8271683
Probable space group: C M M M
;
_chemical_formula_sum "Si O2"
_cell_formula_units_Z 72
_cell_length_a 34.727659
_cell_length_b 12.876945
_cell_length_c 9.169546
_cell_angle_alpha 90.000000
_cell_angle_beta 90.000000
_cell_angle_gamma 90.000000
_cell_volume 4100.494018
_symmetry_space_group_name_H-M "C M M M"
_symmetry_group_IT_number 65
_symmetry_cell_setting 'orthorhombic'
loop_
_space_group_symop_operation_xyz
x,y,z
-x,-y,z
x,-y,-z
-x,y,-z
-x,-y,-z
x,y,-z
-x,y,z
x,-y,z
1/2+x,1/2+y,z
1/2-x,1/2-y,z
1/2+x,1/2-y,-z
1/2-x,1/2+y,-z
1/2-x,1/2-y,-z
1/2+x,1/2+y,-z
1/2-x,1/2+y,z
1/2+x,1/2-y,z
loop_
_atom_site_type_symbol
_atom_site_label
_atom_site_fract_x
_atom_site_fract_y
_atom_site_fract_z
Si Si1 0.752661 0.500000 0.327667
Si Si2 0.285712 0.678604 0.840436
Si Si3 0.575698 0.380475 0.670298
Si Si4 0.144352 0.273216 0.671135
Si Si5 0.160733 0.500000 0.669750
Si Si6 0.500000 0.622922 0.837048
O O1 0.753916 0.500000 0.500000
O O2 0.727362 0.595083 0.275430
O O3 0.796064 0.500000 0.259811
O O4 0.250000 0.750000 0.871558
O O5 0.319807 0.742417 0.768054
O O6 0.298625 0.633573 0.000000
O O7 0.566684 0.373665 0.500000
O O8 0.586710 0.500000 0.712597
O O9 0.609149 0.300986 0.716329
O O10 0.538055 0.339479 0.753628
O O11 0.153777 0.259701 0.500000
O O12 0.136672 0.395437 0.710312
O O13 0.168725 0.500000 0.500000
O O14 0.500000 0.500000 0.841261
O O15 0.500000 0.669752 0.000000
#
# Coordination Sequence:
#
# PCOD8271683 Si02
#       6
#     8  16  16  16   8   8
#     4  11  21  35  55  73  96 135 182 226 267 314
#     4  11  23  36  50  73 105 138 175 222 273 317
#     4   9  18  32  52  79 107 132 164 209 258 308
#     4  10  20  35  54  77 103 137 180 220 262 310
#     4   9  18  33  53  74  98 133 181 227 257 301
#     4   9  17  31  53  78 105 136 164 195 248 317
#
# _framework density 17.558859999999999
#
# number of rings (size 3 to 8) (size 9 to 14) (size 15 to 20)
#    0.000    2.111    2.222    1.333    1.556    3.111 
#    0.000    0.556    0.000    0.667    0.000    4.667 
#    0.000    0.000    0.000    0.000    0.000    0.000 
#
# Total GULP energy -446112.179092 kJ/mol
# GULP energy per Si atom -12392.004975 kJ/mol
# Density = 1.751890 g / cm^3
# Si number density = 17.558860 Si / 1000 Ang^3
#
#
#
# Elastic Constant Matrix: (Units=GPa)
#
#
# Indices 1 2 3 4 5 6 
#
# 1 119.0295 62.4307 48.1057 0.0000 0.0000 0.0000
# 2 62.4307 118.1370 35.5822 0.0000 0.0000 0.0000
# 3 48.1057 35.5822 71.3905 0.0000 0.0000 0.0000
# 4 0.0000 0.0000 0.0000 12.4940 0.0000 0.0000
# 5 0.0000 0.0000 0.0000 0.0000 39.9780 0.0000
# 6 0.0000 0.0000 0.0000 0.0000 0.0000 24.4076
#
#
#
# Elastic Compliance Matrix: (Units=1/GPa)
#
#
# Indices 1 2 3 4 5 6 
#
# 1 0.013911 -0.005328 -0.006718 0.000000 0.000000 0.000000
# 2 -0.005328 0.012001 -0.002391 0.000000 0.000000 0.000000
# 3 -0.006718 -0.002391 0.019726 0.000000 0.000000 0.000000
# 4 0.000000 0.000000 0.000000 0.080038 0.000000 0.000000
# 5 0.000000 0.000000 0.000000 0.000000 0.025014 0.000000
# 6 0.000000 0.000000 0.000000 0.000000 0.000000 0.040971
#
#
# Mechanical properties :
#
#
# Convention : Reuss Voigt Hill
#
# Bulk Modulus (GPa) = 59.65434 66.75491 63.20463
# Shear Modulus (GPa) = 22.11189 26.20515 24.15852
#
# Velocity S-wave (km/s) = 3.55251 3.86737 3.71328
# Velocity P-wave (km/s) = 7.13266 7.61856 7.37961
#
# Compressibility (1/GPa) = 0.01676324
#
# Stress axis : x y z
#
# Youngs Moduli (GPa) = 71.88616 83.32976 50.69387
#
# Poissons Ratio (x) = 0.44397 0.34057
# Poissons Ratio (y) = 0.38300 0.12122
# Poissons Ratio (z) = 0.48295 0.19925
#
# Static dielectric constant tensor:
#      x y z
#    x 2.852300 0.000000 0.000000 
#    y 0.000000 3.330060 0.000000 
#    z 0.000000 0.000000 3.277640 
# 
# 
# High freq. dielectric constant tensor:
#      x y z
#    x 1.663270 0.000000 0.000000 
#    y 0.000000 1.670230 0.000000 
#    z 0.000000 0.000000 1.677490 
# 
# From -- ./inp_files/18039.got.cif
#   From: 2010.03.12/outbox.cif.g09.slc.cpg/sg65_10_cif.got.tgz:18039.got - 2010.04.10 20:52:16.
