data_PCOD8271186
_publ_section_title
;
Structure prediction by ZEFSAII (Michael W. Deem and Ramdas Pophale) SiO2 
 PCOD8271186
Probable space group: C M M M
;
_chemical_formula_sum "Si O2"
_cell_formula_units_Z 80
_cell_length_a 24.687667
_cell_length_b 16.970521
_cell_length_c 9.703359
_cell_angle_alpha 90.000000
_cell_angle_beta 90.000000
_cell_angle_gamma 90.000000
_cell_volume 4065.344237
_symmetry_space_group_name_H-M "C M M M"
_symmetry_group_IT_number 65
_symmetry_cell_setting 'orthorhombic'
loop_
_space_group_symop_operation_xyz
x,y,z
-x,-y,z
x,-y,-z
-x,y,-z
-x,-y,-z
x,y,-z
-x,y,z
x,-y,z
1/2+x,1/2+y,z
1/2-x,1/2-y,z
1/2+x,1/2-y,-z
1/2-x,1/2+y,-z
1/2-x,1/2-y,-z
1/2+x,1/2+y,-z
1/2-x,1/2+y,z
1/2+x,1/2-y,z
loop_
_atom_site_type_symbol
_atom_site_label
_atom_site_fract_x
_atom_site_fract_y
_atom_site_fract_z
Si Si1 0.500000 0.739217 0.845270
Si Si2 0.383526 0.878099 0.350207
Si Si3 0.902675 0.200695 0.345545
Si Si4 0.500000 0.911450 0.754299
Si Si5 0.209634 0.588968 0.151513
Si Si6 0.695723 0.592711 0.657645
O O1 0.550683 0.702115 0.767198
O O2 0.500000 0.835395 0.855368
O O3 0.500000 0.706843 0.000000
O O4 0.363992 0.910105 0.500000
O O5 0.374045 0.785037 0.346299
O O6 0.446279 0.903040 0.337723
O O7 0.348491 0.913128 0.226334
O O8 0.925237 0.182188 0.500000
O O9 0.859584 0.135353 0.298581
O O10 0.500000 0.000000 0.823994
O O11 0.227589 0.500000 0.127379
O O12 0.255866 0.627901 0.247511
O O13 0.205502 0.630507 0.000000
O O14 0.710766 0.612878 0.500000
O O15 0.687072 0.500000 0.677999
#
# Coordination Sequence:
#
# PCOD8271186 Si02
#       6
#     8  16  16   8  16  16
#     4  10  21  36  55  79 107 141 174 205 252 309
#     4  10  20  34  53  76 103 137 176 216 257 304
#     4   9  19  36  56  78 105 135 170 215 261 303
#     4  10  21  35  53  78 105 135 176 222 258 291
#     4  10  21  35  50  73 107 141 172 212 261 308
#     4   9  18  35  59  81 100 130 173 216 259 308
#
# _framework density 19.678529999999999
#
# number of rings (size 3 to 8) (size 9 to 14) (size 15 to 20)
#    0.000    2.400    0.000    1.800    0.000   10.200 
#    0.000    4.500    0.000    3.000    0.000    0.000 
#    0.000    0.000    0.000    0.000    0.000    0.000 
#
# Total GULP energy -495681.797566 kJ/mol
# GULP energy per Si atom -12392.044939 kJ/mol
# Density = 1.963374 g / cm^3
# Si number density = 19.678530 Si / 1000 Ang^3
#
#
#
# Elastic Constant Matrix: (Units=GPa)
#
#
# Indices 1 2 3 4 5 6 
#
# 1 131.4760 42.4856 91.7724 0.0000 0.0000 0.0000
# 2 42.4856 48.4404 27.0636 0.0000 0.0000 0.0000
# 3 91.7724 27.0636 167.7273 0.0000 0.0000 0.0000
# 4 0.0000 0.0000 0.0000 14.6683 0.0000 0.0000
# 5 0.0000 0.0000 0.0000 0.0000 3.0494 0.0000
# 6 0.0000 0.0000 0.0000 0.0000 0.0000 25.7674
#
#
#
# Elastic Compliance Matrix: (Units=1/GPa)
#
#
# Indices 1 2 3 4 5 6 
#
# 1 0.015654 -0.009831 -0.006979 0.000000 0.000000 0.000000
# 2 -0.009831 0.028863 0.000722 0.000000 0.000000 0.000000
# 3 -0.006979 0.000722 0.009664 0.000000 0.000000 0.000000
# 4 0.000000 0.000000 0.000000 0.068174 0.000000 0.000000
# 5 0.000000 0.000000 0.000000 0.000000 0.327938 0.000000
# 6 0.000000 0.000000 0.000000 0.000000 0.000000 0.038809
#
#
# Mechanical properties :
#
#
# Convention : Reuss Voigt Hill
#
# Bulk Modulus (GPa) = 45.44348 74.47633 59.95990
# Shear Modulus (GPa) = 9.45872 21.11848 15.28860
#
# Velocity S-wave (km/s) = 2.19478 3.27949 2.79035
# Velocity P-wave (km/s) = 5.43744 7.22971 6.39666
#
# Compressibility (1/GPa) = 0.02200536
#
# Stress axis : x y z
#
# Youngs Moduli (GPa) = 63.88124 34.64660 103.47512
#
# Poissons Ratio (x) = 0.34060 0.72215
# Poissons Ratio (y) = 0.62799 -0.07467
# Poissons Ratio (z) = 0.44582 -0.02500
#
# Static dielectric constant tensor:
#      x y z
#    x 3.436760 0.000000 0.000000 
#    y 0.000000 3.481000 0.000000 
#    z 0.000000 0.000000 3.720430 
# 
# 
# High freq. dielectric constant tensor:
#      x y z
#    x 1.762900 0.000000 0.000000 
#    y 0.000000 1.745420 0.000000 
#    z 0.000000 0.000000 1.765870 
# 
# From -- ./inp_files/16107.got.cif
#   From: 2010.03.12/outbox.cif.g09.slc.cpg/sg65_9_cif.got.tgz:16107.got - 2010.04.10 20:52:16.
