data_PCOD8271969
_publ_section_title
;
Structure prediction by ZEFSAII (Michael W. Deem and Ramdas Pophale) SiO2 
 PCOD8271969
Probable space group: C M M M
;
_chemical_formula_sum "Si O2"
_cell_formula_units_Z 72
_cell_length_a 18.912479
_cell_length_b 8.969020
_cell_length_c 22.875565
_cell_angle_alpha 90.000000
_cell_angle_beta 90.000000
_cell_angle_gamma 90.000000
_cell_volume 3880.299794
_symmetry_space_group_name_H-M "C M M M"
_symmetry_group_IT_number 65
_symmetry_cell_setting 'orthorhombic'
loop_
_space_group_symop_operation_xyz
x,y,z
-x,-y,z
x,-y,-z
-x,y,-z
-x,-y,-z
x,y,-z
-x,y,z
x,-y,z
1/2+x,1/2+y,z
1/2-x,1/2-y,z
1/2+x,1/2-y,-z
1/2-x,1/2+y,-z
1/2-x,1/2-y,-z
1/2+x,1/2+y,-z
1/2-x,1/2+y,z
1/2+x,1/2-y,z
loop_
_atom_site_type_symbol
_atom_site_label
_atom_site_fract_x
_atom_site_fract_y
_atom_site_fract_z
Si Si1 0.417393 0.828609 0.156564
Si Si2 0.083679 0.334980 0.285629
Si Si3 0.321674 0.325543 0.933866
Si Si4 0.172828 0.322632 0.500000
Si Si5 0.082933 0.173103 0.599464
O O1 0.500000 0.799287 0.153243
O O2 0.388214 0.786329 0.221527
O O3 0.384143 0.722424 0.108455
O O4 0.399041 0.000000 0.142688
O O5 0.112892 0.500000 0.301935
O O6 0.106603 0.216311 0.334783
O O7 0.000000 0.344229 0.281569
O O8 0.310807 0.500000 0.929989
O O9 0.250000 0.250000 0.911861
O O10 0.340085 0.275007 0.000000
O O11 0.180685 0.500000 0.500000
O O12 0.250000 0.250000 0.500000
O O13 0.129243 0.272014 0.556437
O O14 0.000000 0.207418 0.588983
O O15 0.099399 0.000000 0.588815
#
# Coordination Sequence:
#
# PCOD8271969 Si02
#       5
#    16  16  16   8  16
#     4   9  18  33  54  80 109 139 171 211 259 310
#     4   8  15  30  52  78 107 138 173 212 255 304
#     4  10  21  36  53  73 100 136 177 220 264 312
#     4  12  25  40  57  77 107 143 177 218 267 312
#     4  10  20  35  57  84 111 139 175 216 256 305
#
# _framework density 18.555267000000001
#
# number of rings (size 3 to 8) (size 9 to 14) (size 15 to 20)
#    0.000    2.444    0.000    4.000    0.000    5.778 
#    0.000    5.556    0.000    5.333    0.000    0.000 
#    0.000    0.000    0.000    0.000    0.000    0.000 
#
# Total GULP energy -446323.264753 kJ/mol
# GULP energy per Si atom -12397.868465 kJ/mol
# Density = 1.851303 g / cm^3
# Si number density = 18.555267 Si / 1000 Ang^3
#
#
#
# Elastic Constant Matrix: (Units=GPa)
#
#
# Indices 1 2 3 4 5 6 
#
# 1 56.7095 44.8476 48.3304 0.0000 0.0000 0.0000
# 2 44.8476 102.9796 55.9598 0.0000 0.0000 0.0000
# 3 48.3304 55.9598 120.8626 0.0000 0.0000 0.0000
# 4 0.0000 0.0000 0.0000 35.6322 0.0000 0.0000
# 5 0.0000 0.0000 0.0000 0.0000 -8.3703 0.0000
# 6 0.0000 0.0000 0.0000 0.0000 0.0000 30.7805
#
#
#
# Elastic Compliance Matrix: (Units=1/GPa)
#
#
# Indices 1 2 3 4 5 6 
#
# 1 0.032434 -0.009456 -0.008591 0.000000 0.000000 0.000000
# 2 -0.009456 0.015732 -0.003503 0.000000 0.000000 0.000000
# 3 -0.008591 -0.003503 0.013331 0.000000 0.000000 0.000000
# 4 0.000000 0.000000 0.000000 0.028065 0.000000 0.000000
# 5 0.000000 0.000000 0.000000 0.000000 -0.119470 0.000000
# 6 0.000000 0.000000 0.000000 0.000000 0.000000 0.032488
#
#
# Mechanical properties :
#
#
# Convention : Reuss Voigt Hill
#
# Bulk Modulus (GPa) = 54.35794 64.31415 59.33605
# Shear Modulus (GPa) = 96.50053 20.36939 58.43496
#
# Velocity S-wave (km/s) = 7.21942 3.31685 5.61790
# Velocity P-wave (km/s) = 9.94244 7.02885 8.60979
#
# Compressibility (1/GPa) = 0.01839658
#
# Stress axis : x y z
#
# Youngs Moduli (GPa) = 30.83177 63.56339 75.01246
#
# Poissons Ratio (x) = 0.60108 0.64446
# Poissons Ratio (y) = 0.29156 0.26275
# Poissons Ratio (z) = 0.26489 0.22264
#
# Static dielectric constant tensor:
#      x y z
#    x 3.144460 0.000000 0.000000 
#    y 0.000000 3.418690 0.000000 
#    z 0.000000 0.000000 3.743540 
# 
# 
# High freq. dielectric constant tensor:
#      x y z
#    x 1.689110 0.000000 0.000000 
#    y 0.000000 1.723490 0.000000 
#    z 0.000000 0.000000 1.734530 
# 
# From -- ./inp_files/67015.got.cif
#   From: 2010.03.12/outbox.cif.g09.slc.cpg/sg65_34_cif.got.tgz:67015.got - 2010.04.10 20:52:16.
