data_PCOD8271202
_publ_section_title
;
Structure prediction by ZEFSAII (Michael W. Deem and Ramdas Pophale) SiO2 
 PCOD8271202
Probable space group: C M M M
;
_chemical_formula_sum "Si O2"
_cell_formula_units_Z 88
_cell_length_a 8.923553
_cell_length_b 30.138907
_cell_length_c 17.574543
_cell_angle_alpha 90.000000
_cell_angle_beta 90.000000
_cell_angle_gamma 90.000000
_cell_volume 4726.605396
_symmetry_space_group_name_H-M "C M M M"
_symmetry_group_IT_number 65
_symmetry_cell_setting 'orthorhombic'
loop_
_space_group_symop_operation_xyz
x,y,z
-x,-y,z
x,-y,-z
-x,y,-z
-x,-y,-z
x,y,-z
-x,y,z
x,-y,z
1/2+x,1/2+y,z
1/2-x,1/2-y,z
1/2+x,1/2-y,-z
1/2-x,1/2+y,-z
1/2-x,1/2-y,-z
1/2+x,1/2+y,-z
1/2-x,1/2+y,z
1/2+x,1/2-y,z
loop_
_atom_site_type_symbol
_atom_site_label
_atom_site_fract_x
_atom_site_fract_y
_atom_site_fract_z
Si Si1 0.178045 0.450673 0.415867
Si Si2 0.669144 0.293920 0.116974
Si Si3 0.323520 0.118383 0.294732
Si Si4 0.167353 0.207130 0.702270
Si Si5 0.322695 0.552143 0.000000
Si Si6 0.822370 0.615030 0.880009
O O1 0.227380 0.433892 0.500000
O O2 0.241601 0.500000 0.401864
O O3 0.243215 0.419548 0.349575
O O4 0.000000 0.451492 0.410860
O O5 0.500000 0.296239 0.084804
O O6 0.750000 0.250000 0.083478
O O7 0.667280 0.290843 0.207183
O O8 0.758209 0.337874 0.090440
O O9 0.500000 0.123296 0.302115
O O10 0.253528 0.163742 0.325228
O O11 0.278496 0.107520 0.208062
O O12 0.250000 0.250000 0.668125
O O13 0.000000 0.206124 0.669608
O O14 0.251617 0.574564 0.074632
O O15 0.282338 0.500000 0.000000
O O16 0.500000 0.559763 0.000000
O O17 0.000000 0.615023 0.893003
#
# Coordination Sequence:
#
# PCOD8271202 Si02
#       6
#    16  16  16  16   8  16
#     4   8  14  26  46  73 103 132 162 199 245 295
#     4   9  16  28  48  74 104 135 166 201 245 296
#     4   9  17  29  49  77 104 130 164 205 245 289
#     4   9  16  26  43  68  99 133 167 203 243 289
#     4  11  25  43  58  71  94 131 171 211 257 303
#     4  10  20  34  53  77 103 131 167 209 252 298
#
# _framework density 18.618013000000001
#
# number of rings (size 3 to 8) (size 9 to 14) (size 15 to 20)
#    0.000    2.818    0.000    2.455    0.000    6.545 
#    0.000    2.273    0.000    1.636    0.000    1.273 
#    0.000    0.000    0.000    0.000    0.000    0.000 
#
# Total GULP energy -545466.805024 kJ/mol
# GULP energy per Si atom -12396.972841 kJ/mol
# Density = 1.857564 g / cm^3
# Si number density = 18.618013 Si / 1000 Ang^3
#
#
#
# Elastic Constant Matrix: (Units=GPa)
#
#
# Indices 1 2 3 4 5 6 
#
# 1 85.9583 62.9459 33.2369 0.0000 0.0000 0.0000
# 2 62.9459 175.2891 74.3983 0.0000 0.0000 0.0000
# 3 33.2369 74.3983 86.0337 0.0000 0.0000 0.0000
# 4 0.0000 0.0000 0.0000 -5.9860 0.0000 0.0000
# 5 0.0000 0.0000 0.0000 0.0000 8.8624 0.0000
# 6 0.0000 0.0000 0.0000 0.0000 0.0000 31.1252
#
#
#
# Elastic Compliance Matrix: (Units=1/GPa)
#
#
# Indices 1 2 3 4 5 6 
#
# 1 0.015981 -0.004927 -0.001914 0.000000 0.000000 0.000000
# 2 -0.004927 0.010532 -0.007204 0.000000 0.000000 0.000000
# 3 -0.001914 -0.007204 0.018592 0.000000 0.000000 0.000000
# 4 0.000000 0.000000 0.000000 -0.167057 0.000000 0.000000
# 5 0.000000 0.000000 0.000000 0.000000 0.112837 0.000000
# 6 0.000000 0.000000 0.000000 0.000000 0.000000 0.032128
#
#
# Mechanical properties :
#
#
# Convention : Reuss Voigt Hill
#
# Bulk Modulus (GPa) = 58.76584 76.49369 67.62977
# Shear Modulus (GPa) = 88.06900 18.58032 53.32466
#
# Velocity S-wave (km/s) = 6.88519 3.16250 5.35758
# Velocity P-wave (km/s) = 9.73860 7.38311 8.64148
#
# Compressibility (1/GPa) = 0.01701669
#
# Stress axis : x y z
#
# Youngs Moduli (GPa) = 62.57383 94.95210 53.78548
#
# Poissons Ratio (x) = 0.46779 0.10292
# Poissons Ratio (y) = 0.30828 0.38747
# Poissons Ratio (z) = 0.11974 0.68404
#
# Static dielectric constant tensor:
#      x y z
#    x 3.359050 0.000000 0.000000 
#    y 0.000000 3.660320 0.000000 
#    z 0.000000 0.000000 3.278730 
# 
# 
# High freq. dielectric constant tensor:
#      x y z
#    x 1.712300 0.000000 0.000000 
#    y 0.000000 1.729180 0.000000 
#    z 0.000000 0.000000 1.694870 
# 
# From -- ./inp_files/50411.got.cif
#   From: 2010.03.12/outbox.cif.g09.slc.cpg/sg65_26_cif.got.tgz:50411.got - 2010.04.10 20:52:16.
