data_PCOD8271471
_publ_section_title
;
Structure prediction by ZEFSAII (Michael W. Deem and Ramdas Pophale) SiO2 
 PCOD8271471
Probable space group: C M M M
;
_chemical_formula_sum "Si O2"
_cell_formula_units_Z 88
_cell_length_a 22.047303
_cell_length_b 17.365602
_cell_length_c 12.825558
_cell_angle_alpha 90.000000
_cell_angle_beta 90.000000
_cell_angle_gamma 90.000000
_cell_volume 4910.453276
_symmetry_space_group_name_H-M "C M M M"
_symmetry_group_IT_number 65
_symmetry_cell_setting 'orthorhombic'
loop_
_space_group_symop_operation_xyz
x,y,z
-x,-y,z
x,-y,-z
-x,y,-z
-x,-y,-z
x,y,-z
-x,y,z
x,-y,z
1/2+x,1/2+y,z
1/2-x,1/2-y,z
1/2+x,1/2-y,-z
1/2-x,1/2+y,-z
1/2-x,1/2-y,-z
1/2+x,1/2+y,-z
1/2-x,1/2+y,z
1/2+x,1/2-y,z
loop_
_atom_site_type_symbol
_atom_site_label
_atom_site_fract_x
_atom_site_fract_y
_atom_site_fract_z
Si Si1 0.604638 0.320371 0.235962
Si Si2 0.196389 0.089434 0.381820
Si Si3 0.000000 0.091222 0.879149
Si Si4 0.932769 0.313032 0.381712
Si Si5 0.673682 0.910484 0.708436
Si Si6 0.187920 0.710199 0.120152
O O1 0.655834 0.365180 0.299916
O O2 0.559415 0.378897 0.180049
O O3 0.569930 0.264324 0.314224
O O4 0.634410 0.269591 0.145073
O O5 0.181974 0.116122 0.500000
O O6 0.267165 0.105776 0.361177
O O7 0.181528 0.000000 0.367342
O O8 0.000000 0.000000 0.871660
O O9 0.000000 0.118206 0.000000
O O10 0.920808 0.287949 0.500000
O O11 0.884400 0.377480 0.350973
O O12 0.000000 0.348887 0.367742
O O13 0.680493 0.869775 0.819603
O O14 0.663489 0.000000 0.729416
O O15 0.250000 0.750000 0.154586
O O16 0.186876 0.688067 0.000000
#
# Coordination Sequence:
#
# PCOD8271471 Si02
#       6
#    16  16   8  16  16  16
#     4  11  20  38  57  82 110 149 186 234 280 333
#     4  10  20  34  54  82 115 149 183 224 277 336
#     4  11  24  40  59  83 112 149 193 235 281 335
#     4  10  21  36  57  84 113 149 190 231 275 330
#     4  10  21  37  57  83 116 150 187 231 282 336
#     4  10  20  36  58  83 110 144 186 232 284 335
#
# _framework density 17.920952
#
# number of rings (size 3 to 8) (size 9 to 14) (size 15 to 20)
#    0.000    1.727    2.727    2.182    0.000    1.818 
#    0.000    3.636    0.000    2.182    0.000    2.545 
#    0.000    0.000    0.000    0.000    0.000    0.000 
#
# Total GULP energy -545662.459985 kJ/mol
# GULP energy per Si atom -12401.419545 kJ/mol
# Density = 1.788016 g / cm^3
# Si number density = 17.920952 Si / 1000 Ang^3
#
#
#
# Elastic Constant Matrix: (Units=GPa)
#
#
# Indices 1 2 3 4 5 6 
#
# 1 111.1726 54.4612 54.2547 0.0000 0.0000 0.0000
# 2 54.4612 97.1941 49.9650 0.0000 0.0000 0.0000
# 3 54.2547 49.9650 93.2093 0.0000 0.0000 0.0000
# 4 0.0000 0.0000 0.0000 -28.1375 0.0000 0.0000
# 5 0.0000 0.0000 0.0000 0.0000 34.7681 0.0000
# 6 0.0000 0.0000 0.0000 0.0000 0.0000 32.7770
#
#
#
# Elastic Compliance Matrix: (Units=1/GPa)
#
#
# Indices 1 2 3 4 5 6 
#
# 1 0.014195 -0.005116 -0.005520 0.000000 0.000000 0.000000
# 2 -0.005116 0.016047 -0.005624 0.000000 0.000000 0.000000
# 3 -0.005520 -0.005624 0.016956 0.000000 0.000000 0.000000
# 4 0.000000 0.000000 0.000000 -0.035540 0.000000 0.000000
# 5 0.000000 0.000000 0.000000 0.000000 0.028762 0.000000
# 6 0.000000 0.000000 0.000000 0.000000 0.000000 0.030509
#
#
# Mechanical properties :
#
#
# Convention : Reuss Voigt Hill
#
# Bulk Modulus (GPa) = 68.12997 68.77086 68.45042
# Shear Modulus (GPa) = 46.14992 17.40786 31.77889
#
# Velocity S-wave (km/s) = 5.08014 3.12006 4.21560
# Velocity P-wave (km/s) = 8.51528 7.17200 7.87234
#
# Compressibility (1/GPa) = 0.01467783
#
# Stress axis : x y z
#
# Youngs Moduli (GPa) = 70.44557 62.31863 58.97539
#
# Poissons Ratio (x) = 0.31885 0.32555
# Poissons Ratio (y) = 0.36043 0.33166
# Poissons Ratio (z) = 0.38887 0.35046
#
# Static dielectric constant tensor:
#      x y z
#    x 3.588590 0.000000 0.000000 
#    y 0.000000 3.245820 0.000000 
#    z 0.000000 0.000000 3.328770 
# 
# 
# High freq. dielectric constant tensor:
#      x y z
#    x 1.704020 0.000000 0.000000 
#    y 0.000000 1.691710 0.000000 
#    z 0.000000 0.000000 1.701980 
# 
# From -- ./inp_files/26795.got.cif
#   From: 2010.03.12/outbox.cif.g09.slc.cpg/sg65_14_cif.got.tgz:26795.got - 2010.04.10 20:52:16.
