data_PCOD8271719
_publ_section_title
;
Structure prediction by ZEFSAII (Michael W. Deem and Ramdas Pophale) SiO2 
 PCOD8271719
Probable space group: C M M M
;
_chemical_formula_sum "Si O2"
_cell_formula_units_Z 96
_cell_length_a 30.455538
_cell_length_b 9.204447
_cell_length_c 18.859484
_cell_angle_alpha 90.000000
_cell_angle_beta 90.000000
_cell_angle_gamma 90.000000
_cell_volume 5286.810980
_symmetry_space_group_name_H-M "C M M M"
_symmetry_group_IT_number 65
_symmetry_cell_setting 'orthorhombic'
loop_
_space_group_symop_operation_xyz
x,y,z
-x,-y,z
x,-y,-z
-x,y,-z
-x,-y,-z
x,y,-z
-x,y,z
x,-y,z
1/2+x,1/2+y,z
1/2-x,1/2-y,z
1/2+x,1/2-y,-z
1/2-x,1/2+y,-z
1/2-x,1/2-y,-z
1/2+x,1/2+y,-z
1/2-x,1/2+y,z
1/2+x,1/2-y,z
loop_
_atom_site_type_symbol
_atom_site_label
_atom_site_fract_x
_atom_site_fract_y
_atom_site_fract_z
Si Si1 0.374754 0.327232 0.579308
Si Si2 0.206253 0.830252 0.671959
Si Si3 0.205540 0.170558 0.164604
Si Si4 0.549753 0.670571 0.319186
Si Si5 0.049461 0.331961 0.177610
Si Si6 0.130179 0.332144 0.082451
O O1 0.373391 0.261801 0.500000
O O2 0.373824 0.500000 0.576501
O O3 0.333219 0.269791 0.623785
O O4 0.419273 0.273556 0.617356
O O5 0.250000 0.750000 0.646703
O O6 0.195070 0.794648 0.753478
O O7 0.213810 0.000000 0.660547
O O8 0.250000 0.250000 0.140440
O O9 0.165940 0.229896 0.118098
O O10 0.211189 0.000000 0.150924
O O11 0.500000 0.713308 0.339267
O O12 0.555244 0.500000 0.307567
O O13 0.564852 0.743959 0.246395
O O14 0.051467 0.500000 0.198311
O O15 0.082180 0.295110 0.113523
O O16 0.000000 0.287270 0.154484
O O17 0.142574 0.500000 0.096455
O O18 0.128358 0.295552 0.000000
#
# Coordination Sequence:
#
# PCOD8271719 Si02
#       6
#    16  16  16  16  16  16
#     4   9  17  29  46  70 100 130 158 193 240 289
#     4   9  18  32  50  71  94 123 160 200 239 281
#     4  10  20  35  55  76  99 129 166 206 247 292
#     4   9  17  30  50  74  97 124 162 205 243 283
#     4   9  18  33  53  75  99 130 166 203 245 292
#     4  10  21  35  51  74 103 132 163 201 245 294
#
# _framework density 18.158394000000001
#
# number of rings (size 3 to 8) (size 9 to 14) (size 15 to 20)
#    0.000    2.667    0.000    1.500    0.000    4.333 
#    0.000    4.167    0.000    1.500    0.000    5.833 
#    0.000    0.000    0.000    0.000    0.000    0.000 
#
# Total GULP energy -595253.850974 kJ/mol
# GULP energy per Si atom -12401.121895 kJ/mol
# Density = 1.811706 g / cm^3
# Si number density = 18.158394 Si / 1000 Ang^3
#
#
#
# Elastic Constant Matrix: (Units=GPa)
#
#
# Indices 1 2 3 4 5 6 
#
# 1 141.2142 45.7477 88.2289 0.0000 0.0000 0.0000
# 2 45.7477 45.2758 42.1575 0.0000 0.0000 0.0000
# 3 88.2289 42.1575 126.6169 0.0000 0.0000 0.0000
# 4 0.0000 0.0000 0.0000 20.3960 0.0000 0.0000
# 5 0.0000 0.0000 0.0000 0.0000 16.3908 0.0000
# 6 0.0000 0.0000 0.0000 0.0000 0.0000 27.9915
#
#
#
# Elastic Compliance Matrix: (Units=1/GPa)
#
#
# Indices 1 2 3 4 5 6 
#
# 1 0.014054 -0.007365 -0.007341 0.000000 0.000000 0.000000
# 2 -0.007365 0.035871 -0.006811 0.000000 0.000000 0.000000
# 3 -0.007341 -0.006811 0.015281 0.000000 0.000000 0.000000
# 4 0.000000 0.000000 0.000000 0.049029 0.000000 0.000000
# 5 0.000000 0.000000 0.000000 0.000000 0.061010 0.000000
# 6 0.000000 0.000000 0.000000 0.000000 0.000000 0.035725
#
#
# Mechanical properties :
#
#
# Convention : Reuss Voigt Hill
#
# Bulk Modulus (GPa) = 45.10312 73.93058 59.51685
# Shear Modulus (GPa) = 19.12821 22.08718 20.60769
#
# Velocity S-wave (km/s) = 3.24915 3.49142 3.37246
# Velocity P-wave (km/s) = 6.24248 7.55354 6.92909
#
# Compressibility (1/GPa) = 0.02217141
#
# Stress axis : x y z
#
# Youngs Moduli (GPa) = 71.15483 27.87778 65.44177
#
# Poissons Ratio (x) = 0.20533 0.48039
# Poissons Ratio (y) = 0.52407 0.44573
# Poissons Ratio (z) = 0.52233 0.18988
#
# Static dielectric constant tensor:
#      x y z
#    x 3.556360 0.000000 0.000000 
#    y 0.000000 3.165730 0.000000 
#    z 0.000000 0.000000 3.423000 
# 
# 
# High freq. dielectric constant tensor:
#      x y z
#    x 1.716690 0.000000 0.000000 
#    y 0.000000 1.682250 0.000000 
#    z 0.000000 0.000000 1.698480 
# 
# From -- ./inp_files/65742.got.cif
#   From: 2010.03.12/outbox.cif.g09.slc.cpg/sg65_33_cif.got.tgz:65742.got - 2010.04.10 20:52:16.
