data_PCOD8271542
_publ_section_title
;
Structure prediction by ZEFSAII (Michael W. Deem and Ramdas Pophale) SiO2 
 PCOD8271542
Probable space group: C M M M
;
_chemical_formula_sum "Si O2"
_cell_formula_units_Z 104
_cell_length_a 20.072557
_cell_length_b 8.999555
_cell_length_c 29.520543
_cell_angle_alpha 90.000000
_cell_angle_beta 90.000000
_cell_angle_gamma 90.000000
_cell_volume 5332.711352
_symmetry_space_group_name_H-M "C M M M"
_symmetry_group_IT_number 65
_symmetry_cell_setting 'orthorhombic'
loop_
_space_group_symop_operation_xyz
x,y,z
-x,-y,z
x,-y,-z
-x,y,-z
-x,-y,-z
x,y,-z
-x,y,z
x,-y,z
1/2+x,1/2+y,z
1/2-x,1/2-y,z
1/2+x,1/2-y,-z
1/2-x,1/2+y,-z
1/2-x,1/2-y,-z
1/2+x,1/2+y,-z
1/2-x,1/2+y,z
1/2+x,1/2-y,z
loop_
_atom_site_type_symbol
_atom_site_label
_atom_site_fract_x
_atom_site_fract_y
_atom_site_fract_z
Si Si1 0.182332 0.671566 0.553441
Si Si2 0.000000 0.162633 0.053585
Si Si3 0.077830 0.174610 0.384787
Si Si4 0.870412 0.669514 0.949901
Si Si5 0.577750 0.674396 0.797379
Si Si6 0.815853 0.671643 0.856771
Si Si7 0.421020 0.167374 0.293767
O O1 0.174775 0.688578 0.500000
O O2 0.184261 0.500000 0.568423
O O3 0.250000 0.750000 0.570508
O O4 0.118459 0.752095 0.574511
O O5 0.065968 0.244821 0.069606
O O6 0.000000 0.000000 0.076290
O O7 0.000000 0.152247 0.000000
O O8 0.104222 0.245652 0.338007
O O9 0.000000 0.209217 0.392825
O O10 0.091466 0.000000 0.383092
O O11 0.892487 0.500000 0.954437
O O12 0.814041 0.688871 0.911688
O O13 0.846717 0.727641 0.000000
O O14 0.500000 0.708587 0.805880
O O15 0.591805 0.500000 0.795672
O O16 0.618669 0.749079 0.837740
O O17 0.603737 0.745013 0.750446
O O18 0.816050 0.500000 0.842128
O O19 0.750000 0.750000 0.837192
O O20 0.500000 0.163323 0.293956
O O21 0.391802 0.000000 0.293591
#
# Coordination Sequence:
#
# PCOD8271542 Si02
#       7
#    16   8  16  16  16  16  16
#     4  10  21  37  56  78 109 151 197 243 290 341
#     4   9  17  29  49  79 109 135 169 217 265 307
#     4  10  20  34  55  84 117 151 188 233 284 337
#     4   9  19  36  56  78 107 144 182 221 269 325
#     4  10  21  38  61  87 114 146 184 227 274 330
#     4  11  24  40  58  81 112 148 185 227 276 330
#     4   9  17  32  56  85 115 146 183 228 277 332
#
# _framework density 19.502275000000001
#
# number of rings (size 3 to 8) (size 9 to 14) (size 15 to 20)
#    0.000    2.231    0.000    2.538    1.077    7.385 
#    0.000    2.308    0.000    0.000    0.000    0.000 
#    0.000    0.000    0.000    0.000    0.000    0.000 
#
# Total GULP energy -644759.691372 kJ/mol
# GULP energy per Si atom -12399.224834 kJ/mol
# Density = 1.945789 g / cm^3
# Si number density = 19.502275 Si / 1000 Ang^3
#
#
#
# Elastic Constant Matrix: (Units=GPa)
#
#
# Indices 1 2 3 4 5 6 
#
# 1 79.6413 59.1305 40.3065 0.0000 0.0000 0.0000
# 2 59.1305 147.8810 53.3208 0.0000 0.0000 0.0000
# 3 40.3065 53.3208 80.2773 0.0000 0.0000 0.0000
# 4 0.0000 0.0000 0.0000 31.9337 0.0000 0.0000
# 5 0.0000 0.0000 0.0000 0.0000 14.7324 0.0000
# 6 0.0000 0.0000 0.0000 0.0000 0.0000 29.0981
#
#
#
# Elastic Compliance Matrix: (Units=1/GPa)
#
#
# Indices 1 2 3 4 5 6 
#
# 1 0.019963 -0.005744 -0.006208 0.000000 0.000000 0.000000
# 2 -0.005744 0.010544 -0.004120 0.000000 0.000000 0.000000
# 3 -0.006208 -0.004120 0.018310 0.000000 0.000000 0.000000
# 4 0.000000 0.000000 0.000000 0.031315 0.000000 0.000000
# 5 0.000000 0.000000 0.000000 0.000000 0.067878 0.000000
# 6 0.000000 0.000000 0.000000 0.000000 0.000000 0.034366
#
#
# Mechanical properties :
#
#
# Convention : Reuss Voigt Hill
#
# Bulk Modulus (GPa) = 59.97310 68.14614 64.05962
# Shear Modulus (GPa) = 22.71929 25.48895 24.10412
#
# Velocity S-wave (km/s) = 3.41685 3.61913 3.51944
# Velocity P-wave (km/s) = 6.81066 7.24449 7.03092
#
# Compressibility (1/GPa) = 0.01667414
#
# Stress axis : x y z
#
# Youngs Moduli (GPa) = 50.09351 94.83850 54.61434
#
# Poissons Ratio (x) = 0.54472 0.33905
# Poissons Ratio (y) = 0.28772 0.22500
# Poissons Ratio (z) = 0.31098 0.39071
#
# Static dielectric constant tensor:
#      x y z
#    x 3.256710 0.000000 0.000000 
#    y 0.000000 3.776390 0.000000 
#    z 0.000000 0.000000 3.576590 
# 
# 
# High freq. dielectric constant tensor:
#      x y z
#    x 1.733040 0.000000 0.000000 
#    y 0.000000 1.775190 0.000000 
#    z 0.000000 0.000000 1.758900 
# 
# From -- ./inp_files/75479.got.cif
#   From: 2010.03.12/outbox.cif.g09.slc.cpg/sg65_38_cif.got.tgz:75479.got - 2010.04.10 20:52:16.
