data_PCOD8271849
_publ_section_title
;
Structure prediction by ZEFSAII (Michael W. Deem and Ramdas Pophale) SiO2 
 PCOD8271849
Probable space group: C M M M
;
_chemical_formula_sum "Si O2"
_cell_formula_units_Z 72
_cell_length_a 23.467499
_cell_length_b 17.788258
_cell_length_c 9.306190
_cell_angle_alpha 90.000000
_cell_angle_beta 90.000000
_cell_angle_gamma 90.000000
_cell_volume 3884.831110
_symmetry_space_group_name_H-M "C M M M"
_symmetry_group_IT_number 65
_symmetry_cell_setting 'orthorhombic'
loop_
_space_group_symop_operation_xyz
x,y,z
-x,-y,z
x,-y,-z
-x,y,-z
-x,-y,-z
x,y,-z
-x,y,z
x,-y,z
1/2+x,1/2+y,z
1/2-x,1/2-y,z
1/2+x,1/2-y,-z
1/2-x,1/2+y,-z
1/2-x,1/2-y,-z
1/2+x,1/2+y,-z
1/2-x,1/2+y,z
1/2+x,1/2-y,z
loop_
_atom_site_type_symbol
_atom_site_label
_atom_site_fract_x
_atom_site_fract_y
_atom_site_fract_z
Si Si1 0.936117 0.500000 0.170869
Si Si2 0.565316 0.284927 0.331529
Si Si3 0.121622 0.350909 0.165557
Si Si4 0.349982 0.414494 0.332783
Si Si5 0.748612 0.334286 0.164870
O O1 0.907414 0.575154 0.232185
O O2 0.000000 0.500000 0.227147
O O3 0.931172 0.500000 0.000000
O O4 0.567719 0.268080 0.500000
O O5 0.500000 0.287198 0.276923
O O6 0.601081 0.221063 0.252519
O O7 0.594703 0.364588 0.294223
O O8 0.188401 0.367197 0.180602
O O9 0.104401 0.337449 0.000000
O O10 0.335581 0.408692 0.500000
O O11 0.363812 0.500000 0.287106
O O12 0.294169 0.386602 0.250980
O O13 0.750000 0.250000 0.228327
O O14 0.727828 0.332332 0.000000
#
# Coordination Sequence:
#
# PCOD8271849 Si02
#       5
#     8  16  16  16  16
#     4   9  18  32  51  77 107 139 176 217 260 314
#     4  10  21  37  57  80 107 142 184 230 278 326
#     4  10  20  35  56  81 108 142 182 223 270 326
#     4  10  22  38  56  81 112 147 186 227 275 329
#     4  10  20  35  56  82 109 139 179 225 275 325
#
# _framework density 18.533624
#
# number of rings (size 3 to 8) (size 9 to 14) (size 15 to 20)
#    0.000    2.111    2.222    0.667    1.556    3.556 
#    0.000    2.778    0.000    2.000    0.000    3.111 
#    0.000    0.000    0.000    0.000    0.000    0.000 
#
# Total GULP energy -446447.448087 kJ/mol
# GULP energy per Si atom -12401.318002 kJ/mol
# Density = 1.849144 g / cm^3
# Si number density = 18.533624 Si / 1000 Ang^3
#
#
#
# Elastic Constant Matrix: (Units=GPa)
#
#
# Indices 1 2 3 4 5 6 
#
# 1 91.9996 39.9415 28.8482 0.0000 0.0000 0.0000
# 2 39.9415 137.5391 37.3135 0.0000 0.0000 0.0000
# 3 28.8482 37.3135 37.6441 0.0000 0.0000 0.0000
# 4 0.0000 0.0000 0.0000 25.7790 0.0000 0.0000
# 5 0.0000 0.0000 0.0000 0.0000 20.8235 0.0000
# 6 0.0000 0.0000 0.0000 0.0000 0.0000 36.6823
#
#
#
# Elastic Compliance Matrix: (Units=1/GPa)
#
#
# Indices 1 2 3 4 5 6 
#
# 1 0.014575 -0.001645 -0.009539 0.000000 0.000000 0.000000
# 2 -0.001645 0.010131 -0.008781 0.000000 0.000000 0.000000
# 3 -0.009539 -0.008781 0.042579 0.000000 0.000000 0.000000
# 4 0.000000 0.000000 0.000000 0.038791 0.000000 0.000000
# 5 0.000000 0.000000 0.000000 0.000000 0.048023 0.000000
# 6 0.000000 0.000000 0.000000 0.000000 0.000000 0.027261
#
#
# Mechanical properties :
#
#
# Convention : Reuss Voigt Hill
#
# Bulk Modulus (GPa) = 36.55727 53.26548 44.91137
# Shear Modulus (GPa) = 21.70071 27.39561 24.54816
#
# Velocity S-wave (km/s) = 3.42553 3.84885 3.64334
# Velocity P-wave (km/s) = 5.95091 6.96806 6.47947
#
# Compressibility (1/GPa) = 0.02735434
#
# Stress axis : x y z
#
# Youngs Moduli (GPa) = 68.61169 98.71124 23.48584
#
# Poissons Ratio (x) = 0.16234 0.22403
# Poissons Ratio (y) = 0.11284 0.20623
# Poissons Ratio (z) = 0.65449 0.86681
#
# Static dielectric constant tensor:
#      x y z
#    x 3.513900 0.000000 0.000000 
#    y 0.000000 3.583860 0.000000 
#    z 0.000000 0.000000 3.216500 
# 
# 
# High freq. dielectric constant tensor:
#      x y z
#    x 1.729610 0.000000 0.000000 
#    y 0.000000 1.729580 0.000000 
#    z 0.000000 0.000000 1.695470 
# 
# From -- ./inp_files/7298.got.cif
#   From: 2010.03.12/outbox.cif.g09.slc.cpg/sg65_4_cif.got.tgz:7298.got - 2010.04.10 20:52:16.
