data_PCOD8271593
_publ_section_title
;
Structure prediction by ZEFSAII (Michael W. Deem and Ramdas Pophale) SiO2 
 PCOD8271593
Probable space group: C M M M
;
_chemical_formula_sum "Si O2"
_cell_formula_units_Z 72
_cell_length_a 18.261862
_cell_length_b 16.514547
_cell_length_c 15.603603
_cell_angle_alpha 90.000000
_cell_angle_beta 90.000000
_cell_angle_gamma 90.000000
_cell_volume 4705.834117
_symmetry_space_group_name_H-M "C M M M"
_symmetry_group_IT_number 65
_symmetry_cell_setting 'orthorhombic'
loop_
_space_group_symop_operation_xyz
x,y,z
-x,-y,z
x,-y,-z
-x,y,-z
-x,-y,-z
x,y,-z
-x,y,z
x,-y,z
1/2+x,1/2+y,z
1/2-x,1/2-y,z
1/2+x,1/2-y,-z
1/2-x,1/2+y,-z
1/2-x,1/2-y,-z
1/2+x,1/2+y,-z
1/2-x,1/2+y,z
1/2+x,1/2-y,z
loop_
_atom_site_type_symbol
_atom_site_label
_atom_site_fract_x
_atom_site_fract_y
_atom_site_fract_z
Si Si1 0.914194 0.404201 0.685592
Si Si2 0.084644 0.587869 0.000000
Si Si3 0.841002 0.330195 0.153391
Si Si4 0.820079 0.151495 0.102069
Si Si5 0.415273 0.094180 0.500000
Si Si6 0.416899 0.500000 0.101625
O O1 0.902028 0.500000 0.696929
O O2 0.864883 0.356040 0.752331
O O3 0.885005 0.373104 0.591430
O O4 0.000000 0.383841 0.698040
O O5 0.102270 0.636849 0.915074
O O6 0.124737 0.500000 0.000000
O O7 0.000000 0.572301 0.000000
O O8 0.844023 0.233281 0.149098
O O9 0.762188 0.368541 0.131233
O O10 0.873921 0.079948 0.133072
O O11 0.821836 0.164140 0.000000
O O12 0.500000 0.113511 0.500000
O O13 0.400613 0.000000 0.500000
O O14 0.500000 0.500000 0.138475
O O15 0.419063 0.500000 0.000000
#
# Coordination Sequence:
#
# PCOD8271593 Si02
#       6
#    16   8  16  16   8   8
#     4   9  17  28  45  71  98 127 157 184 223 277
#     4  11  22  29  40  67  99 130 153 176 220 276
#     4  11  19  31  46  66  95 126 157 190 227 283
#     4  10  20  35  48  63  87 125 165 196 241 280
#     4   7  12  26  44  63  94 127 155 186 219 266
#     4   9  20  34  50  66  78 111 170 217 239 264
#
# _framework density 15.300155999999999
#
# number of rings (size 3 to 8) (size 9 to 14) (size 15 to 20)
#    0.000    2.333    2.222    3.333    3.111    3.556 
#    0.000    0.000    0.000    2.667    0.000    0.000 
#    0.000    0.000    0.000    6.000    0.000    0.000 
#
# Total GULP energy -446119.476277 kJ/mol
# GULP energy per Si atom -12392.207674 kJ/mol
# Density = 1.526533 g / cm^3
# Si number density = 15.300156 Si / 1000 Ang^3
#
#
#
# Elastic Constant Matrix: (Units=GPa)
#
#
# Indices 1 2 3 4 5 6 
#
# 1 78.3214 46.6881 33.6929 0.0000 0.0000 0.0000
# 2 46.6881 76.6972 34.0411 0.0000 0.0000 0.0000
# 3 33.6929 34.0411 121.5268 0.0000 0.0000 0.0000
# 4 0.0000 0.0000 0.0000 16.7718 0.0000 0.0000
# 5 0.0000 0.0000 0.0000 0.0000 28.9269 0.0000
# 6 0.0000 0.0000 0.0000 0.0000 0.0000 20.2588
#
#
#
# Elastic Compliance Matrix: (Units=1/GPa)
#
#
# Indices 1 2 3 4 5 6 
#
# 1 0.020695 -0.011478 -0.002523 0.000000 0.000000 0.000000
# 2 -0.011478 0.021256 -0.002772 0.000000 0.000000 0.000000
# 3 -0.002523 -0.002772 0.009704 0.000000 0.000000 0.000000
# 4 0.000000 0.000000 0.000000 0.059624 0.000000 0.000000
# 5 0.000000 0.000000 0.000000 0.000000 0.034570 0.000000
# 6 0.000000 0.000000 0.000000 0.000000 0.000000 0.049361
#
#
# Mechanical properties :
#
#
# Convention : Reuss Voigt Hill
#
# Bulk Modulus (GPa) = 55.21679 56.15442 55.68560
# Shear Modulus (GPa) = 21.29543 23.99974 22.64758
#
# Velocity S-wave (km/s) = 3.73479 3.96485 3.85154
# Velocity P-wave (km/s) = 7.40038 7.59878 7.50024
#
# Compressibility (1/GPa) = 0.01811043
#
# Stress axis : x y z
#
# Youngs Moduli (GPa) = 48.31987 47.04622 103.04650
#
# Poissons Ratio (x) = 0.54001 0.25994
# Poissons Ratio (y) = 0.55463 0.28561
# Poissons Ratio (z) = 0.12189 0.13039
#
# Static dielectric constant tensor:
#      x y z
#    x 2.912640 0.000000 0.000000 
#    y 0.000000 2.949510 0.000000 
#    z 0.000000 0.000000 3.132510 
# 
# 
# High freq. dielectric constant tensor:
#      x y z
#    x 1.575950 0.000000 0.000000 
#    y 0.000000 1.576400 0.000000 
#    z 0.000000 0.000000 1.570920 
# 
# From -- ./inp_files/39844.got.cif
#   From: 2010.03.12/outbox.cif.g09.slc.cpg/sg65_20_cif.got.tgz:39844.got - 2010.04.10 20:52:16.
