data_PCOD8271832
_publ_section_title
;
Structure prediction by ZEFSAII (Michael W. Deem and Ramdas Pophale) SiO2 
 PCOD8271832
Probable space group: C M M M
;
_chemical_formula_sum "Si O2"
_cell_formula_units_Z 120
_cell_length_a 14.221544
_cell_length_b 22.122512
_cell_length_c 20.817797
_cell_angle_alpha 90.000000
_cell_angle_beta 90.000000
_cell_angle_gamma 90.000000
_cell_volume 6549.617804
_symmetry_space_group_name_H-M "C M M M"
_symmetry_group_IT_number 65
_symmetry_cell_setting 'orthorhombic'
loop_
_space_group_symop_operation_xyz
x,y,z
-x,-y,z
x,-y,-z
-x,y,-z
-x,-y,-z
x,y,-z
-x,y,z
x,-y,z
1/2+x,1/2+y,z
1/2-x,1/2-y,z
1/2+x,1/2-y,-z
1/2-x,1/2+y,-z
1/2-x,1/2-y,-z
1/2+x,1/2+y,-z
1/2-x,1/2+y,z
1/2+x,1/2-y,z
loop_
_atom_site_type_symbol
_atom_site_label
_atom_site_fract_x
_atom_site_fract_y
_atom_site_fract_z
Si Si1 0.794296 0.122966 0.073191
Si Si2 0.108589 0.648181 0.869266
Si Si3 0.389686 0.066369 0.753191
Si Si4 0.607012 0.850057 0.362049
Si Si5 0.723415 0.681118 0.430998
Si Si6 0.108182 0.215613 0.685840
Si Si7 0.891697 0.786762 0.830684
Si Si8 0.393002 0.500000 0.075864
O O1 0.680087 0.127882 0.074284
O O2 0.832954 0.174817 0.119155
O O3 0.834776 0.058940 0.098526
O O4 0.827421 0.134457 0.000000
O O5 0.146461 0.608706 0.809882
O O6 0.120714 0.717352 0.849661
O O7 0.000000 0.634631 0.889135
O O8 0.500000 0.060476 0.761307
O O9 0.366365 0.095875 0.685177
O O10 0.342154 0.000000 0.756670
O O11 0.500000 0.854360 0.387341
O O12 0.679567 0.856027 0.420899
O O13 0.624895 0.786520 0.326136
O O14 0.678723 0.659736 0.500000
O O15 0.750000 0.750000 0.438367
O O16 0.656714 0.673583 0.368644
O O17 0.145729 0.201810 0.757833
O O18 0.000000 0.198854 0.681473
O O19 0.000000 0.806081 0.835509
O O20 0.500000 0.500000 0.104350
O O21 0.399228 0.500000 0.000000
#
# Coordination Sequence:
#
# PCOD8271832 Si02
#       8
#    16  16  16  16  16  16  16   8
#     4  11  24  38  56  81 106 141 184 223 272 328
#     4  10  21  35  53  79 112 143 176 220 272 330
#     4   9  17  30  49  73 101 135 175 213 254 307
#     4   9  16  28  47  69  99 135 169 206 249 301
#     4   9  18  28  42  68  99 132 167 203 251 308
#     4   9  17  30  48  71 100 132 168 210 259 311
#     4  10  20  35  56  80 106 139 179 226 279 327
#     4   9  20  42  63  77 101 137 179 225 271 324
#
# _framework density 18.321680000000001
#
# number of rings (size 3 to 8) (size 9 to 14) (size 15 to 20)
#    0.000    2.467    1.333    0.800    2.800    3.733 
#    0.000    4.000    0.000    1.600    0.000    1.867 
#    0.000    0.000    0.000    1.200    0.000    1.333 
#
# Total GULP energy -743470.506948 kJ/mol
# GULP energy per Si atom -12391.175116 kJ/mol
# Density = 1.827998 g / cm^3
# Si number density = 18.321680 Si / 1000 Ang^3
#
#
#
# Elastic Constant Matrix: (Units=GPa)
#
#
# Indices 1 2 3 4 5 6 
#
# 1 87.8932 37.7935 44.3424 0.0000 0.0000 0.0000
# 2 37.7935 83.3832 37.0607 0.0000 0.0000 0.0000
# 3 44.3424 37.0607 96.0919 0.0000 0.0000 0.0000
# 4 0.0000 0.0000 0.0000 10.5940 0.0000 0.0000
# 5 0.0000 0.0000 0.0000 0.0000 25.7632 0.0000
# 6 0.0000 0.0000 0.0000 0.0000 0.0000 14.1473
#
#
#
# Elastic Compliance Matrix: (Units=1/GPa)
#
#
# Indices 1 2 3 4 5 6 
#
# 1 0.016331 -0.004891 -0.005650 0.000000 0.000000 0.000000
# 2 -0.004891 0.015939 -0.003890 0.000000 0.000000 0.000000
# 3 -0.005650 -0.003890 0.014514 0.000000 0.000000 0.000000
# 4 0.000000 0.000000 0.000000 0.094393 0.000000 0.000000
# 5 0.000000 0.000000 0.000000 0.000000 0.038815 0.000000
# 6 0.000000 0.000000 0.000000 0.000000 0.000000 0.070685
#
#
# Mechanical properties :
#
#
# Convention : Reuss Voigt Hill
#
# Bulk Modulus (GPa) = 55.79734 56.19573 55.99654
# Shear Modulus (GPa) = 17.51239 19.97902 18.74570
#
# Velocity S-wave (km/s) = 3.09500 3.30579 3.20213
# Velocity P-wave (km/s) = 6.57970 6.73122 6.65589
#
# Compressibility (1/GPa) = 0.01792200
#
# Stress axis : x y z
#
# Youngs Moduli (GPa) = 61.23414 62.74038 68.89796
#
# Poissons Ratio (x) = 0.30685 0.38925
# Poissons Ratio (y) = 0.29949 0.26803
# Poissons Ratio (z) = 0.34595 0.24408
#
# Static dielectric constant tensor:
#      x y z
#    x 3.537280 0.000000 0.000000 
#    y 0.000000 3.605430 0.000000 
#    z 0.000000 0.000000 3.552040 
# 
# 
# High freq. dielectric constant tensor:
#      x y z
#    x 1.709410 0.000000 0.000000 
#    y 0.000000 1.679560 0.000000 
#    z 0.000000 0.000000 1.701400 
# 
# From -- ./inp_files/63014.got.cif
#   From: 2010.03.12/outbox.cif.g09.slc.cpg/sg65_32_cif.got.tgz:63014.got - 2010.04.10 20:52:16.
