data_PCOD8271002
_publ_section_title
;
Structure prediction by ZEFSAII (Michael W. Deem and Ramdas Pophale) SiO2 
 PCOD8271002
Probable space group: C M M M
;
_chemical_formula_sum "Si O2"
_cell_formula_units_Z 88
_cell_length_a 28.043367
_cell_length_b 9.095050
_cell_length_c 23.413688
_cell_angle_alpha 90.000000
_cell_angle_beta 90.000000
_cell_angle_gamma 90.000000
_cell_volume 5971.797510
_symmetry_space_group_name_H-M "C M M M"
_symmetry_group_IT_number 65
_symmetry_cell_setting 'orthorhombic'
loop_
_space_group_symop_operation_xyz
x,y,z
-x,-y,z
x,-y,-z
-x,y,-z
-x,-y,-z
x,y,-z
-x,y,z
x,-y,z
1/2+x,1/2+y,z
1/2-x,1/2-y,z
1/2+x,1/2-y,-z
1/2-x,1/2+y,-z
1/2-x,1/2-y,-z
1/2+x,1/2+y,-z
1/2-x,1/2+y,z
1/2+x,1/2-y,z
loop_
_atom_site_type_symbol
_atom_site_label
_atom_site_fract_x
_atom_site_fract_y
_atom_site_fract_z
Si Si1 0.556476 0.831291 0.500000
Si Si2 0.799045 0.329446 0.433299
Si Si3 0.945885 0.170840 0.282570
Si Si4 0.443303 0.334668 0.062626
Si Si5 0.556850 0.164751 0.828845
Si Si6 0.391712 0.326061 0.602246
O O1 0.500000 0.826164 0.500000
O O2 0.574727 0.748164 0.555616
O O3 0.575229 0.000000 0.500000
O O4 0.811142 0.312765 0.500000
O O5 0.796099 0.500000 0.415452
O O6 0.750000 0.250000 0.417694
O O7 0.839661 0.245955 0.398166
O O8 0.924414 0.252424 0.227398
O O9 0.913687 0.210510 0.336461
O O10 0.000000 0.222102 0.295630
O O11 0.944609 0.000000 0.268266
O O12 0.500000 0.333385 0.066105
O O13 0.424345 0.500000 0.070837
O O14 0.421616 0.236439 0.113492
O O15 0.427266 0.274575 0.000000
O O16 0.500000 0.171860 0.830490
O O17 0.576162 0.000000 0.826100
O O18 0.388520 0.500000 0.590383
#
# Coordination Sequence:
#
# PCOD8271002 Si02
#       6
#     8  16  16  16  16  16
#     4  11  23  35  46  63  88 115 141 173 213 253
#     4  10  20  34  52  71  91 110 132 164 208 257
#     4   9  18  31  44  58  79 110 145 176 206 246
#     4   8  13  21  33  48  67  94 128 166 207 247
#     4   9  16  24  35  52  73  99 132 171 211 245
#     4  11  21  33  50  68  86 109 140 175 213 255
#
# _framework density 14.735932
#
# number of rings (size 3 to 8) (size 9 to 14) (size 15 to 20)
#    0.000    2.455    0.909    3.000    0.000    6.182 
#    0.000    3.636    0.000    0.000    0.000    0.000 
#    0.000    0.000    0.000    0.000    0.000    0.909 
#
# Total GULP energy -545528.931863 kJ/mol
# GULP energy per Si atom -12398.384815 kJ/mol
# Density = 1.470239 g / cm^3
# Si number density = 14.735932 Si / 1000 Ang^3
#
#
#
# Elastic Constant Matrix: (Units=GPa)
#
#
# Indices 1 2 3 4 5 6 
#
# 1 56.8676 38.2870 40.5910 0.0000 0.0000 0.0000
# 2 38.2870 106.4227 75.3775 0.0000 0.0000 0.0000
# 3 40.5910 75.3775 133.4577 0.0000 0.0000 0.0000
# 4 0.0000 0.0000 0.0000 14.7366 0.0000 0.0000
# 5 0.0000 0.0000 0.0000 0.0000 1.1621 0.0000
# 6 0.0000 0.0000 0.0000 0.0000 0.0000 19.1459
#
#
#
# Elastic Compliance Matrix: (Units=1/GPa)
#
#
# Indices 1 2 3 4 5 6 
#
# 1 0.024494 -0.005893 -0.004122 0.000000 0.000000 0.000000
# 2 -0.005893 0.017080 -0.007854 0.000000 0.000000 0.000000
# 3 -0.004122 -0.007854 0.013183 0.000000 0.000000 0.000000
# 4 0.000000 0.000000 0.000000 0.067858 0.000000 0.000000
# 5 0.000000 0.000000 0.000000 0.000000 0.860514 0.000000
# 6 0.000000 0.000000 0.000000 0.000000 0.000000 0.052231
#
#
# Mechanical properties :
#
#
# Convention : Reuss Voigt Hill
#
# Bulk Modulus (GPa) = 52.57912 67.25100 59.91506
# Shear Modulus (GPa) = 4.64064 16.50841 10.57453
#
# Velocity S-wave (km/s) = 1.77652 3.35069 2.68171
# Velocity P-wave (km/s) = 6.32190 7.79141 7.09480
#
# Compressibility (1/GPa) = 0.01901896
#
# Stress axis : x y z
#
# Youngs Moduli (GPa) = 40.82630 58.54929 75.85673
#
# Poissons Ratio (x) = 0.34502 0.31265
# Poissons Ratio (y) = 0.24058 0.59581
# Poissons Ratio (z) = 0.16827 0.45987
#
# Static dielectric constant tensor:
#      x y z
#    x 2.485100 0.000000 0.000000 
#    y 0.000000 3.042370 0.000000 
#    z 0.000000 0.000000 2.989850 
# 
# 
# High freq. dielectric constant tensor:
#      x y z
#    x 1.507600 0.000000 0.000000 
#    y 0.000000 1.578790 0.000000 
#    z 0.000000 0.000000 1.563720 
# 
# From -- ./inp_files/66181.got.cif
#   From: 2010.03.12/outbox.cif.g09.slc.cpg/sg65_34_cif.got.tgz:66181.got - 2010.04.10 20:52:16.
