data_PCOD8271617
_publ_section_title
;
Structure prediction by ZEFSAII (Michael W. Deem and Ramdas Pophale) SiO2 
 PCOD8271617
Probable space group: C M M M
;
_chemical_formula_sum "Si O2"
_cell_formula_units_Z 104
_cell_length_a 29.571865
_cell_length_b 9.111240
_cell_length_c 22.502481
_cell_angle_alpha 90.000000
_cell_angle_beta 90.000000
_cell_angle_gamma 90.000000
_cell_volume 6062.986555
_symmetry_space_group_name_H-M "C M M M"
_symmetry_group_IT_number 65
_symmetry_cell_setting 'orthorhombic'
loop_
_space_group_symop_operation_xyz
x,y,z
-x,-y,z
x,-y,-z
-x,y,-z
-x,-y,-z
x,y,-z
-x,y,z
x,-y,z
1/2+x,1/2+y,z
1/2-x,1/2-y,z
1/2+x,1/2-y,-z
1/2-x,1/2+y,-z
1/2-x,1/2-y,-z
1/2+x,1/2+y,-z
1/2-x,1/2+y,z
1/2+x,1/2-y,z
loop_
_atom_site_type_symbol
_atom_site_label
_atom_site_fract_x
_atom_site_fract_y
_atom_site_fract_z
Si Si1 0.048871 0.162320 0.070375
Si Si2 0.702707 0.173017 0.297215
Si Si3 0.551393 0.829687 0.569594
Si Si4 0.798428 0.828492 0.500000
Si Si5 0.139812 0.825728 0.611520
Si Si6 0.634286 0.827211 0.933368
Si Si7 0.704809 0.170608 0.160912
O O1 0.085627 0.278985 0.091468
O O2 0.000000 0.207984 0.096900
O O3 0.062270 0.000000 0.093137
O O4 0.045757 0.161700 0.000000
O O5 0.750000 0.250000 0.315139
O O6 0.661225 0.246004 0.331760
O O7 0.690812 0.203084 0.228560
O O8 0.706708 0.000000 0.311543
O O9 0.556249 0.798322 0.500000
O O10 0.500000 0.788366 0.589929
O O11 0.588478 0.731248 0.603367
O O12 0.560886 0.000000 0.583613
O O13 0.750000 0.750000 0.500000
O O14 0.828180 0.781736 0.443484
O O15 0.788158 0.000000 0.500000
O O16 0.138175 0.000000 0.621057
O O17 0.668939 0.763510 0.885386
O O18 0.635614 0.000000 0.935016
O O19 0.644118 0.764573 0.000000
O O20 0.750000 0.250000 0.143096
O O21 0.712105 0.000000 0.150601
#
# Coordination Sequence:
#
# PCOD8271617 Si02
#       7
#    16  16  16   8  16  16  16
#     4   8  14  25  41  63  92 123 153 186 227 278
#     4  10  20  35  53  72  95 128 168 207 246 292
#     4   9  18  33  53  77 104 135 170 204 242 291
#     4  10  22  34  45  68 101 131 156 191 239 288
#     4  11  21  34  51  75 103 132 166 202 248 294
#     4   9  17  29  46  70  98 125 155 195 243 293
#     4   9  19  34  50  69  95 126 163 203 242 288
#
# _framework density 17.153262000000002
#
# number of rings (size 3 to 8) (size 9 to 14) (size 15 to 20)
#    0.000    2.615    0.769    2.308    0.000    4.615 
#    0.000    2.308    0.000    0.923    0.000    2.154 
#    0.000    0.000    0.000    0.000    0.000    0.000 
#
# Total GULP energy -644544.186904 kJ/mol
# GULP energy per Si atom -12395.080517 kJ/mol
# Density = 1.711422 g / cm^3
# Si number density = 17.153262 Si / 1000 Ang^3
#
#
#
# Elastic Constant Matrix: (Units=GPa)
#
#
# Indices 1 2 3 4 5 6 
#
# 1 149.9214 56.3436 67.0057 0.0000 0.0000 0.0000
# 2 56.3436 54.9949 36.0330 0.0000 0.0000 0.0000
# 3 67.0057 36.0330 69.7596 0.0000 0.0000 0.0000
# 4 0.0000 0.0000 0.0000 17.7068 0.0000 0.0000
# 5 0.0000 0.0000 0.0000 0.0000 12.8073 0.0000
# 6 0.0000 0.0000 0.0000 0.0000 0.0000 36.1243
#
#
#
# Elastic Compliance Matrix: (Units=1/GPa)
#
#
# Indices 1 2 3 4 5 6 
#
# 1 0.013778 -0.008230 -0.008983 0.000000 0.000000 0.000000
# 2 -0.008230 0.032402 -0.008831 0.000000 0.000000 0.000000
# 3 -0.008983 -0.008831 0.027525 0.000000 0.000000 0.000000
# 4 0.000000 0.000000 0.000000 0.056476 0.000000 0.000000
# 5 0.000000 0.000000 0.000000 0.000000 0.078080 0.000000
# 6 0.000000 0.000000 0.000000 0.000000 0.000000 0.027682
#
#
# Mechanical properties :
#
#
# Convention : Reuss Voigt Hill
#
# Bulk Modulus (GPa) = 46.26212 65.93782 56.09997
# Shear Modulus (GPa) = 16.93552 21.01391 18.97471
#
# Velocity S-wave (km/s) = 3.14555 3.50389 3.32955
# Velocity P-wave (km/s) = 6.34201 7.40902 6.89618
#
# Compressibility (1/GPa) = 0.02161595
#
# Stress axis : x y z
#
# Youngs Moduli (GPa) = 72.57875 30.86234 36.33076
#
# Poissons Ratio (x) = 0.25401 0.32636
# Poissons Ratio (y) = 0.59735 0.32084
# Poissons Ratio (z) = 0.65197 0.27255
#
# Static dielectric constant tensor:
#      x y z
#    x 3.492120 0.000000 0.000000 
#    y 0.000000 3.205770 0.000000 
#    z 0.000000 0.000000 3.144000 
# 
# 
# High freq. dielectric constant tensor:
#      x y z
#    x 1.669010 0.000000 0.000000 
#    y 0.000000 1.662520 0.000000 
#    z 0.000000 0.000000 1.635290 
# 
# From -- ./inp_files/72108.got.cif
#   From: 2010.03.12/outbox.cif.g09.slc.cpg/sg65_37_cif.got.tgz:72108.got - 2010.04.10 20:52:16.
