data_PCOD8271461
_publ_section_title
;
Structure prediction by ZEFSAII (Michael W. Deem and Ramdas Pophale) SiO2 
 PCOD8271461
Probable space group: C M M M
;
_chemical_formula_sum "Si O2"
_cell_formula_units_Z 104
_cell_length_a 28.974813
_cell_length_b 9.080512
_cell_length_c 19.846920
_cell_angle_alpha 90.000000
_cell_angle_beta 90.000000
_cell_angle_gamma 90.000000
_cell_volume 5221.846455
_symmetry_space_group_name_H-M "C M M M"
_symmetry_group_IT_number 65
_symmetry_cell_setting 'orthorhombic'
loop_
_space_group_symop_operation_xyz
x,y,z
-x,-y,z
x,-y,-z
-x,y,-z
-x,-y,-z
x,y,-z
-x,y,z
x,-y,z
1/2+x,1/2+y,z
1/2-x,1/2-y,z
1/2+x,1/2-y,-z
1/2-x,1/2+y,-z
1/2-x,1/2-y,-z
1/2+x,1/2+y,-z
1/2-x,1/2+y,z
1/2+x,1/2-y,z
loop_
_atom_site_type_symbol
_atom_site_label
_atom_site_fract_x
_atom_site_fract_y
_atom_site_fract_z
Si Si1 0.296365 0.169885 0.772534
Si Si2 0.860246 0.825847 0.127753
Si Si3 0.447661 0.827557 0.833918
Si Si4 0.200579 0.827246 0.000000
Si Si5 0.703973 0.831091 0.385668
Si Si6 0.385155 0.667976 0.424834
Si Si7 0.446569 0.834908 0.320895
O O1 0.250000 0.250000 0.797417
O O2 0.339795 0.248188 0.806316
O O3 0.303940 0.188374 0.693628
O O4 0.293323 0.000000 0.794525
O O5 0.912532 0.765701 0.119587
O O6 0.861332 0.000000 0.137247
O O7 0.829238 0.778509 0.064393
O O8 0.500000 0.787788 0.855428
O O9 0.439599 0.784173 0.755992
O O10 0.438488 0.000000 0.844548
O O11 0.250000 0.750000 0.000000
O O12 0.209839 0.000000 0.000000
O O13 0.750000 0.750000 0.409682
O O14 0.661426 0.761090 0.424255
O O15 0.708526 0.000000 0.406517
O O16 0.406466 0.681651 0.500000
O O17 0.373190 0.500000 0.406958
O O18 0.421491 0.724159 0.370581
O O19 0.500000 0.833695 0.339914
O O20 0.426375 0.000000 0.330522
#
# Coordination Sequence:
#
# PCOD8271461 Si02
#       7
#    16  16  16   8  16  16  16
#     4  10  20  34  54  82 111 138 175 224 276 328
#     4  11  22  36  56  82 113 149 187 226 271 321
#     4   9  19  37  60  86 114 142 178 226 276 325
#     4  10  24  42  57  80 115 153 192 229 265 314
#     4  10  21  37  57  79 105 138 177 224 276 329
#     4  11  24  38  52  75 108 144 182 224 270 324
#     4   9  19  37  60  84 110 141 178 223 274 326
#
# _framework density 19.916326999999999
#
# number of rings (size 3 to 8) (size 9 to 14) (size 15 to 20)
#    0.000    2.000    0.000    4.154    0.000   11.077 
#    0.000    3.462    0.000    2.308    0.000    0.000 
#    0.000    0.000    0.000    0.000    0.000    0.000 
#
# Total GULP energy -644973.907547 kJ/mol
# GULP energy per Si atom -12403.344376 kJ/mol
# Density = 1.987100 g / cm^3
# Si number density = 19.916327 Si / 1000 Ang^3
#
#
#
# Elastic Constant Matrix: (Units=GPa)
#
#
# Indices 1 2 3 4 5 6 
#
# 1 123.3009 58.5555 47.3742 0.0000 0.0000 0.0000
# 2 58.5555 115.6472 42.3320 0.0000 0.0000 0.0000
# 3 47.3742 42.3320 58.3076 0.0000 0.0000 0.0000
# 4 0.0000 0.0000 0.0000 26.1507 0.0000 0.0000
# 5 0.0000 0.0000 0.0000 0.0000 22.0404 0.0000
# 6 0.0000 0.0000 0.0000 0.0000 0.0000 42.9619
#
#
#
# Elastic Compliance Matrix: (Units=1/GPa)
#
#
# Indices 1 2 3 4 5 6 
#
# 1 0.012831 -0.003651 -0.007775 0.000000 0.000000 0.000000
# 2 -0.003651 0.012816 -0.006338 0.000000 0.000000 0.000000
# 3 -0.007775 -0.006338 0.028068 0.000000 0.000000 0.000000
# 4 0.000000 0.000000 0.000000 0.038240 0.000000 0.000000
# 5 0.000000 0.000000 0.000000 0.000000 0.045371 0.000000
# 6 0.000000 0.000000 0.000000 0.000000 0.000000 0.023276
#
#
# Mechanical properties :
#
#
# Convention : Reuss Voigt Hill
#
# Bulk Modulus (GPa) = 54.97983 65.97546 60.47764
# Shear Modulus (GPa) = 24.72893 28.16352 26.44623
#
# Velocity S-wave (km/s) = 3.52752 3.76452 3.64794
# Velocity P-wave (km/s) = 6.65256 7.21760 6.94083
#
# Compressibility (1/GPa) = 0.01818849
#
# Stress axis : x y z
#
# Youngs Moduli (GPa) = 77.93505 78.03043 35.62716
#
# Poissons Ratio (x) = 0.28489 0.27698
# Poissons Ratio (y) = 0.28454 0.22580
# Poissons Ratio (z) = 0.60591 0.49454
#
# Static dielectric constant tensor:
#      x y z
#    x 3.721880 0.000000 0.000000 
#    y 0.000000 3.663480 0.000000 
#    z 0.000000 0.000000 3.474440 
# 
# 
# High freq. dielectric constant tensor:
#      x y z
#    x 1.786210 0.000000 0.000000 
#    y 0.000000 1.781090 0.000000 
#    z 0.000000 0.000000 1.763740 
# 
# From -- ./inp_files/60427.got.cif
#   From: 2010.03.12/outbox.cif.g09.slc.cpg/sg65_31_cif.got.tgz:60427.got - 2010.04.10 20:52:16.
