data_PCOD8271589
_publ_section_title
;
Structure prediction by ZEFSAII (Michael W. Deem and Ramdas Pophale) SiO2 
 PCOD8271589
Probable space group: C M M M
;
_chemical_formula_sum "Si O2"
_cell_formula_units_Z 88
_cell_length_a 24.655435
_cell_length_b 14.167512
_cell_length_c 12.099760
_cell_angle_alpha 90.000000
_cell_angle_beta 90.000000
_cell_angle_gamma 90.000000
_cell_volume 4226.520838
_symmetry_space_group_name_H-M "C M M M"
_symmetry_group_IT_number 65
_symmetry_cell_setting 'orthorhombic'
loop_
_space_group_symop_operation_xyz
x,y,z
-x,-y,z
x,-y,-z
-x,y,-z
-x,-y,-z
x,y,-z
-x,y,z
x,-y,z
1/2+x,1/2+y,z
1/2-x,1/2-y,z
1/2+x,1/2-y,-z
1/2-x,1/2+y,-z
1/2-x,1/2-y,-z
1/2+x,1/2+y,-z
1/2-x,1/2+y,z
1/2+x,1/2-y,z
loop_
_atom_site_type_symbol
_atom_site_label
_atom_site_fract_x
_atom_site_fract_y
_atom_site_fract_z
Si Si1 0.560814 0.175175 0.375215
Si Si2 0.237562 0.500000 0.688288
Si Si3 0.564710 0.290676 0.000000
Si Si4 0.626515 0.892796 0.000000
Si Si5 0.795400 0.318821 0.181696
Si Si6 0.113348 0.182072 0.235688
Si Si7 0.379076 0.000000 0.621866
Si Si8 0.856665 0.000000 0.373113
O O1 0.579976 0.200500 0.500000
O O2 0.500000 0.136663 0.374898
O O3 0.563978 0.266499 0.298108
O O4 0.598964 0.094403 0.319220
O O5 0.236538 0.401716 0.755358
O O6 0.185273 0.500000 0.610279
O O7 0.291726 0.500000 0.616619
O O8 0.574922 0.177518 0.000000
O O9 0.594854 0.335211 0.107893
O O10 0.500000 0.311329 0.000000
O O11 0.665361 0.874985 0.898000
O O12 0.604677 0.000000 0.000000
O O13 0.750000 0.250000 0.125716
O O14 0.833165 0.247335 0.252052
O O15 0.122441 0.086538 0.301028
O O16 0.405669 0.000000 0.500000
O O17 0.879156 0.000000 0.500000
#
# Coordination Sequence:
#
# PCOD8271589 Si02
#       8
#    16   8   8   8  16  16   8   8
#     4  10  20  36  60  89 124 167 213 266 327 392
#     4  12  21  38  62  93 133 168 217 264 321 391
#     4  10  24  45  70  97 129 170 218 273 338 400
#     4  10  21  36  63  96 134 172 215 272 320 382
#     4  11  21  38  59  90 130 178 221 264 318 384
#     4  11  23  43  65  92 131 169 218 273 330 394
#     4  10  20  34  57  90 124 164 213 262 319 390
#     4  12  27  45  66  97 131 170 222 280 334 393
#
# _framework density 20.820907999999999
#
# number of rings (size 3 to 8) (size 9 to 14) (size 15 to 20)
#    0.000    1.273    4.545    1.909    0.000    1.636 
#    0.000    4.091    0.000    3.273    0.000    0.000 
#    0.000    0.000    0.000    0.000    0.000    0.000 
#
# Total GULP energy -545188.470456 kJ/mol
# GULP energy per Si atom -12390.647056 kJ/mol
# Density = 2.077352 g / cm^3
# Si number density = 20.820908 Si / 1000 Ang^3
#
#
#
# Elastic Constant Matrix: (Units=GPa)
#
#
# Indices 1 2 3 4 5 6 
#
# 1 93.0431 42.8398 25.9389 0.0000 0.0000 0.0000
# 2 42.8398 144.1613 61.7193 0.0000 0.0000 0.0000
# 3 25.9389 61.7193 116.3087 0.0000 0.0000 0.0000
# 4 0.0000 0.0000 0.0000 27.6382 0.0000 0.0000
# 5 0.0000 0.0000 0.0000 0.0000 56.5746 0.0000
# 6 0.0000 0.0000 0.0000 0.0000 0.0000 15.6917
#
#
#
# Elastic Compliance Matrix: (Units=1/GPa)
#
#
# Indices 1 2 3 4 5 6 
#
# 1 0.012552 -0.003276 -0.001061 0.000000 0.000000 0.000000
# 2 -0.003276 0.009831 -0.004486 0.000000 0.000000 0.000000
# 3 -0.001061 -0.004486 0.011215 0.000000 0.000000 0.000000
# 4 0.000000 0.000000 0.000000 0.036182 0.000000 0.000000
# 5 0.000000 0.000000 0.000000 0.000000 0.017676 0.000000
# 6 0.000000 0.000000 0.000000 0.000000 0.000000 0.063728
#
#
# Mechanical properties :
#
#
# Convention : Reuss Voigt Hill
#
# Bulk Modulus (GPa) = 62.68895 68.27877 65.48386
# Shear Modulus (GPa) = 28.71154 34.84857 31.78006
#
# Velocity S-wave (km/s) = 3.71749 4.09556 3.91110
# Velocity P-wave (km/s) = 6.97139 7.43165 7.20520
#
# Compressibility (1/GPa) = 0.01595177
#
# Stress axis : x y z
#
# Youngs Moduli (GPa) = 79.67035 101.72179 89.16618
#
# Poissons Ratio (x) = 0.33321 0.09461
# Poissons Ratio (y) = 0.26098 0.40001
# Poissons Ratio (z) = 0.08453 0.45634
#
# Static dielectric constant tensor:
#      x y z
#    x 3.697150 0.000000 0.000000 
#    y 0.000000 3.853670 0.000000 
#    z 0.000000 0.000000 3.683700 
# 
# 
# High freq. dielectric constant tensor:
#      x y z
#    x 1.814840 0.000000 0.000000 
#    y 0.000000 1.817110 0.000000 
#    z 0.000000 0.000000 1.805450 
# 
# From -- ./inp_files/32300.got.cif
#   From: 2010.03.12/outbox.cif.g09.slc.cpg/sg65_17_cif.got.tgz:32300.got - 2010.04.10 20:52:16.
