data_PCOD8271457
_publ_section_title
;
Structure prediction by ZEFSAII (Michael W. Deem and Ramdas Pophale) SiO2 
 PCOD8271457
Probable space group: C M M M
;
_chemical_formula_sum "Si O2"
_cell_formula_units_Z 112
_cell_length_a 27.773823
_cell_length_b 14.181403
_cell_length_c 13.536222
_cell_angle_alpha 90.000000
_cell_angle_beta 90.000000
_cell_angle_gamma 90.000000
_cell_volume 5331.535810
_symmetry_space_group_name_H-M "C M M M"
_symmetry_group_IT_number 65
_symmetry_cell_setting 'orthorhombic'
loop_
_space_group_symop_operation_xyz
x,y,z
-x,-y,z
x,-y,-z
-x,y,-z
-x,-y,-z
x,y,-z
-x,y,z
x,-y,z
1/2+x,1/2+y,z
1/2-x,1/2-y,z
1/2+x,1/2-y,-z
1/2-x,1/2+y,-z
1/2-x,1/2-y,-z
1/2+x,1/2+y,-z
1/2-x,1/2+y,z
1/2+x,1/2-y,z
loop_
_atom_site_type_symbol
_atom_site_label
_atom_site_fract_x
_atom_site_fract_y
_atom_site_fract_z
Si Si1 0.369362 0.397138 0.614557
Si Si2 0.305638 0.751606 0.112552
Si Si3 0.824548 0.601846 0.727730
Si Si4 0.445266 0.714297 0.723148
Si Si5 0.113518 0.109602 0.887788
Si Si6 0.735027 0.643836 0.609564
Si Si7 0.417029 0.108943 0.385550
O O1 0.362351 0.402729 0.500000
O O2 0.379757 0.500000 0.660355
O O3 0.414532 0.331602 0.635643
O O4 0.318471 0.359915 0.658254
O O5 0.250000 0.750000 0.146375
O O6 0.332538 0.823586 0.185078
O O7 0.331842 0.649785 0.121539
O O8 0.309098 0.788877 0.000000
O O9 0.837333 0.500000 0.773897
O O10 0.771011 0.593041 0.684037
O O11 0.860378 0.624381 0.636561
O O12 0.500000 0.678119 0.723338
O O13 0.421365 0.678651 0.825357
O O14 0.445109 0.826035 0.695347
O O15 0.112805 0.000000 0.852490
O O16 0.095223 0.116364 0.000000
O O17 0.736227 0.596629 0.500000
O O18 0.750000 0.750000 0.600109
O O19 0.427113 0.137856 0.500000
O O20 0.432743 0.000000 0.369073
#
# Coordination Sequence:
#
# PCOD8271457 Si02
#       7
#    16  16  16  16  16  16  16
#     4  10  22  38  55  82 123 167 209 253 309 375
#     4  10  22  40  61  91 130 167 207 252 304 373
#     4  11  21  34  59  92 125 163 207 254 305 368
#     4  12  25  42  65  91 121 158 208 267 322 373
#     4  10  23  45  71  96 126 165 209 261 318 373
#     4  10  20  34  54  81 119 167 212 252 297 356
#     4  10  22  41  65  96 132 167 208 257 310 375
#
# _framework density 21.007079999999998
#
# number of rings (size 3 to 8) (size 9 to 14) (size 15 to 20)
#    0.000    1.571    1.429    3.000    2.000    6.286 
#    0.000    3.571    0.000    0.429    0.000    1.000 
#    0.000    0.000    0.000    0.000    0.000    0.000 
#
# Total GULP energy -693928.050922 kJ/mol
# GULP energy per Si atom -12391.572338 kJ/mol
# Density = 2.095927 g / cm^3
# Si number density = 21.007080 Si / 1000 Ang^3
#
#
#
# Elastic Constant Matrix: (Units=GPa)
#
#
# Indices 1 2 3 4 5 6 
#
# 1 127.1003 36.6241 20.0684 0.0000 0.0000 0.0000
# 2 36.6241 120.2176 46.9470 0.0000 0.0000 0.0000
# 3 20.0684 46.9470 101.9830 0.0000 0.0000 0.0000
# 4 0.0000 0.0000 0.0000 36.9349 0.0000 0.0000
# 5 0.0000 0.0000 0.0000 0.0000 18.0633 0.0000
# 6 0.0000 0.0000 0.0000 0.0000 0.0000 15.7538
#
#
#
# Elastic Compliance Matrix: (Units=1/GPa)
#
#
# Indices 1 2 3 4 5 6 
#
# 1 0.008655 -0.002404 -0.000597 0.000000 0.000000 0.000000
# 2 -0.002404 0.010809 -0.004503 0.000000 0.000000 0.000000
# 3 -0.000597 -0.004503 0.011996 0.000000 0.000000 0.000000
# 4 0.000000 0.000000 0.000000 0.027075 0.000000 0.000000
# 5 0.000000 0.000000 0.000000 0.000000 0.055361 0.000000
# 6 0.000000 0.000000 0.000000 0.000000 0.000000 0.063477
#
#
# Mechanical properties :
#
#
# Convention : Reuss Voigt Hill
#
# Bulk Modulus (GPa) = 60.77815 61.84221 61.31018
# Shear Modulus (GPa) = 25.27014 30.52784 27.89899
#
# Velocity S-wave (km/s) = 3.47210 3.81624 3.64823
# Velocity P-wave (km/s) = 6.71334 6.99435 6.85529
#
# Compressibility (1/GPa) = 0.01645328
#
# Stress axis : x y z
#
# Youngs Moduli (GPa) = 115.54535 92.51603 83.36258
#
# Poissons Ratio (x) = 0.22238 0.04973
# Poissons Ratio (y) = 0.27773 0.37537
# Poissons Ratio (z) = 0.06893 0.41658
#
# Static dielectric constant tensor:
#      x y z
#    x 3.692570 0.000000 0.000000 
#    y 0.000000 4.041480 0.000000 
#    z 0.000000 0.000000 3.868720 
# 
# 
# High freq. dielectric constant tensor:
#      x y z
#    x 1.806660 0.000000 0.000000 
#    y 0.000000 1.830420 0.000000 
#    z 0.000000 0.000000 1.820920 
# 
# From -- ./inp_files/47074.got.cif
#   From: 2010.03.12/outbox.cif.g09.slc.cpg/sg65_24_cif.got.tgz:47074.got - 2010.04.10 20:52:16.
