data_PCOD8271315
_publ_section_title
;
Structure prediction by ZEFSAII (Michael W. Deem and Ramdas Pophale) SiO2 
 PCOD8271315
Probable space group: C M M M
;
_chemical_formula_sum "Si O2"
_cell_formula_units_Z 80
_cell_length_a 25.099938
_cell_length_b 19.508754
_cell_length_c 9.104788
_cell_angle_alpha 90.000000
_cell_angle_beta 90.000000
_cell_angle_gamma 90.000000
_cell_volume 4458.328027
_symmetry_space_group_name_H-M "C M M M"
_symmetry_group_IT_number 65
_symmetry_cell_setting 'orthorhombic'
loop_
_space_group_symop_operation_xyz
x,y,z
-x,-y,z
x,-y,-z
-x,y,-z
-x,-y,-z
x,y,-z
-x,y,z
x,-y,z
1/2+x,1/2+y,z
1/2-x,1/2-y,z
1/2+x,1/2-y,-z
1/2-x,1/2+y,-z
1/2-x,1/2-y,-z
1/2+x,1/2+y,-z
1/2-x,1/2+y,z
1/2+x,1/2-y,z
loop_
_atom_site_type_symbol
_atom_site_label
_atom_site_fract_x
_atom_site_fract_y
_atom_site_fract_z
Si Si1 0.752595 0.418482 0.334251
Si Si2 0.351991 0.578285 0.171054
Si Si3 0.937759 0.325071 0.670317
Si Si4 0.560824 0.687440 0.829863
Si Si5 0.857206 0.580885 0.169636
O O1 0.755283 0.390253 0.500000
O O2 0.752837 0.500000 0.330581
O O3 0.698600 0.391790 0.258584
O O4 0.803468 0.390662 0.245233
O O5 0.364505 0.500000 0.215817
O O6 0.403571 0.622347 0.213792
O O7 0.338080 0.583755 0.000000
O O8 0.922568 0.327153 0.500000
O O9 0.920054 0.251891 0.734644
O O10 0.907977 0.385648 0.753858
O O11 0.000000 0.337260 0.697215
O O12 0.500000 0.667500 0.793621
O O13 0.567753 0.707065 0.000000
O O14 0.862816 0.500000 0.190607
O O15 0.855344 0.601921 0.000000
#
# Coordination Sequence:
#
# PCOD8271315 Si02
#       5
#    16  16  16  16  16
#     4   9  17  30  49  73 102 134 165 200 246 297
#     4   9  17  30  50  76 104 133 167 207 249 294
#     4  10  21  36  53  73 100 134 168 204 248 296
#     4   9  18  33  52  73 100 135 171 207 249 296
#     4  10  20  34  54  78 102 129 163 204 248 295
#
# _framework density 17.943947000000001
#
# number of rings (size 3 to 8) (size 9 to 14) (size 15 to 20)
#    0.000    2.600    0.000    1.800    0.000    6.400 
#    0.000    5.000    0.000    6.000    0.000    5.600 
#    0.000    0.000    0.000    0.000    0.000    0.000 
#
# Total GULP energy -496090.675311 kJ/mol
# GULP energy per Si atom -12402.266883 kJ/mol
# Density = 1.790311 g / cm^3
# Si number density = 17.943947 Si / 1000 Ang^3
#
#
#
# Elastic Constant Matrix: (Units=GPa)
#
#
# Indices 1 2 3 4 5 6 
#
# 1 107.3770 53.9605 67.9743 0.0000 0.0000 0.0000
# 2 53.9605 59.0509 50.8467 0.0000 0.0000 0.0000
# 3 67.9743 50.8467 119.8667 0.0000 0.0000 0.0000
# 4 0.0000 0.0000 0.0000 22.9857 0.0000 0.0000
# 5 0.0000 0.0000 0.0000 0.0000 31.7504 0.0000
# 6 0.0000 0.0000 0.0000 0.0000 0.0000 12.1380
#
#
#
# Elastic Compliance Matrix: (Units=1/GPa)
#
#
# Indices 1 2 3 4 5 6 
#
# 1 0.019236 -0.012895 -0.005438 0.000000 0.000000 0.000000
# 2 -0.012895 0.035324 -0.007672 0.000000 0.000000 0.000000
# 3 -0.005438 -0.007672 0.014681 0.000000 0.000000 0.000000
# 4 0.000000 0.000000 0.000000 0.043505 0.000000 0.000000
# 5 0.000000 0.000000 0.000000 0.000000 0.031496 0.000000
# 6 0.000000 0.000000 0.000000 0.000000 0.000000 0.082386
#
#
# Mechanical properties :
#
#
# Convention : Reuss Voigt Hill
#
# Bulk Modulus (GPa) = 58.03626 70.20640 64.12133
# Shear Modulus (GPa) = 17.58210 20.94236 19.26223
#
# Velocity S-wave (km/s) = 3.13363 3.41999 3.27993
# Velocity P-wave (km/s) = 6.74582 7.40307 7.08207
#
# Compressibility (1/GPa) = 0.01723061
#
# Stress axis : x y z
#
# Youngs Moduli (GPa) = 51.98636 28.30972 68.11591
#
# Poissons Ratio (x) = 0.36505 0.37044
# Poissons Ratio (y) = 0.67036 0.52256
# Poissons Ratio (z) = 0.28272 0.21718
#
# Static dielectric constant tensor:
#      x y z
#    x 3.406690 0.000000 0.000000 
#    y 0.000000 3.091490 0.000000 
#    z 0.000000 0.000000 3.464020 
# 
# 
# High freq. dielectric constant tensor:
#      x y z
#    x 1.701090 0.000000 0.000000 
#    y 0.000000 1.668280 0.000000 
#    z 0.000000 0.000000 1.703310 
# 
# From -- ./inp_files/9585.got.cif
#   From: 2010.03.12/outbox.cif.g09.slc.cpg/sg65_5_cif.got.tgz:9585.got - 2010.04.10 20:52:16.
