data_PCOD8271722
_publ_section_title
;
Structure prediction by ZEFSAII (Michael W. Deem and Ramdas Pophale) SiO2 
 PCOD8271722
Probable space group: C M M M
;
_chemical_formula_sum "Si O2"
_cell_formula_units_Z 64
_cell_length_a 8.755146
_cell_length_b 18.401295
_cell_length_c 21.209455
_cell_angle_alpha 90.000000
_cell_angle_beta 90.000000
_cell_angle_gamma 90.000000
_cell_volume 3416.970973
_symmetry_space_group_name_H-M "C M M M"
_symmetry_group_IT_number 65
_symmetry_cell_setting 'orthorhombic'
loop_
_space_group_symop_operation_xyz
x,y,z
-x,-y,z
x,-y,-z
-x,y,-z
-x,-y,-z
x,y,-z
-x,y,z
x,-y,z
1/2+x,1/2+y,z
1/2-x,1/2-y,z
1/2+x,1/2-y,-z
1/2-x,1/2+y,-z
1/2-x,1/2-y,-z
1/2+x,1/2+y,-z
1/2-x,1/2+y,z
1/2+x,1/2-y,z
loop_
_atom_site_type_symbol
_atom_site_label
_atom_site_fract_x
_atom_site_fract_y
_atom_site_fract_z
Si Si1 0.672345 0.913585 0.000000
Si Si2 0.819638 0.829859 0.365310
Si Si3 0.820236 0.670407 0.240357
Si Si4 0.325514 0.586145 0.872058
Si Si5 0.322023 0.328268 0.500000
O O1 0.760885 0.884761 0.938522
O O2 0.500000 0.882816 0.000000
O O3 0.670691 0.000000 0.000000
O O4 0.750000 0.750000 0.368048
O O5 0.742263 0.868291 0.304833
O O6 0.780087 0.868894 0.433429
O O7 0.000000 0.826712 0.353781
O O8 0.750000 0.750000 0.230893
O O9 0.776061 0.619483 0.182790
O O10 0.000000 0.677800 0.244557
O O11 0.500000 0.611989 0.865338
O O12 0.311644 0.500000 0.867902
O O13 0.500000 0.313418 0.500000
O O14 0.250000 0.250000 0.500000
#
# Coordination Sequence:
#
# PCOD8271722 Si02
#       5
#     8  16  16  16   8
#     4   9  17  31  52  77 102 127 158 197 239 283
#     4   9  15  25  40  61  90 123 159 197 240 286
#     4  11  21  33  49  71 101 134 166 201 245 292
#     4  10  20  35  55  77 100 128 163 201 241 287
#     4   8  14  22  36  58  85 118 155 196 237 281
#
# _framework density 18.730039000000001
#
# number of rings (size 3 to 8) (size 9 to 14) (size 15 to 20)
#    0.000    2.375    0.000    5.625    0.000    4.000 
#    0.000    0.625    0.000    0.000    0.000    0.875 
#    0.000    7.000    0.000    0.000    0.000    0.000 
#
# Total GULP energy -396424.200003 kJ/mol
# GULP energy per Si atom -12388.256250 kJ/mol
# Density = 1.868741 g / cm^3
# Si number density = 18.730039 Si / 1000 Ang^3
#
#
#
# Elastic Constant Matrix: (Units=GPa)
#
#
# Indices 1 2 3 4 5 6 
#
# 1 132.9236 17.7974 66.6157 0.0000 0.0000 0.0000
# 2 17.7974 13.9180 24.0874 0.0000 0.0000 0.0000
# 3 66.6157 24.0874 204.9884 0.0000 0.0000 0.0000
# 4 0.0000 0.0000 0.0000 -51.7464 0.0000 0.0000
# 5 0.0000 0.0000 0.0000 0.0000 31.8820 0.0000
# 6 0.0000 0.0000 0.0000 0.0000 0.0000 18.4642
#
#
#
# Elastic Compliance Matrix: (Units=1/GPa)
#
#
# Indices 1 2 3 4 5 6 
#
# 1 0.009774 -0.008789 -0.002144 0.000000 0.000000 0.000000
# 2 -0.008789 0.098093 -0.008670 0.000000 0.000000 0.000000
# 3 -0.002144 -0.008670 0.006594 0.000000 0.000000 0.000000
# 4 0.000000 0.000000 0.000000 -0.019325 0.000000 0.000000
# 5 0.000000 0.000000 0.000000 0.000000 0.031366 0.000000
# 6 0.000000 0.000000 0.000000 0.000000 0.000000 0.054159
#
#
# Mechanical properties :
#
#
# Convention : Reuss Voigt Hill
#
# Bulk Modulus (GPa) = 13.28803 63.20343 38.24573
# Shear Modulus (GPa) = 20.41222 15.94193 18.17707
#
# Velocity S-wave (km/s) = 3.30481 2.92060 3.11863
# Velocity P-wave (km/s) = 4.65535 6.72242 5.78200
#
# Compressibility (1/GPa) = 0.07525571
#
# Stress axis : x y z
#
# Youngs Moduli (GPa) = 102.31082 10.19438 151.65817
#
# Poissons Ratio (x) = 0.08959 0.32510
# Poissons Ratio (y) = 0.89917 1.31495
# Poissons Ratio (z) = 0.21932 0.08839
#
# Static dielectric constant tensor:
#      x y z
#    x 3.322570 0.000000 0.000000 
#    y 0.000000 2.739390 0.000000 
#    z 0.000000 0.000000 4.551160 
# 
# 
# High freq. dielectric constant tensor:
#      x y z
#    x 1.745510 0.000000 0.000000 
#    y 0.000000 1.644420 0.000000 
#    z 0.000000 0.000000 1.766160 
# 
# From -- ./inp_files/58882.got.cif
#   From: 2010.03.12/outbox.cif.g09.slc.cpg/sg65_30_cif.got.tgz:58882.got - 2010.04.10 20:52:16.
