data_PCOD8271827
_publ_section_title
;
Structure prediction by ZEFSAII (Michael W. Deem and Ramdas Pophale) SiO2 
 PCOD8271827
Probable space group: C M M M
;
_chemical_formula_sum "Si O2"
_cell_formula_units_Z 104
_cell_length_a 31.832342
_cell_length_b 19.990632
_cell_length_c 9.045178
_cell_angle_alpha 90.000000
_cell_angle_beta 90.000000
_cell_angle_gamma 90.000000
_cell_volume 5755.886670
_symmetry_space_group_name_H-M "C M M M"
_symmetry_group_IT_number 65
_symmetry_cell_setting 'orthorhombic'
loop_
_space_group_symop_operation_xyz
x,y,z
-x,-y,z
x,-y,-z
-x,y,-z
-x,-y,-z
x,y,-z
-x,y,z
x,-y,z
1/2+x,1/2+y,z
1/2-x,1/2-y,z
1/2+x,1/2-y,-z
1/2-x,1/2+y,-z
1/2-x,1/2-y,-z
1/2+x,1/2+y,-z
1/2-x,1/2+y,z
1/2+x,1/2-y,z
loop_
_atom_site_type_symbol
_atom_site_label
_atom_site_fract_x
_atom_site_fract_y
_atom_site_fract_z
Si Si1 0.275162 0.425555 0.325673
Si Si2 0.951149 0.000000 0.662668
Si Si3 0.335104 0.324466 0.165001
Si Si4 0.127244 0.686608 0.175268
Si Si5 0.047344 0.263146 0.327736
Si Si6 0.320835 0.077126 0.331060
Si Si7 0.428468 0.631529 0.833009
O O1 0.279977 0.424979 0.500000
O O2 0.288607 0.500000 0.267085
O O3 0.302495 0.365162 0.263280
O O4 0.227089 0.412070 0.280666
O O5 0.938018 0.062985 0.755794
O O6 0.929284 0.000000 0.500000
O O7 0.000000 0.000000 0.637948
O O8 0.343787 0.249466 0.227022
O O9 0.378598 0.363258 0.165441
O O10 0.316298 0.320413 0.000000
O O11 0.081081 0.688814 0.248713
O O12 0.149415 0.618614 0.222905
O O13 0.120695 0.689763 0.000000
O O14 0.058625 0.258248 0.500000
O O15 0.049298 0.189668 0.258568
O O16 0.000000 0.291527 0.304949
O O17 0.327139 0.100950 0.500000
O O18 0.333704 0.000000 0.314802
O O19 0.446232 0.632766 0.000000
#
# Coordination Sequence:
#
# PCOD8271827 Si02
#       7
#    16   8  16  16  16  16  16
#     4   9  19  34  52  76 104 139 183 224 264 313
#     4  11  23  35  47  67  95 131 179 229 275 323
#     4   9  20  35  49  72 105 139 175 218 266 313
#     4  10  21  36  55  81 110 140 177 216 261 318
#     4  10  20  35  56  80 105 135 173 215 261 315
#     4   9  19  37  58  80 108 139 173 215 264 318
#     4  10  21  35  50  71 101 137 176 221 273 321
#
# _framework density 18.068456999999999
#
# number of rings (size 3 to 8) (size 9 to 14) (size 15 to 20)
#    0.000    2.385    0.000    3.923    1.077    9.231 
#    0.000    4.615    0.000    0.462    0.000    3.231 
#    0.000    0.000    0.000    0.000    0.000    0.000 
#
# Total GULP energy -644707.422335 kJ/mol
# GULP energy per Si atom -12398.219660 kJ/mol
# Density = 1.802733 g / cm^3
# Si number density = 18.068457 Si / 1000 Ang^3
#
#
#
# Elastic Constant Matrix: (Units=GPa)
#
#
# Indices 1 2 3 4 5 6 
#
# 1 86.4024 54.5024 50.2746 0.0000 0.0000 0.0000
# 2 54.5024 83.1778 41.2743 0.0000 0.0000 0.0000
# 3 50.2746 41.2743 96.1006 0.0000 0.0000 0.0000
# 4 0.0000 0.0000 0.0000 31.7870 0.0000 0.0000
# 5 0.0000 0.0000 0.0000 0.0000 -10.9203 0.0000
# 6 0.0000 0.0000 0.0000 0.0000 0.0000 14.7310
#
#
#
# Elastic Compliance Matrix: (Units=1/GPa)
#
#
# Indices 1 2 3 4 5 6 
#
# 1 0.022960 -0.011545 -0.007053 0.000000 0.000000 0.000000
# 2 -0.011545 0.021084 -0.003016 0.000000 0.000000 0.000000
# 3 -0.007053 -0.003016 0.015391 0.000000 0.000000 0.000000
# 4 0.000000 0.000000 0.000000 0.031459 0.000000 0.000000
# 5 0.000000 0.000000 0.000000 0.000000 -0.091572 0.000000
# 6 0.000000 0.000000 0.000000 0.000000 0.000000 0.067884
#
#
# Mechanical properties :
#
#
# Convention : Reuss Voigt Hill
#
# Bulk Modulus (GPa) = 61.70000 61.97593 61.83797
# Shear Modulus (GPa) = 43.16473 15.09482 29.12978
#
# Velocity S-wave (km/s) = 4.89300 2.89351 4.01956
# Velocity P-wave (km/s) = 8.13289 6.74820 7.47269
#
# Compressibility (1/GPa) = 0.01620746
#
# Stress axis : x y z
#
# Youngs Moduli (GPa) = 43.55376 47.43027 64.97423
#
# Poissons Ratio (x) = 0.54757 0.45827
# Poissons Ratio (y) = 0.50282 0.19594
# Poissons Ratio (z) = 0.30719 0.14303
#
# Static dielectric constant tensor:
#      x y z
#    x 3.309980 0.000000 0.000000 
#    y 0.000000 3.184300 0.000000 
#    z 0.000000 0.000000 3.462960 
# 
# 
# High freq. dielectric constant tensor:
#      x y z
#    x 1.696280 0.000000 0.000000 
#    y 0.000000 1.688190 0.000000 
#    z 0.000000 0.000000 1.707520 
# 
# From -- ./inp_files/16496.got.cif
#   From: 2010.03.12/outbox.cif.g09.slc.cpg/sg65_9_cif.got.tgz:16496.got - 2010.04.10 20:52:16.
