data_PCOD8271233
_publ_section_title
;
Structure prediction by ZEFSAII (Michael W. Deem and Ramdas Pophale) SiO2 
 PCOD8271233
Probable space group: C M M M
;
_chemical_formula_sum "Si O2"
_cell_formula_units_Z 96
_cell_length_a 28.413152
_cell_length_b 20.024468
_cell_length_c 9.433688
_cell_angle_alpha 90.000000
_cell_angle_beta 90.000000
_cell_angle_gamma 90.000000
_cell_volume 5367.374644
_symmetry_space_group_name_H-M "C M M M"
_symmetry_group_IT_number 65
_symmetry_cell_setting 'orthorhombic'
loop_
_space_group_symop_operation_xyz
x,y,z
-x,-y,z
x,-y,-z
-x,y,-z
-x,-y,-z
x,y,-z
-x,y,z
x,-y,z
1/2+x,1/2+y,z
1/2-x,1/2-y,z
1/2+x,1/2-y,-z
1/2-x,1/2+y,-z
1/2-x,1/2-y,-z
1/2+x,1/2+y,-z
1/2-x,1/2+y,z
1/2+x,1/2-y,z
loop_
_atom_site_type_symbol
_atom_site_label
_atom_site_fract_x
_atom_site_fract_y
_atom_site_fract_z
Si Si1 0.053139 0.321602 0.168158
Si Si2 0.208710 0.654663 0.662742
Si Si3 0.554984 0.573114 0.655164
Si Si4 0.867505 0.422938 0.166761
Si Si5 0.811340 0.192231 0.337015
Si Si6 0.098122 0.183061 0.167493
O O1 0.086223 0.382653 0.219755
O O2 0.076509 0.252974 0.223271
O O3 0.000000 0.329772 0.230377
O O4 0.050125 0.320396 0.000000
O O5 0.198023 0.636768 0.500000
O O6 0.179706 0.603916 0.759827
O O7 0.194848 0.730085 0.697396
O O8 0.264428 0.649120 0.694813
O O9 0.574208 0.597345 0.500000
O O10 0.500000 0.565572 0.644442
O O11 0.576814 0.500000 0.690529
O O12 0.564833 0.624022 0.781555
O O13 0.875230 0.500000 0.207371
O O14 0.860419 0.413035 0.000000
O O15 0.826048 0.182753 0.500000
O O16 0.851469 0.166101 0.233899
O O17 0.102531 0.183019 0.000000
#
# Coordination Sequence:
#
# PCOD8271233 Si02
#       6
#    16  16  16  16  16  16
#     4   9  18  32  49  74 108 141 177 219 262 310
#     4   9  18  34  55  77 101 132 172 217 262 313
#     4   9  19  36  55  74 101 140 180 215 258 316
#     4  10  20  34  53  77 107 143 182 223 267 316
#     4   9  18  33  54  78 103 133 171 213 260 318
#     4  11  20  31  52  82 111 140 171 218 271 312
#
# _framework density 17.885840000000002
#
# number of rings (size 3 to 8) (size 9 to 14) (size 15 to 20)
#    0.000    2.500    1.667    2.500    0.000    2.667 
#    0.000    5.000    0.000    2.500    0.000    1.167 
#    0.000    0.000    0.000    0.000    0.000    0.000 
#
# Total GULP energy -594997.891241 kJ/mol
# GULP energy per Si atom -12395.789401 kJ/mol
# Density = 1.784513 g / cm^3
# Si number density = 17.885840 Si / 1000 Ang^3
#
#
#
# Elastic Constant Matrix: (Units=GPa)
#
#
# Indices 1 2 3 4 5 6 
#
# 1 107.3334 57.1176 40.2760 0.0000 0.0000 0.0000
# 2 57.1176 116.0618 43.9430 0.0000 0.0000 0.0000
# 3 40.2760 43.9430 57.3038 0.0000 0.0000 0.0000
# 4 0.0000 0.0000 0.0000 27.8849 0.0000 0.0000
# 5 0.0000 0.0000 0.0000 0.0000 27.2328 0.0000
# 6 0.0000 0.0000 0.0000 0.0000 0.0000 27.1825
#
#
#
# Elastic Compliance Matrix: (Units=1/GPa)
#
#
# Indices 1 2 3 4 5 6 
#
# 1 0.014150 -0.004507 -0.006490 0.000000 0.000000 0.000000
# 2 -0.004507 0.013576 -0.007243 0.000000 0.000000 0.000000
# 3 -0.006490 -0.007243 0.027567 0.000000 0.000000 0.000000
# 4 0.000000 0.000000 0.000000 0.035862 0.000000 0.000000
# 5 0.000000 0.000000 0.000000 0.000000 0.036720 0.000000
# 6 0.000000 0.000000 0.000000 0.000000 0.000000 0.036788
#
#
# Mechanical properties :
#
#
# Convention : Reuss Voigt Hill
#
# Bulk Modulus (GPa) = 53.15231 62.59691 57.87461
# Shear Modulus (GPa) = 24.10632 25.75086 24.92859
#
# Velocity S-wave (km/s) = 3.67521 3.79850 3.73736
# Velocity P-wave (km/s) = 6.91314 7.36968 7.14506
#
# Compressibility (1/GPa) = 0.01881386
#
# Stress axis : x y z
#
# Youngs Moduli (GPa) = 70.67065 73.65678 36.27577
#
# Poissons Ratio (x) = 0.33195 0.23541
# Poissons Ratio (y) = 0.31849 0.26276
# Poissons Ratio (z) = 0.45862 0.53353
#
# Static dielectric constant tensor:
#      x y z
#    x 3.579380 0.000000 0.000000 
#    y 0.000000 3.380590 0.000000 
#    z 0.000000 0.000000 3.114640 
# 
# 
# High freq. dielectric constant tensor:
#      x y z
#    x 1.696430 0.000000 0.000000 
#    y 0.000000 1.682840 0.000000 
#    z 0.000000 0.000000 1.673200 
# 
# From -- ./inp_files/12265.got.cif
#   From: 2010.03.12/outbox.cif.g09.slc.cpg/sg65_7_cif.got.tgz:12265.got - 2010.04.10 20:52:16.
