data_PCOD8271066
_publ_section_title
;
Structure prediction by ZEFSAII (Michael W. Deem and Ramdas Pophale) SiO2 
 PCOD8271066
Probable space group: C M M M
;
_chemical_formula_sum "Si O2"
_cell_formula_units_Z 104
_cell_length_a 9.006863
_cell_length_b 20.833167
_cell_length_c 29.587756
_cell_angle_alpha 90.000000
_cell_angle_beta 90.000000
_cell_angle_gamma 90.000000
_cell_volume 5551.890356
_symmetry_space_group_name_H-M "C M M M"
_symmetry_group_IT_number 65
_symmetry_cell_setting 'orthorhombic'
loop_
_space_group_symop_operation_xyz
x,y,z
-x,-y,z
x,-y,-z
-x,y,-z
-x,-y,-z
x,y,-z
-x,y,z
x,-y,z
1/2+x,1/2+y,z
1/2-x,1/2-y,z
1/2+x,1/2-y,-z
1/2-x,1/2+y,-z
1/2-x,1/2-y,-z
1/2+x,1/2+y,-z
1/2-x,1/2+y,z
1/2+x,1/2-y,z
loop_
_atom_site_type_symbol
_atom_site_label
_atom_site_fract_x
_atom_site_fract_y
_atom_site_fract_z
Si Si1 0.163597 0.500000 0.446630
Si Si2 0.173973 0.427162 0.202041
Si Si3 0.174678 0.874254 0.448782
Si Si4 0.674530 0.573520 0.107310
Si Si5 0.328809 0.181453 0.729025
Si Si6 0.829230 0.685113 0.053467
Si Si7 0.670020 0.811712 0.631441
O O1 0.150854 0.500000 0.500000
O O2 0.253109 0.560953 0.430061
O O3 0.000000 0.500000 0.424341
O O4 0.206246 0.500000 0.219326
O O5 0.264594 0.412613 0.157025
O O6 0.231161 0.374797 0.238378
O O7 0.000000 0.418586 0.191984
O O8 0.226649 0.857267 0.500000
O O9 0.232610 0.823943 0.413105
O O10 0.000000 0.881322 0.447255
O O11 0.500000 0.586587 0.106845
O O12 0.710387 0.500000 0.092917
O O13 0.752232 0.621633 0.072723
O O14 0.500000 0.196492 0.738529
O O15 0.250000 0.250000 0.737581
O O16 0.315953 0.148457 0.678163
O O17 0.750000 0.750000 0.071451
O O18 0.000000 0.687314 0.069134
O O19 0.814457 0.680741 0.000000
O O20 0.500000 0.804281 0.615340
O O21 0.750000 0.750000 0.651127
#
# Coordination Sequence:
#
# PCOD8271066 Si02
#       7
#     8  16  16  16  16  16  16
#     4   9  17  31  51  73  97 127 163 203 245 291
#     4   9  18  35  57  79 107 141 179 224 273 324
#     4  10  20  34  52  74 102 135 169 208 255 306
#     4  10  21  36  55  81 113 148 186 229 277 327
#     4   9  19  35  55  79 104 137 176 216 268 322
#     4  10  21  37  57  81 111 148 190 235 281 329
#     4  10  20  35  53  75 102 133 170 212 259 311
#
# _framework density 18.732358999999999
#
# number of rings (size 3 to 8) (size 9 to 14) (size 15 to 20)
#    0.000    2.385    0.000    2.077    0.000    6.154 
#    1.385    3.077    0.000    0.000    0.000    0.000 
#    0.000    0.000    0.000    0.000    0.000    0.000 
#
# Total GULP energy -644220.264832 kJ/mol
# GULP energy per Si atom -12388.851247 kJ/mol
# Density = 1.868972 g / cm^3
# Si number density = 18.732359 Si / 1000 Ang^3
#
#
#
# Elastic Constant Matrix: (Units=GPa)
#
#
# Indices 1 2 3 4 5 6 
#
# 1 99.1422 45.8381 42.5371 0.0000 0.0000 0.0000
# 2 45.8381 101.1503 49.4671 0.0000 0.0000 0.0000
# 3 42.5371 49.4671 66.6763 0.0000 0.0000 0.0000
# 4 0.0000 0.0000 0.0000 24.9808 0.0000 0.0000
# 5 0.0000 0.0000 0.0000 0.0000 25.4239 0.0000
# 6 0.0000 0.0000 0.0000 0.0000 0.0000 37.7170
#
#
#
# Elastic Compliance Matrix: (Units=1/GPa)
#
#
# Indices 1 2 3 4 5 6 
#
# 1 0.014526 -0.003218 -0.006879 0.000000 0.000000 0.000000
# 2 -0.003218 0.016229 -0.009987 0.000000 0.000000 0.000000
# 3 -0.006879 -0.009987 0.026796 0.000000 0.000000 0.000000
# 4 0.000000 0.000000 0.000000 0.040031 0.000000 0.000000
# 5 0.000000 0.000000 0.000000 0.000000 0.039333 0.000000
# 6 0.000000 0.000000 0.000000 0.000000 0.000000 0.026513
#
#
# Mechanical properties :
#
#
# Convention : Reuss Voigt Hill
#
# Bulk Modulus (GPa) = 57.53277 60.29483 58.91380
# Shear Modulus (GPa) = 23.87872 26.23276 25.05574
#
# Velocity S-wave (km/s) = 3.57421 3.74625 3.66124
# Velocity P-wave (km/s) = 6.91470 7.13932 7.02791
#
# Compressibility (1/GPa) = 0.01738140
#
# Stress axis : x y z
#
# Youngs Moduli (GPa) = 68.84120 61.61873 37.31913
#
# Poissons Ratio (x) = 0.19832 0.25673
# Poissons Ratio (y) = 0.22156 0.37270
# Poissons Ratio (z) = 0.47359 0.61538
#
# Static dielectric constant tensor:
#      x y z
#    x 3.532870 0.000000 0.000000 
#    y 0.000000 3.537730 0.000000 
#    z 0.000000 0.000000 3.370000 
# 
# 
# High freq. dielectric constant tensor:
#      x y z
#    x 1.736540 0.000000 0.000000 
#    y 0.000000 1.722950 0.000000 
#    z 0.000000 0.000000 1.723160 
# 
# From -- ./inp_files/73339.got.cif
#   From: 2010.03.12/outbox.cif.g09.slc.cpg/sg65_37_cif.got.tgz:73339.got - 2010.04.10 20:52:16.
