data_PCOD8271491
_publ_section_title
;
Structure prediction by ZEFSAII (Michael W. Deem and Ramdas Pophale) SiO2 
 PCOD8271491
Probable space group: C M M M
;
_chemical_formula_sum "Si O2"
_cell_formula_units_Z 96
_cell_length_a 25.530233
_cell_length_b 17.872477
_cell_length_c 11.710880
_cell_angle_alpha 90.000000
_cell_angle_beta 90.000000
_cell_angle_gamma 90.000000
_cell_volume 5343.539893
_symmetry_space_group_name_H-M "C M M M"
_symmetry_group_IT_number 65
_symmetry_cell_setting 'orthorhombic'
loop_
_space_group_symop_operation_xyz
x,y,z
-x,-y,z
x,-y,-z
-x,y,-z
-x,-y,-z
x,y,-z
-x,y,z
x,-y,z
1/2+x,1/2+y,z
1/2-x,1/2-y,z
1/2+x,1/2-y,-z
1/2-x,1/2+y,-z
1/2-x,1/2-y,-z
1/2+x,1/2+y,-z
1/2-x,1/2+y,z
1/2+x,1/2-y,z
loop_
_atom_site_type_symbol
_atom_site_label
_atom_site_fract_x
_atom_site_fract_y
_atom_site_fract_z
Si Si1 0.156565 0.824916 0.134620
Si Si2 0.603484 0.911002 0.500000
Si Si3 0.559392 0.088232 0.738995
Si Si4 0.220240 0.411793 0.500000
Si Si5 0.751442 0.912786 0.254329
Si Si6 0.653243 0.152303 0.866569
Si Si7 0.942088 0.084246 0.135644
O O1 0.205609 0.865430 0.189659
O O2 0.160036 0.738563 0.167621
O O3 0.102340 0.859786 0.183401
O O4 0.160288 0.837448 0.000000
O O5 0.573733 0.881928 0.387375
O O6 0.662000 0.876656 0.500000
O O7 0.603921 0.000000 0.500000
O O8 0.500000 0.110702 0.766772
O O9 0.594903 0.127317 0.834333
O O10 0.568113 0.000000 0.746430
O O11 0.212527 0.500000 0.500000
O O12 0.251677 0.387231 0.386960
O O13 0.694286 0.897900 0.202323
O O14 0.764613 0.000000 0.241015
O O15 0.662470 0.139619 0.000000
O O16 0.000000 0.108729 0.180107
O O17 0.929490 0.000000 0.177862
O O18 0.942107 0.086301 0.000000
#
# Coordination Sequence:
#
# PCOD8271491 Si02
#       7
#    16   8  16   8  16  16  16
#     4  10  21  35  51  75 108 141 173 209 255 314
#     4   9  15  32  56  78 101 128 171 226 273 307
#     4  10  20  34  55  80 103 134 179 223 261 307
#     4   9  18  33  56  80 101 128 167 218 271 317
#     4  11  21  36  57  78 101 132 174 220 263 310
#     4  11  23  36  49  71 109 147 174 208 259 315
#     4   8  14  27  49  75  99 125 164 211 252 293
#
# _framework density 17.965619
#
# number of rings (size 3 to 8) (size 9 to 14) (size 15 to 20)
#    0.000    2.167    1.667    2.750    0.000    6.333 
#    0.000    5.000    0.000    0.000    0.000    0.583 
#    0.000    3.333    0.000    0.000    0.000    0.000 
#
# Total GULP energy -595187.231787 kJ/mol
# GULP energy per Si atom -12399.733996 kJ/mol
# Density = 1.792473 g / cm^3
# Si number density = 17.965619 Si / 1000 Ang^3
#
#
#
# Elastic Constant Matrix: (Units=GPa)
#
#
# Indices 1 2 3 4 5 6 
#
# 1 102.9199 30.0804 17.0887 0.0000 0.0000 0.0000
# 2 30.0804 54.1325 25.5296 0.0000 0.0000 0.0000
# 3 17.0887 25.5296 42.8169 0.0000 0.0000 0.0000
# 4 0.0000 0.0000 0.0000 13.4431 0.0000 0.0000
# 5 0.0000 0.0000 0.0000 0.0000 25.3018 0.0000
# 6 0.0000 0.0000 0.0000 0.0000 0.0000 20.9776
#
#
#
# Elastic Compliance Matrix: (Units=1/GPa)
#
#
# Indices 1 2 3 4 5 6 
#
# 1 0.011637 -0.005949 -0.001097 0.000000 0.000000 0.000000
# 2 -0.005949 0.028741 -0.014763 0.000000 0.000000 0.000000
# 3 -0.001097 -0.014763 0.032595 0.000000 0.000000 0.000000
# 4 0.000000 0.000000 0.000000 0.074387 0.000000 0.000000
# 5 0.000000 0.000000 0.000000 0.000000 0.039523 0.000000
# 6 0.000000 0.000000 0.000000 0.000000 0.000000 0.047670
#
#
# Mechanical properties :
#
#
# Convention : Reuss Voigt Hill
#
# Bulk Modulus (GPa) = 34.06489 38.36296 36.21393
# Shear Modulus (GPa) = 17.36367 20.42254 18.89311
#
# Velocity S-wave (km/s) = 3.11222 3.37524 3.24640
# Velocity P-wave (km/s) = 5.64950 6.04893 5.85263
#
# Compressibility (1/GPa) = 0.02935574
#
# Stress axis : x y z
#
# Youngs Moduli (GPa) = 85.93106 34.79329 30.67909
#
# Poissons Ratio (x) = 0.20699 0.03367
# Poissons Ratio (y) = 0.51121 0.45290
# Poissons Ratio (z) = 0.09431 0.51364
#
# Static dielectric constant tensor:
#      x y z
#    x 3.529770 0.000000 0.000000 
#    y 0.000000 3.210240 0.000000 
#    z 0.000000 0.000000 3.270900 
# 
# 
# High freq. dielectric constant tensor:
#      x y z
#    x 1.707040 0.000000 0.000000 
#    y 0.000000 1.677950 0.000000 
#    z 0.000000 0.000000 1.675410 
# 
# From -- ./inp_files/30856.got.cif
#   From: 2010.03.12/outbox.cif.g09.slc.cpg/sg65_16_cif.got.tgz:30856.got - 2010.04.10 20:52:16.
