data_PCOD8271408
_publ_section_title
;
Structure prediction by ZEFSAII (Michael W. Deem and Ramdas Pophale) SiO2 
 PCOD8271408
Probable space group: C M M M
;
_chemical_formula_sum "Si O2"
_cell_formula_units_Z 96
_cell_length_a 18.727329
_cell_length_b 9.043401
_cell_length_c 30.307754
_cell_angle_alpha 90.000000
_cell_angle_beta 90.000000
_cell_angle_gamma 90.000000
_cell_volume 5132.883206
_symmetry_space_group_name_H-M "C M M M"
_symmetry_group_IT_number 65
_symmetry_cell_setting 'orthorhombic'
loop_
_space_group_symop_operation_xyz
x,y,z
-x,-y,z
x,-y,-z
-x,y,-z
-x,-y,-z
x,y,-z
-x,y,z
x,-y,z
1/2+x,1/2+y,z
1/2-x,1/2-y,z
1/2+x,1/2-y,-z
1/2-x,1/2+y,-z
1/2-x,1/2-y,-z
1/2+x,1/2+y,-z
1/2-x,1/2+y,z
1/2+x,1/2-y,z
loop_
_atom_site_type_symbol
_atom_site_label
_atom_site_fract_x
_atom_site_fract_y
_atom_site_fract_z
Si Si1 0.677072 0.827444 0.551110
Si Si2 0.415016 0.166874 0.293275
Si Si3 0.918330 0.669836 0.051215
Si Si4 0.082084 0.827402 0.794020
Si Si5 0.084691 0.831688 0.379774
Si Si6 0.825911 0.825789 0.121975
O O1 0.660895 0.796414 0.500000
O O2 0.750000 0.750000 0.566100
O O3 0.612361 0.757936 0.578220
O O4 0.683271 0.000000 0.561380
O O5 0.500000 0.170587 0.293730
O O6 0.387125 0.240922 0.248267
O O7 0.385231 0.257841 0.335007
O O8 0.385798 0.000000 0.295985
O O9 0.904859 0.500000 0.064604
O O10 0.865840 0.774968 0.077956
O O11 0.000000 0.714109 0.061395
O O12 0.901189 0.693840 0.000000
O O13 0.127362 0.777250 0.836081
O O14 0.000000 0.785009 0.803514
O O15 0.089900 0.000000 0.783961
O O16 0.000000 0.823608 0.381133
O O17 0.111920 0.000000 0.381562
O O18 0.750000 0.750000 0.125928
O O19 0.815163 0.000000 0.119715
#
# Coordination Sequence:
#
# PCOD8271408 Si02
#       6
#    16  16  16  16  16  16
#     4  10  21  37  56  77 104 139 178 220 265 316
#     4   9  17  30  51  79 107 135 171 216 265 316
#     4   9  19  37  60  84 109 138 175 220 267 316
#     4   9  18  34  55  77 102 134 174 218 264 316
#     4  10  20  34  54  80 110 142 176 218 266 314
#     4  11  23  37  54  78 110 146 181 220 266 315
#
# _framework density 18.702939000000001
#
# number of rings (size 3 to 8) (size 9 to 14) (size 15 to 20)
#    0.000    2.333    0.000    3.000    0.000    7.333 
#    0.000    5.000    0.000    2.000    0.000    0.000 
#    0.000    0.000    0.000    0.000    0.000    0.000 
#
# Total GULP energy -595353.748199 kJ/mol
# GULP energy per Si atom -12403.203087 kJ/mol
# Density = 1.866037 g / cm^3
# Si number density = 18.702939 Si / 1000 Ang^3
#
#
#
# Elastic Constant Matrix: (Units=GPa)
#
#
# Indices 1 2 3 4 5 6 
#
# 1 70.4688 47.3331 54.3881 0.0000 0.0000 0.0000
# 2 47.3331 115.3827 70.4090 0.0000 0.0000 0.0000
# 3 54.3881 70.4090 119.5865 0.0000 0.0000 0.0000
# 4 0.0000 0.0000 0.0000 37.6562 0.0000 0.0000
# 5 0.0000 0.0000 0.0000 0.0000 7.2814 0.0000
# 6 0.0000 0.0000 0.0000 0.0000 0.0000 16.3069
#
#
#
# Elastic Compliance Matrix: (Units=1/GPa)
#
#
# Indices 1 2 3 4 5 6 
#
# 1 0.023495 -0.004866 -0.007821 0.000000 0.000000 0.000000
# 2 -0.004866 0.014534 -0.006344 0.000000 0.000000 0.000000
# 3 -0.007821 -0.006344 0.015654 0.000000 0.000000 0.000000
# 4 0.000000 0.000000 0.000000 0.026556 0.000000 0.000000
# 5 0.000000 0.000000 0.000000 0.000000 0.137337 0.000000
# 6 0.000000 0.000000 0.000000 0.000000 0.000000 0.061324
#
#
# Mechanical properties :
#
#
# Convention : Reuss Voigt Hill
#
# Bulk Modulus (GPa) = 64.01286 72.18873 68.10079
# Shear Modulus (GPa) = 15.51977 21.13609 18.32793
#
# Velocity S-wave (km/s) = 2.88376 3.36533 3.13381
# Velocity P-wave (km/s) = 6.73710 7.33362 7.04168
#
# Compressibility (1/GPa) = 0.01562186
#
# Stress axis : x y z
#
# Youngs Moduli (GPa) = 42.56199 68.80196 63.87984
#
# Poissons Ratio (x) = 0.33479 0.49958
# Poissons Ratio (y) = 0.20711 0.40528
# Poissons Ratio (z) = 0.33286 0.43651
#
# Static dielectric constant tensor:
#      x y z
#    x 3.200920 0.000000 0.000000 
#    y 0.000000 3.548070 0.000000 
#    z 0.000000 0.000000 3.513270 
# 
# 
# High freq. dielectric constant tensor:
#      x y z
#    x 1.701980 0.000000 0.000000 
#    y 0.000000 1.736680 0.000000 
#    z 0.000000 0.000000 1.736710 
# 
# From -- ./inp_files/73133.got.cif
#   From: 2010.03.12/outbox.cif.g09.slc.cpg/sg65_37_cif.got.tgz:73133.got - 2010.04.10 20:52:16.
