data_PCOD8271306
_publ_section_title
;
Structure prediction by ZEFSAII (Michael W. Deem and Ramdas Pophale) SiO2 
 PCOD8271306
Probable space group: C M M M
;
_chemical_formula_sum "Si O2"
_cell_formula_units_Z 120
_cell_length_a 27.966892
_cell_length_b 8.814192
_cell_length_c 28.520544
_cell_angle_alpha 90.000000
_cell_angle_beta 90.000000
_cell_angle_gamma 90.000000
_cell_volume 7030.472548
_symmetry_space_group_name_H-M "C M M M"
_symmetry_group_IT_number 65
_symmetry_cell_setting 'orthorhombic'
loop_
_space_group_symop_operation_xyz
x,y,z
-x,-y,z
x,-y,-z
-x,y,-z
-x,-y,-z
x,y,-z
-x,y,z
x,-y,z
1/2+x,1/2+y,z
1/2-x,1/2-y,z
1/2+x,1/2-y,-z
1/2-x,1/2+y,-z
1/2-x,1/2-y,-z
1/2+x,1/2+y,-z
1/2-x,1/2+y,z
1/2+x,1/2-y,z
loop_
_atom_site_type_symbol
_atom_site_label
_atom_site_fract_x
_atom_site_fract_y
_atom_site_fract_z
Si Si1 0.605627 0.180045 0.237307
Si Si2 0.443554 0.324635 0.500000
Si Si3 0.394079 0.820594 0.411286
Si Si4 0.443651 0.673465 0.323878
Si Si5 0.300173 0.322896 0.272178
Si Si6 0.946272 0.678296 0.143764
Si Si7 0.056769 0.172022 0.050873
Si Si8 0.299959 0.676507 0.618613
O O1 0.570486 0.259401 0.273967
O O2 0.659453 0.239211 0.242243
O O3 0.587231 0.231242 0.186302
O O4 0.603792 0.000000 0.244606
O O5 0.428626 0.500000 0.500000
O O6 0.500000 0.304248 0.500000
O O7 0.423281 0.245545 0.545753
O O8 0.419775 0.774058 0.363614
O O9 0.340490 0.755662 0.412429
O O10 0.392087 0.000000 0.415196
O O11 0.500000 0.681059 0.330016
O O12 0.425063 0.500000 0.328017
O O13 0.299287 0.500000 0.260146
O O14 0.250000 0.250000 0.257577
O O15 0.311170 0.294070 0.326790
O O16 0.949083 0.500000 0.141850
O O17 0.922713 0.734014 0.094837
O O18 0.000000 0.744970 0.150817
O O19 0.000000 0.183296 0.051342
O O20 0.073920 0.000000 0.056952
O O21 0.075183 0.234209 0.000000
O O22 0.298129 0.500000 0.606720
O O23 0.250000 0.750000 0.603954
#
# Coordination Sequence:
#
# PCOD8271306 Si02
#       8
#    16   8  16  16  16  16  16  16
#     4  11  21  33  50  73 104 137 172 212 257 306
#     4  11  25  45  66  85 110 143 177 217 261 303
#     4  12  24  39  61  86 111 139 174 214 259 308
#     4  11  23  37  53  75 104 139 178 215 253 301
#     4  10  20  34  54  77 104 135 171 211 255 306
#     4   9  18  30  43  64  97 136 174 212 256 303
#     4   8  14  25  41  61  86 121 168 217 260 302
#     4  10  20  36  59  85 113 140 172 211 256 308
#
# _framework density 17.068553000000001
#
# number of rings (size 3 to 8) (size 9 to 14) (size 15 to 20)
#    0.000    1.800    1.333    4.200    0.000    6.133 
#    0.000    3.000    0.000    0.000    0.000    0.000 
#    0.000    0.533    0.000    1.733    0.000    2.533 
#
# Total GULP energy -744072.901982 kJ/mol
# GULP energy per Si atom -12401.215033 kJ/mol
# Density = 1.702970 g / cm^3
# Si number density = 17.068553 Si / 1000 Ang^3
#
#
#
# Elastic Constant Matrix: (Units=GPa)
#
#
# Indices 1 2 3 4 5 6 
#
# 1 81.9229 49.5303 35.1450 0.0000 0.0000 0.0000
# 2 49.5303 104.8393 45.1754 0.0000 0.0000 0.0000
# 3 35.1450 45.1754 97.7302 0.0000 0.0000 0.0000
# 4 0.0000 0.0000 0.0000 30.2976 0.0000 0.0000
# 5 0.0000 0.0000 0.0000 0.0000 12.6325 0.0000
# 6 0.0000 0.0000 0.0000 0.0000 0.0000 28.1553
#
#
#
# Elastic Compliance Matrix: (Units=1/GPa)
#
#
# Indices 1 2 3 4 5 6 
#
# 1 0.017829 -0.007068 -0.003144 0.000000 0.000000 0.000000
# 2 -0.007068 0.014713 -0.004259 0.000000 0.000000 0.000000
# 3 -0.003144 -0.004259 0.013332 0.000000 0.000000 0.000000
# 4 0.000000 0.000000 0.000000 0.033006 0.000000 0.000000
# 5 0.000000 0.000000 0.000000 0.000000 0.079161 0.000000
# 6 0.000000 0.000000 0.000000 0.000000 0.000000 0.035517
#
#
# Mechanical properties :
#
#
# Convention : Reuss Voigt Hill
#
# Bulk Modulus (GPa) = 59.06559 60.46597 59.76578
# Shear Modulus (GPa) = 21.91595 24.52653 23.22124
#
# Velocity S-wave (km/s) = 3.58718 3.79482 3.69246
# Velocity P-wave (km/s) = 7.19980 7.39615 7.29864
#
# Compressibility (1/GPa) = 0.01693033
#
# Stress axis : x y z
#
# Youngs Moduli (GPa) = 56.08870 67.96699 75.00880
#
# Poissons Ratio (x) = 0.48041 0.23585
# Poissons Ratio (y) = 0.39645 0.31948
# Poissons Ratio (z) = 0.17636 0.28949
#
# Static dielectric constant tensor:
#      x y z
#    x 3.177260 0.000000 0.000000 
#    y 0.000000 3.321230 0.000000 
#    z 0.000000 0.000000 3.480010 
# 
# 
# High freq. dielectric constant tensor:
#      x y z
#    x 1.643230 0.000000 0.000000 
#    y 0.000000 1.671560 0.000000 
#    z 0.000000 0.000000 1.649830 
# 
# From -- ./inp_files/76105.got.cif
#   From: 2010.03.12/outbox.cif.g09.slc.cpg/sg65_39_cif.got.tgz:76105.got - 2010.04.10 20:52:16.
