data_PCOD8271843
_publ_section_title
;
Structure prediction by ZEFSAII (Michael W. Deem and Ramdas Pophale) SiO2 
 PCOD8271843
Probable space group: C M M M
;
_chemical_formula_sum "Si O2"
_cell_formula_units_Z 104
_cell_length_a 28.526755
_cell_length_b 8.866940
_cell_length_c 22.937976
_cell_angle_alpha 90.000000
_cell_angle_beta 90.000000
_cell_angle_gamma 90.000000
_cell_volume 5802.046912
_symmetry_space_group_name_H-M "C M M M"
_symmetry_group_IT_number 65
_symmetry_cell_setting 'orthorhombic'
loop_
_space_group_symop_operation_xyz
x,y,z
-x,-y,z
x,-y,-z
-x,y,-z
-x,-y,-z
x,y,-z
-x,y,z
x,-y,z
1/2+x,1/2+y,z
1/2-x,1/2-y,z
1/2+x,1/2-y,-z
1/2-x,1/2+y,-z
1/2-x,1/2-y,-z
1/2+x,1/2+y,-z
1/2-x,1/2+y,z
1/2+x,1/2-y,z
loop_
_atom_site_type_symbol
_atom_site_label
_atom_site_fract_x
_atom_site_fract_y
_atom_site_fract_z
Si Si1 0.892538 0.678907 0.107077
Si Si2 0.200933 0.823859 0.068058
Si Si3 0.944940 0.667600 0.670541
Si Si4 0.555573 0.326049 0.000000
Si Si5 0.206119 0.164377 0.568869
Si Si6 0.603335 0.320512 0.434009
Si Si7 0.444848 0.324587 0.212447
O O1 0.890363 0.500000 0.100814
O O2 0.840175 0.745048 0.104440
O O3 0.924803 0.746248 0.056795
O O4 0.915690 0.724120 0.167836
O O5 0.250000 0.750000 0.086887
O O6 0.202590 0.000000 0.082937
O O7 0.190881 0.795191 0.000000
O O8 0.922757 0.500000 0.675813
O O9 0.932448 0.742385 0.609206
O O10 0.927854 0.772952 0.723541
O O11 0.000000 0.654351 0.672794
O O12 0.571915 0.500000 0.000000
O O13 0.500000 0.312140 0.000000
O O14 0.213113 0.151639 0.500000
O O15 0.250000 0.250000 0.597770
O O16 0.155703 0.240231 0.581594
O O17 0.206666 0.000000 0.597564
O O18 0.589842 0.274391 0.500000
O O19 0.601442 0.500000 0.427466
O O20 0.500000 0.294849 0.202942
O O21 0.432812 0.500000 0.203912
#
# Coordination Sequence:
#
# PCOD8271843 Si02
#       7
#    16  16  16   8  16  16  16
#     4  12  23  35  55  82 112 143 178 220 270 319
#     4  10  20  35  56  80 111 146 184 226 268 317
#     4  10  21  36  53  75 103 134 173 220 266 314
#     4  11  23  37  52  75 110 147 181 219 265 315
#     4   8  14  25  42  66  96 128 162 200 242 293
#     4   9  18  32  50  74 104 137 173 212 258 315
#     4  10  21  38  59  79 102 138 181 220 263 321
#
# _framework density 17.924707999999999
#
# number of rings (size 3 to 8) (size 9 to 14) (size 15 to 20)
#    0.000    2.077    0.769    4.385    0.000    6.154 
#    0.000    3.077    0.000    0.923    0.000    4.308 
#    0.000    0.000    0.000    0.000    0.000    0.000 
#
# Total GULP energy -644731.063559 kJ/mol
# GULP energy per Si atom -12398.674299 kJ/mol
# Density = 1.788391 g / cm^3
# Si number density = 17.924708 Si / 1000 Ang^3
#
#
#
# Elastic Constant Matrix: (Units=GPa)
#
#
# Indices 1 2 3 4 5 6 
#
# 1 61.9760 46.4740 39.3890 0.0000 0.0000 0.0000
# 2 46.4740 116.1625 43.9119 0.0000 0.0000 0.0000
# 3 39.3890 43.9119 91.5161 0.0000 0.0000 0.0000
# 4 0.0000 0.0000 0.0000 21.7826 0.0000 0.0000
# 5 0.0000 0.0000 0.0000 0.0000 6.2808 0.0000
# 6 0.0000 0.0000 0.0000 0.0000 0.0000 32.4123
#
#
#
# Elastic Compliance Matrix: (Units=1/GPa)
#
#
# Indices 1 2 3 4 5 6 
#
# 1 0.027007 -0.007831 -0.007866 0.000000 0.000000 0.000000
# 2 -0.007831 0.012787 -0.002765 0.000000 0.000000 0.000000
# 3 -0.007866 -0.002765 0.015639 0.000000 0.000000 0.000000
# 4 0.000000 0.000000 0.000000 0.045908 0.000000 0.000000
# 5 0.000000 0.000000 0.000000 0.000000 0.159216 0.000000
# 6 0.000000 0.000000 0.000000 0.000000 0.000000 0.030852
#
#
# Mechanical properties :
#
#
# Convention : Reuss Voigt Hill
#
# Bulk Modulus (GPa) = 54.02934 58.80050 56.41492
# Shear Modulus (GPa) = 14.94748 21.42046 18.18397
#
# Velocity S-wave (km/s) = 2.89087 3.46066 3.18852
# Velocity P-wave (km/s) = 6.43045 6.98882 6.71544
#
# Compressibility (1/GPa) = 0.01850846
#
# Stress axis : x y z
#
# Youngs Moduli (GPa) = 37.02702 78.20467 63.94094
#
# Poissons Ratio (x) = 0.61245 0.50298
# Poissons Ratio (y) = 0.28997 0.17679
# Poissons Ratio (z) = 0.29127 0.21623
#
# Static dielectric constant tensor:
#      x y z
#    x 3.402350 0.000000 0.000000 
#    y 0.000000 3.522070 0.000000 
#    z 0.000000 0.000000 3.178590 
# 
# 
# High freq. dielectric constant tensor:
#      x y z
#    x 1.694500 0.000000 0.000000 
#    y 0.000000 1.704880 0.000000 
#    z 0.000000 0.000000 1.667430 
# 
# From -- ./inp_files/66388.got.cif
#   From: 2010.03.12/outbox.cif.g09.slc.cpg/sg65_34_cif.got.tgz:66388.got - 2010.04.10 20:52:16.
