data_PCOD8271995
_publ_section_title
;
Structure prediction by ZEFSAII (Michael W. Deem and Ramdas Pophale) SiO2 
 PCOD8271995
Probable space group: C M M M
;
_chemical_formula_sum "Si O2"
_cell_formula_units_Z 84
_cell_length_a 26.327855
_cell_length_b 15.293232
_cell_length_c 10.973172
_cell_angle_alpha 90.000000
_cell_angle_beta 90.000000
_cell_angle_gamma 90.000000
_cell_volume 4418.215968
_symmetry_space_group_name_H-M "C M M M"
_symmetry_group_IT_number 65
_symmetry_cell_setting 'orthorhombic'
loop_
_space_group_symop_operation_xyz
x,y,z
-x,-y,z
x,-y,-z
-x,y,-z
-x,-y,-z
x,y,-z
-x,y,z
x,-y,z
1/2+x,1/2+y,z
1/2-x,1/2-y,z
1/2+x,1/2-y,-z
1/2-x,1/2+y,-z
1/2-x,1/2-y,-z
1/2+x,1/2+y,-z
1/2-x,1/2+y,z
1/2+x,1/2-y,z
loop_
_atom_site_type_symbol
_atom_site_label
_atom_site_fract_x
_atom_site_fract_y
_atom_site_fract_z
Si Si1 0.090930 0.000000 0.140913
Si Si2 0.142617 0.000000 0.500000
Si Si3 0.801431 0.000000 0.244545
Si Si4 0.056559 0.815111 0.764555
Si Si5 0.056150 0.141582 0.500000
Si Si6 0.879530 0.660429 0.856854
Si Si7 0.266087 0.150762 0.141700
Si Si8 0.556535 0.000000 0.854312
O O1 0.151629 0.000000 0.151380
O O2 0.067621 0.083733 0.207809
O O3 0.075059 0.000000 0.000000
O O4 0.178860 0.000000 0.617210
O O5 0.105188 0.918711 0.500000
O O6 0.768540 0.913119 0.221713
O O7 0.059585 0.798346 0.619917
O O8 0.098831 0.755950 0.827824
O O9 0.000000 0.791517 0.813394
O O10 0.000000 0.094214 0.500000
O O11 0.823184 0.644844 0.805493
O O12 0.915878 0.585913 0.802053
O O13 0.875976 0.651798 0.000000
O O14 0.250000 0.250000 0.160071
O O15 0.262306 0.122720 0.000000
O O16 0.500000 0.000000 0.801355
O O17 0.556372 0.000000 0.000000
#
# Coordination Sequence:
#
# PCOD8271995 Si02
#       8
#     8   4   8  16   8  16  16   8
#     4  12  23  34  54  85 120 153 184 232 300 360
#     4  12  23  40  64  86 114 156 205 250 290 336
#     4  12  23  40  60  85 117 154 202 248 292 341
#     4  11  22  37  58  85 120 157 195 240 287 352
#     4  10  21  40  61  82 114 164 208 235 279 348
#     4  10  20  35  57  85 116 151 192 240 296 352
#     4  10  21  37  58  84 115 153 195 239 295 358
#     4   9  17  30  50  78 111 146 184 230 287 345
#
# _framework density 19.012198999999999
#
# number of rings (size 3 to 8) (size 9 to 14) (size 15 to 20)
#    0.000    1.429    1.905    4.143    0.000    7.238 
#    0.000    1.429    0.000    0.571    0.000    2.667 
#    0.000    0.000    0.000    0.000    0.000    0.000 
#
# Total GULP energy -520775.171493 kJ/mol
# GULP energy per Si atom -12399.408845 kJ/mol
# Density = 1.896893 g / cm^3
# Si number density = 19.012199 Si / 1000 Ang^3
#
#
#
# Elastic Constant Matrix: (Units=GPa)
#
#
# Indices 1 2 3 4 5 6 
#
# 1 160.7836 47.1930 34.7005 0.0000 0.0000 0.0000
# 2 47.1930 91.2443 17.9371 0.0000 0.0000 0.0000
# 3 34.7005 17.9371 56.7464 0.0000 0.0000 0.0000
# 4 0.0000 0.0000 0.0000 2.4044 0.0000 0.0000
# 5 0.0000 0.0000 0.0000 0.0000 24.4948 0.0000
# 6 0.0000 0.0000 0.0000 0.0000 0.0000 39.6935
#
#
#
# Elastic Compliance Matrix: (Units=1/GPa)
#
#
# Indices 1 2 3 4 5 6 
#
# 1 0.008050 -0.003407 -0.003845 0.000000 0.000000 0.000000
# 2 -0.003407 0.013128 -0.002066 0.000000 0.000000 0.000000
# 3 -0.003845 -0.002066 0.020627 0.000000 0.000000 0.000000
# 4 0.000000 0.000000 0.000000 0.415906 0.000000 0.000000
# 5 0.000000 0.000000 0.000000 0.000000 0.040825 0.000000
# 6 0.000000 0.000000 0.000000 0.000000 0.000000 0.025193
#
#
# Mechanical properties :
#
#
# Convention : Reuss Voigt Hill
#
# Bulk Modulus (GPa) = 43.16503 56.49283 49.82893
# Shear Modulus (GPa) = 9.08944 27.24812 18.16878
#
# Velocity S-wave (km/s) = 2.18889 3.78986 3.09469
# Velocity P-wave (km/s) = 5.39828 6.99494 6.24783
#
# Compressibility (1/GPa) = 0.02316690
#
# Stress axis : x y z
#
# Youngs Moduli (GPa) = 124.23011 76.17235 48.48086
#
# Poissons Ratio (x) = 0.25955 0.18642
# Poissons Ratio (y) = 0.42331 0.10016
# Poissons Ratio (z) = 0.47770 0.15738
#
# Static dielectric constant tensor:
#      x y z
#    x 3.842410 0.000000 0.000000 
#    y 0.000000 3.401380 0.000000 
#    z 0.000000 0.000000 3.291580 
# 
# 
# High freq. dielectric constant tensor:
#      x y z
#    x 1.762900 0.000000 0.000000 
#    y 0.000000 1.735410 0.000000 
#    z 0.000000 0.000000 1.706190 
# 
# From -- ./inp_files/30628.got.cif
#   From: 2010.03.12/outbox.cif.g09.slc.cpg/sg65_16_cif.got.tgz:30628.got - 2010.04.10 20:52:16.
