data_PCOD8271619
_publ_section_title
;
Structure prediction by ZEFSAII (Michael W. Deem and Ramdas Pophale) SiO2 
 PCOD8271619
Probable space group: C M M M
;
_chemical_formula_sum "Si O2"
_cell_formula_units_Z 104
_cell_length_a 32.810053
_cell_length_b 20.160438
_cell_length_c 8.567607
_cell_angle_alpha 90.000000
_cell_angle_beta 90.000000
_cell_angle_gamma 90.000000
_cell_volume 5667.172501
_symmetry_space_group_name_H-M "C M M M"
_symmetry_group_IT_number 65
_symmetry_cell_setting 'orthorhombic'
loop_
_space_group_symop_operation_xyz
x,y,z
-x,-y,z
x,-y,-z
-x,y,-z
-x,-y,-z
x,y,-z
-x,y,z
x,-y,z
1/2+x,1/2+y,z
1/2-x,1/2-y,z
1/2+x,1/2-y,-z
1/2-x,1/2+y,-z
1/2-x,1/2-y,-z
1/2+x,1/2+y,-z
1/2-x,1/2+y,z
1/2+x,1/2-y,z
loop_
_atom_site_type_symbol
_atom_site_label
_atom_site_fract_x
_atom_site_fract_y
_atom_site_fract_z
Si Si1 0.816519 0.426452 0.315305
Si Si2 0.229915 0.924831 0.181977
Si Si3 0.338525 0.332973 0.681673
Si Si4 0.545153 0.243228 0.682434
Si Si5 0.046923 0.000000 0.671923
Si Si6 0.869728 0.692124 0.684679
Si Si7 0.079217 0.870939 0.181001
O O1 0.819855 0.426954 0.500000
O O2 0.826487 0.500000 0.248298
O O3 0.771146 0.404818 0.269997
O O4 0.848856 0.373761 0.243655
O O5 0.196608 0.870181 0.224462
O O6 0.216126 0.000000 0.229593
O O7 0.238764 0.921479 0.000000
O O8 0.327463 0.335503 0.500000
O O9 0.344763 0.257153 0.742342
O O10 0.380617 0.370209 0.712790
O O11 0.549983 0.260185 0.500000
O O12 0.500000 0.212174 0.716012
O O13 0.582323 0.194642 0.735013
O O14 0.548851 0.311020 0.777872
O O15 0.056960 0.938042 0.779126
O O16 0.068772 0.000000 0.500000
O O17 0.000000 0.000000 0.636824
O O18 0.866771 0.690149 0.500000
O O19 0.091409 0.867982 0.000000
#
# Coordination Sequence:
#
# PCOD8271619 Si02
#       7
#    16  16  16  16   8  16  16
#     4   9  17  32  54  76  99 131 170 206 248 305
#     4  10  21  35  50  71 102 134 168 211 257 301
#     4  10  20  35  53  72  98 133 173 209 249 303
#     4   9  17  32  53  73  97 132 170 204 245 302
#     4  11  23  37  51  67  91 129 175 213 251 305
#     4   8  16  31  51  76 101 128 167 212 251 294
#     4  11  22  34  49  71 100 129 163 212 263 299
#
# _framework density 18.351303000000001
#
# number of rings (size 3 to 8) (size 9 to 14) (size 15 to 20)
#    0.000    2.385    0.000    3.923    1.077    4.308 
#    0.000    6.923    0.000    0.462    0.000    3.231 
#    0.000    0.000    0.000    9.385    0.000   10.154 
#
# Total GULP energy -644530.293042 kJ/mol
# GULP energy per Si atom -12394.813328 kJ/mol
# Density = 1.830953 g / cm^3
# Si number density = 18.351303 Si / 1000 Ang^3
#
#
#
# Elastic Constant Matrix: (Units=GPa)
#
#
# Indices 1 2 3 4 5 6 
#
# 1 118.9880 79.0211 0.4037 0.0000 0.0000 0.0000
# 2 79.0211 108.3392 13.5462 0.0000 0.0000 0.0000
# 3 0.4037 13.5462 28.9976 0.0000 0.0000 0.0000
# 4 0.0000 0.0000 0.0000 13.8687 0.0000 0.0000
# 5 0.0000 0.0000 0.0000 0.0000 9.3428 0.0000
# 6 0.0000 0.0000 0.0000 0.0000 0.0000 15.9662
#
#
#
# Elastic Compliance Matrix: (Units=1/GPa)
#
#
# Indices 1 2 3 4 5 6 
#
# 1 0.017223 -0.013310 0.005978 0.000000 0.000000 0.000000
# 2 -0.013310 0.020088 -0.009199 0.000000 0.000000 0.000000
# 3 0.005978 -0.009199 0.038700 0.000000 0.000000 0.000000
# 4 0.000000 0.000000 0.000000 0.072105 0.000000 0.000000
# 5 0.000000 0.000000 0.000000 0.000000 0.107035 0.000000
# 6 0.000000 0.000000 0.000000 0.000000 0.000000 0.062632
#
#
# Mechanical properties :
#
#
# Convention : Reuss Voigt Hill
#
# Bulk Modulus (GPa) = 23.28318 49.14075 36.21196
# Shear Modulus (GPa) = 13.69261 18.72579 16.20920
#
# Velocity S-wave (km/s) = 2.73452 3.19785 2.97521
# Velocity P-wave (km/s) = 4.76289 6.36167 5.61943
#
# Compressibility (1/GPa) = 0.04294946
#
# Stress axis : x y z
#
# Youngs Moduli (GPa) = 58.06195 49.78018 25.83998
#
# Poissons Ratio (x) = 0.66256 -0.15447
# Poissons Ratio (y) = 0.77278 0.23770
# Poissons Ratio (z) = -0.34708 0.45793
#
# Static dielectric constant tensor:
#      x y z
#    x 3.495980 0.000000 0.000000 
#    y 0.000000 3.626860 0.000000 
#    z 0.000000 0.000000 3.211160 
# 
# 
# High freq. dielectric constant tensor:
#      x y z
#    x 1.710900 0.000000 0.000000 
#    y 0.000000 1.696100 0.000000 
#    z 0.000000 0.000000 1.699180 
# 
# From -- ./inp_files/18634.got.cif
#   From: 2010.03.12/outbox.cif.g09.slc.cpg/sg65_10_cif.got.tgz:18634.got - 2010.04.10 20:52:16.
