data_PCOD8271610
_publ_section_title
;
Structure prediction by ZEFSAII (Michael W. Deem and Ramdas Pophale) SiO2 
 PCOD8271610
Probable space group: C M M M
;
_chemical_formula_sum "Si O2"
_cell_formula_units_Z 104
_cell_length_a 17.692795
_cell_length_b 14.025544
_cell_length_c 22.681882
_cell_angle_alpha 90.000000
_cell_angle_beta 90.000000
_cell_angle_gamma 90.000000
_cell_volume 5628.533396
_symmetry_space_group_name_H-M "C M M M"
_symmetry_group_IT_number 65
_symmetry_cell_setting 'orthorhombic'
loop_
_space_group_symop_operation_xyz
x,y,z
-x,-y,z
x,-y,-z
-x,y,-z
-x,-y,-z
x,y,-z
-x,y,z
x,-y,z
1/2+x,1/2+y,z
1/2-x,1/2-y,z
1/2+x,1/2-y,-z
1/2-x,1/2+y,-z
1/2-x,1/2-y,-z
1/2+x,1/2+y,-z
1/2-x,1/2+y,z
1/2+x,1/2-y,z
loop_
_atom_site_type_symbol
_atom_site_label
_atom_site_fract_x
_atom_site_fract_y
_atom_site_fract_z
Si Si1 0.665981 0.719914 0.104587
Si Si2 0.087106 0.606806 0.151637
Si Si3 0.410365 0.393717 0.434907
Si Si4 0.587855 0.274397 0.674773
Si Si5 0.087182 0.112843 0.000000
Si Si6 0.172596 0.606860 0.726916
Si Si7 0.662363 0.611249 0.771854
O O1 0.750000 0.750000 0.085971
O O2 0.616424 0.816558 0.104723
O O3 0.629757 0.650092 0.057415
O O4 0.665431 0.665743 0.166597
O O5 0.100861 0.500000 0.126551
O O6 0.132309 0.622750 0.211180
O O7 0.000000 0.624787 0.165801
O O8 0.385496 0.357053 0.500000
O O9 0.500000 0.398324 0.430820
O O10 0.377661 0.500000 0.424133
O O11 0.379732 0.324423 0.384142
O O12 0.500000 0.247612 0.669115
O O13 0.636842 0.178454 0.679880
O O14 0.597022 0.344056 0.731154
O O15 0.000000 0.146629 0.000000
O O16 0.092620 0.000000 0.000000
O O17 0.159808 0.500000 0.703241
O O18 0.260455 0.628554 0.736327
O O19 0.646431 0.500000 0.783506
#
# Coordination Sequence:
#
# PCOD8271610 Si02
#       7
#    16  16  16  16   8  16  16
#     4  12  22  40  63  85 109 143 185 226 270 324
#     4  10  20  35  57  83 109 139 178 223 269 316
#     4   8  15  29  48  72 107 147 183 224 274 324
#     4  11  20  31  52  84 112 138 182 232 277 323
#     4  11  27  46  61  81 113 151 184 219 270 334
#     4  10  20  35  52  75 110 149 181 215 268 328
#     4  11  22  36  56  81 113 146 178 222 272 326
#
# _framework density 18.477281999999999
#
# number of rings (size 3 to 8) (size 9 to 14) (size 15 to 20)
#    0.000    1.615    3.077    3.000    0.000    3.077 
#    0.000    0.385    0.000    3.692    0.000    4.308 
#    0.000    0.000    0.000    0.000    0.000    0.000 
#
# Total GULP energy -644826.531632 kJ/mol
# GULP energy per Si atom -12400.510224 kJ/mol
# Density = 1.843523 g / cm^3
# Si number density = 18.477282 Si / 1000 Ang^3
#
#
#
# Elastic Constant Matrix: (Units=GPa)
#
#
# Indices 1 2 3 4 5 6 
#
# 1 47.4757 25.6673 27.9461 0.0000 0.0000 0.0000
# 2 25.6673 123.0021 55.0730 0.0000 0.0000 0.0000
# 3 27.9461 55.0730 99.7392 0.0000 0.0000 0.0000
# 4 0.0000 0.0000 0.0000 39.4606 0.0000 0.0000
# 5 0.0000 0.0000 0.0000 0.0000 64.1334 0.0000
# 6 0.0000 0.0000 0.0000 0.0000 0.0000 29.7770
#
#
#
# Elastic Compliance Matrix: (Units=1/GPa)
#
#
# Indices 1 2 3 4 5 6 
#
# 1 0.025965 -0.002870 -0.005690 0.000000 0.000000 0.000000
# 2 -0.002870 0.011117 -0.005334 0.000000 0.000000 0.000000
# 3 -0.005690 -0.005334 0.014566 0.000000 0.000000 0.000000
# 4 0.000000 0.000000 0.000000 0.025342 0.000000 0.000000
# 5 0.000000 0.000000 0.000000 0.000000 0.015593 0.000000
# 6 0.000000 0.000000 0.000000 0.000000 0.000000 0.033583
#
#
# Mechanical properties :
#
#
# Convention : Reuss Voigt Hill
#
# Bulk Modulus (GPa) = 41.91449 54.17664 48.04556
# Shear Modulus (GPa) = 30.88176 37.44290 34.16233
#
# Velocity S-wave (km/s) = 4.09263 4.50647 4.30453
# Velocity P-wave (km/s) = 6.71316 7.51412 7.12490
#
# Compressibility (1/GPa) = 0.02385810
#
# Stress axis : x y z
#
# Youngs Moduli (GPa) = 38.51383 89.94940 68.65315
#
# Poissons Ratio (x) = 0.25820 0.39064
# Poissons Ratio (y) = 0.11055 0.36622
# Poissons Ratio (z) = 0.21915 0.47983
#
# Static dielectric constant tensor:
#      x y z
#    x 3.393470 0.000000 0.000000 
#    y 0.000000 3.700220 0.000000 
#    z 0.000000 0.000000 3.333110 
# 
# 
# High freq. dielectric constant tensor:
#      x y z
#    x 1.711380 0.000000 0.000000 
#    y 0.000000 1.731900 0.000000 
#    z 0.000000 0.000000 1.694830 
# 
# From -- ./inp_files/70550.got.cif
#   From: 2010.03.12/outbox.cif.g09.slc.cpg/sg65_36_cif.got.tgz:70550.got - 2010.04.10 20:52:16.
