data_PCOD8271694
_publ_section_title
;
Structure prediction by ZEFSAII (Michael W. Deem and Ramdas Pophale) SiO2 
 PCOD8271694
Probable space group: C M M M
;
_chemical_formula_sum "Si O2"
_cell_formula_units_Z 88
_cell_length_a 17.512668
_cell_length_b 10.916167
_cell_length_c 25.938194
_cell_angle_alpha 90.000000
_cell_angle_beta 90.000000
_cell_angle_gamma 90.000000
_cell_volume 4958.635893
_symmetry_space_group_name_H-M "C M M M"
_symmetry_group_IT_number 65
_symmetry_cell_setting 'orthorhombic'
loop_
_space_group_symop_operation_xyz
x,y,z
-x,-y,z
x,-y,-z
-x,y,-z
-x,-y,-z
x,y,-z
-x,y,z
x,-y,z
1/2+x,1/2+y,z
1/2-x,1/2-y,z
1/2+x,1/2-y,-z
1/2-x,1/2+y,-z
1/2-x,1/2-y,-z
1/2+x,1/2+y,-z
1/2-x,1/2+y,z
1/2+x,1/2-y,z
loop_
_atom_site_type_symbol
_atom_site_label
_atom_site_fract_x
_atom_site_fract_y
_atom_site_fract_z
Si Si1 0.085118 0.145655 0.610384
Si Si2 0.086398 0.140147 0.194582
Si Si3 0.159983 0.253861 0.096331
Si Si4 0.916979 0.859718 0.000000
Si Si5 0.312329 0.643815 0.705889
Si Si6 0.909573 0.133740 0.500000
Si Si7 0.588860 0.000000 0.939287
O O1 0.146257 0.183329 0.653161
O O2 0.112616 0.200557 0.554279
O O3 0.000000 0.195183 0.624632
O O4 0.080601 0.000000 0.605737
O O5 0.132179 0.214807 0.152220
O O6 0.125624 0.156029 0.249517
O O7 0.000000 0.189856 0.198779
O O8 0.086490 0.000000 0.176832
O O9 0.250000 0.250000 0.095143
O O10 0.129817 0.388045 0.087126
O O11 0.129527 0.167816 0.051213
O O12 0.000000 0.789187 0.000000
O O13 0.935711 0.000000 0.000000
O O14 0.282115 0.500000 0.704077
O O15 0.250000 0.750000 0.715823
O O16 0.000000 0.118340 0.500000
O O17 0.870264 0.000000 0.500000
O O18 0.500000 0.000000 0.926056
O O19 0.604301 0.000000 0.000000
#
# Coordination Sequence:
#
# PCOD8271694 Si02
#       7
#    16  16  16   8  16   8   8
#     4   8  13  24  46  74 103 138 182 227 270 313
#     4  10  21  39  61  80 103 134 177 225 271 320
#     4  12  25  38  60  85 115 141 178 221 269 321
#     4  11  23  39  61  83 109 141 179 221 265 311
#     4  10  20  35  54  78 108 141 178 219 272 324
#     4   7  10  18  37  70 105 133 172 229 274 306
#     4  11  24  42  62  82 116 156 184 211 263 337
#
# _framework density 17.746817
#
# number of rings (size 3 to 8) (size 9 to 14) (size 15 to 20)
#    0.000    2.091    0.909    4.636    2.545    3.636 
#    1.636    0.455    0.000    1.636    0.000    0.000 
#    0.000    2.182    0.000    0.000    0.000    0.000 
#
# Total GULP energy -545210.193271 kJ/mol
# GULP energy per Si atom -12391.140756 kJ/mol
# Density = 1.770642 g / cm^3
# Si number density = 17.746817 Si / 1000 Ang^3
#
#
#
# Elastic Constant Matrix: (Units=GPa)
#
#
# Indices 1 2 3 4 5 6 
#
# 1 126.6474 41.9663 53.2081 0.0000 0.0000 0.0000
# 2 41.9663 65.3421 30.5457 0.0000 0.0000 0.0000
# 3 53.2081 30.5457 124.9778 0.0000 0.0000 0.0000
# 4 0.0000 0.0000 0.0000 24.8168 0.0000 0.0000
# 5 0.0000 0.0000 0.0000 0.0000 -157.5260 0.0000
# 6 0.0000 0.0000 0.0000 0.0000 0.0000 21.2498
#
#
#
# Elastic Compliance Matrix: (Units=1/GPa)
#
#
# Indices 1 2 3 4 5 6 
#
# 1 0.011173 -0.005591 -0.003390 0.000000 0.000000 0.000000
# 2 -0.005591 0.020076 -0.002526 0.000000 0.000000 0.000000
# 3 -0.003390 -0.002526 0.010062 0.000000 0.000000 0.000000
# 4 0.000000 0.000000 0.000000 0.040295 0.000000 0.000000
# 5 0.000000 0.000000 0.000000 0.000000 -0.006348 0.000000
# 6 0.000000 0.000000 0.000000 0.000000 0.000000 0.047059
#
#
# Mechanical properties :
#
#
# Convention : Reuss Voigt Hill
#
# Bulk Modulus (GPa) = 54.65751 63.15639 58.90695
# Shear Modulus (GPa) = 33.01823 -9.54205 11.73809
#
# Velocity S-wave (km/s) = 4.31805 -2.32130 2.57460
# Velocity P-wave (km/s) = 7.46499 5.33668 6.48869
#
# Compressibility (1/GPa) = 0.01829575
#
# Stress axis : x y z
#
# Youngs Moduli (GPa) = 89.50193 49.81080 99.38109
#
# Poissons Ratio (x) = 0.27849 0.33693
# Poissons Ratio (y) = 0.50041 0.25108
# Poissons Ratio (z) = 0.30344 0.12584
#
# Static dielectric constant tensor:
#      x y z
#    x 3.304260 0.000000 0.000000 
#    y 0.000000 3.100150 0.000000 
#    z 0.000000 0.000000 3.747280 
# 
# 
# High freq. dielectric constant tensor:
#      x y z
#    x 1.683000 0.000000 0.000000 
#    y 0.000000 1.652900 0.000000 
#    z 0.000000 0.000000 1.707410 
# 
# From -- ./inp_files/74803.got.cif
#   From: 2010.03.12/outbox.cif.g09.slc.cpg/sg65_38_cif.got.tgz:74803.got - 2010.04.10 20:52:16.
