data_PCOD8271327
_publ_section_title
;
Structure prediction by ZEFSAII (Michael W. Deem and Ramdas Pophale) SiO2 
 PCOD8271327
Probable space group: C M M M
;
_chemical_formula_sum "Si O2"
_cell_formula_units_Z 88
_cell_length_a 29.592306
_cell_length_b 16.797868
_cell_length_c 9.534890
_cell_angle_alpha 90.000000
_cell_angle_beta 90.000000
_cell_angle_gamma 90.000000
_cell_volume 4739.676063
_symmetry_space_group_name_H-M "C M M M"
_symmetry_group_IT_number 65
_symmetry_cell_setting 'orthorhombic'
loop_
_space_group_symop_operation_xyz
x,y,z
-x,-y,z
x,-y,-z
-x,y,-z
-x,-y,-z
x,y,-z
-x,y,z
x,-y,z
1/2+x,1/2+y,z
1/2-x,1/2-y,z
1/2+x,1/2-y,-z
1/2-x,1/2+y,-z
1/2-x,1/2-y,-z
1/2+x,1/2+y,-z
1/2-x,1/2+y,z
1/2+x,1/2-y,z
loop_
_atom_site_type_symbol
_atom_site_label
_atom_site_fract_x
_atom_site_fract_y
_atom_site_fract_z
Si Si1 0.376523 0.127719 0.662261
Si Si2 0.947343 0.089115 0.157985
Si Si3 0.710050 0.091878 0.844118
Si Si4 0.293301 0.593300 0.337142
Si Si5 0.881965 0.814081 0.339306
Si Si6 0.449370 0.000000 0.664631
O O1 0.364525 0.108194 0.500000
O O2 0.336192 0.101198 0.761160
O O3 0.383505 0.220513 0.685547
O O4 0.421377 0.079129 0.709160
O O5 0.923950 0.152357 0.256052
O O6 0.000000 0.106738 0.164244
O O7 0.936727 0.000000 0.211405
O O8 0.929377 0.099304 0.000000
O O9 0.751330 0.127220 0.752910
O O10 0.720374 0.000000 0.863444
O O11 0.707529 0.131618 0.000000
O O12 0.282075 0.608854 0.500000
O O13 0.303514 0.500000 0.310674
O O14 0.335655 0.645853 0.285864
O O15 0.888974 0.836954 0.500000
O O16 0.500000 0.000000 0.733849
O O17 0.455942 0.000000 0.500000
#
# Coordination Sequence:
#
# PCOD8271327 Si02
#       6
#    16  16  16  16  16   8
#     4  10  20  35  56  79 106 141 177 220 277 331
#     4   9  19  36  56  77 105 145 185 217 260 322
#     4  10  20  34  54  78 104 137 182 226 263 318
#     4   9  18  33  52  74 105 143 177 214 266 324
#     4  10  21  34  52  82 112 139 178 229 275 319
#     4   9  18  34  57  81 103 135 181 225 270 331
#
# _framework density 18.566669000000001
#
# number of rings (size 3 to 8) (size 9 to 14) (size 15 to 20)
#    0.000    2.455    0.909    1.636    0.000    5.091 
#    0.000    8.182    0.000    1.091    0.000    0.000 
#    0.000    0.000    0.000    0.000    0.000    0.000 
#
# Total GULP energy -545504.969581 kJ/mol
# GULP energy per Si atom -12397.840218 kJ/mol
# Density = 1.852441 g / cm^3
# Si number density = 18.566669 Si / 1000 Ang^3
#
#
#
# Elastic Constant Matrix: (Units=GPa)
#
#
# Indices 1 2 3 4 5 6 
#
# 1 115.5466 60.9657 52.8095 0.0000 0.0000 0.0000
# 2 60.9657 81.2545 38.3006 0.0000 0.0000 0.0000
# 3 52.8095 38.3006 71.2853 0.0000 0.0000 0.0000
# 4 0.0000 0.0000 0.0000 18.9940 0.0000 0.0000
# 5 0.0000 0.0000 0.0000 0.0000 1.4322 0.0000
# 6 0.0000 0.0000 0.0000 0.0000 0.0000 167.0143
#
#
#
# Elastic Compliance Matrix: (Units=1/GPa)
#
#
# Indices 1 2 3 4 5 6 
#
# 1 0.016973 -0.009117 -0.007675 0.000000 0.000000 0.000000
# 2 -0.009117 0.021378 -0.004732 0.000000 0.000000 0.000000
# 3 -0.007675 -0.004732 0.022257 0.000000 0.000000 0.000000
# 4 0.000000 0.000000 0.000000 0.052648 0.000000 0.000000
# 5 0.000000 0.000000 0.000000 0.000000 0.698242 0.000000
# 6 0.000000 0.000000 0.000000 0.000000 0.000000 0.005988
#
#
# Mechanical properties :
#
#
# Convention : Reuss Voigt Hill
#
# Bulk Modulus (GPa) = 56.95183 63.58199 60.26691
# Shear Modulus (GPa) = 5.77109 45.22213 25.49661
#
# Velocity S-wave (km/s) = 1.76495 4.94060 3.70975
# Velocity P-wave (km/s) = 5.90713 8.17714 7.13301
#
# Compressibility (1/GPa) = 0.01755870
#
# Stress axis : x y z
#
# Youngs Moduli (GPa) = 58.91784 46.77703 44.93022
#
# Poissons Ratio (x) = 0.42646 0.34486
# Poissons Ratio (y) = 0.53714 0.21262
# Poissons Ratio (z) = 0.45222 0.22136
#
# Static dielectric constant tensor:
#      x y z
#    x 3.444990 0.000000 0.000000 
#    y 0.000000 3.476690 0.000000 
#    z 0.000000 0.000000 3.475160 
# 
# 
# High freq. dielectric constant tensor:
#      x y z
#    x 1.722900 0.000000 0.000000 
#    y 0.000000 1.714180 0.000000 
#    z 0.000000 0.000000 1.710040 
# 
# From -- ./inp_files/18325.got.cif
#   From: 2010.03.12/outbox.cif.g09.slc.cpg/sg65_10_cif.got.tgz:18325.got - 2010.04.10 20:52:16.
