data_PCOD8271993
_publ_section_title
;
Structure prediction by ZEFSAII (Michael W. Deem and Ramdas Pophale) SiO2 
 PCOD8271993
Probable space group: C M M M
;
_chemical_formula_sum "Si O2"
_cell_formula_units_Z 96
_cell_length_a 28.637573
_cell_length_b 8.853721
_cell_length_c 20.170512
_cell_angle_alpha 90.000000
_cell_angle_beta 90.000000
_cell_angle_gamma 90.000000
_cell_volume 5114.214790
_symmetry_space_group_name_H-M "C M M M"
_symmetry_group_IT_number 65
_symmetry_cell_setting 'orthorhombic'
loop_
_space_group_symop_operation_xyz
x,y,z
-x,-y,z
x,-y,-z
-x,y,-z
-x,-y,-z
x,y,-z
-x,y,z
x,-y,z
1/2+x,1/2+y,z
1/2-x,1/2-y,z
1/2+x,1/2-y,-z
1/2-x,1/2+y,-z
1/2-x,1/2-y,-z
1/2+x,1/2+y,-z
1/2-x,1/2+y,z
1/2+x,1/2-y,z
loop_
_atom_site_type_symbol
_atom_site_label
_atom_site_fract_x
_atom_site_fract_y
_atom_site_fract_z
Si Si1 0.201835 0.824854 0.273919
Si Si2 0.298233 0.675346 0.881124
Si Si3 0.108914 0.322758 0.689157
Si Si4 0.445266 0.324458 0.189919
Si Si5 0.945911 0.172656 0.423905
Si Si6 0.390603 0.173034 0.075302
O O1 0.250000 0.750000 0.296993
O O2 0.192850 0.797344 0.196393
O O3 0.160410 0.746942 0.314185
O O4 0.203675 0.000000 0.291897
O O5 0.296477 0.500000 0.899203
O O6 0.250000 0.750000 0.904300
O O7 0.339707 0.753273 0.920775
O O8 0.112805 0.500000 0.699117
O O9 0.079720 0.255610 0.749443
O O10 0.084075 0.285957 0.620062
O O11 0.500000 0.295647 0.196247
O O12 0.432240 0.500000 0.192547
O O13 0.427884 0.259145 0.120352
O O14 0.931432 0.196919 0.500000
O O15 0.000000 0.211667 0.413532
O O16 0.936342 0.000000 0.402125
O O17 0.387099 0.000000 0.098745
O O18 0.408579 0.185199 0.000000
#
# Coordination Sequence:
#
# PCOD8271993 Si02
#       6
#    16  16  16  16  16  16
#     4  10  20  35  57  85 116 149 188 233 282 336
#     4  10  20  35  58  83 111 146 184 230 283 339
#     4  12  23  35  58  89 121 154 189 233 284 336
#     4  11  24  41  60  82 109 145 191 239 285 337
#     4   9  19  37  60  86 119 159 199 238 282 333
#     4  11  24  40  58  81 111 146 185 233 289 346
#
# _framework density 18.771211000000001
#
# number of rings (size 3 to 8) (size 9 to 14) (size 15 to 20)
#    0.000    1.500    1.667    4.500    0.000    7.333 
#    0.000    2.500    0.000    0.500    0.000    0.000 
#    0.000    0.000    0.000    0.000    0.000    0.000 
#
# Total GULP energy -595490.190622 kJ/mol
# GULP energy per Si atom -12406.045638 kJ/mol
# Density = 1.872849 g / cm^3
# Si number density = 18.771211 Si / 1000 Ang^3
#
#
#
# Elastic Constant Matrix: (Units=GPa)
#
#
# Indices 1 2 3 4 5 6 
#
# 1 101.5630 71.9956 49.7682 0.0000 0.0000 0.0000
# 2 71.9956 141.8060 46.9576 0.0000 0.0000 0.0000
# 3 49.7682 46.9576 81.4552 0.0000 0.0000 0.0000
# 4 0.0000 0.0000 0.0000 30.0512 0.0000 0.0000
# 5 0.0000 0.0000 0.0000 0.0000 29.4014 0.0000
# 6 0.0000 0.0000 0.0000 0.0000 0.0000 37.1735
#
#
#
# Elastic Compliance Matrix: (Units=1/GPa)
#
#
# Indices 1 2 3 4 5 6 
#
# 1 0.018245 -0.006886 -0.007178 0.000000 0.000000 0.000000
# 2 -0.006886 0.011315 -0.002315 0.000000 0.000000 0.000000
# 3 -0.007178 -0.002315 0.017997 0.000000 0.000000 0.000000
# 4 0.000000 0.000000 0.000000 0.033277 0.000000 0.000000
# 5 0.000000 0.000000 0.000000 0.000000 0.034012 0.000000
# 6 0.000000 0.000000 0.000000 0.000000 0.000000 0.026901
#
#
# Mechanical properties :
#
#
# Convention : Reuss Voigt Hill
#
# Bulk Modulus (GPa) = 67.57621 73.58523 70.58072
# Shear Modulus (GPa) = 27.86497 29.73206 28.79852
#
# Velocity S-wave (km/s) = 3.85704 3.98416 3.92112
# Velocity P-wave (km/s) = 7.47755 7.77502 7.62774
#
# Compressibility (1/GPa) = 0.01479811
#
# Stress axis : x y z
#
# Youngs Moduli (GPa) = 54.81038 88.38028 55.56520
#
# Poissons Ratio (x) = 0.60860 0.39882
# Poissons Ratio (y) = 0.37743 0.12865
# Poissons Ratio (z) = 0.39341 0.20463
#
# Static dielectric constant tensor:
#      x y z
#    x 3.504590 0.000000 0.000000 
#    y 0.000000 3.581640 0.000000 
#    z 0.000000 0.000000 3.286030 
# 
# 
# High freq. dielectric constant tensor:
#      x y z
#    x 1.735250 0.000000 0.000000 
#    y 0.000000 1.743400 0.000000 
#    z 0.000000 0.000000 1.713630 
# 
# From -- ./inp_files/60160.got.cif
#   From: 2010.03.12/outbox.cif.g09.slc.cpg/sg65_31_cif.got.tgz:60160.got - 2010.04.10 20:52:16.
