data_PCOD8271776
_publ_section_title
;
Structure prediction by ZEFSAII (Michael W. Deem and Ramdas Pophale) SiO2 
 PCOD8271776
Probable space group: C M M M
;
_chemical_formula_sum "Si O2"
_cell_formula_units_Z 88
_cell_length_a 22.648581
_cell_length_b 23.972098
_cell_length_c 8.902489
_cell_angle_alpha 90.000000
_cell_angle_beta 90.000000
_cell_angle_gamma 90.000000
_cell_volume 4833.463992
_symmetry_space_group_name_H-M "C M M M"
_symmetry_group_IT_number 65
_symmetry_cell_setting 'orthorhombic'
loop_
_space_group_symop_operation_xyz
x,y,z
-x,-y,z
x,-y,-z
-x,y,-z
-x,-y,-z
x,y,-z
-x,y,z
x,-y,z
1/2+x,1/2+y,z
1/2-x,1/2-y,z
1/2+x,1/2-y,-z
1/2-x,1/2+y,-z
1/2-x,1/2-y,-z
1/2+x,1/2+y,-z
1/2-x,1/2+y,z
1/2+x,1/2-y,z
loop_
_atom_site_type_symbol
_atom_site_label
_atom_site_fract_x
_atom_site_fract_y
_atom_site_fract_z
Si Si1 0.774343 0.935959 0.173635
Si Si2 0.345748 0.934820 0.673682
Si Si3 0.392377 0.627291 0.823068
Si Si4 0.431850 0.851231 0.825191
Si Si5 0.500000 0.565855 0.672541
Si Si6 0.568886 0.736590 0.675008
O O1 0.718996 0.916123 0.272304
O O2 0.829351 0.898143 0.220829
O O3 0.790981 0.000000 0.207739
O O4 0.757599 0.927780 0.000000
O O5 0.352800 0.919366 0.500000
O O6 0.395314 0.903810 0.768725
O O7 0.354930 0.000000 0.704199
O O8 0.441997 0.589288 0.749657
O O9 0.393772 0.689829 0.760440
O O10 0.402861 0.627774 0.000000
O O11 0.500000 0.864110 0.790691
O O12 0.410855 0.796221 0.737505
O O13 0.420454 0.841217 0.000000
O O14 0.500000 0.500000 0.689753
O O15 0.500000 0.585339 0.500000
O O16 0.583376 0.734116 0.500000
O O17 0.500000 0.725821 0.707989
#
# Coordination Sequence:
#
# PCOD8271776 Si02
#       6
#    16  16  16  16   8  16
#     4   9  19  36  56  78 107 145 186 227 274 327
#     4  10  21  37  58  84 113 145 179 219 272 330
#     4  11  21  34  55  80 108 144 188 233 277 328
#     4  10  21  37  59  85 112 143 181 223 270 324
#     4  11  23  35  49  75 111 147 186 235 284 327
#     4  10  20  35  55  79 111 147 183 225 277 331
#
# _framework density 18.206403000000002
#
# number of rings (size 3 to 8) (size 9 to 14) (size 15 to 20)
#    0.000    1.909    0.909    3.000    0.000    6.182 
#    0.000    4.545    0.000    5.455    0.000    0.000 
#    0.000    0.000    0.000    0.000    0.000    0.000 
#
# Total GULP energy -545841.736413 kJ/mol
# GULP energy per Si atom -12405.494009 kJ/mol
# Density = 1.816496 g / cm^3
# Si number density = 18.206403 Si / 1000 Ang^3
#
#
#
# Elastic Constant Matrix: (Units=GPa)
#
#
# Indices 1 2 3 4 5 6 
#
# 1 100.2126 64.8876 54.9645 0.0000 0.0000 0.0000
# 2 64.8876 93.0985 50.9364 0.0000 0.0000 0.0000
# 3 54.9645 50.9364 92.9609 0.0000 0.0000 0.0000
# 4 0.0000 0.0000 0.0000 36.5829 0.0000 0.0000
# 5 0.0000 0.0000 0.0000 0.0000 26.1958 0.0000
# 6 0.0000 0.0000 0.0000 0.0000 0.0000 25.1954
#
#
#
# Elastic Compliance Matrix: (Units=1/GPa)
#
#
# Indices 1 2 3 4 5 6 
#
# 1 0.020338 -0.010848 -0.006081 0.000000 0.000000 0.000000
# 2 -0.010848 0.021126 -0.005162 0.000000 0.000000 0.000000
# 3 -0.006081 -0.005162 0.017181 0.000000 0.000000 0.000000
# 4 0.000000 0.000000 0.000000 0.027335 0.000000 0.000000
# 5 0.000000 0.000000 0.000000 0.000000 0.038174 0.000000
# 6 0.000000 0.000000 0.000000 0.000000 0.000000 0.039690
#
#
# Mechanical properties :
#
#
# Convention : Reuss Voigt Hill
#
# Bulk Modulus (GPa) = 69.13936 69.76099 69.45018
# Shear Modulus (GPa) = 23.49086 25.29371 24.39229
#
# Velocity S-wave (km/s) = 3.59591 3.73134 3.66425
# Velocity P-wave (km/s) = 7.43629 7.54744 7.49207
#
# Compressibility (1/GPa) = 0.01446354
#
# Stress axis : x y z
#
# Youngs Moduli (GPa) = 49.16786 47.33424 58.20343
#
# Poissons Ratio (x) = 0.51349 0.35395
# Poissons Ratio (y) = 0.53338 0.30043
# Poissons Ratio (z) = 0.29901 0.24432
#
# Static dielectric constant tensor:
#      x y z
#    x 3.309130 0.000000 0.000000 
#    y 0.000000 3.373220 0.000000 
#    z 0.000000 0.000000 3.491770 
# 
# 
# High freq. dielectric constant tensor:
#      x y z
#    x 1.696380 0.000000 0.000000 
#    y 0.000000 1.709160 0.000000 
#    z 0.000000 0.000000 1.720820 
# 
# From -- ./inp_files/11745.got.cif
#   From: 2010.03.12/outbox.cif.g09.slc.cpg/sg65_6_cif.got.tgz:11745.got - 2010.04.10 20:52:16.
