data_PCOD8271171
_publ_section_title
;
Structure prediction by ZEFSAII (Michael W. Deem and Ramdas Pophale) SiO2 
 PCOD8271171
Probable space group: C M M M
;
_chemical_formula_sum "Si O2"
_cell_formula_units_Z 104
_cell_length_a 19.868220
_cell_length_b 9.151141
_cell_length_c 32.756039
_cell_angle_alpha 90.000000
_cell_angle_beta 90.000000
_cell_angle_gamma 90.000000
_cell_volume 5955.600899
_symmetry_space_group_name_H-M "C M M M"
_symmetry_group_IT_number 65
_symmetry_cell_setting 'orthorhombic'
loop_
_space_group_symop_operation_xyz
x,y,z
-x,-y,z
x,-y,-z
-x,y,-z
-x,-y,-z
x,y,-z
-x,y,z
x,-y,z
1/2+x,1/2+y,z
1/2-x,1/2-y,z
1/2+x,1/2-y,-z
1/2-x,1/2+y,-z
1/2-x,1/2-y,-z
1/2+x,1/2+y,-z
1/2-x,1/2+y,z
1/2+x,1/2-y,z
loop_
_atom_site_type_symbol
_atom_site_label
_atom_site_fract_x
_atom_site_fract_y
_atom_site_fract_z
Si Si1 0.317728 0.828396 0.601370
Si Si2 0.077995 0.166885 0.547024
Si Si3 0.183312 0.670315 0.305411
Si Si4 0.580217 0.334560 0.000000
Si Si5 0.419715 0.165422 0.079430
Si Si6 0.077071 0.670657 0.238650
Si Si7 0.080097 0.835055 0.841684
O O1 0.250000 0.750000 0.585995
O O2 0.380087 0.776797 0.574596
O O3 0.333212 0.784919 0.648147
O O4 0.307929 0.000000 0.595793
O O5 0.096174 0.195851 0.500000
O O6 0.000000 0.199821 0.555060
O O7 0.095095 0.000000 0.558713
O O8 0.197548 0.500000 0.301704
O O9 0.250000 0.750000 0.289381
O O10 0.120221 0.718166 0.277873
O O11 0.607618 0.250900 0.960146
O O12 0.607979 0.500000 0.000000
O O13 0.500000 0.335627 0.000000
O O14 0.500000 0.165167 0.079663
O O15 0.391343 0.246516 0.119553
O O16 0.392142 0.000000 0.078653
O O17 0.084199 0.500000 0.228737
O O18 0.105084 0.757848 0.199634
O O19 0.000000 0.712195 0.248365
O O20 0.000000 0.834253 0.843122
O O21 0.108122 0.000000 0.843079
#
# Coordination Sequence:
#
# PCOD8271171 Si02
#       7
#    16  16  16   8  16  16  16
#     4  10  20  34  53  76 101 130 165 203 242 287
#     4   9  19  36  55  75 102 134 165 200 244 290
#     4   9  19  34  51  71  96 126 157 193 237 282
#     4   9  15  21  29  43  65  95 134 179 222 265
#     4   9  15  22  32  46  67  99 138 177 219 269
#     4   9  17  30  47  66  89 118 152 188 228 276
#     4   9  16  25  37  55  79 106 139 181 226 269
#
# _framework density 17.462554000000001
#
# number of rings (size 3 to 8) (size 9 to 14) (size 15 to 20)
#    0.000    2.846    0.000    2.077    0.000    7.385 
#    0.000    2.308    0.000    1.846    0.000    0.000 
#    0.000    0.000    0.000    0.692    0.000   10.154 
#
# Total GULP energy -644818.842404 kJ/mol
# GULP energy per Si atom -12400.362354 kJ/mol
# Density = 1.742281 g / cm^3
# Si number density = 17.462554 Si / 1000 Ang^3
#
#
#
# Elastic Constant Matrix: (Units=GPa)
#
#
# Indices 1 2 3 4 5 6 
#
# 1 57.5228 39.3299 54.3534 0.0000 0.0000 0.0000
# 2 39.3299 109.0633 64.4828 0.0000 0.0000 0.0000
# 3 54.3534 64.4828 117.6065 0.0000 0.0000 0.0000
# 4 0.0000 0.0000 0.0000 31.4265 0.0000 0.0000
# 5 0.0000 0.0000 0.0000 0.0000 1.9397 0.0000
# 6 0.0000 0.0000 0.0000 0.0000 0.0000 21.6282
#
#
#
# Elastic Compliance Matrix: (Units=1/GPa)
#
#
# Indices 1 2 3 4 5 6 
#
# 1 0.032081 -0.004147 -0.012553 0.000000 0.000000 0.000000
# 2 -0.004147 0.014103 -0.005816 0.000000 0.000000 0.000000
# 3 -0.012553 -0.005816 0.017493 0.000000 0.000000 0.000000
# 4 0.000000 0.000000 0.000000 0.031820 0.000000 0.000000
# 5 0.000000 0.000000 0.000000 0.000000 0.515535 0.000000
# 6 0.000000 0.000000 0.000000 0.000000 0.000000 0.046236
#
#
# Mechanical properties :
#
#
# Convention : Reuss Voigt Hill
#
# Bulk Modulus (GPa) = 53.63214 66.72498 60.17856
# Shear Modulus (GPa) = 7.05700 19.40066 13.22883
#
# Velocity S-wave (km/s) = 2.01246 3.33676 2.75536
# Velocity P-wave (km/s) = 6.01492 7.28962 6.68274
#
# Compressibility (1/GPa) = 0.01864554
#
# Stress axis : x y z
#
# Youngs Moduli (GPa) = 31.17096 70.90593 57.16488
#
# Poissons Ratio (x) = 0.29406 0.71758
# Poissons Ratio (y) = 0.12927 0.33247
# Poissons Ratio (z) = 0.39128 0.41239
#
# Static dielectric constant tensor:
#      x y z
#    x 2.819330 0.000000 0.000000 
#    y 0.000000 3.341450 0.000000 
#    z 0.000000 0.000000 3.379710 
# 
# 
# High freq. dielectric constant tensor:
#      x y z
#    x 1.621880 0.000000 0.000000 
#    y 0.000000 1.684330 0.000000 
#    z 0.000000 0.000000 1.683820 
# 
# From -- ./inp_files/78247.got.cif
#   From: 2010.03.12/outbox.cif.g09.slc.cpg/sg65_40_cif.got.tgz:78247.got - 2010.04.10 20:52:16.
