data_PCOD8271018
_publ_section_title
;
Structure prediction by ZEFSAII (Michael W. Deem and Ramdas Pophale) SiO2 
 PCOD8271018
Probable space group: C M M M
;
_chemical_formula_sum "Si O2"
_cell_formula_units_Z 88
_cell_length_a 22.573682
_cell_length_b 24.482858
_cell_length_c 8.984496
_cell_angle_alpha 90.000000
_cell_angle_beta 90.000000
_cell_angle_gamma 90.000000
_cell_volume 4965.445690
_symmetry_space_group_name_H-M "C M M M"
_symmetry_group_IT_number 65
_symmetry_cell_setting 'orthorhombic'
loop_
_space_group_symop_operation_xyz
x,y,z
-x,-y,z
x,-y,-z
-x,y,-z
-x,-y,-z
x,y,-z
-x,y,z
x,-y,z
1/2+x,1/2+y,z
1/2-x,1/2-y,z
1/2+x,1/2-y,-z
1/2-x,1/2+y,-z
1/2-x,1/2-y,-z
1/2+x,1/2+y,-z
1/2-x,1/2+y,z
1/2+x,1/2-y,z
loop_
_atom_site_type_symbol
_atom_site_label
_atom_site_fract_x
_atom_site_fract_y
_atom_site_fract_z
Si Si1 0.500000 0.434862 0.332009
Si Si2 0.116039 0.064574 0.832631
Si Si3 0.933825 0.438719 0.176741
Si Si4 0.334777 0.855485 0.176532
Si Si5 0.318677 0.736525 0.163409
Si Si6 0.790730 0.867725 0.675455
O O1 0.500000 0.500000 0.333068
O O2 0.500000 0.411979 0.500000
O O3 0.557405 0.411932 0.246735
O O4 0.173303 0.081100 0.738164
O O5 0.113571 0.000000 0.836658
O O6 0.119628 0.088248 0.000000
O O7 0.916151 0.500000 0.229600
O O8 0.886806 0.394679 0.238711
O O9 0.000000 0.424326 0.235372
O O10 0.933751 0.436460 0.000000
O O11 0.351787 0.792355 0.214919
O O12 0.274473 0.871850 0.257149
O O13 0.325073 0.862190 0.000000
O O14 0.250000 0.750000 0.151804
O O15 0.326884 0.687276 0.279282
O O16 0.341919 0.718319 0.000000
O O17 0.786128 0.870709 0.500000
#
# Coordination Sequence:
#
# PCOD8271018 Si02
#       6
#     8  16  16  16  16  16
#     4   9  17  31  51  73  97 125 157 193 234 281
#     4  10  20  34  52  72  96 129 167 202 239 290
#     4   8  14  26  47  75 102 127 160 202 246 295
#     4   9  17  30  49  72  98 130 165 205 249 297
#     4   8  15  29  47  66  92 126 162 201 242 292
#     4  11  21  31  47  72 100 129 162 207 256 301
#
# _framework density 17.722476
#
# number of rings (size 3 to 8) (size 9 to 14) (size 15 to 20)
#    0.000    2.818    0.000    4.091    0.000    6.182 
#    0.000    1.818    2.000    0.545    0.000    1.273 
#    0.000    0.000    0.000    0.000    0.000    0.000 
#
# Total GULP energy -545352.584998 kJ/mol
# GULP energy per Si atom -12394.376932 kJ/mol
# Density = 1.768214 g / cm^3
# Si number density = 17.722476 Si / 1000 Ang^3
#
#
#
# Elastic Constant Matrix: (Units=GPa)
#
#
# Indices 1 2 3 4 5 6 
#
# 1 101.5276 52.4653 44.4763 0.0000 0.0000 0.0000
# 2 52.4653 74.1088 24.9334 0.0000 0.0000 0.0000
# 3 44.4763 24.9334 87.6489 0.0000 0.0000 0.0000
# 4 0.0000 0.0000 0.0000 16.9406 0.0000 0.0000
# 5 0.0000 0.0000 0.0000 0.0000 7.6233 0.0000
# 6 0.0000 0.0000 0.0000 0.0000 0.0000 23.8337
#
#
#
# Elastic Compliance Matrix: (Units=1/GPa)
#
#
# Indices 1 2 3 4 5 6 
#
# 1 0.018081 -0.010742 -0.006119 0.000000 0.000000 0.000000
# 2 -0.010742 0.021303 -0.000609 0.000000 0.000000 0.000000
# 3 -0.006119 -0.000609 0.014688 0.000000 0.000000 0.000000
# 4 0.000000 0.000000 0.000000 0.059030 0.000000 0.000000
# 5 0.000000 0.000000 0.000000 0.000000 0.131177 0.000000
# 6 0.000000 0.000000 0.000000 0.000000 0.000000 0.041957
#
#
# Mechanical properties :
#
#
# Convention : Reuss Voigt Hill
#
# Bulk Modulus (GPa) = 52.27060 56.33726 54.30393
# Shear Modulus (GPa) = 15.26463 19.10687 17.18575
#
# Velocity S-wave (km/s) = 2.93800 3.28703 3.11740
# Velocity P-wave (km/s) = 6.40836 6.80174 6.60798
#
# Compressibility (1/GPa) = 0.01913121
#
# Stress axis : x y z
#
# Youngs Moduli (GPa) = 55.30632 46.94109 68.08426
#
# Poissons Ratio (x) = 0.50423 0.41663
# Poissons Ratio (y) = 0.59408 0.04149
# Poissons Ratio (z) = 0.33844 0.02861
#
# Static dielectric constant tensor:
#      x y z
#    x 3.298200 0.000000 0.000000 
#    y 0.000000 3.522020 0.000000 
#    z 0.000000 0.000000 3.159660 
# 
# 
# High freq. dielectric constant tensor:
#      x y z
#    x 1.667700 0.000000 0.000000 
#    y 0.000000 1.677950 0.000000 
#    z 0.000000 0.000000 1.667670 
# 
# From -- ./inp_files/11727.got.cif
#   From: 2010.03.12/outbox.cif.g09.slc.cpg/sg65_6_cif.got.tgz:11727.got - 2010.04.10 20:52:16.
