data_PCOD8271580
_publ_section_title
;
Structure prediction by ZEFSAII (Michael W. Deem and Ramdas Pophale) SiO2 
 PCOD8271580
Probable space group: C M M M
;
_chemical_formula_sum "Si O2"
_cell_formula_units_Z 80
_cell_length_a 8.822562
_cell_length_b 28.662305
_cell_length_c 15.565340
_cell_angle_alpha 90.000000
_cell_angle_beta 90.000000
_cell_angle_gamma 90.000000
_cell_volume 3936.084775
_symmetry_space_group_name_H-M "C M M M"
_symmetry_group_IT_number 65
_symmetry_cell_setting 'orthorhombic'
loop_
_space_group_symop_operation_xyz
x,y,z
-x,-y,z
x,-y,-z
-x,y,-z
-x,-y,-z
x,y,-z
-x,y,z
x,-y,z
1/2+x,1/2+y,z
1/2-x,1/2-y,z
1/2+x,1/2-y,-z
1/2-x,1/2+y,-z
1/2-x,1/2-y,-z
1/2+x,1/2+y,-z
1/2-x,1/2+y,z
1/2+x,1/2-y,z
loop_
_atom_site_type_symbol
_atom_site_label
_atom_site_fract_x
_atom_site_fract_y
_atom_site_fract_z
Si Si1 0.673943 0.857774 0.903748
Si Si2 0.821411 0.800484 0.753290
Si Si3 0.674310 0.947749 0.667887
Si Si4 0.175007 0.862919 0.404750
Si Si5 0.176907 0.052634 0.848920
O O1 0.500000 0.855588 0.874052
O O2 0.773640 0.828105 0.838266
O O3 0.729025 0.911392 0.906411
O O4 0.692862 0.837361 0.000000
O O5 0.750000 0.750000 0.753964
O O6 0.765235 0.826970 0.667281
O O7 0.000000 0.794977 0.753744
O O8 0.500000 0.939004 0.693432
O O9 0.728449 0.910611 0.597574
O O10 0.778862 0.939783 0.750358
O O11 0.695886 0.000000 0.630750
O O12 0.197782 0.841072 0.500000
O O13 0.000000 0.875140 0.387867
O O14 0.000000 0.063257 0.859474
O O15 0.216032 0.000000 0.878885
#
# Coordination Sequence:
#
# PCOD8271580 Si02
#       5
#    16  16  16  16  16
#     4  11  24  41  63  92 125 160 201 250 302 358
#     4  11  24  43  67  91 119 157 199 251 308 364
#     4  10  20  34  56  87 123 163 206 250 296 350
#     4  10  22  40  62  90 123 160 203 248 299 360
#     4  10  20  35  58  88 123 164 206 247 296 355
#
# _framework density 20.324766
#
# number of rings (size 3 to 8) (size 9 to 14) (size 15 to 20)
#    0.000    1.600    2.000    2.400    0.000    6.800 
#    0.000    4.000    0.000    0.000    0.000    0.000 
#    0.000    0.000    0.000    0.000    0.000    0.000 
#
# Total GULP energy -496076.031324 kJ/mol
# GULP energy per Si atom -12401.900783 kJ/mol
# Density = 2.027851 g / cm^3
# Si number density = 20.324766 Si / 1000 Ang^3
#
#
#
# Elastic Constant Matrix: (Units=GPa)
#
#
# Indices 1 2 3 4 5 6 
#
# 1 63.5862 38.8190 30.0511 0.0000 0.0000 0.0000
# 2 38.8190 126.7769 55.2906 0.0000 0.0000 0.0000
# 3 30.0511 55.2906 113.2053 0.0000 0.0000 0.0000
# 4 0.0000 0.0000 0.0000 9.7979 0.0000 0.0000
# 5 0.0000 0.0000 0.0000 0.0000 25.8568 0.0000
# 6 0.0000 0.0000 0.0000 0.0000 0.0000 37.3080
#
#
#
# Elastic Compliance Matrix: (Units=1/GPa)
#
#
# Indices 1 2 3 4 5 6 
#
# 1 0.020093 -0.004862 -0.002959 0.000000 0.000000 0.000000
# 2 -0.004862 0.011199 -0.004179 0.000000 0.000000 0.000000
# 3 -0.002959 -0.004179 0.011660 0.000000 0.000000 0.000000
# 4 0.000000 0.000000 0.000000 0.102063 0.000000 0.000000
# 5 0.000000 0.000000 0.000000 0.000000 0.038675 0.000000
# 6 0.000000 0.000000 0.000000 0.000000 0.000000 0.026804
#
#
# Mechanical properties :
#
#
# Convention : Reuss Voigt Hill
#
# Bulk Modulus (GPa) = 52.76480 61.32108 57.04294
# Shear Modulus (GPa) = 20.76301 26.55303 23.65802
#
# Velocity S-wave (km/s) = 3.19966 3.61839 3.41545
# Velocity P-wave (km/s) = 6.29822 6.90602 6.60911
#
# Compressibility (1/GPa) = 0.01895203
#
# Stress axis : x y z
#
# Youngs Moduli (GPa) = 49.76736 89.29167 85.76157
#
# Poissons Ratio (x) = 0.43413 0.25380
# Poissons Ratio (y) = 0.24197 0.35841
# Poissons Ratio (z) = 0.14728 0.37317
#
# Static dielectric constant tensor:
#      x y z
#    x 3.695000 0.000000 0.000000 
#    y 0.000000 3.758580 0.000000 
#    z 0.000000 0.000000 3.587270 
# 
# 
# High freq. dielectric constant tensor:
#      x y z
#    x 1.801520 0.000000 0.000000 
#    y 0.000000 1.790830 0.000000 
#    z 0.000000 0.000000 1.789390 
# 
# From -- ./inp_files/49872.got.cif
#   From: 2010.03.12/outbox.cif.g09.slc.cpg/sg65_25_cif.got.tgz:49872.got - 2010.04.10 20:52:16.
