data_PCOD8271721
_publ_section_title
;
Structure prediction by ZEFSAII (Michael W. Deem and Ramdas Pophale) SiO2 
 PCOD8271721
Probable space group: C M M M
;
_chemical_formula_sum "Si O2"
_cell_formula_units_Z 104
_cell_length_a 23.573924
_cell_length_b 26.319771
_cell_length_c 9.198270
_cell_angle_alpha 90.000000
_cell_angle_beta 90.000000
_cell_angle_gamma 90.000000
_cell_volume 5707.161191
_symmetry_space_group_name_H-M "C M M M"
_symmetry_group_IT_number 65
_symmetry_cell_setting 'orthorhombic'
loop_
_space_group_symop_operation_xyz
x,y,z
-x,-y,z
x,-y,-z
-x,y,-z
-x,-y,-z
x,y,-z
-x,y,z
x,-y,z
1/2+x,1/2+y,z
1/2-x,1/2-y,z
1/2+x,1/2-y,-z
1/2-x,1/2+y,-z
1/2-x,1/2-y,-z
1/2+x,1/2+y,-z
1/2-x,1/2+y,z
1/2+x,1/2-y,z
loop_
_atom_site_type_symbol
_atom_site_label
_atom_site_fract_x
_atom_site_fract_y
_atom_site_fract_z
Si Si1 0.067457 0.391051 0.335163
Si Si2 0.649556 0.558070 0.670071
Si Si3 0.760696 0.141637 0.670982
Si Si4 0.848979 0.328029 0.830180
Si Si5 0.435464 0.372356 0.830632
Si Si6 0.938412 0.500000 0.328624
Si Si7 0.154960 0.789529 0.168024
O O1 0.086067 0.377607 0.500000
O O2 0.091288 0.350132 0.222958
O O3 0.092684 0.446942 0.288446
O O4 0.000000 0.391467 0.322699
O O5 0.637068 0.561811 0.500000
O O6 0.658685 0.500000 0.720192
O O7 0.706211 0.589593 0.710603
O O8 0.594887 0.581132 0.749723
O O9 0.753060 0.148171 0.500000
O O10 0.699650 0.141137 0.745930
O O11 0.794970 0.189511 0.732382
O O12 0.851448 0.268917 0.790296
O O13 0.840582 0.336847 0.000000
O O14 0.500000 0.367117 0.774316
O O15 0.403594 0.319150 0.798123
O O16 0.433944 0.385294 0.000000
O O17 0.948017 0.500000 0.500000
O O18 0.000000 0.500000 0.251844
O O19 0.172643 0.796565 0.000000
#
# Coordination Sequence:
#
# PCOD8271721 Si02
#       7
#    16  16  16  16  16   8  16
#     4   9  18  34  55  77 101 131 169 211 253 299
#     4   9  19  36  55  75 102 136 172 212 260 309
#     4  10  20  35  55  76  99 131 174 220 260 304
#     4  11  22  34  51  77 107 137 170 209 257 313
#     4   9  18  33  53  77 104 136 175 212 249 302
#     4   7  12  28  53  73  91 123 163 199 240 289
#     4   9  19  35  53  72 101 140 174 209 256 307
#
# _framework density 18.222719999999999
#
# number of rings (size 3 to 8) (size 9 to 14) (size 15 to 20)
#    0.000    2.692    0.000    2.308    0.000    5.538 
#    1.385    3.462    0.000    1.385    0.000    0.000 
#    0.000    0.000    0.000    0.000    0.000    0.000 
#
# Total GULP energy -644646.000795 kJ/mol
# GULP energy per Si atom -12397.038477 kJ/mol
# Density = 1.818124 g / cm^3
# Si number density = 18.222720 Si / 1000 Ang^3
#
#
#
# Elastic Constant Matrix: (Units=GPa)
#
#
# Indices 1 2 3 4 5 6 
#
# 1 81.8465 53.7529 37.8479 0.0000 0.0000 0.0000
# 2 53.7529 119.6900 48.7748 0.0000 0.0000 0.0000
# 3 37.8479 48.7748 59.0776 0.0000 0.0000 0.0000
# 4 0.0000 0.0000 0.0000 27.8807 0.0000 0.0000
# 5 0.0000 0.0000 0.0000 0.0000 30.3048 0.0000
# 6 0.0000 0.0000 0.0000 0.0000 0.0000 16.9053
#
#
#
# Elastic Compliance Matrix: (Units=1/GPa)
#
#
# Indices 1 2 3 4 5 6 
#
# 1 0.019523 -0.005532 -0.007940 0.000000 0.000000 0.000000
# 2 -0.005532 0.014159 -0.008145 0.000000 0.000000 0.000000
# 3 -0.007940 -0.008145 0.028738 0.000000 0.000000 0.000000
# 4 0.000000 0.000000 0.000000 0.035867 0.000000 0.000000
# 5 0.000000 0.000000 0.000000 0.000000 0.032998 0.000000
# 6 0.000000 0.000000 0.000000 0.000000 0.000000 0.059153
#
#
# Mechanical properties :
#
#
# Convention : Reuss Voigt Hill
#
# Bulk Modulus (GPa) = 52.12355 60.15170 56.13763
# Shear Modulus (GPa) = 20.82741 23.03405 21.93073
#
# Velocity S-wave (km/s) = 3.38440 3.55918 3.47289
# Velocity P-wave (km/s) = 6.62857 7.06903 6.85234
#
# Compressibility (1/GPa) = 0.01918519
#
# Stress axis : x y z
#
# Youngs Moduli (GPa) = 51.22203 70.62789 34.79661
#
# Poissons Ratio (x) = 0.39072 0.27628
# Poissons Ratio (y) = 0.28337 0.28343
# Poissons Ratio (z) = 0.40670 0.57529
#
# Static dielectric constant tensor:
#      x y z
#    x 3.325280 0.000000 0.000000 
#    y 0.000000 3.552190 0.000000 
#    z 0.000000 0.000000 3.265600 
# 
# 
# High freq. dielectric constant tensor:
#      x y z
#    x 1.697690 0.000000 0.000000 
#    y 0.000000 1.712150 0.000000 
#    z 0.000000 0.000000 1.696990 
# 
# From -- ./inp_files/12429.got.cif
#   From: 2010.03.12/outbox.cif.g09.slc.cpg/sg65_7_cif.got.tgz:12429.got - 2010.04.10 20:52:16.
