data_PCOD8271088
_publ_section_title
;
Structure prediction by ZEFSAII (Michael W. Deem and Ramdas Pophale) SiO2 
 PCOD8271088
Probable space group: C M M M
;
_chemical_formula_sum "Si O2"
_cell_formula_units_Z 104
_cell_length_a 17.581549
_cell_length_b 26.723847
_cell_length_c 12.470273
_cell_angle_alpha 90.000000
_cell_angle_beta 90.000000
_cell_angle_gamma 90.000000
_cell_volume 5859.115688
_symmetry_space_group_name_H-M "C M M M"
_symmetry_group_IT_number 65
_symmetry_cell_setting 'orthorhombic'
loop_
_space_group_symop_operation_xyz
x,y,z
-x,-y,z
x,-y,-z
-x,y,-z
-x,-y,-z
x,y,-z
-x,y,z
x,-y,z
1/2+x,1/2+y,z
1/2-x,1/2-y,z
1/2+x,1/2-y,-z
1/2-x,1/2+y,-z
1/2-x,1/2-y,-z
1/2+x,1/2+y,-z
1/2-x,1/2+y,z
1/2+x,1/2-y,z
loop_
_atom_site_type_symbol
_atom_site_label
_atom_site_fract_x
_atom_site_fract_y
_atom_site_fract_z
Si Si1 0.164283 0.442619 0.377174
Si Si2 0.731712 0.806344 0.000000
Si Si3 0.586443 0.442335 0.123064
Si Si4 0.586036 0.865972 0.234239
Si Si5 0.318899 0.400245 0.307603
Si Si6 0.082569 0.645389 0.000000
Si Si7 0.090081 0.942291 0.500000
Si Si8 0.762649 0.309013 0.765427
O O1 0.168385 0.423825 0.500000
O O2 0.139896 0.500000 0.371289
O O3 0.100441 0.411928 0.313682
O O4 0.246232 0.435822 0.322440
O O5 0.750000 0.750000 0.000000
O O6 0.761787 0.827736 0.886292
O O7 0.640425 0.808777 0.000000
O O8 0.500000 0.423861 0.140617
O O9 0.592745 0.500000 0.158210
O O10 0.643760 0.409789 0.192710
O O11 0.610662 0.435458 0.000000
O O12 0.500000 0.845662 0.254713
O O13 0.593598 0.886275 0.110414
O O14 0.648110 0.821987 0.255487
O O15 0.380878 0.412171 0.397346
O O16 0.290682 0.342189 0.312907
O O17 0.000000 0.670895 0.000000
O O18 0.000000 0.941276 0.500000
O O19 0.119502 0.000000 0.500000
O O20 0.750000 0.250000 0.744903
#
# Coordination Sequence:
#
# PCOD8271088 Si02
#       8
#    16   8  16  16  16   8   8  16
#     4  10  20  34  52  75 103 132 170 219 264 306
#     4   8  14  28  50  75 103 129 171 215 256 311
#     4   9  18  32  50  76 112 148 177 214 272 334
#     4   9  18  33  54  76 103 136 173 209 257 313
#     4  11  20  33  56  77 106 141 182 224 266 316
#     4   8  14  28  49  72  98 131 164 204 246 300
#     4  11  22  36  57  82 107 143 188 225 264 320
#     4   9  19  34  54  81 106 141 178 220 270 315
#
# _framework density 17.750118000000001
#
# number of rings (size 3 to 8) (size 9 to 14) (size 15 to 20)
#    0.000    2.538    0.769    2.308    1.077    1.846 
#    1.385    3.077    0.000    3.231    0.000    0.000 
#    0.000    0.000    0.000    0.000    0.000    0.000 
#
# Total GULP energy -644226.039736 kJ/mol
# GULP energy per Si atom -12388.962303 kJ/mol
# Density = 1.770972 g / cm^3
# Si number density = 17.750118 Si / 1000 Ang^3
#
#
#
# Elastic Constant Matrix: (Units=GPa)
#
#
# Indices 1 2 3 4 5 6 
#
# 1 93.5716 49.7560 54.5021 0.0000 0.0000 0.0000
# 2 49.7560 98.3588 51.6068 0.0000 0.0000 0.0000
# 3 54.5021 51.6068 89.2949 0.0000 0.0000 0.0000
# 4 0.0000 0.0000 0.0000 22.0360 0.0000 0.0000
# 5 0.0000 0.0000 0.0000 0.0000 30.9301 0.0000
# 6 0.0000 0.0000 0.0000 0.0000 0.0000 20.2646
#
#
#
# Elastic Compliance Matrix: (Units=1/GPa)
#
#
# Indices 1 2 3 4 5 6 
#
# 1 0.018037 -0.004805 -0.008232 0.000000 0.000000 0.000000
# 2 -0.004805 0.015871 -0.006240 0.000000 0.000000 0.000000
# 3 -0.008232 -0.006240 0.019830 0.000000 0.000000 0.000000
# 4 0.000000 0.000000 0.000000 0.045380 0.000000 0.000000
# 5 0.000000 0.000000 0.000000 0.000000 0.032331 0.000000
# 6 0.000000 0.000000 0.000000 0.000000 0.000000 0.049347
#
#
# Mechanical properties :
#
#
# Convention : Reuss Voigt Hill
#
# Bulk Modulus (GPa) = 65.85837 65.88390 65.87114
# Shear Modulus (GPa) = 22.28048 23.00349 22.64199
#
# Velocity S-wave (km/s) = 3.54677 3.60385 3.57542
# Velocity P-wave (km/s) = 7.34550 7.38343 7.36449
#
# Compressibility (1/GPa) = 0.01518410
#
# Stress axis : x y z
#
# Youngs Moduli (GPa) = 55.44194 63.00604 50.42958
#
# Poissons Ratio (x) = 0.30274 0.41514
# Poissons Ratio (y) = 0.26640 0.31468
# Poissons Ratio (z) = 0.45640 0.39315
#
# Static dielectric constant tensor:
#      x y z
#    x 3.270480 0.000000 0.000000 
#    y 0.000000 2.944880 0.000000 
#    z 0.000000 0.000000 3.179100 
# 
# 
# High freq. dielectric constant tensor:
#      x y z
#    x 1.690530 0.000000 0.000000 
#    y 0.000000 1.649590 0.000000 
#    z 0.000000 0.000000 1.697330 
# 
# From -- ./inp_files/27522.got.cif
#   From: 2010.03.12/outbox.cif.g09.slc.cpg/sg65_14_cif.got.tgz:27522.got - 2010.04.10 20:52:16.
