data_PCOD8271978
_publ_section_title
;
Structure prediction by ZEFSAII (Michael W. Deem and Ramdas Pophale) SiO2 
 PCOD8271978
Probable space group: C M M M
;
_chemical_formula_sum "Si O2"
_cell_formula_units_Z 104
_cell_length_a 9.049175
_cell_length_b 21.101159
_cell_length_c 28.386781
_cell_angle_alpha 90.000000
_cell_angle_beta 90.000000
_cell_angle_gamma 90.000000
_cell_volume 5420.401343
_symmetry_space_group_name_H-M "C M M M"
_symmetry_group_IT_number 65
_symmetry_cell_setting 'orthorhombic'
loop_
_space_group_symop_operation_xyz
x,y,z
-x,-y,z
x,-y,-z
-x,y,-z
-x,-y,-z
x,y,-z
-x,y,z
x,-y,z
1/2+x,1/2+y,z
1/2-x,1/2-y,z
1/2+x,1/2-y,-z
1/2-x,1/2+y,-z
1/2-x,1/2-y,-z
1/2+x,1/2+y,-z
1/2-x,1/2+y,z
1/2+x,1/2-y,z
loop_
_atom_site_type_symbol
_atom_site_label
_atom_site_fract_x
_atom_site_fract_y
_atom_site_fract_z
Si Si1 0.173961 0.814443 0.607617
Si Si2 0.174859 0.500000 0.051466
Si Si3 0.174709 0.392785 0.121122
Si Si4 0.330049 0.928070 0.555317
Si Si5 0.828921 0.813471 0.949573
Si Si6 0.327461 0.313541 0.283828
Si Si7 0.827802 0.072117 0.217372
O O1 0.250000 0.750000 0.588054
O O2 0.228439 0.876913 0.580968
O O3 0.217225 0.823749 0.662046
O O4 0.000000 0.807521 0.599847
O O5 0.228834 0.440518 0.080848
O O6 0.000000 0.500000 0.047080
O O7 0.249121 0.500000 0.000000
O O8 0.249299 0.331253 0.099689
O O9 0.235528 0.413987 0.171045
O O10 0.000000 0.386302 0.125782
O O11 0.306816 0.919570 0.500000
O O12 0.500000 0.915748 0.569089
O O13 0.284735 0.000000 0.570113
O O14 0.750000 0.750000 0.963168
O O15 0.000000 0.805015 0.937272
O O16 0.811135 0.853068 0.000000
O O17 0.500000 0.302308 0.277740
O O18 0.250000 0.250000 0.263496
O O19 0.276236 0.377084 0.256620
O O20 0.000000 0.080345 0.205838
O O21 0.795128 0.000000 0.234889
#
# Coordination Sequence:
#
# PCOD8271978 Si02
#       7
#    16   8  16  16  16  16  16
#     4  10  20  35  57  84 114 148 192 242 291 345
#     4   9  18  32  51  75 103 135 169 207 254 305
#     4  11  21  35  55  79 108 139 174 215 262 316
#     4   9  19  36  56  80 115 157 197 239 290 345
#     4  10  21  37  56  79 106 137 174 214 258 312
#     4   9  20  38  59  83 110 145 186 233 289 343
#     4  10  21  38  58  79 110 147 184 229 280 333
#
# _framework density 19.186771
#
# number of rings (size 3 to 8) (size 9 to 14) (size 15 to 20)
#    0.000    2.231    0.769    2.308    0.000    4.923 
#    0.000    3.846    0.000    1.846    0.000    0.000 
#    0.000    0.000    0.000    0.000    0.000    0.000 
#
# Total GULP energy -644272.820996 kJ/mol
# GULP energy per Si atom -12389.861942 kJ/mol
# Density = 1.914310 g / cm^3
# Si number density = 19.186771 Si / 1000 Ang^3
#
#
#
# Elastic Constant Matrix: (Units=GPa)
#
#
# Indices 1 2 3 4 5 6 
#
# 1 81.0184 58.3429 45.2458 0.0000 0.0000 0.0000
# 2 58.3429 138.8323 63.7184 0.0000 0.0000 0.0000
# 3 45.2458 63.7184 80.7247 0.0000 0.0000 0.0000
# 4 0.0000 0.0000 0.0000 41.4303 0.0000 0.0000
# 5 0.0000 0.0000 0.0000 0.0000 29.2708 0.0000
# 6 0.0000 0.0000 0.0000 0.0000 0.0000 30.2267
#
#
#
# Elastic Compliance Matrix: (Units=1/GPa)
#
#
# Indices 1 2 3 4 5 6 
#
# 1 0.020050 -0.005125 -0.007193 0.000000 0.000000 0.000000
# 2 -0.005125 0.012604 -0.007077 0.000000 0.000000 0.000000
# 3 -0.007193 -0.007077 0.022005 0.000000 0.000000 0.000000
# 4 0.000000 0.000000 0.000000 0.024137 0.000000 0.000000
# 5 0.000000 0.000000 0.000000 0.000000 0.034164 0.000000
# 6 0.000000 0.000000 0.000000 0.000000 0.000000 0.033083
#
#
# Mechanical properties :
#
#
# Convention : Reuss Voigt Hill
#
# Bulk Modulus (GPa) = 63.00717 70.57663 66.79190
# Shear Modulus (GPa) = 26.29872 29.07011 27.68442
#
# Velocity S-wave (km/s) = 3.70627 3.89667 3.80266
# Velocity P-wave (km/s) = 7.15719 7.55706 7.35984
#
# Compressibility (1/GPa) = 0.01587121
#
# Stress axis : x y z
#
# Youngs Moduli (GPa) = 49.87465 79.33722 45.44348
#
# Poissons Ratio (x) = 0.40657 0.32688
# Poissons Ratio (y) = 0.25559 0.32159
# Poissons Ratio (z) = 0.35875 0.56145
#
# Static dielectric constant tensor:
#      x y z
#    x 3.397680 0.000000 0.000000 
#    y 0.000000 3.642810 0.000000 
#    z 0.000000 0.000000 3.489480 
# 
# 
# High freq. dielectric constant tensor:
#      x y z
#    x 1.741880 0.000000 0.000000 
#    y 0.000000 1.751770 0.000000 
#    z 0.000000 0.000000 1.743040 
# 
# From -- ./inp_files/73328.got.cif
#   From: 2010.03.12/outbox.cif.g09.slc.cpg/sg65_37_cif.got.tgz:73328.got - 2010.04.10 20:52:16.
