data_PCOD8271548
_publ_section_title
;
Structure prediction by ZEFSAII (Michael W. Deem and Ramdas Pophale) SiO2 
 PCOD8271548
Probable space group: C M M M
;
_chemical_formula_sum "Si O2"
_cell_formula_units_Z 88
_cell_length_a 23.721141
_cell_length_b 20.089083
_cell_length_c 9.103846
_cell_angle_alpha 90.000000
_cell_angle_beta 90.000000
_cell_angle_gamma 90.000000
_cell_volume 4338.310088
_symmetry_space_group_name_H-M "C M M M"
_symmetry_group_IT_number 65
_symmetry_cell_setting 'orthorhombic'
loop_
_space_group_symop_operation_xyz
x,y,z
-x,-y,z
x,-y,-z
-x,y,-z
-x,-y,-z
x,y,-z
-x,y,z
x,-y,z
1/2+x,1/2+y,z
1/2-x,1/2-y,z
1/2+x,1/2-y,-z
1/2-x,1/2+y,-z
1/2-x,1/2-y,-z
1/2+x,1/2+y,-z
1/2-x,1/2+y,z
1/2+x,1/2-y,z
loop_
_atom_site_type_symbol
_atom_site_label
_atom_site_fract_x
_atom_site_fract_y
_atom_site_fract_z
Si Si1 0.831946 0.073338 0.830549
Si Si2 0.436055 0.000000 0.326603
Si Si3 0.625033 0.866246 0.668396
Si Si4 0.436157 0.383268 0.327803
Si Si5 0.435860 0.752440 0.167189
Si Si6 0.748668 0.326459 0.667765
O O1 0.893184 0.068451 0.754693
O O2 0.795375 0.131793 0.761272
O O3 0.803930 0.000000 0.810286
O O4 0.840199 0.090771 0.000000
O O5 0.400482 0.064043 0.274805
O O6 0.500000 0.000000 0.260306
O O7 0.440545 0.000000 0.500000
O O8 0.606325 0.851924 0.500000
O O9 0.602981 0.811421 0.778874
O O10 0.692310 0.864952 0.681495
O O11 0.424665 0.386210 0.500000
O O12 0.500000 0.405449 0.290237
O O13 0.424253 0.309031 0.272882
O O14 0.500000 0.776651 0.179292
O O15 0.420305 0.733292 0.000000
O O16 0.727507 0.325717 0.500000
O O17 0.750000 0.250000 0.725818
#
# Coordination Sequence:
#
# PCOD8271548 Si02
#       6
#    16   8  16  16  16  16
#     4  11  25  42  61  88 123 161 198 239 296 361
#     4   9  18  32  51  79 113 151 198 249 300 357
#     4  10  20  34  56  82 112 152 200 251 302 356
#     4  10  21  38  62  90 118 152 196 244 294 347
#     4  10  20  34  55  85 120 156 194 240 298 359
#     4  10  22  39  61  89 118 152 202 257 305 357
#
# _framework density 20.284396999999998
#
# number of rings (size 3 to 8) (size 9 to 14) (size 15 to 20)
#    0.000    1.909    0.000    3.273    1.273    7.273 
#    0.000    2.273    0.000    1.636    0.000    0.000 
#    0.000    0.000    0.000    0.000    0.000    0.000 
#
# Total GULP energy -545623.689131 kJ/mol
# GULP energy per Si atom -12400.538389 kJ/mol
# Density = 2.023823 g / cm^3
# Si number density = 20.284397 Si / 1000 Ang^3
#
#
#
# Elastic Constant Matrix: (Units=GPa)
#
#
# Indices 1 2 3 4 5 6 
#
# 1 103.0131 58.1917 48.7471 0.0000 0.0000 0.0000
# 2 58.1917 112.7972 48.2603 0.0000 0.0000 0.0000
# 3 48.7471 48.2603 95.9075 0.0000 0.0000 0.0000
# 4 0.0000 0.0000 0.0000 27.7377 0.0000 0.0000
# 5 0.0000 0.0000 0.0000 0.0000 25.4081 0.0000
# 6 0.0000 0.0000 0.0000 0.0000 0.0000 37.3854
#
#
#
# Elastic Compliance Matrix: (Units=1/GPa)
#
#
# Indices 1 2 3 4 5 6 
#
# 1 0.015283 -0.005812 -0.004843 0.000000 0.000000 0.000000
# 2 -0.005812 0.013508 -0.003843 0.000000 0.000000 0.000000
# 3 -0.004843 -0.003843 0.014822 0.000000 0.000000 0.000000
# 4 0.000000 0.000000 0.000000 0.036052 0.000000 0.000000
# 5 0.000000 0.000000 0.000000 0.000000 0.039358 0.000000
# 6 0.000000 0.000000 0.000000 0.000000 0.000000 0.026748
#
#
# Mechanical properties :
#
#
# Convention : Reuss Voigt Hill
#
# Bulk Modulus (GPa) = 68.41686 69.12400 68.77043
# Shear Modulus (GPa) = 27.83350 28.54081 28.18716
#
# Velocity S-wave (km/s) = 3.70829 3.75511 3.73178
# Velocity P-wave (km/s) = 7.22061 7.27685 7.24879
#
# Compressibility (1/GPa) = 0.01461628
#
# Stress axis : x y z
#
# Youngs Moduli (GPa) = 65.43417 74.02906 67.46651
#
# Poissons Ratio (x) = 0.43026 0.32674
# Poissons Ratio (y) = 0.38031 0.25928
# Poissons Ratio (z) = 0.31690 0.28451
#
# Static dielectric constant tensor:
#      x y z
#    x 3.863950 0.000000 0.000000 
#    y 0.000000 3.769250 0.000000 
#    z 0.000000 0.000000 3.603890 
# 
# 
# High freq. dielectric constant tensor:
#      x y z
#    x 1.797720 0.000000 0.000000 
#    y 0.000000 1.796430 0.000000 
#    z 0.000000 0.000000 1.783050 
# 
# From -- ./inp_files/13980.got.cif
#   From: 2010.03.12/outbox.cif.g09.slc.cpg/sg65_7_cif.got.tgz:13980.got - 2010.04.10 20:52:16.
