data_PCOD8271207
_publ_section_title
;
Structure prediction by ZEFSAII (Michael W. Deem and Ramdas Pophale) SiO2 
 PCOD8271207
Probable space group: C M M M
;
_chemical_formula_sum "Si O2"
_cell_formula_units_Z 80
_cell_length_a 8.316018
_cell_length_b 27.105993
_cell_length_c 19.270443
_cell_angle_alpha 90.000000
_cell_angle_beta 90.000000
_cell_angle_gamma 90.000000
_cell_volume 4343.826207
_symmetry_space_group_name_H-M "C M M M"
_symmetry_group_IT_number 65
_symmetry_cell_setting 'orthorhombic'
loop_
_space_group_symop_operation_xyz
x,y,z
-x,-y,z
x,-y,-z
-x,y,-z
-x,-y,-z
x,y,-z
-x,y,z
x,-y,z
1/2+x,1/2+y,z
1/2-x,1/2-y,z
1/2+x,1/2-y,-z
1/2-x,1/2+y,-z
1/2-x,1/2-y,-z
1/2+x,1/2+y,-z
1/2-x,1/2+y,z
1/2+x,1/2-y,z
loop_
_atom_site_type_symbol
_atom_site_label
_atom_site_fract_x
_atom_site_fract_y
_atom_site_fract_z
Si Si1 0.816412 0.888773 0.918836
Si Si2 0.500000 0.946392 0.082055
Si Si3 0.310924 0.896432 0.578407
Si Si4 0.312873 0.500000 0.580499
Si Si5 0.315041 0.300451 0.181779
Si Si6 0.310070 0.696699 0.335862
O O1 0.671028 0.923775 0.893803
O O2 0.777529 0.840407 0.875866
O O3 0.000000 0.908887 0.903021
O O4 0.802320 0.876549 0.000000
O O5 0.500000 0.000000 0.115911
O O6 0.500000 0.948072 0.000000
O O7 0.242038 0.893109 0.500000
O O8 0.500000 0.894947 0.578604
O O9 0.248994 0.849046 0.619119
O O10 0.256713 0.948909 0.613005
O O11 0.500000 0.500000 0.594647
O O12 0.264683 0.500000 0.500000
O O13 0.500000 0.294327 0.195950
O O14 0.250000 0.250000 0.149769
O O15 0.239091 0.311620 0.257742
O O16 0.500000 0.696649 0.338479
O O17 0.250000 0.750000 0.364549
#
# Coordination Sequence:
#
# PCOD8271207 Si02
#       6
#    16   8  16   8  16  16
#     4   9  18  33  52  77 108 137 172 219 264 309
#     4   9  18  32  52  78 104 136 177 217 264 314
#     4  10  20  34  53  77 104 133 168 212 257 305
#     4   9  17  31  53  79 103 131 166 203 254 309
#     4   9  19  33  51  75 101 136 172 206 255 309
#     4  10  20  35  53  74 102 136 175 213 255 310
#
# _framework density 18.416943
#
# number of rings (size 3 to 8) (size 9 to 14) (size 15 to 20)
#    0.000    2.600    0.000    1.500    1.400    4.400 
#    0.000    2.000    2.200    0.000    0.000    0.000 
#    0.000    0.000    0.000    0.000    0.000    0.000 
#
# Total GULP energy -495551.462191 kJ/mol
# GULP energy per Si atom -12388.786555 kJ/mol
# Density = 1.837503 g / cm^3
# Si number density = 18.416943 Si / 1000 Ang^3
#
#
#
# Elastic Constant Matrix: (Units=GPa)
#
#
# Indices 1 2 3 4 5 6 
#
# 1 94.2580 78.8329 32.7180 0.0000 0.0000 0.0000
# 2 78.8329 179.9068 57.5897 0.0000 0.0000 0.0000
# 3 32.7180 57.5897 49.7808 0.0000 0.0000 0.0000
# 4 0.0000 0.0000 0.0000 -14.7622 0.0000 0.0000
# 5 0.0000 0.0000 0.0000 0.0000 17.9452 0.0000
# 6 0.0000 0.0000 0.0000 0.0000 0.0000 38.3385
#
#
#
# Elastic Compliance Matrix: (Units=1/GPa)
#
#
# Indices 1 2 3 4 5 6 
#
# 1 0.017263 -0.006245 -0.004121 0.000000 0.000000 0.000000
# 2 -0.006245 0.011087 -0.008721 0.000000 0.000000 0.000000
# 3 -0.004121 -0.008721 0.032886 0.000000 0.000000 0.000000
# 4 0.000000 0.000000 0.000000 -0.067741 0.000000 0.000000
# 5 0.000000 0.000000 0.000000 0.000000 0.055725 0.000000
# 6 0.000000 0.000000 0.000000 0.000000 0.000000 0.026083
#
#
# Mechanical properties :
#
#
# Convention : Reuss Voigt Hill
#
# Bulk Modulus (GPa) = 43.36413 73.58074 58.47243
# Shear Modulus (GPa) = 41.26586 18.62462 29.94524
#
# Velocity S-wave (km/s) = 4.73868 3.18351 4.03670
# Velocity P-wave (km/s) = 7.31690 7.31795 7.31743
#
# Compressibility (1/GPa) = 0.02306054
#
# Stress axis : x y z
#
# Youngs Moduli (GPa) = 57.92802 90.19778 30.40814
#
# Poissons Ratio (x) = 0.56330 0.12531
# Poissons Ratio (y) = 0.36177 0.26520
# Poissons Ratio (z) = 0.23872 0.78664
#
# Static dielectric constant tensor:
#      x y z
#    x 3.649260 0.000000 0.000000 
#    y 0.000000 3.458130 0.000000 
#    z 0.000000 0.000000 3.401330 
# 
# 
# High freq. dielectric constant tensor:
#      x y z
#    x 1.730050 0.000000 0.000000 
#    y 0.000000 1.719100 0.000000 
#    z 0.000000 0.000000 1.683520 
# 
# From -- ./inp_files/49951.got.cif
#   From: 2010.03.12/outbox.cif.g09.slc.cpg/sg65_25_cif.got.tgz:49951.got - 2010.04.10 20:52:16.
