data_PCOD8271199
_publ_section_title
;
Structure prediction by ZEFSAII (Michael W. Deem and Ramdas Pophale) SiO2 
 PCOD8271199
Probable space group: C M M M
;
_chemical_formula_sum "Si O2"
_cell_formula_units_Z 72
_cell_length_a 9.242592
_cell_length_b 17.028675
_cell_length_c 23.643994
_cell_angle_alpha 90.000000
_cell_angle_beta 90.000000
_cell_angle_gamma 90.000000
_cell_volume 3721.306826
_symmetry_space_group_name_H-M "C M M M"
_symmetry_group_IT_number 65
_symmetry_cell_setting 'orthorhombic'
loop_
_space_group_symop_operation_xyz
x,y,z
-x,-y,z
x,-y,-z
-x,y,-z
-x,-y,-z
x,y,-z
-x,y,z
x,-y,z
1/2+x,1/2+y,z
1/2-x,1/2-y,z
1/2+x,1/2-y,-z
1/2-x,1/2+y,-z
1/2-x,1/2-y,-z
1/2+x,1/2+y,-z
1/2-x,1/2+y,z
1/2+x,1/2-y,z
loop_
_atom_site_type_symbol
_atom_site_label
_atom_site_fract_x
_atom_site_fract_y
_atom_site_fract_z
Si Si1 0.336908 0.906628 0.290125
Si Si2 0.162341 0.906600 0.061576
Si Si3 0.663604 0.593255 0.396760
Si Si4 0.837935 0.593374 0.834166
Si Si5 0.174090 0.333474 0.500000
O O1 0.500000 0.874825 0.300912
O O2 0.226933 0.873773 0.337442
O O3 0.280194 0.879916 0.227862
O O4 0.340869 0.000000 0.293006
O O5 0.248253 0.868568 0.114195
O O6 0.000000 0.874912 0.066034
O O7 0.164696 0.000000 0.066278
O O8 0.227844 0.881825 0.000000
O O9 0.500000 0.626204 0.405418
O O10 0.659418 0.500000 0.396847
O O11 0.772372 0.620138 0.445249
O O12 0.832191 0.500000 0.837924
O O13 0.000000 0.623993 0.841488
O O14 0.250000 0.250000 0.500000
O O15 0.000000 0.327057 0.500000
#
# Coordination Sequence:
#
# PCOD8271199 Si02
#       5
#    16  16  16  16   8
#     4   8  14  25  40  59  83 110 142 181 226 272
#     4   8  13  19  25  35  55  86 125 168 213 261
#     4  10  20  34  53  77 102 126 157 196 234 277
#     4   8  13  20  30  45  66  93 128 172 217 260
#     4  12  25  40  57  75  99 129 159 192 233 280
#
# _framework density 19.348042
#
# number of rings (size 3 to 8) (size 9 to 14) (size 15 to 20)
#    0.000    3.111    0.000    4.000    0.000    4.000 
#    0.000    6.667    0.000    0.000    0.000    0.000 
#    0.000    0.000    0.000    0.000    0.000    1.111 
#
# Total GULP energy -446012.145509 kJ/mol
# GULP energy per Si atom -12389.226264 kJ/mol
# Density = 1.930400 g / cm^3
# Si number density = 19.348042 Si / 1000 Ang^3
#
#
#
# Elastic Constant Matrix: (Units=GPa)
#
#
# Indices 1 2 3 4 5 6 
#
# 1 130.2424 11.4877 96.1236 0.0000 0.0000 0.0000
# 2 11.4877 7.4746 10.7193 0.0000 0.0000 0.0000
# 3 96.1236 10.7193 206.5416 0.0000 0.0000 0.0000
# 4 0.0000 0.0000 0.0000 -3.2004 0.0000 0.0000
# 5 0.0000 0.0000 0.0000 0.0000 42.6575 0.0000
# 6 0.0000 0.0000 0.0000 0.0000 0.0000 12.2225
#
#
#
# Elastic Compliance Matrix: (Units=1/GPa)
#
#
# Indices 1 2 3 4 5 6 
#
# 1 0.012594 -0.011831 -0.005247 0.000000 0.000000 0.000000
# 2 -0.011831 0.155659 -0.002572 0.000000 0.000000 0.000000
# 3 -0.005247 -0.002572 0.007417 0.000000 0.000000 0.000000
# 4 0.000000 0.000000 0.000000 -0.312465 0.000000 0.000000
# 5 0.000000 0.000000 0.000000 0.000000 0.023443 0.000000
# 6 0.000000 0.000000 0.000000 0.000000 0.000000 0.081816
#
#
# Mechanical properties :
#
#
# Convention : Reuss Voigt Hill
#
# Bulk Modulus (GPa) = 7.33305 64.54663 35.93984
# Shear Modulus (GPa) = 93.94636 25.39780 59.67208
#
# Velocity S-wave (km/s) = 6.97577 3.62702 5.55953
# Velocity P-wave (km/s) = 8.28735 7.13958 7.73479
#
# Compressibility (1/GPa) = 0.13636894
#
# Stress axis : x y z
#
# Youngs Moduli (GPa) = 79.40177 6.42430 134.82182
#
# Poissons Ratio (x) = 0.07601 0.70745
# Poissons Ratio (y) = 0.93940 0.34682
# Poissons Ratio (z) = 0.41664 0.01653
#
# Static dielectric constant tensor:
#      x y z
#    x 3.846960 0.000000 0.000000 
#    y 0.000000 2.768050 0.000000 
#    z 0.000000 0.000000 4.152840 
# 
# 
# High freq. dielectric constant tensor:
#      x y z
#    x 1.750370 0.000000 0.000000 
#    y 0.000000 1.671090 0.000000 
#    z 0.000000 0.000000 1.779500 
# 
# From -- ./inp_files/67014.got.cif
#   From: 2010.03.12/outbox.cif.g09.slc.cpg/sg65_34_cif.got.tgz:67014.got - 2010.04.10 20:52:16.
