data_PCOD8271082
_publ_section_title
;
Structure prediction by ZEFSAII (Michael W. Deem and Ramdas Pophale) SiO2 
 PCOD8271082
Probable space group: C M M M
;
_chemical_formula_sum "Si O2"
_cell_formula_units_Z 72
_cell_length_a 9.776655
_cell_length_b 14.683048
_cell_length_c 27.025012
_cell_angle_alpha 90.000000
_cell_angle_beta 90.000000
_cell_angle_gamma 90.000000
_cell_volume 3879.470055
_symmetry_space_group_name_H-M "C M M M"
_symmetry_group_IT_number 65
_symmetry_cell_setting 'orthorhombic'
loop_
_space_group_symop_operation_xyz
x,y,z
-x,-y,z
x,-y,-z
-x,y,-z
-x,-y,-z
x,y,-z
-x,y,z
x,-y,z
1/2+x,1/2+y,z
1/2-x,1/2-y,z
1/2+x,1/2-y,-z
1/2-x,1/2+y,-z
1/2-x,1/2-y,-z
1/2+x,1/2+y,-z
1/2-x,1/2+y,z
1/2+x,1/2-y,z
loop_
_atom_site_type_symbol
_atom_site_label
_atom_site_fract_x
_atom_site_fract_y
_atom_site_fract_z
Si Si1 0.336902 0.156154 0.500000
Si Si2 0.846678 0.108388 0.054744
Si Si3 0.653354 0.108148 0.860085
Si Si4 0.161723 0.500000 0.684523
Si Si5 0.161811 0.500000 0.425675
Si Si6 0.161625 0.333926 0.248758
O O1 0.500000 0.178500 0.500000
O O2 0.250000 0.250000 0.500000
O O3 0.293793 0.093678 0.452941
O O4 0.747872 0.150074 0.096608
O O5 0.000000 0.143109 0.065324
O O6 0.842534 0.000000 0.057033
O O7 0.798498 0.140493 0.000000
O O8 0.500000 0.141589 0.870864
O O9 0.704925 0.143242 0.807269
O O10 0.660246 0.000000 0.859172
O O11 0.226097 0.500000 0.629431
O O12 0.210990 0.587020 0.714882
O O13 0.000000 0.500000 0.680796
O O14 0.000000 0.500000 0.424170
O O15 0.250000 0.250000 0.267443
O O16 0.000000 0.315126 0.252754
#
# Coordination Sequence:
#
# PCOD8271082 Si02
#       6
#     8  16  16   8   8  16
#     4   9  17  31  52  80 110 141 181 219 254 300
#     4   8  14  24  39  63  93 121 151 191 242 298
#     4   9  16  28  46  66  90 122 159 198 241 295
#     4   9  17  34  56  74 101 141 178 212 255 304
#     4   8  16  31  52  76 104 143 183 213 249 308
#     4  10  20  34  52  74  99 130 169 211 255 305
#
# _framework density 18.559237
#
# number of rings (size 3 to 8) (size 9 to 14) (size 15 to 20)
#    0.000    3.111    1.111    1.333    0.000    2.222 
#    0.000    3.889    0.000    2.000    0.000    0.000 
#    0.000    0.000    0.000    0.000    0.000    0.000 
#
# Total GULP energy -446177.285607 kJ/mol
# GULP energy per Si atom -12393.813489 kJ/mol
# Density = 1.851700 g / cm^3
# Si number density = 18.559237 Si / 1000 Ang^3
#
#
#
# Elastic Constant Matrix: (Units=GPa)
#
#
# Indices 1 2 3 4 5 6 
#
# 1 57.1842 42.3019 61.7863 0.0000 0.0000 0.0000
# 2 42.3019 95.4253 72.9224 0.0000 0.0000 0.0000
# 3 61.7863 72.9224 173.8122 0.0000 0.0000 0.0000
# 4 0.0000 0.0000 0.0000 -20.2323 0.0000 0.0000
# 5 0.0000 0.0000 0.0000 0.0000 13.6966 0.0000
# 6 0.0000 0.0000 0.0000 0.0000 0.0000 27.3554
#
#
#
# Elastic Compliance Matrix: (Units=1/GPa)
#
#
# Indices 1 2 3 4 5 6 
#
# 1 0.032173 -0.008128 -0.008026 0.000000 0.000000 0.000000
# 2 -0.008128 0.017478 -0.004444 0.000000 0.000000 0.000000
# 3 -0.008026 -0.004444 0.010471 0.000000 0.000000 0.000000
# 4 0.000000 0.000000 0.000000 -0.049426 0.000000 0.000000
# 5 0.000000 0.000000 0.000000 0.000000 0.073011 0.000000
# 6 0.000000 0.000000 0.000000 0.000000 0.000000 0.036556
#
#
# Mechanical properties :
#
#
# Convention : Reuss Voigt Hill
#
# Bulk Modulus (GPa) = 52.83980 75.60477 64.22229
# Shear Modulus (GPa) = 29.80312 14.12468 21.96390
#
# Velocity S-wave (km/s) = 4.01164 2.76172 3.44386
# Velocity P-wave (km/s) = 7.07039 7.14107 7.10582
#
# Compressibility (1/GPa) = 0.01892513
#
# Stress axis : x y z
#
# Youngs Moduli (GPa) = 31.08226 57.21346 95.50366
#
# Poissons Ratio (x) = 0.46506 0.76655
# Poissons Ratio (y) = 0.25265 0.42437
# Poissons Ratio (z) = 0.24948 0.25423
#
# Static dielectric constant tensor:
#      x y z
#    x 3.250480 0.000000 0.000000 
#    y 0.000000 3.214070 0.000000 
#    z 0.000000 0.000000 3.869210 
# 
# 
# High freq. dielectric constant tensor:
#      x y z
#    x 1.689790 0.000000 0.000000 
#    y 0.000000 1.710280 0.000000 
#    z 0.000000 0.000000 1.725820 
# 
# From -- ./inp_files/72605.got.cif
#   From: 2010.03.12/outbox.cif.g09.slc.cpg/sg65_37_cif.got.tgz:72605.got - 2010.04.10 20:52:16.
