data_PCOD8271455
_publ_section_title
;
Structure prediction by ZEFSAII (Michael W. Deem and Ramdas Pophale) SiO2 
 PCOD8271455
Probable space group: C M M M
;
_chemical_formula_sum "Si O2"
_cell_formula_units_Z 88
_cell_length_a 15.017754
_cell_length_b 13.943677
_cell_length_c 20.566538
_cell_angle_alpha 90.000000
_cell_angle_beta 90.000000
_cell_angle_gamma 90.000000
_cell_volume 4306.688814
_symmetry_space_group_name_H-M "C M M M"
_symmetry_group_IT_number 65
_symmetry_cell_setting 'orthorhombic'
loop_
_space_group_symop_operation_xyz
x,y,z
-x,-y,z
x,-y,-z
-x,y,-z
-x,-y,-z
x,y,-z
-x,y,z
x,-y,z
1/2+x,1/2+y,z
1/2-x,1/2-y,z
1/2+x,1/2-y,-z
1/2-x,1/2+y,-z
1/2-x,1/2-y,-z
1/2+x,1/2+y,-z
1/2-x,1/2+y,z
1/2+x,1/2-y,z
loop_
_atom_site_type_symbol
_atom_site_label
_atom_site_fract_x
_atom_site_fract_y
_atom_site_fract_z
Si Si1 0.598616 0.105701 0.306850
Si Si2 0.598779 0.386256 0.757535
Si Si3 0.849192 0.781335 0.370337
Si Si4 0.218377 0.385945 0.188362
Si Si5 0.599949 0.885852 0.927596
Si Si6 0.105329 0.110025 0.500000
O O1 0.500000 0.097771 0.277053
O O2 0.597318 0.180116 0.367167
O O3 0.661919 0.148913 0.250742
O O4 0.630896 0.000000 0.330384
O O5 0.500000 0.352108 0.781702
O O6 0.602739 0.500000 0.756285
O O7 0.613850 0.352871 0.684072
O O8 0.679149 0.348202 0.804641
O O9 0.750000 0.750000 0.356069
O O10 0.857302 0.833930 0.438427
O O11 0.215401 0.500000 0.186565
O O12 0.172468 0.343823 0.123255
O O13 0.500000 0.850405 0.909648
O O14 0.601554 0.000000 0.925704
O O15 0.625570 0.849662 0.000000
O O16 0.000000 0.112983 0.500000
O O17 0.139580 0.000000 0.500000
#
# Coordination Sequence:
#
# PCOD8271455 Si02
#       6
#    16  16  16  16  16   8
#     4  10  20  34  54  81 114 149 182 224 283 349
#     4  10  20  35  56  80 109 147 194 245 289 333
#     4  12  23  39  60  85 114 146 184 233 288 337
#     4   9  16  28  47  74 108 146 189 235 286 338
#     4   8  13  22  40  70 109 151 193 238 287 340
#     4  11  25  44  65  87 113 149 194 238 277 328
#
# _framework density 20.433332
#
# number of rings (size 3 to 8) (size 9 to 14) (size 15 to 20)
#    0.000    2.091    1.818    3.545    0.000    4.364 
#    0.000    0.455    0.000    2.182    0.000    6.364 
#    0.000    2.909    0.000    0.364    0.000    0.182 
#
# Total GULP energy -545221.606791 kJ/mol
# GULP energy per Si atom -12391.400154 kJ/mol
# Density = 2.038682 g / cm^3
# Si number density = 20.433332 Si / 1000 Ang^3
#
#
#
# Elastic Constant Matrix: (Units=GPa)
#
#
# Indices 1 2 3 4 5 6 
#
# 1 160.6601 28.2386 65.1671 0.0000 0.0000 0.0000
# 2 28.2386 50.5293 46.9198 0.0000 0.0000 0.0000
# 3 65.1671 46.9198 121.8283 0.0000 0.0000 0.0000
# 4 0.0000 0.0000 0.0000 17.0241 0.0000 0.0000
# 5 0.0000 0.0000 0.0000 0.0000 33.0051 0.0000
# 6 0.0000 0.0000 0.0000 0.0000 0.0000 19.0311
#
#
#
# Elastic Compliance Matrix: (Units=1/GPa)
#
#
# Indices 1 2 3 4 5 6 
#
# 1 0.007968 -0.000771 -0.003965 0.000000 0.000000 0.000000
# 2 -0.000771 0.030883 -0.011481 0.000000 0.000000 0.000000
# 3 -0.003965 -0.011481 0.014751 0.000000 0.000000 0.000000
# 4 0.000000 0.000000 0.000000 0.058740 0.000000 0.000000
# 5 0.000000 0.000000 0.000000 0.000000 0.030298 0.000000
# 6 0.000000 0.000000 0.000000 0.000000 0.000000 0.052546
#
#
# Mechanical properties :
#
#
# Convention : Reuss Voigt Hill
#
# Bulk Modulus (GPa) = 47.24441 68.18541 57.71491
# Shear Modulus (GPa) = 21.30582 26.65819 23.98200
#
# Velocity S-wave (km/s) = 3.23259 3.61590 3.42960
# Velocity P-wave (km/s) = 6.09133 7.13268 6.63247
#
# Compressibility (1/GPa) = 0.02116653
#
# Stress axis : x y z
#
# Youngs Moduli (GPa) = 125.49773 32.38070 67.79101
#
# Poissons Ratio (x) = 0.02497 0.26882
# Poissons Ratio (y) = 0.09676 0.77834
# Poissons Ratio (z) = 0.49764 0.37178
#
# Static dielectric constant tensor:
#      x y z
#    x 4.198270 0.000000 0.000000 
#    y 0.000000 3.800560 0.000000 
#    z 0.000000 0.000000 3.546780 
# 
# 
# High freq. dielectric constant tensor:
#      x y z
#    x 1.812650 0.000000 0.000000 
#    y 0.000000 1.792960 0.000000 
#    z 0.000000 0.000000 1.766410 
# 
# From -- ./inp_files/62504.got.cif
#   From: 2010.03.12/outbox.cif.g09.slc.cpg/sg65_32_cif.got.tgz:62504.got - 2010.04.10 20:52:16.
