data_PCOD8271372
_publ_section_title
;
Structure prediction by ZEFSAII (Michael W. Deem and Ramdas Pophale) SiO2 
 PCOD8271372
Probable space group: C M M M
;
_chemical_formula_sum "Si O2"
_cell_formula_units_Z 72
_cell_length_a 16.149742
_cell_length_b 27.215174
_cell_length_c 8.389969
_cell_angle_alpha 90.000000
_cell_angle_beta 90.000000
_cell_angle_gamma 90.000000
_cell_volume 3687.542719
_symmetry_space_group_name_H-M "C M M M"
_symmetry_group_IT_number 65
_symmetry_cell_setting 'orthorhombic'
loop_
_space_group_symop_operation_xyz
x,y,z
-x,-y,z
x,-y,-z
-x,y,-z
-x,-y,-z
x,y,-z
-x,y,z
x,-y,z
1/2+x,1/2+y,z
1/2-x,1/2-y,z
1/2+x,1/2-y,-z
1/2-x,1/2+y,-z
1/2-x,1/2-y,-z
1/2+x,1/2+y,-z
1/2-x,1/2+y,z
1/2+x,1/2-y,z
loop_
_atom_site_type_symbol
_atom_site_label
_atom_site_fract_x
_atom_site_fract_y
_atom_site_fract_z
Si Si1 0.748955 0.194892 0.315338
Si Si2 0.167799 0.897201 0.813482
Si Si3 0.000000 0.942904 0.689021
Si Si4 0.171436 0.444529 0.314262
Si Si5 0.906634 0.354063 0.816643
O O1 0.773653 0.194486 0.500000
O O2 0.750000 0.250000 0.245339
O O3 0.815031 0.160484 0.223288
O O4 0.655413 0.175763 0.295442
O O5 0.078029 0.913852 0.757516
O O6 0.233877 0.929865 0.719020
O O7 0.177848 0.906506 0.000000
O O8 0.000000 0.939733 0.500000
O O9 0.000000 0.000000 0.744998
O O10 0.153454 0.437204 0.500000
O O11 0.156882 0.500000 0.259677
O O12 0.107472 0.411904 0.213295
O O13 0.000000 0.339407 0.771652
O O14 0.887276 0.341974 0.000000
#
# Coordination Sequence:
#
# PCOD8271372 Si02
#       5
#    16  16   8  16  16
#     4  10  21  39  62  84 108 145 187 230 281 336
#     4  11  22  36  57  84 114 148 187 234 285 337
#     4  11  23  39  59  83 117 157 195 239 286 339
#     4  10  20  34  54  79 109 148 188 225 270 325
#     4  10  21  36  55  81 111 143 179 225 276 325
#
# _framework density 19.525196999999999
#
# number of rings (size 3 to 8) (size 9 to 14) (size 15 to 20)
#    0.000    1.667    0.000    7.667    0.000    9.333 
#    2.000    2.222    0.000    0.000    0.000    0.000 
#    0.000    0.000    0.000    0.000    0.000    0.000 
#
# Total GULP energy -446457.821943 kJ/mol
# GULP energy per Si atom -12401.606165 kJ/mol
# Density = 1.948076 g / cm^3
# Si number density = 19.525197 Si / 1000 Ang^3
#
#
#
# Elastic Constant Matrix: (Units=GPa)
#
#
# Indices 1 2 3 4 5 6 
#
# 1 93.3811 39.5795 7.1396 0.0000 0.0000 0.0000
# 2 39.5795 135.9864 18.0240 0.0000 0.0000 0.0000
# 3 7.1396 18.0240 39.4415 0.0000 0.0000 0.0000
# 4 0.0000 0.0000 0.0000 7.8715 0.0000 0.0000
# 5 0.0000 0.0000 0.0000 0.0000 33.7376 0.0000
# 6 0.0000 0.0000 0.0000 0.0000 0.0000 15.8173
#
#
#
# Elastic Compliance Matrix: (Units=1/GPa)
#
#
# Indices 1 2 3 4 5 6 
#
# 1 0.012230 -0.003477 -0.000625 0.000000 0.000000 0.000000
# 2 -0.003477 0.008816 -0.003399 0.000000 0.000000 0.000000
# 3 -0.000625 -0.003399 0.027021 0.000000 0.000000 0.000000
# 4 0.000000 0.000000 0.000000 0.127040 0.000000 0.000000
# 5 0.000000 0.000000 0.000000 0.000000 0.029640 0.000000
# 6 0.000000 0.000000 0.000000 0.000000 0.000000 0.063222
#
#
# Mechanical properties :
#
#
# Convention : Reuss Voigt Hill
#
# Bulk Modulus (GPa) = 30.24403 44.25503 37.24953
# Shear Modulus (GPa) = 17.00718 25.08969 21.04844
#
# Velocity S-wave (km/s) = 2.95454 3.58857 3.28687
# Velocity P-wave (km/s) = 5.21176 6.31547 5.78998
#
# Compressibility (1/GPa) = 0.03306437
#
# Stress axis : x y z
#
# Youngs Moduli (GPa) = 81.76453 113.42760 37.00878
#
# Poissons Ratio (x) = 0.39437 0.02313
# Poissons Ratio (y) = 0.28428 0.12581
# Poissons Ratio (z) = 0.05111 0.38559
#
# Static dielectric constant tensor:
#      x y z
#    x 3.437300 0.000000 0.000000 
#    y 0.000000 3.763460 0.000000 
#    z 0.000000 0.000000 3.564180 
# 
# 
# High freq. dielectric constant tensor:
#      x y z
#    x 1.754960 0.000000 0.000000 
#    y 0.000000 1.761410 0.000000 
#    z 0.000000 0.000000 1.770870 
# 
# From -- ./inp_files/7244.got.cif
#   From: 2010.03.12/outbox.cif.g09.slc.cpg/sg65_4_cif.got.tgz:7244.got - 2010.04.10 20:52:16.
