data_PCOD8271725
_publ_section_title
;
Structure prediction by ZEFSAII (Michael W. Deem and Ramdas Pophale) SiO2 
 PCOD8271725
Probable space group: C M M M
;
_chemical_formula_sum "Si O2"
_cell_formula_units_Z 88
_cell_length_a 27.168381
_cell_length_b 8.934512
_cell_length_c 20.749598
_cell_angle_alpha 90.000000
_cell_angle_beta 90.000000
_cell_angle_gamma 90.000000
_cell_volume 5036.679111
_symmetry_space_group_name_H-M "C M M M"
_symmetry_group_IT_number 65
_symmetry_cell_setting 'orthorhombic'
loop_
_space_group_symop_operation_xyz
x,y,z
-x,-y,z
x,-y,-z
-x,y,-z
-x,-y,-z
x,y,-z
-x,y,z
x,-y,z
1/2+x,1/2+y,z
1/2-x,1/2-y,z
1/2+x,1/2-y,-z
1/2-x,1/2+y,-z
1/2-x,1/2-y,-z
1/2+x,1/2+y,-z
1/2-x,1/2+y,z
1/2+x,1/2-y,z
loop_
_atom_site_type_symbol
_atom_site_label
_atom_site_fract_x
_atom_site_fract_y
_atom_site_fract_z
Si Si1 0.350941 0.328872 0.881214
Si Si2 0.801296 0.826705 0.253507
Si Si3 0.803161 0.675448 0.000000
Si Si4 0.106200 0.675821 0.311271
Si Si5 0.944426 0.172870 0.196316
Si Si6 0.442970 0.328454 0.426444
O O1 0.348104 0.500000 0.905413
O O2 0.315071 0.302690 0.821013
O O3 0.334260 0.219966 0.937572
O O4 0.406847 0.285582 0.861218
O O5 0.750000 0.750000 0.268615
O O6 0.841665 0.752908 0.299176
O O7 0.797792 0.000000 0.271023
O O8 0.750000 0.750000 0.000000
O O9 0.794699 0.500000 0.000000
O O10 0.112663 0.500000 0.305212
O O11 0.065745 0.729861 0.259589
O O12 0.088786 0.718344 0.382550
O O13 0.000000 0.202409 0.172158
O O14 0.935946 0.000000 0.215838
O O15 0.426532 0.302579 0.500000
O O16 0.500000 0.288148 0.417913
O O17 0.433599 0.500000 0.405961
#
# Coordination Sequence:
#
# PCOD8271725 Si02
#       6
#    16  16   8  16  16  16
#     4   9  19  35  54  76 101 129 164 205 247 295
#     4  10  20  35  55  77 101 130 166 209 254 299
#     4  12  24  36  53  74  99 131 164 203 251 302
#     4  11  21  31  48  76 107 137 168 205 250 299
#     4   9  18  34  55  76 100 133 171 209 249 294
#     4   9  18  33  52  73 100 136 174 210 250 296
#
# _framework density 17.471831000000002
#
# number of rings (size 3 to 8) (size 9 to 14) (size 15 to 20)
#    0.000    2.182    0.000    5.727    0.000    8.364 
#    0.000    1.364    0.000    3.273    0.000    0.000 
#    0.000    0.000    0.000    0.000    0.000    0.000 
#
# Total GULP energy -545727.569571 kJ/mol
# GULP energy per Si atom -12402.899308 kJ/mol
# Density = 1.743206 g / cm^3
# Si number density = 17.471831 Si / 1000 Ang^3
#
#
#
# Elastic Constant Matrix: (Units=GPa)
#
#
# Indices 1 2 3 4 5 6 
#
# 1 129.3774 58.2624 53.1197 0.0000 0.0000 0.0000
# 2 58.2624 122.2630 56.4291 0.0000 0.0000 0.0000
# 3 53.1197 56.4291 93.2944 0.0000 0.0000 0.0000
# 4 0.0000 0.0000 0.0000 27.2296 0.0000 0.0000
# 5 0.0000 0.0000 0.0000 0.0000 20.9838 0.0000
# 6 0.0000 0.0000 0.0000 0.0000 0.0000 29.4179
#
#
#
# Elastic Compliance Matrix: (Units=1/GPa)
#
#
# Indices 1 2 3 4 5 6 
#
# 1 0.010943 -0.003245 -0.004268 0.000000 0.000000 0.000000
# 2 -0.003245 0.012309 -0.005597 0.000000 0.000000 0.000000
# 3 -0.004268 -0.005597 0.016534 0.000000 0.000000 0.000000
# 4 0.000000 0.000000 0.000000 0.036725 0.000000 0.000000
# 5 0.000000 0.000000 0.000000 0.000000 0.047656 0.000000
# 6 0.000000 0.000000 0.000000 0.000000 0.000000 0.033993
#
#
# Mechanical properties :
#
#
# Convention : Reuss Voigt Hill
#
# Bulk Modulus (GPa) = 73.71571 75.61748 74.66659
# Shear Modulus (GPa) = 26.46873 27.33450 26.90162
#
# Velocity S-wave (km/s) = 3.89644 3.95965 3.92818
# Velocity P-wave (km/s) = 7.90733 8.01740 7.96255
#
# Compressibility (1/GPa) = 0.01356563
#
# Stress axis : x y z
#
# Youngs Moduli (GPa) = 91.38325 81.24282 60.47962
#
# Poissons Ratio (x) = 0.26362 0.25813
# Poissons Ratio (y) = 0.29652 0.33853
# Poissons Ratio (z) = 0.39003 0.45475
#
# Static dielectric constant tensor:
#      x y z
#    x 3.314040 0.000000 0.000000 
#    y 0.000000 3.239980 0.000000 
#    z 0.000000 0.000000 3.099480 
# 
# 
# High freq. dielectric constant tensor:
#      x y z
#    x 1.677270 0.000000 0.000000 
#    y 0.000000 1.677000 0.000000 
#    z 0.000000 0.000000 1.660570 
# 
# From -- ./inp_files/65172.got.cif
#   From: 2010.03.12/outbox.cif.g09.slc.cpg/sg65_33_cif.got.tgz:65172.got - 2010.04.10 20:52:16.
