data_PCOD8271246
_publ_section_title
;
Structure prediction by ZEFSAII (Michael W. Deem and Ramdas Pophale) SiO2 
 PCOD8271246
Probable space group: C M M M
;
_chemical_formula_sum "Si O2"
_cell_formula_units_Z 88
_cell_length_a 28.621039
_cell_length_b 9.155731
_cell_length_c 17.539998
_cell_angle_alpha 90.000000
_cell_angle_beta 90.000000
_cell_angle_gamma 90.000000
_cell_volume 4596.295683
_symmetry_space_group_name_H-M "C M M M"
_symmetry_group_IT_number 65
_symmetry_cell_setting 'orthorhombic'
loop_
_space_group_symop_operation_xyz
x,y,z
-x,-y,z
x,-y,-z
-x,y,-z
-x,-y,-z
x,y,-z
-x,y,z
x,-y,z
1/2+x,1/2+y,z
1/2-x,1/2-y,z
1/2+x,1/2-y,-z
1/2-x,1/2+y,-z
1/2-x,1/2-y,-z
1/2+x,1/2+y,-z
1/2-x,1/2+y,z
1/2+x,1/2-y,z
loop_
_atom_site_type_symbol
_atom_site_label
_atom_site_fract_x
_atom_site_fract_y
_atom_site_fract_z
Si Si1 0.860985 0.669530 0.857791
Si Si2 0.450701 0.336594 0.409577
Si Si3 0.849645 0.826737 0.411612
Si Si4 0.203223 0.328608 0.283416
Si Si5 0.200548 0.672698 0.000000
Si Si6 0.947544 0.828578 0.086924
O O1 0.871173 0.500000 0.868607
O O2 0.836826 0.704681 0.777770
O O3 0.910664 0.750363 0.858234
O O4 0.827817 0.725486 0.925816
O O5 0.449171 0.344855 0.500000
O O6 0.500000 0.256939 0.383858
O O7 0.452303 0.500000 0.376402
O O8 0.401218 0.265823 0.384497
O O9 0.840516 0.791382 0.500000
O O10 0.811176 0.739630 0.364294
O O11 0.845935 0.000000 0.396739
O O12 0.212699 0.500000 0.292693
O O13 0.250000 0.250000 0.254527
O O14 0.250000 0.750000 0.000000
O O15 0.208953 0.500000 0.000000
O O16 0.000000 0.786760 0.113295
O O17 0.939834 0.000000 0.093352
O O18 0.939687 0.776535 0.000000
#
# Coordination Sequence:
#
# PCOD8271246 Si02
#       6
#    16  16  16  16   8  16
#     4  10  21  37  56  80 110 144 183 225 271 327
#     4   7  10  20  43  75 105 130 161 204 251 302
#     4   9  18  34  57  83 109 141 183 228 276 331
#     4  11  24  40  57  78 106 141 181 229 284 336
#     4  10  20  34  53  78 105 135 178 225 267 318
#     4   9  18  33  55  85 117 148 185 226 267 314
#
# _framework density 19.145852999999999
#
# number of rings (size 3 to 8) (size 9 to 14) (size 15 to 20)
#    0.000    2.727    0.909    3.273    0.000    3.273 
#    0.000    1.818    0.000    3.818    0.000    2.545 
#    0.000    0.000    0.000    0.000    0.000    0.000 
#
# Total GULP energy -545250.409358 kJ/mol
# GULP energy per Si atom -12392.054758 kJ/mol
# Density = 1.910228 g / cm^3
# Si number density = 19.145853 Si / 1000 Ang^3
#
#
#
# Elastic Constant Matrix: (Units=GPa)
#
#
# Indices 1 2 3 4 5 6 
#
# 1 142.6498 59.6834 44.8998 0.0000 0.0000 0.0000
# 2 59.6834 61.0007 40.3559 0.0000 0.0000 0.0000
# 3 44.8998 40.3559 76.0780 0.0000 0.0000 0.0000
# 4 0.0000 0.0000 0.0000 23.1168 0.0000 0.0000
# 5 0.0000 0.0000 0.0000 0.0000 24.5010 0.0000
# 6 0.0000 0.0000 0.0000 0.0000 0.0000 31.3849
#
#
#
# Elastic Compliance Matrix: (Units=1/GPa)
#
#
# Indices 1 2 3 4 5 6 
#
# 1 0.011953 -0.010828 -0.001311 0.000000 0.000000 0.000000
# 2 -0.010828 0.035065 -0.012210 0.000000 0.000000 0.000000
# 3 -0.001311 -0.012210 0.020395 0.000000 0.000000 0.000000
# 4 0.000000 0.000000 0.000000 0.043259 0.000000 0.000000
# 5 0.000000 0.000000 0.000000 0.000000 0.040815 0.000000
# 6 0.000000 0.000000 0.000000 0.000000 0.000000 0.031862
#
#
# Mechanical properties :
#
#
# Convention : Reuss Voigt Hill
#
# Bulk Modulus (GPa) = 53.43117 63.28962 58.36039
# Shear Modulus (GPa) = 20.98338 24.78649 22.88494
#
# Velocity S-wave (km/s) = 3.31414 3.60198 3.46105
# Velocity P-wave (km/s) = 6.52784 7.10122 6.82056
#
# Compressibility (1/GPa) = 0.01871567
#
# Stress axis : x y z
#
# Youngs Moduli (GPa) = 83.66142 28.51866 49.03187
#
# Poissons Ratio (x) = 0.30879 0.06427
# Poissons Ratio (y) = 0.90585 0.59868
# Poissons Ratio (z) = 0.10967 0.34821
#
# Static dielectric constant tensor:
#      x y z
#    x 3.864160 0.000000 0.000000 
#    y 0.000000 3.161980 0.000000 
#    z 0.000000 0.000000 3.255090 
# 
# 
# High freq. dielectric constant tensor:
#      x y z
#    x 1.766380 0.000000 0.000000 
#    y 0.000000 1.711270 0.000000 
#    z 0.000000 0.000000 1.721960 
# 
# From -- ./inp_files/57984.got.cif
#   From: 2010.03.12/outbox.cif.g09.slc.cpg/sg65_29_cif.got.tgz:57984.got - 2010.04.10 20:52:16.
