data_PCOD8271106
_publ_section_title
;
Structure prediction by ZEFSAII (Michael W. Deem and Ramdas Pophale) SiO2 
 PCOD8271106
Probable space group: C M M M
;
_chemical_formula_sum "Si O2"
_cell_formula_units_Z 104
_cell_length_a 24.022085
_cell_length_b 26.410682
_cell_length_c 9.041096
_cell_angle_alpha 90.000000
_cell_angle_beta 90.000000
_cell_angle_gamma 90.000000
_cell_volume 5736.029763
_symmetry_space_group_name_H-M "C M M M"
_symmetry_group_IT_number 65
_symmetry_cell_setting 'orthorhombic'
loop_
_space_group_symop_operation_xyz
x,y,z
-x,-y,z
x,-y,-z
-x,y,-z
-x,-y,-z
x,y,-z
-x,y,z
x,-y,z
1/2+x,1/2+y,z
1/2-x,1/2-y,z
1/2+x,1/2-y,-z
1/2-x,1/2+y,-z
1/2-x,1/2-y,-z
1/2+x,1/2+y,-z
1/2-x,1/2+y,z
1/2+x,1/2-y,z
loop_
_atom_site_type_symbol
_atom_site_label
_atom_site_fract_x
_atom_site_fract_y
_atom_site_fract_z
Si Si1 0.063196 0.901850 0.671518
Si Si2 0.436275 0.135466 0.325201
Si Si3 0.933729 0.000000 0.833629
Si Si4 0.149192 0.816985 0.329270
Si Si5 0.345966 0.055989 0.326344
Si Si6 0.641933 0.211651 0.824995
Si Si7 0.269723 0.855023 0.671420
O O1 0.067008 0.915165 0.500000
O O2 0.089628 0.949720 0.755819
O O3 0.097319 0.852024 0.711308
O O4 0.000000 0.891333 0.721680
O O5 0.430634 0.143867 0.500000
O O6 0.500000 0.127216 0.277093
O O7 0.400965 0.086394 0.272768
O O8 0.412245 0.185294 0.246094
O O9 0.000000 0.000000 0.820754
O O10 0.912079 0.000000 0.000000
O O11 0.147842 0.799042 0.500000
O O12 0.144633 0.769753 0.221827
O O13 0.204508 0.849802 0.297528
O O14 0.349543 0.048533 0.500000
O O15 0.290854 0.088525 0.284494
O O16 0.343484 0.000000 0.251227
O O17 0.698576 0.186036 0.769569
O O18 0.637846 0.207534 0.000000
O O19 0.284527 0.844290 0.500000
#
# Coordination Sequence:
#
# PCOD8271106 Si02
#       7
#    16  16   8  16  16  16  16
#     4   9  18  33  52  74 100 130 165 207 256 306
#     4   9  18  33  53  76 103 138 176 212 254 306
#     4   9  17  31  51  71  95 131 167 197 236 289
#     4  10  20  34  52  76 101 132 174 219 262 307
#     4   8  14  27  49  77 105 130 162 210 262 302
#     4  11  22  34  51  74 102 137 171 211 260 310
#     4   9  18  34  53  74 100 133 172 214 258 306
#
# _framework density 18.131008000000001
#
# number of rings (size 3 to 8) (size 9 to 14) (size 15 to 20)
#    0.000    2.692    0.000    3.000    0.000    5.231 
#    1.385    3.077    0.000    7.385    0.000    4.308 
#    0.000    0.000    0.000    0.000    0.000    0.000 
#
# Total GULP energy -644719.368532 kJ/mol
# GULP energy per Si atom -12398.449395 kJ/mol
# Density = 1.808974 g / cm^3
# Si number density = 18.131008 Si / 1000 Ang^3
#
#
#
# Elastic Constant Matrix: (Units=GPa)
#
#
# Indices 1 2 3 4 5 6 
#
# 1 106.6166 69.0940 33.2717 0.0000 0.0000 0.0000
# 2 69.0940 131.8505 43.9725 0.0000 0.0000 0.0000
# 3 33.2717 43.9725 62.9470 0.0000 0.0000 0.0000
# 4 0.0000 0.0000 0.0000 4.2900 0.0000 0.0000
# 5 0.0000 0.0000 0.0000 0.0000 10.9391 0.0000
# 6 0.0000 0.0000 0.0000 0.0000 0.0000 14.4044
#
#
#
# Elastic Compliance Matrix: (Units=1/GPa)
#
#
# Indices 1 2 3 4 5 6 
#
# 1 0.014654 -0.006644 -0.003104 0.000000 0.000000 0.000000
# 2 -0.006644 0.012900 -0.005500 0.000000 0.000000 0.000000
# 3 -0.003104 -0.005500 0.021369 0.000000 0.000000 0.000000
# 4 0.000000 0.000000 0.000000 0.233102 0.000000 0.000000
# 5 0.000000 0.000000 0.000000 0.000000 0.091415 0.000000
# 6 0.000000 0.000000 0.000000 0.000000 0.000000 0.069423
#
#
# Mechanical properties :
#
#
# Convention : Reuss Voigt Hill
#
# Bulk Modulus (GPa) = 54.26794 66.01004 60.13899
# Shear Modulus (GPa) = 10.42748 16.26509 13.34628
#
# Velocity S-wave (km/s) = 2.40077 2.99839 2.71606
# Velocity P-wave (km/s) = 6.13848 6.96229 6.56332
#
# Compressibility (1/GPa) = 0.01842709
#
# Stress axis : x y z
#
# Youngs Moduli (GPa) = 68.24219 77.51880 46.79606
#
# Poissons Ratio (x) = 0.51501 0.14527
# Poissons Ratio (y) = 0.45338 0.25737
# Poissons Ratio (z) = 0.21185 0.42635
#
# Static dielectric constant tensor:
#      x y z
#    x 3.407490 0.000000 0.000000 
#    y 0.000000 3.517170 0.000000 
#    z 0.000000 0.000000 3.103530 
# 
# 
# High freq. dielectric constant tensor:
#      x y z
#    x 1.696240 0.000000 0.000000 
#    y 0.000000 1.707250 0.000000 
#    z 0.000000 0.000000 1.675810 
# 
# From -- ./inp_files/16806.got.cif
#   From: 2010.03.12/outbox.cif.g09.slc.cpg/sg65_9_cif.got.tgz:16806.got - 2010.04.10 20:52:16.
