data_PCOD8271507
_publ_section_title
;
Structure prediction by ZEFSAII (Michael W. Deem and Ramdas Pophale) SiO2 
 PCOD8271507
Probable space group: C M M M
;
_chemical_formula_sum "Si O2"
_cell_formula_units_Z 96
_cell_length_a 21.304275
_cell_length_b 20.503586
_cell_length_c 11.763271
_cell_angle_alpha 90.000000
_cell_angle_beta 90.000000
_cell_angle_gamma 90.000000
_cell_volume 5138.361866
_symmetry_space_group_name_H-M "C M M M"
_symmetry_group_IT_number 65
_symmetry_cell_setting 'orthorhombic'
loop_
_space_group_symop_operation_xyz
x,y,z
-x,-y,z
x,-y,-z
-x,y,-z
-x,-y,-z
x,y,-z
-x,y,z
x,-y,z
1/2+x,1/2+y,z
1/2-x,1/2-y,z
1/2+x,1/2-y,-z
1/2-x,1/2+y,-z
1/2-x,1/2-y,-z
1/2+x,1/2+y,-z
1/2-x,1/2+y,z
1/2+x,1/2-y,z
loop_
_atom_site_type_symbol
_atom_site_label
_atom_site_fract_x
_atom_site_fract_y
_atom_site_fract_z
Si Si1 0.145392 0.625549 0.134426
Si Si2 0.744113 0.421058 0.725755
Si Si3 0.500000 0.571272 0.634170
Si Si4 0.429836 0.000000 0.864972
Si Si5 0.123665 0.855353 0.635260
Si Si6 0.194998 0.428047 0.500000
Si Si7 0.067138 0.624710 0.500000
Si Si8 0.927080 0.719519 0.710821
O O1 0.217637 0.612854 0.171494
O O2 0.105795 0.563648 0.179996
O O3 0.111470 0.689805 0.183198
O O4 0.144479 0.632382 0.000000
O O5 0.741048 0.500000 0.739601
O O6 0.675669 0.389560 0.714547
O O7 0.780114 0.394680 0.613805
O O8 0.500000 0.500000 0.690656
O O9 0.500000 0.565718 0.500000
O O10 0.438982 0.608836 0.674453
O O11 0.500000 0.000000 0.814140
O O12 0.431656 0.000000 0.000000
O O13 0.138269 0.863048 0.500000
O O14 0.113475 0.780730 0.668502
O O15 0.223252 0.500000 0.500000
O O16 0.119862 0.430271 0.500000
O O17 0.073912 0.669077 0.390547
O O18 0.000000 0.588801 0.500000
O O19 0.000000 0.736327 0.743287
#
# Coordination Sequence:
#
# PCOD8271507 Si02
#       8
#    16  16   8   8  16   8   8  16
#     4  11  23  40  62  87 120 162 210 258 302 355
#     4  11  22  38  60  89 124 159 200 252 311 365
#     4   9  18  32  56  90 123 152 199 252 301 361
#     4   9  18  36  62  87 109 146 201 255 306 351
#     4  11  21  36  60  89 123 164 199 244 308 377
#     4  10  20  36  53  80 121 157 198 247 299 364
#     4  10  20  34  55  81 116 164 201 242 293 366
#     4  11  22  38  59  87 124 160 201 249 305 366
#
# _framework density 18.682998000000001
#
# number of rings (size 3 to 8) (size 9 to 14) (size 15 to 20)
#    0.000    1.500    5.000    1.000    0.000    2.500 
#    0.000    3.333    0.000    0.000    0.000    0.000 
#    0.000    2.667    0.000    0.000    0.000    0.000 
#
# Total GULP energy -594955.813242 kJ/mol
# GULP energy per Si atom -12394.912776 kJ/mol
# Density = 1.864047 g / cm^3
# Si number density = 18.682998 Si / 1000 Ang^3
#
#
#
# Elastic Constant Matrix: (Units=GPa)
#
#
# Indices 1 2 3 4 5 6 
#
# 1 136.7355 26.3963 32.1279 0.0000 0.0000 0.0000
# 2 26.3963 52.6201 18.0647 0.0000 0.0000 0.0000
# 3 32.1279 18.0647 72.8118 0.0000 0.0000 0.0000
# 4 0.0000 0.0000 0.0000 21.1692 0.0000 0.0000
# 5 0.0000 0.0000 0.0000 0.0000 22.0472 0.0000
# 6 0.0000 0.0000 0.0000 0.0000 0.0000 35.3995
#
#
#
# Elastic Compliance Matrix: (Units=1/GPa)
#
#
# Indices 1 2 3 4 5 6 
#
# 1 0.008658 -0.003314 -0.002998 0.000000 0.000000 0.000000
# 2 -0.003314 0.022042 -0.004006 0.000000 0.000000 0.000000
# 3 -0.002998 -0.004006 0.016051 0.000000 0.000000 0.000000
# 4 0.000000 0.000000 0.000000 0.047238 0.000000 0.000000
# 5 0.000000 0.000000 0.000000 0.000000 0.045357 0.000000
# 6 0.000000 0.000000 0.000000 0.000000 0.000000 0.028249
#
#
# Mechanical properties :
#
#
# Convention : Reuss Voigt Hill
#
# Bulk Modulus (GPa) = 38.29361 46.14945 42.22153
# Shear Modulus (GPa) = 25.38897 28.09507 26.74202
#
# Velocity S-wave (km/s) = 3.69037 3.88206 3.78743
# Velocity P-wave (km/s) = 6.22089 6.69693 6.46329
#
# Compressibility (1/GPa) = 0.02611402
#
# Stress axis : x y z
#
# Youngs Moduli (GPa) = 115.50678 45.36819 62.30193
#
# Poissons Ratio (x) = 0.15034 0.18678
# Poissons Ratio (y) = 0.38276 0.24961
# Poissons Ratio (z) = 0.34628 0.18176
#
# Static dielectric constant tensor:
#      x y z
#    x 3.658540 0.000000 0.000000 
#    y 0.000000 3.412110 0.000000 
#    z 0.000000 0.000000 3.208260 
# 
# 
# High freq. dielectric constant tensor:
#      x y z
#    x 1.737310 0.000000 0.000000 
#    y 0.000000 1.719080 0.000000 
#    z 0.000000 0.000000 1.698350 
# 
# From -- ./inp_files/29132.got.cif
#   From: 2010.03.12/outbox.cif.g09.slc.cpg/sg65_15_cif.got.tgz:29132.got - 2010.04.10 20:52:16.
