data_PCOD8271035
_publ_section_title
;
Structure prediction by ZEFSAII (Michael W. Deem and Ramdas Pophale) SiO2 
 PCOD8271035
Probable space group: C M M M
;
_chemical_formula_sum "Si O2"
_cell_formula_units_Z 96
_cell_length_a 28.862237
_cell_length_b 8.938404
_cell_length_c 20.336475
_cell_angle_alpha 90.000000
_cell_angle_beta 90.000000
_cell_angle_gamma 90.000000
_cell_volume 5246.451299
_symmetry_space_group_name_H-M "C M M M"
_symmetry_group_IT_number 65
_symmetry_cell_setting 'orthorhombic'
loop_
_space_group_symop_operation_xyz
x,y,z
-x,-y,z
x,-y,-z
-x,y,-z
-x,-y,-z
x,y,-z
-x,y,z
x,-y,z
1/2+x,1/2+y,z
1/2-x,1/2-y,z
1/2+x,1/2-y,-z
1/2-x,1/2+y,-z
1/2-x,1/2-y,-z
1/2+x,1/2+y,-z
1/2-x,1/2+y,z
1/2+x,1/2-y,z
loop_
_atom_site_type_symbol
_atom_site_label
_atom_site_fract_x
_atom_site_fract_y
_atom_site_fract_z
Si Si1 0.703039 0.174924 0.123130
Si Si2 0.551717 0.322415 0.807869
Si Si3 0.202544 0.675947 0.725097
Si Si4 0.611122 0.323595 0.684298
Si Si5 0.553407 0.171361 0.575956
Si Si6 0.385825 0.672255 0.926190
O O1 0.750000 0.250000 0.097186
O O2 0.694087 0.218145 0.198899
O O3 0.660941 0.234009 0.079822
O O4 0.708103 0.000000 0.112947
O O5 0.500000 0.253573 0.804623
O O6 0.548713 0.500000 0.806028
O O7 0.581144 0.263295 0.745984
O O8 0.575693 0.267157 0.875338
O O9 0.205578 0.500000 0.713618
O O10 0.250000 0.750000 0.699716
O O11 0.160643 0.743194 0.683097
O O12 0.618866 0.500000 0.688603
O O13 0.584806 0.283179 0.617586
O O14 0.565585 0.197539 0.500000
O O15 0.500000 0.210694 0.589526
O O16 0.563556 0.000000 0.595881
O O17 0.374037 0.500000 0.910391
O O18 0.405530 0.691249 0.000000
#
# Coordination Sequence:
#
# PCOD8271035 Si02
#       6
#    16  16  16  16  16  16
#     4  10  20  34  54  76 102 133 170 217 269 323
#     4   9  18  32  50  75 105 135 173 221 267 310
#     4  10  20  34  54  80 108 139 177 219 269 323
#     4  11  20  32  55  83 113 144 177 222 270 317
#     4   9  19  36  56  80 114 153 188 223 265 314
#     4  10  20  34  52  73 101 138 178 220 268 321
#
# _framework density 18.298082999999998
#
# number of rings (size 3 to 8) (size 9 to 14) (size 15 to 20)
#    0.000    2.167    1.667    2.500    0.000    3.667 
#    0.000    2.500    0.000    2.000    0.000    1.167 
#    0.000    0.000    0.000    0.000    0.000    0.000 
#
# Total GULP energy -595365.363191 kJ/mol
# GULP energy per Si atom -12403.445066 kJ/mol
# Density = 1.825644 g / cm^3
# Si number density = 18.298083 Si / 1000 Ang^3
#
#
#
# Elastic Constant Matrix: (Units=GPa)
#
#
# Indices 1 2 3 4 5 6 
#
# 1 136.8928 40.7508 54.0496 0.0000 0.0000 0.0000
# 2 40.7508 62.9829 29.7543 0.0000 0.0000 0.0000
# 3 54.0496 29.7543 86.6668 0.0000 0.0000 0.0000
# 4 0.0000 0.0000 0.0000 24.1618 0.0000 0.0000
# 5 0.0000 0.0000 0.0000 0.0000 28.5797 0.0000
# 6 0.0000 0.0000 0.0000 0.0000 0.0000 27.9300
#
#
#
# Elastic Compliance Matrix: (Units=1/GPa)
#
#
# Indices 1 2 3 4 5 6 
#
# 1 0.010655 -0.004482 -0.005107 0.000000 0.000000 0.000000
# 2 -0.004482 0.020836 -0.004358 0.000000 0.000000 0.000000
# 3 -0.005107 -0.004358 0.016219 0.000000 0.000000 0.000000
# 4 0.000000 0.000000 0.000000 0.041388 0.000000 0.000000
# 5 0.000000 0.000000 0.000000 0.000000 0.034990 0.000000
# 6 0.000000 0.000000 0.000000 0.000000 0.000000 0.035804
#
#
# Mechanical properties :
#
#
# Convention : Reuss Voigt Hill
#
# Bulk Modulus (GPa) = 50.46032 59.51688 54.98860
# Shear Modulus (GPa) = 25.72131 26.93347 26.32739
#
# Velocity S-wave (km/s) = 3.75331 3.84073 3.79727
# Velocity P-wave (km/s) = 6.81321 7.22947 7.02442
#
# Compressibility (1/GPa) = 0.01981755
#
# Stress axis : x y z
#
# Youngs Moduli (GPa) = 93.84957 47.99370 61.65439
#
# Poissons Ratio (x) = 0.21510 0.31484
# Poissons Ratio (y) = 0.42061 0.26871
# Poissons Ratio (z) = 0.47925 0.20918
#
# Static dielectric constant tensor:
#      x y z
#    x 3.442630 0.000000 0.000000 
#    y 0.000000 3.169920 0.000000 
#    z 0.000000 0.000000 3.228220 
# 
# 
# High freq. dielectric constant tensor:
#      x y z
#    x 1.713200 0.000000 0.000000 
#    y 0.000000 1.697460 0.000000 
#    z 0.000000 0.000000 1.694150 
# 
# From -- ./inp_files/60170.got.cif
#   From: 2010.03.12/outbox.cif.g09.slc.cpg/sg65_31_cif.got.tgz:60170.got - 2010.04.10 20:52:16.
