data_PCOD8271044
_publ_section_title
;
Structure prediction by ZEFSAII (Michael W. Deem and Ramdas Pophale) SiO2 
 PCOD8271044
Probable space group: C M M M
;
_chemical_formula_sum "Si O2"
_cell_formula_units_Z 96
_cell_length_a 20.119495
_cell_length_b 8.989375
_cell_length_c 29.778891
_cell_angle_alpha 90.000000
_cell_angle_beta 90.000000
_cell_angle_gamma 90.000000
_cell_volume 5385.860415
_symmetry_space_group_name_H-M "C M M M"
_symmetry_group_IT_number 65
_symmetry_cell_setting 'orthorhombic'
loop_
_space_group_symop_operation_xyz
x,y,z
-x,-y,z
x,-y,-z
-x,y,-z
-x,-y,-z
x,y,-z
-x,y,z
x,-y,z
1/2+x,1/2+y,z
1/2-x,1/2-y,z
1/2+x,1/2-y,-z
1/2-x,1/2+y,-z
1/2-x,1/2-y,-z
1/2+x,1/2+y,-z
1/2-x,1/2+y,z
1/2+x,1/2-y,z
loop_
_atom_site_type_symbol
_atom_site_label
_atom_site_fract_x
_atom_site_fract_y
_atom_site_fract_z
Si Si1 0.926165 0.323229 0.949983
Si Si2 0.682597 0.825322 0.881814
Si Si3 0.318555 0.824949 0.221371
Si Si4 0.922854 0.826539 0.715193
Si Si5 0.182760 0.674824 0.550793
Si Si6 0.075976 0.327404 0.623036
O O1 0.927124 0.500000 0.947384
O O2 0.876022 0.258688 0.912788
O O3 0.000000 0.261727 0.939459
O O4 0.904001 0.272504 0.000000
O O5 0.750000 0.750000 0.898332
O O6 0.667146 0.784702 0.830358
O O7 0.690541 0.000000 0.888468
O O8 0.250000 0.750000 0.237722
O O9 0.380356 0.761628 0.248562
O O10 0.312531 0.000000 0.229419
O O11 0.903590 0.769354 0.665899
O O12 0.000000 0.793570 0.725315
O O13 0.906230 0.000000 0.718175
O O14 0.167118 0.727380 0.500000
O O15 0.193462 0.500000 0.553048
O O16 0.250000 0.750000 0.568856
O O17 0.121441 0.725235 0.581692
O O18 0.087487 0.500000 0.634944
O O19 0.000000 0.297608 0.608830
#
# Coordination Sequence:
#
# PCOD8271044 Si02
#       6
#    16  16  16  16  16  16
#     4   8  14  26  45  69  96 125 159 198 236 277
#     4   9  18  31  48  71  97 125 158 197 240 286
#     4  10  20  34  52  73  99 130 165 206 249 295
#     4  10  21  36  53  74 101 131 164 204 249 297
#     4   9  18  32  50  73 100 129 161 198 240 286
#     4   9  18  33  52  73  98 129 165 203 242 286
#
# _framework density 17.824449000000001
#
# number of rings (size 3 to 8) (size 9 to 14) (size 15 to 20)
#    0.000    2.833    0.000    1.500    0.000    4.333 
#    0.000    5.000    0.000    0.500    0.000    5.833 
#    0.000    0.000    0.000    0.000    0.000    0.000 
#
# Total GULP energy -595205.169831 kJ/mol
# GULP energy per Si atom -12400.107705 kJ/mol
# Density = 1.778388 g / cm^3
# Si number density = 17.824449 Si / 1000 Ang^3
#
#
#
# Elastic Constant Matrix: (Units=GPa)
#
#
# Indices 1 2 3 4 5 6 
#
# 1 132.4761 43.3271 91.6663 0.0000 0.0000 0.0000
# 2 43.3271 49.0656 39.1126 0.0000 0.0000 0.0000
# 3 91.6663 39.1126 109.5002 0.0000 0.0000 0.0000
# 4 0.0000 0.0000 0.0000 17.4440 0.0000 0.0000
# 5 0.0000 0.0000 0.0000 0.0000 39.4531 0.0000
# 6 0.0000 0.0000 0.0000 0.0000 0.0000 30.2662
#
#
#
# Elastic Compliance Matrix: (Units=1/GPa)
#
#
# Indices 1 2 3 4 5 6 
#
# 1 0.019031 -0.005740 -0.013881 0.000000 0.000000 0.000000
# 2 -0.005740 0.030225 -0.005991 0.000000 0.000000 0.000000
# 3 -0.013881 -0.005991 0.022893 0.000000 0.000000 0.000000
# 4 0.000000 0.000000 0.000000 0.057326 0.000000 0.000000
# 5 0.000000 0.000000 0.000000 0.000000 0.025347 0.000000
# 6 0.000000 0.000000 0.000000 0.000000 0.000000 0.033040
#
#
# Mechanical properties :
#
#
# Convention : Reuss Voigt Hill
#
# Bulk Modulus (GPa) = 47.79075 71.02819 59.40947
# Shear Modulus (GPa) = 20.32019 25.22839 22.77429
#
# Velocity S-wave (km/s) = 3.38008 3.76624 3.57837
# Velocity P-wave (km/s) = 6.48871 7.67124 7.10462
#
# Compressibility (1/GPa) = 0.02092455
#
# Stress axis : x y z
#
# Youngs Moduli (GPa) = 52.54681 33.08493 43.68195
#
# Poissons Ratio (x) = 0.18990 0.60635
# Poissons Ratio (y) = 0.30160 0.26171
# Poissons Ratio (z) = 0.72940 0.19822
#
# Static dielectric constant tensor:
#      x y z
#    x 3.472920 0.000000 0.000000 
#    y 0.000000 3.132780 0.000000 
#    z 0.000000 0.000000 3.428530 
# 
# 
# High freq. dielectric constant tensor:
#      x y z
#    x 1.694590 0.000000 0.000000 
#    y 0.000000 1.673040 0.000000 
#    z 0.000000 0.000000 1.690780 
# 
# From -- ./inp_files/73108.got.cif
#   From: 2010.03.12/outbox.cif.g09.slc.cpg/sg65_37_cif.got.tgz:73108.got - 2010.04.10 20:52:16.
