data_PCOD8271909
_publ_section_title
;
Structure prediction by ZEFSAII (Michael W. Deem and Ramdas Pophale) SiO2 
 PCOD8271909
Probable space group: C M M M
;
_chemical_formula_sum "Si O2"
_cell_formula_units_Z 88
_cell_length_a 8.508394
_cell_length_b 24.265759
_cell_length_c 22.360589
_cell_angle_alpha 90.000000
_cell_angle_beta 90.000000
_cell_angle_gamma 90.000000
_cell_volume 4616.626198
_symmetry_space_group_name_H-M "C M M M"
_symmetry_group_IT_number 65
_symmetry_cell_setting 'orthorhombic'
loop_
_space_group_symop_operation_xyz
x,y,z
-x,-y,z
x,-y,-z
-x,y,-z
-x,-y,-z
x,y,-z
-x,y,z
x,-y,z
1/2+x,1/2+y,z
1/2-x,1/2-y,z
1/2+x,1/2-y,-z
1/2-x,1/2+y,-z
1/2-x,1/2-y,-z
1/2+x,1/2+y,-z
1/2-x,1/2+y,z
1/2+x,1/2-y,z
loop_
_atom_site_type_symbol
_atom_site_label
_atom_site_fract_x
_atom_site_fract_y
_atom_site_fract_z
Si Si1 0.818738 0.613259 0.069723
Si Si2 0.685700 0.000000 0.568078
Si Si3 0.825000 0.000000 0.070417
Si Si4 0.817749 0.192746 0.837776
Si Si5 0.185844 0.811458 0.500000
Si Si6 0.685562 0.614861 0.390510
Si Si7 0.684691 0.189540 0.289452
O O1 0.776527 0.552005 0.090924
O O2 0.705095 0.651631 0.107630
O O3 0.000000 0.625524 0.084064
O O4 0.781425 0.622508 0.000000
O O5 0.743370 0.945944 0.602915
O O6 0.500000 0.000000 0.567519
O O7 0.752130 0.000000 0.500000
O O8 0.000000 0.000000 0.099601
O O9 0.844657 0.000000 0.000000
O O10 0.750000 0.250000 0.861403
O O11 0.723661 0.174196 0.778854
O O12 0.000000 0.198181 0.820923
O O13 0.250000 0.750000 0.500000
O O14 0.248550 0.844722 0.557447
O O15 0.000000 0.807949 0.500000
O O16 0.500000 0.608975 0.393278
O O17 0.737034 0.641573 0.328261
O O18 0.500000 0.189710 0.300386
O O19 0.750000 0.250000 0.306578
#
# Coordination Sequence:
#
# PCOD8271909 Si02
#       7
#    16   8   8  16   8  16  16
#     4  10  20  35  56  83 115 151 191 237 289 344
#     4  11  23  39  60  87 118 157 196 235 285 343
#     4   9  17  31  52  79 110 145 185 228 276 332
#     4  11  22  38  59  83 113 151 192 236 288 346
#     4  10  22  35  54  83 115 146 182 228 277 326
#     4  11  22  39  60  85 115 153 193 234 283 337
#     4  11  22  39  61  86 115 150 191 237 288 344
#
# _framework density 19.061540000000001
#
# number of rings (size 3 to 8) (size 9 to 14) (size 15 to 20)
#    0.000    1.455    0.909    6.545    0.000    5.818 
#    0.000    0.909    0.000    0.000    0.000    0.000 
#    0.000    0.000    0.000    0.000    0.000    0.000 
#
# Total GULP energy -545733.833459 kJ/mol
# GULP energy per Si atom -12403.041670 kJ/mol
# Density = 1.901816 g / cm^3
# Si number density = 19.061540 Si / 1000 Ang^3
#
#
#
# Elastic Constant Matrix: (Units=GPa)
#
#
# Indices 1 2 3 4 5 6 
#
# 1 74.0796 26.5182 15.6408 0.0000 0.0000 0.0000
# 2 26.5182 147.7896 63.9950 0.0000 0.0000 0.0000
# 3 15.6408 63.9950 74.9989 0.0000 0.0000 0.0000
# 4 0.0000 0.0000 0.0000 33.7349 0.0000 0.0000
# 5 0.0000 0.0000 0.0000 0.0000 28.1487 0.0000
# 6 0.0000 0.0000 0.0000 0.0000 0.0000 36.1649
#
#
#
# Elastic Compliance Matrix: (Units=1/GPa)
#
#
# Indices 1 2 3 4 5 6 
#
# 1 0.014502 -0.002050 -0.001275 0.000000 0.000000 0.000000
# 2 -0.002050 0.011021 -0.008977 0.000000 0.000000 0.000000
# 3 -0.001275 -0.008977 0.021259 0.000000 0.000000 0.000000
# 4 0.000000 0.000000 0.000000 0.029643 0.000000 0.000000
# 5 0.000000 0.000000 0.000000 0.000000 0.035526 0.000000
# 6 0.000000 0.000000 0.000000 0.000000 0.000000 0.027651
#
#
# Mechanical properties :
#
#
# Convention : Reuss Voigt Hill
#
# Bulk Modulus (GPa) = 45.08824 56.57513 50.83168
# Shear Modulus (GPa) = 29.13777 32.32396 30.73086
#
# Velocity S-wave (km/s) = 3.91399 4.12244 4.01957
# Velocity P-wave (km/s) = 6.64313 7.23906 6.94749
#
# Compressibility (1/GPa) = 0.02217873
#
# Stress axis : x y z
#
# Youngs Moduli (GPa) = 68.95577 90.73393 47.03873
#
# Poissons Ratio (x) = 0.18600 0.05998
# Poissons Ratio (y) = 0.14136 0.42225
# Poissons Ratio (z) = 0.08793 0.81449
#
# Static dielectric constant tensor:
#      x y z
#    x 3.556630 0.000000 0.000000 
#    y 0.000000 3.708240 0.000000 
#    z 0.000000 0.000000 3.378400 
# 
# 
# High freq. dielectric constant tensor:
#      x y z
#    x 1.756500 0.000000 0.000000 
#    y 0.000000 1.746270 0.000000 
#    z 0.000000 0.000000 1.729360 
# 
# From -- ./inp_files/67673.got.cif
#   From: 2010.03.12/outbox.cif.g09.slc.cpg/sg65_34_cif.got.tgz:67673.got - 2010.04.10 20:52:16.
