data_PCOD8271711
_publ_section_title
;
Structure prediction by ZEFSAII (Michael W. Deem and Ramdas Pophale) SiO2 
 PCOD8271711
Probable space group: C M M M
;
_chemical_formula_sum "Si O2"
_cell_formula_units_Z 72
_cell_length_a 27.657389
_cell_length_b 16.403410
_cell_length_c 8.918255
_cell_angle_alpha 90.000000
_cell_angle_beta 90.000000
_cell_angle_gamma 90.000000
_cell_volume 4045.993719
_symmetry_space_group_name_H-M "C M M M"
_symmetry_group_IT_number 65
_symmetry_cell_setting 'orthorhombic'
loop_
_space_group_symop_operation_xyz
x,y,z
-x,-y,z
x,-y,-z
-x,y,-z
-x,-y,-z
x,y,-z
-x,y,z
x,-y,z
1/2+x,1/2+y,z
1/2-x,1/2-y,z
1/2+x,1/2-y,-z
1/2-x,1/2+y,-z
1/2-x,1/2-y,-z
1/2+x,1/2+y,-z
1/2-x,1/2+y,z
1/2+x,1/2-y,z
loop_
_atom_site_type_symbol
_atom_site_label
_atom_site_fract_x
_atom_site_fract_y
_atom_site_fract_z
Si Si1 0.942634 0.000000 0.168829
Si Si2 0.056015 0.164606 0.676062
Si Si3 0.687443 0.908217 0.324049
Si Si4 0.281958 0.670109 0.335550
Si Si5 0.363007 0.241749 0.823583
O O1 0.924151 0.080129 0.254630
O O2 0.000000 0.000000 0.168026
O O3 0.921826 0.000000 0.000000
O O4 0.064773 0.161695 0.500000
O O5 0.085467 0.239244 0.748180
O O6 0.000000 0.178778 0.715757
O O7 0.681512 0.888112 0.500000
O O8 0.744448 0.899401 0.279341
O O9 0.653940 0.846868 0.231439
O O10 0.670940 0.000000 0.286224
O O11 0.303733 0.648207 0.500000
O O12 0.250000 0.750000 0.350012
O O13 0.325486 0.686107 0.220494
O O14 0.369058 0.240102 0.000000
#
# Coordination Sequence:
#
# PCOD8271711 Si02
#       5
#     8  16  16  16  16
#     4   9  17  31  51  75 103 129 157 203 259 305
#     4  10  20  35  55  76 100 136 179 215 250 301
#     4   9  18  34  55  76 100 134 175 216 256 303
#     4   8  15  30  50  70  96 129 167 208 247 297
#     4  11  21  32  50  76 107 139 169 210 262 309
#
# _framework density 17.795380000000002
#
# number of rings (size 3 to 8) (size 9 to 14) (size 15 to 20)
#    0.000    2.556    0.000    4.333    0.000    7.111 
#    2.000    0.000    0.000    0.667    0.000    4.667 
#    0.000    0.000    0.000    0.000    0.000    0.000 
#
# Total GULP energy -446264.036404 kJ/mol
# GULP energy per Si atom -12396.223233 kJ/mol
# Density = 1.775488 g / cm^3
# Si number density = 17.795380 Si / 1000 Ang^3
#
#
#
# Elastic Constant Matrix: (Units=GPa)
#
#
# Indices 1 2 3 4 5 6 
#
# 1 82.2269 48.6930 54.6705 0.0000 0.0000 0.0000
# 2 48.6930 90.7183 50.5324 0.0000 0.0000 0.0000
# 3 54.6705 50.5324 120.2475 0.0000 0.0000 0.0000
# 4 0.0000 0.0000 0.0000 21.3795 0.0000 0.0000
# 5 0.0000 0.0000 0.0000 0.0000 23.8075 0.0000
# 6 0.0000 0.0000 0.0000 0.0000 0.0000 24.6400
#
#
#
# Elastic Compliance Matrix: (Units=1/GPa)
#
#
# Indices 1 2 3 4 5 6 
#
# 1 0.020898 -0.007735 -0.006251 0.000000 0.000000 0.000000
# 2 -0.007735 0.017255 -0.003734 0.000000 0.000000 0.000000
# 3 -0.006251 -0.003734 0.012727 0.000000 0.000000 0.000000
# 4 0.000000 0.000000 0.000000 0.046774 0.000000 0.000000
# 5 0.000000 0.000000 0.000000 0.000000 0.042003 0.000000
# 6 0.000000 0.000000 0.000000 0.000000 0.000000 0.040584
#
#
# Mechanical properties :
#
#
# Convention : Reuss Voigt Hill
#
# Bulk Modulus (GPa) = 64.76707 66.77607 65.77157
# Shear Modulus (GPa) = 22.64189 23.25185 22.94687
#
# Velocity S-wave (km/s) = 3.57087 3.61865 3.59484
# Velocity P-wave (km/s) = 7.31272 7.42060 7.36686
#
# Compressibility (1/GPa) = 0.01543994
#
# Stress axis : x y z
#
# Youngs Moduli (GPa) = 47.85141 57.95358 78.57065
#
# Poissons Ratio (x) = 0.44828 0.49112
# Poissons Ratio (y) = 0.37014 0.29342
# Poissons Ratio (z) = 0.29910 0.21642
#
# Static dielectric constant tensor:
#      x y z
#    x 3.290590 0.000000 0.000000 
#    y 0.000000 3.380790 0.000000 
#    z 0.000000 0.000000 3.266720 
# 
# 
# High freq. dielectric constant tensor:
#      x y z
#    x 1.670690 0.000000 0.000000 
#    y 0.000000 1.673070 0.000000 
#    z 0.000000 0.000000 1.689190 
# 
# From -- ./inp_files/7270.got.cif
#   From: 2010.03.12/outbox.cif.g09.slc.cpg/sg65_4_cif.got.tgz:7270.got - 2010.04.10 20:52:16.
