data_PCOD8271566
_publ_section_title
;
Structure prediction by ZEFSAII (Michael W. Deem and Ramdas Pophale) SiO2 
 PCOD8271566
Probable space group: C M M M
;
_chemical_formula_sum "Si O2"
_cell_formula_units_Z 88
_cell_length_a 27.309611
_cell_length_b 19.353141
_cell_length_c 8.690574
_cell_angle_alpha 90.000000
_cell_angle_beta 90.000000
_cell_angle_gamma 90.000000
_cell_volume 4593.200852
_symmetry_space_group_name_H-M "C M M M"
_symmetry_group_IT_number 65
_symmetry_cell_setting 'orthorhombic'
loop_
_space_group_symop_operation_xyz
x,y,z
-x,-y,z
x,-y,-z
-x,y,-z
-x,-y,-z
x,y,-z
-x,y,z
x,-y,z
1/2+x,1/2+y,z
1/2-x,1/2-y,z
1/2+x,1/2-y,-z
1/2-x,1/2+y,-z
1/2-x,1/2-y,-z
1/2+x,1/2+y,-z
1/2-x,1/2+y,z
1/2+x,1/2-y,z
loop_
_atom_site_type_symbol
_atom_site_label
_atom_site_fract_x
_atom_site_fract_y
_atom_site_fract_z
Si Si1 0.054733 0.924665 0.817153
Si Si2 0.270355 0.677881 0.819681
Si Si3 0.306421 0.077862 0.682053
Si Si4 0.095539 0.652874 0.682280
Si Si5 0.381576 0.299611 0.818131
Si Si6 0.000000 0.580027 0.182168
O O1 0.087059 0.862930 0.750962
O O2 0.000000 0.914781 0.754008
O O3 0.074982 0.000000 0.764231
O O4 0.055106 0.921108 0.000000
O O5 0.250000 0.750000 0.756457
O O6 0.242519 0.615293 0.738834
O O7 0.326962 0.677909 0.775163
O O8 0.261195 0.670264 0.000000
O O9 0.306509 0.078681 0.500000
O O10 0.355629 0.114663 0.744108
O O11 0.305783 0.000000 0.746526
O O12 0.090857 0.647576 0.500000
O O13 0.099551 0.732138 0.731734
O O14 0.048168 0.617392 0.754846
O O15 0.387500 0.287211 0.000000
O O16 0.000000 0.500000 0.235419
O O17 0.000000 0.586362 0.000000
#
# Coordination Sequence:
#
# PCOD8271566 Si02
#       6
#    16  16  16  16  16   8
#     4   8  15  29  50  77 107 140 181 229 280 333
#     4  10  20  35  54  81 116 148 185 236 288 335
#     4  10  22  39  59  83 112 151 197 238 283 346
#     4  11  23  39  60  86 118 154 191 236 290 346
#     4  10  20  34  56  85 116 149 192 240 285 341
#     4  11  25  43  63  87 116 151 192 239 289 344
#
# _framework density 19.158753999999998
#
# number of rings (size 3 to 8) (size 9 to 14) (size 15 to 20)
#    0.000    2.091    1.818    1.909    1.273    4.364 
#    0.000    1.818    0.000    0.545    0.000    1.273 
#    0.000    0.000    0.000    0.000    0.000    0.000 
#
# Total GULP energy -545568.193459 kJ/mol
# GULP energy per Si atom -12399.277124 kJ/mol
# Density = 1.911515 g / cm^3
# Si number density = 19.158754 Si / 1000 Ang^3
#
#
#
# Elastic Constant Matrix: (Units=GPa)
#
#
# Indices 1 2 3 4 5 6 
#
# 1 132.9292 96.7062 30.3220 0.0000 0.0000 0.0000
# 2 96.7062 197.0300 31.5568 0.0000 0.0000 0.0000
# 3 30.3220 31.5568 35.5545 0.0000 0.0000 0.0000
# 4 0.0000 0.0000 0.0000 25.1844 0.0000 0.0000
# 5 0.0000 0.0000 0.0000 0.0000 -0.0923 0.0000
# 6 0.0000 0.0000 0.0000 0.0000 0.0000 41.1151
#
#
#
# Elastic Compliance Matrix: (Units=1/GPa)
#
#
# Indices 1 2 3 4 5 6 
#
# 1 0.012780 -0.005277 -0.006215 0.000000 0.000000 0.000000
# 2 -0.005277 0.008095 -0.002685 0.000000 0.000000 0.000000
# 3 -0.006215 -0.002685 0.035809 0.000000 0.000000 0.000000
# 4 0.000000 0.000000 0.000000 0.039707 0.000000 0.000000
# 5 0.000000 0.000000 0.000000 0.000000-10.829471 0.000000
# 6 0.000000 0.000000 0.000000 0.000000 0.000000 0.024322
#
#
# Mechanical properties :
#
#
# Convention : Reuss Voigt Hill
#
# Bulk Modulus (GPa) = 35.29783 75.85375 55.57579
# Shear Modulus (GPa) = -0.46856 27.03669 13.28406
#
# Velocity S-wave (km/s) = -0.49507 3.76066 2.63604
# Velocity P-wave (km/s) = 4.25876 7.65081 6.19161
#
# Compressibility (1/GPa) = 0.02833036
#
# Stress axis : x y z
#
# Youngs Moduli (GPa) = 78.25000 123.52640 27.92573
#
# Poissons Ratio (x) = 0.65185 0.17356
# Poissons Ratio (y) = 0.41293 0.07497
# Poissons Ratio (z) = 0.48633 0.33164
#
# Static dielectric constant tensor:
#      x y z
#    x 3.676810 0.000000 0.000000 
#    y 0.000000 3.819050 0.000000 
#    z 0.000000 0.000000 3.206090 
# 
# 
# High freq. dielectric constant tensor:
#      x y z
#    x 1.755990 0.000000 0.000000 
#    y 0.000000 1.761950 0.000000 
#    z 0.000000 0.000000 1.717970 
# 
# From -- ./inp_files/13989.got.cif
#   From: 2010.03.12/outbox.cif.g09.slc.cpg/sg65_7_cif.got.tgz:13989.got - 2010.04.10 20:52:16.
