data_PCOD8271465
_publ_section_title
;
Structure prediction by ZEFSAII (Michael W. Deem and Ramdas Pophale) SiO2 
 PCOD8271465
Probable space group: C M M M
;
_chemical_formula_sum "Si O2"
_cell_formula_units_Z 104
_cell_length_a 28.863599
_cell_length_b 8.896414
_cell_length_c 20.202071
_cell_angle_alpha 90.000000
_cell_angle_beta 90.000000
_cell_angle_gamma 90.000000
_cell_volume 5187.538827
_symmetry_space_group_name_H-M "C M M M"
_symmetry_group_IT_number 65
_symmetry_cell_setting 'orthorhombic'
loop_
_space_group_symop_operation_xyz
x,y,z
-x,-y,z
x,-y,-z
-x,y,-z
-x,-y,-z
x,y,-z
-x,y,z
x,-y,z
1/2+x,1/2+y,z
1/2-x,1/2-y,z
1/2+x,1/2-y,-z
1/2-x,1/2+y,-z
1/2-x,1/2-y,-z
1/2+x,1/2+y,-z
1/2-x,1/2+y,z
1/2+x,1/2-y,z
loop_
_atom_site_type_symbol
_atom_site_label
_atom_site_fract_x
_atom_site_fract_y
_atom_site_fract_z
Si Si1 0.445703 0.669015 0.683888
Si Si2 0.301007 0.321688 0.000000
Si Si3 0.298187 0.324943 0.227914
Si Si4 0.551860 0.173197 0.180266
Si Si5 0.887079 0.328134 0.574141
Si Si6 0.202475 0.827271 0.381960
Si Si7 0.854913 0.325040 0.880619
O O1 0.500000 0.673589 0.671861
O O2 0.425900 0.500000 0.680661
O O3 0.433223 0.732105 0.755867
O O4 0.423588 0.763783 0.625508
O O5 0.250000 0.250000 0.000000
O O6 0.330482 0.272055 0.936781
O O7 0.295170 0.500000 0.000000
O O8 0.297522 0.500000 0.207505
O O9 0.250000 0.250000 0.207006
O O10 0.308686 0.302540 0.304834
O O11 0.337529 0.232844 0.190127
O O12 0.500000 0.218389 0.155456
O O13 0.589150 0.200577 0.121202
O O14 0.552878 0.000000 0.202160
O O15 0.907482 0.311029 0.500000
O O16 0.877741 0.500000 0.592633
O O17 0.838546 0.242564 0.575943
O O18 0.250000 0.750000 0.402951
O O19 0.207292 0.000000 0.400219
O O20 0.842880 0.500000 0.891630
#
# Coordination Sequence:
#
# PCOD8271465 Si02
#       7
#    16   8  16  16  16  16  16
#     4  10  21  37  59  87 117 148 184 232 288 342
#     4  12  26  44  63  84 117 157 196 235 277 328
#     4  10  20  34  54  82 112 142 181 227 279 335
#     4   9  19  37  62  90 118 150 188 230 277 331
#     4  11  24  39  55  77 107 146 191 236 284 342
#     4  10  21  37  58  82 110 144 184 233 286 341
#     4  11  22  37  59  86 117 152 190 231 276 326
#
# _framework density 20.048043
#
# number of rings (size 3 to 8) (size 9 to 14) (size 15 to 20)
#    0.000    1.692    0.000    4.385    0.000    8.308 
#    0.000    1.923    0.000    2.308    0.000    0.000 
#    0.000    0.000    0.000    0.000    0.000    0.000 
#
# Total GULP energy -644909.571475 kJ/mol
# GULP energy per Si atom -12402.107144 kJ/mol
# Density = 2.000241 g / cm^3
# Si number density = 20.048043 Si / 1000 Ang^3
#
#
#
# Elastic Constant Matrix: (Units=GPa)
#
#
# Indices 1 2 3 4 5 6 
#
# 1 100.9683 50.4229 52.5178 0.0000 0.0000 0.0000
# 2 50.4229 133.4777 45.4717 0.0000 0.0000 0.0000
# 3 52.5178 45.4717 70.7308 0.0000 0.0000 0.0000
# 4 0.0000 0.0000 0.0000 27.8842 0.0000 0.0000
# 5 0.0000 0.0000 0.0000 0.0000 36.9257 0.0000
# 6 0.0000 0.0000 0.0000 0.0000 0.0000 32.7899
#
#
#
# Elastic Compliance Matrix: (Units=1/GPa)
#
#
# Indices 1 2 3 4 5 6 
#
# 1 0.016860 -0.002695 -0.010787 0.000000 0.000000 0.000000
# 2 -0.002695 0.010023 -0.004443 0.000000 0.000000 0.000000
# 3 -0.010787 -0.004443 0.025004 0.000000 0.000000 0.000000
# 4 0.000000 0.000000 0.000000 0.035863 0.000000 0.000000
# 5 0.000000 0.000000 0.000000 0.000000 0.027081 0.000000
# 6 0.000000 0.000000 0.000000 0.000000 0.000000 0.030497
#
#
# Mechanical properties :
#
#
# Convention : Reuss Voigt Hill
#
# Bulk Modulus (GPa) = 62.34889 66.88907 64.61898
# Shear Modulus (GPa) = 26.80630 29.97091 28.38861
#
# Velocity S-wave (km/s) = 3.66061 3.87066 3.76710
# Velocity P-wave (km/s) = 7.00243 7.30841 7.15705
#
# Compressibility (1/GPa) = 0.01603878
#
# Stress axis : x y z
#
# Youngs Moduli (GPa) = 59.31109 99.76607 39.99426
#
# Poissons Ratio (x) = 0.26883 0.43140
# Poissons Ratio (y) = 0.15982 0.17770
# Poissons Ratio (z) = 0.63976 0.44328
#
# Static dielectric constant tensor:
#      x y z
#    x 3.898200 0.000000 0.000000 
#    y 0.000000 3.831480 0.000000 
#    z 0.000000 0.000000 3.484570 
# 
# 
# High freq. dielectric constant tensor:
#      x y z
#    x 1.793470 0.000000 0.000000 
#    y 0.000000 1.796760 0.000000 
#    z 0.000000 0.000000 1.767580 
# 
# From -- ./inp_files/65849.got.cif
#   From: 2010.03.12/outbox.cif.g09.slc.cpg/sg65_33_cif.got.tgz:65849.got - 2010.04.10 20:52:16.
