data_PCOD8271037
_publ_section_title
;
Structure prediction by ZEFSAII (Michael W. Deem and Ramdas Pophale) SiO2 
 PCOD8271037
Probable space group: C M M M
;
_chemical_formula_sum "Si O2"
_cell_formula_units_Z 72
_cell_length_a 25.171066
_cell_length_b 9.214544
_cell_length_c 16.960526
_cell_angle_alpha 90.000000
_cell_angle_beta 90.000000
_cell_angle_gamma 90.000000
_cell_volume 3933.822623
_symmetry_space_group_name_H-M "C M M M"
_symmetry_group_IT_number 65
_symmetry_cell_setting 'orthorhombic'
loop_
_space_group_symop_operation_xyz
x,y,z
-x,-y,z
x,-y,-z
-x,y,-z
-x,-y,-z
x,y,-z
-x,y,z
x,-y,z
1/2+x,1/2+y,z
1/2-x,1/2-y,z
1/2+x,1/2-y,-z
1/2-x,1/2+y,-z
1/2-x,1/2-y,-z
1/2+x,1/2+y,-z
1/2-x,1/2+y,z
1/2+x,1/2-y,z
loop_
_atom_site_type_symbol
_atom_site_label
_atom_site_fract_x
_atom_site_fract_y
_atom_site_fract_z
Si Si1 0.841928 0.832145 0.585341
Si Si2 0.500000 0.827418 0.089081
Si Si3 0.095404 0.667050 0.196423
Si Si4 0.802939 0.172964 0.752726
Si Si5 0.441052 0.835009 0.371854
O O1 0.813440 0.802334 0.500000
O O2 0.808711 0.775823 0.660676
O O3 0.899391 0.759841 0.580669
O O4 0.852333 0.000000 0.598504
O O5 0.445894 0.772840 0.131085
O O6 0.500000 0.000000 0.093411
O O7 0.500000 0.768348 0.000000
O O8 0.112213 0.500000 0.180198
O O9 0.147811 0.767870 0.195932
O O10 0.065345 0.681747 0.278598
O O11 0.750000 0.250000 0.785121
O O12 0.798566 0.000000 0.762021
O O13 0.500000 0.783021 0.395019
O O14 0.431887 0.000000 0.397740
#
# Coordination Sequence:
#
# PCOD8271037 Si02
#       5
#    16   8  16  16  16
#     4   9  19  33  45  62  91 124 160 205 255 301
#     4   9  16  28  53  87 114 135 160 192 237 291
#     4   9  16  30  51  75 104 134 163 199 239 287
#     4  10  20  34  52  73  95 127 170 212 252 295
#     4   9  16  27  44  65  91 126 165 201 238 284
#
# _framework density 18.302809
#
# number of rings (size 3 to 8) (size 9 to 14) (size 15 to 20)
#    0.000    2.778    1.111    0.667    0.000    2.667 
#    0.000    2.778    0.000    2.000    0.000    0.000 
#    0.000    0.000    0.000    0.000    0.000    0.000 
#
# Total GULP energy -446185.028378 kJ/mol
# GULP energy per Si atom -12394.028566 kJ/mol
# Density = 1.826115 g / cm^3
# Si number density = 18.302809 Si / 1000 Ang^3
#
#
#
# Elastic Constant Matrix: (Units=GPa)
#
#
# Indices 1 2 3 4 5 6 
#
# 1 123.7802 41.4536 37.9936 0.0000 0.0000 0.0000
# 2 41.4536 45.2187 22.0998 0.0000 0.0000 0.0000
# 3 37.9936 22.0998 79.5769 0.0000 0.0000 0.0000
# 4 0.0000 0.0000 0.0000 14.1033 0.0000 0.0000
# 5 0.0000 0.0000 0.0000 0.0000 12.5278 0.0000
# 6 0.0000 0.0000 0.0000 0.0000 0.0000 30.1939
#
#
#
# Elastic Compliance Matrix: (Units=1/GPa)
#
#
# Indices 1 2 3 4 5 6 
#
# 1 0.012314 -0.009737 -0.003175 0.000000 0.000000 0.000000
# 2 -0.009737 0.033287 -0.004595 0.000000 0.000000 0.000000
# 3 -0.003175 -0.004595 0.015359 0.000000 0.000000 0.000000
# 4 0.000000 0.000000 0.000000 0.070905 0.000000 0.000000
# 5 0.000000 0.000000 0.000000 0.000000 0.079823 0.000000
# 6 0.000000 0.000000 0.000000 0.000000 0.000000 0.033119
#
#
# Mechanical properties :
#
#
# Convention : Reuss Voigt Hill
#
# Bulk Modulus (GPa) = 38.54391 50.18555 44.36473
# Shear Modulus (GPa) = 17.33276 21.16692 19.24984
#
# Velocity S-wave (km/s) = 3.08067 3.40440 3.24658
# Velocity P-wave (km/s) = 5.81023 6.55228 6.19238
#
# Compressibility (1/GPa) = 0.02594444
#
# Stress axis : x y z
#
# Youngs Moduli (GPa) = 81.20553 30.04170 65.10969
#
# Poissons Ratio (x) = 0.29252 0.20674
# Poissons Ratio (y) = 0.79071 0.29920
# Poissons Ratio (z) = 0.25785 0.13805
#
# Static dielectric constant tensor:
#      x y z
#    x 3.331000 0.000000 0.000000 
#    y 0.000000 3.206560 0.000000 
#    z 0.000000 0.000000 3.330580 
# 
# 
# High freq. dielectric constant tensor:
#      x y z
#    x 1.707760 0.000000 0.000000 
#    y 0.000000 1.691910 0.000000 
#    z 0.000000 0.000000 1.683220 
# 
# From -- ./inp_files/49492.got.cif
#   From: 2010.03.12/outbox.cif.g09.slc.cpg/sg65_25_cif.got.tgz:49492.got - 2010.04.10 20:52:16.
