data_PCOD8271175
_publ_section_title
;
Structure prediction by ZEFSAII (Michael W. Deem and Ramdas Pophale) SiO2 
 PCOD8271175
Probable space group: C M M M
;
_chemical_formula_sum "Si O2"
_cell_formula_units_Z 96
_cell_length_a 18.446643
_cell_length_b 20.484832
_cell_length_c 13.733655
_cell_angle_alpha 90.000000
_cell_angle_beta 90.000000
_cell_angle_gamma 90.000000
_cell_volume 5189.623874
_symmetry_space_group_name_H-M "C M M M"
_symmetry_group_IT_number 65
_symmetry_cell_setting 'orthorhombic'
loop_
_space_group_symop_operation_xyz
x,y,z
-x,-y,z
x,-y,-z
-x,y,-z
-x,-y,-z
x,y,-z
-x,y,z
x,-y,z
1/2+x,1/2+y,z
1/2-x,1/2-y,z
1/2+x,1/2-y,-z
1/2-x,1/2+y,-z
1/2-x,1/2-y,-z
1/2+x,1/2+y,-z
1/2-x,1/2+y,z
1/2+x,1/2-y,z
loop_
_atom_site_type_symbol
_atom_site_label
_atom_site_fract_x
_atom_site_fract_y
_atom_site_fract_z
Si Si1 0.584534 0.798229 0.604174
Si Si2 0.201248 0.189169 0.112317
Si Si3 0.080522 0.572012 0.708241
Si Si4 0.672105 0.424501 0.386855
Si Si5 0.914256 0.820828 0.272279
Si Si6 0.772097 0.572480 0.208184
O O1 0.622000 0.785324 0.500000
O O2 0.500000 0.784179 0.595987
O O3 0.599372 0.873300 0.629574
O O4 0.615182 0.746710 0.681174
O O5 0.250000 0.250000 0.149661
O O6 0.125938 0.178913 0.168944
O O7 0.246475 0.123050 0.127345
O O8 0.181240 0.198608 0.000000
O O9 0.084385 0.500000 0.658482
O O10 0.140470 0.576291 0.792594
O O11 0.000000 0.583897 0.753130
O O12 0.688794 0.405644 0.500000
O O13 0.647817 0.500000 0.380980
O O14 0.606883 0.380702 0.343402
O O15 0.742205 0.411572 0.317738
O O16 0.000000 0.823135 0.253494
O O17 0.746151 0.500000 0.177321
#
# Coordination Sequence:
#
# PCOD8271175 Si02
#       6
#    16  16  16  16  16  16
#     4   9  17  28  43  67 100 134 164 195 235 283
#     4  10  21  37  56  76  98 127 165 207 253 307
#     4   9  17  29  47  71  99 134 173 209 245 286
#     4   9  18  32  50  74 105 140 174 205 240 288
#     4  10  20  34  53  76 102 131 165 208 254 296
#     4   9  18  33  52  74 102 135 169 205 247 297
#
# _framework density 18.498449999999998
#
# number of rings (size 3 to 8) (size 9 to 14) (size 15 to 20)
#    0.000    2.667    0.000    1.500    0.000    3.000 
#    0.000    4.167    0.000    7.000    0.000    7.000 
#    0.000    0.000    0.000    0.000    0.000    0.333 
#
# Total GULP energy -594792.375220 kJ/mol
# GULP energy per Si atom -12391.507817 kJ/mol
# Density = 1.845635 g / cm^3
# Si number density = 18.498450 Si / 1000 Ang^3
#
#
#
# Elastic Constant Matrix: (Units=GPa)
#
#
# Indices 1 2 3 4 5 6 
#
# 1 87.2037 42.8247 26.3109 0.0000 0.0000 0.0000
# 2 42.8247 113.2665 37.4427 0.0000 0.0000 0.0000
# 3 26.3109 37.4427 66.1202 0.0000 0.0000 0.0000
# 4 0.0000 0.0000 0.0000 24.2240 0.0000 0.0000
# 5 0.0000 0.0000 0.0000 0.0000 14.9914 0.0000
# 6 0.0000 0.0000 0.0000 0.0000 0.0000 26.4842
#
#
#
# Elastic Compliance Matrix: (Units=1/GPa)
#
#
# Indices 1 2 3 4 5 6 
#
# 1 0.014649 -0.004443 -0.003313 0.000000 0.000000 0.000000
# 2 -0.004443 0.012210 -0.005146 0.000000 0.000000 0.000000
# 3 -0.003313 -0.005146 0.019356 0.000000 0.000000 0.000000
# 4 0.000000 0.000000 0.000000 0.041281 0.000000 0.000000
# 5 0.000000 0.000000 0.000000 0.000000 0.066705 0.000000
# 6 0.000000 0.000000 0.000000 0.000000 0.000000 0.037758
#
#
# Mechanical properties :
#
#
# Convention : Reuss Voigt Hill
#
# Bulk Modulus (GPa) = 48.99474 53.30522 51.14998
# Shear Modulus (GPa) = 22.26490 23.80739 23.03615
#
# Velocity S-wave (km/s) = 3.47307 3.59136 3.53271
# Velocity P-wave (km/s) = 6.52888 6.78791 6.65966
#
# Compressibility (1/GPa) = 0.02041035
#
# Stress axis : x y z
#
# Youngs Moduli (GPa) = 68.26340 81.90067 51.66239
#
# Poissons Ratio (x) = 0.36392 0.17116
# Poissons Ratio (y) = 0.30333 0.26586
# Poissons Ratio (z) = 0.22616 0.42147
#
# Static dielectric constant tensor:
#      x y z
#    x 3.319050 0.000000 0.000000 
#    y 0.000000 3.670710 0.000000 
#    z 0.000000 0.000000 3.135680 
# 
# 
# High freq. dielectric constant tensor:
#      x y z
#    x 1.707130 0.000000 0.000000 
#    y 0.000000 1.737740 0.000000 
#    z 0.000000 0.000000 1.684760 
# 
# From -- ./inp_files/29036.got.cif
#   From: 2010.03.12/outbox.cif.g09.slc.cpg/sg65_15_cif.got.tgz:29036.got - 2010.04.10 20:52:16.
