data_PCOD8271801
_publ_section_title
;
Structure prediction by ZEFSAII (Michael W. Deem and Ramdas Pophale) SiO2 
 PCOD8271801
Probable space group: C M M M
;
_chemical_formula_sum "Si O2"
_cell_formula_units_Z 64
_cell_length_a 9.215895
_cell_length_b 20.908269
_cell_length_c 17.057154
_cell_angle_alpha 90.000000
_cell_angle_beta 90.000000
_cell_angle_gamma 90.000000
_cell_volume 3286.715913
_symmetry_space_group_name_H-M "C M M M"
_symmetry_group_IT_number 65
_symmetry_cell_setting 'orthorhombic'
loop_
_space_group_symop_operation_xyz
x,y,z
-x,-y,z
x,-y,-z
-x,y,-z
-x,-y,-z
x,y,-z
-x,y,z
x,-y,z
1/2+x,1/2+y,z
1/2-x,1/2-y,z
1/2+x,1/2-y,-z
1/2-x,1/2+y,-z
1/2-x,1/2-y,-z
1/2+x,1/2+y,-z
1/2-x,1/2+y,z
1/2+x,1/2-y,z
loop_
_atom_site_type_symbol
_atom_site_label
_atom_site_fract_x
_atom_site_fract_y
_atom_site_fract_z
Si Si1 0.671076 0.500000 0.408817
Si Si2 0.340296 0.810951 0.500000
Si Si3 0.171410 0.682582 0.184808
Si Si4 0.334021 0.114591 0.655539
Si Si5 0.166138 0.072641 0.092498
O O1 0.500000 0.500000 0.413858
O O2 0.732648 0.500000 0.500000
O O3 0.723836 0.443294 0.352692
O O4 0.500000 0.784651 0.500000
O O5 0.250000 0.750000 0.500000
O O6 0.304269 0.850274 0.424292
O O7 0.250000 0.750000 0.166342
O O8 0.206144 0.661772 0.273584
O O9 0.229420 0.625396 0.130360
O O10 0.000000 0.691331 0.169935
O O11 0.500000 0.090211 0.663403
O O12 0.000000 0.085754 0.117953
O O13 0.210860 0.000000 0.117965
O O14 0.182304 0.079337 0.000000
#
# Coordination Sequence:
#
# PCOD8271801 Si02
#       5
#     8   8  16  16  16
#     4  11  23  37  57  87 114 147 198 251 299 350
#     4  10  20  35  56  77 105 150 194 238 289 342
#     4  11  24  40  61  91 124 160 203 249 300 358
#     4  10  22  39  58  81 115 157 196 239 296 356
#     4   9  20  41  67  93 123 160 199 242 298 360
#
# _framework density 19.472324
#
# number of rings (size 3 to 8) (size 9 to 14) (size 15 to 20)
#    0.000    1.875    1.250    2.625    1.750    5.000 
#    0.000    1.250    0.000    0.000    0.000    0.000 
#    0.000    0.000    0.000    0.000    0.000    0.000 
#
# Total GULP energy -396575.573149 kJ/mol
# GULP energy per Si atom -12392.986661 kJ/mol
# Density = 1.942800 g / cm^3
# Si number density = 19.472324 Si / 1000 Ang^3
#
#
#
# Elastic Constant Matrix: (Units=GPa)
#
#
# Indices 1 2 3 4 5 6 
#
# 1 91.3309 92.2616 41.5745 0.0000 0.0000 0.0000
# 2 92.2616 149.1027 48.2169 0.0000 0.0000 0.0000
# 3 41.5745 48.2169 78.3576 0.0000 0.0000 0.0000
# 4 0.0000 0.0000 0.0000 88.7724 0.0000 0.0000
# 5 0.0000 0.0000 0.0000 0.0000 32.0304 0.0000
# 6 0.0000 0.0000 0.0000 0.0000 0.0000 42.7865
#
#
#
# Elastic Compliance Matrix: (Units=1/GPa)
#
#
# Indices 1 2 3 4 5 6 
#
# 1 0.031205 -0.017422 -0.005836 0.000000 0.000000 0.000000
# 2 -0.017422 0.018099 -0.001894 0.000000 0.000000 0.000000
# 3 -0.005836 -0.001894 0.017024 0.000000 0.000000 0.000000
# 4 0.000000 0.000000 0.000000 0.011265 0.000000 0.000000
# 5 0.000000 0.000000 0.000000 0.000000 0.031220 0.000000
# 6 0.000000 0.000000 0.000000 0.000000 0.000000 0.023372
#
#
# Mechanical properties :
#
#
# Convention : Reuss Voigt Hill
#
# Bulk Modulus (GPa) = 62.40327 75.87745 69.14036
# Shear Modulus (GPa) = 26.61962 41.83372 34.22667
#
# Velocity S-wave (km/s) = 3.70137 4.64008 4.19705
# Velocity P-wave (km/s) = 7.09814 8.23156 7.68577
#
# Compressibility (1/GPa) = 0.01602480
#
# Stress axis : x y z
#
# Youngs Moduli (GPa) = 32.04581 55.25018 58.74075
#
# Poissons Ratio (x) = 0.96256 0.34283
# Poissons Ratio (y) = 0.55830 0.11124
# Poissons Ratio (z) = 0.18703 0.10463
#
# Static dielectric constant tensor:
#      x y z
#    x 3.567440 0.000000 0.000000 
#    y 0.000000 4.593600 0.000000 
#    z 0.000000 0.000000 3.635710 
# 
# 
# High freq. dielectric constant tensor:
#      x y z
#    x 1.758180 0.000000 0.000000 
#    y 0.000000 1.768450 0.000000 
#    z 0.000000 0.000000 1.762410 
# 
# From -- ./inp_files/36068.got.cif
#   From: 2010.03.12/outbox.cif.g09.slc.cpg/sg65_19_cif.got.tgz:36068.got - 2010.04.10 20:52:16.
