data_PCOD8271368
_publ_section_title
;
Structure prediction by ZEFSAII (Michael W. Deem and Ramdas Pophale) SiO2 
 PCOD8271368
Probable space group: C M M M
;
_chemical_formula_sum "Si O2"
_cell_formula_units_Z 104
_cell_length_a 27.797555
_cell_length_b 8.932417
_cell_length_c 21.509283
_cell_angle_alpha 90.000000
_cell_angle_beta 90.000000
_cell_angle_gamma 90.000000
_cell_volume 5340.741049
_symmetry_space_group_name_H-M "C M M M"
_symmetry_group_IT_number 65
_symmetry_cell_setting 'orthorhombic'
loop_
_space_group_symop_operation_xyz
x,y,z
-x,-y,z
x,-y,-z
-x,y,-z
-x,-y,-z
x,y,-z
-x,y,z
x,-y,z
1/2+x,1/2+y,z
1/2-x,1/2-y,z
1/2+x,1/2-y,-z
1/2-x,1/2+y,-z
1/2-x,1/2-y,-z
1/2+x,1/2+y,-z
1/2-x,1/2+y,z
1/2+x,1/2-y,z
loop_
_atom_site_type_symbol
_atom_site_label
_atom_site_fract_x
_atom_site_fract_y
_atom_site_fract_z
Si Si1 0.799965 0.672739 0.928565
Si Si2 0.889983 0.177502 0.120743
Si Si3 0.352547 0.674256 0.570538
Si Si4 0.445814 0.328190 0.643454
Si Si5 0.946256 0.178132 0.000000
Si Si6 0.699804 0.176327 0.319013
Si Si7 0.395733 0.824833 0.247225
O O1 0.796718 0.500000 0.909756
O O2 0.750000 0.750000 0.915020
O O3 0.836914 0.755967 0.884314
O O4 0.815506 0.693844 0.000000
O O5 0.920806 0.238239 0.062400
O O6 0.911315 0.237307 0.185132
O O7 0.888147 0.000000 0.121255
O O8 0.345096 0.727812 0.500000
O O9 0.340431 0.500000 0.578559
O O10 0.408181 0.706706 0.588387
O O11 0.315604 0.765779 0.613063
O O12 0.500000 0.295296 0.619554
O O13 0.440556 0.500000 0.665409
O O14 0.434537 0.221545 0.701402
O O15 0.000000 0.242187 0.000000
O O16 0.945732 0.000000 0.000000
O O17 0.750000 0.250000 0.297636
O O18 0.658147 0.220003 0.269654
O O19 0.706989 0.000000 0.322689
O O20 0.399523 0.000000 0.234482
#
# Coordination Sequence:
#
# PCOD8271368 Si02
#       7
#    16  16  16  16   8  16  16
#     4  10  20  34  54  79 109 141 175 215 263 321
#     4  11  21  36  59  83 110 143 182 227 279 333
#     4   9  18  33  54  82 115 148 183 224 270 322
#     4   9  18  34  56  81 109 143 184 228 276 328
#     4   9  20  38  58  81 108 139 178 223 270 325
#     4  10  21  37  57  79 108 146 186 229 271 319
#     4  10  22  38  55  79 110 143 184 229 277 330
#
# _framework density 19.472951999999999
#
# number of rings (size 3 to 8) (size 9 to 14) (size 15 to 20)
#    0.000    2.231    0.769    1.846    0.000    4.923 
#    0.000    4.615    0.000    3.231    0.000    4.308 
#    0.000    0.000    0.000    0.000    0.000    0.000 
#
# Total GULP energy -644890.306252 kJ/mol
# GULP energy per Si atom -12401.736659 kJ/mol
# Density = 1.942863 g / cm^3
# Si number density = 19.472952 Si / 1000 Ang^3
#
#
#
# Elastic Constant Matrix: (Units=GPa)
#
#
# Indices 1 2 3 4 5 6 
#
# 1 74.4502 26.6127 16.5559 0.0000 0.0000 0.0000
# 2 26.6127 68.5816 29.4115 0.0000 0.0000 0.0000
# 3 16.5559 29.4115 97.7130 0.0000 0.0000 0.0000
# 4 0.0000 0.0000 0.0000 29.2688 0.0000 0.0000
# 5 0.0000 0.0000 0.0000 0.0000 15.4525 0.0000
# 6 0.0000 0.0000 0.0000 0.0000 0.0000 25.7206
#
#
#
# Elastic Compliance Matrix: (Units=1/GPa)
#
#
# Indices 1 2 3 4 5 6 
#
# 1 0.015671 -0.005675 -0.000947 0.000000 0.000000 0.000000
# 2 -0.005675 0.018797 -0.004696 0.000000 0.000000 0.000000
# 3 -0.000947 -0.004696 0.011808 0.000000 0.000000 0.000000
# 4 0.000000 0.000000 0.000000 0.034166 0.000000 0.000000
# 5 0.000000 0.000000 0.000000 0.000000 0.064715 0.000000
# 6 0.000000 0.000000 0.000000 0.000000 0.000000 0.038879
#
#
# Mechanical properties :
#
#
# Convention : Reuss Voigt Hill
#
# Bulk Modulus (GPa) = 42.30182 42.87834 42.59008
# Shear Modulus (GPa) = 23.30426 25.29936 24.30181
#
# Velocity S-wave (km/s) = 3.46316 3.60836 3.53651
# Velocity P-wave (km/s) = 6.14507 6.27914 6.21246
#
# Compressibility (1/GPa) = 0.02363965
#
# Stress axis : x y z
#
# Youngs Moduli (GPa) = 63.81250 53.19898 84.68735
#
# Poissons Ratio (x) = 0.30190 0.08020
# Poissons Ratio (y) = 0.36213 0.39773
# Poissons Ratio (z) = 0.06043 0.24985
#
# Static dielectric constant tensor:
#      x y z
#    x 3.559020 0.000000 0.000000 
#    y 0.000000 3.458280 0.000000 
#    z 0.000000 0.000000 3.535970 
# 
# 
# High freq. dielectric constant tensor:
#      x y z
#    x 1.757520 0.000000 0.000000 
#    y 0.000000 1.754130 0.000000 
#    z 0.000000 0.000000 1.753650 
# 
# From -- ./inp_files/60446.got.cif
#   From: 2010.03.12/outbox.cif.g09.slc.cpg/sg65_31_cif.got.tgz:60446.got - 2010.04.10 20:52:16.
