data_PCOD8271209
_publ_section_title
;
Structure prediction by ZEFSAII (Michael W. Deem and Ramdas Pophale) SiO2 
 PCOD8271209
Probable space group: C M M M
;
_chemical_formula_sum "Si O2"
_cell_formula_units_Z 104
_cell_length_a 31.807022
_cell_length_b 8.883733
_cell_length_c 19.489011
_cell_angle_alpha 90.000000
_cell_angle_beta 90.000000
_cell_angle_gamma 90.000000
_cell_volume 5506.914166
_symmetry_space_group_name_H-M "C M M M"
_symmetry_group_IT_number 65
_symmetry_cell_setting 'orthorhombic'
loop_
_space_group_symop_operation_xyz
x,y,z
-x,-y,z
x,-y,-z
-x,y,-z
-x,-y,-z
x,y,-z
-x,y,z
x,-y,z
1/2+x,1/2+y,z
1/2-x,1/2-y,z
1/2+x,1/2-y,-z
1/2-x,1/2+y,-z
1/2-x,1/2-y,-z
1/2+x,1/2+y,-z
1/2-x,1/2+y,z
1/2+x,1/2-y,z
loop_
_atom_site_type_symbol
_atom_site_label
_atom_site_fract_x
_atom_site_fract_y
_atom_site_fract_z
Si Si1 0.824870 0.824517 0.077851
Si Si2 0.792500 0.321548 0.209848
Si Si3 0.415475 0.176332 0.423506
Si Si4 0.411835 0.828773 0.923973
Si Si5 0.000000 0.168688 0.418491
Si Si6 0.545611 0.176189 0.211924
Si Si7 0.873791 0.677155 0.289358
O O1 0.797036 0.729541 0.130903
O O2 0.873372 0.783103 0.088821
O O3 0.818685 0.000000 0.093253
O O4 0.810856 0.784263 0.000000
O O5 0.789344 0.500000 0.213535
O O6 0.750000 0.250000 0.240555
O O7 0.831108 0.257293 0.256334
O O8 0.404077 0.237361 0.500000
O O9 0.458012 0.248276 0.392793
O O10 0.377319 0.214262 0.370964
O O11 0.423944 0.000000 0.426334
O O12 0.448038 0.793484 0.869172
O O13 0.395002 0.000000 0.914207
O O14 0.430941 0.806017 0.000000
O O15 0.000000 0.171835 0.500000
O O16 0.000000 0.000000 0.389439
O O17 0.500000 0.247073 0.232665
O O18 0.584812 0.248489 0.253073
O O19 0.544150 0.000000 0.227923
O O20 0.873485 0.500000 0.275821
#
# Coordination Sequence:
#
# PCOD8271209 Si02
#       7
#    16  16  16  16   8  16  16
#     4  10  20  34  53  77 104 135 170 210 257 309
#     4  11  22  38  58  79 103 132 169 212 261 312
#     4   9  17  30  51  77 103 136 178 217 253 300
#     4   9  16  28  47  70  98 134 174 215 256 299
#     4   9  17  29  45  71 109 145 174 209 254 301
#     4   9  16  26  44  72 102 133 169 210 255 299
#     4   9  18  32  51  76 105 134 166 211 260 304
#
# _framework density 18.885349999999999
#
# number of rings (size 3 to 8) (size 9 to 14) (size 15 to 20)
#    0.000    2.538    1.538    1.154    1.077    2.462 
#    0.000    3.077    0.000    0.923    0.000    2.154 
#    0.000    0.000    0.000    0.000    0.000    0.154 
#
# Total GULP energy -644474.226124 kJ/mol
# GULP energy per Si atom -12393.735118 kJ/mol
# Density = 1.884237 g / cm^3
# Si number density = 18.885350 Si / 1000 Ang^3
#
#
#
# Elastic Constant Matrix: (Units=GPa)
#
#
# Indices 1 2 3 4 5 6 
#
# 1 140.4676 25.0300 67.1956 0.0000 0.0000 0.0000
# 2 25.0300 43.0533 22.0448 0.0000 0.0000 0.0000
# 3 67.1956 22.0448 102.2907 0.0000 0.0000 0.0000
# 4 0.0000 0.0000 0.0000 12.3412 0.0000 0.0000
# 5 0.0000 0.0000 0.0000 0.0000 22.0980 0.0000
# 6 0.0000 0.0000 0.0000 0.0000 0.0000 20.9113
#
#
#
# Elastic Compliance Matrix: (Units=1/GPa)
#
#
# Indices 1 2 3 4 5 6 
#
# 1 0.010704 -0.002948 -0.006396 0.000000 0.000000 0.000000
# 2 -0.002948 0.026920 -0.003865 0.000000 0.000000 0.000000
# 3 -0.006396 -0.003865 0.014811 0.000000 0.000000 0.000000
# 4 0.000000 0.000000 0.000000 0.081029 0.000000 0.000000
# 5 0.000000 0.000000 0.000000 0.000000 0.045253 0.000000
# 6 0.000000 0.000000 0.000000 0.000000 0.000000 0.047821
#
#
# Mechanical properties :
#
#
# Convention : Reuss Voigt Hill
#
# Bulk Modulus (GPa) = 38.43746 57.15028 47.79387
# Shear Modulus (GPa) = 19.11102 22.50617 20.80860
#
# Velocity S-wave (km/s) = 3.18457 3.45588 3.32300
# Velocity P-wave (km/s) = 5.82402 6.80085 6.33130
#
# Compressibility (1/GPa) = 0.02601629
#
# Stress axis : x y z
#
# Youngs Moduli (GPa) = 93.42106 37.14720 67.51813
#
# Poissons Ratio (x) = 0.10951 0.43187
# Poissons Ratio (y) = 0.27540 0.26096
# Poissons Ratio (z) = 0.59756 0.14357
#
# Static dielectric constant tensor:
#      x y z
#    x 3.515240 0.000000 0.000000 
#    y 0.000000 3.163200 0.000000 
#    z 0.000000 0.000000 3.652570 
# 
# 
# High freq. dielectric constant tensor:
#      x y z
#    x 1.715680 0.000000 0.000000 
#    y 0.000000 1.696540 0.000000 
#    z 0.000000 0.000000 1.735080 
# 
# From -- ./inp_files/66368.got.cif
#   From: 2010.03.12/outbox.cif.g09.slc.cpg/sg65_34_cif.got.tgz:66368.got - 2010.04.10 20:52:16.
