data_PCOD8271193
_publ_section_title
;
Structure prediction by ZEFSAII (Michael W. Deem and Ramdas Pophale) SiO2 
 PCOD8271193
Probable space group: C M M M
;
_chemical_formula_sum "Si O2"
_cell_formula_units_Z 88
_cell_length_a 27.841059
_cell_length_b 18.260486
_cell_length_c 8.912875
_cell_angle_alpha 90.000000
_cell_angle_beta 90.000000
_cell_angle_gamma 90.000000
_cell_volume 4531.227824
_symmetry_space_group_name_H-M "C M M M"
_symmetry_group_IT_number 65
_symmetry_cell_setting 'orthorhombic'
loop_
_space_group_symop_operation_xyz
x,y,z
-x,-y,z
x,-y,-z
-x,y,-z
-x,-y,-z
x,y,-z
-x,y,z
x,-y,z
1/2+x,1/2+y,z
1/2-x,1/2-y,z
1/2+x,1/2-y,-z
1/2-x,1/2+y,-z
1/2-x,1/2-y,-z
1/2+x,1/2+y,-z
1/2-x,1/2+y,z
1/2+x,1/2-y,z
loop_
_atom_site_type_symbol
_atom_site_label
_atom_site_fract_x
_atom_site_fract_y
_atom_site_fract_z
Si Si1 0.149430 0.835586 0.323422
Si Si2 0.945920 0.500000 0.662483
Si Si3 0.186780 0.323984 0.676104
Si Si4 0.269297 0.583615 0.823460
Si Si5 0.906784 0.634688 0.826569
Si Si6 0.945601 0.206568 0.173866
O O1 0.149321 0.847481 0.500000
O O2 0.176714 0.760260 0.278465
O O3 0.177885 0.901398 0.244002
O O4 0.094134 0.837791 0.268010
O O5 0.917678 0.500000 0.500000
O O6 0.938114 0.569238 0.767112
O O7 0.000000 0.500000 0.614571
O O8 0.194455 0.332039 0.500000
O O9 0.233517 0.356535 0.754820
O O10 0.141597 0.370251 0.730350
O O11 0.254325 0.500000 0.783123
O O12 0.271003 0.595197 0.000000
O O13 0.937252 0.707657 0.798659
O O14 0.893187 0.624791 0.000000
O O15 0.000000 0.187027 0.226882
O O16 0.938955 0.186499 0.000000
#
# Coordination Sequence:
#
# PCOD8271193 Si02
#       6
#    16   8  16  16  16  16
#     4  10  21  37  58  85 114 146 184 226 277 332
#     4  11  23  35  47  67 101 145 187 231 284 331
#     4  10  21  37  57  82 112 146 184 227 276 330
#     4  11  24  39  57  82 112 147 188 230 277 331
#     4  10  20  34  53  76 105 141 185 231 272 324
#     4   9  18  34  57  83 109 140 180 225 274 327
#
# _framework density 19.420784999999999
#
# number of rings (size 3 to 8) (size 9 to 14) (size 15 to 20)
#    0.000    1.909    0.000    3.545    1.273    8.364 
#    0.000    0.000    0.000    0.545    0.000    3.818 
#    0.000    0.000    0.000    0.000    0.000    0.000 
#
# Total GULP energy -545541.627102 kJ/mol
# GULP energy per Si atom -12398.673343 kJ/mol
# Density = 1.937658 g / cm^3
# Si number density = 19.420785 Si / 1000 Ang^3
#
#
#
# Elastic Constant Matrix: (Units=GPa)
#
#
# Indices 1 2 3 4 5 6 
#
# 1 125.2025 29.7664 46.8703 0.0000 0.0000 0.0000
# 2 29.7664 33.8149 30.2601 0.0000 0.0000 0.0000
# 3 46.8703 30.2601 75.3191 0.0000 0.0000 0.0000
# 4 0.0000 0.0000 0.0000 27.2072 0.0000 0.0000
# 5 0.0000 0.0000 0.0000 0.0000 34.8954 0.0000
# 6 0.0000 0.0000 0.0000 0.0000 0.0000 -26.5754
#
#
#
# Elastic Compliance Matrix: (Units=1/GPa)
#
#
# Indices 1 2 3 4 5 6 
#
# 1 0.011048 -0.005579 -0.004634 0.000000 0.000000 0.000000
# 2 -0.005579 0.048990 -0.016211 0.000000 0.000000 0.000000
# 3 -0.004634 -0.016211 0.022673 0.000000 0.000000 0.000000
# 4 0.000000 0.000000 0.000000 0.036755 0.000000 0.000000
# 5 0.000000 0.000000 0.000000 0.000000 0.028657 0.000000
# 6 0.000000 0.000000 0.000000 0.000000 0.000000 -0.037629
#
#
# Mechanical properties :
#
#
# Convention : Reuss Voigt Hill
#
# Bulk Modulus (GPa) = 33.48392 49.79223 41.63807
# Shear Modulus (GPa) = 28.85238 15.60140 22.22689
#
# Velocity S-wave (km/s) = 3.85859 2.83739 3.38670
# Velocity P-wave (km/s) = 6.09346 6.03562 6.06461
#
# Compressibility (1/GPa) = 0.02986508
#
# Stress axis : x y z
#
# Youngs Moduli (GPa) = 90.51354 20.41231 44.10490
#
# Poissons Ratio (x) = 0.11387 0.20438
# Poissons Ratio (y) = 0.50494 0.71497
# Poissons Ratio (z) = 0.41943 0.33090
#
# Static dielectric constant tensor:
#      x y z
#    x 3.667530 0.000000 0.000000 
#    y 0.000000 3.379490 0.000000 
#    z 0.000000 0.000000 3.572020 
# 
# 
# High freq. dielectric constant tensor:
#      x y z
#    x 1.760980 0.000000 0.000000 
#    y 0.000000 1.730240 0.000000 
#    z 0.000000 0.000000 1.768490 
# 
# From -- ./inp_files/18328.got.cif
#   From: 2010.03.12/outbox.cif.g09.slc.cpg/sg65_10_cif.got.tgz:18328.got - 2010.04.10 20:52:16.
