data_PCOD8271758
_publ_section_title
;
Structure prediction by ZEFSAII (Michael W. Deem and Ramdas Pophale) SiO2 
 PCOD8271758
Probable space group: C M M M
;
_chemical_formula_sum "Si O2"
_cell_formula_units_Z 72
_cell_length_a 18.957890
_cell_length_b 8.595586
_cell_length_c 22.978555
_cell_angle_alpha 90.000000
_cell_angle_beta 90.000000
_cell_angle_gamma 90.000000
_cell_volume 3744.451447
_symmetry_space_group_name_H-M "C M M M"
_symmetry_group_IT_number 65
_symmetry_cell_setting 'orthorhombic'
loop_
_space_group_symop_operation_xyz
x,y,z
-x,-y,z
x,-y,-z
-x,y,-z
-x,-y,-z
x,y,-z
-x,y,z
x,-y,z
1/2+x,1/2+y,z
1/2-x,1/2-y,z
1/2+x,1/2-y,-z
1/2-x,1/2+y,-z
1/2-x,1/2-y,-z
1/2+x,1/2+y,-z
1/2-x,1/2+y,z
1/2+x,1/2-y,z
loop_
_atom_site_type_symbol
_atom_site_label
_atom_site_fract_x
_atom_site_fract_y
_atom_site_fract_z
Si Si1 0.421410 0.184861 0.563566
Si Si2 0.171328 0.683275 0.000000
Si Si3 0.673731 0.184459 0.796153
Si Si4 0.418304 0.316364 0.894968
Si Si5 0.824171 0.316429 0.335745
O O1 0.390089 0.233308 0.500000
O O2 0.500000 0.251653 0.569141
O O3 0.378098 0.256172 0.617441
O O4 0.422499 0.000000 0.568387
O O5 0.250000 0.750000 0.000000
O O6 0.128368 0.735511 0.943812
O O7 0.178315 0.500000 0.000000
O O8 0.750000 0.250000 0.815433
O O9 0.611571 0.262218 0.833025
O O10 0.656403 0.233889 0.729880
O O11 0.673997 0.000000 0.805297
O O12 0.500000 0.264619 0.900446
O O13 0.411182 0.500000 0.901846
O O14 0.821599 0.500000 0.339889
O O15 0.750000 0.250000 0.354752
#
# Coordination Sequence:
#
# PCOD8271758 Si02
#       5
#    16   8  16  16  16
#     4   8  14  26  45  69  97 130 170 215 261 310
#     4  12  25  42  65  89 115 147 183 220 261 312
#     4  10  20  35  55  78 107 142 181 223 267 319
#     4  11  24  41  60  84 115 146 178 220 268 315
#     4   9  18  31  49  74 102 133 170 215 263 311
#
# _framework density 19.228451
#
# number of rings (size 3 to 8) (size 9 to 14) (size 15 to 20)
#    0.000    2.222    0.000    4.000    0.000    5.333 
#    0.000    2.222    0.000    0.667    0.000    1.556 
#    0.000    0.000    0.000    0.000    0.000    0.000 
#
# Total GULP energy -446310.614656 kJ/mol
# GULP energy per Si atom -12397.517074 kJ/mol
# Density = 1.918469 g / cm^3
# Si number density = 19.228451 Si / 1000 Ang^3
#
#
#
# Elastic Constant Matrix: (Units=GPa)
#
#
# Indices 1 2 3 4 5 6 
#
# 1 155.7397 46.2750 98.5969 0.0000 0.0000 0.0000
# 2 46.2750 60.5443 32.1288 0.0000 0.0000 0.0000
# 3 98.5969 32.1288 145.1771 0.0000 0.0000 0.0000
# 4 0.0000 0.0000 0.0000 14.7994 0.0000 0.0000
# 5 0.0000 0.0000 0.0000 0.0000 41.7358 0.0000
# 6 0.0000 0.0000 0.0000 0.0000 0.0000 27.5128
#
#
#
# Elastic Compliance Matrix: (Units=1/GPa)
#
#
# Indices 1 2 3 4 5 6 
#
# 1 0.012889 -0.005899 -0.007448 0.000000 0.000000 0.000000
# 2 -0.005899 0.021414 -0.000733 0.000000 0.000000 0.000000
# 3 -0.007448 -0.000733 0.012109 0.000000 0.000000 0.000000
# 4 0.000000 0.000000 0.000000 0.067571 0.000000 0.000000
# 5 0.000000 0.000000 0.000000 0.000000 0.023960 0.000000
# 6 0.000000 0.000000 0.000000 0.000000 0.000000 0.036347
#
#
# Mechanical properties :
#
#
# Convention : Reuss Voigt Hill
#
# Bulk Modulus (GPa) = 54.78769 79.49584 67.14176
# Shear Modulus (GPa) = 23.97697 29.10695 26.54196
#
# Velocity S-wave (km/s) = 3.53505 3.89491 3.71933
# Velocity P-wave (km/s) = 6.72436 7.85237 7.31015
#
# Compressibility (1/GPa) = 0.01825228
#
# Stress axis : x y z
#
# Youngs Moduli (GPa) = 77.58571 46.69766 82.58508
#
# Poissons Ratio (x) = 0.27546 0.61510
# Poissons Ratio (y) = 0.45766 0.06054
# Poissons Ratio (z) = 0.57787 0.03423
#
# Static dielectric constant tensor:
#      x y z
#    x 3.693670 0.000000 0.000000 
#    y 0.000000 3.330820 0.000000 
#    z 0.000000 0.000000 3.945790 
# 
# 
# High freq. dielectric constant tensor:
#      x y z
#    x 1.748210 0.000000 0.000000 
#    y 0.000000 1.730740 0.000000 
#    z 0.000000 0.000000 1.766230 
# 
# From -- ./inp_files/64366.got.cif
#   From: 2010.03.12/outbox.cif.g09.slc.cpg/sg65_33_cif.got.tgz:64366.got - 2010.04.10 20:52:16.
