data_PCOD8271652
_publ_section_title
;
Structure prediction by ZEFSAII (Michael W. Deem and Ramdas Pophale) SiO2 
 PCOD8271652
Probable space group: C M M M
;
_chemical_formula_sum "Si O2"
_cell_formula_units_Z 88
_cell_length_a 18.019711
_cell_length_b 28.040973
_cell_length_c 9.137338
_cell_angle_alpha 90.000000
_cell_angle_beta 90.000000
_cell_angle_gamma 90.000000
_cell_volume 4617.007616
_symmetry_space_group_name_H-M "C M M M"
_symmetry_group_IT_number 65
_symmetry_cell_setting 'orthorhombic'
loop_
_space_group_symop_operation_xyz
x,y,z
-x,-y,z
x,-y,-z
-x,y,-z
-x,-y,-z
x,y,-z
-x,y,z
x,-y,z
1/2+x,1/2+y,z
1/2-x,1/2-y,z
1/2+x,1/2-y,-z
1/2-x,1/2+y,-z
1/2-x,1/2-y,-z
1/2+x,1/2+y,-z
1/2-x,1/2+y,z
1/2+x,1/2-y,z
loop_
_atom_site_type_symbol
_atom_site_label
_atom_site_fract_x
_atom_site_fract_y
_atom_site_fract_z
Si Si1 0.662999 0.756349 0.841284
Si Si2 0.660563 0.665280 0.672637
Si Si3 0.585505 0.411340 0.838733
Si Si4 0.411044 0.500000 0.335761
Si Si5 0.416312 0.053609 0.826356
Si Si6 0.312017 0.860603 0.827422
O O1 0.750000 0.750000 0.860537
O O2 0.639618 0.719620 0.715106
O O3 0.643479 0.810963 0.797214
O O4 0.625943 0.744300 0.000000
O O5 0.664956 0.661271 0.500000
O O6 0.593323 0.635407 0.739817
O O7 0.734932 0.642647 0.741047
O O8 0.500000 0.422524 0.860663
O O9 0.622259 0.454894 0.750555
O O10 0.622815 0.405996 0.000000
O O11 0.500000 0.500000 0.340797
O O12 0.378963 0.500000 0.500000
O O13 0.500000 0.063744 0.768186
O O14 0.360124 0.094515 0.767126
O O15 0.391354 0.000000 0.776569
O O16 0.416975 0.056269 0.000000
O O17 0.295152 0.865546 0.000000
#
# Coordination Sequence:
#
# PCOD8271652 Si02
#       6
#    16  16  16   8  16  16
#     4   8  15  29  48  69  96 131 169 208 251 303
#     4  11  21  32  49  73 101 133 168 213 262 305
#     4  10  20  35  54  73  96 131 173 210 248 300
#     4   9  17  31  51  73  97 125 158 197 242 291
#     4   8  14  27  50  79 106 131 163 205 252 301
#     4   9  17  31  51  74 102 133 168 211 254 303
#
# _framework density 19.059964000000001
#
# number of rings (size 3 to 8) (size 9 to 14) (size 15 to 20)
#    0.000    2.818    0.000    4.091    0.000    5.455 
#    1.636    0.909    0.000    3.818    0.000    1.273 
#    0.000    0.000    0.000    0.000    0.000    0.000 
#
# Total GULP energy -545129.624254 kJ/mol
# GULP energy per Si atom -12389.309642 kJ/mol
# Density = 1.901658 g / cm^3
# Si number density = 19.059964 Si / 1000 Ang^3
#
#
#
# Elastic Constant Matrix: (Units=GPa)
#
#
# Indices 1 2 3 4 5 6 
#
# 1 26.7309 31.9176 16.6512 0.0000 0.0000 0.0000
# 2 31.9176 156.7795 57.6729 0.0000 0.0000 0.0000
# 3 16.6512 57.6729 124.7235 0.0000 0.0000 0.0000
# 4 0.0000 0.0000 0.0000 11.1041 0.0000 0.0000
# 5 0.0000 0.0000 0.0000 0.0000 13.9805 0.0000
# 6 0.0000 0.0000 0.0000 0.0000 0.0000 25.0473
#
#
#
# Elastic Compliance Matrix: (Units=1/GPa)
#
#
# Indices 1 2 3 4 5 6 
#
# 1 0.050000 -0.009307 -0.002372 0.000000 0.000000 0.000000
# 2 -0.009307 0.009418 -0.003112 0.000000 0.000000 0.000000
# 3 -0.002372 -0.003112 0.009774 0.000000 0.000000 0.000000
# 4 0.000000 0.000000 0.000000 0.090057 0.000000 0.000000
# 5 0.000000 0.000000 0.000000 0.000000 0.071528 0.000000
# 6 0.000000 0.000000 0.000000 0.000000 0.000000 0.039925
#
#
# Mechanical properties :
#
#
# Convention : Reuss Voigt Hill
#
# Bulk Modulus (GPa) = 25.24638 57.85750 41.55194
# Shear Modulus (GPa) = 15.94968 23.49251 19.72109
#
# Velocity S-wave (km/s) = 2.89592 3.51459 3.22014
# Velocity P-wave (km/s) = 4.94533 6.84771 5.97275
#
# Compressibility (1/GPa) = 0.03960964
#
# Stress axis : x y z
#
# Youngs Moduli (GPa) = 20.00010 106.17963 102.31641
#
# Poissons Ratio (x) = 0.98817 0.24267
# Poissons Ratio (y) = 0.18613 0.31846
# Poissons Ratio (z) = 0.04744 0.33048
#
# Static dielectric constant tensor:
#      x y z
#    x 3.110700 0.000000 0.000000 
#    y 0.000000 4.007290 0.000000 
#    z 0.000000 0.000000 3.368370 
# 
# 
# High freq. dielectric constant tensor:
#      x y z
#    x 1.691900 0.000000 0.000000 
#    y 0.000000 1.758440 0.000000 
#    z 0.000000 0.000000 1.720100 
# 
# From -- ./inp_files/10048.got.cif
#   From: 2010.03.12/outbox.cif.g09.slc.cpg/sg65_6_cif.got.tgz:10048.got - 2010.04.10 20:52:16.
