data_PCOD8271657
_publ_section_title
;
Structure prediction by ZEFSAII (Michael W. Deem and Ramdas Pophale) SiO2 
 PCOD8271657
Probable space group: C M M M
;
_chemical_formula_sum "Si O2"
_cell_formula_units_Z 80
_cell_length_a 8.765105
_cell_length_b 27.550622
_cell_length_c 18.687462
_cell_angle_alpha 90.000000
_cell_angle_beta 90.000000
_cell_angle_gamma 90.000000
_cell_volume 4512.724842
_symmetry_space_group_name_H-M "C M M M"
_symmetry_group_IT_number 65
_symmetry_cell_setting 'orthorhombic'
loop_
_space_group_symop_operation_xyz
x,y,z
-x,-y,z
x,-y,-z
-x,y,-z
-x,-y,-z
x,y,-z
-x,y,z
x,-y,z
1/2+x,1/2+y,z
1/2-x,1/2-y,z
1/2+x,1/2-y,-z
1/2-x,1/2+y,-z
1/2-x,1/2-y,-z
1/2+x,1/2+y,-z
1/2-x,1/2+y,z
1/2+x,1/2-y,z
loop_
_atom_site_type_symbol
_atom_site_label
_atom_site_fract_x
_atom_site_fract_y
_atom_site_fract_z
Si Si1 0.678211 0.109277 0.292202
Si Si2 0.820101 0.145091 0.078369
Si Si3 0.819177 0.801461 0.217497
Si Si4 0.677357 0.445308 0.166916
Si Si5 0.176247 0.055547 0.417612
O O1 0.500000 0.119267 0.286828
O O2 0.765190 0.159289 0.275323
O O3 0.726311 0.067101 0.237233
O O4 0.720721 0.091779 0.371476
O O5 0.759587 0.182827 0.138140
O O6 0.776249 0.090409 0.102188
O O7 0.000000 0.150080 0.072469
O O8 0.746334 0.155581 0.000000
O O9 0.750000 0.750000 0.238306
O O10 0.000000 0.798599 0.219469
O O11 0.500000 0.438290 0.186864
O O12 0.713393 0.500000 0.142298
O O13 0.203157 0.069251 0.500000
O O14 0.000000 0.062412 0.396468
O O15 0.225655 0.000000 0.403494
#
# Coordination Sequence:
#
# PCOD8271657 Si02
#       5
#    16  16  16  16  16
#     4  11  21  32  49  73 101 132 166 205 245 288
#     4   8  15  28  46  70  98 126 159 201 248 298
#     4  10  20  35  54  74  96 124 161 205 252 301
#     4   9  17  29  46  68  96 132 170 206 245 290
#     4   9  18  33  53  77 106 139 170 199 236 283
#
# _framework density 17.727647999999999
#
# number of rings (size 3 to 8) (size 9 to 14) (size 15 to 20)
#    0.000    2.600    0.000    4.800    0.000    4.400 
#    0.000    3.000    0.000   15.000    0.000    5.600 
#    0.000    0.000    0.000    0.000    0.000    0.000 
#
# Total GULP energy -495935.804316 kJ/mol
# GULP energy per Si atom -12398.395108 kJ/mol
# Density = 1.768730 g / cm^3
# Si number density = 17.727648 Si / 1000 Ang^3
#
#
#
# Elastic Constant Matrix: (Units=GPa)
#
#
# Indices 1 2 3 4 5 6 
#
# 1 67.0621 32.1315 27.5061 0.0000 0.0000 0.0000
# 2 32.1315 109.2757 39.6432 0.0000 0.0000 0.0000
# 3 27.5061 39.6432 94.1060 0.0000 0.0000 0.0000
# 4 0.0000 0.0000 0.0000 17.3454 0.0000 0.0000
# 5 0.0000 0.0000 0.0000 0.0000 12.2741 0.0000
# 6 0.0000 0.0000 0.0000 0.0000 0.0000 25.8657
#
#
#
# Elastic Compliance Matrix: (Units=1/GPa)
#
#
# Indices 1 2 3 4 5 6 
#
# 1 0.018361 -0.004075 -0.003650 0.000000 0.000000 0.000000
# 2 -0.004075 0.011706 -0.003740 0.000000 0.000000 0.000000
# 3 -0.003650 -0.003740 0.013269 0.000000 0.000000 0.000000
# 4 0.000000 0.000000 0.000000 0.057652 0.000000 0.000000
# 5 0.000000 0.000000 0.000000 0.000000 0.081472 0.000000
# 6 0.000000 0.000000 0.000000 0.000000 0.000000 0.038661
#
#
# Mechanical properties :
#
#
# Convention : Reuss Voigt Hill
#
# Bulk Modulus (GPa) = 49.00612 52.11170 50.55891
# Shear Modulus (GPa) = 19.93192 22.50794 21.21993
#
# Velocity S-wave (km/s) = 3.35676 3.56708 3.46352
# Velocity P-wave (km/s) = 6.53664 6.81359 6.67655
#
# Compressibility (1/GPa) = 0.02040561
#
# Stress axis : x y z
#
# Youngs Moduli (GPa) = 54.46320 85.42467 75.36416
#
# Poissons Ratio (x) = 0.34808 0.27510
# Poissons Ratio (y) = 0.22192 0.28189
# Poissons Ratio (z) = 0.19880 0.31952
#
# Static dielectric constant tensor:
#      x y z
#    x 3.066690 0.000000 0.000000 
#    y 0.000000 3.268680 0.000000 
#    z 0.000000 0.000000 3.366770 
# 
# 
# High freq. dielectric constant tensor:
#      x y z
#    x 1.666020 0.000000 0.000000 
#    y 0.000000 1.679590 0.000000 
#    z 0.000000 0.000000 1.678080 
# 
# From -- ./inp_files/49841.got.cif
#   From: 2010.03.12/outbox.cif.g09.slc.cpg/sg65_25_cif.got.tgz:49841.got - 2010.04.10 20:52:16.
