data_PCOD8271071
_publ_section_title
;
Structure prediction by ZEFSAII (Michael W. Deem and Ramdas Pophale) SiO2 
 PCOD8271071
Probable space group: C M M M
;
_chemical_formula_sum "Si O2"
_cell_formula_units_Z 96
_cell_length_a 8.740292
_cell_length_b 29.521734
_cell_length_c 18.866721
_cell_angle_alpha 90.000000
_cell_angle_beta 90.000000
_cell_angle_gamma 90.000000
_cell_volume 4868.153144
_symmetry_space_group_name_H-M "C M M M"
_symmetry_group_IT_number 65
_symmetry_cell_setting 'orthorhombic'
loop_
_space_group_symop_operation_xyz
x,y,z
-x,-y,z
x,-y,-z
-x,y,-z
-x,-y,-z
x,y,-z
-x,y,z
x,-y,z
1/2+x,1/2+y,z
1/2-x,1/2-y,z
1/2+x,1/2-y,-z
1/2-x,1/2+y,-z
1/2-x,1/2-y,-z
1/2+x,1/2+y,-z
1/2-x,1/2+y,z
1/2+x,1/2-y,z
loop_
_atom_site_type_symbol
_atom_site_label
_atom_site_fract_x
_atom_site_fract_y
_atom_site_fract_z
Si Si1 0.182615 0.796127 0.777320
Si Si2 0.669724 0.049441 0.208256
Si Si3 0.180680 0.449220 0.580212
Si Si4 0.320912 0.828341 0.079230
Si Si5 0.173827 0.925592 0.921390
Si Si6 0.824332 0.885009 0.305915
O O1 0.250000 0.750000 0.743534
O O2 0.255374 0.798641 0.856268
O O3 0.233886 0.836029 0.722438
O O4 0.000000 0.795043 0.784379
O O5 0.500000 0.070570 0.217571
O O6 0.714153 0.044106 0.126205
O O7 0.798774 0.081119 0.240975
O O8 0.671916 0.000000 0.244294
O O9 0.234150 0.439580 0.500000
O O10 0.240180 0.500000 0.602902
O O11 0.237873 0.406993 0.627233
O O12 0.000000 0.449393 0.586134
O O13 0.500000 0.837479 0.092212
O O14 0.226991 0.874193 0.082329
O O15 0.296494 0.806389 0.000000
O O16 0.000000 0.928496 0.893912
O O17 0.186927 0.945350 0.000000
O O18 0.000000 0.882053 0.327033
#
# Coordination Sequence:
#
# PCOD8271071 Si02
#       6
#    16  16  16  16  16  16
#     4  11  24  40  59  84 113 149 194 243 296 352
#     4  11  23  36  53  78 108 147 192 233 279 340
#     4   9  19  37  62  93 127 161 195 228 268 327
#     4  10  20  35  57  82 108 143 188 240 299 358
#     4  10  20  34  52  74 103 141 185 235 289 342
#     4  11  23  38  58  86 118 151 187 233 288 339
#
# _framework density 19.720003999999999
#
# number of rings (size 3 to 8) (size 9 to 14) (size 15 to 20)
#    0.000    1.667    1.667    3.500    0.000    8.667 
#    0.000    2.500    0.000    0.500    0.000    0.000 
#    0.000    0.000    0.000    0.000    0.000    0.000 
#
# Total GULP energy -594742.534251 kJ/mol
# GULP energy per Si atom -12390.469464 kJ/mol
# Density = 1.967512 g / cm^3
# Si number density = 19.720004 Si / 1000 Ang^3
#
#
#
# Elastic Constant Matrix: (Units=GPa)
#
#
# Indices 1 2 3 4 5 6 
#
# 1 47.0556 25.4041 32.7365 0.0000 0.0000 0.0000
# 2 25.4041 117.5524 56.7034 0.0000 0.0000 0.0000
# 3 32.7365 56.7034 115.4601 0.0000 0.0000 0.0000
# 4 0.0000 0.0000 0.0000 20.6006 0.0000 0.0000
# 5 0.0000 0.0000 0.0000 0.0000 32.1963 0.0000
# 6 0.0000 0.0000 0.0000 0.0000 0.0000 26.5481
#
#
#
# Elastic Compliance Matrix: (Units=1/GPa)
#
#
# Indices 1 2 3 4 5 6 
#
# 1 0.027171 -0.002825 -0.006316 0.000000 0.000000 0.000000
# 2 -0.002825 0.011441 -0.004818 0.000000 0.000000 0.000000
# 3 -0.006316 -0.004818 0.012818 0.000000 0.000000 0.000000
# 4 0.000000 0.000000 0.000000 0.048542 0.000000 0.000000
# 5 0.000000 0.000000 0.000000 0.000000 0.031059 0.000000
# 6 0.000000 0.000000 0.000000 0.000000 0.000000 0.037668
#
#
# Mechanical properties :
#
#
# Convention : Reuss Voigt Hill
#
# Bulk Modulus (GPa) = 42.53232 56.63957 49.58595
# Shear Modulus (GPa) = 24.45517 26.88393 25.66955
#
# Velocity S-wave (km/s) = 3.52535 3.69627 3.61182
# Velocity P-wave (km/s) = 6.17946 6.85571 6.52635
#
# Compressibility (1/GPa) = 0.02351153
#
# Stress axis : x y z
#
# Youngs Moduli (GPa) = 36.80404 87.40195 78.01507
#
# Poissons Ratio (x) = 0.24692 0.49277
# Poissons Ratio (y) = 0.10397 0.37587
# Poissons Ratio (z) = 0.23247 0.42110
#
# Static dielectric constant tensor:
#      x y z
#    x 3.549620 0.000000 0.000000 
#    y 0.000000 3.606710 0.000000 
#    z 0.000000 0.000000 3.748790 
# 
# 
# High freq. dielectric constant tensor:
#      x y z
#    x 1.772760 0.000000 0.000000 
#    y 0.000000 1.756830 0.000000 
#    z 0.000000 0.000000 1.758150 
# 
# From -- ./inp_files/60293.got.cif
#   From: 2010.03.12/outbox.cif.g09.slc.cpg/sg65_31_cif.got.tgz:60293.got - 2010.04.10 20:52:16.
