data_PCOD8271063
_publ_section_title
;
Structure prediction by ZEFSAII (Michael W. Deem and Ramdas Pophale) SiO2 
 PCOD8271063
Probable space group: C M M M
;
_chemical_formula_sum "Si O2"
_cell_formula_units_Z 88
_cell_length_a 9.172786
_cell_length_b 19.138972
_cell_length_c 27.472576
_cell_angle_alpha 90.000000
_cell_angle_beta 90.000000
_cell_angle_gamma 90.000000
_cell_volume 4823.022102
_symmetry_space_group_name_H-M "C M M M"
_symmetry_group_IT_number 65
_symmetry_cell_setting 'orthorhombic'
loop_
_space_group_symop_operation_xyz
x,y,z
-x,-y,z
x,-y,-z
-x,y,-z
-x,-y,-z
x,y,-z
-x,y,z
x,-y,z
1/2+x,1/2+y,z
1/2-x,1/2-y,z
1/2+x,1/2-y,-z
1/2-x,1/2+y,-z
1/2-x,1/2-y,-z
1/2+x,1/2+y,-z
1/2-x,1/2+y,z
1/2+x,1/2-y,z
loop_
_atom_site_type_symbol
_atom_site_label
_atom_site_fract_x
_atom_site_fract_y
_atom_site_fract_z
Si Si1 0.671559 0.179476 0.323203
Si Si2 0.172115 0.076127 0.500000
Si Si3 0.169799 0.580518 0.126984
Si Si4 0.168719 0.318650 0.212459
Si Si5 0.831032 0.820016 0.943097
Si Si6 0.666501 0.416739 0.605100
O O1 0.500000 0.188651 0.329957
O O2 0.750000 0.250000 0.340909
O O3 0.714946 0.162538 0.267471
O O4 0.726324 0.115099 0.355160
O O5 0.213963 0.113416 0.448733
O O6 0.000000 0.065467 0.500000
O O7 0.247310 0.000000 0.500000
O O8 0.213522 0.500000 0.131704
O O9 0.209830 0.616330 0.178314
O O10 0.263692 0.613532 0.083816
O O11 0.000000 0.590065 0.114340
O O12 0.250000 0.250000 0.193132
O O13 0.000000 0.300448 0.209773
O O14 0.750000 0.750000 0.925458
O O15 0.000000 0.812091 0.929688
O O16 0.806729 0.832744 0.000000
O O17 0.500000 0.395355 0.616996
O O18 0.683327 0.500000 0.605803
#
# Coordination Sequence:
#
# PCOD8271063 Si02
#       6
#    16   8  16  16  16  16
#     4  10  20  34  52  74 102 134 168 208 254 302
#     4   7  12  26  48  71  96 129 165 201 246 299
#     4  10  21  36  54  78 108 139 170 207 253 303
#     4   9  19  35  54  74  98 132 171 210 252 300
#     4  10  21  37  57  80 106 137 174 214 254 299
#     4   9  17  31  52  76 101 130 166 207 251 301
#
# _framework density 18.245820999999999
#
# number of rings (size 3 to 8) (size 9 to 14) (size 15 to 20)
#    0.000    2.636    0.000    2.727    0.000    5.818 
#    0.000    4.545    0.000    1.636    0.000    0.000 
#    0.000    0.000    0.000    0.000    0.000    0.000 
#
# Total GULP energy -545510.096652 kJ/mol
# GULP energy per Si atom -12397.956742 kJ/mol
# Density = 1.820429 g / cm^3
# Si number density = 18.245821 Si / 1000 Ang^3
#
#
#
# Elastic Constant Matrix: (Units=GPa)
#
#
# Indices 1 2 3 4 5 6 
#
# 1 78.9326 55.0311 53.4787 0.0000 0.0000 0.0000
# 2 55.0311 113.9082 66.1619 0.0000 0.0000 0.0000
# 3 53.4787 66.1619 99.7971 0.0000 0.0000 0.0000
# 4 0.0000 0.0000 0.0000 26.6618 0.0000 0.0000
# 5 0.0000 0.0000 0.0000 0.0000 27.4972 0.0000
# 6 0.0000 0.0000 0.0000 0.0000 0.0000 31.6270
#
#
#
# Elastic Compliance Matrix: (Units=1/GPa)
#
#
# Indices 1 2 3 4 5 6 
#
# 1 0.022320 -0.006238 -0.007825 0.000000 0.000000 0.000000
# 2 -0.006238 0.016020 -0.007278 0.000000 0.000000 0.000000
# 3 -0.007825 -0.007278 0.019039 0.000000 0.000000 0.000000
# 4 0.000000 0.000000 0.000000 0.037507 0.000000 0.000000
# 5 0.000000 0.000000 0.000000 0.000000 0.036367 0.000000
# 6 0.000000 0.000000 0.000000 0.000000 0.000000 0.031619
#
#
# Mechanical properties :
#
#
# Convention : Reuss Voigt Hill
#
# Bulk Modulus (GPa) = 68.04367 71.33126 69.68747
# Shear Modulus (GPa) = 23.75843 25.02159 24.39001
#
# Velocity S-wave (km/s) = 3.61242 3.70721 3.66012
# Velocity P-wave (km/s) = 7.40089 7.58314 7.49257
#
# Compressibility (1/GPa) = 0.01469644
#
# Stress axis : x y z
#
# Youngs Moduli (GPa) = 44.80331 62.42219 52.52514
#
# Poissons Ratio (x) = 0.38939 0.41101
# Poissons Ratio (y) = 0.27949 0.38227
# Poissons Ratio (z) = 0.35059 0.45430
#
# Static dielectric constant tensor:
#      x y z
#    x 3.276430 0.000000 0.000000 
#    y 0.000000 3.201240 0.000000 
#    z 0.000000 0.000000 3.619940 
# 
# 
# High freq. dielectric constant tensor:
#      x y z
#    x 1.698900 0.000000 0.000000 
#    y 0.000000 1.689750 0.000000 
#    z 0.000000 0.000000 1.720140 
# 
# From -- ./inp_files/67567.got.cif
#   From: 2010.03.12/outbox.cif.g09.slc.cpg/sg65_34_cif.got.tgz:67567.got - 2010.04.10 20:52:16.
