data_PCOD8271745
_publ_section_title
;
Structure prediction by ZEFSAII (Michael W. Deem and Ramdas Pophale) SiO2 
 PCOD8271745
Probable space group: C M M M
;
_chemical_formula_sum "Si O2"
_cell_formula_units_Z 96
_cell_length_a 19.728792
_cell_length_b 8.799744
_cell_length_c 29.881249
_cell_angle_alpha 90.000000
_cell_angle_beta 90.000000
_cell_angle_gamma 90.000000
_cell_volume 5187.633409
_symmetry_space_group_name_H-M "C M M M"
_symmetry_group_IT_number 65
_symmetry_cell_setting 'orthorhombic'
loop_
_space_group_symop_operation_xyz
x,y,z
-x,-y,z
x,-y,-z
-x,y,-z
-x,-y,-z
x,y,-z
-x,y,z
x,-y,z
1/2+x,1/2+y,z
1/2-x,1/2-y,z
1/2+x,1/2-y,-z
1/2-x,1/2+y,-z
1/2-x,1/2-y,-z
1/2+x,1/2+y,-z
1/2-x,1/2+y,z
1/2+x,1/2-y,z
loop_
_atom_site_type_symbol
_atom_site_label
_atom_site_fract_x
_atom_site_fract_y
_atom_site_fract_z
Si Si1 0.421750 0.673931 0.948267
Si Si2 0.577604 0.323161 0.289912
Si Si3 0.821470 0.819911 0.788076
Si Si4 0.421132 0.823748 0.381879
Si Si5 0.180496 0.821457 0.551064
Si Si6 0.821150 0.678789 0.117919
O O1 0.500000 0.707067 0.937658
O O2 0.403877 0.500000 0.936204
O O3 0.377157 0.787906 0.919271
O O4 0.405987 0.706005 0.000000
O O5 0.500000 0.283557 0.278100
O O6 0.586845 0.500000 0.300663
O O7 0.622575 0.271908 0.248038
O O8 0.602935 0.231253 0.333125
O O9 0.750000 0.750000 0.772861
O O10 0.844962 0.751517 0.835339
O O11 0.814486 0.000000 0.792620
O O12 0.500000 0.787236 0.388387
O O13 0.382559 0.734162 0.420286
O O14 0.404536 0.000000 0.386568
O O15 0.168067 0.769441 0.500000
O O16 0.250000 0.750000 0.569707
O O17 0.186987 0.000000 0.555301
O O18 0.812111 0.500000 0.124032
O O19 0.750000 0.750000 0.102296
#
# Coordination Sequence:
#
# PCOD8271745 Si02
#       6
#    16  16  16  16  16  16
#     4   9  19  37  59  81 107 140 177 218 265 317
#     4   9  19  36  56  77 103 138 179 220 262 311
#     4  10  20  35  55  78 105 138 176 219 266 315
#     4  10  21  36  55  80 110 143 178 219 265 313
#     4  10  21  37  57  80 107 140 178 221 267 316
#     4  11  22  36  55  79 109 143 179 221 266 314
#
# _framework density 18.505548000000001
#
# number of rings (size 3 to 8) (size 9 to 14) (size 15 to 20)
#    0.000    2.167    0.000    4.500    0.000    6.000 
#    0.000    5.833    0.000    0.000    0.000    0.000 
#    0.000    0.000    0.000    0.000    0.000    0.000 
#
# Total GULP energy -595391.265478 kJ/mol
# GULP energy per Si atom -12403.984697 kJ/mol
# Density = 1.846343 g / cm^3
# Si number density = 18.505548 Si / 1000 Ang^3
#
#
#
# Elastic Constant Matrix: (Units=GPa)
#
#
# Indices 1 2 3 4 5 6 
#
# 1 90.0070 44.9877 73.6104 0.0000 0.0000 0.0000
# 2 44.9877 92.7383 50.7805 0.0000 0.0000 0.0000
# 3 73.6104 50.7805 108.5974 0.0000 0.0000 0.0000
# 4 0.0000 0.0000 0.0000 32.7041 0.0000 0.0000
# 5 0.0000 0.0000 0.0000 0.0000 -189.7918 0.0000
# 6 0.0000 0.0000 0.0000 0.0000 0.0000 34.1378
#
#
#
# Elastic Compliance Matrix: (Units=1/GPa)
#
#
# Indices 1 2 3 4 5 6 
#
# 1 0.025979 -0.003979 -0.015748 0.000000 0.000000 0.000000
# 2 -0.003979 0.015104 -0.004365 0.000000 0.000000 0.000000
# 3 -0.015748 -0.004365 0.021924 0.000000 0.000000 0.000000
# 4 0.000000 0.000000 0.000000 0.030577 0.000000 0.000000
# 5 0.000000 0.000000 0.000000 0.000000 -0.005269 0.000000
# 6 0.000000 0.000000 0.000000 0.000000 0.000000 0.029293
#
#
# Mechanical properties :
#
#
# Convention : Reuss Voigt Hill
#
# Bulk Modulus (GPa) = 67.47248 70.01109 68.74179
# Shear Modulus (GPa) = 29.28531 -16.45905 6.41313
#
# Velocity S-wave (km/s) = 3.98240 -2.98554 1.86361
# Velocity P-wave (km/s) = 7.59512 5.10197 6.46977
#
# Compressibility (1/GPa) = 0.01482086
#
# Stress axis : x y z
#
# Youngs Moduli (GPa) = 38.49319 66.20934 45.61128
#
# Poissons Ratio (x) = 0.26344 0.71831
# Poissons Ratio (y) = 0.15316 0.19911
# Poissons Ratio (z) = 0.60621 0.28903
#
# Static dielectric constant tensor:
#      x y z
#    x 3.388240 0.000000 0.000000 
#    y 0.000000 3.438880 0.000000 
#    z 0.000000 0.000000 3.415470 
# 
# 
# High freq. dielectric constant tensor:
#      x y z
#    x 1.718490 0.000000 0.000000 
#    y 0.000000 1.726250 0.000000 
#    z 0.000000 0.000000 1.720580 
# 
# From -- ./inp_files/73086.got.cif
#   From: 2010.03.12/outbox.cif.g09.slc.cpg/sg65_37_cif.got.tgz:73086.got - 2010.04.10 20:52:16.
