data_PCOD8271184
_publ_section_title
;
Structure prediction by ZEFSAII (Michael W. Deem and Ramdas Pophale) SiO2 
 PCOD8271184
Probable space group: C M M M
;
_chemical_formula_sum "Si O2"
_cell_formula_units_Z 88
_cell_length_a 17.783809
_cell_length_b 27.495856
_cell_length_c 9.476390
_cell_angle_alpha 90.000000
_cell_angle_beta 90.000000
_cell_angle_gamma 90.000000
_cell_volume 4633.775146
_symmetry_space_group_name_H-M "C M M M"
_symmetry_group_IT_number 65
_symmetry_cell_setting 'orthorhombic'
loop_
_space_group_symop_operation_xyz
x,y,z
-x,-y,z
x,-y,-z
-x,y,-z
-x,-y,-z
x,y,-z
-x,y,z
x,-y,z
1/2+x,1/2+y,z
1/2-x,1/2-y,z
1/2+x,1/2-y,-z
1/2-x,1/2+y,-z
1/2-x,1/2-y,-z
1/2+x,1/2+y,-z
1/2-x,1/2+y,z
1/2+x,1/2-y,z
loop_
_atom_site_type_symbol
_atom_site_label
_atom_site_fract_x
_atom_site_fract_y
_atom_site_fract_z
Si Si1 0.290058 0.445204 0.658854
Si Si2 0.676996 0.221967 0.334928
Si Si3 0.500000 0.943558 0.668226
Si Si4 0.352968 0.114391 0.667911
Si Si5 0.912160 0.098764 0.835506
Si Si6 0.087643 0.188071 0.654840
O O1 0.312595 0.429110 0.500000
O O2 0.260655 0.500000 0.659317
O O3 0.221663 0.413367 0.718764
O O4 0.363326 0.442324 0.758738
O O5 0.690368 0.213665 0.500000
O O6 0.750000 0.250000 0.270760
O O7 0.656139 0.169280 0.269126
O O8 0.607330 0.257211 0.299857
O O9 0.500000 0.944217 0.500000
O O10 0.573212 0.913995 0.725788
O O11 0.500000 0.000000 0.722757
O O12 0.358749 0.115349 0.500000
O O13 0.883207 0.149720 0.769687
O O14 0.000000 0.088680 0.806365
O O15 0.894390 0.099337 0.000000
O O16 0.124066 0.176772 0.500000
O O17 0.000000 0.183610 0.642896
#
# Coordination Sequence:
#
# PCOD8271184 Si02
#       6
#    16  16   8  16  16  16
#     4  10  20  34  53  76 102 134 173 214 257 306
#     4   9  16  25  41  67  99 132 165 203 248 297
#     4   9  16  26  42  68 105 143 175 213 264 315
#     4   9  17  28  46  72 106 140 171 211 261 311
#     4  10  21  36  53  74 101 134 171 211 260 314
#     4   9  17  29  48  72  99 130 166 204 244 294
#
# _framework density 18.990995000000002
#
# number of rings (size 3 to 8) (size 9 to 14) (size 15 to 20)
#    0.000    2.636    0.000    2.182    1.273    6.909 
#    0.000    1.818    0.000    4.909    0.000    0.636 
#    0.000    2.182    0.000    0.000    0.000    0.000 
#
# Total GULP energy -545273.852122 kJ/mol
# GULP energy per Si atom -12392.587548 kJ/mol
# Density = 1.894777 g / cm^3
# Si number density = 18.990995 Si / 1000 Ang^3
#
#
#
# Elastic Constant Matrix: (Units=GPa)
#
#
# Indices 1 2 3 4 5 6 
#
# 1 89.0400 50.6016 36.7661 0.0000 0.0000 0.0000
# 2 50.6016 125.0416 18.3453 0.0000 0.0000 0.0000
# 3 36.7661 18.3453 48.9707 0.0000 0.0000 0.0000
# 4 0.0000 0.0000 0.0000 -28.7373 0.0000 0.0000
# 5 0.0000 0.0000 0.0000 0.0000 10.2973 0.0000
# 6 0.0000 0.0000 0.0000 0.0000 0.0000 39.1231
#
#
#
# Elastic Compliance Matrix: (Units=1/GPa)
#
#
# Indices 1 2 3 4 5 6 
#
# 1 0.020016 -0.006238 -0.012691 0.000000 0.000000 0.000000
# 2 -0.006238 0.010407 0.000785 0.000000 0.000000 0.000000
# 3 -0.012691 0.000785 0.029654 0.000000 0.000000 0.000000
# 4 0.000000 0.000000 0.000000 -0.034798 0.000000 0.000000
# 5 0.000000 0.000000 0.000000 0.000000 0.097113 0.000000
# 6 0.000000 0.000000 0.000000 0.000000 0.000000 0.025560
#
#
# Mechanical properties :
#
#
# Convention : Reuss Voigt Hill
#
# Bulk Modulus (GPa) = 42.03607 52.71984 47.37795
# Shear Modulus (GPa) = 26.01857 14.62592 20.32225
#
# Velocity S-wave (km/s) = 3.70543 2.77817 3.27479
# Velocity P-wave (km/s) = 6.36316 6.17346 6.26903
#
# Compressibility (1/GPa) = 0.02378910
#
# Stress axis : x y z
#
# Youngs Moduli (GPa) = 49.95888 96.09232 33.72188
#
# Poissons Ratio (x) = 0.59945 0.42796
# Poissons Ratio (y) = 0.31166 -0.02647
# Poissons Ratio (z) = 0.63403 -0.07544
#
# Static dielectric constant tensor:
#      x y z
#    x 3.532290 0.000000 0.000000 
#    y 0.000000 3.754990 0.000000 
#    z 0.000000 0.000000 2.983600 
# 
# 
# High freq. dielectric constant tensor:
#      x y z
#    x 1.743630 0.000000 0.000000 
#    y 0.000000 1.752280 0.000000 
#    z 0.000000 0.000000 1.666530 
# 
# From -- ./inp_files/10082.got.cif
#   From: 2010.03.12/outbox.cif.g09.slc.cpg/sg65_6_cif.got.tgz:10082.got - 2010.04.10 20:52:16.
