data_PCOD8271402
_publ_section_title
;
Structure prediction by ZEFSAII (Michael W. Deem and Ramdas Pophale) SiO2 
 PCOD8271402
Probable space group: C M M M
;
_chemical_formula_sum "Si O2"
_cell_formula_units_Z 88
_cell_length_a 18.248134
_cell_length_b 9.078494
_cell_length_c 27.993126
_cell_angle_alpha 90.000000
_cell_angle_beta 90.000000
_cell_angle_gamma 90.000000
_cell_volume 4637.497316
_symmetry_space_group_name_H-M "C M M M"
_symmetry_group_IT_number 65
_symmetry_cell_setting 'orthorhombic'
loop_
_space_group_symop_operation_xyz
x,y,z
-x,-y,z
x,-y,-z
-x,y,-z
-x,-y,-z
x,y,-z
-x,y,z
x,-y,z
1/2+x,1/2+y,z
1/2-x,1/2-y,z
1/2+x,1/2-y,-z
1/2-x,1/2+y,-z
1/2-x,1/2-y,-z
1/2+x,1/2+y,-z
1/2-x,1/2+y,z
1/2+x,1/2-y,z
loop_
_atom_site_type_symbol
_atom_site_label
_atom_site_fract_x
_atom_site_fract_y
_atom_site_fract_z
Si Si1 0.581697 0.324965 0.265144
Si Si2 0.324162 0.827810 0.554165
Si Si3 0.085535 0.830472 0.082614
Si Si4 0.674246 0.671001 0.177277
Si Si5 0.586624 0.336158 0.370574
Si Si6 0.171095 0.325006 0.000000
O O1 0.500000 0.259293 0.256701
O O2 0.576599 0.500000 0.260937
O O3 0.637578 0.262759 0.225425
O O4 0.611726 0.281564 0.317851
O O5 0.345068 0.782962 0.500000
O O6 0.250000 0.750000 0.570683
O O7 0.388136 0.776871 0.589136
O O8 0.312622 0.000000 0.559019
O O9 0.117000 0.801038 0.135004
O O10 0.126508 0.723119 0.046501
O O11 0.000000 0.791070 0.082899
O O12 0.098048 0.000000 0.067037
O O13 0.691887 0.500000 0.183516
O O14 0.750000 0.750000 0.165634
O O15 0.500000 0.341595 0.371295
O O16 0.617975 0.500000 0.381162
O O17 0.250000 0.250000 0.000000
O O18 0.181130 0.500000 0.000000
#
# Coordination Sequence:
#
# PCOD8271402 Si02
#       6
#    16  16  16  16  16   8
#     4   8  15  31  54  77 102 135 175 214 254 306
#     4  10  21  36  53  73 100 135 174 217 264 314
#     4  10  21  38  60  84 110 143 183 224 267 317
#     4  10  20  34  54  80 109 141 177 218 263 311
#     4   9  18  33  54  79 106 137 173 214 260 312
#     4  12  25  40  59  83 113 147 181 222 271 318
#
# _framework density 18.975752
#
# number of rings (size 3 to 8) (size 9 to 14) (size 15 to 20)
#    0.000    2.364    0.000    3.818    0.000    8.364 
#    0.000    4.545    0.000    2.727    0.000    0.000 
#    0.000    0.000    0.000    0.000    0.000    0.000 
#
# Total GULP energy -545601.879182 kJ/mol
# GULP energy per Si atom -12400.042709 kJ/mol
# Density = 1.893256 g / cm^3
# Si number density = 18.975752 Si / 1000 Ang^3
#
#
#
# Elastic Constant Matrix: (Units=GPa)
#
#
# Indices 1 2 3 4 5 6 
#
# 1 104.1334 44.8887 56.8775 0.0000 0.0000 0.0000
# 2 44.8887 73.2401 50.2840 0.0000 0.0000 0.0000
# 3 56.8775 50.2840 123.4433 0.0000 0.0000 0.0000
# 4 0.0000 0.0000 0.0000 -1.5250 0.0000 0.0000
# 5 0.0000 0.0000 0.0000 0.0000 20.2181 0.0000
# 6 0.0000 0.0000 0.0000 0.0000 0.0000 29.5372
#
#
#
# Elastic Compliance Matrix: (Units=1/GPa)
#
#
# Indices 1 2 3 4 5 6 
#
# 1 0.014496 -0.005968 -0.004248 0.000000 0.000000 0.000000
# 2 -0.005968 0.021412 -0.005972 0.000000 0.000000 0.000000
# 3 -0.004248 -0.005972 0.012491 0.000000 0.000000 0.000000
# 4 0.000000 0.000000 0.000000 -0.655748 0.000000 0.000000
# 5 0.000000 0.000000 0.000000 0.000000 0.049461 0.000000
# 6 0.000000 0.000000 0.000000 0.000000 0.000000 0.033856
#
#
# Mechanical properties :
#
#
# Convention : Reuss Voigt Hill
#
# Bulk Modulus (GPa) = 62.41342 67.21302 64.81322
# Shear Modulus (GPa) = -10.28139 19.56383 4.64122
#
# Velocity S-wave (km/s) = -2.33022 3.21439 1.56562
# Velocity P-wave (km/s) = 5.07175 7.01953 6.12358
#
# Compressibility (1/GPa) = 0.01602220
#
# Stress axis : x y z
#
# Youngs Moduli (GPa) = 68.98456 46.70330 80.05768
#
# Poissons Ratio (x) = 0.27872 0.34010
# Poissons Ratio (y) = 0.41170 0.47812
# Poissons Ratio (z) = 0.29306 0.27892
#
# Static dielectric constant tensor:
#      x y z
#    x 3.458710 0.000000 0.000000 
#    y 0.000000 3.468730 0.000000 
#    z 0.000000 0.000000 3.753360 
# 
# 
# High freq. dielectric constant tensor:
#      x y z
#    x 1.737530 0.000000 0.000000 
#    y 0.000000 1.711530 0.000000 
#    z 0.000000 0.000000 1.753020 
# 
# From -- ./inp_files/70967.got.cif
#   From: 2010.03.12/outbox.cif.g09.slc.cpg/sg65_36_cif.got.tgz:70967.got - 2010.04.10 20:52:16.
