data_PCOD8271620
_publ_section_title
;
Structure prediction by ZEFSAII (Michael W. Deem and Ramdas Pophale) SiO2 
 PCOD8271620
Probable space group: C M M M
;
_chemical_formula_sum "Si O2"
_cell_formula_units_Z 104
_cell_length_a 25.901258
_cell_length_b 23.507026
_cell_length_c 9.195484
_cell_angle_alpha 90.000000
_cell_angle_beta 90.000000
_cell_angle_gamma 90.000000
_cell_volume 5598.776597
_symmetry_space_group_name_H-M "C M M M"
_symmetry_group_IT_number 65
_symmetry_cell_setting 'orthorhombic'
loop_
_space_group_symop_operation_xyz
x,y,z
-x,-y,z
x,-y,-z
-x,y,-z
-x,-y,-z
x,y,-z
-x,y,z
x,-y,z
1/2+x,1/2+y,z
1/2-x,1/2-y,z
1/2+x,1/2-y,-z
1/2-x,1/2+y,-z
1/2-x,1/2-y,-z
1/2+x,1/2+y,-z
1/2-x,1/2+y,z
1/2+x,1/2-y,z
loop_
_atom_site_type_symbol
_atom_site_label
_atom_site_fract_x
_atom_site_fract_y
_atom_site_fract_z
Si Si1 0.000000 0.936020 0.171842
Si Si2 0.856018 0.215437 0.832563
Si Si3 0.360966 0.157333 0.167869
Si Si4 0.907742 0.117091 0.336362
Si Si5 0.198060 0.064161 0.661266
Si Si6 0.752687 0.161083 0.169120
Si Si7 0.058344 0.435485 0.172838
O O1 0.049153 0.902831 0.227094
O O2 0.000000 0.000000 0.233814
O O3 0.000000 0.935622 0.000000
O O4 0.880765 0.277998 0.815288
O O5 0.886957 0.177159 0.720515
O O6 0.793934 0.211760 0.792097
O O7 0.862128 0.194378 0.000000
O O8 0.304075 0.160334 0.244217
O O9 0.400730 0.111042 0.238824
O O10 0.355967 0.140048 0.000000
O O11 0.929209 0.125420 0.500000
O O12 0.863604 0.069428 0.334176
O O13 0.217542 0.082921 0.500000
O O14 0.221848 0.101694 0.787806
O O15 0.214274 0.000000 0.694247
O O16 0.741540 0.163641 0.000000
O O17 0.074199 0.500000 0.220343
O O18 0.000000 0.422008 0.229522
O O19 0.058063 0.431239 0.000000
#
# Coordination Sequence:
#
# PCOD8271620 Si02
#       7
#     8  16  16  16  16  16  16
#     4  11  23  37  55  79 103 129 168 215 256 295
#     4   9  17  31  48  69  99 131 163 204 252 298
#     4   9  16  27  45  68  94 129 167 202 247 304
#     4  10  20  35  53  72  98 134 171 208 252 300
#     4   9  18  32  48  67  95 131 167 202 246 301
#     4   9  17  28  45  69  97 127 161 203 250 298
#     4   8  14  25  40  60  90 124 157 198 247 296
#
# _framework density 18.575486999999999
#
# number of rings (size 3 to 8) (size 9 to 14) (size 15 to 20)
#    0.000    2.846    0.000    2.077    0.000    4.615 
#    1.385    2.308    0.000    3.692    0.000    0.000 
#    0.000    0.000    0.000    5.385    0.000    5.538 
#
# Total GULP energy -644182.114917 kJ/mol
# GULP energy per Si atom -12388.117595 kJ/mol
# Density = 1.853321 g / cm^3
# Si number density = 18.575487 Si / 1000 Ang^3
#
#
#
# Elastic Constant Matrix: (Units=GPa)
#
#
# Indices 1 2 3 4 5 6 
#
# 1 98.2905 51.0100 18.1691 0.0000 0.0000 0.0000
# 2 51.0100 93.3641 11.1922 0.0000 0.0000 0.0000
# 3 18.1691 11.1922 23.0382 0.0000 0.0000 0.0000
# 4 0.0000 0.0000 0.0000 11.3530 0.0000 0.0000
# 5 0.0000 0.0000 0.0000 0.0000 18.2199 0.0000
# 6 0.0000 0.0000 0.0000 0.0000 0.0000 12.8392
#
#
#
# Elastic Compliance Matrix: (Units=1/GPa)
#
#
# Indices 1 2 3 4 5 6 
#
# 1 0.015693 -0.007529 -0.008719 0.000000 0.000000 0.000000
# 2 -0.007529 0.014985 -0.001342 0.000000 0.000000 0.000000
# 3 -0.008719 -0.001342 0.050934 0.000000 0.000000 0.000000
# 4 0.000000 0.000000 0.000000 0.088082 0.000000 0.000000
# 5 0.000000 0.000000 0.000000 0.000000 0.054885 0.000000
# 6 0.000000 0.000000 0.000000 0.000000 0.000000 0.077886
#
#
# Mechanical properties :
#
#
# Convention : Reuss Voigt Hill
#
# Bulk Modulus (GPa) = 21.53655 41.71506 31.62581
# Shear Modulus (GPa) = 14.15939 17.43720 15.79829
#
# Velocity S-wave (km/s) = 2.76390 3.06718 2.91948
# Velocity P-wave (km/s) = 4.66956 5.92024 5.33170
#
# Compressibility (1/GPa) = 0.04643269
#
# Stress axis : x y z
#
# Youngs Moduli (GPa) = 63.72378 66.73344 19.63317
#
# Poissons Ratio (x) = 0.50241 0.17117
# Poissons Ratio (y) = 0.47975 0.02635
# Poissons Ratio (z) = 0.55558 0.08958
#
# Static dielectric constant tensor:
#      x y z
#    x 3.595910 0.000000 0.000000 
#    y 0.000000 3.438030 0.000000 
#    z 0.000000 0.000000 3.050610 
# 
# 
# High freq. dielectric constant tensor:
#      x y z
#    x 1.716950 0.000000 0.000000 
#    y 0.000000 1.723140 0.000000 
#    z 0.000000 0.000000 1.678170 
# 
# From -- ./inp_files/16782.got.cif
#   From: 2010.03.12/outbox.cif.g09.slc.cpg/sg65_9_cif.got.tgz:16782.got - 2010.04.10 20:52:16.
