data_PCOD8271162
_publ_section_title
;
Structure prediction by ZEFSAII (Michael W. Deem and Ramdas Pophale) SiO2 
 PCOD8271162
Probable space group: C M M M
;
_chemical_formula_sum "Si O2"
_cell_formula_units_Z 80
_cell_length_a 9.411451
_cell_length_b 19.714229
_cell_length_c 24.907056
_cell_angle_alpha 90.000000
_cell_angle_beta 90.000000
_cell_angle_gamma 90.000000
_cell_volume 4621.242723
_symmetry_space_group_name_H-M "C M M M"
_symmetry_group_IT_number 65
_symmetry_cell_setting 'orthorhombic'
loop_
_space_group_symop_operation_xyz
x,y,z
-x,-y,z
x,-y,-z
-x,y,-z
-x,-y,-z
x,y,-z
-x,y,z
x,-y,z
1/2+x,1/2+y,z
1/2-x,1/2-y,z
1/2+x,1/2-y,-z
1/2-x,1/2+y,-z
1/2-x,1/2-y,-z
1/2+x,1/2+y,-z
1/2-x,1/2+y,z
1/2+x,1/2-y,z
loop_
_atom_site_type_symbol
_atom_site_label
_atom_site_fract_x
_atom_site_fract_y
_atom_site_fract_z
Si Si1 0.666747 0.317293 0.629948
Si Si2 0.335727 0.684514 0.753638
Si Si3 0.161276 0.421147 0.562100
Si Si4 0.840023 0.580590 0.941087
Si Si5 0.333806 0.577260 0.840942
O O1 0.500000 0.307380 0.618427
O O2 0.750000 0.250000 0.611692
O O3 0.697579 0.333508 0.692097
O O4 0.724908 0.380231 0.596488
O O5 0.500000 0.701618 0.762042
O O6 0.250000 0.750000 0.772995
O O7 0.287865 0.620440 0.789140
O O8 0.184328 0.403077 0.500000
O O9 0.190422 0.500000 0.572483
O O10 0.000000 0.402584 0.579221
O O11 0.833264 0.500000 0.941057
O O12 0.740056 0.608872 0.893882
O O13 0.000000 0.605599 0.929974
O O14 0.789453 0.606998 0.000000
O O15 0.500000 0.581286 0.851637
O O16 0.284874 0.500000 0.830030
#
# Coordination Sequence:
#
# PCOD8271162 Si02
#       5
#    16  16  16  16  16
#     4  10  20  34  53  75  99 129 166 205 243 287
#     4   9  19  34  50  69  95 127 159 194 237 281
#     4   9  19  36  55  75 102 133 162 197 243 290
#     4   8  14  25  41  63  92 122 151 187 231 276
#     4   9  17  29  46  69  95 121 152 191 234 280
#
# _framework density 17.311361000000002
#
# number of rings (size 3 to 8) (size 9 to 14) (size 15 to 20)
#    0.000    3.000    0.000    1.800    0.000    4.000 
#    0.000    5.000    0.000    3.000    0.000    0.000 
#    0.000    0.000    0.000    0.000    0.000    0.000 
#
# Total GULP energy -495927.272981 kJ/mol
# GULP energy per Si atom -12398.181825 kJ/mol
# Density = 1.727196 g / cm^3
# Si number density = 17.311361 Si / 1000 Ang^3
#
#
#
# Elastic Constant Matrix: (Units=GPa)
#
#
# Indices 1 2 3 4 5 6 
#
# 1 79.3806 51.6711 57.8574 0.0000 0.0000 0.0000
# 2 51.6711 79.9815 62.3581 0.0000 0.0000 0.0000
# 3 57.8574 62.3581 99.5602 0.0000 0.0000 0.0000
# 4 0.0000 0.0000 0.0000 7.2582 0.0000 0.0000
# 5 0.0000 0.0000 0.0000 0.0000 31.5680 0.0000
# 6 0.0000 0.0000 0.0000 0.0000 0.0000 28.6389
#
#
#
# Elastic Compliance Matrix: (Units=1/GPa)
#
#
# Indices 1 2 3 4 5 6 
#
# 1 0.025039 -0.009442 -0.008637 0.000000 0.000000 0.000000
# 2 -0.009442 0.027996 -0.012048 0.000000 0.000000 0.000000
# 3 -0.008637 -0.012048 0.022609 0.000000 0.000000 0.000000
# 4 0.000000 0.000000 0.000000 0.137776 0.000000 0.000000
# 5 0.000000 0.000000 0.000000 0.000000 0.031678 0.000000
# 6 0.000000 0.000000 0.000000 0.000000 0.000000 0.034918
#
#
# Mechanical properties :
#
#
# Convention : Reuss Voigt Hill
#
# Bulk Modulus (GPa) = 64.97528 66.96616 65.97072
# Shear Modulus (GPa) = 14.47603 19.29539 16.88571
#
# Velocity S-wave (km/s) = 2.89488 3.34220 3.12655
# Velocity P-wave (km/s) = 6.98488 7.32537 7.15715
#
# Compressibility (1/GPa) = 0.01539047
#
# Stress axis : x y z
#
# Youngs Moduli (GPa) = 39.93797 35.71934 44.22988
#
# Poissons Ratio (x) = 0.33727 0.38200
# Poissons Ratio (y) = 0.37711 0.53287
# Poissons Ratio (z) = 0.34493 0.43034
#
# Static dielectric constant tensor:
#      x y z
#    x 3.249460 0.000000 0.000000 
#    y 0.000000 3.042950 0.000000 
#    z 0.000000 0.000000 3.426230 
# 
# 
# High freq. dielectric constant tensor:
#      x y z
#    x 1.669390 0.000000 0.000000 
#    y 0.000000 1.643750 0.000000 
#    z 0.000000 0.000000 1.673340 
# 
# From -- ./inp_files/72756.got.cif
#   From: 2010.03.12/outbox.cif.g09.slc.cpg/sg65_37_cif.got.tgz:72756.got - 2010.04.10 20:52:16.
