data_PCOD8271256
_publ_section_title
;
Structure prediction by ZEFSAII (Michael W. Deem and Ramdas Pophale) SiO2 
 PCOD8271256
Probable space group: C M M M
;
_chemical_formula_sum "Si O2"
_cell_formula_units_Z 104
_cell_length_a 19.697375
_cell_length_b 8.946972
_cell_length_c 32.421216
_cell_angle_alpha 90.000000
_cell_angle_beta 90.000000
_cell_angle_gamma 90.000000
_cell_volume 5713.651283
_symmetry_space_group_name_H-M "C M M M"
_symmetry_group_IT_number 65
_symmetry_cell_setting 'orthorhombic'
loop_
_space_group_symop_operation_xyz
x,y,z
-x,-y,z
x,-y,-z
-x,y,-z
-x,-y,-z
x,y,-z
-x,y,z
x,-y,z
1/2+x,1/2+y,z
1/2-x,1/2-y,z
1/2+x,1/2-y,-z
1/2-x,1/2+y,-z
1/2-x,1/2-y,-z
1/2+x,1/2+y,-z
1/2-x,1/2+y,z
1/2+x,1/2-y,z
loop_
_atom_site_type_symbol
_atom_site_label
_atom_site_fract_x
_atom_site_fract_y
_atom_site_fract_z
Si Si1 0.320355 0.676915 0.354749
Si Si2 0.319224 0.674478 0.047890
Si Si3 0.318478 0.674772 0.739423
Si Si4 0.920154 0.674189 0.583024
Si Si5 0.419416 0.331369 0.500000
Si Si6 0.077667 0.825472 0.808035
Si Si7 0.920712 0.673704 0.108143
O O1 0.316255 0.500000 0.361169
O O2 0.250000 0.750000 0.370048
O O3 0.334596 0.722302 0.307409
O O4 0.382917 0.743065 0.379889
O O5 0.313850 0.500000 0.056863
O O6 0.250000 0.750000 0.063754
O O7 0.382806 0.741579 0.071741
O O8 0.331123 0.709960 0.000000
O O9 0.307156 0.500000 0.742472
O O10 0.250000 0.750000 0.755709
O O11 0.379963 0.727938 0.768375
O O12 0.902094 0.500000 0.583090
O O13 0.893272 0.744123 0.540239
O O14 0.000000 0.701773 0.588798
O O15 0.390145 0.500000 0.500000
O O16 0.500000 0.334043 0.500000
O O17 0.103859 0.735781 0.847783
O O18 0.000000 0.786222 0.798008
O O19 0.087611 0.000000 0.817240
O O20 0.903167 0.500000 0.105916
O O21 0.000000 0.706022 0.101978
#
# Coordination Sequence:
#
# PCOD8271256 Si02
#       7
#    16  16  16  16   8  16  16
#     4  10  20  35  54  76 105 139 175 215 260 310
#     4  10  21  37  57  80 106 137 174 216 261 309
#     4   9  19  34  53  76 101 133 171 212 258 308
#     4  10  20  34  53  78 107 138 173 213 258 308
#     4   9  17  31  52  77 104 135 172 213 257 305
#     4   9  18  34  54  75 102 136 174 216 260 305
#     4  10  21  36  54  78 108 141 176 214 258 308
#
# _framework density 18.202020000000001
#
# number of rings (size 3 to 8) (size 9 to 14) (size 15 to 20)
#    0.000    2.385    0.000    2.077    0.000    6.462 
#    0.000    5.000    0.000    1.846    0.000    0.000 
#    0.000    0.000    0.000    0.000    0.000    0.000 
#
# Total GULP energy -644976.770981 kJ/mol
# GULP energy per Si atom -12403.399442 kJ/mol
# Density = 1.816059 g / cm^3
# Si number density = 18.202020 Si / 1000 Ang^3
#
#
#
# Elastic Constant Matrix: (Units=GPa)
#
#
# Indices 1 2 3 4 5 6 
#
# 1 80.4887 49.4623 65.4760 0.0000 0.0000 0.0000
# 2 49.4623 97.1337 58.4295 0.0000 0.0000 0.0000
# 3 65.4760 58.4295 109.3132 0.0000 0.0000 0.0000
# 4 0.0000 0.0000 0.0000 29.7752 0.0000 0.0000
# 5 0.0000 0.0000 0.0000 0.0000 19.0287 0.0000
# 6 0.0000 0.0000 0.0000 0.0000 0.0000 33.2413
#
#
#
# Elastic Compliance Matrix: (Units=1/GPa)
#
#
# Indices 1 2 3 4 5 6 
#
# 1 0.026250 -0.005761 -0.012643 0.000000 0.000000 0.000000
# 2 -0.005761 0.016439 -0.005336 0.000000 0.000000 0.000000
# 3 -0.012643 -0.005336 0.019573 0.000000 0.000000 0.000000
# 4 0.000000 0.000000 0.000000 0.033585 0.000000 0.000000
# 5 0.000000 0.000000 0.000000 0.000000 0.052552 0.000000
# 6 0.000000 0.000000 0.000000 0.000000 0.000000 0.030083
#
#
# Mechanical properties :
#
#
# Convention : Reuss Voigt Hill
#
# Bulk Modulus (GPa) = 67.65715 70.40792 69.03253
# Shear Modulus (GPa) = 21.65536 23.98023 22.81779
#
# Velocity S-wave (km/s) = 3.45298 3.63361 3.54444
# Velocity P-wave (km/s) = 7.29028 7.50796 7.39992
#
# Compressibility (1/GPa) = 0.01478040
#
# Stress axis : x y z
#
# Youngs Moduli (GPa) = 38.09546 60.83278 51.09035
#
# Poissons Ratio (x) = 0.35048 0.64596
# Poissons Ratio (y) = 0.21948 0.27260
# Poissons Ratio (z) = 0.48166 0.32458
#
# Static dielectric constant tensor:
#      x y z
#    x 3.304940 0.000000 0.000000 
#    y 0.000000 3.458920 0.000000 
#    z 0.000000 0.000000 3.469640 
# 
# 
# High freq. dielectric constant tensor:
#      x y z
#    x 1.695990 0.000000 0.000000 
#    y 0.000000 1.716250 0.000000 
#    z 0.000000 0.000000 1.709270 
# 
# From -- ./inp_files/75534.got.cif
#   From: 2010.03.12/outbox.cif.g09.slc.cpg/sg65_38_cif.got.tgz:75534.got - 2010.04.10 20:52:16.
