data_PCOD8271869
_publ_section_title
;
Structure prediction by ZEFSAII (Michael W. Deem and Ramdas Pophale) SiO2 
 PCOD8271869
Probable space group: C M M M
;
_chemical_formula_sum "Si O2"
_cell_formula_units_Z 96
_cell_length_a 23.231529
_cell_length_b 13.644803
_cell_length_c 16.643594
_cell_angle_alpha 90.000000
_cell_angle_beta 90.000000
_cell_angle_gamma 90.000000
_cell_volume 5275.846814
_symmetry_space_group_name_H-M "C M M M"
_symmetry_group_IT_number 65
_symmetry_cell_setting 'orthorhombic'
loop_
_space_group_symop_operation_xyz
x,y,z
-x,-y,z
x,-y,-z
-x,y,-z
-x,-y,-z
x,y,-z
-x,y,z
x,-y,z
1/2+x,1/2+y,z
1/2-x,1/2-y,z
1/2+x,1/2-y,-z
1/2-x,1/2+y,-z
1/2-x,1/2-y,-z
1/2+x,1/2+y,-z
1/2-x,1/2+y,z
1/2+x,1/2-y,z
loop_
_atom_site_type_symbol
_atom_site_label
_atom_site_fract_x
_atom_site_fract_y
_atom_site_fract_z
Si Si1 0.276972 0.887846 0.162000
Si Si2 0.830091 0.614319 0.327610
Si Si3 0.935076 0.750586 0.326035
Si Si4 0.676089 0.109960 0.500000
Si Si5 0.933664 0.112106 0.815974
Si Si6 0.436788 0.211346 0.500000
Si Si7 0.333698 0.706059 0.093719
O O1 0.283590 0.869386 0.257600
O O2 0.321544 0.820206 0.112633
O O3 0.211615 0.861425 0.141235
O O4 0.290548 0.000000 0.139105
O O5 0.845177 0.500000 0.338827
O O6 0.889273 0.667350 0.301975
O O7 0.804074 0.656178 0.413535
O O8 0.923328 0.847794 0.274016
O O9 0.928007 0.778391 0.420452
O O10 0.000000 0.711392 0.308687
O O11 0.606572 0.119589 0.500000
O O12 0.697831 0.000000 0.500000
O O13 0.897434 0.175929 0.879344
O O14 0.000000 0.121580 0.842130
O O15 0.913011 0.000000 0.817514
O O16 0.500000 0.163615 0.500000
O O17 0.326282 0.686549 0.000000
#
# Coordination Sequence:
#
# PCOD8271869 Si02
#       7
#    16  16  16   8  16   8  16
#     4  10  20  35  56  82 110 140 172 208 257 311
#     4   9  16  28  48  75 107 142 174 209 252 302
#     4   9  16  29  47  71 104 139 177 217 256 303
#     4   8  14  23  40  69 103 139 176 206 244 295
#     4  10  21  37  56  77 103 136 174 219 269 318
#     4   8  14  23  41  67  97 135 175 216 255 293
#     4  11  23  38  58  81 105 133 170 221 269 313
#
# _framework density 18.196131000000001
#
# number of rings (size 3 to 8) (size 9 to 14) (size 15 to 20)
#    0.000    2.500    1.667    1.500    0.000    3.167 
#    0.000    4.583    0.000    6.000    0.000    3.500 
#    0.000    0.000    0.000    0.000    0.000    0.000 
#
# Total GULP energy -594730.160468 kJ/mol
# GULP energy per Si atom -12390.211676 kJ/mol
# Density = 1.815472 g / cm^3
# Si number density = 18.196131 Si / 1000 Ang^3
#
#
#
# Elastic Constant Matrix: (Units=GPa)
#
#
# Indices 1 2 3 4 5 6 
#
# 1 69.7413 39.7199 54.2084 0.0000 0.0000 0.0000
# 2 39.7199 87.8214 37.9029 0.0000 0.0000 0.0000
# 3 54.2084 37.9029 132.6197 0.0000 0.0000 0.0000
# 4 0.0000 0.0000 0.0000 19.8391 0.0000 0.0000
# 5 0.0000 0.0000 0.0000 0.0000 26.2367 0.0000
# 6 0.0000 0.0000 0.0000 0.0000 0.0000 21.8054
#
#
#
# Elastic Compliance Matrix: (Units=1/GPa)
#
#
# Indices 1 2 3 4 5 6 
#
# 1 0.025025 -0.007875 -0.007978 0.000000 0.000000 0.000000
# 2 -0.007875 0.015467 -0.001202 0.000000 0.000000 0.000000
# 3 -0.007978 -0.001202 0.011145 0.000000 0.000000 0.000000
# 4 0.000000 0.000000 0.000000 0.050406 0.000000 0.000000
# 5 0.000000 0.000000 0.000000 0.000000 0.038115 0.000000
# 6 0.000000 0.000000 0.000000 0.000000 0.000000 0.045860
#
#
# Mechanical properties :
#
#
# Convention : Reuss Voigt Hill
#
# Bulk Modulus (GPa) = 57.05405 61.53830 59.29617
# Shear Modulus (GPa) = 22.12683 24.13298 23.12991
#
# Velocity S-wave (km/s) = 3.49093 3.64575 3.56918
# Velocity P-wave (km/s) = 6.90448 7.18435 7.04581
#
# Compressibility (1/GPa) = 0.01752724
#
# Stress axis : x y z
#
# Youngs Moduli (GPa) = 39.95967 64.65362 89.72669
#
# Poissons Ratio (x) = 0.50915 0.71588
# Poissons Ratio (y) = 0.31468 0.10781
# Poissons Ratio (z) = 0.31881 0.07769
#
# Static dielectric constant tensor:
#      x y z
#    x 3.230580 0.000000 0.000000 
#    y 0.000000 3.211560 0.000000 
#    z 0.000000 0.000000 3.650580 
# 
# 
# High freq. dielectric constant tensor:
#      x y z
#    x 1.690620 0.000000 0.000000 
#    y 0.000000 1.682430 0.000000 
#    z 0.000000 0.000000 1.719730 
# 
# From -- ./inp_files/45690.got.cif
#   From: 2010.03.12/outbox.cif.g09.slc.cpg/sg65_23_cif.got.tgz:45690.got - 2010.04.10 20:52:16.
