data_PCOD8271574
_publ_section_title
;
Structure prediction by ZEFSAII (Michael W. Deem and Ramdas Pophale) SiO2 
 PCOD8271574
Probable space group: C M M M
;
_chemical_formula_sum "Si O2"
_cell_formula_units_Z 112
_cell_length_a 26.243508
_cell_length_b 14.225630
_cell_length_c 14.821695
_cell_angle_alpha 90.000000
_cell_angle_beta 90.000000
_cell_angle_gamma 90.000000
_cell_volume 5533.389837
_symmetry_space_group_name_H-M "C M M M"
_symmetry_group_IT_number 65
_symmetry_cell_setting 'orthorhombic'
loop_
_space_group_symop_operation_xyz
x,y,z
-x,-y,z
x,-y,-z
-x,y,-z
-x,-y,-z
x,y,-z
-x,y,z
x,-y,z
1/2+x,1/2+y,z
1/2-x,1/2-y,z
1/2+x,1/2-y,-z
1/2-x,1/2+y,-z
1/2-x,1/2-y,-z
1/2+x,1/2+y,-z
1/2-x,1/2+y,z
1/2+x,1/2-y,z
loop_
_atom_site_type_symbol
_atom_site_label
_atom_site_fract_x
_atom_site_fract_y
_atom_site_fract_z
Si Si1 0.941603 0.270953 0.399826
Si Si2 0.768116 0.349837 0.210129
Si Si3 0.362316 0.194162 0.897471
Si Si4 0.131681 0.893439 0.643162
Si Si5 0.560142 0.891884 0.231072
Si Si6 0.255154 0.610605 0.597992
Si Si7 0.661473 0.399204 0.157625
O O1 0.935119 0.315048 0.500000
O O2 0.911100 0.173811 0.396139
O O3 0.922563 0.347430 0.326908
O O4 0.000000 0.244766 0.380307
O O5 0.750000 0.250000 0.176186
O O6 0.820444 0.368277 0.156860
O O7 0.778339 0.349658 0.318701
O O8 0.721478 0.416406 0.181643
O O9 0.415521 0.169182 0.849900
O O10 0.351074 0.306830 0.900693
O O11 0.363711 0.158569 0.000000
O O12 0.186393 0.857416 0.608171
O O13 0.129890 0.886550 0.750912
O O14 0.121214 0.000000 0.610163
O O15 0.500000 0.885672 0.217482
O O16 0.578656 0.000000 0.228769
O O17 0.234814 0.647001 0.500000
O O18 0.251369 0.500000 0.603192
O O19 0.645507 0.500000 0.111398
#
# Coordination Sequence:
#
# PCOD8271574 Si02
#       7
#    16  16  16  16  16  16  16
#     4  10  20  34  56  86 117 151 192 236 286 343
#     4   9  19  33  52  82 118 151 188 232 276 329
#     4  11  23  40  63  89 114 144 191 248 299 348
#     4   9  16  30  53  83 120 160 197 230 271 331
#     4  10  23  44  65  84 111 147 190 244 301 352
#     4   9  17  30  50  76 110 156 199 229 267 328
#     4   9  18  35  59  86 121 161 191 222 278 349
#
# _framework density 20.240756000000001
#
# number of rings (size 3 to 8) (size 9 to 14) (size 15 to 20)
#    0.000    2.429    1.429    1.714    0.000    6.286 
#    0.000    3.571    0.000    0.429    0.000    1.000 
#    0.000    0.000    0.000    0.000    0.000    0.000 
#
# Total GULP energy -693898.168585 kJ/mol
# GULP energy per Si atom -12391.038725 kJ/mol
# Density = 2.019469 g / cm^3
# Si number density = 20.240756 Si / 1000 Ang^3
#
#
#
# Elastic Constant Matrix: (Units=GPa)
#
#
# Indices 1 2 3 4 5 6 
#
# 1 53.7371 32.0189 48.0999 0.0000 0.0000 0.0000
# 2 32.0189 95.7199 37.9413 0.0000 0.0000 0.0000
# 3 48.0999 37.9413 148.6615 0.0000 0.0000 0.0000
# 4 0.0000 0.0000 0.0000 15.8079 0.0000 0.0000
# 5 0.0000 0.0000 0.0000 0.0000 12.7463 0.0000
# 6 0.0000 0.0000 0.0000 0.0000 0.0000 22.3266
#
#
#
# Elastic Compliance Matrix: (Units=1/GPa)
#
#
# Indices 1 2 3 4 5 6 
#
# 1 0.029723 -0.006821 -0.007876 0.000000 0.000000 0.000000
# 2 -0.006821 0.013188 -0.001159 0.000000 0.000000 0.000000
# 3 -0.007876 -0.001159 0.009571 0.000000 0.000000 0.000000
# 4 0.000000 0.000000 0.000000 0.063259 0.000000 0.000000
# 5 0.000000 0.000000 0.000000 0.000000 0.078454 0.000000
# 6 0.000000 0.000000 0.000000 0.000000 0.000000 0.044790
#
#
# Mechanical properties :
#
#
# Convention : Reuss Voigt Hill
#
# Bulk Modulus (GPa) = 48.14554 59.35984 53.75269
# Shear Modulus (GPa) = 18.01018 22.18005 20.09512
#
# Velocity S-wave (km/s) = 2.98618 3.31390 3.15430
# Velocity P-wave (km/s) = 5.97727 6.63574 6.31510
#
# Compressibility (1/GPa) = 0.02077035
#
# Stress axis : x y z
#
# Youngs Moduli (GPa) = 33.64376 75.82595 104.48336
#
# Poissons Ratio (x) = 0.51718 0.82294
# Poissons Ratio (y) = 0.22947 0.12110
# Poissons Ratio (z) = 0.26499 0.08788
#
# Static dielectric constant tensor:
#      x y z
#    x 3.539700 0.000000 0.000000 
#    y 0.000000 3.715580 0.000000 
#    z 0.000000 0.000000 3.682490 
# 
# 
# High freq. dielectric constant tensor:
#      x y z
#    x 1.762300 0.000000 0.000000 
#    y 0.000000 1.793180 0.000000 
#    z 0.000000 0.000000 1.786130 
# 
# From -- ./inp_files/40845.got.cif
#   From: 2010.03.12/outbox.cif.g09.slc.cpg/sg65_21_cif.got.tgz:40845.got - 2010.04.10 20:52:16.
