data_PCOD8271494
_publ_section_title
;
Structure prediction by ZEFSAII (Michael W. Deem and Ramdas Pophale) SiO2 
 PCOD8271494
Probable space group: C M M M
;
_chemical_formula_sum "Si O2"
_cell_formula_units_Z 112
_cell_length_a 29.134583
_cell_length_b 15.420978
_cell_length_c 13.902355
_cell_angle_alpha 90.000000
_cell_angle_beta 90.000000
_cell_angle_gamma 90.000000
_cell_volume 6246.102376
_symmetry_space_group_name_H-M "C M M M"
_symmetry_group_IT_number 65
_symmetry_cell_setting 'orthorhombic'
loop_
_space_group_symop_operation_xyz
x,y,z
-x,-y,z
x,-y,-z
-x,y,-z
-x,-y,-z
x,y,-z
-x,y,z
x,-y,z
1/2+x,1/2+y,z
1/2-x,1/2-y,z
1/2+x,1/2-y,-z
1/2-x,1/2+y,-z
1/2-x,1/2-y,-z
1/2+x,1/2+y,-z
1/2-x,1/2+y,z
1/2+x,1/2-y,z
loop_
_atom_site_type_symbol
_atom_site_label
_atom_site_fract_x
_atom_site_fract_y
_atom_site_fract_z
Si Si1 0.238727 0.102064 0.108124
Si Si2 0.797029 0.845594 0.300481
Si Si3 0.612968 0.404045 0.610623
Si Si4 0.947816 0.744430 0.613929
Si Si5 0.342384 0.897052 0.104740
Si Si6 0.613284 0.098395 0.297153
Si Si7 0.297215 0.157252 0.386655
O O1 0.206972 0.152361 0.184575
O O2 0.290683 0.136466 0.122216
O O3 0.235432 0.000000 0.127941
O O4 0.221704 0.123898 0.000000
O O5 0.839831 0.903896 0.330594
O O6 0.750173 0.884013 0.347445
O O7 0.806172 0.748984 0.336342
O O8 0.624790 0.384327 0.500000
O O9 0.590831 0.500000 0.622485
O O10 0.577704 0.331675 0.649583
O O11 0.944987 0.735631 0.500000
O O12 0.925421 0.659102 0.658763
O O13 0.000000 0.750351 0.649820
O O14 0.375766 0.865410 0.189840
O O15 0.340243 0.000000 0.105638
O O16 0.360433 0.864525 0.000000
O O17 0.659775 0.097002 0.360632
O O18 0.594383 0.000000 0.294799
O O19 0.293666 0.170557 0.500000
#
# Coordination Sequence:
#
# PCOD8271494 Si02
#       7
#    16  16  16  16  16  16  16
#     4   9  17  30  48  72 105 144 184 224 264 308
#     4  11  19  32  50  73 107 148 184 219 263 311
#     4  10  20  34  55  80 105 139 184 227 270 322
#     4  10  22  40  58  77 106 138 173 227 283 327
#     4   8  15  30  51  75 105 141 180 220 262 308
#     4  11  21  35  57  82 107 142 181 216 262 322
#     4  11  22  33  47  71 110 153 183 217 259 310
#
# _framework density 17.931182
#
# number of rings (size 3 to 8) (size 9 to 14) (size 15 to 20)
#    0.000    2.000    2.857    3.429    0.000    2.286 
#    0.000    4.286    0.000    0.429    0.000    2.000 
#    0.000    0.000    0.000    4.286    0.000    0.286 
#
# Total GULP energy -694296.426690 kJ/mol
# GULP energy per Si atom -12398.150477 kJ/mol
# Density = 1.789037 g / cm^3
# Si number density = 17.931182 Si / 1000 Ang^3
#
#
#
# Elastic Constant Matrix: (Units=GPa)
#
#
# Indices 1 2 3 4 5 6 
#
# 1 106.2552 41.5010 38.7450 0.0000 0.0000 0.0000
# 2 41.5010 74.9267 37.4410 0.0000 0.0000 0.0000
# 3 38.7450 37.4410 101.8764 0.0000 0.0000 0.0000
# 4 0.0000 0.0000 0.0000 19.1467 0.0000 0.0000
# 5 0.0000 0.0000 0.0000 0.0000 18.8727 0.0000
# 6 0.0000 0.0000 0.0000 0.0000 0.0000 13.6126
#
#
#
# Elastic Compliance Matrix: (Units=1/GPa)
#
#
# Indices 1 2 3 4 5 6 
#
# 1 0.012599 -0.005615 -0.002728 0.000000 0.000000 0.000000
# 2 -0.005615 0.018852 -0.004793 0.000000 0.000000 0.000000
# 3 -0.002728 -0.004793 0.012615 0.000000 0.000000 0.000000
# 4 0.000000 0.000000 0.000000 0.052228 0.000000 0.000000
# 5 0.000000 0.000000 0.000000 0.000000 0.052987 0.000000
# 6 0.000000 0.000000 0.000000 0.000000 0.000000 0.073462
#
#
# Mechanical properties :
#
#
# Convention : Reuss Voigt Hill
#
# Bulk Modulus (GPa) = 56.20009 57.60360 56.90185
# Shear Modulus (GPa) = 19.61206 21.35113 20.48159
#
# Velocity S-wave (km/s) = 3.31076 3.45443 3.38336
# Velocity P-wave (km/s) = 6.78417 6.93580 6.86041
#
# Compressibility (1/GPa) = 0.01779357
#
# Stress axis : x y z
#
# Youngs Moduli (GPa) = 79.36949 53.04595 79.27300
#
# Poissons Ratio (x) = 0.29788 0.21625
# Poissons Ratio (y) = 0.44570 0.37992
# Poissons Ratio (z) = 0.21651 0.25423
#
# Static dielectric constant tensor:
#      x y z
#    x 3.144500 0.000000 0.000000 
#    y 0.000000 3.182320 0.000000 
#    z 0.000000 0.000000 3.627980 
# 
# 
# High freq. dielectric constant tensor:
#      x y z
#    x 1.656820 0.000000 0.000000 
#    y 0.000000 1.689270 0.000000 
#    z 0.000000 0.000000 1.694210 
# 
# From -- ./inp_files/47064.got.cif
#   From: 2010.03.12/outbox.cif.g09.slc.cpg/sg65_24_cif.got.tgz:47064.got - 2010.04.10 20:52:16.
