data_PCOD8271382
_publ_section_title
;
Structure prediction by ZEFSAII (Michael W. Deem and Ramdas Pophale) SiO2 
 PCOD8271382
Probable space group: C M M M
;
_chemical_formula_sum "Si O2"
_cell_formula_units_Z 96
_cell_length_a 18.919074
_cell_length_b 8.806392
_cell_length_c 30.950474
_cell_angle_alpha 90.000000
_cell_angle_beta 90.000000
_cell_angle_gamma 90.000000
_cell_volume 5156.620773
_symmetry_space_group_name_H-M "C M M M"
_symmetry_group_IT_number 65
_symmetry_cell_setting 'orthorhombic'
loop_
_space_group_symop_operation_xyz
x,y,z
-x,-y,z
x,-y,-z
-x,y,-z
-x,-y,-z
x,y,-z
-x,y,z
x,-y,z
1/2+x,1/2+y,z
1/2-x,1/2-y,z
1/2+x,1/2-y,-z
1/2-x,1/2+y,-z
1/2-x,1/2-y,-z
1/2+x,1/2+y,-z
1/2-x,1/2+y,z
1/2+x,1/2-y,z
loop_
_atom_site_type_symbol
_atom_site_label
_atom_site_fract_x
_atom_site_fract_y
_atom_site_fract_z
Si Si1 0.326658 0.177787 0.546802
Si Si2 0.916025 0.170871 0.793941
Si Si3 0.416720 0.175330 0.706224
Si Si4 0.676880 0.678469 0.950519
Si Si5 0.916263 0.326782 0.880674
Si Si6 0.172501 0.179255 0.368103
O O1 0.365066 0.204668 0.500000
O O2 0.250000 0.250000 0.543810
O O3 0.364594 0.258727 0.587491
O O4 0.320342 0.000000 0.556673
O O5 0.890347 0.268475 0.753018
O O6 0.886194 0.247954 0.837368
O O7 0.000000 0.169226 0.795604
O O8 0.886070 0.000000 0.790358
O O9 0.500000 0.200818 0.700773
O O10 0.377813 0.275637 0.670867
O O11 0.395837 0.000000 0.700849
O O12 0.681565 0.500000 0.944618
O O13 0.750000 0.750000 0.934033
O O14 0.612881 0.742495 0.922575
O O15 0.662227 0.725063 0.000000
O O16 0.890699 0.500000 0.880511
O O17 0.000000 0.314230 0.882681
O O18 0.250000 0.250000 0.361626
O O19 0.179602 0.000000 0.370388
#
# Coordination Sequence:
#
# PCOD8271382 Si02
#       6
#    16  16  16  16  16  16
#     4   9  16  27  45  69  97 129 166 207 252 302
#     4   9  17  31  52  77 104 134 170 210 252 300
#     4  10  20  35  55  77 103 136 173 210 252 306
#     4  10  21  37  56  77 104 139 176 213 256 307
#     4  10  20  34  54  80 108 137 171 212 256 300
#     4  11  21  33  51  75 105 136 169 211 257 303
#
# _framework density 18.616842999999999
#
# number of rings (size 3 to 8) (size 9 to 14) (size 15 to 20)
#    0.000    2.167    0.000    5.000    0.000    6.333 
#    0.000    2.500    0.000    0.500    0.000    3.500 
#    0.000    0.000    0.000    0.000    0.000    0.000 
#
# Total GULP energy -595103.683484 kJ/mol
# GULP energy per Si atom -12397.993406 kJ/mol
# Density = 1.857447 g / cm^3
# Si number density = 18.616843 Si / 1000 Ang^3
#
#
#
# Elastic Constant Matrix: (Units=GPa)
#
#
# Indices 1 2 3 4 5 6 
#
# 1 26.1486 27.7304 34.5780 0.0000 0.0000 0.0000
# 2 27.7304 140.0993 63.7221 0.0000 0.0000 0.0000
# 3 34.5780 63.7221 143.5030 0.0000 0.0000 0.0000
# 4 0.0000 0.0000 0.0000 39.4553 0.0000 0.0000
# 5 0.0000 0.0000 0.0000 0.0000 22.5369 0.0000
# 6 0.0000 0.0000 0.0000 0.0000 0.0000 25.7719
#
#
#
# Elastic Compliance Matrix: (Units=1/GPa)
#
#
# Indices 1 2 3 4 5 6 
#
# 1 0.060802 -0.006731 -0.011662 0.000000 0.000000 0.000000
# 2 -0.006731 0.009689 -0.002681 0.000000 0.000000 0.000000
# 3 -0.011662 -0.002681 0.010969 0.000000 0.000000 0.000000
# 4 0.000000 0.000000 0.000000 0.025345 0.000000 0.000000
# 5 0.000000 0.000000 0.000000 0.000000 0.044372 0.000000
# 6 0.000000 0.000000 0.000000 0.000000 0.000000 0.038802
#
#
# Mechanical properties :
#
#
# Convention : Reuss Voigt Hill
#
# Bulk Modulus (GPa) = 25.43634 62.42353 43.92994
# Shear Modulus (GPa) = 20.38900 29.80086 25.09493
#
# Velocity S-wave (km/s) = 3.31296 4.00527 3.67545
# Velocity P-wave (km/s) = 5.32231 7.41573 6.45446
#
# Compressibility (1/GPa) = 0.03931383
#
# Stress axis : x y z
#
# Youngs Moduli (GPa) = 16.44677 103.20675 91.16678
#
# Poissons Ratio (x) = 0.69464 1.06319
# Poissons Ratio (y) = 0.11070 0.24439
# Poissons Ratio (z) = 0.19180 0.27667
#
# Static dielectric constant tensor:
#      x y z
#    x 2.948860 0.000000 0.000000 
#    y 0.000000 3.656480 0.000000 
#    z 0.000000 0.000000 3.950310 
# 
# 
# High freq. dielectric constant tensor:
#      x y z
#    x 1.669540 0.000000 0.000000 
#    y 0.000000 1.744430 0.000000 
#    z 0.000000 0.000000 1.744250 
# 
# From -- ./inp_files/75332.got.cif
#   From: 2010.03.12/outbox.cif.g09.slc.cpg/sg65_38_cif.got.tgz:75332.got - 2010.04.10 20:52:16.
