data_PCOD8271212
_publ_section_title
;
Structure prediction by ZEFSAII (Michael W. Deem and Ramdas Pophale) SiO2 
 PCOD8271212
Probable space group: C M M M
;
_chemical_formula_sum "Si O2"
_cell_formula_units_Z 104
_cell_length_a 22.328984
_cell_length_b 26.826328
_cell_length_c 9.487242
_cell_angle_alpha 90.000000
_cell_angle_beta 90.000000
_cell_angle_gamma 90.000000
_cell_volume 5682.902061
_symmetry_space_group_name_H-M "C M M M"
_symmetry_group_IT_number 65
_symmetry_cell_setting 'orthorhombic'
loop_
_space_group_symop_operation_xyz
x,y,z
-x,-y,z
x,-y,-z
-x,y,-z
-x,-y,-z
x,y,-z
-x,y,z
x,-y,z
1/2+x,1/2+y,z
1/2-x,1/2-y,z
1/2+x,1/2-y,-z
1/2-x,1/2+y,-z
1/2-x,1/2-y,-z
1/2+x,1/2+y,-z
1/2-x,1/2+y,z
1/2+x,1/2-y,z
loop_
_atom_site_type_symbol
_atom_site_label
_atom_site_fract_x
_atom_site_fract_y
_atom_site_fract_z
Si Si1 0.930496 0.553748 0.348355
Si Si2 0.431321 0.221512 0.164982
Si Si3 0.069909 0.000000 0.158898
Si Si4 0.134445 0.918682 0.333461
Si Si5 0.134623 0.376055 0.163993
Si Si6 0.931989 0.182152 0.661164
Si Si7 0.752965 0.558166 0.835731
O O1 0.904281 0.571951 0.500000
O O2 0.901622 0.500000 0.310120
O O3 0.919070 0.592570 0.226879
O O4 0.000000 0.546917 0.363144
O O5 0.500000 0.205687 0.205860
O O6 0.380498 0.180800 0.209429
O O7 0.412248 0.271646 0.243588
O O8 0.427761 0.232239 0.000000
O O9 0.087733 0.952022 0.248608
O O10 0.000000 0.000000 0.139919
O O11 0.099182 0.000000 0.000000
O O12 0.134574 0.932036 0.500000
O O13 0.114364 0.862062 0.308146
O O14 0.198874 0.928728 0.266982
O O15 0.196717 0.401593 0.213479
O O16 0.128804 0.381363 0.000000
O O17 0.927627 0.199519 0.500000
O O18 0.000000 0.164961 0.696495
O O19 0.772125 0.500000 0.813772
O O20 0.736220 0.566862 0.000000
#
# Coordination Sequence:
#
# PCOD8271212 Si02
#       7
#    16  16   8  16  16  16  16
#     4   9  18  31  46  69 102 136 172 221 279 334
#     4   9  18  33  54  81 110 139 178 228 278 329
#     4  11  23  37  57  87 119 147 176 215 268 331
#     4  11  22  37  58  83 111 145 184 226 271 321
#     4  10  20  34  53  77 104 140 185 230 274 322
#     4   9  19  36  57  81 109 140 175 218 272 330
#     4  10  21  37  55  76 108 148 188 230 275 326
#
# _framework density 18.300509000000002
#
# number of rings (size 3 to 8) (size 9 to 14) (size 15 to 20)
#    0.000    2.231    0.769    2.538    0.000    5.538 
#    0.000    4.615    0.000    4.615    0.000    0.000 
#    0.000    0.000    0.000    0.000    0.000    0.000 
#
# Total GULP energy -644300.526698 kJ/mol
# GULP energy per Si atom -12390.394744 kJ/mol
# Density = 1.825886 g / cm^3
# Si number density = 18.300509 Si / 1000 Ang^3
#
#
#
# Elastic Constant Matrix: (Units=GPa)
#
#
# Indices 1 2 3 4 5 6 
#
# 1 70.5835 58.8365 51.6062 0.0000 0.0000 0.0000
# 2 58.8365 125.8898 54.5897 0.0000 0.0000 0.0000
# 3 51.6062 54.5897 47.4378 0.0000 0.0000 0.0000
# 4 0.0000 0.0000 0.0000 41.9039 0.0000 0.0000
# 5 0.0000 0.0000 0.0000 0.0000 21.4667 0.0000
# 6 0.0000 0.0000 0.0000 0.0000 0.0000 45.9846
#
#
#
# Elastic Compliance Matrix: (Units=1/GPa)
#
#
# Indices 1 2 3 4 5 6 
#
# 1 0.069263 0.000604 -0.076044 0.000000 0.000000 0.000000
# 2 0.000604 0.015861 -0.018909 0.000000 0.000000 0.000000
# 3 -0.076044 -0.018909 0.125567 0.000000 0.000000 0.000000
# 4 0.000000 0.000000 0.000000 0.023864 0.000000 0.000000
# 5 0.000000 0.000000 0.000000 0.000000 0.046584 0.000000
# 6 0.000000 0.000000 0.000000 0.000000 0.000000 0.021746
#
#
# Mechanical properties :
#
#
# Convention : Reuss Voigt Hill
#
# Bulk Modulus (GPa) = 45.47200 63.77513 54.62356
# Shear Modulus (GPa) = 10.02176 27.12963 18.57569
#
# Velocity S-wave (km/s) = 2.34267 3.85444 3.18942
# Velocity P-wave (km/s) = 5.67616 7.39820 6.59364
#
# Compressibility (1/GPa) = 0.02199156
#
# Stress axis : x y z
#
# Youngs Moduli (GPa) = 14.43771 63.04896 7.96389
#
# Poissons Ratio (x) = -0.03809 0.60561
# Poissons Ratio (y) = -0.00872 0.15059
# Poissons Ratio (z) = 1.09791 1.19220
#
# Static dielectric constant tensor:
#      x y z
#    x 3.347040 0.000000 0.000000 
#    y 0.000000 3.528890 0.000000 
#    z 0.000000 0.000000 3.558720 
# 
# 
# High freq. dielectric constant tensor:
#      x y z
#    x 1.694930 0.000000 0.000000 
#    y 0.000000 1.709500 0.000000 
#    z 0.000000 0.000000 1.716760 
# 
# From -- ./inp_files/14773.got.cif
#   From: 2010.03.12/outbox.cif.g09.slc.cpg/sg65_8_cif.got.tgz:14773.got - 2010.04.10 20:52:16.
