data_PCOD8271341
_publ_section_title
;
Structure prediction by ZEFSAII (Michael W. Deem and Ramdas Pophale) SiO2 
 PCOD8271341
Probable space group: C M M M
;
_chemical_formula_sum "Si O2"
_cell_formula_units_Z 104
_cell_length_a 18.133851
_cell_length_b 14.070673
_cell_length_c 22.818180
_cell_angle_alpha 90.000000
_cell_angle_beta 90.000000
_cell_angle_gamma 90.000000
_cell_volume 5822.183845
_symmetry_space_group_name_H-M "C M M M"
_symmetry_group_IT_number 65
_symmetry_cell_setting 'orthorhombic'
loop_
_space_group_symop_operation_xyz
x,y,z
-x,-y,z
x,-y,-z
-x,y,-z
-x,-y,-z
x,y,-z
-x,y,z
x,-y,z
1/2+x,1/2+y,z
1/2-x,1/2-y,z
1/2+x,1/2-y,-z
1/2-x,1/2+y,-z
1/2-x,1/2-y,-z
1/2+x,1/2+y,-z
1/2-x,1/2+y,z
1/2+x,1/2-y,z
loop_
_atom_site_type_symbol
_atom_site_label
_atom_site_fract_x
_atom_site_fract_y
_atom_site_fract_z
Si Si1 0.662170 0.248759 0.934759
Si Si2 0.838621 0.395161 0.838938
Si Si3 0.777154 0.390301 0.431841
Si Si4 0.500000 0.607509 0.431154
Si Si5 0.337148 0.747561 0.744374
Si Si6 0.163114 0.895552 0.841587
Si Si7 0.859953 0.780539 0.386188
O O1 0.750000 0.250000 0.938526
O O2 0.633724 0.158095 0.897668
O O3 0.635178 0.342582 0.900235
O O4 0.627619 0.246310 0.000000
O O5 0.873554 0.500000 0.837953
O O6 0.863258 0.341422 0.779598
O O7 0.750919 0.398464 0.841396
O O8 0.755815 0.383125 0.500000
O O9 0.795165 0.500000 0.414703
O O10 0.846495 0.321065 0.418527
O O11 0.709251 0.351788 0.393370
O O12 0.500000 0.500000 0.404250
O O13 0.500000 0.597974 0.500000
O O14 0.570674 0.666653 0.412408
O O15 0.250000 0.750000 0.734383
O O16 0.362762 0.657514 0.782824
O O17 0.376332 0.741067 0.681814
O O18 0.128042 0.000000 0.841596
#
# Coordination Sequence:
#
# PCOD8271341 Si02
#       7
#    16  16  16   8  16  16  16
#     4   8  13  20  29  44  71 108 154 195 227 276
#     4   8  14  23  35  52  80 113 147 193 242 284
#     4  10  20  34  54  79 102 127 164 206 246 290
#     4  11  24  40  57  77 103 135 165 198 250 310
#     4   9  16  28  41  65  90 115 155 200 244 285
#     4   8  14  22  33  50  77 111 146 191 242 283
#     4  11  20  35  54  76 103 133 165 206 250 297
#
# _framework density 17.862714
#
# number of rings (size 3 to 8) (size 9 to 14) (size 15 to 20)
#    0.000    2.846    1.538    4.154    0.000    3.692 
#    0.000    3.462    0.000    1.385    0.000    0.000 
#    0.000    0.000    0.000   11.077    0.000   35.077 
#
# Total GULP energy -644442.233044 kJ/mol
# GULP energy per Si atom -12393.119866 kJ/mol
# Density = 1.782206 g / cm^3
# Si number density = 17.862714 Si / 1000 Ang^3
#
#
#
# Elastic Constant Matrix: (Units=GPa)
#
#
# Indices 1 2 3 4 5 6 
#
# 1 39.6927 30.8806 12.0046 0.0000 0.0000 0.0000
# 2 30.8806 186.4449 66.1473 0.0000 0.0000 0.0000
# 3 12.0046 66.1473 138.8273 0.0000 0.0000 0.0000
# 4 0.0000 0.0000 0.0000 14.3803 0.0000 0.0000
# 5 0.0000 0.0000 0.0000 0.0000 12.9427 0.0000
# 6 0.0000 0.0000 0.0000 0.0000 0.0000 -3.2477
#
#
#
# Elastic Compliance Matrix: (Units=1/GPa)
#
#
# Indices 1 2 3 4 5 6 
#
# 1 0.028928 -0.004698 -0.000263 0.000000 0.000000 0.000000
# 2 -0.004698 0.007218 -0.003033 0.000000 0.000000 0.000000
# 3 -0.000263 -0.003033 0.008671 0.000000 0.000000 0.000000
# 4 0.000000 0.000000 0.000000 0.069540 0.000000 0.000000
# 5 0.000000 0.000000 0.000000 0.000000 0.077263 0.000000
# 6 0.000000 0.000000 0.000000 0.000000 0.000000 -0.307915
#
#
# Mechanical properties :
#
#
# Convention : Reuss Voigt Hill
#
# Bulk Modulus (GPa) = 34.68708 64.78108 49.73408
# Shear Modulus (GPa) = -55.12824 21.87723 -16.62550
#
# Velocity S-wave (km/s) = -5.56140 3.50343 -3.05411
# Velocity P-wave (km/s) = 4.66670 7.26018 3.93269
#
# Compressibility (1/GPa) = 0.02882918
#
# Stress axis : x y z
#
# Youngs Moduli (GPa) = 34.56848 138.55018 115.32762
#
# Poissons Ratio (x) = 0.65091 0.03033
# Poissons Ratio (y) = 0.16240 0.34976
# Poissons Ratio (z) = 0.00909 0.42019
#
# Static dielectric constant tensor:
#      x y z
#    x 2.613130 0.000000 0.000000 
#    y 0.000000 3.813770 0.000000 
#    z 0.000000 0.000000 3.525800 
# 
# 
# High freq. dielectric constant tensor:
#      x y z
#    x 1.613130 0.000000 0.000000 
#    y 0.000000 1.704010 0.000000 
#    z 0.000000 0.000000 1.701970 
# 
# From -- ./inp_files/64683.got.cif
#   From: 2010.03.12/outbox.cif.g09.slc.cpg/sg65_33_cif.got.tgz:64683.got - 2010.04.10 20:52:16.
