data_PCOD8271140
_publ_section_title
;
Structure prediction by ZEFSAII (Michael W. Deem and Ramdas Pophale) SiO2 
 PCOD8271140
Probable space group: C M M M
;
_chemical_formula_sum "Si O2"
_cell_formula_units_Z 88
_cell_length_a 8.803660
_cell_length_b 31.145897
_cell_length_c 17.181546
_cell_angle_alpha 90.000000
_cell_angle_beta 90.000000
_cell_angle_gamma 90.000000
_cell_volume 4711.143619
_symmetry_space_group_name_H-M "C M M M"
_symmetry_group_IT_number 65
_symmetry_cell_setting 'orthorhombic'
loop_
_space_group_symop_operation_xyz
x,y,z
-x,-y,z
x,-y,-z
-x,y,-z
-x,-y,-z
x,y,-z
-x,y,z
x,-y,z
1/2+x,1/2+y,z
1/2-x,1/2-y,z
1/2+x,1/2-y,-z
1/2-x,1/2+y,-z
1/2-x,1/2-y,-z
1/2+x,1/2+y,-z
1/2-x,1/2+y,z
1/2+x,1/2-y,z
loop_
_atom_site_type_symbol
_atom_site_label
_atom_site_fract_x
_atom_site_fract_y
_atom_site_fract_z
Si Si1 0.181520 0.294321 0.659331
Si Si2 0.678791 0.575863 0.500000
Si Si3 0.180927 0.174475 0.500000
Si Si4 0.177241 0.547781 0.343637
Si Si5 0.320660 0.087231 0.913420
Si Si6 0.331365 0.500000 0.092140
Si Si7 0.179561 0.374181 0.758700
O O1 0.250000 0.250000 0.691792
O O2 0.248811 0.302540 0.574530
O O3 0.241754 0.331028 0.718683
O O4 0.000000 0.292378 0.655362
O O5 0.500000 0.573415 0.500000
O O6 0.733709 0.625184 0.500000
O O7 0.739984 0.551362 0.574536
O O8 0.000000 0.180044 0.500000
O O9 0.207647 0.500000 0.309232
O O10 0.244186 0.583693 0.285260
O O11 0.000000 0.555512 0.358209
O O12 0.500000 0.082034 0.916801
O O13 0.256795 0.042399 0.880902
O O14 0.272118 0.123465 0.850166
O O15 0.257972 0.099255 0.000000
O O16 0.500000 0.500000 0.128495
O O17 0.339549 0.500000 0.000000
O O18 0.000000 0.374596 0.752045
#
# Coordination Sequence:
#
# PCOD8271140 Si02
#       7
#    16   8   8  16  16   8  16
#     4  11  22  38  59  80 105 136 171 215 265 317
#     4  11  22  35  52  73 106 140 174 220 259 301
#     4  11  22  37  56  80 107 138 174 214 261 315
#     4  10  20  34  53  74 100 141 185 218 250 303
#     4   9  17  31  53  78 103 136 179 221 258 301
#     4   9  17  29  45  71 107 142 173 208 257 311
#     4   9  19  34  54  79 105 135 172 217 263 305
#
# _framework density 18.679117000000002
#
# number of rings (size 3 to 8) (size 9 to 14) (size 15 to 20)
#    0.000    2.091    1.818    1.909    1.273    3.273 
#    0.000    2.727    0.000    0.545    0.000    0.000 
#    0.000    0.000    0.000    0.000    0.000    0.182 
#
# Total GULP energy -545472.858495 kJ/mol
# GULP energy per Si atom -12397.110420 kJ/mol
# Density = 1.863660 g / cm^3
# Si number density = 18.679117 Si / 1000 Ang^3
#
#
#
# Elastic Constant Matrix: (Units=GPa)
#
#
# Indices 1 2 3 4 5 6 
#
# 1 41.6060 28.3537 22.0739 0.0000 0.0000 0.0000
# 2 28.3537 145.7482 71.8625 0.0000 0.0000 0.0000
# 3 22.0739 71.8625 129.2587 0.0000 0.0000 0.0000
# 4 0.0000 0.0000 0.0000 11.9740 0.0000 0.0000
# 5 0.0000 0.0000 0.0000 0.0000 6.1599 0.0000
# 6 0.0000 0.0000 0.0000 0.0000 0.0000 24.2385
#
#
#
# Elastic Compliance Matrix: (Units=1/GPa)
#
#
# Indices 1 2 3 4 5 6 
#
# 1 0.028255 -0.004295 -0.002437 0.000000 0.000000 0.000000
# 2 -0.004295 0.010105 -0.004885 0.000000 0.000000 0.000000
# 3 -0.002437 -0.004885 0.010868 0.000000 0.000000 0.000000
# 4 0.000000 0.000000 0.000000 0.083514 0.000000 0.000000
# 5 0.000000 0.000000 0.000000 0.000000 0.162341 0.000000
# 6 0.000000 0.000000 0.000000 0.000000 0.000000 0.041257
#
#
# Mechanical properties :
#
#
# Convention : Reuss Voigt Hill
#
# Bulk Modulus (GPa) = 38.46948 62.35480 50.41214
# Shear Modulus (GPa) = 13.57816 21.42933 17.50374
#
# Velocity S-wave (km/s) = 2.69906 3.39076 3.06449
# Velocity P-wave (km/s) = 5.50935 6.98457 6.29035
#
# Compressibility (1/GPa) = 0.02599463
#
# Stress axis : x y z
#
# Youngs Moduli (GPa) = 35.39193 98.96052 92.01108
#
# Poissons Ratio (x) = 0.42503 0.22427
# Poissons Ratio (y) = 0.15201 0.44943
# Poissons Ratio (z) = 0.08626 0.48338
#
# Static dielectric constant tensor:
#      x y z
#    x 3.288220 0.000000 0.000000 
#    y 0.000000 3.682160 0.000000 
#    z 0.000000 0.000000 3.461480 
# 
# 
# High freq. dielectric constant tensor:
#      x y z
#    x 1.707590 0.000000 0.000000 
#    y 0.000000 1.718010 0.000000 
#    z 0.000000 0.000000 1.721800 
# 
# From -- ./inp_files/50482.got.cif
#   From: 2010.03.12/outbox.cif.g09.slc.cpg/sg65_26_cif.got.tgz:50482.got - 2010.04.10 20:52:16.
