data_PCOD8271931
_publ_section_title
;
Structure prediction by ZEFSAII (Michael W. Deem and Ramdas Pophale) SiO2 
 PCOD8271931
Probable space group: C M M M
;
_chemical_formula_sum "Si O2"
_cell_formula_units_Z 120
_cell_length_a 28.036090
_cell_length_b 8.898282
_cell_length_c 26.538725
_cell_angle_alpha 90.000000
_cell_angle_beta 90.000000
_cell_angle_gamma 90.000000
_cell_volume 6620.696271
_symmetry_space_group_name_H-M "C M M M"
_symmetry_group_IT_number 65
_symmetry_cell_setting 'orthorhombic'
loop_
_space_group_symop_operation_xyz
x,y,z
-x,-y,z
x,-y,-z
-x,y,-z
-x,-y,-z
x,y,-z
-x,y,z
x,-y,z
1/2+x,1/2+y,z
1/2-x,1/2-y,z
1/2+x,1/2-y,-z
1/2-x,1/2+y,-z
1/2-x,1/2-y,-z
1/2+x,1/2+y,-z
1/2-x,1/2+y,z
1/2+x,1/2-y,z
loop_
_atom_site_type_symbol
_atom_site_label
_atom_site_fract_x
_atom_site_fract_y
_atom_site_fract_z
Si Si1 0.355638 0.178879 0.348359
Si Si2 0.605649 0.175255 0.194736
Si Si3 0.200827 0.327578 0.059009
Si Si4 0.200237 0.675635 0.252007
Si Si5 0.556364 0.829570 0.000000
Si Si6 0.607189 0.322531 0.092450
Si Si7 0.552601 0.178112 0.704725
Si Si8 0.699910 0.177205 0.556273
O O1 0.318432 0.237529 0.306111
O O2 0.409089 0.239959 0.336369
O O3 0.339434 0.234867 0.403661
O O4 0.356781 0.000000 0.345151
O O5 0.660326 0.212072 0.209958
O O6 0.588624 0.273288 0.147255
O O7 0.570451 0.222540 0.239769
O O8 0.600222 0.000000 0.181476
O O9 0.201988 0.500000 0.076732
O O10 0.250000 0.250000 0.073674
O O11 0.160609 0.238615 0.088527
O O12 0.190057 0.314259 0.000000
O O13 0.209313 0.500000 0.255663
O O14 0.250000 0.750000 0.236454
O O15 0.573856 0.747016 0.049870
O O16 0.500000 0.827879 0.000000
O O17 0.576432 0.000000 0.000000
O O18 0.606449 0.500000 0.086410
O O19 0.500000 0.248034 0.694697
O O20 0.549999 0.000000 0.700646
O O21 0.683436 0.225005 0.500000
O O22 0.750000 0.250000 0.570454
O O23 0.706611 0.000000 0.560172
#
# Coordination Sequence:
#
# PCOD8271931 Si02
#       8
#    16  16  16  16   8  16  16  16
#     4   8  14  25  41  64  93 124 160 203 248 290
#     4   9  19  34  50  71  99 126 158 199 243 289
#     4  10  20  35  57  81 107 137 171 205 239 281
#     4   9  17  29  46  67  94 128 162 200 240 282
#     4  11  25  45  66  83 100 129 167 203 243 293
#     4  12  24  38  58  82 110 137 163 200 248 298
#     4   8  14  27  49  72  90 116 159 206 249 297
#     4   9  16  25  39  62  95 133 167 200 241 288
#
# _framework density 18.124980999999998
#
# number of rings (size 3 to 8) (size 9 to 14) (size 15 to 20)
#    0.000    2.600    0.667    3.800    0.000    2.667 
#    0.000    2.667    0.000    1.200    0.000    2.800 
#    0.000    0.000    0.000    3.333    0.000    3.467 
#
# Total GULP energy -743820.082810 kJ/mol
# GULP energy per Si atom -12397.001380 kJ/mol
# Density = 1.808373 g / cm^3
# Si number density = 18.124981 Si / 1000 Ang^3
#
#
#
# Elastic Constant Matrix: (Units=GPa)
#
#
# Indices 1 2 3 4 5 6 
#
# 1 118.3149 32.1076 62.2458 0.0000 0.0000 0.0000
# 2 32.1076 72.2861 38.9972 0.0000 0.0000 0.0000
# 3 62.2458 38.9972 123.9623 0.0000 0.0000 0.0000
# 4 0.0000 0.0000 0.0000 14.6509 0.0000 0.0000
# 5 0.0000 0.0000 0.0000 0.0000 18.6555 0.0000
# 6 0.0000 0.0000 0.0000 0.0000 0.0000 21.3730
#
#
#
# Elastic Compliance Matrix: (Units=1/GPa)
#
#
# Indices 1 2 3 4 5 6 
#
# 1 0.011842 -0.002471 -0.005169 0.000000 0.000000 0.000000
# 2 -0.002471 0.017177 -0.004163 0.000000 0.000000 0.000000
# 3 -0.005169 -0.004163 0.011972 0.000000 0.000000 0.000000
# 4 0.000000 0.000000 0.000000 0.068255 0.000000 0.000000
# 5 0.000000 0.000000 0.000000 0.000000 0.053603 0.000000
# 6 0.000000 0.000000 0.000000 0.000000 0.000000 0.046788
#
#
# Mechanical properties :
#
#
# Convention : Reuss Voigt Hill
#
# Bulk Modulus (GPa) = 57.51985 64.58493 61.05239
# Shear Modulus (GPa) = 20.91706 23.01674 21.96690
#
# Velocity S-wave (km/s) = 3.40081 3.56742 3.48511
# Velocity P-wave (km/s) = 6.87202 7.25804 7.06767
#
# Compressibility (1/GPa) = 0.01738530
#
# Stress axis : x y z
#
# Youngs Moduli (GPa) = 84.44502 58.21586 83.52834
#
# Poissons Ratio (x) = 0.14388 0.43174
# Poissons Ratio (y) = 0.20870 0.34772
# Poissons Ratio (z) = 0.43648 0.24234
#
# Static dielectric constant tensor:
#      x y z
#    x 3.620220 0.000000 0.000000 
#    y 0.000000 3.081030 0.000000 
#    z 0.000000 0.000000 3.466970 
# 
# 
# High freq. dielectric constant tensor:
#      x y z
#    x 1.699990 0.000000 0.000000 
#    y 0.000000 1.673590 0.000000 
#    z 0.000000 0.000000 1.698380 
# 
# From -- ./inp_files/76093.got.cif
#   From: 2010.03.12/outbox.cif.g09.slc.cpg/sg65_39_cif.got.tgz:76093.got - 2010.04.10 20:52:16.
