data_PCOD8271614
_publ_section_title
;
Structure prediction by ZEFSAII (Michael W. Deem and Ramdas Pophale) SiO2 
 PCOD8271614
Probable space group: C M M M
;
_chemical_formula_sum "Si O2"
_cell_formula_units_Z 104
_cell_length_a 27.501469
_cell_length_b 9.192203
_cell_length_c 24.170659
_cell_angle_alpha 90.000000
_cell_angle_beta 90.000000
_cell_angle_gamma 90.000000
_cell_volume 6110.320500
_symmetry_space_group_name_H-M "C M M M"
_symmetry_group_IT_number 65
_symmetry_cell_setting 'orthorhombic'
loop_
_space_group_symop_operation_xyz
x,y,z
-x,-y,z
x,-y,-z
-x,y,-z
-x,-y,-z
x,y,-z
-x,y,z
x,-y,z
1/2+x,1/2+y,z
1/2-x,1/2-y,z
1/2+x,1/2-y,-z
1/2-x,1/2+y,-z
1/2-x,1/2-y,-z
1/2+x,1/2+y,-z
1/2-x,1/2+y,z
1/2+x,1/2-y,z
loop_
_atom_site_type_symbol
_atom_site_label
_atom_site_fract_x
_atom_site_fract_y
_atom_site_fract_z
Si Si1 0.945617 0.834630 0.265557
Si Si2 0.445721 0.327250 0.938040
Si Si3 0.134133 0.667715 0.326364
Si Si4 0.095715 0.331097 0.561787
Si Si5 0.381297 0.667349 0.161109
Si Si6 0.199121 0.672916 0.772428
Si Si7 0.000000 0.838605 0.565074
O O1 0.915203 0.743872 0.308993
O O2 0.925065 0.820699 0.204125
O O3 0.000000 0.772319 0.265475
O O4 0.944305 0.000000 0.285829
O O5 0.500000 0.267376 0.923575
O O6 0.447458 0.500000 0.933685
O O7 0.404007 0.270736 0.896138
O O8 0.431184 0.277610 0.000000
O O9 0.127090 0.500000 0.313043
O O10 0.139194 0.695994 0.392981
O O11 0.179511 0.721493 0.288874
O O12 0.112668 0.280695 0.500000
O O13 0.081484 0.500000 0.560405
O O14 0.048415 0.245676 0.583305
O O15 0.363011 0.500000 0.155946
O O16 0.336828 0.769470 0.179812
O O17 0.205020 0.500000 0.777883
O O18 0.250000 0.750000 0.781399
O O19 0.000000 0.851539 0.500000
O O20 0.000000 0.000000 0.592073
#
# Coordination Sequence:
#
# PCOD8271614 Si02
#       7
#    16  16  16  16  16  16   8
#     4   9  17  27  40  62  92 124 154 184 221 265
#     4   8  13  22  41  72 106 137 167 195 221 255
#     4   9  19  32  46  66  88 113 147 186 227 273
#     4   9  17  30  46  62  84 117 153 184 217 264
#     4   9  16  28  47  70  96 125 157 192 229 269
#     4  10  20  35  53  71  90 113 147 192 242 290
#     4   9  17  27  39  59  87 119 153 185 214 247
#
# _framework density 17.020384
#
# number of rings (size 3 to 8) (size 9 to 14) (size 15 to 20)
#    0.000    3.000    0.000    1.615    1.077    4.308 
#    0.000    0.000    0.000    2.769    0.000    1.077 
#    0.000    0.000    0.000    0.000    0.000    0.462 
#
# Total GULP energy -644304.756744 kJ/mol
# GULP energy per Si atom -12390.476091 kJ/mol
# Density = 1.698164 g / cm^3
# Si number density = 17.020384 Si / 1000 Ang^3
#
#
#
# Elastic Constant Matrix: (Units=GPa)
#
#
# Indices 1 2 3 4 5 6 
#
# 1 103.3785 32.1954 54.0190 0.0000 0.0000 0.0000
# 2 32.1954 42.4770 26.8943 0.0000 0.0000 0.0000
# 3 54.0190 26.8943 116.1415 0.0000 0.0000 0.0000
# 4 0.0000 0.0000 0.0000 15.3704 0.0000 0.0000
# 5 0.0000 0.0000 0.0000 0.0000 18.2169 0.0000
# 6 0.0000 0.0000 0.0000 0.0000 0.0000 17.9209
#
#
#
# Elastic Compliance Matrix: (Units=1/GPa)
#
#
# Indices 1 2 3 4 5 6 
#
# 1 0.014801 -0.008038 -0.005023 0.000000 0.000000 0.000000
# 2 -0.008038 0.031952 -0.003660 0.000000 0.000000 0.000000
# 3 -0.005023 -0.003660 0.011794 0.000000 0.000000 0.000000
# 4 0.000000 0.000000 0.000000 0.065060 0.000000 0.000000
# 5 0.000000 0.000000 0.000000 0.000000 0.054894 0.000000
# 6 0.000000 0.000000 0.000000 0.000000 0.000000 0.055801
#
#
# Mechanical properties :
#
#
# Convention : Reuss Voigt Hill
#
# Bulk Modulus (GPa) = 39.83343 54.24603 47.03973
# Shear Modulus (GPa) = 18.10850 20.22753 19.16802
#
# Velocity S-wave (km/s) = 3.26533 3.45110 3.35950
# Velocity P-wave (km/s) = 6.13765 6.91524 6.53801
#
# Compressibility (1/GPa) = 0.02510454
#
# Stress axis : x y z
#
# Youngs Moduli (GPa) = 67.56208 31.29660 84.78900
#
# Poissons Ratio (x) = 0.25157 0.42588
# Poissons Ratio (y) = 0.54309 0.31035
# Poissons Ratio (z) = 0.33935 0.11456
#
# Static dielectric constant tensor:
#      x y z
#    x 3.005460 0.000000 0.000000 
#    y 0.000000 3.105350 0.000000 
#    z 0.000000 0.000000 3.523830 
# 
# 
# High freq. dielectric constant tensor:
#      x y z
#    x 1.625470 0.000000 0.000000 
#    y 0.000000 1.639880 0.000000 
#    z 0.000000 0.000000 1.662320 
# 
# From -- ./inp_files/76034.got.cif
#   From: 2010.03.12/outbox.cif.g09.slc.cpg/sg65_39_cif.got.tgz:76034.got - 2010.04.10 20:52:16.
