data_PCOD8271948
_publ_section_title
;
Structure prediction by ZEFSAII (Michael W. Deem and Ramdas Pophale) SiO2 
 PCOD8271948
Probable space group: C M M M
;
_chemical_formula_sum "Si O2"
_cell_formula_units_Z 112
_cell_length_a 14.405848
_cell_length_b 17.419683
_cell_length_c 23.188992
_cell_angle_alpha 90.000000
_cell_angle_beta 90.000000
_cell_angle_gamma 90.000000
_cell_volume 5819.168682
_symmetry_space_group_name_H-M "C M M M"
_symmetry_group_IT_number 65
_symmetry_cell_setting 'orthorhombic'
loop_
_space_group_symop_operation_xyz
x,y,z
-x,-y,z
x,-y,-z
-x,y,-z
-x,-y,-z
x,y,-z
-x,y,z
x,-y,z
1/2+x,1/2+y,z
1/2-x,1/2-y,z
1/2+x,1/2-y,-z
1/2-x,1/2+y,-z
1/2-x,1/2-y,-z
1/2+x,1/2+y,-z
1/2-x,1/2+y,z
1/2+x,1/2-y,z
loop_
_atom_site_type_symbol
_atom_site_label
_atom_site_fract_x
_atom_site_fract_y
_atom_site_fract_z
Si Si1 0.758387 0.087847 0.935042
Si Si2 0.107147 0.412751 0.754625
Si Si3 0.769294 0.339080 0.339464
Si Si4 0.894978 0.588592 0.432968
Si Si5 0.394303 0.829389 0.127901
Si Si6 0.391886 0.344034 0.156378
Si Si7 0.394309 0.409921 0.278621
O O1 0.670541 0.143207 0.924058
O O2 0.841516 0.105410 0.891528
O O3 0.726845 0.000000 0.927414
O O4 0.793443 0.103596 0.000000
O O5 0.142590 0.500000 0.747148
O O6 0.163261 0.356599 0.713578
O O7 0.122793 0.388133 0.820131
O O8 0.000000 0.405482 0.737180
O O9 0.750000 0.250000 0.342715
O O10 0.818384 0.363810 0.398530
O O11 0.671521 0.383270 0.331015
O O12 0.873065 0.599828 0.500000
O O13 0.886224 0.500000 0.414846
O O14 0.000000 0.616870 0.419125
O O15 0.500000 0.831166 0.106088
O O16 0.365965 0.744744 0.148421
O O17 0.500000 0.360615 0.148897
O O18 0.359483 0.368634 0.220164
O O19 0.500000 0.386222 0.293697
O O20 0.385719 0.500000 0.268933
#
# Coordination Sequence:
#
# PCOD8271948 Si02
#       7
#    16  16  16  16  16  16  16
#     4  11  24  39  55  76 103 137 178 222 267 323
#     4  10  20  35  57  83 110 141 180 226 273 323
#     4  12  23  33  53  83 118 151 180 221 271 323
#     4   9  19  38  63  87 111 143 186 234 278 319
#     4  10  21  37  57  81 109 138 170 215 274 336
#     4  10  21  38  59  80 105 138 177 225 277 322
#     4  10  21  37  56  78 108 147 187 222 259 313
#
# _framework density 19.246735000000001
#
# number of rings (size 3 to 8) (size 9 to 14) (size 15 to 20)
#    0.000    1.714    0.000    5.143    0.000    7.143 
#    0.000    2.857    0.000    0.429    0.000    2.000 
#    0.000    0.000    0.000    0.000    0.000    0.000 
#
# Total GULP energy -694616.852755 kJ/mol
# GULP energy per Si atom -12403.872371 kJ/mol
# Density = 1.920293 g / cm^3
# Si number density = 19.246735 Si / 1000 Ang^3
#
#
#
# Elastic Constant Matrix: (Units=GPa)
#
#
# Indices 1 2 3 4 5 6 
#
# 1 93.9601 48.6151 55.8037 0.0000 0.0000 0.0000
# 2 48.6151 115.4916 46.7880 0.0000 0.0000 0.0000
# 3 55.8037 46.7880 85.7078 0.0000 0.0000 0.0000
# 4 0.0000 0.0000 0.0000 15.9019 0.0000 0.0000
# 5 0.0000 0.0000 0.0000 0.0000 34.5580 0.0000
# 6 0.0000 0.0000 0.0000 0.0000 0.0000 32.6328
#
#
#
# Elastic Compliance Matrix: (Units=1/GPa)
#
#
# Indices 1 2 3 4 5 6 
#
# 1 0.018531 -0.003740 -0.010024 0.000000 0.000000 0.000000
# 2 -0.003740 0.011872 -0.004046 0.000000 0.000000 0.000000
# 3 -0.010024 -0.004046 0.020403 0.000000 0.000000 0.000000
# 4 0.000000 0.000000 0.000000 0.062886 0.000000 0.000000
# 5 0.000000 0.000000 0.000000 0.000000 0.028937 0.000000
# 6 0.000000 0.000000 0.000000 0.000000 0.000000 0.030644
#
#
# Mechanical properties :
#
#
# Convention : Reuss Voigt Hill
#
# Bulk Modulus (GPa) = 65.84782 66.39701 66.12241
# Shear Modulus (GPa) = 23.36956 26.21539 24.79247
#
# Velocity S-wave (km/s) = 3.48833 3.69463 3.59296
# Velocity P-wave (km/s) = 7.10713 7.26451 7.18625
#
# Compressibility (1/GPa) = 0.01518653
#
# Stress axis : x y z
#
# Youngs Moduli (GPa) = 53.96368 84.23237 49.01274
#
# Poissons Ratio (x) = 0.31499 0.49130
# Poissons Ratio (y) = 0.20180 0.19831
# Poissons Ratio (z) = 0.54093 0.34081
#
# Static dielectric constant tensor:
#      x y z
#    x 3.715860 0.000000 0.000000 
#    y 0.000000 3.540110 0.000000 
#    z 0.000000 0.000000 3.375090 
# 
# 
# High freq. dielectric constant tensor:
#      x y z
#    x 1.759370 0.000000 0.000000 
#    y 0.000000 1.755610 0.000000 
#    z 0.000000 0.000000 1.732540 
# 
# From -- ./inp_files/70020.got.cif
#   From: 2010.03.12/outbox.cif.g09.slc.cpg/sg65_36_cif.got.tgz:70020.got - 2010.04.10 20:52:16.
