data_PCOD8271154
_publ_section_title
;
Structure prediction by ZEFSAII (Michael W. Deem and Ramdas Pophale) SiO2 
 PCOD8271154
Probable space group: C M M M
;
_chemical_formula_sum "Si O2"
_cell_formula_units_Z 88
_cell_length_a 8.716599
_cell_length_b 31.064577
_cell_length_c 17.173589
_cell_angle_alpha 90.000000
_cell_angle_beta 90.000000
_cell_angle_gamma 90.000000
_cell_volume 4650.220822
_symmetry_space_group_name_H-M "C M M M"
_symmetry_group_IT_number 65
_symmetry_cell_setting 'orthorhombic'
loop_
_space_group_symop_operation_xyz
x,y,z
-x,-y,z
x,-y,-z
-x,y,-z
-x,-y,-z
x,y,-z
-x,y,z
x,-y,z
1/2+x,1/2+y,z
1/2-x,1/2-y,z
1/2+x,1/2-y,-z
1/2-x,1/2+y,-z
1/2-x,1/2-y,-z
1/2+x,1/2+y,-z
1/2-x,1/2+y,z
1/2+x,1/2-y,z
loop_
_atom_site_type_symbol
_atom_site_label
_atom_site_fract_x
_atom_site_fract_y
_atom_site_fract_z
Si Si1 0.679617 0.048616 0.332670
Si Si2 0.320557 0.372481 0.755280
Si Si3 0.318926 0.923299 0.500000
Si Si4 0.819316 0.705578 0.664266
Si Si5 0.665794 0.500000 0.908559
Si Si6 0.682647 0.827016 0.500000
Si Si7 0.682375 0.408111 0.914189
O O1 0.500000 0.060148 0.325436
O O2 0.776717 0.082039 0.282597
O O3 0.734424 0.051732 0.422652
O O4 0.712510 0.000000 0.303203
O O5 0.500000 0.364223 0.742908
O O6 0.226884 0.333389 0.719686
O O7 0.275540 0.373847 0.847262
O O8 0.500000 0.919688 0.500000
O O9 0.248727 0.875174 0.500000
O O10 0.750000 0.750000 0.696263
O O11 0.756203 0.697173 0.576902
O O12 0.000000 0.709382 0.664732
O O13 0.500000 0.500000 0.865527
O O14 0.754107 0.455054 0.889068
O O15 0.638088 0.500000 0.000000
O O16 0.500000 0.828659 0.500000
O O17 0.500000 0.414337 0.918230
O O18 0.743128 0.393159 0.000000
#
# Coordination Sequence:
#
# PCOD8271154 Si02
#       7
#    16  16   8  16   8   8  16
#     4  10  20  34  53  75 104 147 192 228 262 305
#     4  11  22  34  53  82 112 140 175 222 273 319
#     4   9  15  31  54  74  98 140 192 226 255 303
#     4  11  22  39  60  82 108 137 174 218 268 321
#     4   7  10  20  40  66  95 130 171 210 248 293
#     4   9  17  32  57  80 103 138 176 217 261 313
#     4   8  15  28  47  72 104 141 179 217 258 308
#
# _framework density 18.923832000000001
#
# number of rings (size 3 to 8) (size 9 to 14) (size 15 to 20)
#    0.000    2.455    1.818    2.727    1.273    1.455 
#    0.000    2.727    0.000    3.818    0.000    1.273 
#    0.000    0.000    0.000    0.000    0.000    0.000 
#
# Total GULP energy -545240.226923 kJ/mol
# GULP energy per Si atom -12391.823339 kJ/mol
# Density = 1.888076 g / cm^3
# Si number density = 18.923832 Si / 1000 Ang^3
#
#
#
# Elastic Constant Matrix: (Units=GPa)
#
#
# Indices 1 2 3 4 5 6 
#
# 1 37.1017 22.8428 21.1153 0.0000 0.0000 0.0000
# 2 22.8428 117.0001 49.4132 0.0000 0.0000 0.0000
# 3 21.1153 49.4132 115.3943 0.0000 0.0000 0.0000
# 4 0.0000 0.0000 0.0000 9.0901 0.0000 0.0000
# 5 0.0000 0.0000 0.0000 0.0000 10.9119 0.0000
# 6 0.0000 0.0000 0.0000 0.0000 0.0000 26.9688
#
#
#
# Elastic Compliance Matrix: (Units=1/GPa)
#
#
# Indices 1 2 3 4 5 6 
#
# 1 0.031999 -0.004608 -0.003882 0.000000 0.000000 0.000000
# 2 -0.004608 0.011098 -0.003909 0.000000 0.000000 0.000000
# 3 -0.003882 -0.003909 0.011050 0.000000 0.000000 0.000000
# 4 0.000000 0.000000 0.000000 0.110010 0.000000 0.000000
# 5 0.000000 0.000000 0.000000 0.000000 0.091643 0.000000
# 6 0.000000 0.000000 0.000000 0.000000 0.000000 0.037080
#
#
# Mechanical properties :
#
#
# Convention : Reuss Voigt Hill
#
# Bulk Modulus (GPa) = 34.07267 50.69320 42.38293
# Shear Modulus (GPa) = 15.26898 21.13580 18.20239
#
# Velocity S-wave (km/s) = 2.84362 3.34561 3.10478
# Velocity P-wave (km/s) = 5.36897 6.46300 5.94122
#
# Compressibility (1/GPa) = 0.02934903
#
# Stress axis : x y z
#
# Youngs Moduli (GPa) = 31.25056 90.11028 90.49635
#
# Poissons Ratio (x) = 0.41522 0.35133
# Poissons Ratio (y) = 0.14400 0.35374
# Poissons Ratio (z) = 0.12132 0.35223
#
# Static dielectric constant tensor:
#      x y z
#    x 3.021490 0.000000 0.000000 
#    y 0.000000 3.508840 0.000000 
#    z 0.000000 0.000000 3.699410 
# 
# 
# High freq. dielectric constant tensor:
#      x y z
#    x 1.691530 0.000000 0.000000 
#    y 0.000000 1.727940 0.000000 
#    z 0.000000 0.000000 1.735550 
# 
# From -- ./inp_files/50511.got.cif
#   From: 2010.03.12/outbox.cif.g09.slc.cpg/sg65_26_cif.got.tgz:50511.got - 2010.04.10 20:52:16.
