data_PCOD8271637
_publ_section_title
;
Structure prediction by ZEFSAII (Michael W. Deem and Ramdas Pophale) SiO2 
 PCOD8271637
Probable space group: C M M M
;
_chemical_formula_sum "Si O2"
_cell_formula_units_Z 64
_cell_length_a 24.661673
_cell_length_b 9.098611
_cell_length_c 14.632578
_cell_angle_alpha 90.000000
_cell_angle_beta 90.000000
_cell_angle_gamma 90.000000
_cell_volume 3283.359830
_symmetry_space_group_name_H-M "C M M M"
_symmetry_group_IT_number 65
_symmetry_cell_setting 'orthorhombic'
loop_
_space_group_symop_operation_xyz
x,y,z
-x,-y,z
x,-y,-z
-x,y,-z
-x,-y,-z
x,y,-z
-x,y,z
x,-y,z
1/2+x,1/2+y,z
1/2-x,1/2-y,z
1/2+x,1/2-y,-z
1/2-x,1/2+y,-z
1/2-x,1/2-y,-z
1/2+x,1/2+y,-z
1/2-x,1/2+y,z
1/2+x,1/2-y,z
loop_
_atom_site_type_symbol
_atom_site_label
_atom_site_fract_x
_atom_site_fract_y
_atom_site_fract_z
Si Si1 0.693047 0.329775 0.797785
Si Si2 0.096616 0.327912 0.729731
Si Si3 0.563240 0.337901 0.899634
Si Si4 0.806186 0.833040 0.000000
Si Si5 0.000000 0.674847 0.602772
O O1 0.702353 0.500000 0.776580
O O2 0.750000 0.250000 0.791645
O O3 0.653322 0.260187 0.721367
O O4 0.665228 0.301806 0.899927
O O5 0.107586 0.500000 0.719055
O O6 0.072943 0.293906 0.829452
O O7 0.054264 0.269277 0.653723
O O8 0.500000 0.345783 0.917760
O O9 0.583095 0.500000 0.862621
O O10 0.591516 0.309719 0.000000
O O11 0.750000 0.750000 0.000000
O O12 0.787679 0.000000 0.000000
O O13 0.000000 0.500000 0.603976
O O14 0.000000 0.737668 0.500000
#
# Coordination Sequence:
#
# PCOD8271637 Si02
#       5
#    16  16  16   8   8
#     4  10  20  35  53  77 111 151 193 230 271 321
#     4  11  21  34  55  83 110 142 186 232 279 328
#     4   9  18  32  49  71 106 150 187 220 266 323
#     4   8  16  30  48  69 100 145 191 225 257 303
#     4   9  20  40  62  83 110 142 179 227 286 347
#
# _framework density 19.492228000000001
#
# number of rings (size 3 to 8) (size 9 to 14) (size 15 to 20)
#    0.000    2.375    1.250    2.250    1.750    1.500 
#    0.000    1.250    0.000    6.750    0.000    0.000 
#    0.000    0.000    0.000    0.000    0.000    0.000 
#
# Total GULP energy -396528.624465 kJ/mol
# GULP energy per Si atom -12391.519515 kJ/mol
# Density = 1.944786 g / cm^3
# Si number density = 19.492228 Si / 1000 Ang^3
#
#
#
# Elastic Constant Matrix: (Units=GPa)
#
#
# Indices 1 2 3 4 5 6 
#
# 1 107.0660 48.8080 61.3479 0.0000 0.0000 0.0000
# 2 48.8080 86.5904 38.1733 0.0000 0.0000 0.0000
# 3 61.3479 38.1733 102.8765 0.0000 0.0000 0.0000
# 4 0.0000 0.0000 0.0000 15.7072 0.0000 0.0000
# 5 0.0000 0.0000 0.0000 0.0000 23.3314 0.0000
# 6 0.0000 0.0000 0.0000 0.0000 0.0000 34.5679
#
#
#
# Elastic Compliance Matrix: (Units=1/GPa)
#
#
# Indices 1 2 3 4 5 6 
#
# 1 0.016362 -0.005884 -0.007574 0.000000 0.000000 0.000000
# 2 -0.005884 0.015923 -0.002400 0.000000 0.000000 0.000000
# 3 -0.007574 -0.002400 0.015127 0.000000 0.000000 0.000000
# 4 0.000000 0.000000 0.000000 0.063665 0.000000 0.000000
# 5 0.000000 0.000000 0.000000 0.000000 0.042861 0.000000
# 6 0.000000 0.000000 0.000000 0.000000 0.000000 0.028929
#
#
# Mechanical properties :
#
#
# Convention : Reuss Voigt Hill
#
# Bulk Modulus (GPa) = 63.70395 65.91016 64.80705
# Shear Modulus (GPa) = 22.74649 24.60155 23.67402
#
# Velocity S-wave (km/s) = 3.41977 3.55649 3.48880
# Velocity P-wave (km/s) = 6.95311 7.12403 7.03909
#
# Compressibility (1/GPa) = 0.01569761
#
# Stress axis : x y z
#
# Youngs Moduli (GPa) = 61.11718 62.80215 66.10554
#
# Poissons Ratio (x) = 0.36951 0.50067
# Poissons Ratio (y) = 0.35960 0.15864
# Poissons Ratio (z) = 0.46289 0.15071
#
# Static dielectric constant tensor:
#      x y z
#    x 3.916340 0.000000 0.000000 
#    y 0.000000 3.861660 0.000000 
#    z 0.000000 0.000000 3.459250 
# 
# 
# High freq. dielectric constant tensor:
#      x y z
#    x 1.794020 0.000000 0.000000 
#    y 0.000000 1.745040 0.000000 
#    z 0.000000 0.000000 1.713600 
# 
# From -- ./inp_files/46403.got.cif
#   From: 2010.03.12/outbox.cif.g09.slc.cpg/sg65_24_cif.got.tgz:46403.got - 2010.04.10 20:52:16.
