data_PCOD8271871
_publ_section_title
;
Structure prediction by ZEFSAII (Michael W. Deem and Ramdas Pophale) SiO2 
 PCOD8271871
Probable space group: C M M M
;
_chemical_formula_sum "Si O2"
_cell_formula_units_Z 88
_cell_length_a 8.803647
_cell_length_b 18.320917
_cell_length_c 29.019809
_cell_angle_alpha 90.000000
_cell_angle_beta 90.000000
_cell_angle_gamma 90.000000
_cell_volume 4680.630705
_symmetry_space_group_name_H-M "C M M M"
_symmetry_group_IT_number 65
_symmetry_cell_setting 'orthorhombic'
loop_
_space_group_symop_operation_xyz
x,y,z
-x,-y,z
x,-y,-z
-x,y,-z
-x,-y,-z
x,y,-z
-x,y,z
x,-y,z
1/2+x,1/2+y,z
1/2-x,1/2-y,z
1/2+x,1/2-y,-z
1/2-x,1/2+y,-z
1/2-x,1/2-y,-z
1/2+x,1/2+y,-z
1/2-x,1/2+y,z
1/2+x,1/2-y,z
loop_
_atom_site_type_symbol
_atom_site_label
_atom_site_fract_x
_atom_site_fract_y
_atom_site_fract_z
Si Si1 0.820283 0.829453 0.823112
Si Si2 0.675405 0.086208 0.906379
Si Si3 0.319190 0.581752 0.734876
Si Si4 0.820252 0.829478 0.648119
Si Si5 0.321708 0.671284 0.451358
Si Si6 0.328731 0.586671 0.000000
O O1 0.750000 0.750000 0.824643
O O2 0.771473 0.875308 0.867129
O O3 0.759265 0.870858 0.777730
O O4 0.000000 0.822441 0.822548
O O5 0.500000 0.108763 0.902616
O O6 0.739268 0.114728 0.955148
O O7 0.697825 0.000000 0.901204
O O8 0.500000 0.579309 0.734796
O O9 0.252812 0.500000 0.738895
O O10 0.256805 0.617158 0.687574
O O11 0.750000 0.750000 0.654885
O O12 0.774619 0.864986 0.597776
O O13 0.000000 0.821053 0.652830
O O14 0.274849 0.629973 0.500000
O O15 0.500000 0.682051 0.450914
O O16 0.250000 0.750000 0.452427
O O17 0.332417 0.500000 0.000000
O O18 0.500000 0.618178 0.000000
#
# Coordination Sequence:
#
# PCOD8271871 Si02
#       6
#    16  16  16  16  16   8
#     4  11  22  36  54  75 101 132 168 210 256 305
#     4  10  20  35  56  82 111 141 174 211 250 293
#     4   9  18  32  50  71  94 124 162 201 244 298
#     4   9  16  27  45  67  92 122 156 197 242 288
#     4   8  13  21  35  58  87 117 150 189 233 281
#     4   9  17  31  54  83 112 143 178 211 245 289
#
# _framework density 18.800885000000001
#
# number of rings (size 3 to 8) (size 9 to 14) (size 15 to 20)
#    0.000    2.636    0.000    2.455    0.000    2.909 
#    0.000    1.364    0.000    3.273    0.000    3.818 
#    0.000    0.000    0.000   29.455    0.000   13.818 
#
# Total GULP energy -545159.719419 kJ/mol
# GULP energy per Si atom -12389.993623 kJ/mol
# Density = 1.875809 g / cm^3
# Si number density = 18.800885 Si / 1000 Ang^3
#
#
#
# Elastic Constant Matrix: (Units=GPa)
#
#
# Indices 1 2 3 4 5 6 
#
# 1 44.8189 21.3440 31.3422 0.0000 0.0000 0.0000
# 2 21.3440 52.2037 46.8394 0.0000 0.0000 0.0000
# 3 31.3422 46.8394 193.3309 0.0000 0.0000 0.0000
# 4 0.0000 0.0000 0.0000 11.8464 0.0000 0.0000
# 5 0.0000 0.0000 0.0000 0.0000 17.9196 0.0000
# 6 0.0000 0.0000 0.0000 0.0000 0.0000 17.6844
#
#
#
# Elastic Compliance Matrix: (Units=1/GPa)
#
#
# Indices 1 2 3 4 5 6 
#
# 1 0.028482 -0.009586 -0.002295 0.000000 0.000000 0.000000
# 2 -0.009586 0.027703 -0.005158 0.000000 0.000000 0.000000
# 3 -0.002295 -0.005158 0.006794 0.000000 0.000000 0.000000
# 4 0.000000 0.000000 0.000000 0.084414 0.000000 0.000000
# 5 0.000000 0.000000 0.000000 0.000000 0.055805 0.000000
# 6 0.000000 0.000000 0.000000 0.000000 0.000000 0.056547
#
#
# Mechanical properties :
#
#
# Convention : Reuss Voigt Hill
#
# Bulk Modulus (GPa) = 34.60014 54.37829 44.48922
# Shear Modulus (GPa) = 16.47686 22.21193 19.34440
#
# Velocity S-wave (km/s) = 2.96360 3.44092 3.21114
# Velocity P-wave (km/s) = 5.49126 6.69124 6.12073
#
# Compressibility (1/GPa) = 0.02890162
#
# Stress axis : x y z
#
# Youngs Moduli (GPa) = 35.10984 36.09751 147.18651
#
# Poissons Ratio (x) = 0.34603 0.33779
# Poissons Ratio (y) = 0.33656 0.75913
# Poissons Ratio (z) = 0.08058 0.18618
#
# Static dielectric constant tensor:
#      x y z
#    x 3.292840 0.000000 0.000000 
#    y 0.000000 3.171690 0.000000 
#    z 0.000000 0.000000 4.222120 
# 
# 
# High freq. dielectric constant tensor:
#      x y z
#    x 1.715040 0.000000 0.000000 
#    y 0.000000 1.689170 0.000000 
#    z 0.000000 0.000000 1.764280 
# 
# From -- ./inp_files/76508.got.cif
#   From: 2010.03.12/outbox.cif.g09.slc.cpg/sg65_39_cif.got.tgz:76508.got - 2010.04.10 20:52:16.
