data_PCOD8271560
_publ_section_title
;
Structure prediction by ZEFSAII (Michael W. Deem and Ramdas Pophale) SiO2 
 PCOD8271560
Probable space group: C M M M
;
_chemical_formula_sum "Si O2"
_cell_formula_units_Z 104
_cell_length_a 20.393818
_cell_length_b 29.288622
_cell_length_c 9.393155
_cell_angle_alpha 90.000000
_cell_angle_beta 90.000000
_cell_angle_gamma 90.000000
_cell_volume 5610.595604
_symmetry_space_group_name_H-M "C M M M"
_symmetry_group_IT_number 65
_symmetry_cell_setting 'orthorhombic'
loop_
_space_group_symop_operation_xyz
x,y,z
-x,-y,z
x,-y,-z
-x,y,-z
-x,-y,-z
x,y,-z
-x,y,z
x,-y,z
1/2+x,1/2+y,z
1/2-x,1/2-y,z
1/2+x,1/2-y,-z
1/2-x,1/2+y,-z
1/2-x,1/2-y,-z
1/2+x,1/2+y,-z
1/2-x,1/2+y,z
1/2+x,1/2-y,z
loop_
_atom_site_type_symbol
_atom_site_label
_atom_site_fract_x
_atom_site_fract_y
_atom_site_fract_z
Si Si1 0.924197 0.219310 0.163749
Si Si2 0.682196 0.774802 0.668909
Si Si3 0.788950 0.637940 0.164286
Si Si4 0.500000 0.054038 0.659952
Si Si5 0.874333 0.447803 0.164762
Si Si6 0.426869 0.551777 0.663268
Si Si7 0.359683 0.625582 0.161489
O O1 0.879625 0.247510 0.271046
O O2 0.911066 0.165890 0.190866
O O3 0.000000 0.229713 0.197206
O O4 0.906739 0.231696 0.000000
O O5 0.676036 0.778244 0.500000
O O6 0.750000 0.750000 0.714085
O O7 0.676260 0.825187 0.735388
O O8 0.814528 0.586659 0.197110
O O9 0.712729 0.641772 0.201810
O O10 0.802576 0.650762 0.000000
O O11 0.500000 0.074531 0.500000
O O12 0.435476 0.070423 0.743253
O O13 0.500000 0.000000 0.654932
O O14 0.853978 0.500000 0.205655
O O15 0.895251 0.445799 0.000000
O O16 0.426765 0.566518 0.500000
O O17 0.500000 0.558069 0.726288
O O18 0.403447 0.500000 0.681294
O O19 0.375320 0.582288 0.744235
O O20 0.362444 0.608815 0.000000
#
# Coordination Sequence:
#
# PCOD8271560 Si02
#       7
#    16  16  16   8  16  16  16
#     4  10  21  38  61  87 114 146 187 235 284 337
#     4  11  23  39  60  85 114 150 189 233 281 335
#     4  10  21  37  59  84 111 147 184 224 276 332
#     4   9  17  31  53  79 107 143 183 223 273 325
#     4   9  18  34  56  82 111 143 183 227 272 329
#     4   9  19  35  52  73 107 150 190 227 272 327
#     4  10  20  34  56  84 111 141 183 233 279 325
#
# _framework density 18.536356999999999
#
# number of rings (size 3 to 8) (size 9 to 14) (size 15 to 20)
#    0.000    2.231    1.538    1.615    0.000    5.538 
#    1.385    2.308    0.000    1.846    0.000    0.000 
#    0.000    0.000    0.000    0.000    0.000    0.000 
#
# Total GULP energy -644840.161548 kJ/mol
# GULP energy per Si atom -12400.772337 kJ/mol
# Density = 1.849417 g / cm^3
# Si number density = 18.536357 Si / 1000 Ang^3
#
#
#
# Elastic Constant Matrix: (Units=GPa)
#
#
# Indices 1 2 3 4 5 6 
#
# 1 89.2390 45.8565 49.4824 0.0000 0.0000 0.0000
# 2 45.8565 83.9550 50.3693 0.0000 0.0000 0.0000
# 3 49.4824 50.3693 80.5279 0.0000 0.0000 0.0000
# 4 0.0000 0.0000 0.0000 48.3024 0.0000 0.0000
# 5 0.0000 0.0000 0.0000 0.0000 28.2582 0.0000
# 6 0.0000 0.0000 0.0000 0.0000 0.0000 31.9408
#
#
#
# Elastic Compliance Matrix: (Units=1/GPa)
#
#
# Indices 1 2 3 4 5 6 
#
# 1 0.018316 -0.005205 -0.007999 0.000000 0.000000 0.000000
# 2 -0.005205 0.020545 -0.009652 0.000000 0.000000 0.000000
# 3 -0.007999 -0.009652 0.023371 0.000000 0.000000 0.000000
# 4 0.000000 0.000000 0.000000 0.020703 0.000000 0.000000
# 5 0.000000 0.000000 0.000000 0.000000 0.035388 0.000000
# 6 0.000000 0.000000 0.000000 0.000000 0.000000 0.031308
#
#
# Mechanical properties :
#
#
# Convention : Reuss Voigt Hill
#
# Bulk Modulus (GPa) = 60.53676 60.57091 60.55384
# Shear Modulus (GPa) = 24.89425 28.90121 26.89773
#
# Velocity S-wave (km/s) = 3.66867 3.95291 3.81344
# Velocity P-wave (km/s) = 7.11862 7.31995 7.21999
#
# Compressibility (1/GPa) = 0.01651889
#
# Stress axis : x y z
#
# Youngs Moduli (GPa) = 54.59716 48.67304 42.78892
#
# Poissons Ratio (x) = 0.25336 0.34226
# Poissons Ratio (y) = 0.28419 0.41301
# Poissons Ratio (z) = 0.43671 0.46981
#
# Static dielectric constant tensor:
#      x y z
#    x 3.133160 0.000000 0.000000 
#    y 0.000000 3.282730 0.000000 
#    z 0.000000 0.000000 3.402870 
# 
# 
# High freq. dielectric constant tensor:
#      x y z
#    x 1.716180 0.000000 0.000000 
#    y 0.000000 1.714410 0.000000 
#    z 0.000000 0.000000 1.716110 
# 
# From -- ./inp_files/12392.got.cif
#   From: 2010.03.12/outbox.cif.g09.slc.cpg/sg65_7_cif.got.tgz:12392.got - 2010.04.10 20:52:16.
