data_PCOD8271096
_publ_section_title
;
Structure prediction by ZEFSAII (Michael W. Deem and Ramdas Pophale) SiO2 
 PCOD8271096
Probable space group: C M M M
;
_chemical_formula_sum "Si O2"
_cell_formula_units_Z 72
_cell_length_a 8.779014
_cell_length_b 17.793211
_cell_length_c 23.711143
_cell_angle_alpha 90.000000
_cell_angle_beta 90.000000
_cell_angle_gamma 90.000000
_cell_volume 3703.842922
_symmetry_space_group_name_H-M "C M M M"
_symmetry_group_IT_number 65
_symmetry_cell_setting 'orthorhombic'
loop_
_space_group_symop_operation_xyz
x,y,z
-x,-y,z
x,-y,-z
-x,y,-z
-x,-y,-z
x,y,-z
-x,y,z
x,-y,z
1/2+x,1/2+y,z
1/2-x,1/2-y,z
1/2+x,1/2-y,-z
1/2-x,1/2+y,-z
1/2-x,1/2-y,-z
1/2+x,1/2+y,-z
1/2-x,1/2+y,z
1/2+x,1/2-y,z
loop_
_atom_site_type_symbol
_atom_site_label
_atom_site_fract_x
_atom_site_fract_y
_atom_site_fract_z
Si Si1 0.681085 0.084279 0.440305
Si Si2 0.679542 0.831264 0.896296
Si Si3 0.172028 0.088759 0.000000
Si Si4 0.828941 0.589580 0.320046
Si Si5 0.323884 0.412123 0.793180
O O1 0.731691 0.124879 0.500000
O O2 0.500000 0.081379 0.437273
O O3 0.734240 0.122198 0.380735
O O4 0.746506 0.000000 0.442942
O O5 0.500000 0.825002 0.901214
O O6 0.750000 0.750000 0.904920
O O7 0.722795 0.864919 0.835974
O O8 0.741212 0.885380 0.944503
O O9 0.000000 0.120942 0.000000
O O10 0.169442 0.000000 0.000000
O O11 0.830830 0.500000 0.324975
O O12 0.718183 0.615578 0.269799
O O13 0.000000 0.618848 0.307228
O O14 0.500000 0.395079 0.804768
O O15 0.286398 0.500000 0.800758
#
# Coordination Sequence:
#
# PCOD8271096 Si02
#       5
#    16  16   8  16  16
#     4   7   9  14  27  50  81 117 158 205 255 305
#     4  12  25  41  61  84 112 143 178 218 261 309
#     4  11  24  43  66  91 119 147 176 211 252 299
#     4   8  13  22  38  61  89 124 168 214 259 309
#     4  10  20  34  52  75 105 140 178 220 266 314
#
# _framework density 19.439271000000002
#
# number of rings (size 3 to 8) (size 9 to 14) (size 15 to 20)
#    0.000    2.556    0.000    6.000    0.000    4.889 
#    0.000    0.000    0.000    0.667    0.000    4.667 
#    0.000    0.889    0.000    2.444    0.000    6.222 
#
# Total GULP energy -445991.498671 kJ/mol
# GULP energy per Si atom -12388.652741 kJ/mol
# Density = 1.939503 g / cm^3
# Si number density = 19.439271 Si / 1000 Ang^3
#
#
#
# Elastic Constant Matrix: (Units=GPa)
#
#
# Indices 1 2 3 4 5 6 
#
# 1 105.8993 28.1224 43.6435 0.0000 0.0000 0.0000
# 2 28.1224 39.2670 27.0932 0.0000 0.0000 0.0000
# 3 43.6435 27.0932 161.9618 0.0000 0.0000 0.0000
# 4 0.0000 0.0000 0.0000 -1.7938 0.0000 0.0000
# 5 0.0000 0.0000 0.0000 0.0000 27.0770 0.0000
# 6 0.0000 0.0000 0.0000 0.0000 0.0000 19.8039
#
#
#
# Elastic Compliance Matrix: (Units=1/GPa)
#
#
# Indices 1 2 3 4 5 6 
#
# 1 0.012246 -0.007341 -0.002072 0.000000 0.000000 0.000000
# 2 -0.007341 0.033190 -0.003574 0.000000 0.000000 0.000000
# 3 -0.002072 -0.003574 0.007330 0.000000 0.000000 0.000000
# 4 0.000000 0.000000 0.000000 -0.557469 0.000000 0.000000
# 5 0.000000 0.000000 0.000000 0.000000 0.036932 0.000000
# 6 0.000000 0.000000 0.000000 0.000000 0.000000 0.050495
#
#
# Mechanical properties :
#
#
# Convention : Reuss Voigt Hill
#
# Bulk Modulus (GPa) = 37.32309 56.09402 46.70855
# Shear Modulus (GPa) = -13.07632 22.90201 4.91285
#
# Velocity S-wave (km/s) = -2.59641 3.43611 1.59147
# Velocity P-wave (km/s) = 3.20204 6.68290 5.23995
#
# Compressibility (1/GPa) = 0.02679307
#
# Stress axis : x y z
#
# Youngs Moduli (GPa) = 81.65741 30.12953 136.41678
#
# Poissons Ratio (x) = 0.22118 0.28265
# Poissons Ratio (y) = 0.59944 0.48754
# Poissons Ratio (z) = 0.16919 0.10768
#
# Static dielectric constant tensor:
#      x y z
#    x 3.403530 0.000000 0.000000 
#    y 0.000000 3.050120 0.000000 
#    z 0.000000 0.000000 4.300000 
# 
# 
# High freq. dielectric constant tensor:
#      x y z
#    x 1.737390 0.000000 0.000000 
#    y 0.000000 1.695080 0.000000 
#    z 0.000000 0.000000 1.793960 
# 
# From -- ./inp_files/67002.got.cif
#   From: 2010.03.12/outbox.cif.g09.slc.cpg/sg65_34_cif.got.tgz:67002.got - 2010.04.10 20:52:16.
