data_PCOD8271939
_publ_section_title
;
Structure prediction by ZEFSAII (Michael W. Deem and Ramdas Pophale) SiO2 
 PCOD8271939
Probable space group: C M M M
;
_chemical_formula_sum "Si O2"
_cell_formula_units_Z 72
_cell_length_a 16.873114
_cell_length_b 13.649318
_cell_length_c 16.123683
_cell_angle_alpha 90.000000
_cell_angle_beta 90.000000
_cell_angle_gamma 90.000000
_cell_volume 3713.388977
_symmetry_space_group_name_H-M "C M M M"
_symmetry_group_IT_number 65
_symmetry_cell_setting 'orthorhombic'
loop_
_space_group_symop_operation_xyz
x,y,z
-x,-y,z
x,-y,-z
-x,y,-z
-x,-y,-z
x,y,-z
-x,y,z
x,-y,z
1/2+x,1/2+y,z
1/2-x,1/2-y,z
1/2+x,1/2-y,-z
1/2-x,1/2+y,-z
1/2-x,1/2-y,-z
1/2+x,1/2+y,-z
1/2-x,1/2+y,z
1/2+x,1/2-y,z
loop_
_atom_site_type_symbol
_atom_site_label
_atom_site_fract_x
_atom_site_fract_y
_atom_site_fract_z
Si Si1 0.658897 0.723828 0.907008
Si Si2 0.906035 0.613176 0.500000
Si Si3 0.091750 0.889883 0.240990
Si Si4 0.340415 0.220717 0.660089
Si Si5 0.908897 0.389107 0.190897
O O1 0.750000 0.750000 0.896989
O O2 0.639502 0.638329 0.841973
O O3 0.606781 0.820736 0.888429
O O4 0.639213 0.687884 0.000000
O O5 0.876801 0.500000 0.500000
O O6 0.873560 0.670099 0.578838
O O7 0.000000 0.616877 0.500000
O O8 0.111886 0.819950 0.318466
O O9 0.000000 0.879632 0.219095
O O10 0.114673 0.000000 0.266711
O O11 0.250000 0.250000 0.647119
O O12 0.350810 0.144086 0.735149
O O13 0.888817 0.500000 0.165979
O O14 0.000000 0.378446 0.220318
#
# Coordination Sequence:
#
# PCOD8271939 Si02
#       5
#    16   8  16  16  16
#     4  10  21  35  52  77 109 144 184 232 281 327
#     4  11  23  40  63  87 113 145 180 221 268 320
#     4  10  21  37  57  79 106 145 187 224 267 320
#     4  11  22  37  58  85 114 143 178 222 270 320
#     4  10  20  35  57  82 109 144 184 227 278 334
#
# _framework density 19.389296999999999
#
# number of rings (size 3 to 8) (size 9 to 14) (size 15 to 20)
#    0.000    1.667    0.000    7.667    0.000    8.889 
#    0.000    5.000    0.000    2.000    0.000    0.000 
#    0.000    0.000    0.000    0.000    0.000    0.000 
#
# Total GULP energy -446425.800637 kJ/mol
# GULP energy per Si atom -12400.716684 kJ/mol
# Density = 1.934517 g / cm^3
# Si number density = 19.389297 Si / 1000 Ang^3
#
#
#
# Elastic Constant Matrix: (Units=GPa)
#
#
# Indices 1 2 3 4 5 6 
#
# 1 86.7304 39.0144 40.9670 0.0000 0.0000 0.0000
# 2 39.0144 149.1195 53.9163 0.0000 0.0000 0.0000
# 3 40.9670 53.9163 122.2697 0.0000 0.0000 0.0000
# 4 0.0000 0.0000 0.0000 31.1566 0.0000 0.0000
# 5 0.0000 0.0000 0.0000 0.0000 51.7237 0.0000
# 6 0.0000 0.0000 0.0000 0.0000 0.0000 19.8887
#
#
#
# Elastic Compliance Matrix: (Units=1/GPa)
#
#
# Indices 1 2 3 4 5 6 
#
# 1 0.014388 -0.002405 -0.003760 0.000000 0.000000 0.000000
# 2 -0.002405 0.008380 -0.002890 0.000000 0.000000 0.000000
# 3 -0.003760 -0.002890 0.010713 0.000000 0.000000 0.000000
# 4 0.000000 0.000000 0.000000 0.032096 0.000000 0.000000
# 5 0.000000 0.000000 0.000000 0.000000 0.019333 0.000000
# 6 0.000000 0.000000 0.000000 0.000000 0.000000 0.050280
#
#
# Mechanical properties :
#
#
# Convention : Reuss Voigt Hill
#
# Bulk Modulus (GPa) = 65.05589 69.54611 67.30100
# Shear Modulus (GPa) = 31.56113 35.50193 33.53153
#
# Velocity S-wave (km/s) = 4.03893 4.28367 4.16310
# Velocity P-wave (km/s) = 7.44150 7.77255 7.60883
#
# Compressibility (1/GPa) = 0.01537140
#
# Stress axis : x y z
#
# Youngs Moduli (GPa) = 69.50279 119.33275 93.34691
#
# Poissons Ratio (x) = 0.28696 0.35102
# Poissons Ratio (y) = 0.16714 0.26973
# Poissons Ratio (z) = 0.26135 0.34481
#
# Static dielectric constant tensor:
#      x y z
#    x 3.681720 0.000000 0.000000 
#    y 0.000000 3.770210 0.000000 
#    z 0.000000 0.000000 3.642610 
# 
# 
# High freq. dielectric constant tensor:
#      x y z
#    x 1.767020 0.000000 0.000000 
#    y 0.000000 1.761970 0.000000 
#    z 0.000000 0.000000 1.743670 
# 
# From -- ./inp_files/52750.got.cif
#   From: 2010.03.12/outbox.cif.g09.slc.cpg/sg65_27_cif.got.tgz:52750.got - 2010.04.10 20:52:16.
