data_PCOD8271480
_publ_section_title
;
Structure prediction by ZEFSAII (Michael W. Deem and Ramdas Pophale) SiO2 
 PCOD8271480
Probable space group: C M M M
;
_chemical_formula_sum "Si O2"
_cell_formula_units_Z 96
_cell_length_a 23.208701
_cell_length_b 15.479359
_cell_length_c 13.798102
_cell_angle_alpha 90.000000
_cell_angle_beta 90.000000
_cell_angle_gamma 90.000000
_cell_volume 4957.048375
_symmetry_space_group_name_H-M "C M M M"
_symmetry_group_IT_number 65
_symmetry_cell_setting 'orthorhombic'
loop_
_space_group_symop_operation_xyz
x,y,z
-x,-y,z
x,-y,-z
-x,y,-z
-x,-y,-z
x,y,-z
-x,y,z
x,-y,z
1/2+x,1/2+y,z
1/2-x,1/2-y,z
1/2+x,1/2-y,-z
1/2-x,1/2+y,-z
1/2-x,1/2-y,-z
1/2+x,1/2+y,-z
1/2-x,1/2+y,z
1/2+x,1/2-y,z
loop_
_atom_site_type_symbol
_atom_site_label
_atom_site_fract_x
_atom_site_fract_y
_atom_site_fract_z
Si Si1 0.564556 0.196310 0.892490
Si Si2 0.435225 0.265308 0.694662
Si Si3 0.320321 0.899965 0.890892
Si Si4 0.349074 0.595871 0.610792
Si Si5 0.763252 0.652763 0.702396
Si Si6 0.119138 0.597853 0.386823
O O1 0.500000 0.155905 0.881837
O O2 0.572622 0.271237 0.811572
O O3 0.612453 0.122794 0.875903
O O4 0.572019 0.237610 0.000000
O O5 0.500000 0.287081 0.662763
O O6 0.394979 0.333451 0.642682
O O7 0.421433 0.166321 0.666939
O O8 0.279344 0.849101 0.816422
O O9 0.313674 0.000000 0.867537
O O10 0.300087 0.877412 0.000000
O O11 0.331055 0.615418 0.500000
O O12 0.376309 0.500000 0.620049
O O13 0.293458 0.597683 0.679773
O O14 0.750000 0.750000 0.670560
O O15 0.814604 0.614710 0.638822
O O16 0.110325 0.610786 0.500000
O O17 0.102491 0.500000 0.355632
#
# Coordination Sequence:
#
# PCOD8271480 Si02
#       6
#    16  16  16  16  16  16
#     4   9  18  34  57  85 117 156 199 237 284 350
#     4  11  23  40  62  88 119 156 196 246 301 352
#     4  10  20  34  54  83 119 155 195 245 297 351
#     4  11  24  41  62  87 116 156 206 254 296 346
#     4  12  22  37  60  85 116 156 197 247 298 353
#     4  11  23  38  58  86 120 155 191 237 293 356
#
# _framework density 19.366363
#
# number of rings (size 3 to 8) (size 9 to 14) (size 15 to 20)
#    0.000    1.333    3.333    2.500    0.000    4.667 
#    0.000    5.833    0.000    1.500    0.000    2.333 
#    0.000    0.000    0.000    0.000    0.000    0.000 
#
# Total GULP energy -595103.794279 kJ/mol
# GULP energy per Si atom -12397.995714 kJ/mol
# Density = 1.932228 g / cm^3
# Si number density = 19.366363 Si / 1000 Ang^3
#
#
#
# Elastic Constant Matrix: (Units=GPa)
#
#
# Indices 1 2 3 4 5 6 
#
# 1 105.5086 30.5178 45.3163 0.0000 0.0000 0.0000
# 2 30.5178 90.3242 39.8615 0.0000 0.0000 0.0000
# 3 45.3163 39.8615 113.7436 0.0000 0.0000 0.0000
# 4 0.0000 0.0000 0.0000 23.5011 0.0000 0.0000
# 5 0.0000 0.0000 0.0000 0.0000 28.8610 0.0000
# 6 0.0000 0.0000 0.0000 0.0000 0.0000 12.0749
#
#
#
# Elastic Compliance Matrix: (Units=1/GPa)
#
#
# Indices 1 2 3 4 5 6 
#
# 1 0.011814 -0.002265 -0.003913 0.000000 0.000000 0.000000
# 2 -0.002265 0.013531 -0.003840 0.000000 0.000000 0.000000
# 3 -0.003913 -0.003840 0.011696 0.000000 0.000000 0.000000
# 4 0.000000 0.000000 0.000000 0.042551 0.000000 0.000000
# 5 0.000000 0.000000 0.000000 0.000000 0.034649 0.000000
# 6 0.000000 0.000000 0.000000 0.000000 0.000000 0.082817
#
#
# Mechanical properties :
#
#
# Convention : Reuss Voigt Hill
#
# Bulk Modulus (GPa) = 58.80198 60.10751 59.45474
# Shear Modulus (GPa) = 22.44562 25.81276 24.12919
#
# Velocity S-wave (km/s) = 3.40810 3.65480 3.53361
# Velocity P-wave (km/s) = 6.77612 6.99390 6.88587
#
# Compressibility (1/GPa) = 0.01700623
#
# Stress axis : x y z
#
# Youngs Moduli (GPa) = 84.64842 73.90511 85.49720
#
# Poissons Ratio (x) = 0.16736 0.33455
# Poissons Ratio (y) = 0.19169 0.32828
# Poissons Ratio (z) = 0.33123 0.28377
#
# Static dielectric constant tensor:
#      x y z
#    x 3.515450 0.000000 0.000000 
#    y 0.000000 3.383200 0.000000 
#    z 0.000000 0.000000 3.865910 
# 
# 
# High freq. dielectric constant tensor:
#      x y z
#    x 1.749990 0.000000 0.000000 
#    y 0.000000 1.733550 0.000000 
#    z 0.000000 0.000000 1.773830 
# 
# From -- ./inp_files/40313.got.cif
#   From: 2010.03.12/outbox.cif.g09.slc.cpg/sg65_21_cif.got.tgz:40313.got - 2010.04.10 20:52:16.
