data_PCOD8271332
_publ_section_title
;
Structure prediction by ZEFSAII (Michael W. Deem and Ramdas Pophale) SiO2 
 PCOD8271332
Probable space group: C M M M
;
_chemical_formula_sum "Si O2"
_cell_formula_units_Z 120
_cell_length_a 28.032076
_cell_length_b 8.875931
_cell_length_c 26.576757
_cell_angle_alpha 90.000000
_cell_angle_beta 90.000000
_cell_angle_gamma 90.000000
_cell_volume 6612.583436
_symmetry_space_group_name_H-M "C M M M"
_symmetry_group_IT_number 65
_symmetry_cell_setting 'orthorhombic'
loop_
_space_group_symop_operation_xyz
x,y,z
-x,-y,z
x,-y,-z
-x,y,-z
-x,-y,-z
x,y,-z
-x,y,z
x,-y,z
1/2+x,1/2+y,z
1/2-x,1/2-y,z
1/2+x,1/2-y,-z
1/2-x,1/2+y,-z
1/2-x,1/2-y,-z
1/2+x,1/2+y,-z
1/2-x,1/2+y,z
1/2+x,1/2-y,z
loop_
_atom_site_type_symbol
_atom_site_label
_atom_site_fract_x
_atom_site_fract_y
_atom_site_fract_z
Si Si1 0.443823 0.168847 0.500000
Si Si2 0.299431 0.323329 0.055959
Si Si3 0.608046 0.325901 0.589856
Si Si4 0.646280 0.677880 0.847193
Si Si5 0.386913 0.324935 0.297358
Si Si6 0.447616 0.677429 0.795919
Si Si7 0.298745 0.828213 0.558973
Si Si8 0.301156 0.820785 0.755127
O O1 0.500000 0.170124 0.500000
O O2 0.427150 0.247130 0.448997
O O3 0.422865 0.000000 0.500000
O O4 0.290981 0.500000 0.056287
O O5 0.250000 0.250000 0.073034
O O6 0.340436 0.277584 0.095640
O O7 0.314697 0.267912 0.000000
O O8 0.609333 0.500000 0.575337
O O9 0.591289 0.298033 0.647121
O O10 0.660753 0.260461 0.587805
O O11 0.652397 0.500000 0.837128
O O12 0.591225 0.728078 0.837886
O O13 0.681528 0.763830 0.809610
O O14 0.373803 0.500000 0.289036
O O15 0.427998 0.272570 0.258701
O O16 0.338787 0.230188 0.287677
O O17 0.500000 0.751897 0.805501
O O18 0.453725 0.500000 0.797604
O O19 0.309095 0.815414 0.500000
O O20 0.250000 0.750000 0.574426
O O21 0.297243 0.000000 0.576992
O O22 0.250000 0.750000 0.742106
O O23 0.296969 0.000000 0.755527
#
# Coordination Sequence:
#
# PCOD8271332 Si02
#       8
#     8  16  16  16  16  16  16  16
#     4  11  25  43  60  79 106 139 171 205 251 305
#     4   9  17  28  43  66  98 136 174 212 255 303
#     4  11  22  37  59  82 106 133 167 212 256 302
#     4   9  17  30  48  71 100 133 172 216 258 303
#     4   9  20  36  53  77 104 131 164 204 251 301
#     4   8  14  28  51  74  95 123 162 206 252 302
#     4  10  20  34  54  78 105 136 168 201 240 291
#     4  11  21  33  51  74 103 138 172 207 248 299
#
# _framework density 18.147219
#
# number of rings (size 3 to 8) (size 9 to 14) (size 15 to 20)
#    0.000    2.333    0.667    3.400    0.000    4.800 
#    0.000    1.333    0.000    6.800    0.000    2.800 
#    0.000    0.000    0.000    8.133    0.000    8.800 
#
# Total GULP energy -743857.319413 kJ/mol
# GULP energy per Si atom -12397.621990 kJ/mol
# Density = 1.810592 g / cm^3
# Si number density = 18.147219 Si / 1000 Ang^3
#
#
#
# Elastic Constant Matrix: (Units=GPa)
#
#
# Indices 1 2 3 4 5 6 
#
# 1 120.9390 36.6447 61.8088 0.0000 0.0000 0.0000
# 2 36.6447 87.5982 39.7091 0.0000 0.0000 0.0000
# 3 61.8088 39.7091 120.5327 0.0000 0.0000 0.0000
# 4 0.0000 0.0000 0.0000 20.0147 0.0000 0.0000
# 5 0.0000 0.0000 0.0000 0.0000 17.9421 0.0000
# 6 0.0000 0.0000 0.0000 0.0000 0.0000 19.7268
#
#
#
# Elastic Compliance Matrix: (Units=1/GPa)
#
#
# Indices 1 2 3 4 5 6 
#
# 1 0.011671 -0.002550 -0.005144 0.000000 0.000000 0.000000
# 2 -0.002550 0.013977 -0.003297 0.000000 0.000000 0.000000
# 3 -0.005144 -0.003297 0.012021 0.000000 0.000000 0.000000
# 4 0.000000 0.000000 0.000000 0.049963 0.000000 0.000000
# 5 0.000000 0.000000 0.000000 0.000000 0.055735 0.000000
# 6 0.000000 0.000000 0.000000 0.000000 0.000000 0.050692
#
#
# Mechanical properties :
#
#
# Convention : Reuss Voigt Hill
#
# Bulk Modulus (GPa) = 63.75430 67.26610 65.51020
# Shear Modulus (GPa) = 22.59679 24.26389 23.43034
#
# Velocity S-wave (km/s) = 3.53256 3.66055 3.59712
# Velocity P-wave (km/s) = 7.20046 7.41711 7.30959
#
# Compressibility (1/GPa) = 0.01568522
#
# Stress axis : x y z
#
# Youngs Moduli (GPa) = 85.68605 71.54561 83.18925
#
# Poissons Ratio (x) = 0.18244 0.42797
# Poissons Ratio (y) = 0.21850 0.27428
# Poissons Ratio (z) = 0.44081 0.23589
#
# Static dielectric constant tensor:
#      x y z
#    x 3.490760 0.000000 0.000000 
#    y 0.000000 3.299330 0.000000 
#    z 0.000000 0.000000 3.488340 
# 
# 
# High freq. dielectric constant tensor:
#      x y z
#    x 1.697700 0.000000 0.000000 
#    y 0.000000 1.693110 0.000000 
#    z 0.000000 0.000000 1.698070 
# 
# From -- ./inp_files/76139.got.cif
#   From: 2010.03.12/outbox.cif.g09.slc.cpg/sg65_39_cif.got.tgz:76139.got - 2010.04.10 20:52:16.
