data_PCOD8271456
_publ_section_title
;
Structure prediction by ZEFSAII (Michael W. Deem and Ramdas Pophale) SiO2 
 PCOD8271456
Probable space group: C M M M
;
_chemical_formula_sum "Si O2"
_cell_formula_units_Z 80
_cell_length_a 20.970937
_cell_length_b 15.078311
_cell_length_c 12.887031
_cell_angle_alpha 90.000000
_cell_angle_beta 90.000000
_cell_angle_gamma 90.000000
_cell_volume 4074.960520
_symmetry_space_group_name_H-M "C M M M"
_symmetry_group_IT_number 65
_symmetry_cell_setting 'orthorhombic'
loop_
_space_group_symop_operation_xyz
x,y,z
-x,-y,z
x,-y,-z
-x,y,-z
-x,-y,-z
x,y,-z
-x,y,z
x,-y,z
1/2+x,1/2+y,z
1/2-x,1/2-y,z
1/2+x,1/2-y,-z
1/2-x,1/2+y,-z
1/2-x,1/2-y,-z
1/2+x,1/2+y,-z
1/2-x,1/2+y,z
1/2+x,1/2-y,z
loop_
_atom_site_type_symbol
_atom_site_label
_atom_site_fract_x
_atom_site_fract_y
_atom_site_fract_z
Si Si1 0.729250 0.600607 0.310486
Si Si2 0.597271 0.397969 0.384621
Si Si3 0.363736 0.104178 0.621929
Si Si4 0.313578 0.306899 0.884840
Si Si5 0.569932 0.242183 0.240585
O O1 0.747509 0.500000 0.326873
O O2 0.672492 0.627701 0.388040
O O3 0.795848 0.647882 0.340205
O O4 0.703017 0.614209 0.193844
O O5 0.569366 0.385871 0.500000
O O6 0.588052 0.500000 0.347041
O O7 0.562298 0.332841 0.306050
O O8 0.371759 0.120889 0.500000
O O9 0.416803 0.159244 0.683564
O O10 0.371747 0.000000 0.648423
O O11 0.250000 0.250000 0.888497
O O12 0.375151 0.250598 0.846694
O O13 0.328782 0.344107 0.000000
O O14 0.500000 0.226120 0.189215
#
# Coordination Sequence:
#
# PCOD8271456 Si02
#       5
#    16  16  16  16  16
#     4   9  17  32  54  82 111 139 177 228 281 327
#     4   9  18  32  52  79 111 146 183 224 270 325
#     4  10  20  34  54  81 114 151 189 227 269 322
#     4  10  20  37  59  81 103 134 181 231 279 329
#     4  11  23  37  54  80 113 149 186 226 276 327
#
# _framework density 19.632092
#
# number of rings (size 3 to 8) (size 9 to 14) (size 15 to 20)
#    0.000    2.200    2.000    1.200    0.000    5.600 
#    0.000    5.000    0.000    0.600    0.000    7.000 
#    0.000    0.000    0.000    0.000    0.000    0.000 
#
# Total GULP energy -495616.491501 kJ/mol
# GULP energy per Si atom -12390.412288 kJ/mol
# Density = 1.958741 g / cm^3
# Si number density = 19.632092 Si / 1000 Ang^3
#
#
#
# Elastic Constant Matrix: (Units=GPa)
#
#
# Indices 1 2 3 4 5 6 
#
# 1 129.7186 16.4934 22.5783 0.0000 0.0000 0.0000
# 2 16.4934 35.2971 4.5128 0.0000 0.0000 0.0000
# 3 22.5783 4.5128 86.2011 0.0000 0.0000 0.0000
# 4 0.0000 0.0000 0.0000 21.3623 0.0000 0.0000
# 5 0.0000 0.0000 0.0000 0.0000 6.1677 0.0000
# 6 0.0000 0.0000 0.0000 0.0000 0.0000 15.3001
#
#
#
# Elastic Compliance Matrix: (Units=1/GPa)
#
#
# Indices 1 2 3 4 5 6 
#
# 1 0.008538 -0.003729 -0.002041 0.000000 0.000000 0.000000
# 2 -0.003729 0.030150 -0.000602 0.000000 0.000000 0.000000
# 3 -0.002041 -0.000602 0.012167 0.000000 0.000000 0.000000
# 4 0.000000 0.000000 0.000000 0.046811 0.000000 0.000000
# 5 0.000000 0.000000 0.000000 0.000000 0.162136 0.000000
# 6 0.000000 0.000000 0.000000 0.000000 0.000000 0.065359
#
#
# Mechanical properties :
#
#
# Convention : Reuss Voigt Hill
#
# Bulk Modulus (GPa) = 26.23843 37.59842 31.91843
# Shear Modulus (GPa) = 14.26087 22.40816 18.33451
#
# Velocity S-wave (km/s) = 2.69812 3.38213 3.05930
# Velocity P-wave (km/s) = 4.80630 5.86897 5.36402
#
# Compressibility (1/GPa) = 0.03811203
#
# Stress axis : x y z
#
# Youngs Moduli (GPa) = 117.11814 33.16721 82.18998
#
# Poissons Ratio (x) = 0.12367 0.16777
# Poissons Ratio (y) = 0.43671 0.04946
# Poissons Ratio (z) = 0.23906 0.01996
#
# Static dielectric constant tensor:
#      x y z
#    x 3.704150 0.000000 0.000000 
#    y 0.000000 3.427640 0.000000 
#    z 0.000000 0.000000 3.669670 
# 
# 
# High freq. dielectric constant tensor:
#      x y z
#    x 1.773780 0.000000 0.000000 
#    y 0.000000 1.751950 0.000000 
#    z 0.000000 0.000000 1.742460 
# 
# From -- ./inp_files/24621.got.cif
#   From: 2010.03.12/outbox.cif.g09.slc.cpg/sg65_13_cif.got.tgz:24621.got - 2010.04.10 20:52:16.
