data_PCOD8271398
_publ_section_title
;
Structure prediction by ZEFSAII (Michael W. Deem and Ramdas Pophale) SiO2 
 PCOD8271398
Probable space group: C M M M
;
_chemical_formula_sum "Si O2"
_cell_formula_units_Z 96
_cell_length_a 27.757108
_cell_length_b 19.973211
_cell_length_c 8.975663
_cell_angle_alpha 90.000000
_cell_angle_beta 90.000000
_cell_angle_gamma 90.000000
_cell_volume 4976.094775
_symmetry_space_group_name_H-M "C M M M"
_symmetry_group_IT_number 65
_symmetry_cell_setting 'orthorhombic'
loop_
_space_group_symop_operation_xyz
x,y,z
-x,-y,z
x,-y,-z
-x,y,-z
-x,-y,-z
x,y,-z
-x,y,z
x,-y,z
1/2+x,1/2+y,z
1/2-x,1/2-y,z
1/2+x,1/2-y,-z
1/2-x,1/2+y,-z
1/2-x,1/2-y,-z
1/2+x,1/2+y,-z
1/2-x,1/2+y,z
1/2+x,1/2-y,z
loop_
_atom_site_type_symbol
_atom_site_label
_atom_site_fract_x
_atom_site_fract_y
_atom_site_fract_z
Si Si1 0.372846 0.577527 0.827737
Si Si2 0.053621 0.574237 0.676705
Si Si3 0.615921 0.804057 0.673220
Si Si4 0.555509 0.327399 0.328687
Si Si5 0.274349 0.577366 0.675086
Si Si6 0.715449 0.810647 0.824947
O O1 0.383537 0.500000 0.797810
O O2 0.419198 0.617414 0.772897
O O3 0.325612 0.601460 0.739067
O O4 0.363233 0.592741 0.000000
O O5 0.051099 0.580400 0.500000
O O6 0.071204 0.500000 0.724281
O O7 0.091217 0.628582 0.737586
O O8 0.000000 0.587717 0.741149
O O9 0.630159 0.811101 0.500000
O O10 0.578435 0.744743 0.699412
O O11 0.662928 0.789868 0.769506
O O12 0.561170 0.349182 0.500000
O O13 0.500000 0.323423 0.280968
O O14 0.275044 0.589162 0.500000
O O15 0.264574 0.500000 0.716304
O O16 0.231904 0.620964 0.746043
O O17 0.750000 0.750000 0.778862
O O18 0.715142 0.823041 0.000000
#
# Coordination Sequence:
#
# PCOD8271398 Si02
#       6
#    16  16  16  16  16  16
#     4  10  21  37  57  81 110 143 178 220 273 331
#     4   8  14  27  50  79 108 137 170 210 256 306
#     4  10  20  34  54  80 109 140 179 227 272 315
#     4  10  21  36  55  80 110 145 185 230 277 322
#     4  10  21  38  61  86 110 140 181 227 275 328
#     4  11  24  39  55  78 110 147 185 224 270 327
#
# _framework density 19.292238000000001
#
# number of rings (size 3 to 8) (size 9 to 14) (size 15 to 20)
#    0.000    2.167    0.000    3.500    0.000   10.000 
#    0.000    3.333    0.000    1.500    0.000    1.167 
#    0.000    0.000    0.000    0.000    0.000    0.000 
#
# Total GULP energy -595374.909957 kJ/mol
# GULP energy per Si atom -12403.643957 kJ/mol
# Density = 1.924833 g / cm^3
# Si number density = 19.292238 Si / 1000 Ang^3
#
#
#
# Elastic Constant Matrix: (Units=GPa)
#
#
# Indices 1 2 3 4 5 6 
#
# 1 83.2500 27.5809 27.2656 0.0000 0.0000 0.0000
# 2 27.5809 76.0683 34.3837 0.0000 0.0000 0.0000
# 3 27.2656 34.3837 59.4312 0.0000 0.0000 0.0000
# 4 0.0000 0.0000 0.0000 24.6978 0.0000 0.0000
# 5 0.0000 0.0000 0.0000 0.0000 4.5512 0.0000
# 6 0.0000 0.0000 0.0000 0.0000 0.0000 40.3718
#
#
#
# Elastic Compliance Matrix: (Units=1/GPa)
#
#
# Indices 1 2 3 4 5 6 
#
# 1 0.014650 -0.003079 -0.004940 0.000000 0.000000 0.000000
# 2 -0.003079 0.018448 -0.009261 0.000000 0.000000 0.000000
# 3 -0.004940 -0.009261 0.024450 0.000000 0.000000 0.000000
# 4 0.000000 0.000000 0.000000 0.040489 0.000000 0.000000
# 5 0.000000 0.000000 0.000000 0.000000 0.219721 0.000000
# 6 0.000000 0.000000 0.000000 0.000000 0.000000 0.024770
#
#
# Mechanical properties :
#
#
# Convention : Reuss Voigt Hill
#
# Bulk Modulus (GPa) = 43.49773 44.13444 43.81608
# Shear Modulus (GPa) = 12.99543 22.55879 17.77711
#
# Velocity S-wave (km/s) = 2.59821 3.42324 3.03886
# Velocity P-wave (km/s) = 5.62109 6.20896 5.92233
#
# Compressibility (1/GPa) = 0.02298971
#
# Stress axis : x y z
#
# Youngs Moduli (GPa) = 68.25985 54.20534 40.89968
#
# Poissons Ratio (x) = 0.16690 0.20203
# Poissons Ratio (y) = 0.21017 0.37876
# Poissons Ratio (z) = 0.33718 0.50198
#
# Static dielectric constant tensor:
#      x y z
#    x 3.543600 0.000000 0.000000 
#    y 0.000000 3.676690 0.000000 
#    z 0.000000 0.000000 3.348710 
# 
# 
# High freq. dielectric constant tensor:
#      x y z
#    x 1.753650 0.000000 0.000000 
#    y 0.000000 1.762330 0.000000 
#    z 0.000000 0.000000 1.731750 
# 
# From -- ./inp_files/12306.got.cif
#   From: 2010.03.12/outbox.cif.g09.slc.cpg/sg65_7_cif.got.tgz:12306.got - 2010.04.10 20:52:16.
