data_PCOD8271418
_publ_section_title
;
Structure prediction by ZEFSAII (Michael W. Deem and Ramdas Pophale) SiO2 
 PCOD8271418
Probable space group: C M M M
;
_chemical_formula_sum "Si O2"
_cell_formula_units_Z 88
_cell_length_a 27.592915
_cell_length_b 17.942191
_cell_length_c 8.958418
_cell_angle_alpha 90.000000
_cell_angle_beta 90.000000
_cell_angle_gamma 90.000000
_cell_volume 4435.109854
_symmetry_space_group_name_H-M "C M M M"
_symmetry_group_IT_number 65
_symmetry_cell_setting 'orthorhombic'
loop_
_space_group_symop_operation_xyz
x,y,z
-x,-y,z
x,-y,-z
-x,y,-z
-x,-y,-z
x,y,-z
-x,y,z
x,-y,z
1/2+x,1/2+y,z
1/2-x,1/2-y,z
1/2+x,1/2-y,-z
1/2-x,1/2+y,-z
1/2-x,1/2-y,-z
1/2+x,1/2+y,-z
1/2-x,1/2+y,z
1/2+x,1/2-y,z
loop_
_atom_site_type_symbol
_atom_site_label
_atom_site_fract_x
_atom_site_fract_y
_atom_site_fract_z
Si Si1 0.829992 0.085196 0.172203
Si Si2 0.085235 0.165207 0.675943
Si Si3 0.000000 0.086786 0.835386
Si Si4 0.357236 0.917023 0.823852
Si Si5 0.233832 0.328976 0.172766
Si Si6 0.555600 0.184409 0.827404
O O1 0.861735 0.141111 0.270561
O O2 0.774518 0.108384 0.195170
O O3 0.836244 0.000000 0.225723
O O4 0.845660 0.093643 0.000000
O O5 0.082120 0.160213 0.500000
O O6 0.047460 0.108171 0.745659
O O7 0.072667 0.247996 0.725771
O O8 0.000000 0.000000 0.857630
O O9 0.000000 0.125378 0.000000
O O10 0.315669 0.862401 0.755405
O O11 0.410608 0.885657 0.786405
O O12 0.353249 0.000000 0.754016
O O13 0.349065 0.922313 0.000000
O O14 0.250000 0.250000 0.247999
O O15 0.223540 0.312335 0.000000
O O16 0.500000 0.163000 0.792157
O O17 0.562101 0.207315 0.000000
#
# Coordination Sequence:
#
# PCOD8271418 Si02
#       6
#    16  16   8  16  16  16
#     4  10  20  34  54  80 111 148 188 230 279 335
#     4  12  24  37  55  80 111 148 188 231 278 331
#     4  11  23  39  59  81 108 143 184 231 281 334
#     4   9  17  30  52  85 119 147 185 241 293 334
#     4   9  16  28  50  81 115 149 186 230 281 334
#     4  10  20  35  57  82 111 149 189 233 285 341
#
# _framework density 19.841673
#
# number of rings (size 3 to 8) (size 9 to 14) (size 15 to 20)
#    0.000    1.909    0.909    4.091    0.000    8.727 
#    0.000    1.818    0.000    5.455    0.000    1.273 
#    0.000    0.000    0.000    0.000    0.000    0.000 
#
# Total GULP energy -545597.451928 kJ/mol
# GULP energy per Si atom -12399.942089 kJ/mol
# Density = 1.979651 g / cm^3
# Si number density = 19.841673 Si / 1000 Ang^3
#
#
#
# Elastic Constant Matrix: (Units=GPa)
#
#
# Indices 1 2 3 4 5 6 
#
# 1 140.8768 73.8784 36.4284 0.0000 0.0000 0.0000
# 2 73.8784 135.3858 29.4221 0.0000 0.0000 0.0000
# 3 36.4284 29.4221 73.8158 0.0000 0.0000 0.0000
# 4 0.0000 0.0000 0.0000 0.4449 0.0000 0.0000
# 5 0.0000 0.0000 0.0000 0.0000 14.0563 0.0000
# 6 0.0000 0.0000 0.0000 0.0000 0.0000 36.6029
#
#
#
# Elastic Compliance Matrix: (Units=1/GPa)
#
#
# Indices 1 2 3 4 5 6 
#
# 1 0.010593 -0.005085 -0.003201 0.000000 0.000000 0.000000
# 2 -0.005085 0.010528 -0.001687 0.000000 0.000000 0.000000
# 3 -0.003201 -0.001687 0.015799 0.000000 0.000000 0.000000
# 4 0.000000 0.000000 0.000000 2.247725 0.000000 0.000000
# 5 0.000000 0.000000 0.000000 0.000000 0.071143 0.000000
# 6 0.000000 0.000000 0.000000 0.000000 0.000000 0.027320
#
#
# Mechanical properties :
#
#
# Convention : Reuss Voigt Hill
#
# Bulk Modulus (GPa) = 58.91120 69.94847 64.42983
# Shear Modulus (GPa) = 2.07580 24.24412 13.15996
#
# Velocity S-wave (km/s) = 1.02394 3.49933 2.57815
# Velocity P-wave (km/s) = 5.58149 7.18728 6.43467
#
# Compressibility (1/GPa) = 0.01697470
#
# Stress axis : x y z
#
# Youngs Moduli (GPa) = 94.40597 94.98930 63.29434
#
# Poissons Ratio (x) = 0.48298 0.20259
# Poissons Ratio (y) = 0.48002 0.10677
# Poissons Ratio (z) = 0.30217 0.16023
#
# Static dielectric constant tensor:
#      x y z
#    x 3.528260 0.000000 0.000000 
#    y 0.000000 3.718200 0.000000 
#    z 0.000000 0.000000 3.154280 
# 
# 
# High freq. dielectric constant tensor:
#      x y z
#    x 1.790050 0.000000 0.000000 
#    y 0.000000 1.782240 0.000000 
#    z 0.000000 0.000000 1.716630 
# 
# From -- ./inp_files/18341.got.cif
#   From: 2010.03.12/outbox.cif.g09.slc.cpg/sg65_10_cif.got.tgz:18341.got - 2010.04.10 20:52:16.
