data_PCOD8271792
_publ_section_title
;
Structure prediction by ZEFSAII (Michael W. Deem and Ramdas Pophale) SiO2 
 PCOD8271792
Probable space group: C M M M
;
_chemical_formula_sum "Si O2"
_cell_formula_units_Z 96
_cell_length_a 16.100489
_cell_length_b 15.125462
_cell_length_c 19.484414
_cell_angle_alpha 90.000000
_cell_angle_beta 90.000000
_cell_angle_gamma 90.000000
_cell_volume 4744.987407
_symmetry_space_group_name_H-M "C M M M"
_symmetry_group_IT_number 65
_symmetry_cell_setting 'orthorhombic'
loop_
_space_group_symop_operation_xyz
x,y,z
-x,-y,z
x,-y,-z
-x,y,-z
-x,-y,-z
x,y,-z
-x,y,z
x,-y,z
1/2+x,1/2+y,z
1/2-x,1/2-y,z
1/2+x,1/2-y,-z
1/2-x,1/2+y,-z
1/2-x,1/2-y,-z
1/2+x,1/2+y,-z
1/2-x,1/2+y,z
1/2+x,1/2-y,z
loop_
_atom_site_type_symbol
_atom_site_label
_atom_site_fract_x
_atom_site_fract_y
_atom_site_fract_z
Si Si1 0.406682 0.396008 0.078627
Si Si2 0.655026 0.595858 0.686245
Si Si3 0.237396 0.151023 0.821138
Si Si4 0.408479 0.100470 0.198487
Si Si5 0.091586 0.285604 0.668183
Si Si6 0.704369 0.098494 0.420878
O O1 0.500000 0.369025 0.103925
O O2 0.395333 0.500000 0.086708
O O3 0.334752 0.349094 0.121763
O O4 0.395728 0.366818 0.000000
O O5 0.607509 0.500000 0.686725
O O6 0.711510 0.595232 0.754658
O O7 0.595853 0.680852 0.684468
O O8 0.708779 0.600804 0.617824
O O9 0.250000 0.250000 0.795932
O O10 0.327152 0.114468 0.850544
O O11 0.500000 0.125047 0.165680
O O12 0.388125 0.162012 0.262765
O O13 0.412111 0.000000 0.223562
O O14 0.149443 0.321285 0.607890
O O15 0.000000 0.306828 0.642488
O O16 0.721661 0.118922 0.500000
O O17 0.663749 0.000000 0.411733
#
# Coordination Sequence:
#
# PCOD8271792 Si02
#       6
#    16  16  16  16  16  16
#     4   9  20  39  61  88 123 160 199 245 297 354
#     4  11  22  38  57  82 115 153 199 243 291 355
#     4  12  21  35  61  87 119 157 199 251 299 353
#     4  10  20  35  55  81 116 153 190 238 294 351
#     4  11  22  36  54  81 115 148 188 242 299 353
#     4  10  21  38  60  83 111 149 193 244 300 358
#
# _framework density 20.231876
#
# number of rings (size 3 to 8) (size 9 to 14) (size 15 to 20)
#    0.000    1.500    3.333    3.000    0.000    4.667 
#    0.000    0.833    0.000    0.500    0.000    5.833 
#    0.000    0.000    0.000    0.000    0.000    0.000 
#
# Total GULP energy -594722.058031 kJ/mol
# GULP energy per Si atom -12390.042876 kJ/mol
# Density = 2.018583 g / cm^3
# Si number density = 20.231876 Si / 1000 Ang^3
#
#
#
# Elastic Constant Matrix: (Units=GPa)
#
#
# Indices 1 2 3 4 5 6 
#
# 1 118.2658 18.5074 44.4653 0.0000 0.0000 0.0000
# 2 18.5074 115.2273 17.7010 0.0000 0.0000 0.0000
# 3 44.4653 17.7010 68.2537 0.0000 0.0000 0.0000
# 4 0.0000 0.0000 0.0000 13.3399 0.0000 0.0000
# 5 0.0000 0.0000 0.0000 0.0000 26.1928 0.0000
# 6 0.0000 0.0000 0.0000 0.0000 0.0000 24.2673
#
#
#
# Elastic Compliance Matrix: (Units=1/GPa)
#
#
# Indices 1 2 3 4 5 6 
#
# 1 0.011254 -0.000710 -0.007148 0.000000 0.000000 0.000000
# 2 -0.000710 0.009083 -0.001893 0.000000 0.000000 0.000000
# 3 -0.007148 -0.001893 0.019799 0.000000 0.000000 0.000000
# 4 0.000000 0.000000 0.000000 0.074963 0.000000 0.000000
# 5 0.000000 0.000000 0.000000 0.000000 0.038178 0.000000
# 6 0.000000 0.000000 0.000000 0.000000 0.000000 0.041208
#
#
# Mechanical properties :
#
#
# Convention : Reuss Voigt Hill
#
# Bulk Modulus (GPa) = 48.46179 51.45492 49.95836
# Shear Modulus (GPa) = 22.63829 27.49820 25.06824
#
# Velocity S-wave (km/s) = 3.34869 3.69067 3.52383
# Velocity P-wave (km/s) = 6.24154 6.60675 6.42674
#
# Compressibility (1/GPa) = 0.02063481
#
# Stress axis : x y z
#
# Youngs Moduli (GPa) = 88.85805 110.09173 50.50835
#
# Poissons Ratio (x) = 0.07812 0.36101
# Poissons Ratio (y) = 0.06305 0.09563
# Poissons Ratio (z) = 0.63512 0.20845
#
# Static dielectric constant tensor:
#      x y z
#    x 3.916410 0.000000 0.000000 
#    y 0.000000 3.916320 0.000000 
#    z 0.000000 0.000000 3.356170 
# 
# 
# High freq. dielectric constant tensor:
#      x y z
#    x 1.790690 0.000000 0.000000 
#    y 0.000000 1.805490 0.000000 
#    z 0.000000 0.000000 1.751280 
# 
# From -- ./inp_files/62629.got.cif
#   From: 2010.03.12/outbox.cif.g09.slc.cpg/sg65_32_cif.got.tgz:62629.got - 2010.04.10 20:52:16.
