data_PCOD8271227
_publ_section_title
;
Structure prediction by ZEFSAII (Michael W. Deem and Ramdas Pophale) SiO2 
 PCOD8271227
Probable space group: C M M M
;
_chemical_formula_sum "Si O2"
_cell_formula_units_Z 96
_cell_length_a 27.748386
_cell_length_b 21.591608
_cell_length_c 8.885220
_cell_angle_alpha 90.000000
_cell_angle_beta 90.000000
_cell_angle_gamma 90.000000
_cell_volume 5323.422056
_symmetry_space_group_name_H-M "C M M M"
_symmetry_group_IT_number 65
_symmetry_cell_setting 'orthorhombic'
loop_
_space_group_symop_operation_xyz
x,y,z
-x,-y,z
x,-y,-z
-x,y,-z
-x,-y,-z
x,y,-z
-x,y,z
x,-y,z
1/2+x,1/2+y,z
1/2-x,1/2-y,z
1/2+x,1/2-y,-z
1/2-x,1/2+y,-z
1/2-x,1/2-y,-z
1/2+x,1/2+y,-z
1/2-x,1/2+y,z
1/2+x,1/2-y,z
loop_
_atom_site_type_symbol
_atom_site_label
_atom_site_fract_x
_atom_site_fract_y
_atom_site_fract_z
Si Si1 0.444563 0.865364 0.679623
Si Si2 0.862120 0.714583 0.822397
Si Si3 0.000000 0.073797 0.669252
Si Si4 0.056853 0.500000 0.663957
Si Si5 0.095142 0.073324 0.169815
Si Si6 0.730203 0.819178 0.333497
Si Si7 0.333062 0.657223 0.322328
O O1 0.438384 0.863752 0.500000
O O2 0.500000 0.850330 0.723206
O O3 0.410577 0.814636 0.755439
O O4 0.429419 0.934409 0.743493
O O5 0.815197 0.673575 0.777375
O O6 0.855989 0.783589 0.759721
O O7 0.866520 0.716713 0.000000
O O8 0.953776 0.099401 0.757269
O O9 0.000000 0.100507 0.500000
O O10 0.000000 0.000000 0.666289
O O11 0.081700 0.500000 0.500000
O O12 0.000000 0.500000 0.641541
O O13 0.139193 0.096382 0.270265
O O14 0.095766 0.000000 0.172826
O O15 0.099001 0.098616 0.000000
O O16 0.713253 0.840345 0.500000
O O17 0.750000 0.750000 0.340501
O O18 0.777207 0.857110 0.277642
O O19 0.337558 0.668472 0.500000
#
# Coordination Sequence:
#
# PCOD8271227 Si02
#       7
#    16  16   8   8  16  16  16
#     4   9  17  32  54  77 103 135 172 211 251 299
#     4  11  21  32  50  77 108 138 167 207 259 311
#     4   9  17  31  51  73  97 131 175 212 243 294
#     4   7  12  26  51  77  95 123 169 211 243 284
#     4  10  20  34  53  77 106 137 169 212 265 314
#     4   8  16  32  53  74  96 126 168 212 249 296
#     4  10  20  35  55  77 100 131 175 219 256 303
#
# _framework density 18.033512000000002
#
# number of rings (size 3 to 8) (size 9 to 14) (size 15 to 20)
#    0.000    2.667    0.000    4.750    0.000    6.000 
#    1.500    0.417    1.833    1.500    0.000    0.000 
#    0.000    0.000    0.000    0.000    0.000    0.000 
#
# Total GULP energy -594814.848576 kJ/mol
# GULP energy per Si atom -12391.976012 kJ/mol
# Density = 1.799247 g / cm^3
# Si number density = 18.033512 Si / 1000 Ang^3
#
#
#
# Elastic Constant Matrix: (Units=GPa)
#
#
# Indices 1 2 3 4 5 6 
#
# 1 117.2933 27.7804 55.9160 0.0000 0.0000 0.0000
# 2 27.7804 31.0863 27.6589 0.0000 0.0000 0.0000
# 3 55.9160 27.6589 94.7565 0.0000 0.0000 0.0000
# 4 0.0000 0.0000 0.0000 19.2850 0.0000 0.0000
# 5 0.0000 0.0000 0.0000 0.0000 18.8765 0.0000
# 6 0.0000 0.0000 0.0000 0.0000 0.0000 23.2006
#
#
#
# Elastic Compliance Matrix: (Units=1/GPa)
#
#
# Indices 1 2 3 4 5 6 
#
# 1 0.012724 -0.006336 -0.005659 0.000000 0.000000 0.000000
# 2 -0.006336 0.046609 -0.009866 0.000000 0.000000 0.000000
# 3 -0.005659 -0.009866 0.016773 0.000000 0.000000 0.000000
# 4 0.000000 0.000000 0.000000 0.051854 0.000000 0.000000
# 5 0.000000 0.000000 0.000000 0.000000 0.052976 0.000000
# 6 0.000000 0.000000 0.000000 0.000000 0.000000 0.043102
#
#
# Mechanical properties :
#
#
# Convention : Reuss Voigt Hill
#
# Bulk Modulus (GPa) = 30.87982 51.76074 41.32028
# Shear Modulus (GPa) = 17.94984 21.05782 19.50383
#
# Velocity S-wave (km/s) = 3.15836 3.42088 3.29223
# Velocity P-wave (km/s) = 5.51915 6.66093 6.11674
#
# Compressibility (1/GPa) = 0.03238361
#
# Stress axis : x y z
#
# Youngs Moduli (GPa) = 78.59151 21.45517 59.62071
#
# Poissons Ratio (x) = 0.13593 0.33740
# Poissons Ratio (y) = 0.49793 0.58823
# Poissons Ratio (z) = 0.44476 0.21168
#
# Static dielectric constant tensor:
#      x y z
#    x 3.702800 0.000000 0.000000 
#    y 0.000000 3.186900 0.000000 
#    z 0.000000 0.000000 3.302310 
# 
# 
# High freq. dielectric constant tensor:
#      x y z
#    x 1.701450 0.000000 0.000000 
#    y 0.000000 1.667950 0.000000 
#    z 0.000000 0.000000 1.691680 
# 
# From -- ./inp_files/14382.got.cif
#   From: 2010.03.12/outbox.cif.g09.slc.cpg/sg65_8_cif.got.tgz:14382.got - 2010.04.10 20:52:16.
