data_PCOD8271693
_publ_section_title
;
Structure prediction by ZEFSAII (Michael W. Deem and Ramdas Pophale) SiO2 
 PCOD8271693
Probable space group: C M M M
;
_chemical_formula_sum "Si O2"
_cell_formula_units_Z 64
_cell_length_a 9.151406
_cell_length_b 21.336314
_cell_length_c 17.279275
_cell_angle_alpha 90.000000
_cell_angle_beta 90.000000
_cell_angle_gamma 90.000000
_cell_volume 3373.904098
_symmetry_space_group_name_H-M "C M M M"
_symmetry_group_IT_number 65
_symmetry_cell_setting 'orthorhombic'
loop_
_space_group_symop_operation_xyz
x,y,z
-x,-y,z
x,-y,-z
-x,y,-z
-x,-y,-z
x,y,-z
-x,y,z
x,-y,z
1/2+x,1/2+y,z
1/2-x,1/2-y,z
1/2+x,1/2-y,-z
1/2-x,1/2+y,-z
1/2-x,1/2-y,-z
1/2+x,1/2+y,-z
1/2-x,1/2+y,z
1/2+x,1/2-y,z
loop_
_atom_site_type_symbol
_atom_site_label
_atom_site_fract_x
_atom_site_fract_y
_atom_site_fract_z
Si Si1 0.826604 0.069746 0.912146
Si Si2 0.832934 0.000000 0.586434
Si Si3 0.831300 0.868307 0.358971
Si Si4 0.670435 0.813871 0.500000
Si Si5 0.172235 0.184471 0.191907
O O1 0.765196 0.127171 0.860421
O O2 0.000000 0.070105 0.906195
O O3 0.771278 0.000000 0.885218
O O4 0.775372 0.081774 0.000000
O O5 0.799043 0.057754 0.643422
O O6 0.753472 0.000000 0.500000
O O7 0.000000 0.000000 0.563495
O O8 0.717909 0.848022 0.423034
O O9 0.790868 0.834288 0.279570
O O10 0.000000 0.854035 0.381745
O O11 0.500000 0.803882 0.500000
O O12 0.750000 0.750000 0.500000
O O13 0.250000 0.250000 0.170357
O O14 0.000000 0.193445 0.178975
#
# Coordination Sequence:
#
# PCOD8271693 Si02
#       5
#    16   8  16   8  16
#     4   8  15  30  53  82 112 139 174 222 269 312
#     4   9  16  30  54  78  99 127 171 220 265 313
#     4  10  20  35  54  78 106 137 175 221 268 317
#     4  12  24  37  54  73  99 138 180 220 267 322
#     4  10  21  34  53  80 110 143 180 220 266 318
#
# _framework density 18.969121999999999
#
# number of rings (size 3 to 8) (size 9 to 14) (size 15 to 20)
#    0.000    2.375    1.250    2.625    1.750    3.500 
#    0.000    1.250    0.000    0.750    0.000    1.750 
#    0.000    0.000    0.000    0.000    0.000    0.000 
#
# Total GULP energy -396435.995795 kJ/mol
# GULP energy per Si atom -12388.624869 kJ/mol
# Density = 1.892595 g / cm^3
# Si number density = 18.969122 Si / 1000 Ang^3
#
#
#
# Elastic Constant Matrix: (Units=GPa)
#
#
# Indices 1 2 3 4 5 6 
#
# 1 62.6511 43.3693 35.2041 0.0000 0.0000 0.0000
# 2 43.3693 178.2914 70.7713 0.0000 0.0000 0.0000
# 3 35.2041 70.7713 99.6937 0.0000 0.0000 0.0000
# 4 0.0000 0.0000 0.0000 -55.8498 0.0000 0.0000
# 5 0.0000 0.0000 0.0000 0.0000 -41.4027 0.0000
# 6 0.0000 0.0000 0.0000 0.0000 0.0000 25.5221
#
#
#
# Elastic Compliance Matrix: (Units=1/GPa)
#
#
# Indices 1 2 3 4 5 6 
#
# 1 0.021016 -0.003016 -0.005280 0.000000 0.000000 0.000000
# 2 -0.003016 0.008242 -0.004786 0.000000 0.000000 0.000000
# 3 -0.005280 -0.004786 0.015293 0.000000 0.000000 0.000000
# 4 0.000000 0.000000 0.000000 -0.017905 0.000000 0.000000
# 5 0.000000 0.000000 0.000000 0.000000 -0.024153 0.000000
# 6 0.000000 0.000000 0.000000 0.000000 0.000000 0.039182
#
#
# Mechanical properties :
#
#
# Convention : Reuss Voigt Hill
#
# Bulk Modulus (GPa) = 54.38745 71.03620 62.71182
# Shear Modulus (GPa) = 67.59629 -1.59333 33.00148
#
# Velocity S-wave (km/s) = 5.97597 -0.91749 4.17555
# Velocity P-wave (km/s) = 8.73786 6.03384 7.50858
#
# Compressibility (1/GPa) = 0.01838659
#
# Stress axis : x y z
#
# Youngs Moduli (GPa) = 47.58202 121.32600 65.39051
#
# Poissons Ratio (x) = 0.36596 0.34527
# Poissons Ratio (y) = 0.14352 0.31296
# Poissons Ratio (z) = 0.25124 0.58066
#
# Static dielectric constant tensor:
#      x y z
#    x 2.799890 0.000000 0.000000 
#    y 0.000000 3.964400 0.000000 
#    z 0.000000 0.000000 3.520340 
# 
# 
# High freq. dielectric constant tensor:
#      x y z
#    x 1.682750 0.000000 0.000000 
#    y 0.000000 1.760190 0.000000 
#    z 0.000000 0.000000 1.735710 
# 
# From -- ./inp_files/36048.got.cif
#   From: 2010.03.12/outbox.cif.g09.slc.cpg/sg65_19_cif.got.tgz:36048.got - 2010.04.10 20:52:16.
