data_PCOD8271852
_publ_section_title
;
Structure prediction by ZEFSAII (Michael W. Deem and Ramdas Pophale) SiO2 
 PCOD8271852
Probable space group: C M M M
;
_chemical_formula_sum "Si O2"
_cell_formula_units_Z 80
_cell_length_a 8.092003
_cell_length_b 26.503767
_cell_length_c 19.444541
_cell_angle_alpha 90.000000
_cell_angle_beta 90.000000
_cell_angle_gamma 90.000000
_cell_volume 4170.242748
_symmetry_space_group_name_H-M "C M M M"
_symmetry_group_IT_number 65
_symmetry_cell_setting 'orthorhombic'
loop_
_space_group_symop_operation_xyz
x,y,z
-x,-y,z
x,-y,-z
-x,y,-z
-x,-y,-z
x,y,-z
-x,y,z
x,-y,z
1/2+x,1/2+y,z
1/2-x,1/2-y,z
1/2+x,1/2-y,-z
1/2-x,1/2+y,-z
1/2-x,1/2-y,-z
1/2+x,1/2+y,-z
1/2-x,1/2+y,z
1/2+x,1/2-y,z
loop_
_atom_site_type_symbol
_atom_site_label
_atom_site_fract_x
_atom_site_fract_y
_atom_site_fract_z
Si Si1 0.815715 0.883270 0.920734
Si Si2 0.500000 0.944966 0.918536
Si Si3 0.308198 0.892701 0.579249
Si Si4 0.307490 0.500000 0.579886
Si Si5 0.189617 0.306354 0.180550
Si Si6 0.309900 0.694647 0.326065
O O1 0.670054 0.919504 0.893184
O O2 0.806927 0.834208 0.873623
O O3 0.000000 0.907595 0.912852
O O4 0.784272 0.868214 0.000000
O O5 0.500000 0.000000 0.885030
O O6 0.500000 0.947890 0.000000
O O7 0.251290 0.891991 0.500000
O O8 0.500000 0.881438 0.587716
O O9 0.267603 0.948159 0.611628
O O10 0.210489 0.847493 0.615559
O O11 0.500000 0.500000 0.594767
O O12 0.261297 0.500000 0.500000
O O13 0.250000 0.250000 0.178377
O O14 0.211990 0.325291 0.258880
O O15 0.000000 0.312771 0.157862
O O16 0.500000 0.700008 0.305614
O O17 0.250000 0.750000 0.351620
#
# Coordination Sequence:
#
# PCOD8271852 Si02
#       6
#    16   8  16   8  16  16
#     4  10  20  35  56  84 115 146 186 233 278 328
#     4   9  18  34  56  82 112 148 187 229 280 330
#     4  10  20  35  56  81 109 142 180 224 272 323
#     4   9  17  31  53  81 109 139 176 217 268 325
#     4  11  21  36  57  80 110 147 184 223 274 333
#     4  11  22  37  56  79 108 144 185 224 272 331
#
# _framework density 19.183536
#
# number of rings (size 3 to 8) (size 9 to 14) (size 15 to 20)
#    0.000    1.800    1.000    5.700    0.000    3.600 
#    0.000    2.000    2.200    0.000    0.000    0.000 
#    0.000    0.000    0.000    0.000    0.000    0.000 
#
# Total GULP energy -495890.786382 kJ/mol
# GULP energy per Si atom -12397.269660 kJ/mol
# Density = 1.913987 g / cm^3
# Si number density = 19.183536 Si / 1000 Ang^3
#
#
#
# Elastic Constant Matrix: (Units=GPa)
#
#
# Indices 1 2 3 4 5 6 
#
# 1 117.8699 38.3086 22.9809 0.0000 0.0000 0.0000
# 2 38.3086 99.5529 53.8389 0.0000 0.0000 0.0000
# 3 22.9809 53.8389 58.2530 0.0000 0.0000 0.0000
# 4 0.0000 0.0000 0.0000 6.4547 0.0000 0.0000
# 5 0.0000 0.0000 0.0000 0.0000 26.3366 0.0000
# 6 0.0000 0.0000 0.0000 0.0000 0.0000 24.4542
#
#
#
# Elastic Compliance Matrix: (Units=1/GPa)
#
#
# Indices 1 2 3 4 5 6 
#
# 1 0.009713 -0.003330 -0.000755 0.000000 0.000000 0.000000
# 2 -0.003330 0.021224 -0.018303 0.000000 0.000000 0.000000
# 3 -0.000755 -0.018303 0.034380 0.000000 0.000000 0.000000
# 4 0.000000 0.000000 0.000000 0.154926 0.000000 0.000000
# 5 0.000000 0.000000 0.000000 0.000000 0.037970 0.000000
# 6 0.000000 0.000000 0.000000 0.000000 0.000000 0.040893
#
#
# Mechanical properties :
#
#
# Convention : Reuss Voigt Hill
#
# Bulk Modulus (GPa) = 48.67610 56.21474 52.44542
# Shear Modulus (GPa) = 14.25609 22.15226 18.20418
#
# Velocity S-wave (km/s) = 2.72902 3.40185 3.08384
# Velocity P-wave (km/s) = 5.94635 6.69309 6.33074
#
# Compressibility (1/GPa) = 0.02054396
#
# Stress axis : x y z
#
# Youngs Moduli (GPa) = 102.95268 47.11579 29.08683
#
# Poissons Ratio (x) = 0.15688 0.02195
# Poissons Ratio (y) = 0.34280 0.53236
# Poissons Ratio (z) = 0.07768 0.86234
#
# Static dielectric constant tensor:
#      x y z
#    x 3.675710 0.000000 0.000000 
#    y 0.000000 3.576060 0.000000 
#    z 0.000000 0.000000 3.412860 
# 
# 
# High freq. dielectric constant tensor:
#      x y z
#    x 1.767950 0.000000 0.000000 
#    y 0.000000 1.742940 0.000000 
#    z 0.000000 0.000000 1.715630 
# 
# From -- ./inp_files/49952.got.cif
#   From: 2010.03.12/outbox.cif.g09.slc.cpg/sg65_25_cif.got.tgz:49952.got - 2010.04.10 20:52:16.
