data_PCOD8271011
_publ_section_title
;
Structure prediction by ZEFSAII (Michael W. Deem and Ramdas Pophale) SiO2 
 PCOD8271011
Probable space group: C M M M
;
_chemical_formula_sum "Si O2"
_cell_formula_units_Z 80
_cell_length_a 9.026879
_cell_length_b 26.141077
_cell_length_c 18.441798
_cell_angle_alpha 90.000000
_cell_angle_beta 90.000000
_cell_angle_gamma 90.000000
_cell_volume 4351.754210
_symmetry_space_group_name_H-M "C M M M"
_symmetry_group_IT_number 65
_symmetry_cell_setting 'orthorhombic'
loop_
_space_group_symop_operation_xyz
x,y,z
-x,-y,z
x,-y,-z
-x,y,-z
-x,-y,-z
x,y,-z
-x,y,z
x,-y,z
1/2+x,1/2+y,z
1/2-x,1/2-y,z
1/2+x,1/2-y,-z
1/2-x,1/2+y,-z
1/2-x,1/2-y,-z
1/2+x,1/2+y,-z
1/2-x,1/2+y,z
1/2+x,1/2-y,z
loop_
_atom_site_type_symbol
_atom_site_label
_atom_site_fract_x
_atom_site_fract_y
_atom_site_fract_z
Si Si1 0.677183 0.091191 0.418936
Si Si2 0.823489 0.500000 0.155887
Si Si3 0.831949 0.699444 0.913673
Si Si4 0.162642 0.702458 0.586064
Si Si5 0.676054 0.000000 0.678607
Si Si6 0.829789 0.097091 0.086015
O O1 0.732193 0.076801 0.500000
O O2 0.500000 0.093053 0.418994
O O3 0.737319 0.147454 0.395644
O O4 0.739731 0.050007 0.362104
O O5 0.770066 0.500000 0.239048
O O6 0.759789 0.449925 0.118443
O O7 0.000000 0.500000 0.148387
O O8 0.750000 0.750000 0.883472
O O9 0.744370 0.649528 0.885684
O O10 0.000000 0.698046 0.883851
O O11 0.832516 0.700554 0.000000
O O12 0.153171 0.708253 0.500000
O O13 0.250000 0.750000 0.620951
O O14 0.000000 0.704808 0.620696
O O15 0.500000 0.000000 0.673555
O O16 0.000000 0.095503 0.111869
O O17 0.819364 0.093260 0.000000
#
# Coordination Sequence:
#
# PCOD8271011 Si02
#       6
#    16   8  16  16   8  16
#     4   8  13  23  42  67  92 118 151 190 228 269
#     4  11  22  33  47  69  96 125 158 200 252 303
#     4   9  16  27  46  74 105 131 155 189 235 284
#     4   8  13  21  36  61  90 116 142 176 219 263
#     4   9  17  28  43  65  92 121 152 190 238 285
#     4  10  20  34  52  72  94 124 163 203 241 285
#
# _framework density 18.383392000000001
#
# number of rings (size 3 to 8) (size 9 to 14) (size 15 to 20)
#    0.000    3.000    0.000    3.300    0.000    6.000 
#    0.000    0.000    0.000    3.600    0.000    2.800 
#    0.000    8.000    0.000    0.000    0.000    0.000 
#
# Total GULP energy -495767.039669 kJ/mol
# GULP energy per Si atom -12394.175992 kJ/mol
# Density = 1.834155 g / cm^3
# Si number density = 18.383392 Si / 1000 Ang^3
#
#
#
# Elastic Constant Matrix: (Units=GPa)
#
#
# Indices 1 2 3 4 5 6 
#
# 1 96.4731 64.5089 23.3137 0.0000 0.0000 0.0000
# 2 64.5089 188.3004 37.4421 0.0000 0.0000 0.0000
# 3 23.3137 37.4421 32.0622 0.0000 0.0000 0.0000
# 4 0.0000 0.0000 0.0000 -25.6102 0.0000 0.0000
# 5 0.0000 0.0000 0.0000 0.0000 8.2645 0.0000
# 6 0.0000 0.0000 0.0000 0.0000 0.0000 33.1629
#
#
#
# Elastic Compliance Matrix: (Units=1/GPa)
#
#
# Indices 1 2 3 4 5 6 
#
# 1 0.014305 -0.003689 -0.006094 0.000000 0.000000 0.000000
# 2 -0.003689 0.007868 -0.006506 0.000000 0.000000 0.000000
# 3 -0.006094 -0.006506 0.043218 0.000000 0.000000 0.000000
# 4 0.000000 0.000000 0.000000 -0.039047 0.000000 0.000000
# 5 0.000000 0.000000 0.000000 0.000000 0.121000 0.000000
# 6 0.000000 0.000000 0.000000 0.000000 0.000000 0.030154
#
#
# Mechanical properties :
#
#
# Convention : Reuss Voigt Hill
#
# Bulk Modulus (GPa) = 30.47508 63.04056 46.75782
# Shear Modulus (GPa) = 22.62313 15.93485 19.27899
#
# Velocity S-wave (km/s) = 3.51184 2.94735 3.24190
# Velocity P-wave (km/s) = 5.74956 6.77858 6.28516
#
# Compressibility (1/GPa) = 0.03281370
#
# Stress axis : x y z
#
# Youngs Moduli (GPa) = 69.90617 127.09553 23.13856
#
# Poissons Ratio (x) = 0.46885 0.14100
# Poissons Ratio (y) = 0.25788 0.15054
# Poissons Ratio (z) = 0.42599 0.82688
#
# Static dielectric constant tensor:
#      x y z
#    x 3.309990 0.000000 0.000000 
#    y 0.000000 3.810590 0.000000 
#    z 0.000000 0.000000 2.995910 
# 
# 
# High freq. dielectric constant tensor:
#      x y z
#    x 1.687120 0.000000 0.000000 
#    y 0.000000 1.737940 0.000000 
#    z 0.000000 0.000000 1.658400 
# 
# From -- ./inp_files/59692.got.cif
#   From: 2010.03.12/outbox.cif.g09.slc.cpg/sg65_30_cif.got.tgz:59692.got - 2010.04.10 20:52:16.
