data_PCOD8271136
_publ_section_title
;
Structure prediction by ZEFSAII (Michael W. Deem and Ramdas Pophale) SiO2 
 PCOD8271136
Probable space group: C M M M
;
_chemical_formula_sum "Si O2"
_cell_formula_units_Z 104
_cell_length_a 29.956816
_cell_length_b 9.028922
_cell_length_c 22.343337
_cell_angle_alpha 90.000000
_cell_angle_beta 90.000000
_cell_angle_gamma 90.000000
_cell_volume 6043.375632
_symmetry_space_group_name_H-M "C M M M"
_symmetry_group_IT_number 65
_symmetry_cell_setting 'orthorhombic'
loop_
_space_group_symop_operation_xyz
x,y,z
-x,-y,z
x,-y,-z
-x,y,-z
-x,-y,-z
x,y,-z
-x,y,z
x,-y,z
1/2+x,1/2+y,z
1/2-x,1/2-y,z
1/2+x,1/2-y,-z
1/2-x,1/2+y,-z
1/2-x,1/2-y,-z
1/2+x,1/2+y,-z
1/2-x,1/2+y,z
1/2+x,1/2-y,z
loop_
_atom_site_type_symbol
_atom_site_label
_atom_site_fract_x
_atom_site_fract_y
_atom_site_fract_z
Si Si1 0.084940 0.669472 0.144076
Si Si2 0.613621 0.168995 0.726325
Si Si3 0.703996 0.171189 0.000000
Si Si4 0.204325 0.172037 0.761095
Si Si5 0.947046 0.166372 0.500000
Si Si6 0.330287 0.667720 0.889200
Si Si7 0.500000 0.173906 0.932219
Si Si8 0.448870 0.824857 0.619333
O O1 0.098306 0.500000 0.125707
O O2 0.080831 0.677589 0.215959
O O3 0.119886 0.796240 0.129165
O O4 0.041867 0.723082 0.107647
O O5 0.659883 0.259328 0.731427
O O6 0.583559 0.231006 0.672214
O O7 0.628118 0.000000 0.715021
O O8 0.750000 0.250000 0.000000
O O9 0.678501 0.215009 0.940620
O O10 0.712705 0.000000 0.000000
O O11 0.250000 0.250000 0.738412
O O12 0.202307 0.192213 0.832913
O O13 0.206210 0.000000 0.743293
O O14 0.930052 0.250665 0.558995
O O15 0.000000 0.166541 0.500000
O O16 0.927804 0.000000 0.500000
O O17 0.326590 0.500000 0.913162
O O18 0.500000 0.000000 0.939890
O O19 0.500000 0.243948 0.000000
O O20 0.500000 0.775842 0.632934
O O21 0.446450 0.000000 0.611444
#
# Coordination Sequence:
#
# PCOD8271136 Si02
#       8
#    16  16   8  16   8  16   8  16
#     4   9  18  32  50  71  97 129 166 209 250 295
#     4   9  18  31  49  75 103 133 170 210 253 297
#     4  12  24  36  52  73  94 117 148 188 241 304
#     4  10  20  34  53  73  98 129 163 204 251 301
#     4   9  17  29  45  69 102 139 176 211 251 297
#     4  10  21  36  52  71  96 124 155 197 247 301
#     4   9  18  30  47  71  97 126 168 211 249 296
#     4   9  17  29  48  73 104 140 177 213 249 290
#
# _framework density 17.208925000000001
#
# number of rings (size 3 to 8) (size 9 to 14) (size 15 to 20)
#    0.000    2.462    0.000    2.308    2.154    4.615 
#    0.000    0.385    0.000    0.462    0.000    0.538 
#    0.000    0.000    0.000    0.000    0.000    0.000 
#
# Total GULP energy -644479.243188 kJ/mol
# GULP energy per Si atom -12393.831600 kJ/mol
# Density = 1.716976 g / cm^3
# Si number density = 17.208925 Si / 1000 Ang^3
#
#
#
# Elastic Constant Matrix: (Units=GPa)
#
#
# Indices 1 2 3 4 5 6 
#
# 1 93.9159 38.1119 56.1849 0.0000 0.0000 0.0000
# 2 38.1119 82.1586 43.5491 0.0000 0.0000 0.0000
# 3 56.1849 43.5491 115.3346 0.0000 0.0000 0.0000
# 4 0.0000 0.0000 0.0000 20.4897 0.0000 0.0000
# 5 0.0000 0.0000 0.0000 0.0000 17.0798 0.0000
# 6 0.0000 0.0000 0.0000 0.0000 0.0000 20.6176
#
#
#
# Elastic Compliance Matrix: (Units=1/GPa)
#
#
# Indices 1 2 3 4 5 6 
#
# 1 0.016077 -0.004134 -0.006271 0.000000 0.000000 0.000000
# 2 -0.004134 0.016280 -0.004133 0.000000 0.000000 0.000000
# 3 -0.006271 -0.004133 0.013286 0.000000 0.000000 0.000000
# 4 0.000000 0.000000 0.000000 0.048805 0.000000 0.000000
# 5 0.000000 0.000000 0.000000 0.000000 0.058549 0.000000
# 6 0.000000 0.000000 0.000000 0.000000 0.000000 0.048502
#
#
# Mechanical properties :
#
#
# Convention : Reuss Voigt Hill
#
# Bulk Modulus (GPa) = 60.36192 63.01120 61.68656
# Shear Modulus (GPa) = 21.17767 21.87497 21.52632
#
# Velocity S-wave (km/s) = 3.51183 3.56917 3.54062
# Velocity P-wave (km/s) = 7.18303 7.32668 7.25521
#
# Compressibility (1/GPa) = 0.01656674
#
# Stress axis : x y z
#
# Youngs Moduli (GPa) = 62.20088 61.42443 75.26698
#
# Poissons Ratio (x) = 0.25392 0.47199
# Poissons Ratio (y) = 0.25713 0.31111
# Poissons Ratio (z) = 0.39006 0.25389
#
# Static dielectric constant tensor:
#      x y z
#    x 3.059290 0.000000 0.000000 
#    y 0.000000 3.149370 0.000000 
#    z 0.000000 0.000000 3.216380 
# 
# 
# High freq. dielectric constant tensor:
#      x y z
#    x 1.650980 0.000000 0.000000 
#    y 0.000000 1.661930 0.000000 
#    z 0.000000 0.000000 1.652730 
# 
# From -- ./inp_files/66473.got.cif
#   From: 2010.03.12/outbox.cif.g09.slc.cpg/sg65_34_cif.got.tgz:66473.got - 2010.04.10 20:52:16.
