data_PCOD8271211
_publ_section_title
;
Structure prediction by ZEFSAII (Michael W. Deem and Ramdas Pophale) SiO2 
 PCOD8271211
Probable space group: C M M M
;
_chemical_formula_sum "Si O2"
_cell_formula_units_Z 80
_cell_length_a 19.066701
_cell_length_b 9.042684
_cell_length_c 25.246893
_cell_angle_alpha 90.000000
_cell_angle_beta 90.000000
_cell_angle_gamma 90.000000
_cell_volume 4352.921649
_symmetry_space_group_name_H-M "C M M M"
_symmetry_group_IT_number 65
_symmetry_cell_setting 'orthorhombic'
loop_
_space_group_symop_operation_xyz
x,y,z
-x,-y,z
x,-y,-z
-x,y,-z
-x,-y,-z
x,y,-z
-x,y,z
x,-y,z
1/2+x,1/2+y,z
1/2-x,1/2-y,z
1/2+x,1/2-y,-z
1/2-x,1/2+y,-z
1/2-x,1/2-y,-z
1/2+x,1/2+y,-z
1/2-x,1/2+y,z
1/2+x,1/2-y,z
loop_
_atom_site_type_symbol
_atom_site_label
_atom_site_fract_x
_atom_site_fract_y
_atom_site_fract_z
Si Si1 0.082551 0.831053 0.205770
Si Si2 0.177755 0.326041 0.287980
Si Si3 0.577716 0.824263 0.500000
Si Si4 0.174768 0.674214 0.000000
Si Si5 0.321282 0.173024 0.408848
Si Si6 0.419253 0.827466 0.901275
O O1 0.115599 0.737125 0.252802
O O2 0.105767 0.764164 0.149591
O O3 0.000000 0.817743 0.212950
O O4 0.108305 0.000000 0.208542
O O5 0.184981 0.500000 0.279020
O O6 0.250000 0.250000 0.270554
O O7 0.158988 0.286397 0.348612
O O8 0.500000 0.754626 0.500000
O O9 0.617172 0.768913 0.447118
O O10 0.573270 0.000000 0.500000
O O11 0.250000 0.750000 0.000000
O O12 0.130291 0.724353 0.050964
O O13 0.186255 0.500000 0.000000
O O14 0.250000 0.250000 0.426812
O O15 0.309265 0.000000 0.415800
O O16 0.500000 0.792499 0.916283
O O17 0.409926 0.000000 0.888637
#
# Coordination Sequence:
#
# PCOD8271211 Si02
#       6
#    16  16   8   8  16  16
#     4  10  21  36  54  78 107 138 173 214 260 308
#     4  10  20  34  53  77 104 136 175 216 259 308
#     4   9  17  30  49  75 104 131 164 208 254 299
#     4  10  21  35  53  79 107 134 166 208 258 306
#     4   9  18  32  52  75  99 132 170 208 251 302
#     4   9  18  35  57  77 100 135 177 214 249 298
#
# _framework density 18.378461000000001
#
# number of rings (size 3 to 8) (size 9 to 14) (size 15 to 20)
#    0.000    2.500    0.000    1.800    0.000    5.600 
#    0.000    4.000    0.000    4.200    0.000    0.000 
#    0.000    0.000    0.000    0.000    0.000    0.000 
#
# Total GULP energy -496085.715555 kJ/mol
# GULP energy per Si atom -12402.142889 kJ/mol
# Density = 1.833663 g / cm^3
# Si number density = 18.378461 Si / 1000 Ang^3
#
#
#
# Elastic Constant Matrix: (Units=GPa)
#
#
# Indices 1 2 3 4 5 6 
#
# 1 112.9523 41.5304 82.2805 0.0000 0.0000 0.0000
# 2 41.5304 64.5904 49.0591 0.0000 0.0000 0.0000
# 3 82.2805 49.0591 132.6402 0.0000 0.0000 0.0000
# 4 0.0000 0.0000 0.0000 22.1147 0.0000 0.0000
# 5 0.0000 0.0000 0.0000 0.0000 34.2477 0.0000
# 6 0.0000 0.0000 0.0000 0.0000 0.0000 31.9159
#
#
#
# Elastic Compliance Matrix: (Units=1/GPa)
#
#
# Indices 1 2 3 4 5 6 
#
# 1 0.016875 -0.004032 -0.008977 0.000000 0.000000 0.000000
# 2 -0.004032 0.022494 -0.005819 0.000000 0.000000 0.000000
# 3 -0.008977 -0.005819 0.015260 0.000000 0.000000 0.000000
# 4 0.000000 0.000000 0.000000 0.045219 0.000000 0.000000
# 5 0.000000 0.000000 0.000000 0.000000 0.029199 0.000000
# 6 0.000000 0.000000 0.000000 0.000000 0.000000 0.031332
#
#
# Mechanical properties :
#
#
# Convention : Reuss Voigt Hill
#
# Bulk Modulus (GPa) = 58.91308 72.88034 65.89671
# Shear Modulus (GPa) = 24.54689 26.80986 25.67837
#
# Velocity S-wave (km/s) = 3.65860 3.82352 3.74197
# Velocity P-wave (km/s) = 7.06910 7.69635 7.38938
#
# Compressibility (1/GPa) = 0.01697416
#
# Stress axis : x y z
#
# Youngs Moduli (GPa) = 59.25967 44.45581 65.53178
#
# Poissons Ratio (x) = 0.17925 0.58825
# Poissons Ratio (y) = 0.23894 0.38131
# Poissons Ratio (z) = 0.53195 0.25867
#
# Static dielectric constant tensor:
#      x y z
#    x 3.421040 0.000000 0.000000 
#    y 0.000000 3.325740 0.000000 
#    z 0.000000 0.000000 3.523000 
# 
# 
# High freq. dielectric constant tensor:
#      x y z
#    x 1.709570 0.000000 0.000000 
#    y 0.000000 1.704120 0.000000 
#    z 0.000000 0.000000 1.723230 
# 
# From -- ./inp_files/75040.got.cif
#   From: 2010.03.12/outbox.cif.g09.slc.cpg/sg65_38_cif.got.tgz:75040.got - 2010.04.10 20:52:16.
