data_PCOD8271704
_publ_section_title
;
Structure prediction by ZEFSAII (Michael W. Deem and Ramdas Pophale) SiO2 
 PCOD8271704
Probable space group: C M M M
;
_chemical_formula_sum "Si O2"
_cell_formula_units_Z 64
_cell_length_a 8.705188
_cell_length_b 19.637448
_cell_length_c 20.487995
_cell_angle_alpha 90.000000
_cell_angle_beta 90.000000
_cell_angle_gamma 90.000000
_cell_volume 3502.375145
_symmetry_space_group_name_H-M "C M M M"
_symmetry_group_IT_number 65
_symmetry_cell_setting 'orthorhombic'
loop_
_space_group_symop_operation_xyz
x,y,z
-x,-y,z
x,-y,-z
-x,y,-z
-x,-y,-z
x,y,-z
-x,y,z
x,-y,z
1/2+x,1/2+y,z
1/2-x,1/2-y,z
1/2+x,1/2-y,-z
1/2-x,1/2+y,-z
1/2-x,1/2-y,-z
1/2+x,1/2+y,-z
1/2-x,1/2+y,z
1/2+x,1/2-y,z
loop_
_atom_site_type_symbol
_atom_site_label
_atom_site_fract_x
_atom_site_fract_y
_atom_site_fract_z
Si Si1 0.181786 0.920728 0.500000
Si Si2 0.184187 0.576060 0.860130
Si Si3 0.818865 0.679329 0.753180
Si Si4 0.318112 0.822410 0.395385
Si Si5 0.331633 0.080974 0.000000
O O1 0.249541 0.884524 0.436192
O O2 0.000000 0.913064 0.500000
O O3 0.231536 0.000000 0.500000
O O4 0.242949 0.500000 0.845376
O O5 0.248546 0.622409 0.801762
O O6 0.000000 0.577370 0.863000
O O7 0.250107 0.601834 0.931229
O O8 0.750000 0.750000 0.777159
O O9 0.768790 0.662958 0.679180
O O10 0.000000 0.683553 0.758277
O O11 0.500000 0.819773 0.404976
O O12 0.250000 0.750000 0.419056
O O13 0.500000 0.114846 0.000000
O O14 0.348488 0.000000 0.000000
#
# Coordination Sequence:
#
# PCOD8271704 Si02
#       5
#     8  16  16  16   8
#     4  11  24  39  54  75 103 129 154 193 242 287
#     4   8  13  23  41  65  91 120 157 198 236 273
#     4   9  18  31  48  70  96 125 155 192 234 277
#     4  10  20  35  55  75  97 129 166 200 237 286
#     4   7  10  18  35  60  89 119 152 193 236 274
#
# _framework density 18.273313999999999
#
# number of rings (size 3 to 8) (size 9 to 14) (size 15 to 20)
#    0.000    3.000    0.000    3.000    0.000    3.000 
#    0.000    3.125    0.000    0.750    0.000    0.000 
#    0.000    3.000    0.000    0.000    0.000    0.000 
#
# Total GULP energy -396524.487976 kJ/mol
# GULP energy per Si atom -12391.390249 kJ/mol
# Density = 1.823172 g / cm^3
# Si number density = 18.273314 Si / 1000 Ang^3
#
#
#
# Elastic Constant Matrix: (Units=GPa)
#
#
# Indices 1 2 3 4 5 6 
#
# 1 34.4536 31.6365 24.7366 0.0000 0.0000 0.0000
# 2 31.6365 140.4623 97.5349 0.0000 0.0000 0.0000
# 3 24.7366 97.5349 150.8586 0.0000 0.0000 0.0000
# 4 0.0000 0.0000 0.0000 554.4972 0.0000 0.0000
# 5 0.0000 0.0000 0.0000 0.0000 8.2971 0.0000
# 6 0.0000 0.0000 0.0000 0.0000 0.0000 22.9916
#
#
#
# Elastic Compliance Matrix: (Units=1/GPa)
#
#
# Indices 1 2 3 4 5 6 
#
# 1 0.036716 -0.007421 -0.001223 0.000000 0.000000 0.000000
# 2 -0.007421 0.014419 -0.008106 0.000000 0.000000 0.000000
# 3 -0.001223 -0.008106 0.012070 0.000000 0.000000 0.000000
# 4 0.000000 0.000000 0.000000 0.001803 0.000000 0.000000
# 5 0.000000 0.000000 0.000000 0.000000 0.120524 0.000000
# 6 0.000000 0.000000 0.000000 0.000000 0.000000 0.043494
#
#
# Mechanical properties :
#
#
# Convention : Reuss Voigt Hill
#
# Bulk Modulus (GPa) = 33.66189 70.39893 52.03041
# Shear Modulus (GPa) = 18.35353 128.61495 73.48424
#
# Velocity S-wave (km/s) = 3.17265 8.39862 6.34833
# Velocity P-wave (km/s) = 5.64644 11.51774 9.07030
#
# Compressibility (1/GPa) = 0.02970719
#
# Stress axis : x y z
#
# Youngs Moduli (GPa) = 27.23583 69.35224 82.85137
#
# Poissons Ratio (x) = 0.51463 0.10131
# Poissons Ratio (y) = 0.20211 0.67157
# Poissons Ratio (z) = 0.03330 0.56215
#
# Static dielectric constant tensor:
#      x y z
#    x 2.989090 0.000000 0.000000 
#    y 0.000000 3.450570 0.000000 
#    z 0.000000 0.000000 3.883100 
# 
# 
# High freq. dielectric constant tensor:
#      x y z
#    x 1.669970 0.000000 0.000000 
#    y 0.000000 1.691090 0.000000 
#    z 0.000000 0.000000 1.729550 
# 
# From -- ./inp_files/58823.got.cif
#   From: 2010.03.12/outbox.cif.g09.slc.cpg/sg65_30_cif.got.tgz:58823.got - 2010.04.10 20:52:16.
