data_PCOD8271626
_publ_section_title
;
Structure prediction by ZEFSAII (Michael W. Deem and Ramdas Pophale) SiO2 
 PCOD8271626
Probable space group: C M M M
;
_chemical_formula_sum "Si O2"
_cell_formula_units_Z 96
_cell_length_a 8.691603
_cell_length_b 25.985239
_cell_length_c 23.661558
_cell_angle_alpha 90.000000
_cell_angle_beta 90.000000
_cell_angle_gamma 90.000000
_cell_volume 5344.042880
_symmetry_space_group_name_H-M "C M M M"
_symmetry_group_IT_number 65
_symmetry_cell_setting 'orthorhombic'
loop_
_space_group_symop_operation_xyz
x,y,z
-x,-y,z
x,-y,-z
-x,y,-z
-x,-y,-z
x,y,-z
-x,y,z
x,-y,z
1/2+x,1/2+y,z
1/2-x,1/2-y,z
1/2+x,1/2-y,-z
1/2-x,1/2+y,-z
1/2-x,1/2-y,-z
1/2+x,1/2+y,-z
1/2-x,1/2+y,z
1/2+x,1/2-y,z
loop_
_atom_site_type_symbol
_atom_site_label
_atom_site_fract_x
_atom_site_fract_y
_atom_site_fract_z
Si Si1 0.317063 0.500000 0.628500
Si Si2 0.316424 0.599869 0.563886
Si Si3 0.317601 0.057690 0.938588
Si Si4 0.817090 0.000000 0.757532
Si Si5 0.818040 0.803976 0.237318
Si Si6 0.318722 0.303270 0.633360
Si Si7 0.682658 0.902330 0.178815
O O1 0.500000 0.500000 0.626092
O O2 0.251634 0.550197 0.596689
O O3 0.260132 0.500000 0.692834
O O4 0.253610 0.599258 0.500000
O O5 0.500000 0.599568 0.564650
O O6 0.252828 0.650610 0.595185
O O7 0.500000 0.055228 0.938441
O O8 0.262037 0.092965 0.886597
O O9 0.252598 0.000000 0.929571
O O10 0.260349 0.079102 0.000000
O O11 0.752732 0.948907 0.785888
O O12 0.000000 0.000000 0.761716
O O13 0.750000 0.750000 0.215645
O O14 0.768399 0.813437 0.302120
O O15 0.745472 0.848391 0.199891
O O16 0.000000 0.803934 0.229966
O O17 0.500000 0.299651 0.628332
O O18 0.250000 0.250000 0.610392
O O19 0.500000 0.904444 0.184727
#
# Coordination Sequence:
#
# PCOD8271626 Si02
#       7
#     8  16  16   8  16  16  16
#     4   9  17  29  44  64  93 128 162 197 242 294
#     4   9  16  27  45  68  92 120 157 200 243 290
#     4   8  14  27  48  73 102 135 168 203 245 293
#     4  11  21  32  48  73 106 139 168 205 254 302
#     4  10  20  35  53  74 102 136 170 207 252 303
#     4   9  18  32  49  70  96 124 157 197 245 296
#     4  11  20  32  52  79 106 132 169 212 251 299
#
# _framework density 17.963927999999999
#
# number of rings (size 3 to 8) (size 9 to 14) (size 15 to 20)
#    0.000    2.500    0.833    3.000    0.000    4.667 
#    0.000    0.000    0.000    3.000    0.000    0.000 
#    0.000    5.333    0.000    0.000    0.000    0.000 
#
# Total GULP energy -595078.239319 kJ/mol
# GULP energy per Si atom -12397.463319 kJ/mol
# Density = 1.792304 g / cm^3
# Si number density = 17.963928 Si / 1000 Ang^3
#
#
#
# Elastic Constant Matrix: (Units=GPa)
#
#
# Indices 1 2 3 4 5 6 
#
# 1 38.0603 31.0343 32.8941 0.0000 0.0000 0.0000
# 2 31.0343 173.2156 105.7820 0.0000 0.0000 0.0000
# 3 32.8941 105.7820 165.6945 0.0000 0.0000 0.0000
# 4 0.0000 0.0000 0.0000 21.1850 0.0000 0.0000
# 5 0.0000 0.0000 0.0000 0.0000 16.0809 0.0000
# 6 0.0000 0.0000 0.0000 0.0000 0.0000 29.6057
#
#
#
# Elastic Compliance Matrix: (Units=1/GPa)
#
#
# Indices 1 2 3 4 5 6 
#
# 1 0.032704 -0.003105 -0.004510 0.000000 0.000000 0.000000
# 2 -0.003105 0.009757 -0.005613 0.000000 0.000000 0.000000
# 3 -0.004510 -0.005613 0.010514 0.000000 0.000000 0.000000
# 4 0.000000 0.000000 0.000000 0.047203 0.000000 0.000000
# 5 0.000000 0.000000 0.000000 0.000000 0.062185 0.000000
# 6 0.000000 0.000000 0.000000 0.000000 0.000000 0.033777
#
#
# Mechanical properties :
#
#
# Convention : Reuss Voigt Hill
#
# Bulk Modulus (GPa) = 37.70875 79.59902 58.65389
# Shear Modulus (GPa) = 21.60422 27.19165 24.39794
#
# Velocity S-wave (km/s) = 3.47168 3.89483 3.68932
# Velocity P-wave (km/s) = 6.09155 8.03946 7.13232
#
# Compressibility (1/GPa) = 0.02651904
#
# Stress axis : x y z
#
# Youngs Moduli (GPa) = 30.57736 102.48935 95.11334
#
# Poissons Ratio (x) = 0.31824 0.42897
# Poissons Ratio (y) = 0.09495 0.53384
# Poissons Ratio (z) = 0.13791 0.57524
#
# Static dielectric constant tensor:
#      x y z
#    x 2.993260 0.000000 0.000000 
#    y 0.000000 3.498970 0.000000 
#    z 0.000000 0.000000 3.698640 
# 
# 
# High freq. dielectric constant tensor:
#      x y z
#    x 1.662050 0.000000 0.000000 
#    y 0.000000 1.695660 0.000000 
#    z 0.000000 0.000000 1.701890 
# 
# From -- ./inp_files/67875.got.cif
#   From: 2010.03.12/outbox.cif.g09.slc.cpg/sg65_34_cif.got.tgz:67875.got - 2010.04.10 20:52:16.
