data_PCOD8271979
_publ_section_title
;
Structure prediction by ZEFSAII (Michael W. Deem and Ramdas Pophale) SiO2 
 PCOD8271979
Probable space group: C M M M
;
_chemical_formula_sum "Si O2"
_cell_formula_units_Z 88
_cell_length_a 27.037245
_cell_length_b 19.016623
_cell_length_c 9.107675
_cell_angle_alpha 90.000000
_cell_angle_beta 90.000000
_cell_angle_gamma 90.000000
_cell_volume 4682.775721
_symmetry_space_group_name_H-M "C M M M"
_symmetry_group_IT_number 65
_symmetry_cell_setting 'orthorhombic'
loop_
_space_group_symop_operation_xyz
x,y,z
-x,-y,z
x,-y,-z
-x,y,-z
-x,-y,-z
x,y,-z
-x,y,z
x,-y,z
1/2+x,1/2+y,z
1/2-x,1/2-y,z
1/2+x,1/2-y,-z
1/2-x,1/2+y,-z
1/2-x,1/2-y,-z
1/2+x,1/2+y,-z
1/2-x,1/2+y,z
1/2+x,1/2-y,z
loop_
_atom_site_type_symbol
_atom_site_label
_atom_site_fract_x
_atom_site_fract_y
_atom_site_fract_z
Si Si1 0.194943 0.419406 0.826930
Si Si2 0.500000 0.079388 0.174563
Si Si3 0.441854 0.420230 0.165055
Si Si4 0.403004 0.161483 0.174271
Si Si5 0.616215 0.305785 0.328316
Si Si6 0.771234 0.175848 0.672148
O O1 0.190387 0.500000 0.777760
O O2 0.145749 0.379677 0.771907
O O3 0.243492 0.387055 0.753483
O O4 0.200810 0.412324 0.000000
O O5 0.451131 0.119518 0.231233
O O6 0.500000 0.000000 0.237813
O O7 0.500000 0.076638 0.000000
O O8 0.500000 0.412978 0.183376
O O9 0.424962 0.500000 0.194661
O O10 0.416901 0.371963 0.286538
O O11 0.426202 0.397559 0.000000
O O12 0.403740 0.238336 0.243139
O O13 0.404051 0.168970 0.000000
O O14 0.612347 0.290008 0.500000
O O15 0.671719 0.325524 0.282260
O O16 0.762932 0.165605 0.500000
O O17 0.750000 0.250000 0.726792
#
# Coordination Sequence:
#
# PCOD8271979 Si02
#       6
#    16   8  16  16  16  16
#     4  10  21  36  57  86 115 144 185 236 284 330
#     4   9  18  34  57  83 112 147 186 229 275 328
#     4   9  20  40  63  85 112 147 185 226 277 337
#     4  10  20  35  57  84 114 149 188 230 278 332
#     4  11  23  37  57  84 115 149 188 233 278 330
#     4  10  21  39  57  76 109 151 191 227 273 333
#
# _framework density 18.792273000000002
#
# number of rings (size 3 to 8) (size 9 to 14) (size 15 to 20)
#    0.000    2.091    1.818    1.636    1.273    5.818 
#    0.000    4.545    0.000    2.182    0.000    0.000 
#    0.000    0.000    0.000    0.000    0.000    0.000 
#
# Total GULP energy -545750.303334 kJ/mol
# GULP energy per Si atom -12403.415985 kJ/mol
# Density = 1.874950 g / cm^3
# Si number density = 18.792273 Si / 1000 Ang^3
#
#
#
# Elastic Constant Matrix: (Units=GPa)
#
#
# Indices 1 2 3 4 5 6 
#
# 1 103.7286 65.9142 29.8655 0.0000 0.0000 0.0000
# 2 65.9142 129.4281 32.1648 0.0000 0.0000 0.0000
# 3 29.8655 32.1648 27.8954 0.0000 0.0000 0.0000
# 4 0.0000 0.0000 0.0000 14.5132 0.0000 0.0000
# 5 0.0000 0.0000 0.0000 0.0000 26.8616 0.0000
# 6 0.0000 0.0000 0.0000 0.0000 0.0000 38.3049
#
#
#
# Elastic Compliance Matrix: (Units=1/GPa)
#
#
# Indices 1 2 3 4 5 6 
#
# 1 0.016387 -0.005586 -0.011103 0.000000 0.000000 0.000000
# 2 -0.005586 0.012734 -0.008702 0.000000 0.000000 0.000000
# 3 -0.011103 -0.008702 0.057770 0.000000 0.000000 0.000000
# 4 0.000000 0.000000 0.000000 0.068903 0.000000 0.000000
# 5 0.000000 0.000000 0.000000 0.000000 0.037228 0.000000
# 6 0.000000 0.000000 0.000000 0.000000 0.000000 0.026106
#
#
# Mechanical properties :
#
#
# Convention : Reuss Voigt Hill
#
# Bulk Modulus (GPa) = 27.69508 57.43791 42.56649
# Shear Modulus (GPa) = 17.73386 24.80977 21.27181
#
# Velocity S-wave (km/s) = 3.07527 3.63741 3.36809
# Velocity P-wave (km/s) = 5.23251 6.94781 6.15025
#
# Compressibility (1/GPa) = 0.03610750
#
# Stress axis : x y z
#
# Youngs Moduli (GPa) = 61.02338 78.53139 17.31015
#
# Poissons Ratio (x) = 0.43869 0.19220
# Poissons Ratio (y) = 0.34089 0.15063
# Poissons Ratio (z) = 0.67756 0.68338
#
# Static dielectric constant tensor:
#      x y z
#    x 3.581110 0.000000 0.000000 
#    y 0.000000 3.504120 0.000000 
#    z 0.000000 0.000000 3.215530 
# 
# 
# High freq. dielectric constant tensor:
#      x y z
#    x 1.739560 0.000000 0.000000 
#    y 0.000000 1.740520 0.000000 
#    z 0.000000 0.000000 1.710330 
# 
# From -- ./inp_files/11843.got.cif
#   From: 2010.03.12/outbox.cif.g09.slc.cpg/sg65_6_cif.got.tgz:11843.got - 2010.04.10 20:52:16.
