data_PCOD8271996
_publ_section_title
;
Structure prediction by ZEFSAII (Michael W. Deem and Ramdas Pophale) SiO2 
 PCOD8271996
Probable space group: C M M M
;
_chemical_formula_sum "Si O2"
_cell_formula_units_Z 64
_cell_length_a 15.834172
_cell_length_b 8.911477
_cell_length_c 22.299721
_cell_angle_alpha 90.000000
_cell_angle_beta 90.000000
_cell_angle_gamma 90.000000
_cell_volume 3146.621300
_symmetry_space_group_name_H-M "C M M M"
_symmetry_group_IT_number 65
_symmetry_cell_setting 'orthorhombic'
loop_
_space_group_symop_operation_xyz
x,y,z
-x,-y,z
x,-y,-z
-x,y,-z
-x,-y,-z
x,y,-z
-x,y,z
x,-y,z
1/2+x,1/2+y,z
1/2-x,1/2-y,z
1/2+x,1/2-y,-z
1/2-x,1/2+y,-z
1/2-x,1/2-y,-z
1/2+x,1/2+y,-z
1/2-x,1/2+y,z
1/2+x,1/2-y,z
loop_
_atom_site_type_symbol
_atom_site_label
_atom_site_fract_x
_atom_site_fract_y
_atom_site_fract_z
Si Si1 0.336923 0.322114 0.359715
Si Si2 0.839850 0.821751 0.000000
Si Si3 0.500000 0.678382 0.432342
Si Si4 0.401796 0.665775 0.873816
Si Si5 0.400043 0.827732 0.243235
O O1 0.328969 0.500000 0.363162
O O2 0.250000 0.250000 0.384314
O O3 0.415476 0.262185 0.399536
O O4 0.351982 0.272985 0.291510
O O5 0.750000 0.750000 0.000000
O O6 0.885940 0.764389 0.939720
O O7 0.836809 0.000000 0.000000
O O8 0.500000 0.500000 0.431278
O O9 0.500000 0.740753 0.500000
O O10 0.500000 0.649013 0.863915
O O11 0.359780 0.500000 0.868027
O O12 0.366558 0.775290 0.822139
O O13 0.500000 0.804245 0.250123
O O14 0.374411 0.000000 0.252472
#
# Coordination Sequence:
#
# PCOD8271996 Si02
#       5
#    16   8   8  16  16
#     4  11  22  38  62  91 123 161 202 245 296 351
#     4  10  21  35  51  73 103 140 180 232 288 346
#     4   9  20  40  65  91 123 162 201 242 291 351
#     4   9  18  34  56  78 103 141 190 235 283 344
#     4  10  20  35  57  85 117 150 191 243 296 349
#
# _framework density 20.339276000000002
#
# number of rings (size 3 to 8) (size 9 to 14) (size 15 to 20)
#    0.000    2.125    1.250    1.875    0.000    5.000 
#    0.000    2.500    0.000    9.000    0.000    0.000 
#    0.000    0.000    0.000    0.000    0.000    0.000 
#
# Total GULP energy -396749.004862 kJ/mol
# GULP energy per Si atom -12398.406402 kJ/mol
# Density = 2.029298 g / cm^3
# Si number density = 20.339276 Si / 1000 Ang^3
#
#
#
# Elastic Constant Matrix: (Units=GPa)
#
#
# Indices 1 2 3 4 5 6 
#
# 1 99.0374 39.6213 57.3471 0.0000 0.0000 0.0000
# 2 39.6213 65.6848 35.7158 0.0000 0.0000 0.0000
# 3 57.3471 35.7158 153.5872 0.0000 0.0000 0.0000
# 4 0.0000 0.0000 0.0000 17.6277 0.0000 0.0000
# 5 0.0000 0.0000 0.0000 0.0000 13.5310 0.0000
# 6 0.0000 0.0000 0.0000 0.0000 0.0000 31.1724
#
#
#
# Elastic Compliance Matrix: (Units=1/GPa)
#
#
# Indices 1 2 3 4 5 6 
#
# 1 0.015248 -0.006985 -0.004069 0.000000 0.000000 0.000000
# 2 -0.006985 0.020628 -0.002189 0.000000 0.000000 0.000000
# 3 -0.004069 -0.002189 0.008539 0.000000 0.000000 0.000000
# 4 0.000000 0.000000 0.000000 0.056729 0.000000 0.000000
# 5 0.000000 0.000000 0.000000 0.000000 0.073904 0.000000
# 6 0.000000 0.000000 0.000000 0.000000 0.000000 0.032080
#
#
# Mechanical properties :
#
#
# Convention : Reuss Voigt Hill
#
# Bulk Modulus (GPa) = 55.77478 64.85309 60.31394
# Shear Modulus (GPa) = 20.86906 24.84125 22.85515
#
# Velocity S-wave (km/s) = 3.20667 3.49856 3.35579
# Velocity P-wave (km/s) = 6.41810 6.94801 6.68831
#
# Compressibility (1/GPa) = 0.01792925
#
# Stress axis : x y z
#
# Youngs Moduli (GPa) = 65.58345 48.47837 117.10661
#
# Poissons Ratio (x) = 0.33862 0.47650
# Poissons Ratio (y) = 0.45810 0.25632
# Poissons Ratio (z) = 0.26686 0.10611
#
# Static dielectric constant tensor:
#      x y z
#    x 3.667240 0.000000 0.000000 
#    y 0.000000 3.575560 0.000000 
#    z 0.000000 0.000000 3.694430 
# 
# 
# High freq. dielectric constant tensor:
#      x y z
#    x 1.787780 0.000000 0.000000 
#    y 0.000000 1.777740 0.000000 
#    z 0.000000 0.000000 1.800770 
# 
# From -- ./inp_files/66813.got.cif
#   From: 2010.03.12/outbox.cif.g09.slc.cpg/sg65_34_cif.got.tgz:66813.got - 2010.04.10 20:52:16.
