data_PCOD8271666
_publ_section_title
;
Structure prediction by ZEFSAII (Michael W. Deem and Ramdas Pophale) SiO2 
 PCOD8271666
Probable space group: C M M M
;
_chemical_formula_sum "Si O2"
_cell_formula_units_Z 88
_cell_length_a 7.895518
_cell_length_b 19.431199
_cell_length_c 29.547539
_cell_angle_alpha 90.000000
_cell_angle_beta 90.000000
_cell_angle_gamma 90.000000
_cell_volume 4533.165157
_symmetry_space_group_name_H-M "C M M M"
_symmetry_group_IT_number 65
_symmetry_cell_setting 'orthorhombic'
loop_
_space_group_symop_operation_xyz
x,y,z
-x,-y,z
x,-y,-z
-x,y,-z
-x,-y,-z
x,y,-z
-x,y,z
x,-y,z
1/2+x,1/2+y,z
1/2-x,1/2-y,z
1/2+x,1/2-y,-z
1/2-x,1/2+y,-z
1/2-x,1/2-y,-z
1/2+x,1/2+y,-z
1/2-x,1/2+y,z
1/2+x,1/2-y,z
loop_
_atom_site_type_symbol
_atom_site_label
_atom_site_fract_x
_atom_site_fract_y
_atom_site_fract_z
Si Si1 0.804715 0.080763 0.113696
Si Si2 0.696901 0.923761 0.372837
Si Si3 0.700183 0.174353 0.449580
Si Si4 0.500000 0.918503 0.050421
Si Si5 0.802121 0.175921 0.805490
Si Si6 0.699402 0.674602 0.295250
O O1 0.673605 0.105655 0.075023
O O2 0.743137 0.117285 0.159757
O O3 0.000000 0.100331 0.100536
O O4 0.789112 0.000000 0.122382
O O5 0.500000 0.931582 0.382260
O O6 0.779377 0.880727 0.414424
O O7 0.721445 0.884610 0.325787
O O8 0.780263 0.000000 0.370545
O O9 0.774523 0.160718 0.500000
O O10 0.500000 0.168028 0.450391
O O11 0.750000 0.250000 0.432480
O O12 0.500000 0.000000 0.047725
O O13 0.500000 0.886484 0.000000
O O14 0.750000 0.250000 0.825417
O O15 0.723056 0.164705 0.755447
O O16 0.000000 0.172784 0.799673
O O17 0.500000 0.666119 0.296168
O O18 0.750000 0.750000 0.313748
#
# Coordination Sequence:
#
# PCOD8271666 Si02
#       6
#    16  16  16   8  16  16
#     4   9  18  33  52  77 107 138 176 221 267 314
#     4  10  21  35  50  73 104 135 169 210 259 310
#     4   9  18  33  53  74  96 127 168 212 257 306
#     4   9  18  32  52  80 108 138 179 221 266 318
#     4   9  19  33  52  77 101 134 172 210 257 308
#     4  10  20  35  54  75 102 134 173 213 254 310
#
# _framework density 19.412483999999999
#
# number of rings (size 3 to 8) (size 9 to 14) (size 15 to 20)
#    0.000    2.636    0.000    1.091    1.273    4.727 
#    0.000    5.455    0.000    0.545    0.000    3.818 
#    0.000    0.000    0.000    0.000    0.000    0.000 
#
# Total GULP energy -545412.484499 kJ/mol
# GULP energy per Si atom -12395.738284 kJ/mol
# Density = 1.936830 g / cm^3
# Si number density = 19.412484 Si / 1000 Ang^3
#
#
#
# Elastic Constant Matrix: (Units=GPa)
#
#
# Indices 1 2 3 4 5 6 
#
# 1 45.3419 24.2091 35.1008 0.0000 0.0000 0.0000
# 2 24.2091 127.6876 83.7178 0.0000 0.0000 0.0000
# 3 35.1008 83.7178 141.6750 0.0000 0.0000 0.0000
# 4 0.0000 0.0000 0.0000 33.0565 0.0000 0.0000
# 5 0.0000 0.0000 0.0000 0.0000 23.8719 0.0000
# 6 0.0000 0.0000 0.0000 0.0000 0.0000 20.6397
#
#
#
# Elastic Compliance Matrix: (Units=1/GPa)
#
#
# Indices 1 2 3 4 5 6 
#
# 1 0.027403 -0.001215 -0.006072 0.000000 0.000000 0.000000
# 2 -0.001215 0.012839 -0.007286 0.000000 0.000000 0.000000
# 3 -0.006072 -0.007286 0.012868 0.000000 0.000000 0.000000
# 4 0.000000 0.000000 0.000000 0.030251 0.000000 0.000000
# 5 0.000000 0.000000 0.000000 0.000000 0.041890 0.000000
# 6 0.000000 0.000000 0.000000 0.000000 0.000000 0.048450
#
#
# Mechanical properties :
#
#
# Convention : Reuss Voigt Hill
#
# Bulk Modulus (GPa) = 41.72557 66.75110 54.23834
# Shear Modulus (GPa) = 23.71531 26.95875 25.33703
#
# Velocity S-wave (km/s) = 3.49901 3.73061 3.61666
# Velocity P-wave (km/s) = 6.15345 7.28127 6.74099
#
# Compressibility (1/GPa) = 0.02396612
#
# Stress axis : x y z
#
# Youngs Moduli (GPa) = 36.49174 77.88940 77.71315
#
# Poissons Ratio (x) = 0.09462 0.47184
# Poissons Ratio (y) = 0.04433 0.56619
# Poissons Ratio (z) = 0.22156 0.56747
#
# Static dielectric constant tensor:
#      x y z
#    x 3.475500 0.000000 0.000000 
#    y 0.000000 3.543100 0.000000 
#    z 0.000000 0.000000 3.972410 
# 
# 
# High freq. dielectric constant tensor:
#      x y z
#    x 1.748780 0.000000 0.000000 
#    y 0.000000 1.741340 0.000000 
#    z 0.000000 0.000000 1.754970 
# 
# From -- ./inp_files/76615.got.cif
#   From: 2010.03.12/outbox.cif.g09.slc.cpg/sg65_39_cif.got.tgz:76615.got - 2010.04.10 20:52:16.
