data_PCOD8271309
_publ_section_title
;
Structure prediction by ZEFSAII (Michael W. Deem and Ramdas Pophale) SiO2 
 PCOD8271309
Probable space group: C M M M
;
_chemical_formula_sum "Si O2"
_cell_formula_units_Z 104
_cell_length_a 32.561915
_cell_length_b 8.659416
_cell_length_c 20.546598
_cell_angle_alpha 90.000000
_cell_angle_beta 90.000000
_cell_angle_gamma 90.000000
_cell_volume 5793.466045
_symmetry_space_group_name_H-M "C M M M"
_symmetry_group_IT_number 65
_symmetry_cell_setting 'orthorhombic'
loop_
_space_group_symop_operation_xyz
x,y,z
-x,-y,z
x,-y,-z
-x,y,-z
-x,-y,-z
x,y,-z
-x,y,z
x,-y,z
1/2+x,1/2+y,z
1/2-x,1/2-y,z
1/2+x,1/2-y,-z
1/2-x,1/2+y,-z
1/2-x,1/2-y,-z
1/2+x,1/2+y,-z
1/2-x,1/2+y,z
1/2+x,1/2-y,z
loop_
_atom_site_type_symbol
_atom_site_label
_atom_site_fract_x
_atom_site_fract_y
_atom_site_fract_z
Si Si1 0.795254 0.180600 0.000000
Si Si2 0.368989 0.320590 0.322901
Si Si3 0.000000 0.178888 0.641514
Si Si4 0.660545 0.178963 0.122275
Si Si5 0.000000 0.681864 0.217599
Si Si6 0.794421 0.320160 0.255651
Si Si7 0.414742 0.680671 0.809834
Si Si8 0.923656 0.677919 0.424966
O O1 0.750000 0.250000 0.000000
O O2 0.820935 0.228190 0.937285
O O3 0.789241 0.000000 0.000000
O O4 0.369484 0.500000 0.340682
O O5 0.323159 0.268494 0.306409
O O6 0.399444 0.283512 0.263120
O O7 0.383132 0.221501 0.384758
O O8 0.000000 0.280068 0.706249
O O9 0.039468 0.213820 0.598128
O O10 0.000000 0.000000 0.662392
O O11 0.690252 0.210896 0.182854
O O12 0.614762 0.237615 0.137917
O O13 0.658445 0.000000 0.103929
O O14 0.039749 0.752225 0.182105
O O15 0.000000 0.500000 0.208112
O O16 0.794470 0.500000 0.272544
O O17 0.750000 0.250000 0.263959
O O18 0.414673 0.500000 0.824510
O O19 0.914255 0.711242 0.500000
O O20 0.935656 0.500000 0.413295
#
# Coordination Sequence:
#
# PCOD8271309 Si02
#       8
#     8  16   8  16   8  16  16  16
#     4  12  24  38  58  85 118 155 190 228 274 326
#     4  10  20  34  54  77 105 139 178 222 272 325
#     4  12  23  35  52  77 107 143 183 226 273 325
#     4  10  21  37  57  83 115 150 186 224 271 326
#     4  12  22  33  55  81 111 147 185 230 277 324
#     4  10  20  34  55  81 110 140 177 222 271 323
#     4  10  20  35  55  81 111 144 184 230 276 322
#     4  11  23  37  53  75 106 143 181 222 272 330
#
# _framework density 17.951257999999999
#
# number of rings (size 3 to 8) (size 9 to 14) (size 15 to 20)
#    0.000    1.385    1.538    5.077    0.000    6.462 
#    0.000    0.000    0.000    0.923    0.000    3.231 
#    0.000    0.000    0.000    0.000    0.000    0.000 
#
# Total GULP energy -645110.992564 kJ/mol
# GULP energy per Si atom -12405.980626 kJ/mol
# Density = 1.791040 g / cm^3
# Si number density = 17.951258 Si / 1000 Ang^3
#
#
#
# Elastic Constant Matrix: (Units=GPa)
#
#
# Indices 1 2 3 4 5 6 
#
# 1 142.8582 42.7734 46.6578 0.0000 0.0000 0.0000
# 2 42.7734 85.3988 37.8074 0.0000 0.0000 0.0000
# 3 46.6578 37.8074 80.2330 0.0000 0.0000 0.0000
# 4 0.0000 0.0000 0.0000 27.6372 0.0000 0.0000
# 5 0.0000 0.0000 0.0000 0.0000 43.2812 0.0000
# 6 0.0000 0.0000 0.0000 0.0000 0.0000 36.7693
#
#
#
# Elastic Compliance Matrix: (Units=1/GPa)
#
#
# Indices 1 2 3 4 5 6 
#
# 1 0.009146 -0.002813 -0.003993 0.000000 0.000000 0.000000
# 2 -0.002813 0.015662 -0.005744 0.000000 0.000000 0.000000
# 3 -0.003993 -0.005744 0.017493 0.000000 0.000000 0.000000
# 4 0.000000 0.000000 0.000000 0.036183 0.000000 0.000000
# 5 0.000000 0.000000 0.000000 0.000000 0.023105 0.000000
# 6 0.000000 0.000000 0.000000 0.000000 0.000000 0.027197
#
#
# Mechanical properties :
#
#
# Convention : Reuss Voigt Hill
#
# Bulk Modulus (GPa) = 58.14101 62.55191 60.34646
# Shear Modulus (GPa) = 31.32435 33.62097 32.47266
#
# Velocity S-wave (km/s) = 4.18181 4.33240 4.25777
# Velocity P-wave (km/s) = 7.46829 7.74257 7.60666
#
# Compressibility (1/GPa) = 0.01719956
#
# Stress axis : x y z
#
# Youngs Moduli (GPa) = 109.33163 63.84924 57.16674
#
# Poissons Ratio (x) = 0.17963 0.22828
# Poissons Ratio (y) = 0.30758 0.32838
# Poissons Ratio (z) = 0.43659 0.36676
#
# Static dielectric constant tensor:
#      x y z
#    x 3.380490 0.000000 0.000000 
#    y 0.000000 3.469720 0.000000 
#    z 0.000000 0.000000 3.190250 
# 
# 
# High freq. dielectric constant tensor:
#      x y z
#    x 1.699930 0.000000 0.000000 
#    y 0.000000 1.715450 0.000000 
#    z 0.000000 0.000000 1.671690 
# 
# From -- ./inp_files/66434.got.cif
#   From: 2010.03.12/outbox.cif.g09.slc.cpg/sg65_34_cif.got.tgz:66434.got - 2010.04.10 20:52:16.
