data_PCOD8271524
_publ_section_title
;
Structure prediction by ZEFSAII (Michael W. Deem and Ramdas Pophale) SiO2 
 PCOD8271524
Probable space group: C M M M
;
_chemical_formula_sum "Si O2"
_cell_formula_units_Z 104
_cell_length_a 8.791624
_cell_length_b 28.245903
_cell_length_c 22.810000
_cell_angle_alpha 90.000000
_cell_angle_beta 90.000000
_cell_angle_gamma 90.000000
_cell_volume 5664.347052
_symmetry_space_group_name_H-M "C M M M"
_symmetry_group_IT_number 65
_symmetry_cell_setting 'orthorhombic'
loop_
_space_group_symop_operation_xyz
x,y,z
-x,-y,z
x,-y,-z
-x,y,-z
-x,-y,-z
x,y,-z
-x,y,z
x,-y,z
1/2+x,1/2+y,z
1/2-x,1/2-y,z
1/2+x,1/2-y,-z
1/2-x,1/2+y,-z
1/2-x,1/2-y,-z
1/2+x,1/2+y,-z
1/2-x,1/2+y,z
1/2+x,1/2-y,z
loop_
_atom_site_type_symbol
_atom_site_label
_atom_site_fract_x
_atom_site_fract_y
_atom_site_fract_z
Si Si1 0.675089 0.446247 0.722034
Si Si2 0.820403 0.855723 0.884440
Si Si3 0.678446 0.862353 0.662679
Si Si4 0.678568 0.198558 0.775854
Si Si5 0.179527 0.801441 0.000000
Si Si6 0.821783 0.553528 0.153712
Si Si7 0.823724 0.799479 0.431624
O O1 0.500000 0.434680 0.736596
O O2 0.694181 0.500000 0.699959
O O3 0.737622 0.412420 0.671225
O O4 0.773846 0.436761 0.779693
O O5 0.744225 0.831514 0.828922
O O6 0.766875 0.910372 0.888672
O O7 0.000000 0.853254 0.877694
O O8 0.763851 0.829565 0.942907
O O9 0.500000 0.871250 0.658133
O O10 0.721107 0.827101 0.715434
O O11 0.739497 0.841329 0.602141
O O12 0.500000 0.203429 0.784706
O O13 0.750000 0.250000 0.775148
O O14 0.250000 0.750000 0.000000
O O15 0.000000 0.796187 0.000000
O O16 0.779103 0.500000 0.134878
O O17 0.000000 0.562994 0.148580
O O18 0.799368 0.809302 0.500000
O O19 0.750000 0.750000 0.412588
O O20 0.000000 0.797951 0.414230
#
# Coordination Sequence:
#
# PCOD8271524 Si02
#       7
#    16  16  16  16   8  16  16
#     4  10  20  34  55  83 114 148 185 226 276 333
#     4  11  22  38  59  81 109 144 185 231 278 333
#     4  11  22  35  55  83 115 148 185 230 278 332
#     4  11  23  36  52  79 112 144 181 226 278 330
#     4  10  24  42  59  82 107 143 190 231 275 332
#     4  10  20  35  56  83 114 145 181 226 276 332
#     4  10  21  37  57  81 112 151 194 236 277 328
#
# _framework density 18.360455999999999
#
# number of rings (size 3 to 8) (size 9 to 14) (size 15 to 20)
#    0.000    1.538    1.538    3.692    0.000    8.308 
#    0.000    0.385    0.000    2.769    0.000    3.231 
#    0.000    0.000    0.000    0.000    0.000    0.000 
#
# Total GULP energy -645069.256711 kJ/mol
# GULP energy per Si atom -12405.178014 kJ/mol
# Density = 1.831867 g / cm^3
# Si number density = 18.360456 Si / 1000 Ang^3
#
#
#
# Elastic Constant Matrix: (Units=GPa)
#
#
# Indices 1 2 3 4 5 6 
#
# 1 68.3333 44.3445 33.4571 0.0000 0.0000 0.0000
# 2 44.3445 135.8036 49.1764 0.0000 0.0000 0.0000
# 3 33.4571 49.1764 74.3062 0.0000 0.0000 0.0000
# 4 0.0000 0.0000 0.0000 17.1871 0.0000 0.0000
# 5 0.0000 0.0000 0.0000 0.0000 22.2212 0.0000
# 6 0.0000 0.0000 0.0000 0.0000 0.0000 38.1142
#
#
#
# Elastic Compliance Matrix: (Units=1/GPa)
#
#
# Indices 1 2 3 4 5 6 
#
# 1 0.020621 -0.004434 -0.006350 0.000000 0.000000 0.000000
# 2 -0.004434 0.010638 -0.005044 0.000000 0.000000 0.000000
# 3 -0.006350 -0.005044 0.019655 0.000000 0.000000 0.000000
# 4 0.000000 0.000000 0.000000 0.058183 0.000000 0.000000
# 5 0.000000 0.000000 0.000000 0.000000 0.045002 0.000000
# 6 0.000000 0.000000 0.000000 0.000000 0.000000 0.026237
#
#
# Mechanical properties :
#
#
# Convention : Reuss Voigt Hill
#
# Bulk Modulus (GPa) = 51.92720 59.15546 55.54133
# Shear Modulus (GPa) = 22.89262 25.60218 24.24740
#
# Velocity S-wave (km/s) = 3.53490 3.73824 3.63799
# Velocity P-wave (km/s) = 6.70851 7.13593 6.92552
#
# Compressibility (1/GPa) = 0.01925773
#
# Stress axis : x y z
#
# Youngs Moduli (GPa) = 48.49499 94.00436 50.87720
#
# Poissons Ratio (x) = 0.41680 0.32309
# Poissons Ratio (y) = 0.21502 0.25661
# Poissons Ratio (z) = 0.30796 0.47414
#
# Static dielectric constant tensor:
#      x y z
#    x 3.507150 0.000000 0.000000 
#    y 0.000000 3.661520 0.000000 
#    z 0.000000 0.000000 3.271430 
# 
# 
# High freq. dielectric constant tensor:
#      x y z
#    x 1.729030 0.000000 0.000000 
#    y 0.000000 1.723780 0.000000 
#    z 0.000000 0.000000 1.691870 
# 
# From -- ./inp_files/60376.got.cif
#   From: 2010.03.12/outbox.cif.g09.slc.cpg/sg65_31_cif.got.tgz:60376.got - 2010.04.10 20:52:16.
