data_PCOD8271057
_publ_section_title
;
Structure prediction by ZEFSAII (Michael W. Deem and Ramdas Pophale) SiO2 
 PCOD8271057
Probable space group: C M M M
;
_chemical_formula_sum "Si O2"
_cell_formula_units_Z 96
_cell_length_a 30.918469
_cell_length_b 19.582797
_cell_length_c 8.767485
_cell_angle_alpha 90.000000
_cell_angle_beta 90.000000
_cell_angle_gamma 90.000000
_cell_volume 5308.450037
_symmetry_space_group_name_H-M "C M M M"
_symmetry_group_IT_number 65
_symmetry_cell_setting 'orthorhombic'
loop_
_space_group_symop_operation_xyz
x,y,z
-x,-y,z
x,-y,-z
-x,y,-z
-x,-y,-z
x,y,-z
-x,y,z
x,-y,z
1/2+x,1/2+y,z
1/2-x,1/2-y,z
1/2+x,1/2-y,-z
1/2-x,1/2+y,-z
1/2-x,1/2-y,-z
1/2+x,1/2+y,-z
1/2-x,1/2+y,z
1/2+x,1/2-y,z
loop_
_atom_site_type_symbol
_atom_site_label
_atom_site_fract_x
_atom_site_fract_y
_atom_site_fract_z
Si Si1 0.869509 0.297874 0.819640
Si Si2 0.330516 0.077437 0.675988
Si Si3 0.262562 0.422946 0.820678
Si Si4 0.048133 0.782259 0.818110
Si Si5 0.293257 0.290064 0.319822
Si Si6 0.551261 0.571875 0.169658
O O1 0.865356 0.374850 0.758666
O O2 0.917345 0.274267 0.767451
O O3 0.834121 0.249392 0.745025
O O4 0.863777 0.295648 0.000000
O O5 0.325986 0.098426 0.500000
O O6 0.284550 0.089342 0.752502
O O7 0.346666 0.000000 0.695418
O O8 0.278773 0.500000 0.781788
O O9 0.294270 0.366938 0.747601
O O10 0.260038 0.411382 0.000000
O O11 0.064401 0.856327 0.750182
O O12 0.000000 0.762679 0.756998
O O13 0.046485 0.789223 0.000000
O O14 0.296827 0.294644 0.500000
O O15 0.250000 0.250000 0.268781
O O16 0.500000 0.573563 0.157404
O O17 0.565721 0.500000 0.253222
O O18 0.571360 0.569776 0.000000
#
# Coordination Sequence:
#
# PCOD8271057 Si02
#       6
#    16  16  16  16  16  16
#     4  11  21  32  52  79 105 135 172 218 263 304
#     4  10  20  34  52  74 101 133 169 209 256 315
#     4  10  20  34  54  79 105 134 171 217 263 306
#     4   8  15  28  45  69 101 134 169 212 265 314
#     4  11  22  35  52  74 104 144 178 208 250 306
#     4   7   9  16  34  59  87 121 158 193 232 283
#
# _framework density 18.084375000000001
#
# number of rings (size 3 to 8) (size 9 to 14) (size 15 to 20)
#    0.000    2.500    1.667    3.500    0.000    2.667 
#    0.000    0.833    0.000    5.500    0.000    3.500 
#    0.000    0.000    0.000   18.167    0.000   15.500 
#
# Total GULP energy -594735.709570 kJ/mol
# GULP energy per Si atom -12390.327283 kJ/mol
# Density = 1.804321 g / cm^3
# Si number density = 18.084375 Si / 1000 Ang^3
#
#
#
# Elastic Constant Matrix: (Units=GPa)
#
#
# Indices 1 2 3 4 5 6 
#
# 1 84.4157 55.1321 28.9181 0.0000 0.0000 0.0000
# 2 55.1321 136.8038 42.7245 0.0000 0.0000 0.0000
# 3 28.9181 42.7245 60.6688 0.0000 0.0000 0.0000
# 4 0.0000 0.0000 0.0000 27.3496 0.0000 0.0000
# 5 0.0000 0.0000 0.0000 0.0000 -0.5370 0.0000
# 6 0.0000 0.0000 0.0000 0.0000 0.0000 27.4603
#
#
#
# Elastic Compliance Matrix: (Units=1/GPa)
#
#
# Indices 1 2 3 4 5 6 
#
# 1 0.016862 -0.005494 -0.004169 0.000000 0.000000 0.000000
# 2 -0.005494 0.011160 -0.005241 0.000000 0.000000 0.000000
# 3 -0.004169 -0.005241 0.022161 0.000000 0.000000 0.000000
# 4 0.000000 0.000000 0.000000 0.036564 0.000000 0.000000
# 5 0.000000 0.000000 0.000000 0.000000 -1.862035 0.000000
# 6 0.000000 0.000000 0.000000 0.000000 0.000000 0.036416
#
#
# Mechanical properties :
#
#
# Convention : Reuss Voigt Hill
#
# Bulk Modulus (GPa) = 49.07518 59.49310 54.28414
# Shear Modulus (GPa) = -2.93725 21.19547 9.12911
#
# Velocity S-wave (km/s) = -1.27582 3.42721 2.24923
# Velocity P-wave (km/s) = 5.00254 6.97352 6.06858
#
# Compressibility (1/GPa) = 0.02037690
#
# Stress axis : x y z
#
# Youngs Moduli (GPa) = 59.30482 89.60251 45.12481
#
# Poissons Ratio (x) = 0.49223 0.18811
# Poissons Ratio (y) = 0.32579 0.23650
# Poissons Ratio (z) = 0.24722 0.46960
#
# Static dielectric constant tensor:
#      x y z
#    x 3.152820 0.000000 0.000000 
#    y 0.000000 3.921660 0.000000 
#    z 0.000000 0.000000 3.128050 
# 
# 
# High freq. dielectric constant tensor:
#      x y z
#    x 1.662780 0.000000 0.000000 
#    y 0.000000 1.719600 0.000000 
#    z 0.000000 0.000000 1.675600 
# 
# From -- ./inp_files/16346.got.cif
#   From: 2010.03.12/outbox.cif.g09.slc.cpg/sg65_9_cif.got.tgz:16346.got - 2010.04.10 20:52:16.
