data_PCOD8271807
_publ_section_title
;
Structure prediction by ZEFSAII (Michael W. Deem and Ramdas Pophale) SiO2 
 PCOD8271807
Probable space group: C M M M
;
_chemical_formula_sum "Si O2"
_cell_formula_units_Z 72
_cell_length_a 15.584573
_cell_length_b 8.795895
_cell_length_c 26.539657
_cell_angle_alpha 90.000000
_cell_angle_beta 90.000000
_cell_angle_gamma 90.000000
_cell_volume 3638.063287
_symmetry_space_group_name_H-M "C M M M"
_symmetry_group_IT_number 65
_symmetry_cell_setting 'orthorhombic'
loop_
_space_group_symop_operation_xyz
x,y,z
-x,-y,z
x,-y,-z
-x,y,-z
-x,-y,-z
x,y,-z
-x,y,z
x,-y,z
1/2+x,1/2+y,z
1/2-x,1/2-y,z
1/2+x,1/2-y,-z
1/2-x,1/2+y,-z
1/2-x,1/2-y,-z
1/2+x,1/2+y,-z
1/2-x,1/2+y,z
1/2+x,1/2-y,z
loop_
_atom_site_type_symbol
_atom_site_label
_atom_site_fract_x
_atom_site_fract_y
_atom_site_fract_z
Si Si1 0.336588 0.320761 0.211934
Si Si2 0.596446 0.318038 0.892595
Si Si3 0.500000 0.820472 0.614508
Si Si4 0.102530 0.831689 0.000000
Si Si5 0.160407 0.822896 0.558821
Si Si6 0.000000 0.179630 0.276991
O O1 0.328535 0.500000 0.212338
O O2 0.250000 0.250000 0.234834
O O3 0.347626 0.259514 0.154488
O O4 0.416567 0.270058 0.245721
O O5 0.500000 0.259780 0.883226
O O6 0.596183 0.500000 0.894965
O O7 0.631375 0.252164 0.946926
O O8 0.415640 0.755075 0.588702
O O9 0.500000 0.774633 0.672356
O O10 0.500000 0.000000 0.608506
O O11 0.000000 0.841086 0.000000
O O12 0.142162 0.000000 0.000000
O O13 0.144510 0.794006 0.500000
O O14 0.250000 0.750000 0.576331
O O15 0.162378 0.000000 0.572101
O O16 0.000000 0.000000 0.288431
#
# Coordination Sequence:
#
# PCOD8271807 Si02
#       6
#    16  16   8   8  16   8
#     4  10  20  35  56  78 102 136 179 227 279 336
#     4   8  12  23  44  70  99 131 170 212 261 322
#     4  12  25  39  60  89 121 157 199 245 292 345
#     4   7  10  16  35  68  99 126 161 210 257 309
#     4  10  21  39  64  94 128 164 200 238 282 335
#     4  10  22  41  59  75 104 147 190 237 288 337
#
# _framework density 19.790751
#
# number of rings (size 3 to 8) (size 9 to 14) (size 15 to 20)
#    0.000    2.556    1.111    3.333    0.000    4.444 
#    0.000    2.778    0.000    0.000    0.000    0.000 
#    0.000    2.667    0.000    0.000    0.000    0.000 
#
# Total GULP energy -446127.013910 kJ/mol
# GULP energy per Si atom -12392.417053 kJ/mol
# Density = 1.974571 g / cm^3
# Si number density = 19.790751 Si / 1000 Ang^3
#
#
#
# Elastic Constant Matrix: (Units=GPa)
#
#
# Indices 1 2 3 4 5 6 
#
# 1 160.6071 53.3072 84.8557 0.0000 0.0000 0.0000
# 2 53.3072 65.5574 58.8890 0.0000 0.0000 0.0000
# 3 84.8557 58.8890 130.6745 0.0000 0.0000 0.0000
# 4 0.0000 0.0000 0.0000 17.5368 0.0000 0.0000
# 5 0.0000 0.0000 0.0000 0.0000 3.7178 0.0000
# 6 0.0000 0.0000 0.0000 0.0000 0.0000 28.7674
#
#
#
# Elastic Compliance Matrix: (Units=1/GPa)
#
#
# Indices 1 2 3 4 5 6 
#
# 1 0.010031 -0.003874 -0.004768 0.000000 0.000000 0.000000
# 2 -0.003874 0.027124 -0.009708 0.000000 0.000000 0.000000
# 3 -0.004768 -0.009708 0.015124 0.000000 0.000000 0.000000
# 4 0.000000 0.000000 0.000000 0.057023 0.000000 0.000000
# 5 0.000000 0.000000 0.000000 0.000000 0.268974 0.000000
# 6 0.000000 0.000000 0.000000 0.000000 0.000000 0.034762
#
#
# Mechanical properties :
#
#
# Convention : Reuss Voigt Hill
#
# Bulk Modulus (GPa) = 64.18777 83.43811 73.81294
# Shear Modulus (GPa) = 10.99064 20.65688 15.82376
#
# Velocity S-wave (km/s) = 2.35913 3.23424 2.83070
# Velocity P-wave (km/s) = 6.31856 7.49658 6.93264
#
# Compressibility (1/GPa) = 0.01557929
#
# Stress axis : x y z
#
# Youngs Moduli (GPa) = 99.68675 36.86720 66.11914
#
# Poissons Ratio (x) = 0.14281 0.31529
# Poissons Ratio (y) = 0.38614 0.64191
# Poissons Ratio (z) = 0.47535 0.35792
#
# Static dielectric constant tensor:
#      x y z
#    x 3.702040 0.000000 0.000000 
#    y 0.000000 3.196940 0.000000 
#    z 0.000000 0.000000 3.932330 
# 
# 
# High freq. dielectric constant tensor:
#      x y z
#    x 1.768400 0.000000 0.000000 
#    y 0.000000 1.730550 0.000000 
#    z 0.000000 0.000000 1.784630 
# 
# From -- ./inp_files/74666.got.cif
#   From: 2010.03.12/outbox.cif.g09.slc.cpg/sg65_38_cif.got.tgz:74666.got - 2010.04.10 20:52:16.
