data_PCOD8271010
_publ_section_title
;
Structure prediction by ZEFSAII (Michael W. Deem and Ramdas Pophale) SiO2 
 PCOD8271010
Probable space group: C M M M
;
_chemical_formula_sum "Si O2"
_cell_formula_units_Z 104
_cell_length_a 14.555317
_cell_length_b 18.330205
_cell_length_c 23.427130
_cell_angle_alpha 90.000000
_cell_angle_beta 90.000000
_cell_angle_gamma 90.000000
_cell_volume 6250.403837
_symmetry_space_group_name_H-M "C M M M"
_symmetry_group_IT_number 65
_symmetry_cell_setting 'orthorhombic'
loop_
_space_group_symop_operation_xyz
x,y,z
-x,-y,z
x,-y,-z
-x,y,-z
-x,-y,-z
x,y,-z
-x,y,z
x,-y,z
1/2+x,1/2+y,z
1/2-x,1/2-y,z
1/2+x,1/2-y,-z
1/2-x,1/2+y,-z
1/2-x,1/2-y,-z
1/2+x,1/2+y,-z
1/2-x,1/2+y,z
1/2+x,1/2-y,z
loop_
_atom_site_type_symbol
_atom_site_label
_atom_site_fract_x
_atom_site_fract_y
_atom_site_fract_z
Si Si1 0.103521 0.412543 0.377673
Si Si2 0.790042 0.413228 0.269187
Si Si3 0.397380 0.414838 0.902083
Si Si4 0.607809 0.085421 0.845201
Si Si5 0.599395 0.586692 0.227864
Si Si6 0.772507 0.669671 0.064102
Si Si7 0.390773 0.919908 0.500000
O O1 0.106657 0.500000 0.379816
O O2 0.167499 0.380670 0.327423
O O3 0.137714 0.381113 0.439876
O O4 0.000000 0.386506 0.364680
O O5 0.792253 0.500000 0.271913
O O6 0.848937 0.387748 0.214606
O O7 0.685067 0.383610 0.264890
O O8 0.500000 0.396760 0.924330
O O9 0.377326 0.500000 0.906887
O O10 0.386170 0.387887 0.837004
O O11 0.323051 0.373813 0.939820
O O12 0.500000 0.101897 0.843652
O O13 0.652868 0.130460 0.896354
O O14 0.628036 0.000000 0.855316
O O15 0.500000 0.615718 0.250874
O O16 0.598491 0.500000 0.229196
O O17 0.750000 0.750000 0.088057
O O18 0.813421 0.673872 0.000000
O O19 0.500000 0.927800 0.500000
O O20 0.345411 0.000000 0.500000
#
# Coordination Sequence:
#
# PCOD8271010 Si02
#       7
#    16  16  16  16  16  16   8
#     4   8  12  17  27  47  76 110 145 177 210 252
#     4   9  14  22  39  62  85 108 139 181 222 261
#     4   9  17  32  54  74  88 105 138 187 233 267
#     4  10  20  34  52  72  93 118 150 188 227 270
#     4   8  13  22  39  62  83 100 124 168 224 268
#     4  11  24  38  50  66  91 122 151 180 219 273
#     4   7  10  16  24  38  69 111 148 177 204 244
#
# _framework density 16.638923999999999
#
# number of rings (size 3 to 8) (size 9 to 14) (size 15 to 20)
#    0.000    3.000    1.538    2.769    0.000    4.308 
#    0.000    3.077    0.000    0.000    0.000    0.538 
#    0.000    4.308    0.000    0.692    0.000    1.154 
#
# Total GULP energy -644251.428296 kJ/mol
# GULP energy per Si atom -12389.450544 kJ/mol
# Density = 1.660105 g / cm^3
# Si number density = 16.638924 Si / 1000 Ang^3
#
#
#
# Elastic Constant Matrix: (Units=GPa)
#
#
# Indices 1 2 3 4 5 6 
#
# 1 118.6353 25.1794 63.6511 0.0000 0.0000 0.0000
# 2 25.1794 29.0703 21.7335 0.0000 0.0000 0.0000
# 3 63.6511 21.7335 124.3165 0.0000 0.0000 0.0000
# 4 0.0000 0.0000 0.0000 8.7578 0.0000 0.0000
# 5 0.0000 0.0000 0.0000 0.0000 24.5650 0.0000
# 6 0.0000 0.0000 0.0000 0.0000 0.0000 8.0085
#
#
#
# Elastic Compliance Matrix: (Units=1/GPa)
#
#
# Indices 1 2 3 4 5 6 
#
# 1 0.012782 -0.007108 -0.005302 0.000000 0.000000 0.000000
# 2 -0.007108 0.043524 -0.003970 0.000000 0.000000 0.000000
# 3 -0.005302 -0.003970 0.011453 0.000000 0.000000 0.000000
# 4 0.000000 0.000000 0.000000 0.114184 0.000000 0.000000
# 5 0.000000 0.000000 0.000000 0.000000 0.040708 0.000000
# 6 0.000000 0.000000 0.000000 0.000000 0.000000 0.124867
#
#
# Mechanical properties :
#
#
# Convention : Reuss Voigt Hill
#
# Bulk Modulus (GPa) = 28.57170 54.79447 41.68309
# Shear Modulus (GPa) = 12.75693 19.03014 15.89353
#
# Velocity S-wave (km/s) = 2.77192 3.38555 3.09399
# Velocity P-wave (km/s) = 5.23962 6.94878 6.15383
#
# Compressibility (1/GPa) = 0.03499966
#
# Stress axis : x y z
#
# Youngs Moduli (GPa) = 78.23207 22.97602 87.31530
#
# Poissons Ratio (x) = 0.16331 0.46296
# Poissons Ratio (y) = 0.55605 0.34663
# Poissons Ratio (z) = 0.41480 0.09121
#
# Static dielectric constant tensor:
#      x y z
#    x 3.363690 0.000000 0.000000 
#    y 0.000000 2.564710 0.000000 
#    z 0.000000 0.000000 3.355190 
# 
# 
# High freq. dielectric constant tensor:
#      x y z
#    x 1.642340 0.000000 0.000000 
#    y 0.000000 1.575240 0.000000 
#    z 0.000000 0.000000 1.636040 
# 
# From -- ./inp_files/70142.got.cif
#   From: 2010.03.12/outbox.cif.g09.slc.cpg/sg65_36_cif.got.tgz:70142.got - 2010.04.10 20:52:16.
