data_PCOD8271198
_publ_section_title
;
Structure prediction by ZEFSAII (Michael W. Deem and Ramdas Pophale) SiO2 
 PCOD8271198
Probable space group: C M M M
;
_chemical_formula_sum "Si O2"
_cell_formula_units_Z 104
_cell_length_a 26.285410
_cell_length_b 23.594457
_cell_length_c 9.266541
_cell_angle_alpha 90.000000
_cell_angle_beta 90.000000
_cell_angle_gamma 90.000000
_cell_volume 5747.015840
_symmetry_space_group_name_H-M "C M M M"
_symmetry_group_IT_number 65
_symmetry_cell_setting 'orthorhombic'
loop_
_space_group_symop_operation_xyz
x,y,z
-x,-y,z
x,-y,-z
-x,y,-z
-x,-y,-z
x,y,-z
-x,y,z
x,-y,z
1/2+x,1/2+y,z
1/2-x,1/2-y,z
1/2+x,1/2-y,-z
1/2-x,1/2+y,-z
1/2-x,1/2-y,-z
1/2+x,1/2+y,-z
1/2-x,1/2+y,z
1/2+x,1/2-y,z
loop_
_atom_site_type_symbol
_atom_site_label
_atom_site_fract_x
_atom_site_fract_y
_atom_site_fract_z
Si Si1 0.789771 0.862430 0.832547
Si Si2 0.864709 0.064180 0.331072
Si Si3 0.401387 0.067023 0.666118
Si Si4 0.500000 0.932606 0.163442
Si Si5 0.132556 0.234331 0.167663
Si Si6 0.557835 0.339916 0.330314
Si Si7 0.672899 0.143450 0.169219
O O1 0.813450 0.915211 0.746773
O O2 0.819238 0.804779 0.793011
O O3 0.731735 0.853430 0.786731
O O4 0.794652 0.876989 0.000000
O O5 0.854531 0.068779 0.500000
O O6 0.912565 0.102874 0.284240
O O7 0.877099 0.000000 0.284250
O O8 0.406416 0.085759 0.500000
O O9 0.450549 0.089871 0.752420
O O10 0.351561 0.093454 0.737953
O O11 0.396262 0.000000 0.679701
O O12 0.500000 0.000000 0.161697
O O13 0.500000 0.908510 0.000000
O O14 0.082999 0.214609 0.255232
O O15 0.146164 0.297913 0.212883
O O16 0.119310 0.229966 0.000000
O O17 0.560709 0.329996 0.500000
O O18 0.500000 0.346153 0.276890
O O19 0.666246 0.130523 0.000000
#
# Coordination Sequence:
#
# PCOD8271198 Si02
#       7
#    16  16  16   8  16  16  16
#     4   9  18  33  53  74 100 133 169 212 259 303
#     4   9  18  32  50  74 104 137 173 211 253 304
#     4  10  21  36  53  75 104 135 166 204 252 302
#     4   9  17  33  57  77  95 125 163 201 242 291
#     4   9  18  34  54  75  99 130 169 213 259 306
#     4   9  18  33  52  74 102 136 172 211 256 305
#     4  10  20  34  53  77 101 131 172 213 253 304
#
# _framework density 18.096347000000002
#
# number of rings (size 3 to 8) (size 9 to 14) (size 15 to 20)
#    0.000    2.692    0.000    1.154    0.000    6.462 
#    1.385    4.615    0.000    4.615    0.000    4.308 
#    0.000    0.000    0.000    0.000    0.000    0.000 
#
# Total GULP energy -644911.786097 kJ/mol
# GULP energy per Si atom -12402.149733 kJ/mol
# Density = 1.805516 g / cm^3
# Si number density = 18.096347 Si / 1000 Ang^3
#
#
#
# Elastic Constant Matrix: (Units=GPa)
#
#
# Indices 1 2 3 4 5 6 
#
# 1 122.4153 59.9271 56.1691 0.0000 0.0000 0.0000
# 2 59.9271 70.8751 38.7357 0.0000 0.0000 0.0000
# 3 56.1691 38.7357 67.9230 0.0000 0.0000 0.0000
# 4 0.0000 0.0000 0.0000 28.9584 0.0000 0.0000
# 5 0.0000 0.0000 0.0000 0.0000 31.6047 0.0000
# 6 0.0000 0.0000 0.0000 0.0000 0.0000 19.9327
#
#
#
# Elastic Compliance Matrix: (Units=1/GPa)
#
#
# Indices 1 2 3 4 5 6 
#
# 1 0.016662 -0.009527 -0.008346 0.000000 0.000000 0.000000
# 2 -0.009527 0.025946 -0.006918 0.000000 0.000000 0.000000
# 3 -0.008346 -0.006918 0.025569 0.000000 0.000000 0.000000
# 4 0.000000 0.000000 0.000000 0.034532 0.000000 0.000000
# 5 0.000000 0.000000 0.000000 0.000000 0.031641 0.000000
# 6 0.000000 0.000000 0.000000 0.000000 0.000000 0.050169
#
#
# Mechanical properties :
#
#
# Convention : Reuss Voigt Hill
#
# Bulk Modulus (GPa) = 53.77625 63.43080 58.60352
# Shear Modulus (GPa) = 20.80739 23.19126 21.99933
#
# Velocity S-wave (km/s) = 3.39457 3.58375 3.49044
# Velocity P-wave (km/s) = 6.71902 7.22857 6.97845
#
# Compressibility (1/GPa) = 0.01859557
#
# Stress axis : x y z
#
# Youngs Moduli (GPa) = 60.01629 38.54177 39.10960
#
# Poissons Ratio (x) = 0.36720 0.32639
# Poissons Ratio (y) = 0.57179 0.27056
# Poissons Ratio (z) = 0.50087 0.26663
#
# Static dielectric constant tensor:
#      x y z
#    x 3.431020 0.000000 0.000000 
#    y 0.000000 3.289610 0.000000 
#    z 0.000000 0.000000 3.331900 
# 
# 
# High freq. dielectric constant tensor:
#      x y z
#    x 1.704450 0.000000 0.000000 
#    y 0.000000 1.691570 0.000000 
#    z 0.000000 0.000000 1.697910 
# 
# From -- ./inp_files/14763.got.cif
#   From: 2010.03.12/outbox.cif.g09.slc.cpg/sg65_8_cif.got.tgz:14763.got - 2010.04.10 20:52:16.
