data_PCOD8271804
_publ_section_title
;
Structure prediction by ZEFSAII (Michael W. Deem and Ramdas Pophale) SiO2 
 PCOD8271804
Probable space group: C M M M
;
_chemical_formula_sum "Si O2"
_cell_formula_units_Z 80
_cell_length_a 25.477437
_cell_length_b 18.217393
_cell_length_c 9.195607
_cell_angle_alpha 90.000000
_cell_angle_beta 90.000000
_cell_angle_gamma 90.000000
_cell_volume 4267.979905
_symmetry_space_group_name_H-M "C M M M"
_symmetry_group_IT_number 65
_symmetry_cell_setting 'orthorhombic'
loop_
_space_group_symop_operation_xyz
x,y,z
-x,-y,z
x,-y,-z
-x,y,-z
-x,-y,-z
x,y,-z
-x,y,z
x,-y,z
1/2+x,1/2+y,z
1/2-x,1/2-y,z
1/2+x,1/2-y,-z
1/2-x,1/2+y,-z
1/2-x,1/2-y,-z
1/2+x,1/2+y,-z
1/2-x,1/2+y,z
1/2+x,1/2-y,z
loop_
_atom_site_type_symbol
_atom_site_label
_atom_site_fract_x
_atom_site_fract_y
_atom_site_fract_z
Si Si1 0.442119 0.180656 0.827027
Si Si2 0.347939 0.415913 0.669107
Si Si3 0.560565 0.653147 0.167789
Si Si4 0.847878 0.582851 0.173267
Si Si5 0.756155 0.164493 0.830425
O O1 0.500000 0.157473 0.769151
O O2 0.429050 0.263559 0.778867
O O3 0.398436 0.125660 0.762585
O O4 0.442322 0.177579 0.000000
O O5 0.349467 0.397260 0.500000
O O6 0.332227 0.500000 0.697792
O O7 0.405253 0.401466 0.735336
O O8 0.306271 0.363499 0.744923
O O9 0.500000 0.631761 0.189438
O O10 0.577123 0.644457 0.000000
O O11 0.848750 0.500000 0.233620
O O12 0.795321 0.622666 0.228191
O O13 0.849797 0.583892 0.000000
O O14 0.750000 0.250000 0.798919
O O15 0.765205 0.148726 0.000000
#
# Coordination Sequence:
#
# PCOD8271804 Si02
#       5
#    16  16  16  16  16
#     4   8  14  26  45  70 100 131 163 201 246 298
#     4  11  24  38  52  75 108 141 171 210 264 321
#     4   9  18  34  56  78 100 132 175 218 258 306
#     4   9  16  25  41  69 101 130 163 204 250 300
#     4  10  20  35  56  77  99 134 179 223 264 308
#
# _framework density 18.744230999999999
#
# number of rings (size 3 to 8) (size 9 to 14) (size 15 to 20)
#    0.000    2.600    0.000    3.600    0.000    7.200 
#    0.000    4.000    0.000    0.000    0.000    0.000 
#    0.000    0.000    0.000   14.600    0.000   14.000 
#
# Total GULP energy -496006.013733 kJ/mol
# GULP energy per Si atom -12400.150343 kJ/mol
# Density = 1.870157 g / cm^3
# Si number density = 18.744231 Si / 1000 Ang^3
#
#
#
# Elastic Constant Matrix: (Units=GPa)
#
#
# Indices 1 2 3 4 5 6 
#
# 1 123.8488 55.4884 46.3894 0.0000 0.0000 0.0000
# 2 55.4884 89.1878 47.5720 0.0000 0.0000 0.0000
# 3 46.3894 47.5720 54.8528 0.0000 0.0000 0.0000
# 4 0.0000 0.0000 0.0000 15.1065 0.0000 0.0000
# 5 0.0000 0.0000 0.0000 0.0000 7.7537 0.0000
# 6 0.0000 0.0000 0.0000 0.0000 0.0000 32.0638
#
#
#
# Elastic Compliance Matrix: (Units=1/GPa)
#
#
# Indices 1 2 3 4 5 6 
#
# 1 0.012537 -0.003991 -0.007142 0.000000 0.000000 0.000000
# 2 -0.003991 0.022134 -0.015821 0.000000 0.000000 0.000000
# 3 -0.007142 -0.015821 0.037992 0.000000 0.000000 0.000000
# 4 0.000000 0.000000 0.000000 0.066197 0.000000 0.000000
# 5 0.000000 0.000000 0.000000 0.000000 0.128971 0.000000
# 6 0.000000 0.000000 0.000000 0.000000 0.000000 0.031188
#
#
# Mechanical properties :
#
#
# Convention : Reuss Voigt Hill
#
# Bulk Modulus (GPa) = 53.31749 62.97658 58.14703
# Shear Modulus (GPa) = 13.92066 18.88075 16.40071
#
# Velocity S-wave (km/s) = 2.72814 3.17722 2.96120
# Velocity P-wave (km/s) = 6.19921 6.86516 6.54066
#
# Compressibility (1/GPa) = 0.01875557
#
# Stress axis : x y z
#
# Youngs Moduli (GPa) = 79.76075 45.17941 26.32153
#
# Poissons Ratio (x) = 0.18030 0.18799
# Poissons Ratio (y) = 0.31831 0.41643
# Poissons Ratio (z) = 0.56965 0.71479
#
# Static dielectric constant tensor:
#      x y z
#    x 3.675820 0.000000 0.000000 
#    y 0.000000 3.533010 0.000000 
#    z 0.000000 0.000000 2.947210 
# 
# 
# High freq. dielectric constant tensor:
#      x y z
#    x 1.744910 0.000000 0.000000 
#    y 0.000000 1.733900 0.000000 
#    z 0.000000 0.000000 1.672570 
# 
# From -- ./inp_files/9587.got.cif
#   From: 2010.03.12/outbox.cif.g09.slc.cpg/sg65_5_cif.got.tgz:9587.got - 2010.04.10 20:52:16.
