data_PCOD8271169
_publ_section_title
;
Structure prediction by ZEFSAII (Michael W. Deem and Ramdas Pophale) SiO2 
 PCOD8271169
Probable space group: C M M M
;
_chemical_formula_sum "Si O2"
_cell_formula_units_Z 96
_cell_length_a 19.754029
_cell_length_b 9.350131
_cell_length_c 30.057252
_cell_angle_alpha 90.000000
_cell_angle_beta 90.000000
_cell_angle_gamma 90.000000
_cell_volume 5551.657370
_symmetry_space_group_name_H-M "C M M M"
_symmetry_group_IT_number 65
_symmetry_cell_setting 'orthorhombic'
loop_
_space_group_symop_operation_xyz
x,y,z
-x,-y,z
x,-y,-z
-x,y,-z
-x,-y,-z
x,y,-z
-x,y,z
x,-y,z
1/2+x,1/2+y,z
1/2-x,1/2-y,z
1/2+x,1/2-y,-z
1/2-x,1/2+y,-z
1/2-x,1/2-y,-z
1/2+x,1/2+y,-z
1/2-x,1/2+y,z
1/2+x,1/2-y,z
loop_
_atom_site_type_symbol
_atom_site_label
_atom_site_fract_x
_atom_site_fract_y
_atom_site_fract_z
Si Si1 0.184518 0.665328 0.710545
Si Si2 0.921359 0.162541 0.551415
Si Si3 0.317367 0.168030 0.608343
Si Si4 0.419340 0.339247 0.868718
Si Si5 0.577482 0.833544 0.783386
Si Si6 0.580517 0.839399 0.950819
O O1 0.202034 0.500000 0.716133
O O2 0.250000 0.750000 0.727345
O O3 0.166803 0.702831 0.659724
O O4 0.120363 0.710098 0.740165
O O5 0.903269 0.186905 0.500000
O O6 0.880233 0.275567 0.580274
O O7 0.000000 0.192509 0.560045
O O8 0.903111 0.000000 0.565294
O O9 0.250000 0.250000 0.592641
O O10 0.307601 0.000000 0.599775
O O11 0.500000 0.337670 0.870374
O O12 0.390961 0.500000 0.866463
O O13 0.394167 0.253853 0.825449
O O14 0.389316 0.265133 0.913158
O O15 0.500000 0.793125 0.772729
O O16 0.584653 0.000000 0.795132
O O17 0.500000 0.838859 0.948384
O O18 0.607060 0.000000 0.941904
O O19 0.603931 0.787365 0.000000
#
# Coordination Sequence:
#
# PCOD8271169 Si02
#       6
#    16  16  16  16  16  16
#     4   9  19  34  51  71  95 124 156 194 238 280
#     4   9  19  36  55  75 102 134 165 199 241 287
#     4  10  20  34  53  76 101 129 163 202 243 288
#     4   9  16  24  35  55  83 112 144 185 230 271
#     4   9  17  30  47  65  88 120 155 188 226 275
#     4   8  13  21  33  49  72 107 148 183 219 269
#
# _framework density 17.292134000000001
#
# number of rings (size 3 to 8) (size 9 to 14) (size 15 to 20)
#    0.000    3.000    0.000    2.000    0.000    5.333 
#    0.000    4.167    0.000    2.000    0.000    0.000 
#    0.000    0.667    0.000    2.167    0.000    4.333 
#
# Total GULP energy -595135.753362 kJ/mol
# GULP energy per Si atom -12398.661528 kJ/mol
# Density = 1.725278 g / cm^3
# Si number density = 17.292134 Si / 1000 Ang^3
#
#
#
# Elastic Constant Matrix: (Units=GPa)
#
#
# Indices 1 2 3 4 5 6 
#
# 1 62.2794 45.5386 55.4071 0.0000 0.0000 0.0000
# 2 45.5386 98.2661 65.1228 0.0000 0.0000 0.0000
# 3 55.4071 65.1228 108.1714 0.0000 0.0000 0.0000
# 4 0.0000 0.0000 0.0000 26.0642 0.0000 0.0000
# 5 0.0000 0.0000 0.0000 0.0000 2.6912 0.0000
# 6 0.0000 0.0000 0.0000 0.0000 0.0000 23.8149
#
#
#
# Elastic Compliance Matrix: (Units=1/GPa)
#
#
# Indices 1 2 3 4 5 6 
#
# 1 0.031861 -0.006572 -0.012363 0.000000 0.000000 0.000000
# 2 -0.006572 0.018287 -0.007644 0.000000 0.000000 0.000000
# 3 -0.012363 -0.007644 0.020179 0.000000 0.000000 0.000000
# 4 0.000000 0.000000 0.000000 0.038367 0.000000 0.000000
# 5 0.000000 0.000000 0.000000 0.000000 0.371584 0.000000
# 6 0.000000 0.000000 0.000000 0.000000 0.000000 0.041991
#
#
# Mechanical properties :
#
#
# Convention : Reuss Voigt Hill
#
# Bulk Modulus (GPa) = 58.24015 66.76155 62.50085
# Shear Modulus (GPa) = 8.60364 17.35728 12.98046
#
# Velocity S-wave (km/s) = 2.23299 3.17167 2.74278
# Velocity P-wave (km/s) = 6.35623 7.21834 6.80096
#
# Compressibility (1/GPa) = 0.01717029
#
# Stress axis : x y z
#
# Youngs Moduli (GPa) = 31.38639 54.68246 49.55656
#
# Poissons Ratio (x) = 0.35935 0.61268
# Poissons Ratio (y) = 0.20626 0.37879
# Poissons Ratio (z) = 0.38804 0.41797
#
# Static dielectric constant tensor:
#      x y z
#    x 2.854140 0.000000 0.000000 
#    y 0.000000 3.309750 0.000000 
#    z 0.000000 0.000000 3.366630 
# 
# 
# High freq. dielectric constant tensor:
#      x y z
#    x 1.623450 0.000000 0.000000 
#    y 0.000000 1.671740 0.000000 
#    z 0.000000 0.000000 1.675110 
# 
# From -- ./inp_files/73125.got.cif
#   From: 2010.03.12/outbox.cif.g09.slc.cpg/sg65_37_cif.got.tgz:73125.got - 2010.04.10 20:52:16.
