data_PCOD8271462
_publ_section_title
;
Structure prediction by ZEFSAII (Michael W. Deem and Ramdas Pophale) SiO2 
 PCOD8271462
Probable space group: C M M M
;
_chemical_formula_sum "Si O2"
_cell_formula_units_Z 104
_cell_length_a 8.964480
_cell_length_b 29.030459
_cell_length_c 20.156936
_cell_angle_alpha 90.000000
_cell_angle_beta 90.000000
_cell_angle_gamma 90.000000
_cell_volume 5245.700873
_symmetry_space_group_name_H-M "C M M M"
_symmetry_group_IT_number 65
_symmetry_cell_setting 'orthorhombic'
loop_
_space_group_symop_operation_xyz
x,y,z
-x,-y,z
x,-y,-z
-x,y,-z
-x,-y,-z
x,y,-z
-x,y,z
x,-y,z
1/2+x,1/2+y,z
1/2-x,1/2-y,z
1/2+x,1/2-y,-z
1/2-x,1/2+y,-z
1/2-x,1/2-y,-z
1/2+x,1/2+y,-z
1/2-x,1/2+y,z
1/2+x,1/2-y,z
loop_
_atom_site_type_symbol
_atom_site_label
_atom_site_fract_x
_atom_site_fract_y
_atom_site_fract_z
Si Si1 0.823166 0.860735 0.874838
Si Si2 0.672732 0.796220 0.381605
Si Si3 0.671696 0.384471 0.573506
Si Si4 0.170650 0.052908 0.693479
Si Si5 0.174786 0.297072 0.772492
Si Si6 0.675522 0.052700 0.830341
Si Si7 0.175664 0.799979 0.000000
O O1 0.752046 0.839566 0.808813
O O2 0.758291 0.912747 0.881506
O O3 0.000000 0.863242 0.868917
O O4 0.772504 0.829515 0.936638
O O5 0.500000 0.790638 0.395268
O O6 0.750000 0.750000 0.407123
O O7 0.733896 0.838118 0.424102
O O8 0.708251 0.804875 0.304491
O O9 0.692634 0.406286 0.500000
O O10 0.500000 0.372109 0.586820
O O11 0.729555 0.419692 0.629292
O O12 0.273722 0.065016 0.755868
O O13 0.000000 0.065524 0.711795
O O14 0.185217 0.000000 0.673651
O O15 0.250000 0.250000 0.798151
O O16 0.000000 0.295074 0.788954
O O17 0.500000 0.060377 0.835676
O O18 0.719629 0.000000 0.848304
O O19 0.250000 0.750000 0.000000
O O20 0.000000 0.792114 0.000000
#
# Coordination Sequence:
#
# PCOD8271462 Si02
#       7
#    16  16  16  16  16  16   8
#     4  11  22  37  58  83 113 149 187 225 269 320
#     4  10  21  36  54  75 101 134 174 222 273 325
#     4  10  21  35  51  74 105 140 178 220 266 320
#     4   9  18  34  57  83 110 142 179 220 269 323
#     4  10  20  34  54  82 111 139 177 225 276 327
#     4  10  21  37  58  85 114 143 180 227 277 326
#     4  10  24  42  59  84 117 153 190 225 263 314
#
# _framework density 19.825758
#
# number of rings (size 3 to 8) (size 9 to 14) (size 15 to 20)
#    0.000    2.000    0.000    3.231    0.000    9.231 
#    0.000    1.923    0.000    2.308    0.000    3.231 
#    0.000    0.000    0.000    0.000    0.000    0.000 
#
# Total GULP energy -644957.567894 kJ/mol
# GULP energy per Si atom -12403.030152 kJ/mol
# Density = 1.978063 g / cm^3
# Si number density = 19.825758 Si / 1000 Ang^3
#
#
#
# Elastic Constant Matrix: (Units=GPa)
#
#
# Indices 1 2 3 4 5 6 
#
# 1 78.1761 46.0788 34.5188 0.0000 0.0000 0.0000
# 2 46.0788 128.6080 54.0241 0.0000 0.0000 0.0000
# 3 34.5188 54.0241 71.6844 0.0000 0.0000 0.0000
# 4 0.0000 0.0000 0.0000 26.9211 0.0000 0.0000
# 5 0.0000 0.0000 0.0000 0.0000 23.0314 0.0000
# 6 0.0000 0.0000 0.0000 0.0000 0.0000 36.7950
#
#
#
# Elastic Compliance Matrix: (Units=1/GPa)
#
#
# Indices 1 2 3 4 5 6 
#
# 1 0.017552 -0.004007 -0.005432 0.000000 0.000000 0.000000
# 2 -0.004007 0.012292 -0.007334 0.000000 0.000000 0.000000
# 3 -0.005432 -0.007334 0.022093 0.000000 0.000000 0.000000
# 4 0.000000 0.000000 0.000000 0.037146 0.000000 0.000000
# 5 0.000000 0.000000 0.000000 0.000000 0.043419 0.000000
# 6 0.000000 0.000000 0.000000 0.000000 0.000000 0.027178
#
#
# Mechanical properties :
#
#
# Convention : Reuss Voigt Hill
#
# Bulk Modulus (GPa) = 54.37577 60.85688 57.61632
# Shear Modulus (GPa) = 25.08068 26.93927 26.00998
#
# Velocity S-wave (km/s) = 3.56062 3.69019 3.62598
# Velocity P-wave (km/s) = 6.66261 6.99423 6.83043
#
# Compressibility (1/GPa) = 0.01839055
#
# Stress axis : x y z
#
# Youngs Moduli (GPa) = 56.97372 81.35329 45.26250
#
# Poissons Ratio (x) = 0.32596 0.24588
# Poissons Ratio (y) = 0.22828 0.33197
# Poissons Ratio (z) = 0.30950 0.59667
#
# Static dielectric constant tensor:
#      x y z
#    x 3.562160 0.000000 0.000000 
#    y 0.000000 3.781660 0.000000 
#    z 0.000000 0.000000 3.519430 
# 
# 
# High freq. dielectric constant tensor:
#      x y z
#    x 1.774280 0.000000 0.000000 
#    y 0.000000 1.782410 0.000000 
#    z 0.000000 0.000000 1.760340 
# 
# From -- ./inp_files/60428.got.cif
#   From: 2010.03.12/outbox.cif.g09.slc.cpg/sg65_31_cif.got.tgz:60428.got - 2010.04.10 20:52:16.
