data_PCOD8271520
_publ_section_title
;
Structure prediction by ZEFSAII (Michael W. Deem and Ramdas Pophale) SiO2 
 PCOD8271520
Probable space group: C M M M
;
_chemical_formula_sum "Si O2"
_cell_formula_units_Z 88
_cell_length_a 18.540820
_cell_length_b 27.069054
_cell_length_c 9.286477
_cell_angle_alpha 90.000000
_cell_angle_beta 90.000000
_cell_angle_gamma 90.000000
_cell_volume 4660.719901
_symmetry_space_group_name_H-M "C M M M"
_symmetry_group_IT_number 65
_symmetry_cell_setting 'orthorhombic'
loop_
_space_group_symop_operation_xyz
x,y,z
-x,-y,z
x,-y,-z
-x,y,-z
-x,-y,-z
x,y,-z
-x,y,z
x,-y,z
1/2+x,1/2+y,z
1/2-x,1/2-y,z
1/2+x,1/2-y,-z
1/2-x,1/2+y,-z
1/2-x,1/2-y,-z
1/2+x,1/2+y,-z
1/2-x,1/2+y,z
1/2+x,1/2-y,z
loop_
_atom_site_type_symbol
_atom_site_label
_atom_site_fract_x
_atom_site_fract_y
_atom_site_fract_z
Si Si1 0.344497 0.924751 0.840625
Si Si2 0.319979 0.444596 0.167255
Si Si3 0.670362 0.651244 0.665734
Si Si4 0.689020 0.184338 0.166186
Si Si5 0.582788 0.000000 0.653006
Si Si6 0.417363 0.745323 0.664673
O O1 0.264674 0.942588 0.801793
O O2 0.354678 0.866479 0.825468
O O3 0.399564 0.949904 0.734434
O O4 0.363893 0.942651 0.000000
O O5 0.348093 0.500000 0.208512
O O6 0.354718 0.400989 0.263349
O O7 0.336487 0.433338 0.000000
O O8 0.693365 0.642055 0.500000
O O9 0.736101 0.678129 0.748572
O O10 0.601727 0.687310 0.675324
O O11 0.637958 0.225358 0.234927
O O12 0.706573 0.198113 0.000000
O O13 0.500000 0.000000 0.623049
O O14 0.624149 0.000000 0.500000
O O15 0.408217 0.763595 0.500000
O O16 0.500000 0.752614 0.716463
#
# Coordination Sequence:
#
# PCOD8271520 Si02
#       6
#    16  16  16  16   8  16
#     4   9  18  34  51  69  96 130 167 208 256 307
#     4   9  17  32  54  79 107 134 166 214 269 315
#     4  10  20  34  55  83 110 140 180 221 268 323
#     4  10  21  36  56  81 107 137 178 225 270 318
#     4  11  23  33  43  65  97 133 172 213 254 299
#     4  10  22  39  56  76 108 146 180 221 272 323
#
# _framework density 18.881202999999999
#
# number of rings (size 3 to 8) (size 9 to 14) (size 15 to 20)
#    0.000    2.273    0.909    3.000    0.000    9.455 
#    0.000    3.636    0.000    0.545    0.000    3.818 
#    0.000    0.000    0.000    0.000    0.000    0.000 
#
# Total GULP energy -545404.138935 kJ/mol
# GULP energy per Si atom -12395.548612 kJ/mol
# Density = 1.883823 g / cm^3
# Si number density = 18.881203 Si / 1000 Ang^3
#
#
#
# Elastic Constant Matrix: (Units=GPa)
#
#
# Indices 1 2 3 4 5 6 
#
# 1 34.0789 20.6591 19.5136 0.0000 0.0000 0.0000
# 2 20.6591 106.9307 38.5902 0.0000 0.0000 0.0000
# 3 19.5136 38.5902 92.5941 0.0000 0.0000 0.0000
# 4 0.0000 0.0000 0.0000 49.3279 0.0000 0.0000
# 5 0.0000 0.0000 0.0000 0.0000 0.4295 0.0000
# 6 0.0000 0.0000 0.0000 0.0000 0.0000 28.0828
#
#
#
# Elastic Compliance Matrix: (Units=1/GPa)
#
#
# Indices 1 2 3 4 5 6 
#
# 1 0.035412 -0.004883 -0.005428 0.000000 0.000000 0.000000
# 2 -0.004883 0.011681 -0.003839 0.000000 0.000000 0.000000
# 3 -0.005428 -0.003839 0.013544 0.000000 0.000000 0.000000
# 4 0.000000 0.000000 0.000000 0.020273 0.000000 0.000000
# 5 0.000000 0.000000 0.000000 0.000000 2.328395 0.000000
# 6 0.000000 0.000000 0.000000 0.000000 0.000000 0.035609
#
#
# Mechanical properties :
#
#
# Convention : Reuss Voigt Hill
#
# Bulk Modulus (GPa) = 30.92457 43.45882 37.19169
# Shear Modulus (GPa) = 2.01289 25.89075 13.95182
#
# Velocity S-wave (km/s) = 1.03363 3.70705 2.72127
# Velocity P-wave (km/s) = 4.22357 6.43350 5.44190
#
# Compressibility (1/GPa) = 0.03233675
#
# Stress axis : x y z
#
# Youngs Moduli (GPa) = 28.23930 85.61139 73.83490
#
# Poissons Ratio (x) = 0.41801 0.40076
# Poissons Ratio (y) = 0.13788 0.28346
# Poissons Ratio (z) = 0.15328 0.32867
#
# Static dielectric constant tensor:
#      x y z
#    x 3.052210 0.000000 0.000000 
#    y 0.000000 3.678010 0.000000 
#    z 0.000000 0.000000 3.606440 
# 
# 
# High freq. dielectric constant tensor:
#      x y z
#    x 1.691740 0.000000 0.000000 
#    y 0.000000 1.747250 0.000000 
#    z 0.000000 0.000000 1.742680 
# 
# From -- ./inp_files/10162.got.cif
#   From: 2010.03.12/outbox.cif.g09.slc.cpg/sg65_6_cif.got.tgz:10162.got - 2010.04.10 20:52:16.
