data_PCOD8271605
_publ_section_title
;
Structure prediction by ZEFSAII (Michael W. Deem and Ramdas Pophale) SiO2 
 PCOD8271605
Probable space group: C M M M
;
_chemical_formula_sum "Si O2"
_cell_formula_units_Z 104
_cell_length_a 18.081535
_cell_length_b 26.658483
_cell_length_c 12.215096
_cell_angle_alpha 90.000000
_cell_angle_beta 90.000000
_cell_angle_gamma 90.000000
_cell_volume 5887.997449
_symmetry_space_group_name_H-M "C M M M"
_symmetry_group_IT_number 65
_symmetry_cell_setting 'orthorhombic'
loop_
_space_group_symop_operation_xyz
x,y,z
-x,-y,z
x,-y,-z
-x,y,-z
-x,-y,-z
x,y,-z
-x,y,z
x,-y,z
1/2+x,1/2+y,z
1/2-x,1/2-y,z
1/2+x,1/2-y,-z
1/2-x,1/2+y,-z
1/2-x,1/2-y,-z
1/2+x,1/2+y,-z
1/2-x,1/2+y,z
1/2+x,1/2-y,z
loop_
_atom_site_type_symbol
_atom_site_label
_atom_site_fract_x
_atom_site_fract_y
_atom_site_fract_z
Si Si1 0.327428 0.276848 0.623533
Si Si2 0.742325 0.807248 0.000000
Si Si3 0.087503 0.500000 0.127894
Si Si4 0.799109 0.136455 0.792095
Si Si5 0.085338 0.942735 0.127839
Si Si6 0.415896 0.154883 0.000000
Si Si7 0.135163 0.602136 0.786156
Si Si8 0.414595 0.816697 0.621812
O O1 0.352542 0.291502 0.500000
O O2 0.250000 0.250000 0.622299
O O3 0.325076 0.327604 0.693759
O O4 0.380844 0.233995 0.676206
O O5 0.750000 0.750000 0.000000
O O6 0.784418 0.830057 0.897489
O O7 0.652931 0.807663 0.000000
O O8 0.117299 0.456038 0.206030
O O9 0.000000 0.500000 0.122025
O O10 0.117924 0.500000 0.000000
O O11 0.863308 0.095505 0.806098
O O12 0.722937 0.107456 0.771838
O O13 0.000000 0.929677 0.152907
O O14 0.102471 0.000000 0.163910
O O15 0.102312 0.936561 0.000000
O O16 0.405199 0.121297 0.894396
O O17 0.500000 0.178370 0.000000
O O18 0.099998 0.631858 0.685262
O O19 0.380457 0.823085 0.500000
O O20 0.500000 0.806366 0.616016
#
# Coordination Sequence:
#
# PCOD8271605 Si02
#       8
#    16   8   8  16  16   8  16  16
#     4  10  20  37  59  80 108 147 188 225 270 324
#     4  10  22  34  48  77 117 145 176 226 279 330
#     4  11  22  36  53  77 110 146 185 229 273 329
#     4  11  21  35  56  84 112 144 183 230 276 330
#     4   9  19  37  59  82 113 149 184 226 279 339
#     4  10  20  35  52  72 105 149 184 215 269 332
#     4  11  22  35  55  81 111 145 185 228 275 330
#     4  10  21  38  60  84 110 145 189 232 274 324
#
# _framework density 17.663050999999999
#
# number of rings (size 3 to 8) (size 9 to 14) (size 15 to 20)
#    0.000    1.769    3.077    2.308    3.231    0.615 
#    0.000    1.154    0.000    1.846    0.000    1.077 
#    0.000    0.000    0.000    0.000    0.000    0.000 
#
# Total GULP energy -644263.233734 kJ/mol
# GULP energy per Si atom -12389.677572 kJ/mol
# Density = 1.762285 g / cm^3
# Si number density = 17.663051 Si / 1000 Ang^3
#
#
#
# Elastic Constant Matrix: (Units=GPa)
#
#
# Indices 1 2 3 4 5 6 
#
# 1 90.2781 62.4254 37.4268 0.0000 0.0000 0.0000
# 2 62.4254 146.4284 58.1289 0.0000 0.0000 0.0000
# 3 37.4268 58.1289 80.4723 0.0000 0.0000 0.0000
# 4 0.0000 0.0000 0.0000 79.1489 0.0000 0.0000
# 5 0.0000 0.0000 0.0000 0.0000 20.7592 0.0000
# 6 0.0000 0.0000 0.0000 0.0000 0.0000 29.5186
#
#
#
# Elastic Compliance Matrix: (Units=1/GPa)
#
#
# Indices 1 2 3 4 5 6 
#
# 1 0.016426 -0.005566 -0.003619 0.000000 0.000000 0.000000
# 2 -0.005566 0.011461 -0.005690 0.000000 0.000000 0.000000
# 3 -0.003619 -0.005690 0.018220 0.000000 0.000000 0.000000
# 4 0.000000 0.000000 0.000000 0.012634 0.000000 0.000000
# 5 0.000000 0.000000 0.000000 0.000000 0.048171 0.000000
# 6 0.000000 0.000000 0.000000 0.000000 0.000000 0.033877
#
#
# Mechanical properties :
#
#
# Convention : Reuss Voigt Hill
#
# Bulk Modulus (GPa) = 61.13663 70.34899 65.74281
# Shear Modulus (GPa) = 28.41029 36.49851 32.45440
#
# Velocity S-wave (km/s) = 4.01491 4.55067 4.29116
# Velocity P-wave (km/s) = 7.49537 8.21744 7.86469
#
# Compressibility (1/GPa) = 0.01635681
#
# Stress axis : x y z
#
# Youngs Moduli (GPa) = 60.87888 87.25165 54.88472
#
# Poissons Ratio (x) = 0.48566 0.19862
# Poissons Ratio (y) = 0.33886 0.31230
# Poissons Ratio (z) = 0.22031 0.49647
#
# Static dielectric constant tensor:
#      x y z
#    x 3.550090 0.000000 0.000000 
#    y 0.000000 4.050380 0.000000 
#    z 0.000000 0.000000 3.478080 
# 
# 
# High freq. dielectric constant tensor:
#      x y z
#    x 1.692500 0.000000 0.000000 
#    y 0.000000 1.681550 0.000000 
#    z 0.000000 0.000000 1.668830 
# 
# From -- ./inp_files/27529.got.cif
#   From: 2010.03.12/outbox.cif.g09.slc.cpg/sg65_14_cif.got.tgz:27529.got - 2010.04.10 20:52:16.
