data_PCOD8271944
_publ_section_title
;
Structure prediction by ZEFSAII (Michael W. Deem and Ramdas Pophale) SiO2 
 PCOD8271944
Probable space group: C M M M
;
_chemical_formula_sum "Si O2"
_cell_formula_units_Z 72
_cell_length_a 8.844881
_cell_length_b 28.949472
_cell_length_c 14.382589
_cell_angle_alpha 90.000000
_cell_angle_beta 90.000000
_cell_angle_gamma 90.000000
_cell_volume 3682.728575
_symmetry_space_group_name_H-M "C M M M"
_symmetry_group_IT_number 65
_symmetry_cell_setting 'orthorhombic'
loop_
_space_group_symop_operation_xyz
x,y,z
-x,-y,z
x,-y,-z
-x,y,-z
-x,-y,-z
x,y,-z
-x,y,z
x,-y,z
1/2+x,1/2+y,z
1/2-x,1/2-y,z
1/2+x,1/2-y,-z
1/2-x,1/2+y,-z
1/2-x,1/2-y,-z
1/2+x,1/2+y,-z
1/2-x,1/2+y,z
1/2+x,1/2-y,z
loop_
_atom_site_type_symbol
_atom_site_label
_atom_site_fract_x
_atom_site_fract_y
_atom_site_fract_z
Si Si1 0.335156 0.707508 0.894810
Si Si2 0.677595 0.699452 0.500000
Si Si3 0.178873 0.949024 0.500000
Si Si4 0.321552 0.376272 0.351464
Si Si5 0.824632 0.054475 0.000000
Si Si6 0.678256 0.883793 0.151482
O O1 0.500000 0.698315 0.846746
O O2 0.250000 0.750000 0.842845
O O3 0.228954 0.663284 0.896300
O O4 0.366001 0.722489 0.000000
O O5 0.500000 0.706363 0.500000
O O6 0.750000 0.750000 0.500000
O O7 0.724665 0.670250 0.407942
O O8 0.229998 0.921135 0.590830
O O9 0.000000 0.952874 0.500000
O O10 0.253469 0.000000 0.500000
O O11 0.500000 0.376453 0.332091
O O12 0.230941 0.381052 0.257090
O O13 0.751004 0.074058 0.094368
O O14 0.000000 0.068454 0.000000
O O15 0.800113 0.000000 0.000000
O O16 0.500000 0.889334 0.146185
#
# Coordination Sequence:
#
# PCOD8271944 Si02
#       6
#    16   8   8  16   8  16
#     4  10  20  35  57  82 112 149 192 236 281 332
#     4   9  19  36  59  85 117 158 198 243 290 340
#     4   8  15  32  60  87 107 136 183 237 290 345
#     4   9  19  36  57  84 117 150 191 240 290 345
#     4  11  25  45  66  85 110 153 205 253 303 357
#     4  12  24  38  59  87 122 158 195 242 297 352
#
# _framework density 19.550720999999999
#
# number of rings (size 3 to 8) (size 9 to 14) (size 15 to 20)
#    0.000    2.000    1.111    4.333    0.000    4.444 
#    0.000    6.111    0.000    0.667    0.000    0.000 
#    0.000    0.000    0.000    0.000    0.000    0.000 
#
# Total GULP energy -446225.830013 kJ/mol
# GULP energy per Si atom -12395.161945 kJ/mol
# Density = 1.950622 g / cm^3
# Si number density = 19.550721 Si / 1000 Ang^3
#
#
#
# Elastic Constant Matrix: (Units=GPa)
#
#
# Indices 1 2 3 4 5 6 
#
# 1 132.1374 63.7880 58.9715 0.0000 0.0000 0.0000
# 2 63.7880 154.7850 57.0396 0.0000 0.0000 0.0000
# 3 58.9715 57.0396 117.9181 0.0000 0.0000 0.0000
# 4 0.0000 0.0000 0.0000 -12.7567 0.0000 0.0000
# 5 0.0000 0.0000 0.0000 0.0000 23.5224 0.0000
# 6 0.0000 0.0000 0.0000 0.0000 0.0000 30.1117
#
#
#
# Elastic Compliance Matrix: (Units=1/GPa)
#
#
# Indices 1 2 3 4 5 6 
#
# 1 0.010768 -0.002985 -0.003941 0.000000 0.000000 0.000000
# 2 -0.002985 0.008690 -0.002710 0.000000 0.000000 0.000000
# 3 -0.003941 -0.002710 0.011762 0.000000 0.000000 0.000000
# 4 0.000000 0.000000 0.000000 -0.078390 0.000000 0.000000
# 5 0.000000 0.000000 0.000000 0.000000 0.042513 0.000000
# 6 0.000000 0.000000 0.000000 0.000000 0.000000 0.033210
#
#
# Mechanical properties :
#
#
# Convention : Reuss Voigt Hill
#
# Bulk Modulus (GPa) = 83.70601 84.93761 84.32181
# Shear Modulus (GPa) = 96.51079 23.17825 59.84452
#
# Velocity S-wave (km/s) = 7.03360 3.44691 5.53862
# Velocity P-wave (km/s) = 10.43407 7.70588 9.17198
#
# Compressibility (1/GPa) = 0.01194657
#
# Stress axis : x y z
#
# Youngs Moduli (GPa) = 92.86966 115.07991 85.01596
#
# Poissons Ratio (x) = 0.34353 0.33505
# Poissons Ratio (y) = 0.27723 0.23043
# Poissons Ratio (z) = 0.36600 0.31192
#
# Static dielectric constant tensor:
#      x y z
#    x 3.622390 0.000000 0.000000 
#    y 0.000000 3.930500 0.000000 
#    z 0.000000 0.000000 3.464920 
# 
# 
# High freq. dielectric constant tensor:
#      x y z
#    x 1.754790 0.000000 0.000000 
#    y 0.000000 1.768210 0.000000 
#    z 0.000000 0.000000 1.755460 
# 
# From -- ./inp_files/37064.got.cif
#   From: 2010.03.12/outbox.cif.g09.slc.cpg/sg65_19_cif.got.tgz:37064.got - 2010.04.10 20:52:16.
