data_PCOD8271433
_publ_section_title
;
Structure prediction by ZEFSAII (Michael W. Deem and Ramdas Pophale) SiO2 
 PCOD8271433
Probable space group: C M M M
;
_chemical_formula_sum "Si O2"
_cell_formula_units_Z 88
_cell_length_a 9.020155
_cell_length_b 18.450889
_cell_length_c 28.139208
_cell_angle_alpha 90.000000
_cell_angle_beta 90.000000
_cell_angle_gamma 90.000000
_cell_volume 4683.204973
_symmetry_space_group_name_H-M "C M M M"
_symmetry_group_IT_number 65
_symmetry_cell_setting 'orthorhombic'
loop_
_space_group_symop_operation_xyz
x,y,z
-x,-y,z
x,-y,-z
-x,y,-z
-x,-y,-z
x,y,-z
-x,y,z
x,-y,z
1/2+x,1/2+y,z
1/2-x,1/2-y,z
1/2+x,1/2-y,-z
1/2-x,1/2+y,-z
1/2-x,1/2-y,-z
1/2+x,1/2+y,-z
1/2-x,1/2+y,z
1/2+x,1/2-y,z
loop_
_atom_site_type_symbol
_atom_site_label
_atom_site_fract_x
_atom_site_fract_y
_atom_site_fract_z
Si Si1 0.164815 0.914112 0.233662
Si Si2 0.173265 0.323433 0.946352
Si Si3 0.675663 0.581668 0.500000
Si Si4 0.823671 0.171764 0.591033
Si Si5 0.171499 0.585247 0.673597
Si Si6 0.832296 0.914632 0.128745
O O1 0.281661 0.888964 0.273547
O O2 0.213424 0.885597 0.181413
O O3 0.000000 0.884787 0.246322
O O4 0.158836 0.000000 0.231664
O O5 0.250000 0.250000 0.929487
O O6 0.220860 0.386191 0.910812
O O7 0.000000 0.311625 0.943064
O O8 0.221981 0.344223 0.000000
O O9 0.742672 0.500000 0.500000
O O10 0.500000 0.576894 0.500000
O O11 0.731587 0.624707 0.453804
O O12 0.750000 0.250000 0.587908
O O13 0.772011 0.129856 0.637639
O O14 0.000000 0.180782 0.591891
O O15 0.202020 0.500000 0.666212
O O16 0.000000 0.604471 0.665886
O O17 0.000000 0.889818 0.117197
O O18 0.819474 0.000000 0.127458
#
# Coordination Sequence:
#
# PCOD8271433 Si02
#       6
#    16  16   8  16  16  16
#     4   8  15  30  52  77 105 138 175 214 259 310
#     4  10  21  36  53  73 100 136 176 217 262 314
#     4   9  19  36  59  85 108 137 180 221 260 314
#     4  11  22  37  57  80 111 146 179 219 266 314
#     4  10  20  34  54  81 110 140 178 220 261 310
#     4   9  18  33  54  80 108 137 171 213 261 313
#
# _framework density 18.790551000000001
#
# number of rings (size 3 to 8) (size 9 to 14) (size 15 to 20)
#    0.000    2.455    0.000    3.545    0.000    4.364 
#    0.000    5.909    0.000    7.636    0.000    0.000 
#    0.000    0.000    0.000    0.000    0.000    0.000 
#
# Total GULP energy -545526.004947 kJ/mol
# GULP energy per Si atom -12398.318294 kJ/mol
# Density = 1.874778 g / cm^3
# Si number density = 18.790551 Si / 1000 Ang^3
#
#
#
# Elastic Constant Matrix: (Units=GPa)
#
#
# Indices 1 2 3 4 5 6 
#
# 1 78.9300 38.5497 48.7341 0.0000 0.0000 0.0000
# 2 38.5497 69.6547 53.9166 0.0000 0.0000 0.0000
# 3 48.7341 53.9166 132.5070 0.0000 0.0000 0.0000
# 4 0.0000 0.0000 0.0000 0.2588 0.0000 0.0000
# 5 0.0000 0.0000 0.0000 0.0000 26.2346 0.0000
# 6 0.0000 0.0000 0.0000 0.0000 0.0000 28.5413
#
#
#
# Elastic Compliance Matrix: (Units=1/GPa)
#
#
# Indices 1 2 3 4 5 6 
#
# 1 0.018635 -0.007311 -0.003879 0.000000 0.000000 0.000000
# 2 -0.007311 0.023825 -0.007006 0.000000 0.000000 0.000000
# 3 -0.003879 -0.007006 0.011824 0.000000 0.000000 0.000000
# 4 0.000000 0.000000 0.000000 3.863717 0.000000 0.000000
# 5 0.000000 0.000000 0.000000 0.000000 0.038118 0.000000
# 6 0.000000 0.000000 0.000000 0.000000 0.000000 0.035037
#
#
# Mechanical properties :
#
#
# Convention : Reuss Voigt Hill
#
# Bulk Modulus (GPa) = 55.88607 62.61026 59.24817
# Shear Modulus (GPa) = 1.23961 20.33303 10.78632
#
# Velocity S-wave (km/s) = 0.81310 3.29308 2.39849
# Velocity P-wave (km/s) = 5.53964 6.91748 6.26655
#
# Compressibility (1/GPa) = 0.01789355
#
# Stress axis : x y z
#
# Youngs Moduli (GPa) = 53.66220 41.97193 84.57405
#
# Poissons Ratio (x) = 0.30685 0.32806
# Poissons Ratio (y) = 0.39232 0.59250
# Poissons Ratio (z) = 0.20815 0.29404
#
# Static dielectric constant tensor:
#      x y z
#    x 3.427980 0.000000 0.000000 
#    y 0.000000 3.248790 0.000000 
#    z 0.000000 0.000000 3.764620 
# 
# 
# High freq. dielectric constant tensor:
#      x y z
#    x 1.725070 0.000000 0.000000 
#    y 0.000000 1.707280 0.000000 
#    z 0.000000 0.000000 1.745320 
# 
# From -- ./inp_files/67535.got.cif
#   From: 2010.03.12/outbox.cif.g09.slc.cpg/sg65_34_cif.got.tgz:67535.got - 2010.04.10 20:52:16.
