data_PCOD8271185
_publ_section_title
;
Structure prediction by ZEFSAII (Michael W. Deem and Ramdas Pophale) SiO2 
 PCOD8271185
Probable space group: C M M M
;
_chemical_formula_sum "Si O2"
_cell_formula_units_Z 96
_cell_length_a 9.030852
_cell_length_b 18.916309
_cell_length_c 30.230545
_cell_angle_alpha 90.000000
_cell_angle_beta 90.000000
_cell_angle_gamma 90.000000
_cell_volume 5164.295701
_symmetry_space_group_name_H-M "C M M M"
_symmetry_group_IT_number 65
_symmetry_cell_setting 'orthorhombic'
loop_
_space_group_symop_operation_xyz
x,y,z
-x,-y,z
x,-y,-z
-x,y,-z
-x,-y,-z
x,y,-z
-x,y,z
x,-y,z
1/2+x,1/2+y,z
1/2-x,1/2-y,z
1/2+x,1/2-y,-z
1/2-x,1/2+y,-z
1/2-x,1/2-y,-z
1/2+x,1/2+y,-z
1/2-x,1/2+y,z
1/2+x,1/2-y,z
loop_
_atom_site_type_symbol
_atom_site_label
_atom_site_fract_x
_atom_site_fract_y
_atom_site_fract_z
Si Si1 0.329556 0.419714 0.551623
Si Si2 0.672542 0.918213 0.294464
Si Si3 0.824287 0.078520 0.048339
Si Si4 0.673761 0.323770 0.775213
Si Si5 0.326453 0.322048 0.124203
Si Si6 0.173977 0.674642 0.621083
O O1 0.306624 0.405528 0.500000
O O2 0.500000 0.407927 0.565002
O O3 0.281424 0.500000 0.563353
O O4 0.228443 0.363584 0.576781
O O5 0.500000 0.909358 0.283650
O O6 0.765501 0.887895 0.253759
O O7 0.717394 0.875522 0.338186
O O8 0.715261 0.000000 0.301547
O O9 0.758790 0.122455 0.089301
O O10 0.000000 0.075963 0.052149
O O11 0.758680 0.000000 0.052571
O O12 0.779207 0.110187 0.000000
O O13 0.500000 0.314444 0.767232
O O14 0.750000 0.250000 0.761612
O O15 0.711393 0.344714 0.825706
O O16 0.500000 0.312312 0.117986
O O17 0.250000 0.250000 0.111561
O O18 0.250000 0.750000 0.627683
O O19 0.000000 0.686991 0.617482
#
# Coordination Sequence:
#
# PCOD8271185 Si02
#       6
#    16  16  16  16  16  16
#     4   9  19  37  60  85 113 144 178 218 263 309
#     4  10  22  39  57  79 107 136 170 215 263 311
#     4   8  14  26  45  68  94 126 164 205 248 293
#     4  10  20  34  53  76 103 136 172 211 257 308
#     4   9  18  31  48  72 100 128 162 205 249 297
#     4  11  23  38  57  81 109 142 179 218 261 308
#
# _framework density 18.589175999999998
#
# number of rings (size 3 to 8) (size 9 to 14) (size 15 to 20)
#    0.000    2.500    0.000    3.000    0.000    6.333 
#    0.000    2.500    0.000    0.500    0.000    1.167 
#    0.000    0.000    0.000    0.000    0.000    0.000 
#
# Total GULP energy -595172.329379 kJ/mol
# GULP energy per Si atom -12399.423529 kJ/mol
# Density = 1.854687 g / cm^3
# Si number density = 18.589176 Si / 1000 Ang^3
#
#
#
# Elastic Constant Matrix: (Units=GPa)
#
#
# Indices 1 2 3 4 5 6 
#
# 1 55.5060 55.8535 46.9924 0.0000 0.0000 0.0000
# 2 55.8535 146.3307 86.2480 0.0000 0.0000 0.0000
# 3 46.9924 86.2480 116.6954 0.0000 0.0000 0.0000
# 4 0.0000 0.0000 0.0000 42.2472 0.0000 0.0000
# 5 0.0000 0.0000 0.0000 0.0000 18.4768 0.0000
# 6 0.0000 0.0000 0.0000 0.0000 0.0000 27.3940
#
#
#
# Elastic Compliance Matrix: (Units=1/GPa)
#
#
# Indices 1 2 3 4 5 6 
#
# 1 0.032072 -0.008203 -0.006853 0.000000 0.000000 0.000000
# 2 -0.008203 0.014206 -0.007197 0.000000 0.000000 0.000000
# 3 -0.006853 -0.007197 0.016648 0.000000 0.000000 0.000000
# 4 0.000000 0.000000 0.000000 0.023670 0.000000 0.000000
# 5 0.000000 0.000000 0.000000 0.000000 0.054122 0.000000
# 6 0.000000 0.000000 0.000000 0.000000 0.000000 0.036504
#
#
# Mechanical properties :
#
#
# Convention : Reuss Voigt Hill
#
# Bulk Modulus (GPa) = 54.28260 77.41333 65.84796
# Shear Modulus (GPa) = 21.94267 26.25282 24.09775
#
# Velocity S-wave (km/s) = 3.43942 3.76209 3.60437
# Velocity P-wave (km/s) = 6.71099 7.78497 7.26785
#
# Compressibility (1/GPa) = 0.01842211
#
# Stress axis : x y z
#
# Youngs Moduli (GPa) = 31.18030 70.39047 60.06805
#
# Poissons Ratio (x) = 0.57738 0.41162
# Poissons Ratio (y) = 0.25576 0.43229
# Poissons Ratio (z) = 0.21367 0.50658
#
# Static dielectric constant tensor:
#      x y z
#    x 3.229830 0.000000 0.000000 
#    y 0.000000 3.535260 0.000000 
#    z 0.000000 0.000000 3.600740 
# 
# 
# High freq. dielectric constant tensor:
#      x y z
#    x 1.703720 0.000000 0.000000 
#    y 0.000000 1.722550 0.000000 
#    z 0.000000 0.000000 1.733250 
# 
# From -- ./inp_files/73081.got.cif
#   From: 2010.03.12/outbox.cif.g09.slc.cpg/sg65_37_cif.got.tgz:73081.got - 2010.04.10 20:52:16.
