data_PCOD8271173
_publ_section_title
;
Structure prediction by ZEFSAII (Michael W. Deem and Ramdas Pophale) SiO2 
 PCOD8271173
Probable space group: C M M M
;
_chemical_formula_sum "Si O2"
_cell_formula_units_Z 72
_cell_length_a 9.196873
_cell_length_b 19.121053
_cell_length_c 22.385656
_cell_angle_alpha 90.000000
_cell_angle_beta 90.000000
_cell_angle_gamma 90.000000
_cell_volume 3936.604824
_symmetry_space_group_name_H-M "C M M M"
_symmetry_group_IT_number 65
_symmetry_cell_setting 'orthorhombic'
loop_
_space_group_symop_operation_xyz
x,y,z
-x,-y,z
x,-y,-z
-x,y,-z
-x,-y,-z
x,y,-z
-x,y,z
x,-y,z
1/2+x,1/2+y,z
1/2-x,1/2-y,z
1/2+x,1/2-y,-z
1/2-x,1/2+y,-z
1/2-x,1/2-y,-z
1/2+x,1/2+y,-z
1/2-x,1/2+y,z
1/2+x,1/2-y,z
loop_
_atom_site_type_symbol
_atom_site_label
_atom_site_fract_x
_atom_site_fract_y
_atom_site_fract_z
Si Si1 0.330805 0.319772 0.398654
Si Si2 0.331042 0.181083 0.067329
Si Si3 0.172520 0.922570 0.500000
Si Si4 0.830986 0.419048 0.827106
Si Si5 0.829396 0.178728 0.261416
O O1 0.500000 0.305783 0.408625
O O2 0.250000 0.250000 0.418902
O O3 0.274397 0.382682 0.440389
O O4 0.296132 0.338936 0.330299
O O5 0.500000 0.198730 0.069481
O O6 0.250000 0.250000 0.091057
O O7 0.291801 0.116086 0.109527
O O8 0.281041 0.161883 0.000000
O O9 0.000000 0.928128 0.500000
O O10 0.242157 0.000000 0.500000
O O11 0.790163 0.500000 0.832521
O O12 0.733413 0.385856 0.775455
O O13 0.000000 0.408120 0.811037
O O14 0.750000 0.250000 0.241620
O O15 0.000000 0.187605 0.248956
#
# Coordination Sequence:
#
# PCOD8271173 Si02
#       5
#    16  16   8  16  16
#     4   9  18  32  52  75  97 126 163 204 246 289
#     4   9  18  33  53  75  98 127 165 207 248 292
#     4   9  17  30  49  73 100 129 162 200 242 289
#     4  10  21  35  51  74 104 136 168 204 249 298
#     4  10  20  34  53  76 101 131 169 210 251 296
#
# _framework density 18.289873
#
# number of rings (size 3 to 8) (size 9 to 14) (size 15 to 20)
#    0.000    2.556    0.000    1.667    0.000    5.333 
#    0.000    4.444    0.000    1.333    0.000    4.667 
#    0.000    0.000    0.000    0.000    0.000    0.000 
#
# Total GULP energy -446471.812040 kJ/mol
# GULP energy per Si atom -12401.994779 kJ/mol
# Density = 1.824824 g / cm^3
# Si number density = 18.289873 Si / 1000 Ang^3
#
#
#
# Elastic Constant Matrix: (Units=GPa)
#
#
# Indices 1 2 3 4 5 6 
#
# 1 55.1562 58.0594 46.0110 0.0000 0.0000 0.0000
# 2 58.0594 174.9233 90.3739 0.0000 0.0000 0.0000
# 3 46.0110 90.3739 110.4967 0.0000 0.0000 0.0000
# 4 0.0000 0.0000 0.0000 23.4341 0.0000 0.0000
# 5 0.0000 0.0000 0.0000 0.0000 18.9139 0.0000
# 6 0.0000 0.0000 0.0000 0.0000 0.0000 28.7860
#
#
#
# Elastic Compliance Matrix: (Units=1/GPa)
#
#
# Indices 1 2 3 4 5 6 
#
# 1 0.031381 -0.006347 -0.007877 0.000000 0.000000 0.000000
# 2 -0.006347 0.011184 -0.006504 0.000000 0.000000 0.000000
# 3 -0.007877 -0.006504 0.017650 0.000000 0.000000 0.000000
# 4 0.000000 0.000000 0.000000 0.042673 0.000000 0.000000
# 5 0.000000 0.000000 0.000000 0.000000 0.052871 0.000000
# 6 0.000000 0.000000 0.000000 0.000000 0.000000 0.034739
#
#
# Mechanical properties :
#
#
# Convention : Reuss Voigt Hill
#
# Bulk Modulus (GPa) = 53.30474 81.05165 67.17820
# Shear Modulus (GPa) = 20.99022 23.96893 22.47957
#
# Velocity S-wave (km/s) = 3.39136 3.62401 3.50962
# Velocity P-wave (km/s) = 6.67404 7.86909 7.29607
#
# Compressibility (1/GPa) = 0.01876006
#
# Stress axis : x y z
#
# Youngs Moduli (GPa) = 31.86596 89.41542 56.65825
#
# Poissons Ratio (x) = 0.56748 0.44627
# Poissons Ratio (y) = 0.20224 0.36853
# Poissons Ratio (z) = 0.25099 0.58159
#
# Static dielectric constant tensor:
#      x y z
#    x 3.250980 0.000000 0.000000 
#    y 0.000000 3.440200 0.000000 
#    z 0.000000 0.000000 3.573600 
# 
# 
# High freq. dielectric constant tensor:
#      x y z
#    x 1.694830 0.000000 0.000000 
#    y 0.000000 1.704020 0.000000 
#    z 0.000000 0.000000 1.721200 
# 
# From -- ./inp_files/67069.got.cif
#   From: 2010.03.12/outbox.cif.g09.slc.cpg/sg65_34_cif.got.tgz:67069.got - 2010.04.10 20:52:16.
