data_PCOD8271764
_publ_section_title
;
Structure prediction by ZEFSAII (Michael W. Deem and Ramdas Pophale) SiO2 
 PCOD8271764
Probable space group: C M M M
;
_chemical_formula_sum "Si O2"
_cell_formula_units_Z 96
_cell_length_a 29.360331
_cell_length_b 8.657740
_cell_length_c 20.395807
_cell_angle_alpha 90.000000
_cell_angle_beta 90.000000
_cell_angle_gamma 90.000000
_cell_volume 5184.494051
_symmetry_space_group_name_H-M "C M M M"
_symmetry_group_IT_number 65
_symmetry_cell_setting 'orthorhombic'
loop_
_space_group_symop_operation_xyz
x,y,z
-x,-y,z
x,-y,-z
-x,y,-z
-x,-y,-z
x,y,-z
-x,y,z
x,-y,z
1/2+x,1/2+y,z
1/2-x,1/2-y,z
1/2+x,1/2-y,-z
1/2-x,1/2+y,-z
1/2-x,1/2-y,-z
1/2+x,1/2+y,-z
1/2-x,1/2+y,z
1/2+x,1/2-y,z
loop_
_atom_site_type_symbol
_atom_site_label
_atom_site_fract_x
_atom_site_fract_y
_atom_site_fract_z
Si Si1 0.855437 0.683076 0.186995
Si Si2 0.800117 0.817896 0.691688
Si Si3 0.549196 0.183142 0.232767
Si Si4 0.297924 0.318808 0.075334
Si Si5 0.145228 0.319534 0.573868
Si Si6 0.450728 0.183248 0.619639
O O1 0.851124 0.500000 0.190476
O O2 0.828317 0.751807 0.247844
O O3 0.908099 0.740275 0.189720
O O4 0.837497 0.743535 0.117874
O O5 0.750000 0.750000 0.693713
O O6 0.823192 0.775418 0.622792
O O7 0.797264 0.000000 0.698779
O O8 0.500000 0.241425 0.204555
O O9 0.555546 0.245850 0.306506
O O10 0.549232 0.000000 0.234793
O O11 0.296597 0.500000 0.087171
O O12 0.250000 0.250000 0.098886
O O13 0.307614 0.275635 0.000000
O O14 0.162613 0.290468 0.500000
O O15 0.148202 0.500000 0.592808
O O16 0.092701 0.259903 0.577926
O O17 0.500000 0.242991 0.591779
O O18 0.451690 0.000000 0.619273
#
# Coordination Sequence:
#
# PCOD8271764 Si02
#       6
#    16  16  16  16  16  16
#     4  11  20  34  59  86 113 141 178 223 267 313
#     4  12  25  40  57  76 103 137 179 225 271 324
#     4   8  14  26  49  80 110 139 173 217 264 309
#     4  10  21  37  56  81 115 150 184 220 263 317
#     4  10  20  35  55  79 107 138 176 222 272 323
#     4   8  13  25  48  78 109 137 170 214 263 314
#
# _framework density 18.516753000000001
#
# number of rings (size 3 to 8) (size 9 to 14) (size 15 to 20)
#    0.000    2.167    1.667    4.000    0.000    2.000 
#    0.000    1.667    0.000    4.000    0.000    4.667 
#    0.000    0.000    0.000    0.000    0.000    0.000 
#
# Total GULP energy -594939.870804 kJ/mol
# GULP energy per Si atom -12394.580642 kJ/mol
# Density = 1.847461 g / cm^3
# Si number density = 18.516753 Si / 1000 Ang^3
#
#
#
# Elastic Constant Matrix: (Units=GPa)
#
#
# Indices 1 2 3 4 5 6 
#
# 1 152.8078 37.5894 63.4984 0.0000 0.0000 0.0000
# 2 37.5894 65.1840 33.1601 0.0000 0.0000 0.0000
# 3 63.4984 33.1601 90.2569 0.0000 0.0000 0.0000
# 4 0.0000 0.0000 0.0000 26.8555 0.0000 0.0000
# 5 0.0000 0.0000 0.0000 0.0000 29.1646 0.0000
# 6 0.0000 0.0000 0.0000 0.0000 0.0000 18.6722
#
#
#
# Elastic Compliance Matrix: (Units=1/GPa)
#
#
# Indices 1 2 3 4 5 6 
#
# 1 0.009588 -0.002580 -0.005798 0.000000 0.000000 0.000000
# 2 -0.002580 0.019562 -0.005372 0.000000 0.000000 0.000000
# 3 -0.005798 -0.005372 0.017132 0.000000 0.000000 0.000000
# 4 0.000000 0.000000 0.000000 0.037236 0.000000 0.000000
# 5 0.000000 0.000000 0.000000 0.000000 0.034288 0.000000
# 6 0.000000 0.000000 0.000000 0.000000 0.000000 0.053556
#
#
# Mechanical properties :
#
#
# Convention : Reuss Voigt Hill
#
# Bulk Modulus (GPa) = 53.23997 64.08273 58.66135
# Shear Modulus (GPa) = 24.37585 26.53851 25.45718
#
# Velocity S-wave (km/s) = 3.63219 3.78989 3.71188
# Velocity P-wave (km/s) = 6.81213 7.33718 7.07952
#
# Compressibility (1/GPa) = 0.01878288
#
# Stress axis : x y z
#
# Youngs Moduli (GPa) = 104.29797 51.12044 58.37049
#
# Poissons Ratio (x) = 0.13187 0.33841
# Poissons Ratio (y) = 0.26906 0.31357
# Poissons Ratio (z) = 0.60468 0.27462
#
# Static dielectric constant tensor:
#      x y z
#    x 4.019720 0.000000 0.000000 
#    y 0.000000 3.154820 0.000000 
#    z 0.000000 0.000000 3.317210 
# 
# 
# High freq. dielectric constant tensor:
#      x y z
#    x 1.734300 0.000000 0.000000 
#    y 0.000000 1.690250 0.000000 
#    z 0.000000 0.000000 1.701740 
# 
# From -- ./inp_files/65738.got.cif
#   From: 2010.03.12/outbox.cif.g09.slc.cpg/sg65_33_cif.got.tgz:65738.got - 2010.04.10 20:52:16.
