data_PCOD8271164
_publ_section_title
;
Structure prediction by ZEFSAII (Michael W. Deem and Ramdas Pophale) SiO2 
 PCOD8271164
Probable space group: C M M M
;
_chemical_formula_sum "Si O2"
_cell_formula_units_Z 80
_cell_length_a 18.468565
_cell_length_b 9.189962
_cell_length_c 25.221423
_cell_angle_alpha 90.000000
_cell_angle_beta 90.000000
_cell_angle_gamma 90.000000
_cell_volume 4280.716373
_symmetry_space_group_name_H-M "C M M M"
_symmetry_group_IT_number 65
_symmetry_cell_setting 'orthorhombic'
loop_
_space_group_symop_operation_xyz
x,y,z
-x,-y,z
x,-y,-z
-x,y,-z
-x,-y,-z
x,y,-z
-x,y,z
x,-y,z
1/2+x,1/2+y,z
1/2-x,1/2-y,z
1/2+x,1/2-y,-z
1/2-x,1/2+y,-z
1/2-x,1/2-y,-z
1/2+x,1/2+y,-z
1/2-x,1/2+y,z
1/2+x,1/2-y,z
loop_
_atom_site_type_symbol
_atom_site_label
_atom_site_fract_x
_atom_site_fract_y
_atom_site_fract_z
Si Si1 0.676723 0.170188 0.559804
Si Si2 0.583679 0.832081 0.141930
Si Si3 0.419385 0.827345 0.344072
Si Si4 0.322707 0.668994 0.061669
Si Si5 0.326035 0.828835 0.245539
O O1 0.652626 0.210757 0.500000
O O2 0.750000 0.250000 0.576100
O O3 0.613873 0.221783 0.599587
O O4 0.691893 0.000000 0.565627
O O5 0.500000 0.799208 0.153094
O O6 0.609456 0.733597 0.093113
O O7 0.627419 0.788488 0.194189
O O8 0.596183 0.000000 0.126832
O O9 0.500000 0.760403 0.339503
O O10 0.369516 0.768490 0.296456
O O11 0.424097 0.000000 0.340229
O O12 0.313223 0.500000 0.075010
O O13 0.250000 0.750000 0.080326
O O14 0.338080 0.696073 0.000000
O O15 0.250000 0.750000 0.241648
O O16 0.312229 0.000000 0.250122
#
# Coordination Sequence:
#
# PCOD8271164 Si02
#       5
#    16  16  16  16  16
#     4   9  17  29  47  71  97 127 164 204 245 291
#     4  10  21  36  54  77 105 136 170 209 254 304
#     4   9  17  30  49  72  98 128 163 205 250 294
#     4  10  21  37  57  80 106 137 173 211 251 298
#     4  10  20  34  53  75  99 130 168 207 249 299
#
# _framework density 18.688459999999999
#
# number of rings (size 3 to 8) (size 9 to 14) (size 15 to 20)
#    0.000    2.400    0.000    2.400    0.000    7.200 
#    0.000    4.000    0.000    3.600    0.000    2.800 
#    0.000    0.000    0.000    0.000    0.000    0.000 
#
# Total GULP energy -496101.183652 kJ/mol
# GULP energy per Si atom -12402.529591 kJ/mol
# Density = 1.864592 g / cm^3
# Si number density = 18.688460 Si / 1000 Ang^3
#
#
#
# Elastic Constant Matrix: (Units=GPa)
#
#
# Indices 1 2 3 4 5 6 
#
# 1 169.1658 53.5674 85.7467 0.0000 0.0000 0.0000
# 2 53.5674 51.2922 47.6123 0.0000 0.0000 0.0000
# 3 85.7467 47.6123 117.3764 0.0000 0.0000 0.0000
# 4 0.0000 0.0000 0.0000 17.2774 0.0000 0.0000
# 5 0.0000 0.0000 0.0000 0.0000 33.7668 0.0000
# 6 0.0000 0.0000 0.0000 0.0000 0.0000 30.0131
#
#
#
# Elastic Compliance Matrix: (Units=1/GPa)
#
#
# Indices 1 2 3 4 5 6 
#
# 1 0.010472 -0.006152 -0.005155 0.000000 0.000000 0.000000
# 2 -0.006152 0.034884 -0.009656 0.000000 0.000000 0.000000
# 3 -0.005155 -0.009656 0.016202 0.000000 0.000000 0.000000
# 4 0.000000 0.000000 0.000000 0.057879 0.000000 0.000000
# 5 0.000000 0.000000 0.000000 0.000000 0.029615 0.000000
# 6 0.000000 0.000000 0.000000 0.000000 0.000000 0.033319
#
#
# Mechanical properties :
#
#
# Convention : Reuss Voigt Hill
#
# Bulk Modulus (GPa) = 50.93473 79.07635 65.00554
# Shear Modulus (GPa) = 21.65980 26.27199 23.96590
#
# Velocity S-wave (km/s) = 3.40809 3.75345 3.58493
# Velocity P-wave (km/s) = 6.54222 7.82236 7.21075
#
# Compressibility (1/GPa) = 0.01963297
#
# Stress axis : x y z
#
# Youngs Moduli (GPa) = 95.49043 28.66611 61.71920
#
# Poissons Ratio (x) = 0.17635 0.31816
# Poissons Ratio (y) = 0.58743 0.59599
# Poissons Ratio (z) = 0.49224 0.27681
#
# Static dielectric constant tensor:
#      x y z
#    x 3.525170 0.000000 0.000000 
#    y 0.000000 3.210690 0.000000 
#    z 0.000000 0.000000 3.601830 
# 
# 
# High freq. dielectric constant tensor:
#      x y z
#    x 1.730150 0.000000 0.000000 
#    y 0.000000 1.698120 0.000000 
#    z 0.000000 0.000000 1.739760 
# 
# From -- ./inp_files/68825.got.cif
#   From: 2010.03.12/outbox.cif.g09.slc.cpg/sg65_35_cif.got.tgz:68825.got - 2010.04.10 20:52:16.
