data_PCOD8271339
_publ_section_title
;
Structure prediction by ZEFSAII (Michael W. Deem and Ramdas Pophale) SiO2 
 PCOD8271339
Probable space group: C M M M
;
_chemical_formula_sum "Si O2"
_cell_formula_units_Z 96
_cell_length_a 15.271305
_cell_length_b 21.316825
_cell_length_c 15.440614
_cell_angle_alpha 90.000000
_cell_angle_beta 90.000000
_cell_angle_gamma 90.000000
_cell_volume 5026.471646
_symmetry_space_group_name_H-M "C M M M"
_symmetry_group_IT_number 65
_symmetry_cell_setting 'orthorhombic'
loop_
_space_group_symop_operation_xyz
x,y,z
-x,-y,z
x,-y,-z
-x,y,-z
-x,-y,-z
x,y,-z
-x,y,z
x,-y,z
1/2+x,1/2+y,z
1/2-x,1/2-y,z
1/2+x,1/2-y,-z
1/2-x,1/2+y,-z
1/2-x,1/2-y,-z
1/2+x,1/2+y,-z
1/2-x,1/2+y,z
1/2+x,1/2-y,z
loop_
_atom_site_type_symbol
_atom_site_label
_atom_site_fract_x
_atom_site_fract_y
_atom_site_fract_z
Si Si1 0.100405 0.764486 0.156069
Si Si2 0.671840 0.928346 0.000000
Si Si3 0.271289 0.930240 0.500000
Si Si4 0.601574 0.875549 0.830717
Si Si5 0.269839 0.925501 0.312833
Si Si6 0.302409 0.685858 0.000000
Si Si7 0.598997 0.649880 0.311361
Si Si8 0.595592 0.626661 0.500000
O O1 0.139956 0.694146 0.149851
O O2 0.115741 0.788476 0.253768
O O3 0.000000 0.759466 0.130588
O O4 0.141302 0.812953 0.087867
O O5 0.611909 0.917676 0.084048
O O6 0.751751 0.879732 0.000000
O O7 0.707084 0.000000 0.000000
O O8 0.300161 0.898812 0.408454
O O9 0.164900 0.929880 0.500000
O O10 0.307939 0.000000 0.500000
O O11 0.500000 0.873561 0.802806
O O12 0.656345 0.905149 0.753447
O O13 0.173364 0.900739 0.286564
O O14 0.262322 0.000000 0.315803
O O15 0.250000 0.750000 0.000000
O O16 0.500000 0.623753 0.292086
O O17 0.607027 0.669003 0.413102
O O18 0.500000 0.594701 0.500000
#
# Coordination Sequence:
#
# PCOD8271339 Si02
#       8
#    16   8   8  16  16   8  16   8
#     4  10  21  37  57  82 109 144 188 230 271 328
#     4  12  25  38  57  88 117 140 177 232 287 333
#     4   8  16  31  48  71 103 140 184 229 267 323
#     4  11  23  39  57  79 108 146 189 233 281 327
#     4  10  20  34  54  78 108 145 184 227 279 336
#     4  12  21  37  63  85 107 148 186 226 272 338
#     4   9  18  32  54  81 112 143 178 225 276 335
#     4   8  14  27  47  76 108 141 174 216 280 334
#
# _framework density 19.098883000000001
#
# number of rings (size 3 to 8) (size 9 to 14) (size 15 to 20)
#    0.000    2.000    1.667    2.000    0.000    3.500 
#    0.000    4.583    0.000    8.500    0.000    0.000 
#    0.000    0.000    0.000    0.000    0.000    0.000 
#
# Total GULP energy -594741.521741 kJ/mol
# GULP energy per Si atom -12390.448370 kJ/mol
# Density = 1.905541 g / cm^3
# Si number density = 19.098883 Si / 1000 Ang^3
#
#
#
# Elastic Constant Matrix: (Units=GPa)
#
#
# Indices 1 2 3 4 5 6 
#
# 1 77.1855 36.9469 55.6660 0.0000 0.0000 0.0000
# 2 36.9469 99.6916 38.1043 0.0000 0.0000 0.0000
# 3 55.6660 38.1043 139.3167 0.0000 0.0000 0.0000
# 4 0.0000 0.0000 0.0000 26.0093 0.0000 0.0000
# 5 0.0000 0.0000 0.0000 0.0000 12.5671 0.0000
# 6 0.0000 0.0000 0.0000 0.0000 0.0000 26.3222
#
#
#
# Elastic Compliance Matrix: (Units=1/GPa)
#
#
# Indices 1 2 3 4 5 6 
#
# 1 0.020138 -0.004900 -0.006706 0.000000 0.000000 0.000000
# 2 -0.004900 0.012394 -0.001432 0.000000 0.000000 0.000000
# 3 -0.006706 -0.001432 0.010249 0.000000 0.000000 0.000000
# 4 0.000000 0.000000 0.000000 0.038448 0.000000 0.000000
# 5 0.000000 0.000000 0.000000 0.000000 0.079573 0.000000
# 6 0.000000 0.000000 0.000000 0.000000 0.000000 0.037991
#
#
# Mechanical properties :
#
#
# Convention : Reuss Voigt Hill
#
# Bulk Modulus (GPa) = 59.86344 64.18091 62.02218
# Shear Modulus (GPa) = 21.69787 25.34482 23.52135
#
# Velocity S-wave (km/s) = 3.37424 3.64680 3.51316
# Velocity P-wave (km/s) = 6.82588 7.17005 7.00008
#
# Compressibility (1/GPa) = 0.01670469
#
# Stress axis : x y z
#
# Youngs Moduli (GPa) = 49.65781 80.68203 97.56953
#
# Poissons Ratio (x) = 0.39535 0.65431
# Poissons Ratio (y) = 0.24333 0.13972
# Poissons Ratio (z) = 0.33301 0.11554
#
# Static dielectric constant tensor:
#      x y z
#    x 3.478190 0.000000 0.000000 
#    y 0.000000 3.293910 0.000000 
#    z 0.000000 0.000000 3.982440 
# 
# 
# High freq. dielectric constant tensor:
#      x y z
#    x 1.738600 0.000000 0.000000 
#    y 0.000000 1.710870 0.000000 
#    z 0.000000 0.000000 1.765240 
# 
# From -- ./inp_files/40482.got.cif
#   From: 2010.03.12/outbox.cif.g09.slc.cpg/sg65_21_cif.got.tgz:40482.got - 2010.04.10 20:52:16.
