data_PCOD8271818
_publ_section_title
;
Structure prediction by ZEFSAII (Michael W. Deem and Ramdas Pophale) SiO2 
 PCOD8271818
Probable space group: C M M M
;
_chemical_formula_sum "Si O2"
_cell_formula_units_Z 112
_cell_length_a 14.623203
_cell_length_b 13.836596
_cell_length_c 26.429291
_cell_angle_alpha 90.000000
_cell_angle_beta 90.000000
_cell_angle_gamma 90.000000
_cell_volume 5347.579901
_symmetry_space_group_name_H-M "C M M M"
_symmetry_group_IT_number 65
_symmetry_cell_setting 'orthorhombic'
loop_
_space_group_symop_operation_xyz
x,y,z
-x,-y,z
x,-y,-z
-x,y,-z
-x,-y,-z
x,y,-z
-x,y,z
x,-y,z
1/2+x,1/2+y,z
1/2-x,1/2-y,z
1/2+x,1/2-y,-z
1/2-x,1/2+y,-z
1/2-x,1/2-y,-z
1/2+x,1/2+y,-z
1/2-x,1/2+y,z
1/2+x,1/2-y,z
loop_
_atom_site_type_symbol
_atom_site_label
_atom_site_fract_x
_atom_site_fract_y
_atom_site_fract_z
Si Si1 0.896348 0.105355 0.646794
Si Si2 0.102413 0.392593 0.374895
Si Si3 0.280831 0.113101 0.904490
Si Si4 0.652180 0.774187 0.716002
Si Si5 0.393345 0.718817 0.057826
Si Si6 0.852193 0.228083 0.554457
Si Si7 0.899581 0.608452 0.191003
O O1 0.892463 0.176132 0.695025
O O2 0.848379 0.143517 0.596053
O O3 0.000000 0.095245 0.630360
O O4 0.855382 0.000000 0.661311
O O5 0.136268 0.500000 0.389645
O O6 0.166263 0.349183 0.330618
O O7 0.100014 0.324393 0.423889
O O8 0.000000 0.395324 0.352299
O O9 0.350399 0.173087 0.940363
O O10 0.175026 0.149232 0.909635
O O11 0.317979 0.133278 0.847809
O O12 0.286644 0.000000 0.918664
O O13 0.750000 0.750000 0.738959
O O14 0.595620 0.819021 0.761805
O O15 0.500000 0.715102 0.077412
O O16 0.391350 0.683264 0.000000
O O17 0.898882 0.199913 0.500000
O O18 0.750000 0.250000 0.541363
O O19 0.884045 0.500000 0.211747
O O20 0.000000 0.616236 0.164389
#
# Coordination Sequence:
#
# PCOD8271818 Si02
#       7
#    16  16  16  16  16  16  16
#     4  10  21  37  56  77 104 141 185 230 274 331
#     4  10  20  35  56  79 104 137 179 229 283 341
#     4  10  21  38  62  91 125 166 213 264 316 373
#     4  11  22  34  56  83 109 145 184 230 289 348
#     4  10  22  39  62  94 132 174 218 265 317 371
#     4  10  21  35  52  77 107 139 175 219 278 343
#     4  10  21  38  61  87 115 150 195 249 307 363
#
# _framework density 20.944054999999999
#
# number of rings (size 3 to 8) (size 9 to 14) (size 15 to 20)
#    0.000    1.857    0.000    6.000    2.000    8.000 
#    0.000    4.286    0.000    0.000    0.000    0.000 
#    0.000    0.000    0.000    0.000    0.000    0.000 
#
# Total GULP energy -693872.041520 kJ/mol
# GULP energy per Si atom -12390.572170 kJ/mol
# Density = 2.089639 g / cm^3
# Si number density = 20.944055 Si / 1000 Ang^3
#
#
#
# Elastic Constant Matrix: (Units=GPa)
#
#
# Indices 1 2 3 4 5 6 
#
# 1 117.7395 33.0067 33.7284 0.0000 0.0000 0.0000
# 2 33.0067 153.9724 55.2658 0.0000 0.0000 0.0000
# 3 33.7284 55.2658 110.0540 0.0000 0.0000 0.0000
# 4 0.0000 0.0000 0.0000 22.4432 0.0000 0.0000
# 5 0.0000 0.0000 0.0000 0.0000 23.9915 0.0000
# 6 0.0000 0.0000 0.0000 0.0000 0.0000 33.4230
#
#
#
# Elastic Compliance Matrix: (Units=1/GPa)
#
#
# Indices 1 2 3 4 5 6 
#
# 1 0.009492 -0.001208 -0.002302 0.000000 0.000000 0.000000
# 2 -0.001208 0.008077 -0.003685 0.000000 0.000000 0.000000
# 3 -0.002302 -0.003685 0.011643 0.000000 0.000000 0.000000
# 4 0.000000 0.000000 0.000000 0.044557 0.000000 0.000000
# 5 0.000000 0.000000 0.000000 0.000000 0.041681 0.000000
# 6 0.000000 0.000000 0.000000 0.000000 0.000000 0.029920
#
#
# Mechanical properties :
#
#
# Convention : Reuss Voigt Hill
#
# Bulk Modulus (GPa) = 67.48121 69.52976 68.50548
# Shear Modulus (GPa) = 30.35817 33.28918 31.82367
#
# Velocity S-wave (km/s) = 3.81135 3.99109 3.90226
# Velocity P-wave (km/s) = 7.18736 7.38298 7.28583
#
# Compressibility (1/GPa) = 0.01481894
#
# Stress axis : x y z
#
# Youngs Moduli (GPa) = 105.35684 123.81534 85.89077
#
# Poissons Ratio (x) = 0.14962 0.19773
# Poissons Ratio (y) = 0.12731 0.31655
# Poissons Ratio (z) = 0.24254 0.45632
#
# Static dielectric constant tensor:
#      x y z
#    x 3.921670 0.000000 0.000000 
#    y 0.000000 4.112250 0.000000 
#    z 0.000000 0.000000 3.530540 
# 
# 
# High freq. dielectric constant tensor:
#      x y z
#    x 1.829090 0.000000 0.000000 
#    y 0.000000 1.817410 0.000000 
#    z 0.000000 0.000000 1.801700 
# 
# From -- ./inp_files/74875.got.cif
#   From: 2010.03.12/outbox.cif.g09.slc.cpg/sg65_38_cif.got.tgz:74875.got - 2010.04.10 20:52:16.
