data_PCOD8271914
_publ_section_title
;
Structure prediction by ZEFSAII (Michael W. Deem and Ramdas Pophale) SiO2 
 PCOD8271914
Probable space group: C M M M
;
_chemical_formula_sum "Si O2"
_cell_formula_units_Z 96
_cell_length_a 20.377054
_cell_length_b 17.415109
_cell_length_c 13.910984
_cell_angle_alpha 90.000000
_cell_angle_beta 90.000000
_cell_angle_gamma 90.000000
_cell_volume 4936.571646
_symmetry_space_group_name_H-M "C M M M"
_symmetry_group_IT_number 65
_symmetry_cell_setting 'orthorhombic'
loop_
_space_group_symop_operation_xyz
x,y,z
-x,-y,z
x,-y,-z
-x,y,-z
-x,-y,-z
x,y,-z
-x,y,z
x,-y,z
1/2+x,1/2+y,z
1/2-x,1/2-y,z
1/2+x,1/2-y,-z
1/2-x,1/2+y,-z
1/2-x,1/2-y,-z
1/2+x,1/2+y,-z
1/2-x,1/2+y,z
1/2+x,1/2-y,z
loop_
_atom_site_type_symbol
_atom_site_label
_atom_site_fract_x
_atom_site_fract_y
_atom_site_fract_z
Si Si1 0.872513 0.089184 0.608885
Si Si2 0.266797 0.836669 0.391074
Si Si3 0.179570 0.590760 0.216483
Si Si4 0.425490 0.344174 0.207942
Si Si5 0.805797 0.911021 0.105227
Si Si6 0.924546 0.684516 0.111192
O O1 0.895730 0.105419 0.500000
O O2 0.796344 0.109156 0.621291
O O3 0.916402 0.143129 0.677744
O O4 0.882262 0.000000 0.636215
O O5 0.293717 0.839356 0.500000
O O6 0.250000 0.750000 0.361379
O O7 0.323594 0.869728 0.321661
O O8 0.178279 0.500000 0.228424
O O9 0.246601 0.623358 0.168339
O O10 0.118416 0.614351 0.150418
O O11 0.500000 0.364060 0.177870
O O12 0.376277 0.401035 0.154175
O O13 0.407976 0.257967 0.176809
O O14 0.791702 0.000000 0.093426
O O15 0.805750 0.871533 0.000000
O O16 0.000000 0.660161 0.122038
O O17 0.907496 0.702148 0.000000
#
# Coordination Sequence:
#
# PCOD8271914 Si02
#       6
#    16  16  16  16  16  16
#     4  10  20  35  56  83 117 156 197 240 287 342
#     4  10  20  35  58  88 120 154 193 236 285 342
#     4  11  22  37  61  90 118 150 189 239 298 347
#     4  11  22  37  56  79 114 157 197 240 291 344
#     4  10  21  35  52  80 115 150 192 238 285 345
#     4  10  23  42  62  85 113 150 198 247 295 351
#
# _framework density 19.446694000000001
#
# number of rings (size 3 to 8) (size 9 to 14) (size 15 to 20)
#    0.000    1.667    1.667    3.000    0.000    5.000 
#    0.000    4.167    0.000    1.500    0.000    1.167 
#    0.000    0.000    0.000    0.000    0.000    0.000 
#
# Total GULP energy -595272.865998 kJ/mol
# GULP energy per Si atom -12401.518042 kJ/mol
# Density = 1.940243 g / cm^3
# Si number density = 19.446694 Si / 1000 Ang^3
#
#
#
# Elastic Constant Matrix: (Units=GPa)
#
#
# Indices 1 2 3 4 5 6 
#
# 1 81.7496 35.0918 48.3664 0.0000 0.0000 0.0000
# 2 35.0918 84.7183 64.7045 0.0000 0.0000 0.0000
# 3 48.3664 64.7045 143.4825 0.0000 0.0000 0.0000
# 4 0.0000 0.0000 0.0000 31.8507 0.0000 0.0000
# 5 0.0000 0.0000 0.0000 0.0000 27.9592 0.0000
# 6 0.0000 0.0000 0.0000 0.0000 0.0000 26.8509
#
#
#
# Elastic Compliance Matrix: (Units=1/GPa)
#
#
# Indices 1 2 3 4 5 6 
#
# 1 0.016059 -0.003840 -0.003682 0.000000 0.000000 0.000000
# 2 -0.003840 0.018923 -0.007239 0.000000 0.000000 0.000000
# 3 -0.003682 -0.007239 0.011475 0.000000 0.000000 0.000000
# 4 0.000000 0.000000 0.000000 0.031396 0.000000 0.000000
# 5 0.000000 0.000000 0.000000 0.000000 0.035766 0.000000
# 6 0.000000 0.000000 0.000000 0.000000 0.000000 0.037243
#
#
# Mechanical properties :
#
#
# Convention : Reuss Voigt Hill
#
# Bulk Modulus (GPa) = 59.04651 67.36398 63.20525
# Shear Modulus (GPa) = 26.87734 28.11802 27.49768
#
# Velocity S-wave (km/s) = 3.72170 3.80663 3.76440
# Velocity P-wave (km/s) = 6.99266 7.35092 7.17403
#
# Compressibility (1/GPa) = 0.01693580
#
# Stress axis : x y z
#
# Youngs Moduli (GPa) = 62.27007 52.84443 87.14509
#
# Poissons Ratio (x) = 0.20293 0.32084
# Poissons Ratio (y) = 0.23912 0.63086
# Poissons Ratio (z) = 0.22926 0.38255
#
# Static dielectric constant tensor:
#      x y z
#    x 3.370540 0.000000 0.000000 
#    y 0.000000 3.363470 0.000000 
#    z 0.000000 0.000000 3.936220 
# 
# 
# High freq. dielectric constant tensor:
#      x y z
#    x 1.736920 0.000000 0.000000 
#    y 0.000000 1.748870 0.000000 
#    z 0.000000 0.000000 1.775820 
# 
# From -- ./inp_files/40345.got.cif
#   From: 2010.03.12/outbox.cif.g09.slc.cpg/sg65_21_cif.got.tgz:40345.got - 2010.04.10 20:52:16.
