data_PCOD8271606
_publ_section_title
;
Structure prediction by ZEFSAII (Michael W. Deem and Ramdas Pophale) SiO2 
 PCOD8271606
Probable space group: C M M M
;
_chemical_formula_sum "Si O2"
_cell_formula_units_Z 120
_cell_length_a 29.574033
_cell_length_b 14.690236
_cell_length_c 13.983047
_cell_angle_alpha 90.000000
_cell_angle_beta 90.000000
_cell_angle_gamma 90.000000
_cell_volume 6074.928117
_symmetry_space_group_name_H-M "C M M M"
_symmetry_group_IT_number 65
_symmetry_cell_setting 'orthorhombic'
loop_
_space_group_symop_operation_xyz
x,y,z
-x,-y,z
x,-y,-z
-x,y,-z
-x,-y,-z
x,y,-z
-x,y,z
x,-y,z
1/2+x,1/2+y,z
1/2-x,1/2-y,z
1/2+x,1/2-y,-z
1/2-x,1/2+y,-z
1/2-x,1/2-y,-z
1/2+x,1/2+y,-z
1/2-x,1/2+y,z
1/2+x,1/2-y,z
loop_
_atom_site_type_symbol
_atom_site_label
_atom_site_fract_x
_atom_site_fract_y
_atom_site_fract_z
Si Si1 0.000000 0.898157 0.612648
Si Si2 0.411148 0.287777 0.387878
Si Si3 0.051667 0.223706 0.886401
Si Si4 0.449557 0.099832 0.386851
Si Si5 0.397407 0.900539 0.113299
Si Si6 0.801789 0.649370 0.891624
Si Si7 0.703256 0.362778 0.890717
Si Si8 0.380829 0.399037 0.227576
O O1 0.956342 0.841181 0.644080
O O2 0.000000 0.906739 0.500000
O O3 0.000000 0.000000 0.657980
O O4 0.399480 0.298141 0.500000
O O5 0.416455 0.182041 0.355711
O O6 0.373121 0.335904 0.322387
O O7 0.069227 0.322257 0.847854
O O8 0.081844 0.144150 0.842357
O O9 0.000000 0.211539 0.853110
O O10 0.056011 0.217499 0.000000
O O11 0.453563 0.103854 0.500000
O O12 0.500000 0.114257 0.344661
O O13 0.430534 0.000000 0.354549
O O14 0.346620 0.892290 0.158143
O O15 0.417289 0.000000 0.140955
O O16 0.393365 0.889148 0.000000
O O17 0.753624 0.617678 0.846916
O O18 0.807286 0.756802 0.887453
O O19 0.799728 0.615493 0.000000
O O20 0.666797 0.412331 0.825405
O O21 0.699465 0.397802 0.000000
O O22 0.397160 0.500000 0.257815
#
# Coordination Sequence:
#
# PCOD8271606 Si02
#       8
#     8  16  16  16  16  16  16  16
#     4   9  16  28  47  67  90 128 177 226 275 317
#     4  10  20  35  52  73 103 136 173 226 282 323
#     4  10  22  39  53  69 105 150 186 223 262 307
#     4   8  13  25  49  77  99 121 155 207 278 346
#     4   9  16  29  53  81 106 137 178 218 263 321
#     4   8  14  28  54  83 109 138 167 210 276 335
#     4   9  17  32  54  80 111 142 172 216 275 329
#     4  12  25  36  52  76 104 144 192 232 266 314
#
# _framework density 19.753319999999999
#
# number of rings (size 3 to 8) (size 9 to 14) (size 15 to 20)
#    0.000    2.600    2.000    2.000    0.933    2.933 
#    0.000    4.000    0.000    0.000    0.000    1.867 
#    0.000    0.000    0.000    0.000    0.000    0.000 
#
# Total GULP energy -743391.054703 kJ/mol
# GULP energy per Si atom -12389.850912 kJ/mol
# Density = 1.970836 g / cm^3
# Si number density = 19.753320 Si / 1000 Ang^3
#
#
#
# Elastic Constant Matrix: (Units=GPa)
#
#
# Indices 1 2 3 4 5 6 
#
# 1 86.2072 33.4719 24.2886 0.0000 0.0000 0.0000
# 2 33.4719 144.0353 19.8460 0.0000 0.0000 0.0000
# 3 24.2886 19.8460 53.0415 0.0000 0.0000 0.0000
# 4 0.0000 0.0000 0.0000 11.5439 0.0000 0.0000
# 5 0.0000 0.0000 0.0000 0.0000 12.2620 0.0000
# 6 0.0000 0.0000 0.0000 0.0000 0.0000 11.7746
#
#
#
# Elastic Compliance Matrix: (Units=1/GPa)
#
#
# Indices 1 2 3 4 5 6 
#
# 1 0.014138 -0.002524 -0.005530 0.000000 0.000000 0.000000
# 2 -0.002524 0.007771 -0.001752 0.000000 0.000000 0.000000
# 3 -0.005530 -0.001752 0.022041 0.000000 0.000000 0.000000
# 4 0.000000 0.000000 0.000000 0.086626 0.000000 0.000000
# 5 0.000000 0.000000 0.000000 0.000000 0.081553 0.000000
# 6 0.000000 0.000000 0.000000 0.000000 0.000000 0.084929
#
#
# Mechanical properties :
#
#
# Convention : Reuss Voigt Hill
#
# Bulk Modulus (GPa) = 41.08650 48.72190 44.90420
# Shear Modulus (GPa) = 15.39507 20.82793 18.11150
#
# Velocity S-wave (km/s) = 2.79474 3.25068 3.03129
# Velocity P-wave (km/s) = 5.59098 6.22960 5.91891
#
# Compressibility (1/GPa) = 0.02433890
#
# Stress axis : x y z
#
# Youngs Moduli (GPa) = 70.73255 128.69085 45.37035
#
# Poissons Ratio (x) = 0.32475 0.25089
# Poissons Ratio (y) = 0.17849 0.07948
# Poissons Ratio (z) = 0.39113 0.22545
#
# Static dielectric constant tensor:
#      x y z
#    x 3.632880 0.000000 0.000000 
#    y 0.000000 3.875040 0.000000 
#    z 0.000000 0.000000 3.279660 
# 
# 
# High freq. dielectric constant tensor:
#      x y z
#    x 1.746190 0.000000 0.000000 
#    y 0.000000 1.786360 0.000000 
#    z 0.000000 0.000000 1.729770 
# 
# From -- ./inp_files/48108.got.cif
#   From: 2010.03.12/outbox.cif.g09.slc.cpg/sg65_25_cif.got.tgz:48108.got - 2010.04.10 20:52:16.
