data_PCOD8271609
_publ_section_title
;
Structure prediction by ZEFSAII (Michael W. Deem and Ramdas Pophale) SiO2 
 PCOD8271609
Probable space group: C M M M
;
_chemical_formula_sum "Si O2"
_cell_formula_units_Z 96
_cell_length_a 22.340074
_cell_length_b 19.291851
_cell_length_c 12.572949
_cell_angle_alpha 90.000000
_cell_angle_beta 90.000000
_cell_angle_gamma 90.000000
_cell_volume 5418.706897
_symmetry_space_group_name_H-M "C M M M"
_symmetry_group_IT_number 65
_symmetry_cell_setting 'orthorhombic'
loop_
_space_group_symop_operation_xyz
x,y,z
-x,-y,z
x,-y,-z
-x,y,-z
-x,-y,-z
x,y,-z
-x,y,z
x,-y,z
1/2+x,1/2+y,z
1/2-x,1/2-y,z
1/2+x,1/2-y,-z
1/2-x,1/2+y,-z
1/2-x,1/2-y,-z
1/2+x,1/2+y,-z
1/2-x,1/2+y,z
1/2+x,1/2-y,z
loop_
_atom_site_type_symbol
_atom_site_label
_atom_site_fract_x
_atom_site_fract_y
_atom_site_fract_z
Si Si1 0.166353 0.420932 0.310704
Si Si2 0.615634 0.583151 0.500000
Si Si3 0.566983 0.823967 0.621945
Si Si4 0.430150 0.327870 0.691375
Si Si5 0.157071 0.796686 0.878576
Si Si6 0.248726 0.582026 0.500000
Si Si7 0.711141 0.149981 0.880652
O O1 0.149848 0.500000 0.335585
O O2 0.106757 0.375686 0.309965
O O3 0.213575 0.390861 0.396363
O O4 0.195060 0.414216 0.194542
O O5 0.610362 0.500000 0.500000
O O6 0.584943 0.611233 0.607777
O O7 0.683974 0.610735 0.500000
O O8 0.572953 0.845642 0.500000
O O9 0.500000 0.834226 0.664580
O O10 0.585809 0.744210 0.634331
O O11 0.500000 0.333636 0.722113
O O12 0.391453 0.331530 0.799944
O O13 0.218463 0.838340 0.869161
O O14 0.171983 0.717259 0.847808
O O15 0.132709 0.800901 0.000000
O O16 0.251502 0.500000 0.500000
O O17 0.694954 0.128301 0.000000
#
# Coordination Sequence:
#
# PCOD8271609 Si02
#       7
#    16   8  16  16  16   8  16
#     4  11  20  33  53  78 110 145 184 224 268 319
#     4  11  23  39  57  82 114 140 169 212 274 340
#     4  10  20  35  52  75 110 146 184 224 261 312
#     4  11  21  35  56  81 109 143 180 219 264 317
#     4   9  18  34  56  80 105 137 181 226 267 317
#     4   9  20  34  49  76 108 137 169 215 266 315
#     4   9  18  33  53  78 107 139 178 224 273 321
#
# _framework density 17.716404000000001
#
# number of rings (size 3 to 8) (size 9 to 14) (size 15 to 20)
#    0.000    2.000    3.333    2.250    0.000    1.667 
#    0.000    1.667    0.000    2.000    0.000    2.333 
#    0.000    0.000    0.000    0.000    0.000    0.000 
#
# Total GULP energy -595135.615164 kJ/mol
# GULP energy per Si atom -12398.658649 kJ/mol
# Density = 1.767608 g / cm^3
# Si number density = 17.716404 Si / 1000 Ang^3
#
#
#
# Elastic Constant Matrix: (Units=GPa)
#
#
# Indices 1 2 3 4 5 6 
#
# 1 93.4763 40.7568 54.1261 0.0000 0.0000 0.0000
# 2 40.7568 70.4573 33.2758 0.0000 0.0000 0.0000
# 3 54.1261 33.2758 115.1368 0.0000 0.0000 0.0000
# 4 0.0000 0.0000 0.0000 25.9663 0.0000 0.0000
# 5 0.0000 0.0000 0.0000 0.0000 25.2914 0.0000
# 6 0.0000 0.0000 0.0000 0.0000 0.0000 22.0898
#
#
#
# Elastic Compliance Matrix: (Units=1/GPa)
#
#
# Indices 1 2 3 4 5 6 
#
# 1 0.017342 -0.007158 -0.006083 0.000000 0.000000 0.000000
# 2 -0.007158 0.019391 -0.002239 0.000000 0.000000 0.000000
# 3 -0.006083 -0.002239 0.012192 0.000000 0.000000 0.000000
# 4 0.000000 0.000000 0.000000 0.038511 0.000000 0.000000
# 5 0.000000 0.000000 0.000000 0.000000 0.039539 0.000000
# 6 0.000000 0.000000 0.000000 0.000000 0.000000 0.045270
#
#
# Mechanical properties :
#
#
# Convention : Reuss Voigt Hill
#
# Bulk Modulus (GPa) = 55.66906 59.48754 57.57830
# Shear Modulus (GPa) = 23.90113 24.73029 24.31571
#
# Velocity S-wave (km/s) = 3.67699 3.74022 3.70874
# Velocity P-wave (km/s) = 7.03687 7.23208 7.13514
#
# Compressibility (1/GPa) = 0.01796330
#
# Stress axis : x y z
#
# Youngs Moduli (GPa) = 57.66495 51.56952 82.01882
#
# Poissons Ratio (x) = 0.36915 0.49896
# Poissons Ratio (y) = 0.41278 0.18365
# Poissons Ratio (z) = 0.35080 0.11547
#
# Static dielectric constant tensor:
#      x y z
#    x 3.327210 0.000000 0.000000 
#    y 0.000000 3.027660 0.000000 
#    z 0.000000 0.000000 3.285200 
# 
# 
# High freq. dielectric constant tensor:
#      x y z
#    x 1.685650 0.000000 0.000000 
#    y 0.000000 1.664510 0.000000 
#    z 0.000000 0.000000 1.687670 
# 
# From -- ./inp_files/30826.got.cif
#   From: 2010.03.12/outbox.cif.g09.slc.cpg/sg65_16_cif.got.tgz:30826.got - 2010.04.10 20:52:16.
