data_PCOD8271230
_publ_section_title
;
Structure prediction by ZEFSAII (Michael W. Deem and Ramdas Pophale) SiO2 
 PCOD8271230
Probable space group: C M M M
;
_chemical_formula_sum "Si O2"
_cell_formula_units_Z 88
_cell_length_a 8.956065
_cell_length_b 31.032800
_cell_length_c 17.074037
_cell_angle_alpha 90.000000
_cell_angle_beta 90.000000
_cell_angle_gamma 90.000000
_cell_volume 4745.417392
_symmetry_space_group_name_H-M "C M M M"
_symmetry_group_IT_number 65
_symmetry_cell_setting 'orthorhombic'
loop_
_space_group_symop_operation_xyz
x,y,z
-x,-y,z
x,-y,-z
-x,y,-z
-x,-y,-z
x,y,-z
-x,y,z
x,-y,z
1/2+x,1/2+y,z
1/2-x,1/2-y,z
1/2+x,1/2-y,-z
1/2-x,1/2+y,-z
1/2-x,1/2-y,-z
1/2+x,1/2+y,-z
1/2-x,1/2+y,z
1/2+x,1/2-y,z
loop_
_atom_site_type_symbol
_atom_site_label
_atom_site_fract_x
_atom_site_fract_y
_atom_site_fract_z
Si Si1 0.178310 0.293300 0.660475
Si Si2 0.323647 0.579712 0.500000
Si Si3 0.178220 0.178842 0.500000
Si Si4 0.323602 0.451773 0.335510
Si Si5 0.327338 0.085560 0.912994
Si Si6 0.334705 0.500000 0.092796
Si Si7 0.172520 0.376255 0.755921
O O1 0.250000 0.250000 0.696797
O O2 0.249827 0.299251 0.575437
O O3 0.230037 0.331903 0.718014
O O4 0.000000 0.289607 0.654571
O O5 0.500000 0.575797 0.500000
O O6 0.273782 0.629226 0.500000
O O7 0.258899 0.556623 0.577196
O O8 0.000000 0.185549 0.500000
O O9 0.500000 0.445891 0.336173
O O10 0.278013 0.500000 0.308791
O O11 0.258151 0.417194 0.276862
O O12 0.500000 0.073577 0.918406
O O13 0.247108 0.043115 0.879152
O O14 0.300298 0.124121 0.850388
O O15 0.268419 0.099181 0.000000
O O16 0.500000 0.500000 0.130145
O O17 0.340987 0.500000 0.000000
O O18 0.000000 0.382478 0.735370
#
# Coordination Sequence:
#
# PCOD8271230 Si02
#       7
#    16   8   8  16  16   8  16
#     4  11  23  39  58  81 108 137 173 219 272 322
#     4   9  17  32  53  74 103 141 181 217 251 301
#     4  11  20  35  59  82 107 142 178 215 263 315
#     4  10  20  34  53  77 106 144 185 220 258 307
#     4   9  18  34  54  74 101 141 181 214 257 313
#     4   9  17  29  47  75 107 136 171 216 259 301
#     4  10  22  37  54  78 107 137 175 224 267 311
#
# _framework density 18.544208000000001
#
# number of rings (size 3 to 8) (size 9 to 14) (size 15 to 20)
#    0.000    2.091    1.818    1.636    1.273    4.000 
#    0.000    0.455    0.000    1.636    0.000    0.000 
#    0.000    0.000    0.000    0.000    0.000    0.182 
#
# Total GULP energy -545470.289971 kJ/mol
# GULP energy per Si atom -12397.052045 kJ/mol
# Density = 1.850200 g / cm^3
# Si number density = 18.544208 Si / 1000 Ang^3
#
#
#
# Elastic Constant Matrix: (Units=GPa)
#
#
# Indices 1 2 3 4 5 6 
#
# 1 53.9762 42.7688 31.0036 0.0000 0.0000 0.0000
# 2 42.7688 139.1080 66.7372 0.0000 0.0000 0.0000
# 3 31.0036 66.7372 111.7852 0.0000 0.0000 0.0000
# 4 0.0000 0.0000 0.0000 5.8436 0.0000 0.0000
# 5 0.0000 0.0000 0.0000 0.0000 15.4005 0.0000
# 6 0.0000 0.0000 0.0000 0.0000 0.0000 26.3671
#
#
#
# Elastic Compliance Matrix: (Units=1/GPa)
#
#
# Indices 1 2 3 4 5 6 
#
# 1 0.025349 -0.006195 -0.003332 0.000000 0.000000 0.000000
# 2 -0.006195 0.011588 -0.005200 0.000000 0.000000 0.000000
# 3 -0.003332 -0.005200 0.012974 0.000000 0.000000 0.000000
# 4 0.000000 0.000000 0.000000 0.171127 0.000000 0.000000
# 5 0.000000 0.000000 0.000000 0.000000 0.064933 0.000000
# 6 0.000000 0.000000 0.000000 0.000000 0.000000 0.037926
#
#
# Mechanical properties :
#
#
# Convention : Reuss Voigt Hill
#
# Bulk Modulus (GPa) = 48.88208 65.09875 56.99041
# Shear Modulus (GPa) = 13.88230 20.47958 17.18094
#
# Velocity S-wave (km/s) = 2.73903 3.32680 3.04712
# Velocity P-wave (km/s) = 6.03490 7.06666 6.57106
#
# Compressibility (1/GPa) = 0.02045740
#
# Stress axis : x y z
#
# Youngs Moduli (GPa) = 39.44862 86.29579 77.07515
#
# Poissons Ratio (x) = 0.53461 0.25682
# Poissons Ratio (y) = 0.24439 0.40079
# Poissons Ratio (z) = 0.13145 0.44874
#
# Static dielectric constant tensor:
#      x y z
#    x 3.342950 0.000000 0.000000 
#    y 0.000000 3.506800 0.000000 
#    z 0.000000 0.000000 3.627620 
# 
# 
# High freq. dielectric constant tensor:
#      x y z
#    x 1.708980 0.000000 0.000000 
#    y 0.000000 1.708490 0.000000 
#    z 0.000000 0.000000 1.722160 
# 
# From -- ./inp_files/50481.got.cif
#   From: 2010.03.12/outbox.cif.g09.slc.cpg/sg65_26_cif.got.tgz:50481.got - 2010.04.10 20:52:16.
