data_PCOD8271279
_publ_section_title
;
Structure prediction by ZEFSAII (Michael W. Deem and Ramdas Pophale) SiO2 
 PCOD8271279
Probable space group: C M M M
;
_chemical_formula_sum "Si O2"
_cell_formula_units_Z 128
_cell_length_a 20.279789
_cell_length_b 18.580339
_cell_length_c 18.503314
_cell_angle_alpha 90.000000
_cell_angle_beta 90.000000
_cell_angle_gamma 90.000000
_cell_volume 6972.147791
_symmetry_space_group_name_H-M "C M M M"
_symmetry_group_IT_number 65
_symmetry_cell_setting 'orthorhombic'
loop_
_space_group_symop_operation_xyz
x,y,z
-x,-y,z
x,-y,-z
-x,y,-z
-x,-y,-z
x,y,-z
-x,y,z
x,-y,z
1/2+x,1/2+y,z
1/2-x,1/2-y,z
1/2+x,1/2-y,-z
1/2-x,1/2+y,-z
1/2-x,1/2-y,-z
1/2+x,1/2+y,-z
1/2-x,1/2+y,z
1/2+x,1/2-y,z
loop_
_atom_site_type_symbol
_atom_site_label
_atom_site_fract_x
_atom_site_fract_y
_atom_site_fract_z
Si Si1 0.793410 0.420401 0.416481
Si Si2 0.248999 0.918667 0.831332
Si Si3 0.808015 0.696732 0.917667
Si Si4 0.216258 0.827301 0.692305
Si Si5 0.427495 0.148862 0.418566
Si Si6 0.574202 0.722043 0.692431
Si Si7 0.883242 0.080335 0.084129
Si Si8 0.427983 0.723823 0.141718
O O1 0.775474 0.413073 0.500000
O O2 0.775378 0.500000 0.387770
O O3 0.751730 0.359490 0.377258
O O4 0.871630 0.410081 0.403289
O O5 0.308936 0.873897 0.866891
O O6 0.225348 0.880948 0.758630
O O7 0.192203 0.917378 0.891258
O O8 0.272143 0.000000 0.814177
O O9 0.750000 0.750000 0.891414
O O10 0.876782 0.737411 0.910175
O O11 0.797647 0.673297 0.000000
O O12 0.250000 0.750000 0.709328
O O13 0.137712 0.827035 0.674167
O O14 0.418905 0.180844 0.500000
O O15 0.500000 0.112762 0.411037
O O16 0.420225 0.210826 0.360017
O O17 0.500000 0.686369 0.683704
O O18 0.584564 0.745743 0.775344
O O19 0.924317 0.137315 0.131297
O O20 0.912357 0.000000 0.096957
O O21 0.886579 0.101513 0.000000
O O22 0.500000 0.750060 0.117753
#
# Coordination Sequence:
#
# PCOD8271279 Si02
#       8
#    16  16  16  16  16  16  16  16
#     4  10  22  37  55  86 123 154 187 232 284 337
#     4  11  22  36  57  83 110 144 187 235 288 339
#     4  11  21  35  56  82 110 143 187 235 280 336
#     4  12  21  36  60  85 113 149 191 236 284 335
#     4   9  18  34  57  85 116 152 191 229 276 336
#     4  10  20  35  55  81 114 148 188 238 284 331
#     4  10  20  34  53  79 111 146 185 232 287 343
#     4  11  22  37  56  81 115 150 188 235 286 336
#
# _framework density 18.358761999999999
#
# number of rings (size 3 to 8) (size 9 to 14) (size 15 to 20)
#    0.000    1.500    3.750    2.250    0.000    3.000 
#    0.000    1.875    0.000    1.875    0.000    1.750 
#    0.000    0.000    0.000    0.000    0.000    0.000 
#
# Total GULP energy -793320.316559 kJ/mol
# GULP energy per Si atom -12395.629946 kJ/mol
# Density = 1.831698 g / cm^3
# Si number density = 18.358762 Si / 1000 Ang^3
#
#
#
# Elastic Constant Matrix: (Units=GPa)
#
#
# Indices 1 2 3 4 5 6 
#
# 1 116.2006 41.1104 24.8848 0.0000 0.0000 0.0000
# 2 41.1104 103.7825 41.6848 0.0000 0.0000 0.0000
# 3 24.8848 41.6848 77.5371 0.0000 0.0000 0.0000
# 4 0.0000 0.0000 0.0000 27.7658 0.0000 0.0000
# 5 0.0000 0.0000 0.0000 0.0000 20.1601 0.0000
# 6 0.0000 0.0000 0.0000 0.0000 0.0000 17.2921
#
#
#
# Elastic Compliance Matrix: (Units=1/GPa)
#
#
# Indices 1 2 3 4 5 6 
#
# 1 0.010125 -0.003451 -0.001394 0.000000 0.000000 0.000000
# 2 -0.003451 0.013465 -0.006132 0.000000 0.000000 0.000000
# 3 -0.001394 -0.006132 0.016641 0.000000 0.000000 0.000000
# 4 0.000000 0.000000 0.000000 0.036016 0.000000 0.000000
# 5 0.000000 0.000000 0.000000 0.000000 0.049603 0.000000
# 6 0.000000 0.000000 0.000000 0.000000 0.000000 0.057830
#
#
# Mechanical properties :
#
#
# Convention : Reuss Voigt Hill
#
# Bulk Modulus (GPa) = 54.71074 56.98671 55.84872
# Shear Modulus (GPa) = 23.61541 25.69960 24.65751
#
# Velocity S-wave (km/s) = 3.59043 3.74552 3.66880
# Velocity P-wave (km/s) = 6.85958 7.05785 6.95942
#
# Compressibility (1/GPa) = 0.01827795
#
# Stress axis : x y z
#
# Youngs Moduli (GPa) = 98.76289 74.26540 60.09261
#
# Poissons Ratio (x) = 0.25627 0.08380
# Poissons Ratio (y) = 0.34080 0.36846
# Poissons Ratio (z) = 0.13772 0.45536
#
# Static dielectric constant tensor:
#      x y z
#    x 3.559890 0.000000 0.000000 
#    y 0.000000 3.394680 0.000000 
#    z 0.000000 0.000000 3.412020 
# 
# 
# High freq. dielectric constant tensor:
#      x y z
#    x 1.710490 0.000000 0.000000 
#    y 0.000000 1.692050 0.000000 
#    z 0.000000 0.000000 1.721920 
# 
# From -- ./inp_files/56242.got.cif
#   From: 2010.03.12/outbox.cif.g09.slc.cpg/sg65_29_cif.got.tgz:56242.got - 2010.04.10 20:52:16.
