data_PCOD8271583
_publ_section_title
;
Structure prediction by ZEFSAII (Michael W. Deem and Ramdas Pophale) SiO2 
 PCOD8271583
Probable space group: C M M M
;
_chemical_formula_sum "Si O2"
_cell_formula_units_Z 56
_cell_length_a 10.189037
_cell_length_b 20.286980
_cell_length_c 14.242383
_cell_angle_alpha 90.000000
_cell_angle_beta 90.000000
_cell_angle_gamma 90.000000
_cell_volume 2943.968785
_symmetry_space_group_name_H-M "C M M M"
_symmetry_group_IT_number 65
_symmetry_cell_setting 'orthorhombic'
loop_
_space_group_symop_operation_xyz
x,y,z
-x,-y,z
x,-y,-z
-x,y,-z
-x,-y,-z
x,y,-z
-x,y,z
x,-y,z
1/2+x,1/2+y,z
1/2-x,1/2-y,z
1/2+x,1/2-y,-z
1/2-x,1/2+y,-z
1/2-x,1/2-y,-z
1/2+x,1/2+y,-z
1/2-x,1/2+y,z
1/2+x,1/2-y,z
loop_
_atom_site_type_symbol
_atom_site_label
_atom_site_fract_x
_atom_site_fract_y
_atom_site_fract_z
Si Si1 0.750000 0.250000 0.219640
Si Si2 0.151375 0.000000 0.397563
Si Si3 0.000000 0.713427 0.102711
Si Si4 0.000000 0.077847 0.891395
Si Si5 0.728394 0.606803 0.251952
Si Si6 0.000000 0.427111 0.835429
O O1 0.625635 0.240739 0.154220
O O2 0.733825 0.315967 0.282257
O O3 0.182192 0.066315 0.341285
O O4 0.223154 0.000000 0.500000
O O5 0.000000 0.000000 0.416957
O O6 0.000000 0.633584 0.092126
O O7 0.000000 0.744440 0.000000
O O8 0.131067 0.101536 0.837669
O O9 0.000000 0.000000 0.889693
O O10 0.000000 0.103379 0.000000
O O11 0.871183 0.578767 0.228329
O O12 0.000000 0.500000 0.884106
#
# Coordination Sequence:
#
# PCOD8271583 Si02
#       6
#     8   8   8   8  16   8
#     4  10  23  34  57  78 112 160 188 228 296 326
#     4  11  22  39  69  95 110 140 187 244 299 341
#     4  10  21  35  51  78 113 153 202 239 270 330
#     4  11  21  35  60  86 114 159 206 248 287 324
#     4  11  20  40  57  87 119 149 192 241 277 349
#     4  10  20  34  57  79 115 156 185 229 297 327
#
# _framework density 19.021941000000002
#
# number of rings (size 3 to 8) (size 9 to 14) (size 15 to 20)
#    0.000    1.429    4.286    1.286    0.000    7.143 
#    0.000    2.143    0.000    0.000    0.000    0.000 
#    0.000    0.000    0.000    0.000    0.000    0.000 
#
# Total GULP energy -346998.323167 kJ/mol
# GULP energy per Si atom -12392.797256 kJ/mol
# Density = 1.897865 g / cm^3
# Si number density = 19.021941 Si / 1000 Ang^3
#
#
#
# Elastic Constant Matrix: (Units=GPa)
#
#
# Indices 1 2 3 4 5 6 
#
# 1 132.6502 30.9953 39.0737 0.0000 0.0000 0.0000
# 2 30.9953 171.0874 51.3216 0.0000 0.0000 0.0000
# 3 39.0737 51.3216 122.5924 0.0000 0.0000 0.0000
# 4 0.0000 0.0000 0.0000 -66.2127 0.0000 0.0000
# 5 0.0000 0.0000 0.0000 0.0000 16.0216 0.0000
# 6 0.0000 0.0000 0.0000 0.0000 0.0000 20.8544
#
#
#
# Elastic Compliance Matrix: (Units=1/GPa)
#
#
# Indices 1 2 3 4 5 6 
#
# 1 0.008420 -0.000824 -0.002339 0.000000 0.000000 0.000000
# 2 -0.000824 0.006765 -0.002569 0.000000 0.000000 0.000000
# 3 -0.002339 -0.002569 0.009978 0.000000 0.000000 0.000000
# 4 0.000000 0.000000 0.000000 -0.015103 0.000000 0.000000
# 5 0.000000 0.000000 0.000000 0.000000 0.062416 0.000000
# 6 0.000000 0.000000 0.000000 0.000000 0.000000 0.047952
#
#
# Mechanical properties :
#
#
# Convention : Reuss Voigt Hill
#
# Bulk Modulus (GPa) = 72.99815 74.34571 73.67193
# Shear Modulus (GPa) = 36.64121 14.46195 25.55158
#
# Velocity S-wave (km/s) = 4.39368 2.76030 3.66904
# Velocity P-wave (km/s) = 8.01238 7.02339 7.53413
#
# Compressibility (1/GPa) = 0.01369898
#
# Stress axis : x y z
#
# Youngs Moduli (GPa) = 118.76411 147.81977 100.21809
#
# Poissons Ratio (x) = 0.12178 0.23439
# Poissons Ratio (y) = 0.09784 0.25751
# Poissons Ratio (z) = 0.27777 0.37982
#
# Static dielectric constant tensor:
#      x y z
#    x 3.692720 0.000000 0.000000 
#    y 0.000000 3.965190 0.000000 
#    z 0.000000 0.000000 3.301920 
# 
# 
# High freq. dielectric constant tensor:
#      x y z
#    x 1.759050 0.000000 0.000000 
#    y 0.000000 1.766670 0.000000 
#    z 0.000000 0.000000 1.690360 
# 
# From -- ./inp_files/35619.got.cif
#   From: 2010.03.12/outbox.cif.g09.slc.cpg/sg65_18_cif.got.tgz:35619.got - 2010.04.10 20:52:16.
