data_PCOD8271757
_publ_section_title
;
Structure prediction by ZEFSAII (Michael W. Deem and Ramdas Pophale) SiO2 
 PCOD8271757
Probable space group: C M M M
;
_chemical_formula_sum "Si O2"
_cell_formula_units_Z 80
_cell_length_a 8.177225
_cell_length_b 29.537738
_cell_length_c 16.376070
_cell_angle_alpha 90.000000
_cell_angle_beta 90.000000
_cell_angle_gamma 90.000000
_cell_volume 3955.422392
_symmetry_space_group_name_H-M "C M M M"
_symmetry_group_IT_number 65
_symmetry_cell_setting 'orthorhombic'
loop_
_space_group_symop_operation_xyz
x,y,z
-x,-y,z
x,-y,-z
-x,y,-z
-x,-y,-z
x,y,-z
-x,y,z
x,-y,z
1/2+x,1/2+y,z
1/2-x,1/2-y,z
1/2+x,1/2-y,-z
1/2-x,1/2+y,-z
1/2-x,1/2-y,-z
1/2+x,1/2+y,-z
1/2-x,1/2+y,z
1/2+x,1/2-y,z
loop_
_atom_site_type_symbol
_atom_site_label
_atom_site_fract_x
_atom_site_fract_y
_atom_site_fract_z
Si Si1 0.305900 0.200339 0.407829
Si Si2 0.692219 0.948811 0.830507
Si Si3 0.187367 0.203716 0.169875
Si Si4 0.811022 0.315104 0.000000
Si Si5 0.684447 0.869098 0.723144
Si Si6 0.811611 0.086919 0.000000
O O1 0.242755 0.192235 0.500000
O O2 0.500000 0.198810 0.402336
O O3 0.250000 0.250000 0.376963
O O4 0.230935 0.159026 0.352108
O O5 0.500000 0.938996 0.841680
O O6 0.762961 0.916339 0.756877
O O7 0.777532 0.941677 0.918005
O O8 0.726585 0.000000 0.802145
O O9 0.250000 0.250000 0.211455
O O10 0.305559 0.163819 0.199405
O O11 0.000000 0.194131 0.193689
O O12 0.212137 0.206736 0.073919
O O13 0.802172 0.369325 0.000000
O O14 0.000000 0.300295 0.000000
O O15 0.500000 0.879453 0.697081
O O16 0.000000 0.102003 0.000000
#
# Coordination Sequence:
#
# PCOD8271757 Si02
#       6
#    16  16  16   8  16   8
#     4   9  18  33  54  81 111 143 179 219 266 321
#     4  10  21  37  57  78 104 143 187 229 277 331
#     4  12  24  37  53  76 106 142 181 222 267 319
#     4  12  23  38  55  73 103 142 181 222 266 320
#     4  10  20  35  55  78 107 142 179 224 273 324
#     4  12  23  36  55  80 106 139 182 234 284 324
#
# _framework density 20.2254
#
# number of rings (size 3 to 8) (size 9 to 14) (size 15 to 20)
#    0.000    1.400    2.000    4.800    0.000    4.000 
#    0.000    0.000    0.000    0.600    0.000    4.200 
#    0.000    0.000    0.000    8.600    0.000    9.200 
#
# Total GULP energy -495664.202036 kJ/mol
# GULP energy per Si atom -12391.605051 kJ/mol
# Density = 2.017937 g / cm^3
# Si number density = 20.225400 Si / 1000 Ang^3
#
#
#
# Elastic Constant Matrix: (Units=GPa)
#
#
# Indices 1 2 3 4 5 6 
#
# 1 47.0239 9.8548 9.6763 0.0000 0.0000 0.0000
# 2 9.8548 160.6173 61.1257 0.0000 0.0000 0.0000
# 3 9.6763 61.1257 120.9574 0.0000 0.0000 0.0000
# 4 0.0000 0.0000 0.0000 25.3519 0.0000 0.0000
# 5 0.0000 0.0000 0.0000 0.0000 15.2754 0.0000
# 6 0.0000 0.0000 0.0000 0.0000 0.0000 21.3870
#
#
#
# Elastic Compliance Matrix: (Units=1/GPa)
#
#
# Indices 1 2 3 4 5 6 
#
# 1 0.021711 -0.000831 -0.001317 0.000000 0.000000 0.000000
# 2 -0.000831 0.007740 -0.003845 0.000000 0.000000 0.000000
# 3 -0.001317 -0.003845 0.010316 0.000000 0.000000 0.000000
# 4 0.000000 0.000000 0.000000 0.039445 0.000000 0.000000
# 5 0.000000 0.000000 0.000000 0.000000 0.065465 0.000000
# 6 0.000000 0.000000 0.000000 0.000000 0.000000 0.046757
#
#
# Mechanical properties :
#
#
# Convention : Reuss Voigt Hill
#
# Bulk Modulus (GPa) = 35.99556 54.43469 45.21512
# Shear Modulus (GPa) = 23.50951 28.93232 26.22091
#
# Velocity S-wave (km/s) = 3.41306 3.78629 3.60451
# Velocity P-wave (km/s) = 5.77649 6.78875 6.30297
#
# Compressibility (1/GPa) = 0.02778121
#
# Stress axis : x y z
#
# Youngs Moduli (GPa) = 46.05979 129.19451 96.93851
#
# Poissons Ratio (x) = 0.10735 0.12766
# Poissons Ratio (y) = 0.03827 0.37273
# Poissons Ratio (z) = 0.06066 0.49676
#
# Static dielectric constant tensor:
#      x y z
#    x 3.383160 0.000000 0.000000 
#    y 0.000000 3.835210 0.000000 
#    z 0.000000 0.000000 3.810570 
# 
# 
# High freq. dielectric constant tensor:
#      x y z
#    x 1.770680 0.000000 0.000000 
#    y 0.000000 1.788950 0.000000 
#    z 0.000000 0.000000 1.776050 
# 
# From -- ./inp_files/50164.got.cif
#   From: 2010.03.12/outbox.cif.g09.slc.cpg/sg65_26_cif.got.tgz:50164.got - 2010.04.10 20:52:16.
