data_PCOD8271355
_publ_section_title
;
Structure prediction by ZEFSAII (Michael W. Deem and Ramdas Pophale) SiO2 
 PCOD8271355
Probable space group: C M M M
;
_chemical_formula_sum "Si O2"
_cell_formula_units_Z 72
_cell_length_a 8.898500
_cell_length_b 18.072452
_cell_length_c 23.212238
_cell_angle_alpha 90.000000
_cell_angle_beta 90.000000
_cell_angle_gamma 90.000000
_cell_volume 3732.939055
_symmetry_space_group_name_H-M "C M M M"
_symmetry_group_IT_number 65
_symmetry_cell_setting 'orthorhombic'
loop_
_space_group_symop_operation_xyz
x,y,z
-x,-y,z
x,-y,-z
-x,y,-z
-x,-y,-z
x,y,-z
-x,y,z
x,-y,z
1/2+x,1/2+y,z
1/2-x,1/2-y,z
1/2+x,1/2-y,-z
1/2-x,1/2+y,-z
1/2-x,1/2-y,-z
1/2+x,1/2+y,-z
1/2-x,1/2+y,z
1/2+x,1/2-y,z
loop_
_atom_site_type_symbol
_atom_site_label
_atom_site_fract_x
_atom_site_fract_y
_atom_site_fract_z
Si Si1 0.321007 0.416798 0.500000
Si Si2 0.173268 0.913581 0.726542
Si Si3 0.822708 0.170339 0.611369
Si Si4 0.177686 0.671272 0.172512
Si Si5 0.321499 0.917176 0.936295
O O1 0.255849 0.500000 0.500000
O O2 0.500000 0.419616 0.500000
O O3 0.260748 0.374434 0.443644
O O4 0.225079 0.873767 0.668265
O O5 0.277262 0.885669 0.777997
O O6 0.000000 0.895735 0.740964
O O7 0.199918 0.000000 0.717785
O O8 0.750000 0.250000 0.613041
O O9 0.000000 0.179704 0.607362
O O10 0.250000 0.750000 0.185148
O O11 0.240120 0.639391 0.111697
O O12 0.000000 0.680275 0.171698
O O13 0.500000 0.919273 0.933745
O O14 0.259841 0.000000 0.923836
O O15 0.267886 0.891075 0.000000
#
# Coordination Sequence:
#
# PCOD8271355 Si02
#       5
#     8  16  16  16  16
#     4   9  17  32  55  79 102 133 176 218 254 301
#     4  10  21  37  56  78 105 137 174 217 264 313
#     4  10  20  34  54  79 106 137 172 212 259 309
#     4  11  22  35  53  78 107 140 177 215 259 310
#     4   8  15  30  52  76 101 131 170 215 260 307
#
# _framework density 19.287749999999999
#
# number of rings (size 3 to 8) (size 9 to 14) (size 15 to 20)
#    0.000    2.333    0.000    3.667    0.000    7.111 
#    0.000    0.000    0.000    4.667    0.000    7.778 
#    0.000    0.000    0.000    0.000    0.000    0.000 
#
# Total GULP energy -446426.540332 kJ/mol
# GULP energy per Si atom -12400.737231 kJ/mol
# Density = 1.924385 g / cm^3
# Si number density = 19.287750 Si / 1000 Ang^3
#
#
#
# Elastic Constant Matrix: (Units=GPa)
#
#
# Indices 1 2 3 4 5 6 
#
# 1 33.5213 29.2597 34.9392 0.0000 0.0000 0.0000
# 2 29.2597 140.7859 75.0452 0.0000 0.0000 0.0000
# 3 34.9392 75.0452 163.2224 0.0000 0.0000 0.0000
# 4 0.0000 0.0000 0.0000 33.8410 0.0000 0.0000
# 5 0.0000 0.0000 0.0000 0.0000 36.2484 0.0000
# 6 0.0000 0.0000 0.0000 0.0000 0.0000 24.7178
#
#
#
# Elastic Compliance Matrix: (Units=1/GPa)
#
#
# Indices 1 2 3 4 5 6 
#
# 1 0.040977 -0.005088 -0.006432 0.000000 0.000000 0.000000
# 2 -0.005088 0.010041 -0.003527 0.000000 0.000000 0.000000
# 3 -0.006432 -0.003527 0.009125 0.000000 0.000000 0.000000
# 4 0.000000 0.000000 0.000000 0.029550 0.000000 0.000000
# 5 0.000000 0.000000 0.000000 0.000000 0.027587 0.000000
# 6 0.000000 0.000000 0.000000 0.000000 0.000000 0.040457
#
#
# Mechanical properties :
#
#
# Convention : Reuss Voigt Hill
#
# Bulk Modulus (GPa) = 33.27975 68.44642 50.86309
# Shear Modulus (GPa) = 25.27198 32.18045 28.72621
#
# Velocity S-wave (km/s) = 3.62368 4.08909 3.86340
# Velocity P-wave (km/s) = 5.89914 7.60646 6.80654
#
# Compressibility (1/GPa) = 0.03004830
#
# Stress axis : x y z
#
# Youngs Moduli (GPa) = 24.40396 99.59588 109.58558
#
# Poissons Ratio (x) = 0.50670 0.70489
# Poissons Ratio (y) = 0.12416 0.38655
# Poissons Ratio (z) = 0.15697 0.35131
#
# Static dielectric constant tensor:
#      x y z
#    x 3.158260 0.000000 0.000000 
#    y 0.000000 3.615610 0.000000 
#    z 0.000000 0.000000 3.884950 
# 
# 
# High freq. dielectric constant tensor:
#      x y z
#    x 1.710200 0.000000 0.000000 
#    y 0.000000 1.761710 0.000000 
#    z 0.000000 0.000000 1.770230 
# 
# From -- ./inp_files/67032.got.cif
#   From: 2010.03.12/outbox.cif.g09.slc.cpg/sg65_34_cif.got.tgz:67032.got - 2010.04.10 20:52:16.
