data_PCOD8271488
_publ_section_title
;
Structure prediction by ZEFSAII (Michael W. Deem and Ramdas Pophale) SiO2 
 PCOD8271488
Probable space group: C M M M
;
_chemical_formula_sum "Si O2"
_cell_formula_units_Z 104
_cell_length_a 18.161029
_cell_length_b 26.038702
_cell_length_c 12.579874
_cell_angle_alpha 90.000000
_cell_angle_beta 90.000000
_cell_angle_gamma 90.000000
_cell_volume 5948.891862
_symmetry_space_group_name_H-M "C M M M"
_symmetry_group_IT_number 65
_symmetry_cell_setting 'orthorhombic'
loop_
_space_group_symop_operation_xyz
x,y,z
-x,-y,z
x,-y,-z
-x,y,-z
-x,-y,-z
x,y,-z
-x,y,z
x,-y,z
1/2+x,1/2+y,z
1/2-x,1/2-y,z
1/2+x,1/2-y,-z
1/2-x,1/2+y,-z
1/2-x,1/2-y,-z
1/2+x,1/2+y,-z
1/2-x,1/2+y,z
1/2+x,1/2-y,z
loop_
_atom_site_type_symbol
_atom_site_label
_atom_site_fract_x
_atom_site_fract_y
_atom_site_fract_z
Si Si1 0.314796 0.288246 0.621626
Si Si2 0.815521 0.790518 0.000000
Si Si3 0.000000 0.560453 0.125117
Si Si4 0.798214 0.134351 0.804485
Si Si5 0.082780 0.940593 0.123241
Si Si6 0.413411 0.199330 0.000000
Si Si7 0.132261 0.630068 0.808055
Si Si8 0.415905 0.802297 0.622262
O O1 0.307115 0.306214 0.500000
O O2 0.250000 0.250000 0.654883
O O3 0.310712 0.338984 0.691489
O O4 0.389331 0.256043 0.641578
O O5 0.750000 0.750000 0.000000
O O6 0.812883 0.824666 0.895838
O O7 0.892259 0.759257 0.000000
O O8 0.073958 0.583893 0.177045
O O9 0.000000 0.500000 0.147482
O O10 0.000000 0.573175 0.000000
O O11 0.857416 0.089051 0.807425
O O12 0.716304 0.110028 0.816891
O O13 0.000000 0.921518 0.150182
O O14 0.090186 0.000000 0.151736
O O15 0.099947 0.930749 0.000000
O O16 0.379908 0.173566 0.104341
O O17 0.500000 0.192530 0.000000
O O18 0.125907 0.655621 0.692368
O O19 0.402891 0.818172 0.500000
O O20 0.500000 0.803561 0.656797
#
# Coordination Sequence:
#
# PCOD8271488 Si02
#       8
#    16   8   8  16  16   8  16  16
#     4  10  20  35  53  80 115 152 189 223 265 320
#     4  12  22  32  47  80 118 142 177 223 276 329
#     4  11  24  40  57  79 109 143 190 243 287 336
#     4  12  22  33  58  85 113 146 185 232 281 331
#     4   9  20  40  61  81 111 146 185 232 286 345
#     4  12  22  34  50  71 108 157 182 208 266 340
#     4  12  20  35  55  77 107 147 184 226 280 334
#     4  10  20  34  55  79 107 151 197 225 260 325
#
# _framework density 17.482247999999998
#
# number of rings (size 3 to 8) (size 9 to 14) (size 15 to 20)
#    0.000    1.154    6.154    1.846    0.000    1.846 
#    0.000    1.538    0.000    1.385    0.000    3.231 
#    0.000    0.000    0.000    0.000    0.000    0.000 
#
# Total GULP energy -644894.040591 kJ/mol
# GULP energy per Si atom -12401.808473 kJ/mol
# Density = 1.744246 g / cm^3
# Si number density = 17.482248 Si / 1000 Ang^3
#
#
#
# Elastic Constant Matrix: (Units=GPa)
#
#
# Indices 1 2 3 4 5 6 
#
# 1 130.9318 57.0774 39.2865 0.0000 0.0000 0.0000
# 2 57.0774 81.5372 35.5898 0.0000 0.0000 0.0000
# 3 39.2865 35.5898 74.5515 0.0000 0.0000 0.0000
# 4 0.0000 0.0000 0.0000 22.3814 0.0000 0.0000
# 5 0.0000 0.0000 0.0000 0.0000 21.7729 0.0000
# 6 0.0000 0.0000 0.0000 0.0000 0.0000 32.9804
#
#
#
# Elastic Compliance Matrix: (Units=1/GPa)
#
#
# Indices 1 2 3 4 5 6 
#
# 1 0.011432 -0.006787 -0.002784 0.000000 0.000000 0.000000
# 2 -0.006787 0.019522 -0.005743 0.000000 0.000000 0.000000
# 3 -0.002784 -0.005743 0.017622 0.000000 0.000000 0.000000
# 4 0.000000 0.000000 0.000000 0.044680 0.000000 0.000000
# 5 0.000000 0.000000 0.000000 0.000000 0.045929 0.000000
# 6 0.000000 0.000000 0.000000 0.000000 0.000000 0.030321
#
#
# Mechanical properties :
#
#
# Convention : Reuss Voigt Hill
#
# Bulk Modulus (GPa) = 55.71730 61.21421 58.46576
# Shear Modulus (GPa) = 24.25809 25.76473 25.01141
#
# Velocity S-wave (km/s) = 3.72907 3.84313 3.78653
# Velocity P-wave (km/s) = 7.10502 7.40162 7.25483
#
# Compressibility (1/GPa) = 0.01794775
#
# Stress axis : x y z
#
# Youngs Moduli (GPa) = 87.47624 51.22376 56.74640
#
# Poissons Ratio (x) = 0.34766 0.15799
# Poissons Ratio (y) = 0.59372 0.32589
# Poissons Ratio (z) = 0.24354 0.29418
#
# Static dielectric constant tensor:
#      x y z
#    x 3.547280 0.000000 0.000000 
#    y 0.000000 3.174000 0.000000 
#    z 0.000000 0.000000 3.283620 
# 
# 
# High freq. dielectric constant tensor:
#      x y z
#    x 1.693660 0.000000 0.000000 
#    y 0.000000 1.649210 0.000000 
#    z 0.000000 0.000000 1.672110 
# 
# From -- ./inp_files/27527.got.cif
#   From: 2010.03.12/outbox.cif.g09.slc.cpg/sg65_14_cif.got.tgz:27527.got - 2010.04.10 20:52:16.
