data_PCOD8271493
_publ_section_title
;
Structure prediction by ZEFSAII (Michael W. Deem and Ramdas Pophale) SiO2 
 PCOD8271493
Probable space group: C M M M
;
_chemical_formula_sum "Si O2"
_cell_formula_units_Z 64
_cell_length_a 32.360621
_cell_length_b 13.590674
_cell_length_c 7.542367
_cell_angle_alpha 90.000000
_cell_angle_beta 90.000000
_cell_angle_gamma 90.000000
_cell_volume 3317.152997
_symmetry_space_group_name_H-M "C M M M"
_symmetry_group_IT_number 65
_symmetry_cell_setting 'orthorhombic'
loop_
_space_group_symop_operation_xyz
x,y,z
-x,-y,z
x,-y,-z
-x,y,-z
-x,-y,-z
x,y,-z
-x,y,z
x,-y,z
1/2+x,1/2+y,z
1/2-x,1/2-y,z
1/2+x,1/2-y,-z
1/2-x,1/2+y,-z
1/2-x,1/2-y,-z
1/2+x,1/2+y,-z
1/2-x,1/2+y,z
1/2+x,1/2-y,z
loop_
_atom_site_type_symbol
_atom_site_label
_atom_site_fract_x
_atom_site_fract_y
_atom_site_fract_z
Si Si1 0.645946 0.616896 0.500000
Si Si2 0.739311 0.384294 0.500000
Si Si3 0.045979 0.609414 0.789939
Si Si4 0.300266 0.114149 0.799526
Si Si5 0.619719 0.755936 0.206147
O O1 0.641973 0.500000 0.500000
O O2 0.693023 0.656716 0.500000
O O3 0.624336 0.657521 0.322164
O O4 0.736368 0.500000 0.500000
O O5 0.763645 0.346517 0.326437
O O6 0.055376 0.500000 0.714278
O O7 0.079272 0.687659 0.720378
O O8 0.000000 0.642815 0.730122
O O9 0.049015 0.604686 0.000000
O O10 0.341940 0.172372 0.760890
O O11 0.310040 0.000000 0.761294
O O12 0.284794 0.130084 0.000000
O O13 0.615829 0.725539 0.000000
#
# Coordination Sequence:
#
# PCOD8271493 Si02
#       5
#     8   8  16  16  16
#     4  11  25  41  53  68  95 135 186 236 269 293
#     4   9  19  35  51  68  97 137 176 217 264 307
#     4   8  14  28  54  87 119 144 162 189 241 313
#     4   9  17  30  51  80 110 135 161 200 255 320
#     4  10  20  34  55  80 105 137 173 209 254 308
#
# _framework density 19.293652999999999
#
# number of rings (size 3 to 8) (size 9 to 14) (size 15 to 20)
#    0.000    2.750    0.000    2.250    0.000    6.500 
#    0.000    7.500    0.000    3.000    0.000    3.500 
#    0.000    0.000    0.000    0.000    0.000    0.000 
#
# Total GULP energy -396711.173672 kJ/mol
# GULP energy per Si atom -12397.224177 kJ/mol
# Density = 1.924974 g / cm^3
# Si number density = 19.293653 Si / 1000 Ang^3
#
#
#
# Elastic Constant Matrix: (Units=GPa)
#
#
# Indices 1 2 3 4 5 6 
#
# 1 136.7147 63.6217 53.3380 0.0000 0.0000 0.0000
# 2 63.6217 104.2474 49.0525 0.0000 0.0000 0.0000
# 3 53.3380 49.0525 100.0741 0.0000 0.0000 0.0000
# 4 0.0000 0.0000 0.0000 25.6632 0.0000 0.0000
# 5 0.0000 0.0000 0.0000 0.0000 20.6609 0.0000
# 6 0.0000 0.0000 0.0000 0.0000 0.0000 29.1402
#
#
#
# Elastic Compliance Matrix: (Units=1/GPa)
#
#
# Indices 1 2 3 4 5 6 
#
# 1 0.011016 -0.005148 -0.003348 0.000000 0.000000 0.000000
# 2 -0.005148 0.014874 -0.004547 0.000000 0.000000 0.000000
# 3 -0.003348 -0.004547 0.014006 0.000000 0.000000 0.000000
# 4 0.000000 0.000000 0.000000 0.038966 0.000000 0.000000
# 5 0.000000 0.000000 0.000000 0.000000 0.048401 0.000000
# 6 0.000000 0.000000 0.000000 0.000000 0.000000 0.034317
#
#
# Mechanical properties :
#
#
# Convention : Reuss Voigt Hill
#
# Bulk Modulus (GPa) = 72.41065 74.78451 73.59758
# Shear Modulus (GPa) = 26.00525 26.76112 26.38318
#
# Velocity S-wave (km/s) = 3.67531 3.72834 3.70192
# Velocity P-wave (km/s) = 7.45807 7.57492 7.51672
#
# Compressibility (1/GPa) = 0.01381012
#
# Stress axis : x y z
#
# Youngs Moduli (GPa) = 90.77393 67.23287 71.39838
#
# Poissons Ratio (x) = 0.34610 0.23907
# Poissons Ratio (y) = 0.46728 0.32464
# Poissons Ratio (z) = 0.30394 0.30570
#
# Static dielectric constant tensor:
#      x y z
#    x 3.782630 0.000000 0.000000 
#    y 0.000000 3.336820 0.000000 
#    z 0.000000 0.000000 3.507890 
# 
# 
# High freq. dielectric constant tensor:
#      x y z
#    x 1.746670 0.000000 0.000000 
#    y 0.000000 1.731300 0.000000 
#    z 0.000000 0.000000 1.749450 
# 
# From -- ./inp_files/15641.got.cif
#   From: 2010.03.12/outbox.cif.g09.slc.cpg/sg65_8_cif.got.tgz:15641.got - 2010.04.10 20:52:16.
