data_PCOD8271483
_publ_section_title
;
Structure prediction by ZEFSAII (Michael W. Deem and Ramdas Pophale) SiO2 
 PCOD8271483
Probable space group: C M M M
;
_chemical_formula_sum "Si O2"
_cell_formula_units_Z 104
_cell_length_a 14.132485
_cell_length_b 17.668634
_cell_length_c 21.427674
_cell_angle_alpha 90.000000
_cell_angle_beta 90.000000
_cell_angle_gamma 90.000000
_cell_volume 5350.526731
_symmetry_space_group_name_H-M "C M M M"
_symmetry_group_IT_number 65
_symmetry_cell_setting 'orthorhombic'
loop_
_space_group_symop_operation_xyz
x,y,z
-x,-y,z
x,-y,-z
-x,y,-z
-x,-y,-z
x,y,-z
-x,y,z
x,-y,z
1/2+x,1/2+y,z
1/2-x,1/2-y,z
1/2+x,1/2-y,-z
1/2-x,1/2+y,-z
1/2-x,1/2-y,-z
1/2+x,1/2+y,-z
1/2-x,1/2+y,z
1/2+x,1/2-y,z
loop_
_atom_site_type_symbol
_atom_site_label
_atom_site_fract_x
_atom_site_fract_y
_atom_site_fract_z
Si Si1 0.396817 0.313890 0.174897
Si Si2 0.111678 0.676877 0.737623
Si Si3 0.280399 0.831112 0.391583
Si Si4 0.713915 0.910960 0.839559
Si Si5 0.388116 0.087048 0.500000
Si Si6 0.895399 0.911643 0.571521
Si Si7 0.651097 0.209422 0.068593
O O1 0.500000 0.349852 0.189518
O O2 0.364387 0.256872 0.229658
O O3 0.320711 0.380173 0.168956
O O4 0.410889 0.263836 0.112278
O O5 0.164845 0.676942 0.672558
O O6 0.151602 0.607648 0.778717
O O7 0.000000 0.665459 0.728037
O O8 0.250000 0.750000 0.418767
O O9 0.349408 0.873369 0.438550
O O10 0.182195 0.876794 0.382202
O O11 0.664737 0.872819 0.899776
O O12 0.718354 0.000000 0.850592
O O13 0.500000 0.094174 0.500000
O O14 0.354592 0.000000 0.500000
O O15 0.865941 0.893766 0.500000
O O16 0.000000 0.877373 0.585452
O O17 0.899163 0.000000 0.583319
O O18 0.750000 0.250000 0.061073
O O19 0.604144 0.198803 0.000000
#
# Coordination Sequence:
#
# PCOD8271483 Si02
#       7
#    16  16  16  16   8  16  16
#     4   9  18  35  57  80 109 149 192 232 279 336
#     4  10  22  41  61  78 106 147 189 232 278 331
#     4  12  23  38  60  89 111 138 181 235 281 323
#     4  10  20  34  54  84 117 148 186 232 284 340
#     4  11  25  42  57  79 115 153 184 217 266 332
#     4   9  19  37  59  81 109 145 177 210 264 332
#     4   8  15  30  52  77 108 150 195 233 270 320
#
# _framework density 19.437339999999999
#
# number of rings (size 3 to 8) (size 9 to 14) (size 15 to 20)
#    0.000    2.231    0.769    3.923    0.000    3.692 
#    0.000    0.769    0.000    0.000    0.000    8.615 
#    0.000    0.000    0.000    0.000    0.000    0.000 
#
# Total GULP energy -644654.737284 kJ/mol
# GULP energy per Si atom -12397.206486 kJ/mol
# Density = 1.939310 g / cm^3
# Si number density = 19.437340 Si / 1000 Ang^3
#
#
#
# Elastic Constant Matrix: (Units=GPa)
#
#
# Indices 1 2 3 4 5 6 
#
# 1 95.3395 36.1363 28.7048 0.0000 0.0000 0.0000
# 2 36.1363 114.5060 38.9838 0.0000 0.0000 0.0000
# 3 28.7048 38.9838 110.3430 0.0000 0.0000 0.0000
# 4 0.0000 0.0000 0.0000 14.5760 0.0000 0.0000
# 5 0.0000 0.0000 0.0000 0.0000 7.7965 0.0000
# 6 0.0000 0.0000 0.0000 0.0000 0.0000 20.9473
#
#
#
# Elastic Compliance Matrix: (Units=1/GPa)
#
#
# Indices 1 2 3 4 5 6 
#
# 1 0.012321 -0.003179 -0.002082 0.000000 0.000000 0.000000
# 2 -0.003179 0.010748 -0.002970 0.000000 0.000000 0.000000
# 3 -0.002082 -0.002970 0.010654 0.000000 0.000000 0.000000
# 4 0.000000 0.000000 0.000000 0.068606 0.000000 0.000000
# 5 0.000000 0.000000 0.000000 0.000000 0.128262 0.000000
# 6 0.000000 0.000000 0.000000 0.000000 0.000000 0.047739
#
#
# Mechanical properties :
#
#
# Convention : Reuss Voigt Hill
#
# Bulk Modulus (GPa) = 57.93973 58.64871 58.29422
# Shear Modulus (GPa) = 16.63645 23.08820 19.86232
#
# Velocity S-wave (km/s) = 2.92875 3.45023 3.20013
# Velocity P-wave (km/s) = 6.42728 6.79049 6.61138
#
# Compressibility (1/GPa) = 0.01725931
#
# Stress axis : x y z
#
# Youngs Moduli (GPa) = 81.16397 93.04319 93.86566
#
# Poissons Ratio (x) = 0.29583 0.19541
# Poissons Ratio (y) = 0.25806 0.27878
# Poissons Ratio (z) = 0.16897 0.27634
#
# Static dielectric constant tensor:
#      x y z
#    x 4.236460 0.000000 0.000000 
#    y 0.000000 3.357860 0.000000 
#    z 0.000000 0.000000 3.747520 
# 
# 
# High freq. dielectric constant tensor:
#      x y z
#    x 1.774930 0.000000 0.000000 
#    y 0.000000 1.736790 0.000000 
#    z 0.000000 0.000000 1.751360 
# 
# From -- ./inp_files/62853.got.cif
#   From: 2010.03.12/outbox.cif.g09.slc.cpg/sg65_32_cif.got.tgz:62853.got - 2010.04.10 20:52:16.
