data_PCOD8271734
_publ_section_title
;
Structure prediction by ZEFSAII (Michael W. Deem and Ramdas Pophale) SiO2 
 PCOD8271734
Probable space group: C M M M
;
_chemical_formula_sum "Si O2"
_cell_formula_units_Z 96
_cell_length_a 17.567340
_cell_length_b 14.492732
_cell_length_c 20.367218
_cell_angle_alpha 90.000000
_cell_angle_beta 90.000000
_cell_angle_gamma 90.000000
_cell_volume 5185.468255
_symmetry_space_group_name_H-M "C M M M"
_symmetry_group_IT_number 65
_symmetry_cell_setting 'orthorhombic'
loop_
_space_group_symop_operation_xyz
x,y,z
-x,-y,z
x,-y,-z
-x,y,-z
-x,-y,-z
x,y,-z
-x,y,z
x,-y,z
1/2+x,1/2+y,z
1/2-x,1/2-y,z
1/2+x,1/2-y,-z
1/2-x,1/2+y,-z
1/2-x,1/2-y,-z
1/2+x,1/2+y,-z
1/2-x,1/2+y,z
1/2+x,1/2-y,z
loop_
_atom_site_type_symbol
_atom_site_label
_atom_site_fract_x
_atom_site_fract_y
_atom_site_fract_z
Si Si1 0.909561 0.788412 0.071906
Si Si2 0.413202 0.392874 0.575735
Si Si3 0.409419 0.100807 0.870573
Si Si4 0.589506 0.392396 0.200502
Si Si5 0.663090 0.722642 0.683344
Si Si6 0.089637 0.399603 0.277431
O O1 0.877501 0.684906 0.085670
O O2 0.883112 0.859575 0.128202
O O3 0.000000 0.785247 0.071257
O O4 0.879226 0.820093 0.000000
O O5 0.401201 0.367052 0.500000
O O6 0.500000 0.370654 0.597390
O O7 0.396282 0.500000 0.588012
O O8 0.353290 0.334575 0.617634
O O9 0.500000 0.102011 0.870907
O O10 0.379963 0.116663 0.796492
O O11 0.381102 0.000000 0.896556
O O12 0.500000 0.372351 0.210879
O O13 0.608073 0.500000 0.207853
O O14 0.636275 0.336176 0.254193
O O15 0.750000 0.750000 0.690402
O O16 0.619138 0.819150 0.675920
O O17 0.118378 0.500000 0.302788
O O18 0.000000 0.397361 0.277574
#
# Coordination Sequence:
#
# PCOD8271734 Si02
#       6
#    16  16  16  16  16  16
#     4   9  16  26  44  73 105 132 169 230 293 337
#     4   9  19  38  64  90 114 144 183 223 262 309
#     4   8  13  23  41  65  94 128 168 216 266 315
#     4  10  20  35  55  77 104 141 186 232 277 329
#     4  12  23  33  53  82 115 144 176 220 271 319
#     4   9  17  31  51  72  98 136 180 221 261 312
#
# _framework density 18.513275
#
# number of rings (size 3 to 8) (size 9 to 14) (size 15 to 20)
#    0.000    2.500    1.667    3.500    0.000    3.667 
#    0.000    3.333    0.000    1.000    0.000    2.333 
#    0.000    0.000    0.000    0.000    0.000    0.000 
#
# Total GULP energy -594892.432225 kJ/mol
# GULP energy per Si atom -12393.592338 kJ/mol
# Density = 1.847114 g / cm^3
# Si number density = 18.513275 Si / 1000 Ang^3
#
#
#
# Elastic Constant Matrix: (Units=GPa)
#
#
# Indices 1 2 3 4 5 6 
#
# 1 49.9280 44.5916 40.0111 0.0000 0.0000 0.0000
# 2 44.5916 132.4659 66.5790 0.0000 0.0000 0.0000
# 3 40.0111 66.5790 107.6672 0.0000 0.0000 0.0000
# 4 0.0000 0.0000 0.0000 34.8178 0.0000 0.0000
# 5 0.0000 0.0000 0.0000 0.0000 9.6031 0.0000
# 6 0.0000 0.0000 0.0000 0.0000 0.0000 13.1274
#
#
#
# Elastic Compliance Matrix: (Units=1/GPa)
#
#
# Indices 1 2 3 4 5 6 
#
# 1 0.032527 -0.007072 -0.007714 0.000000 0.000000 0.000000
# 2 -0.007072 0.012491 -0.005096 0.000000 0.000000 0.000000
# 3 -0.007714 -0.005096 0.015306 0.000000 0.000000 0.000000
# 4 0.000000 0.000000 0.000000 0.028721 0.000000 0.000000
# 5 0.000000 0.000000 0.000000 0.000000 0.104133 0.000000
# 6 0.000000 0.000000 0.000000 0.000000 0.000000 0.076177
#
#
# Mechanical properties :
#
#
# Convention : Reuss Voigt Hill
#
# Bulk Modulus (GPa) = 48.64045 65.82494 57.23269
# Shear Modulus (GPa) = 15.82411 20.76828 18.29620
#
# Velocity S-wave (km/s) = 2.92677 3.35297 3.14709
# Velocity P-wave (km/s) = 6.14424 7.11496 6.64734
#
# Compressibility (1/GPa) = 0.02055902
#
# Stress axis : x y z
#
# Youngs Moduli (GPa) = 30.74333 80.05655 65.33374
#
# Poissons Ratio (x) = 0.56618 0.50402
# Poissons Ratio (y) = 0.21742 0.33295
# Poissons Ratio (z) = 0.23717 0.40798
#
# Static dielectric constant tensor:
#      x y z
#    x 2.881580 0.000000 0.000000 
#    y 0.000000 3.396520 0.000000 
#    z 0.000000 0.000000 3.422600 
# 
# 
# High freq. dielectric constant tensor:
#      x y z
#    x 1.665040 0.000000 0.000000 
#    y 0.000000 1.735780 0.000000 
#    z 0.000000 0.000000 1.704420 
# 
# From -- ./inp_files/54479.got.cif
#   From: 2010.03.12/outbox.cif.g09.slc.cpg/sg65_28_cif.got.tgz:54479.got - 2010.04.10 20:52:16.
