data_PCOD8271918
_publ_section_title
;
Structure prediction by ZEFSAII (Michael W. Deem and Ramdas Pophale) SiO2 
 PCOD8271918
Probable space group: C M M M
;
_chemical_formula_sum "Si O2"
_cell_formula_units_Z 104
_cell_length_a 29.005079
_cell_length_b 8.717502
_cell_length_c 20.200384
_cell_angle_alpha 90.000000
_cell_angle_beta 90.000000
_cell_angle_gamma 90.000000
_cell_volume 5107.704146
_symmetry_space_group_name_H-M "C M M M"
_symmetry_group_IT_number 65
_symmetry_cell_setting 'orthorhombic'
loop_
_space_group_symop_operation_xyz
x,y,z
-x,-y,z
x,-y,-z
-x,y,-z
-x,-y,-z
x,y,-z
-x,y,z
x,-y,z
1/2+x,1/2+y,z
1/2-x,1/2-y,z
1/2+x,1/2-y,-z
1/2-x,1/2+y,-z
1/2-x,1/2-y,-z
1/2+x,1/2+y,-z
1/2-x,1/2+y,z
1/2+x,1/2-y,z
loop_
_atom_site_type_symbol
_atom_site_label
_atom_site_fract_x
_atom_site_fract_y
_atom_site_fract_z
Si Si1 0.641097 0.319167 0.119050
Si Si2 0.801172 0.318214 0.000000
Si Si3 0.297102 0.821449 0.620195
Si Si4 0.552639 0.179878 0.833290
Si Si5 0.446936 0.675561 0.694496
Si Si6 0.387033 0.678589 0.427025
Si Si7 0.701718 0.818543 0.772591
O O1 0.644701 0.500000 0.108452
O O2 0.587314 0.268007 0.116983
O O3 0.660645 0.266879 0.189764
O O4 0.670725 0.234779 0.063738
O O5 0.750000 0.250000 0.000000
O O6 0.796787 0.500000 0.000000
O O7 0.250000 0.750000 0.593377
O O8 0.338249 0.761796 0.575404
O O9 0.305783 0.774965 0.696344
O O10 0.292550 0.000000 0.611859
O O11 0.500000 0.230117 0.849709
O O12 0.564999 0.221106 0.757685
O O13 0.559408 0.000000 0.843346
O O14 0.500000 0.688021 0.675233
O O15 0.433377 0.500000 0.711132
O O16 0.420174 0.741927 0.630670
O O17 0.408635 0.709956 0.500000
O O18 0.378703 0.500000 0.415774
O O19 0.750000 0.750000 0.798611
O O20 0.700517 0.000000 0.786037
#
# Coordination Sequence:
#
# PCOD8271918 Si02
#       7
#    16   8  16  16  16  16  16
#     4  12  24  39  61  89 121 157 196 236 282 334
#     4  12  26  46  67  90 125 164 202 239 279 329
#     4  10  21  36  55  77 103 137 180 231 284 339
#     4  10  21  38  61  89 119 151 190 237 289 341
#     4   9  18  34  57  84 113 146 185 231 283 338
#     4  10  21  35  51  74 106 144 185 229 279 338
#     4  10  20  35  56  84 114 145 185 233 287 342
#
# _framework density 20.361398000000001
#
# number of rings (size 3 to 8) (size 9 to 14) (size 15 to 20)
#    0.000    1.692    0.000    4.846    0.000    6.769 
#    0.000    1.923    0.000    2.308    0.000    3.231 
#    0.000    0.000    0.000    0.000    0.000    0.000 
#
# Total GULP energy -644957.779042 kJ/mol
# GULP energy per Si atom -12403.034212 kJ/mol
# Density = 2.031505 g / cm^3
# Si number density = 20.361398 Si / 1000 Ang^3
#
#
#
# Elastic Constant Matrix: (Units=GPa)
#
#
# Indices 1 2 3 4 5 6 
#
# 1 121.6478 42.4485 48.1385 0.0000 0.0000 0.0000
# 2 42.4485 94.9746 34.0433 0.0000 0.0000 0.0000
# 3 48.1385 34.0433 69.8969 0.0000 0.0000 0.0000
# 4 0.0000 0.0000 0.0000 27.3509 0.0000 0.0000
# 5 0.0000 0.0000 0.0000 0.0000 30.7379 0.0000
# 6 0.0000 0.0000 0.0000 0.0000 0.0000 35.3133
#
#
#
# Elastic Compliance Matrix: (Units=1/GPa)
#
#
# Indices 1 2 3 4 5 6 
#
# 1 0.011921 -0.002890 -0.006802 0.000000 0.000000 0.000000
# 2 -0.002890 0.013457 -0.004564 0.000000 0.000000 0.000000
# 3 -0.006802 -0.004564 0.021215 0.000000 0.000000 0.000000
# 4 0.000000 0.000000 0.000000 0.036562 0.000000 0.000000
# 5 0.000000 0.000000 0.000000 0.000000 0.032533 0.000000
# 6 0.000000 0.000000 0.000000 0.000000 0.000000 0.028318
#
#
# Mechanical properties :
#
#
# Convention : Reuss Voigt Hill
#
# Bulk Modulus (GPa) = 55.31039 59.53111 57.42075
# Shear Modulus (GPa) = 28.00442 29.47302 28.73872
#
# Velocity S-wave (km/s) = 3.71262 3.80872 3.76098
# Velocity P-wave (km/s) = 6.75288 6.97442 6.86454
#
# Compressibility (1/GPa) = 0.01807979
#
# Stress axis : x y z
#
# Youngs Moduli (GPa) = 83.88822 74.31323 47.13741
#
# Poissons Ratio (x) = 0.21473 0.32065
# Poissons Ratio (y) = 0.24240 0.21513
# Poissons Ratio (z) = 0.57065 0.33916
#
# Static dielectric constant tensor:
#      x y z
#    x 3.873790 0.000000 0.000000 
#    y 0.000000 3.658760 0.000000 
#    z 0.000000 0.000000 3.688160 
# 
# 
# High freq. dielectric constant tensor:
#      x y z
#    x 1.805250 0.000000 0.000000 
#    y 0.000000 1.797980 0.000000 
#    z 0.000000 0.000000 1.785580 
# 
# From -- ./inp_files/65913.got.cif
#   From: 2010.03.12/outbox.cif.g09.slc.cpg/sg65_33_cif.got.tgz:65913.got - 2010.04.10 20:52:16.
