data_PCOD8271409
_publ_section_title
;
Structure prediction by ZEFSAII (Michael W. Deem and Ramdas Pophale) SiO2 
 PCOD8271409
Probable space group: C M M M
;
_chemical_formula_sum "Si O2"
_cell_formula_units_Z 64
_cell_length_a 8.975124
_cell_length_b 18.048695
_cell_length_c 20.399034
_cell_angle_alpha 90.000000
_cell_angle_beta 90.000000
_cell_angle_gamma 90.000000
_cell_volume 3304.424742
_symmetry_space_group_name_H-M "C M M M"
_symmetry_group_IT_number 65
_symmetry_cell_setting 'orthorhombic'
loop_
_space_group_symop_operation_xyz
x,y,z
-x,-y,z
x,-y,-z
-x,y,-z
-x,-y,-z
x,y,-z
-x,y,z
x,-y,z
1/2+x,1/2+y,z
1/2-x,1/2-y,z
1/2+x,1/2-y,-z
1/2-x,1/2+y,-z
1/2-x,1/2-y,-z
1/2+x,1/2+y,-z
1/2-x,1/2+y,z
1/2+x,1/2-y,z
loop_
_atom_site_type_symbol
_atom_site_label
_atom_site_fract_x
_atom_site_fract_y
_atom_site_fract_z
Si Si1 0.671292 0.914969 0.075784
Si Si2 0.675743 0.671412 0.186982
Si Si3 0.332151 0.911942 0.301080
Si Si4 0.332504 0.588079 0.572049
O O1 0.500000 0.902088 0.096401
O O2 0.776211 0.861278 0.117002
O O3 0.715746 0.000000 0.089234
O O4 0.694927 0.895024 0.000000
O O5 0.500000 0.680610 0.188057
O O6 0.750000 0.750000 0.199304
O O7 0.725873 0.616155 0.243903
O O8 0.500000 0.882968 0.290236
O O9 0.274960 0.880701 0.371172
O O10 0.326373 0.000000 0.299863
O O11 0.277022 0.615137 0.500000
O O12 0.500000 0.617052 0.584875
O O13 0.331715 0.500000 0.573785
#
# Coordination Sequence:
#
# PCOD8271409 Si02
#       4
#    16  16  16  16
#     4   9  19  38  63  88 114 143 175 215 264 317
#     4  12  25  39  56  78 108 145 184 226 270 319
#     4  10  20  34  54  80 110 143 180 223 270 322
#     4   8  14  26  46  74 107 140 176 220 267 314
#
# _framework density 19.367968999999999
#
# number of rings (size 3 to 8) (size 9 to 14) (size 15 to 20)
#    0.000    2.250    0.000    5.250    0.000    6.500 
#    0.000    3.750    0.000    0.750    0.000    0.000 
#    0.000    0.000    0.000    0.000    0.000    0.000 
#
# Total GULP energy -396793.386051 kJ/mol
# GULP energy per Si atom -12399.793314 kJ/mol
# Density = 1.932389 g / cm^3
# Si number density = 19.367969 Si / 1000 Ang^3
#
#
#
# Elastic Constant Matrix: (Units=GPa)
#
#
# Indices 1 2 3 4 5 6 
#
# 1 135.7796 30.5264 57.3718 0.0000 0.0000 0.0000
# 2 30.5264 31.3041 23.8537 0.0000 0.0000 0.0000
# 3 57.3718 23.8537 115.4137 0.0000 0.0000 0.0000
# 4 0.0000 0.0000 0.0000 1.1259 0.0000 0.0000
# 5 0.0000 0.0000 0.0000 0.0000 37.6009 0.0000
# 6 0.0000 0.0000 0.0000 0.0000 0.0000 24.7552
#
#
#
# Elastic Compliance Matrix: (Units=1/GPa)
#
#
# Indices 1 2 3 4 5 6 
#
# 1 0.010633 -0.007527 -0.003730 0.000000 0.000000 0.000000
# 2 -0.007527 0.043244 -0.005196 0.000000 0.000000 0.000000
# 3 -0.003730 -0.005196 0.011593 0.000000 0.000000 0.000000
# 4 0.000000 0.000000 0.000000 0.888178 0.000000 0.000000
# 5 0.000000 0.000000 0.000000 0.000000 0.026595 0.000000
# 6 0.000000 0.000000 0.000000 0.000000 0.000000 0.040395
#
#
# Mechanical properties :
#
#
# Convention : Reuss Voigt Hill
#
# Bulk Modulus (GPa) = 30.70890 56.22233 43.46561
# Shear Modulus (GPa) = 4.69749 24.07943 14.38846
#
# Velocity S-wave (km/s) = 1.55906 3.52982 2.72858
# Velocity P-wave (km/s) = 4.37388 6.76050 5.69364
#
# Compressibility (1/GPa) = 0.03256385
#
# Stress axis : x y z
#
# Youngs Moduli (GPa) = 94.04558 23.12467 86.26161
#
# Poissons Ratio (x) = 0.17405 0.32176
# Poissons Ratio (y) = 0.70785 0.44823
# Poissons Ratio (z) = 0.35080 0.12016
#
# Static dielectric constant tensor:
#      x y z
#    x 3.650830 0.000000 0.000000 
#    y 0.000000 3.182920 0.000000 
#    z 0.000000 0.000000 3.824820 
# 
# 
# High freq. dielectric constant tensor:
#      x y z
#    x 1.754370 0.000000 0.000000 
#    y 0.000000 1.716900 0.000000 
#    z 0.000000 0.000000 1.772420 
# 
# From -- ./inp_files/55264.got.cif
#   From: 2010.03.12/outbox.cif.g09.slc.cpg/sg65_28_cif.got.tgz:55264.got - 2010.04.10 20:52:16.
