data_PCOD8271337
_publ_section_title
;
Structure prediction by ZEFSAII (Michael W. Deem and Ramdas Pophale) SiO2 
 PCOD8271337
Probable space group: C M M M
;
_chemical_formula_sum "Si O2"
_cell_formula_units_Z 72
_cell_length_a 9.067731
_cell_length_b 29.116077
_cell_length_c 14.425236
_cell_angle_alpha 90.000000
_cell_angle_beta 90.000000
_cell_angle_gamma 90.000000
_cell_volume 3808.503985
_symmetry_space_group_name_H-M "C M M M"
_symmetry_group_IT_number 65
_symmetry_cell_setting 'orthorhombic'
loop_
_space_group_symop_operation_xyz
x,y,z
-x,-y,z
x,-y,-z
-x,y,-z
-x,-y,-z
x,y,-z
-x,y,z
x,-y,z
1/2+x,1/2+y,z
1/2-x,1/2-y,z
1/2+x,1/2-y,-z
1/2-x,1/2+y,-z
1/2-x,1/2-y,-z
1/2+x,1/2+y,-z
1/2-x,1/2+y,z
1/2+x,1/2-y,z
loop_
_atom_site_type_symbol
_atom_site_label
_atom_site_fract_x
_atom_site_fract_y
_atom_site_fract_z
Si Si1 0.325124 0.120192 0.843629
Si Si2 0.825625 0.949096 0.500000
Si Si3 0.826924 0.200392 0.500000
Si Si4 0.825248 0.448880 0.000000
Si Si5 0.826145 0.123948 0.352935
Si Si6 0.838799 0.208871 0.105341
O O1 0.500000 0.124107 0.839914
O O2 0.273576 0.076812 0.905901
O O3 0.262485 0.118732 0.740975
O O4 0.259982 0.164072 0.894082
O O5 0.775719 0.920829 0.589981
O O6 0.000000 0.953127 0.500000
O O7 0.753282 0.000000 0.500000
O O8 0.750000 0.250000 0.500000
O O9 0.783217 0.170562 0.408749
O O10 0.000000 0.209396 0.500000
O O11 0.755957 0.500000 0.000000
O O12 0.000000 0.451381 0.000000
O O13 0.000000 0.123598 0.333356
O O14 0.750000 0.250000 0.156804
O O15 0.000000 0.201630 0.153618
O O16 0.866841 0.223445 0.000000
#
# Coordination Sequence:
#
# PCOD8271337 Si02
#       6
#    16   8   8   8  16  16
#     4  11  21  35  56  80 110 148 189 230 275 328
#     4   8  15  32  58  81 103 136 175 221 282 341
#     4   9  19  36  57  79 109 146 178 216 266 322
#     4   9  20  38  56  75 106 149 192 233 280 331
#     4   9  19  35  54  80 111 140 176 224 277 330
#     4  10  20  34  54  78 106 139 178 222 267 314
#
# _framework density 18.905059999999999
#
# number of rings (size 3 to 8) (size 9 to 14) (size 15 to 20)
#    0.000    2.444    1.111    2.667    0.000    3.556 
#    0.000    3.889    0.000    5.333    0.000    0.000 
#    0.000    0.000    0.000    0.000    0.000    0.000 
#
# Total GULP energy -446140.980579 kJ/mol
# GULP energy per Si atom -12392.805016 kJ/mol
# Density = 1.886203 g / cm^3
# Si number density = 18.905060 Si / 1000 Ang^3
#
#
#
# Elastic Constant Matrix: (Units=GPa)
#
#
# Indices 1 2 3 4 5 6 
#
# 1 80.8451 55.4600 52.1955 0.0000 0.0000 0.0000
# 2 55.4600 184.9309 64.4946 0.0000 0.0000 0.0000
# 3 52.1955 64.4946 116.5647 0.0000 0.0000 0.0000
# 4 0.0000 0.0000 0.0000 78.3295 0.0000 0.0000
# 5 0.0000 0.0000 0.0000 0.0000 27.0898 0.0000
# 6 0.0000 0.0000 0.0000 0.0000 0.0000 24.0169
#
#
#
# Elastic Compliance Matrix: (Units=1/GPa)
#
#
# Indices 1 2 3 4 5 6 
#
# 1 0.018961 -0.003377 -0.006622 0.000000 0.000000 0.000000
# 2 -0.003377 0.007302 -0.002528 0.000000 0.000000 0.000000
# 3 -0.006622 -0.002528 0.012943 0.000000 0.000000 0.000000
# 4 0.000000 0.000000 0.000000 0.012767 0.000000 0.000000
# 5 0.000000 0.000000 0.000000 0.000000 0.036914 0.000000
# 6 0.000000 0.000000 0.000000 0.000000 0.000000 0.041637
#
#
# Mechanical properties :
#
#
# Convention : Reuss Voigt Hill
#
# Bulk Modulus (GPa) = 70.66107 80.73787 75.69947
# Shear Modulus (GPa) = 31.19246 39.89997 35.54622
#
# Velocity S-wave (km/s) = 4.06637 4.59905 4.34089
# Velocity P-wave (km/s) = 7.71395 8.42623 8.07795
#
# Compressibility (1/GPa) = 0.01415206
#
# Stress axis : x y z
#
# Youngs Moduli (GPa) = 52.73900 136.95331 77.26292
#
# Poissons Ratio (x) = 0.46249 0.51164
# Poissons Ratio (y) = 0.17810 0.19531
# Poissons Ratio (z) = 0.34924 0.34620
#
# Static dielectric constant tensor:
#      x y z
#    x 3.409950 0.000000 0.000000 
#    y 0.000000 3.911760 0.000000 
#    z 0.000000 0.000000 3.247230 
# 
# 
# High freq. dielectric constant tensor:
#      x y z
#    x 1.718910 0.000000 0.000000 
#    y 0.000000 1.741800 0.000000 
#    z 0.000000 0.000000 1.728320 
# 
# From -- ./inp_files/36692.got.cif
#   From: 2010.03.12/outbox.cif.g09.slc.cpg/sg65_19_cif.got.tgz:36692.got - 2010.04.10 20:52:16.
