data_PCOD8271678
_publ_section_title
;
Structure prediction by ZEFSAII (Michael W. Deem and Ramdas Pophale) SiO2 
 PCOD8271678
Probable space group: C M M M
;
_chemical_formula_sum "Si O2"
_cell_formula_units_Z 104
_cell_length_a 20.053754
_cell_length_b 8.060223
_cell_length_c 34.341586
_cell_angle_alpha 90.000000
_cell_angle_beta 90.000000
_cell_angle_gamma 90.000000
_cell_volume 5550.895979
_symmetry_space_group_name_H-M "C M M M"
_symmetry_group_IT_number 65
_symmetry_cell_setting 'orthorhombic'
loop_
_space_group_symop_operation_xyz
x,y,z
-x,-y,z
x,-y,-z
-x,y,-z
-x,-y,-z
x,y,-z
-x,y,z
x,-y,z
1/2+x,1/2+y,z
1/2-x,1/2-y,z
1/2+x,1/2-y,-z
1/2-x,1/2+y,-z
1/2-x,1/2-y,-z
1/2+x,1/2+y,-z
1/2-x,1/2+y,z
1/2+x,1/2-y,z
loop_
_atom_site_type_symbol
_atom_site_label
_atom_site_fract_x
_atom_site_fract_y
_atom_site_fract_z
Si Si1 0.322446 0.303568 0.956431
Si Si2 0.677879 0.695671 0.250367
Si Si3 0.820947 0.806433 0.337249
Si Si4 0.921962 0.807651 0.403775
Si Si5 0.074612 0.307921 0.187634
Si Si6 0.573985 0.692879 0.105103
Si Si7 0.578694 0.000000 0.456737
O O1 0.326760 0.500000 0.956499
O O2 0.250000 0.250000 0.941376
O O3 0.376863 0.225655 0.926868
O O4 0.335592 0.233428 0.000000
O O5 0.670703 0.500000 0.249222
O O6 0.750000 0.750000 0.234235
O O7 0.668292 0.769921 0.294127
O O8 0.620974 0.773342 0.224140
O O9 0.750000 0.750000 0.355205
O O10 0.881502 0.755332 0.365289
O O11 0.818609 0.000000 0.332330
O O12 0.899111 0.672544 0.436014
O O13 0.000000 0.789424 0.394173
O O14 0.906266 0.000000 0.416708
O O15 0.073714 0.500000 0.178272
O O16 0.102166 0.219257 0.148720
O O17 0.000000 0.243034 0.197521
O O18 0.500000 0.773616 0.101464
O O19 0.569356 0.500000 0.096335
O O20 0.500000 0.000000 0.459604
O O21 0.610427 0.000000 0.500000
#
# Coordination Sequence:
#
# PCOD8271678 Si02
#       7
#    16  16  16  16  16  16   8
#     4   9  18  32  50  73  99 125 156 198 246 297
#     4  10  20  35  54  76 104 134 172 215 256 308
#     4   9  19  33  52  77 102 136 172 209 259 311
#     4   9  18  33  52  78 108 137 176 221 264 315
#     4  10  21  36  52  73 102 135 171 211 256 303
#     4   9  18  33  52  72  95 127 166 203 245 299
#     4   9  18  32  52  80 108 138 177 219 269 319
#
# _framework density 18.735714999999999
#
# number of rings (size 3 to 8) (size 9 to 14) (size 15 to 20)
#    0.000    2.692    0.000    0.923    1.077    4.000 
#    0.000    6.154    0.000    0.462    0.000    4.308 
#    0.000    0.000    0.000    0.000    0.000    0.000 
#
# Total GULP energy -644555.735393 kJ/mol
# GULP energy per Si atom -12395.302604 kJ/mol
# Density = 1.869307 g / cm^3
# Si number density = 18.735715 Si / 1000 Ang^3
#
#
#
# Elastic Constant Matrix: (Units=GPa)
#
#
# Indices 1 2 3 4 5 6 
#
# 1 105.4107 27.6845 82.3711 0.0000 0.0000 0.0000
# 2 27.6845 46.9629 33.2201 0.0000 0.0000 0.0000
# 3 82.3711 33.2201 129.7309 0.0000 0.0000 0.0000
# 4 0.0000 0.0000 0.0000 21.3171 0.0000 0.0000
# 5 0.0000 0.0000 0.0000 0.0000 27.2631 0.0000
# 6 0.0000 0.0000 0.0000 0.0000 0.0000 24.4144
#
#
#
# Elastic Compliance Matrix: (Units=1/GPa)
#
#
# Indices 1 2 3 4 5 6 
#
# 1 0.019238 -0.003298 -0.011371 0.000000 0.000000 0.000000
# 2 -0.003298 0.026569 -0.004710 0.000000 0.000000 0.000000
# 3 -0.011371 -0.004710 0.016134 0.000000 0.000000 0.000000
# 4 0.000000 0.000000 0.000000 0.046911 0.000000 0.000000
# 5 0.000000 0.000000 0.000000 0.000000 0.036680 0.000000
# 6 0.000000 0.000000 0.000000 0.000000 0.000000 0.040959
#
#
# Mechanical properties :
#
#
# Convention : Reuss Voigt Hill
#
# Bulk Modulus (GPa) = 43.13126 63.18400 53.15763
# Shear Modulus (GPa) = 21.46158 23.85418 22.65788
#
# Velocity S-wave (km/s) = 3.38818 3.57205 3.48133
# Velocity P-wave (km/s) = 6.19493 7.12810 6.67784
#
# Compressibility (1/GPa) = 0.02318504
#
# Stress axis : x y z
#
# Youngs Moduli (GPa) = 51.98021 37.63811 61.98134
#
# Poissons Ratio (x) = 0.12412 0.70476
# Poissons Ratio (y) = 0.17141 0.29191
# Poissons Ratio (z) = 0.59105 0.17726
#
# Static dielectric constant tensor:
#      x y z
#    x 3.488440 0.000000 0.000000 
#    y 0.000000 3.414290 0.000000 
#    z 0.000000 0.000000 3.714590 
# 
# 
# High freq. dielectric constant tensor:
#      x y z
#    x 1.718830 0.000000 0.000000 
#    y 0.000000 1.725980 0.000000 
#    z 0.000000 0.000000 1.721260 
# 
# From -- ./inp_files/78179.got.cif
#   From: 2010.03.12/outbox.cif.g09.slc.cpg/sg65_40_cif.got.tgz:78179.got - 2010.04.10 20:52:16.
