data_PCOD8271345
_publ_section_title
;
Structure prediction by ZEFSAII (Michael W. Deem and Ramdas Pophale) SiO2 
 PCOD8271345
Probable space group: C M M M
;
_chemical_formula_sum "Si O2"
_cell_formula_units_Z 96
_cell_length_a 9.038111
_cell_length_b 19.336573
_cell_length_c 31.074161
_cell_angle_alpha 90.000000
_cell_angle_beta 90.000000
_cell_angle_gamma 90.000000
_cell_volume 5430.709715
_symmetry_space_group_name_H-M "C M M M"
_symmetry_group_IT_number 65
_symmetry_cell_setting 'orthorhombic'
loop_
_space_group_symop_operation_xyz
x,y,z
-x,-y,z
x,-y,-z
-x,y,-z
-x,-y,-z
x,y,-z
-x,y,z
x,-y,z
1/2+x,1/2+y,z
1/2-x,1/2-y,z
1/2+x,1/2-y,-z
1/2-x,1/2+y,-z
1/2-x,1/2-y,-z
1/2+x,1/2+y,-z
1/2-x,1/2+y,z
1/2+x,1/2-y,z
loop_
_atom_site_type_symbol
_atom_site_label
_atom_site_fract_x
_atom_site_fract_y
_atom_site_fract_z
Si Si1 0.326176 0.420473 0.284819
Si Si2 0.328985 0.418349 0.114182
Si Si3 0.167035 0.582226 0.199417
Si Si4 0.674340 0.676191 0.638536
Si Si5 0.672012 0.820337 0.050266
Si Si6 0.327529 0.677246 0.545411
O O1 0.500000 0.412097 0.277051
O O2 0.283920 0.500000 0.293407
O O3 0.244025 0.390517 0.242847
O O4 0.268703 0.377282 0.325723
O O5 0.500000 0.396945 0.113739
O O6 0.308057 0.500000 0.109739
O O7 0.257678 0.390130 0.158403
O O8 0.245352 0.384700 0.074181
O O9 0.169680 0.500000 0.199444
O O10 0.000000 0.610829 0.197135
O O11 0.500000 0.687439 0.643019
O O12 0.750000 0.750000 0.645499
O O13 0.715474 0.642369 0.591326
O O14 0.500000 0.815601 0.061982
O O15 0.750000 0.750000 0.065629
O O16 0.698058 0.832997 0.000000
O O17 0.287098 0.636705 0.500000
O O18 0.500000 0.692142 0.546114
O O19 0.250000 0.750000 0.543926
#
# Coordination Sequence:
#
# PCOD8271345 Si02
#       6
#    16  16  16  16  16  16
#     4   9  17  30  47  65  88 120 155 187 225 279
#     4  10  20  34  54  79 105 132 164 204 247 289
#     4   9  17  30  49  72  96 122 156 198 240 281
#     4   9  17  28  43  64  89 116 146 185 230 271
#     4  10  21  37  56  77 104 138 172 205 243 289
#     4   8  13  22  37  57  81 109 142 179 219 265
#
# _framework density 17.677247000000001
#
# number of rings (size 3 to 8) (size 9 to 14) (size 15 to 20)
#    0.000    2.833    0.000    1.500    0.000    5.000 
#    0.000    2.500    0.000    2.500    0.000    3.500 
#    0.000    0.000    0.000   31.167    0.000   17.000 
#
# Total GULP energy -594783.112443 kJ/mol
# GULP energy per Si atom -12391.314843 kJ/mol
# Density = 1.763701 g / cm^3
# Si number density = 17.677247 Si / 1000 Ang^3
#
#
#
# Elastic Constant Matrix: (Units=GPa)
#
#
# Indices 1 2 3 4 5 6 
#
# 1 86.6638 32.6034 65.1288 0.0000 0.0000 0.0000
# 2 32.6034 45.6960 51.4012 0.0000 0.0000 0.0000
# 3 65.1288 51.4012 144.9744 0.0000 0.0000 0.0000
# 4 0.0000 0.0000 0.0000 31.5235 0.0000 0.0000
# 5 0.0000 0.0000 0.0000 0.0000 25.9906 0.0000
# 6 0.0000 0.0000 0.0000 0.0000 0.0000 22.2473
#
#
#
# Elastic Compliance Matrix: (Units=1/GPa)
#
#
# Indices 1 2 3 4 5 6 
#
# 1 0.018480 -0.006399 -0.006033 0.000000 0.000000 0.000000
# 2 -0.006399 0.038617 -0.010817 0.000000 0.000000 0.000000
# 3 -0.006033 -0.010817 0.013444 0.000000 0.000000 0.000000
# 4 0.000000 0.000000 0.000000 0.031722 0.000000 0.000000
# 5 0.000000 0.000000 0.000000 0.000000 0.038475 0.000000
# 6 0.000000 0.000000 0.000000 0.000000 0.000000 0.044949
#
#
# Mechanical properties :
#
#
# Convention : Reuss Voigt Hill
#
# Bulk Modulus (GPa) = 41.59381 63.95565 52.77473
# Shear Modulus (GPa) = 20.81596 24.49900 22.65748
#
# Velocity S-wave (km/s) = 3.43528 3.72681 3.58401
# Velocity P-wave (km/s) = 6.27021 7.40115 6.85903
#
# Compressibility (1/GPa) = 0.02404204
#
# Stress axis : x y z
#
# Youngs Moduli (GPa) = 54.11182 25.89545 74.38515
#
# Poissons Ratio (x) = 0.16570 0.44880
# Poissons Ratio (y) = 0.34624 0.80464
# Poissons Ratio (z) = 0.32648 0.28012
#
# Static dielectric constant tensor:
#      x y z
#    x 3.302460 0.000000 0.000000 
#    y 0.000000 2.871090 0.000000 
#    z 0.000000 0.000000 3.844800 
# 
# 
# High freq. dielectric constant tensor:
#      x y z
#    x 1.689860 0.000000 0.000000 
#    y 0.000000 1.632650 0.000000 
#    z 0.000000 0.000000 1.707750 
# 
# From -- ./inp_files/73445.got.cif
#   From: 2010.03.12/outbox.cif.g09.slc.cpg/sg65_37_cif.got.tgz:73445.got - 2010.04.10 20:52:16.
