data_PCOD8271180
_publ_section_title
;
Structure prediction by ZEFSAII (Michael W. Deem and Ramdas Pophale) SiO2 
 PCOD8271180
Probable space group: C M M M
;
_chemical_formula_sum "Si O2"
_cell_formula_units_Z 88
_cell_length_a 17.766124
_cell_length_b 9.110644
_cell_length_c 28.318868
_cell_angle_alpha 90.000000
_cell_angle_beta 90.000000
_cell_angle_gamma 90.000000
_cell_volume 4583.715508
_symmetry_space_group_name_H-M "C M M M"
_symmetry_group_IT_number 65
_symmetry_cell_setting 'orthorhombic'
loop_
_space_group_symop_operation_xyz
x,y,z
-x,-y,z
x,-y,-z
-x,y,-z
-x,-y,-z
x,y,-z
-x,y,z
x,-y,z
1/2+x,1/2+y,z
1/2-x,1/2-y,z
1/2+x,1/2-y,-z
1/2-x,1/2+y,-z
1/2-x,1/2-y,-z
1/2+x,1/2+y,-z
1/2-x,1/2+y,z
1/2+x,1/2-y,z
loop_
_atom_site_type_symbol
_atom_site_label
_atom_site_fract_x
_atom_site_fract_y
_atom_site_fract_z
Si Si1 0.413140 0.168115 0.445353
Si Si2 0.410024 0.164046 0.000000
Si Si3 0.589532 0.334760 0.193347
Si Si4 0.170814 0.174487 0.634662
Si Si5 0.910545 0.835097 0.089591
Si Si6 0.589364 0.834924 0.283364
O O1 0.393365 0.191023 0.500000
O O2 0.500000 0.206489 0.435604
O O3 0.360647 0.277414 0.416202
O O4 0.397102 0.000000 0.430220
O O5 0.376529 0.238238 0.952697
O O6 0.500000 0.172406 0.000000
O O7 0.379948 0.000000 0.000000
O O8 0.500000 0.336177 0.195344
O O9 0.619527 0.500000 0.202145
O O10 0.615877 0.278001 0.141428
O O11 0.621769 0.227626 0.233802
O O12 0.250000 0.250000 0.644396
O O13 0.113825 0.228756 0.674621
O O14 0.178836 0.000000 0.636123
O O15 0.000000 0.830723 0.087233
O O16 0.881563 0.000000 0.082044
O O17 0.500000 0.836601 0.282664
O O18 0.620802 0.000000 0.290522
#
# Coordination Sequence:
#
# PCOD8271180 Si02
#       6
#    16   8  16  16  16  16
#     4   9  19  38  63  88 114 143 174 210 252 298
#     4   9  15  19  25  41  67 101 142 187 234 287
#     4   8  14  25  41  61  84 113 154 201 245 292
#     4  12  25  39  56  78 107 141 176 215 257 303
#     4   8  13  21  32  46  69 104 145 188 234 286
#     4  10  20  34  53  76 102 132 167 209 257 308
#
# _framework density 19.198399999999999
#
# number of rings (size 3 to 8) (size 9 to 14) (size 15 to 20)
#    0.000    2.636    0.000    4.636    0.000    6.182 
#    0.000    4.545    0.000    0.000    0.000    0.000 
#    0.000    0.000    0.000    0.818    0.000   11.636 
#
# Total GULP energy -545432.620879 kJ/mol
# GULP energy per Si atom -12396.195929 kJ/mol
# Density = 1.915470 g / cm^3
# Si number density = 19.198400 Si / 1000 Ang^3
#
#
#
# Elastic Constant Matrix: (Units=GPa)
#
#
# Indices 1 2 3 4 5 6 
#
# 1 18.7801 21.2104 16.6642 0.0000 0.0000 0.0000
# 2 21.2104 138.7553 70.5039 0.0000 0.0000 0.0000
# 3 16.6642 70.5039 134.7398 0.0000 0.0000 0.0000
# 4 0.0000 0.0000 0.0000 37.0086 0.0000 0.0000
# 5 0.0000 0.0000 0.0000 0.0000 0.3032 0.0000
# 6 0.0000 0.0000 0.0000 0.0000 0.0000 18.2198
#
#
#
# Elastic Compliance Matrix: (Units=1/GPa)
#
#
# Indices 1 2 3 4 5 6 
#
# 1 0.065844 -0.008074 -0.003919 0.000000 0.000000 0.000000
# 2 -0.008074 0.010807 -0.004656 0.000000 0.000000 0.000000
# 3 -0.003919 -0.004656 0.010343 0.000000 0.000000 0.000000
# 4 0.000000 0.000000 0.000000 0.027021 0.000000 0.000000
# 5 0.000000 0.000000 0.000000 0.000000 3.298473 0.000000
# 6 0.000000 0.000000 0.000000 0.000000 0.000000 0.054885
#
#
# Mechanical properties :
#
#
# Convention : Reuss Voigt Hill
#
# Bulk Modulus (GPa) = 18.62340 56.55912 37.59126
# Shear Modulus (GPa) = 1.42103 23.36609 12.39356
#
# Velocity S-wave (km/s) = 0.86127 3.49246 2.54353
# Velocity P-wave (km/s) = 3.27271 6.76663 5.31498
#
# Compressibility (1/GPa) = 0.05369589
#
# Stress axis : x y z
#
# Youngs Moduli (GPa) = 15.18750 92.53177 96.68524
#
# Poissons Ratio (x) = 0.74709 0.37887
# Poissons Ratio (y) = 0.12262 0.45020
# Poissons Ratio (z) = 0.05951 0.43086
#
# Static dielectric constant tensor:
#      x y z
#    x 2.924280 0.000000 0.000000 
#    y 0.000000 3.659110 0.000000 
#    z 0.000000 0.000000 3.890830 
# 
# 
# High freq. dielectric constant tensor:
#      x y z
#    x 1.684060 0.000000 0.000000 
#    y 0.000000 1.746600 0.000000 
#    z 0.000000 0.000000 1.768100 
# 
# From -- ./inp_files/77912.got.cif
#   From: 2010.03.12/outbox.cif.g09.slc.cpg/sg65_39_cif.got.tgz:77912.got - 2010.04.10 20:52:16.
