data_PCOD8271538
_publ_section_title
;
Structure prediction by ZEFSAII (Michael W. Deem and Ramdas Pophale) SiO2 
 PCOD8271538
Probable space group: C M M M
;
_chemical_formula_sum "Si O2"
_cell_formula_units_Z 64
_cell_length_a 19.469311
_cell_length_b 7.983159
_cell_length_c 21.640678
_cell_angle_alpha 90.000000
_cell_angle_beta 90.000000
_cell_angle_gamma 90.000000
_cell_volume 3363.537119
_symmetry_space_group_name_H-M "C M M M"
_symmetry_group_IT_number 65
_symmetry_cell_setting 'orthorhombic'
loop_
_space_group_symop_operation_xyz
x,y,z
-x,-y,z
x,-y,-z
-x,y,-z
-x,-y,-z
x,y,-z
-x,y,z
x,-y,z
1/2+x,1/2+y,z
1/2-x,1/2-y,z
1/2+x,1/2-y,-z
1/2-x,1/2+y,-z
1/2-x,1/2-y,-z
1/2+x,1/2+y,-z
1/2-x,1/2+y,z
1/2+x,1/2-y,z
loop_
_atom_site_type_symbol
_atom_site_label
_atom_site_fract_x
_atom_site_fract_y
_atom_site_fract_z
Si Si1 0.075629 0.194440 0.500000
Si Si2 0.079894 0.188895 0.150658
Si Si3 0.918458 0.500000 0.069083
Si Si4 0.324970 0.801952 0.255828
Si Si5 0.323888 0.195923 0.395099
O O1 0.115558 0.242391 0.438333
O O2 0.000000 0.280902 0.500000
O O3 0.065081 0.000000 0.500000
O O4 0.107472 0.330221 0.102957
O O5 0.118563 0.208074 0.215326
O O6 0.000000 0.219012 0.164118
O O7 0.092271 0.000000 0.124340
O O8 0.000000 0.500000 0.066070
O O9 0.887407 0.500000 0.000000
O O10 0.250000 0.750000 0.231125
O O11 0.334176 0.733497 0.325804
O O12 0.335674 0.000000 0.250854
O O13 0.250000 0.250000 0.422129
O O14 0.326216 0.000000 0.392863
#
# Coordination Sequence:
#
# PCOD8271538 Si02
#       5
#     8  16   8  16  16
#     4  11  24  39  54  75 107 145 182 227 282 331
#     4  10  20  34  55  84 115 148 187 231 281 331
#     4   9  18  34  56  82 114 149 188 232 273 327
#     4  10  20  35  56  83 111 144 184 229 280 332
#     4  10  21  37  58  80 106 140 183 228 272 330
#
# _framework density 19.027588999999999
#
# number of rings (size 3 to 8) (size 9 to 14) (size 15 to 20)
#    0.000    2.000    1.250    2.250    0.000    5.500 
#    0.000    7.500    0.000    0.750    0.000    0.000 
#    0.000    0.000    0.000    0.000    0.000    0.000 
#
# Total GULP energy -396777.515365 kJ/mol
# GULP energy per Si atom -12399.297355 kJ/mol
# Density = 1.898428 g / cm^3
# Si number density = 19.027589 Si / 1000 Ang^3
#
#
#
# Elastic Constant Matrix: (Units=GPa)
#
#
# Indices 1 2 3 4 5 6 
#
# 1 103.6466 36.1010 64.7622 0.0000 0.0000 0.0000
# 2 36.1010 105.2912 49.5223 0.0000 0.0000 0.0000
# 3 64.7622 49.5223 118.5032 0.0000 0.0000 0.0000
# 4 0.0000 0.0000 0.0000 20.4080 0.0000 0.0000
# 5 0.0000 0.0000 0.0000 0.0000 13.5631 0.0000
# 6 0.0000 0.0000 0.0000 0.0000 0.0000 26.7138
#
#
#
# Elastic Compliance Matrix: (Units=1/GPa)
#
#
# Indices 1 2 3 4 5 6 
#
# 1 0.014861 -0.001588 -0.007458 0.000000 0.000000 0.000000
# 2 -0.001588 0.011990 -0.004143 0.000000 0.000000 0.000000
# 3 -0.007458 -0.004143 0.014246 0.000000 0.000000 0.000000
# 4 0.000000 0.000000 0.000000 0.049000 0.000000 0.000000
# 5 0.000000 0.000000 0.000000 0.000000 0.073729 0.000000
# 6 0.000000 0.000000 0.000000 0.000000 0.000000 0.037434
#
#
# Mechanical properties :
#
#
# Convention : Reuss Voigt Hill
#
# Bulk Modulus (GPa) = 67.93620 69.80133 68.86877
# Shear Modulus (GPa) = 21.50112 23.94069 22.72090
#
# Velocity S-wave (km/s) = 3.36519 3.55097 3.45933
# Velocity P-wave (km/s) = 7.13308 7.31959 7.22694
#
# Compressibility (1/GPa) = 0.01471969
#
# Stress axis : x y z
#
# Youngs Moduli (GPa) = 67.28864 83.39941 70.19512
#
# Poissons Ratio (x) = 0.13240 0.52354
# Poissons Ratio (y) = 0.10683 0.29083
# Poissons Ratio (z) = 0.50186 0.34554
#
# Static dielectric constant tensor:
#      x y z
#    x 3.425460 0.000000 0.000000 
#    y 0.000000 3.683280 0.000000 
#    z 0.000000 0.000000 3.394180 
# 
# 
# High freq. dielectric constant tensor:
#      x y z
#    x 1.724430 0.000000 0.000000 
#    y 0.000000 1.756160 0.000000 
#    z 0.000000 0.000000 1.732050 
# 
# From -- ./inp_files/63267.got.cif
#   From: 2010.03.12/outbox.cif.g09.slc.cpg/sg65_32_cif.got.tgz:63267.got - 2010.04.10 20:52:16.
