data_PCOD8271703
_publ_section_title
;
Structure prediction by ZEFSAII (Michael W. Deem and Ramdas Pophale) SiO2 
 PCOD8271703
Probable space group: C M M M
;
_chemical_formula_sum "Si O2"
_cell_formula_units_Z 104
_cell_length_a 29.706306
_cell_length_b 9.084679
_cell_length_c 22.922051
_cell_angle_alpha 90.000000
_cell_angle_beta 90.000000
_cell_angle_gamma 90.000000
_cell_volume 6186.025576
_symmetry_space_group_name_H-M "C M M M"
_symmetry_group_IT_number 65
_symmetry_cell_setting 'orthorhombic'
loop_
_space_group_symop_operation_xyz
x,y,z
-x,-y,z
x,-y,-z
-x,y,-z
-x,-y,-z
x,y,-z
-x,y,z
x,-y,z
1/2+x,1/2+y,z
1/2-x,1/2-y,z
1/2+x,1/2-y,-z
1/2-x,1/2+y,-z
1/2-x,1/2-y,-z
1/2+x,1/2+y,-z
1/2-x,1/2+y,z
1/2+x,1/2-y,z
loop_
_atom_site_type_symbol
_atom_site_label
_atom_site_fract_x
_atom_site_fract_y
_atom_site_fract_z
Si Si1 0.792887 0.164497 0.771127
Si Si2 0.614734 0.825611 0.908387
Si Si3 0.553483 0.333232 0.436429
Si Si4 0.050674 0.672871 0.675932
Si Si5 0.706079 0.666938 0.090292
Si Si6 0.946845 0.826513 0.000000
Si Si7 0.118559 0.671359 0.773979
O O1 0.750000 0.250000 0.745209
O O2 0.790827 0.163827 0.840538
O O3 0.838013 0.243843 0.750362
O O4 0.792362 0.000000 0.745913
O O5 0.661918 0.756318 0.929965
O O6 0.574087 0.749377 0.942782
O O7 0.606369 0.789274 0.840489
O O8 0.615557 0.000000 0.920599
O O9 0.570805 0.275627 0.500000
O O10 0.500000 0.321944 0.435739
O O11 0.569464 0.500000 0.427492
O O12 0.573211 0.238798 0.382801
O O13 0.051522 0.500000 0.668194
O O14 0.077462 0.722214 0.733420
O O15 0.000000 0.731953 0.684604
O O16 0.704058 0.500000 0.065701
O O17 0.750000 0.750000 0.064721
O O18 0.000000 0.796388 0.000000
O O19 0.936115 0.000000 0.000000
O O20 0.129404 0.500000 0.768120
#
# Coordination Sequence:
#
# PCOD8271703 Si02
#       7
#    16  16  16  16  16   8  16
#     4   9  16  26  43  66  92 122 154 186 223 270
#     4  10  20  35  55  75  94 120 155 192 233 281
#     4   8  14  25  40  58  83 117 155 192 228 266
#     4   9  17  28  42  63  92 124 156 190 228 268
#     4   9  16  28  48  74 102 127 150 179 221 274
#     4  11  25  43  58  71  90 117 153 199 243 279
#     4   9  18  31  47  69  97 124 151 188 231 274
#
# _framework density 16.812086000000001
#
# number of rings (size 3 to 8) (size 9 to 14) (size 15 to 20)
#    0.000    2.846    0.000    2.077    0.000    6.462 
#    0.000    3.462    0.000    1.846    0.000    0.000 
#    0.000    0.615    0.000    2.000    0.000    2.923 
#
# Total GULP energy -644616.039453 kJ/mol
# GULP energy per Si atom -12396.462297 kJ/mol
# Density = 1.677382 g / cm^3
# Si number density = 16.812086 Si / 1000 Ang^3
#
#
#
# Elastic Constant Matrix: (Units=GPa)
#
#
# Indices 1 2 3 4 5 6 
#
# 1 111.3098 61.9601 54.1588 0.0000 0.0000 0.0000
# 2 61.9601 94.7533 43.0518 0.0000 0.0000 0.0000
# 3 54.1588 43.0518 94.1149 0.0000 0.0000 0.0000
# 4 0.0000 0.0000 0.0000 20.8638 0.0000 0.0000
# 5 0.0000 0.0000 0.0000 0.0000 -1.0198 0.0000
# 6 0.0000 0.0000 0.0000 0.0000 0.0000 27.9548
#
#
#
# Elastic Compliance Matrix: (Units=1/GPa)
#
#
# Indices 1 2 3 4 5 6 
#
# 1 0.016202 -0.008027 -0.005652 0.000000 0.000000 0.000000
# 2 -0.008027 0.017299 -0.003294 0.000000 0.000000 0.000000
# 3 -0.005652 -0.003294 0.015385 0.000000 0.000000 0.000000
# 4 0.000000 0.000000 0.000000 0.047930 0.000000 0.000000
# 5 0.000000 0.000000 0.000000 0.000000 -0.980548 0.000000
# 6 0.000000 0.000000 0.000000 0.000000 0.000000 0.035772
#
#
# Mechanical properties :
#
#
# Convention : Reuss Voigt Hill
#
# Bulk Modulus (GPa) = 66.93354 68.72438 67.82896
# Shear Modulus (GPa) = -6.18020 18.96022 6.39001
#
# Velocity S-wave (km/s) = -1.91938 3.36188 1.95169
# Velocity P-wave (km/s) = 5.91499 7.48574 6.74624
#
# Compressibility (1/GPa) = 0.01494019
#
# Stress axis : x y z
#
# Youngs Moduli (GPa) = 61.72142 57.80591 65.00009
#
# Poissons Ratio (x) = 0.46399 0.36736
# Poissons Ratio (y) = 0.49542 0.21414
# Poissons Ratio (z) = 0.34883 0.19044
#
# Static dielectric constant tensor:
#      x y z
#    x 3.112550 0.000000 0.000000 
#    y 0.000000 3.288070 0.000000 
#    z 0.000000 0.000000 3.186580 
# 
# 
# High freq. dielectric constant tensor:
#      x y z
#    x 1.626780 0.000000 0.000000 
#    y 0.000000 1.657060 0.000000 
#    z 0.000000 0.000000 1.624530 
# 
# From -- ./inp_files/72164.got.cif
#   From: 2010.03.12/outbox.cif.g09.slc.cpg/sg65_37_cif.got.tgz:72164.got - 2010.04.10 20:52:16.
