data_PCOD8271867
_publ_section_title
;
Structure prediction by ZEFSAII (Michael W. Deem and Ramdas Pophale) SiO2 
 PCOD8271867
Probable space group: C M M M
;
_chemical_formula_sum "Si O2"
_cell_formula_units_Z 88
_cell_length_a 17.975542
_cell_length_b 9.106465
_cell_length_c 28.807373
_cell_angle_alpha 90.000000
_cell_angle_beta 90.000000
_cell_angle_gamma 90.000000
_cell_volume 4715.583863
_symmetry_space_group_name_H-M "C M M M"
_symmetry_group_IT_number 65
_symmetry_cell_setting 'orthorhombic'
loop_
_space_group_symop_operation_xyz
x,y,z
-x,-y,z
x,-y,-z
-x,y,-z
-x,-y,-z
x,y,-z
-x,y,z
x,-y,z
1/2+x,1/2+y,z
1/2-x,1/2-y,z
1/2+x,1/2-y,-z
1/2-x,1/2+y,-z
1/2-x,1/2-y,-z
1/2+x,1/2+y,-z
1/2-x,1/2+y,z
1/2+x,1/2-y,z
loop_
_atom_site_type_symbol
_atom_site_label
_atom_site_fract_x
_atom_site_fract_y
_atom_site_fract_z
Si Si1 0.171288 0.175317 0.827615
Si Si2 0.088577 0.832983 0.000000
Si Si3 0.917236 0.825296 0.261725
Si Si4 0.911607 0.335469 0.550449
Si Si5 0.411371 0.337583 0.637311
Si Si6 0.911685 0.332529 0.091318
O O1 0.250000 0.250000 0.835609
O O2 0.140266 0.226038 0.777520
O O3 0.115034 0.236175 0.865684
O O4 0.177186 0.000000 0.831856
O O5 0.118657 0.745560 0.955198
O O6 0.000000 0.835793 0.000000
O O7 0.119578 0.000000 0.000000
O O8 0.890130 0.766720 0.312439
O O9 0.000000 0.764135 0.250075
O O10 0.921563 0.000000 0.264281
O O11 0.888906 0.266910 0.500000
O O12 0.881002 0.500000 0.553141
O O13 0.876020 0.250063 0.594018
O O14 0.000000 0.334438 0.554833
O O15 0.500000 0.342388 0.633829
O O16 0.377748 0.500000 0.633606
O O17 0.881348 0.500000 0.093593
O O18 0.000000 0.332885 0.091770
#
# Coordination Sequence:
#
# PCOD8271867 Si02
#       6
#    16   8  16  16  16  16
#     4  11  22  36  53  73 101 135 170 207 250 299
#     4   9  17  31  54  83 110 137 170 203 239 287
#     4   8  15  29  49  70  91 120 159 201 244 290
#     4   8  13  20  29  45  75 113 145 173 215 273
#     4   8  13  22  37  57  79 105 144 190 229 270
#     4  10  20  35  56  82 110 137 168 207 247 287
#
# _framework density 18.661527
#
# number of rings (size 3 to 8) (size 9 to 14) (size 15 to 20)
#    0.000    3.000    0.000    3.545    0.000    3.273 
#    0.000    4.091    0.000    4.364    0.000    0.000 
#    0.000    0.727    0.000    1.636    0.000    4.364 
#
# Total GULP energy -545245.948236 kJ/mol
# GULP energy per Si atom -12391.953369 kJ/mol
# Density = 1.861905 g / cm^3
# Si number density = 18.661527 Si / 1000 Ang^3
#
#
#
# Elastic Constant Matrix: (Units=GPa)
#
#
# Indices 1 2 3 4 5 6 
#
# 1 18.3532 16.0003 16.6773 0.0000 0.0000 0.0000
# 2 16.0003 93.9152 63.5527 0.0000 0.0000 0.0000
# 3 16.6773 63.5527 172.9187 0.0000 0.0000 0.0000
# 4 0.0000 0.0000 0.0000 23.3692 0.0000 0.0000
# 5 0.0000 0.0000 0.0000 0.0000 1.1381 0.0000
# 6 0.0000 0.0000 0.0000 0.0000 0.0000 15.3808
#
#
#
# Elastic Compliance Matrix: (Units=1/GPa)
#
#
# Indices 1 2 3 4 5 6 
#
# 1 0.065088 -0.009106 -0.002931 0.000000 0.000000 0.000000
# 2 -0.009106 0.015447 -0.004799 0.000000 0.000000 0.000000
# 3 -0.002931 -0.004799 0.007829 0.000000 0.000000 0.000000
# 4 0.000000 0.000000 0.000000 0.042791 0.000000 0.000000
# 5 0.000000 0.000000 0.000000 0.000000 0.878631 0.000000
# 6 0.000000 0.000000 0.000000 0.000000 0.000000 0.065016
#
#
# Mechanical properties :
#
#
# Convention : Reuss Voigt Hill
#
# Bulk Modulus (GPa) = 18.28376 53.07196 35.67786
# Shear Modulus (GPa) = 4.43772 20.57476 12.50624
#
# Velocity S-wave (km/s) = 1.54375 3.32403 2.59156
# Velocity P-wave (km/s) = 3.60505 6.57520 5.30234
#
# Compressibility (1/GPa) = 0.05469334
#
# Stress axis : x y z
#
# Youngs Moduli (GPa) = 15.36377 64.73891 127.72260
#
# Poissons Ratio (x) = 0.58949 0.37434
# Poissons Ratio (y) = 0.13990 0.61293
# Poissons Ratio (z) = 0.04503 0.31067
#
# Static dielectric constant tensor:
#      x y z
#    x 2.853440 0.000000 0.000000 
#    y 0.000000 3.466510 0.000000 
#    z 0.000000 0.000000 3.951240 
# 
# 
# High freq. dielectric constant tensor:
#      x y z
#    x 1.661910 0.000000 0.000000 
#    y 0.000000 1.710130 0.000000 
#    z 0.000000 0.000000 1.749920 
# 
# From -- ./inp_files/77879.got.cif
#   From: 2010.03.12/outbox.cif.g09.slc.cpg/sg65_39_cif.got.tgz:77879.got - 2010.04.10 20:52:16.
