data_PCOD8271400
_publ_section_title
;
Structure prediction by ZEFSAII (Michael W. Deem and Ramdas Pophale) SiO2 
 PCOD8271400
Probable space group: C M M M
;
_chemical_formula_sum "Si O2"
_cell_formula_units_Z 88
_cell_length_a 9.018144
_cell_length_b 19.187687
_cell_length_c 27.312075
_cell_angle_alpha 90.000000
_cell_angle_beta 90.000000
_cell_angle_gamma 90.000000
_cell_volume 4726.008382
_symmetry_space_group_name_H-M "C M M M"
_symmetry_group_IT_number 65
_symmetry_cell_setting 'orthorhombic'
loop_
_space_group_symop_operation_xyz
x,y,z
-x,-y,z
x,-y,-z
-x,y,-z
-x,-y,-z
x,y,-z
-x,y,z
x,-y,z
1/2+x,1/2+y,z
1/2-x,1/2-y,z
1/2+x,1/2-y,-z
1/2-x,1/2+y,-z
1/2-x,1/2-y,-z
1/2+x,1/2+y,-z
1/2-x,1/2+y,z
1/2+x,1/2-y,z
loop_
_atom_site_type_symbol
_atom_site_label
_atom_site_fract_x
_atom_site_fract_y
_atom_site_fract_z
Si Si1 0.672951 0.178974 0.328467
Si Si2 0.332280 0.082892 0.500000
Si Si3 0.326176 0.580022 0.141332
Si Si4 0.172198 0.320819 0.214419
Si Si5 0.826394 0.820453 0.944909
Si Si6 0.670854 0.417592 0.597363
O O1 0.500000 0.183365 0.340868
O O2 0.750000 0.250000 0.346140
O O3 0.702238 0.166008 0.271404
O O4 0.746131 0.114623 0.356342
O O5 0.500000 0.112024 0.500000
O O6 0.246853 0.110688 0.452212
O O7 0.332239 0.000000 0.500000
O O8 0.500000 0.588234 0.151582
O O9 0.278391 0.500000 0.137036
O O10 0.239003 0.613460 0.186368
O O11 0.279690 0.616616 0.090500
O O12 0.250000 0.250000 0.196375
O O13 0.000000 0.313531 0.202349
O O14 0.750000 0.750000 0.926083
O O15 0.000000 0.806992 0.943230
O O16 0.773960 0.839431 0.000000
O O17 0.500000 0.394571 0.596866
O O18 0.687531 0.500000 0.601870
#
# Coordination Sequence:
#
# PCOD8271400 Si02
#       6
#    16   8  16  16  16  16
#     4  10  21  37  56  78 105 137 174 216 264 316
#     4   9  17  31  52  77 106 141 180 219 259 307
#     4  10  21  35  52  77 108 140 174 215 263 312
#     4  10  21  37  57  78 102 136 176 217 261 313
#     4   9  18  33  53  76 102 135 176 218 259 308
#     4  10  20  34  54  80 109 141 177 217 261 310
#
# _framework density 18.620365
#
# number of rings (size 3 to 8) (size 9 to 14) (size 15 to 20)
#    0.000    2.273    0.000    2.455    0.000    8.000 
#    0.000    5.909    0.000    0.000    0.000    3.818 
#    0.000    0.000    0.000    0.000    0.000    0.000 
#
# Total GULP energy -545774.200016 kJ/mol
# GULP energy per Si atom -12403.959091 kJ/mol
# Density = 1.857798 g / cm^3
# Si number density = 18.620365 Si / 1000 Ang^3
#
#
#
# Elastic Constant Matrix: (Units=GPa)
#
#
# Indices 1 2 3 4 5 6 
#
# 1 110.2466 59.1083 63.4002 0.0000 0.0000 0.0000
# 2 59.1083 111.5066 67.0385 0.0000 0.0000 0.0000
# 3 63.4002 67.0385 98.9775 0.0000 0.0000 0.0000
# 4 0.0000 0.0000 0.0000 30.4146 0.0000 0.0000
# 5 0.0000 0.0000 0.0000 0.0000 32.3449 0.0000
# 6 0.0000 0.0000 0.0000 0.0000 0.0000 32.5418
#
#
#
# Elastic Compliance Matrix: (Units=1/GPa)
#
#
# Indices 1 2 3 4 5 6 
#
# 1 0.015225 -0.003724 -0.007230 0.000000 0.000000 0.000000
# 2 -0.003724 0.016039 -0.008478 0.000000 0.000000 0.000000
# 3 -0.007230 -0.008478 0.020477 0.000000 0.000000 0.000000
# 4 0.000000 0.000000 0.000000 0.032879 0.000000 0.000000
# 5 0.000000 0.000000 0.000000 0.000000 0.030917 0.000000
# 6 0.000000 0.000000 0.000000 0.000000 0.000000 0.030730
#
#
# Mechanical properties :
#
#
# Convention : Reuss Voigt Hill
#
# Bulk Modulus (GPa) = 77.65944 77.75831 77.70887
# Shear Modulus (GPa) = 26.39588 27.80584 27.10086
#
# Velocity S-wave (km/s) = 3.76916 3.86852 3.81916
# Velocity P-wave (km/s) = 7.79355 7.86158 7.82764
#
# Compressibility (1/GPa) = 0.01287673
#
# Stress axis : x y z
#
# Youngs Moduli (GPa) = 65.68149 62.34740 48.83497
#
# Poissons Ratio (x) = 0.23216 0.35309
# Poissons Ratio (y) = 0.24458 0.41404
# Poissons Ratio (z) = 0.47490 0.52860
#
# Static dielectric constant tensor:
#      x y z
#    x 3.515750 0.000000 0.000000 
#    y 0.000000 3.318300 0.000000 
#    z 0.000000 0.000000 3.538230 
# 
# 
# High freq. dielectric constant tensor:
#      x y z
#    x 1.731100 0.000000 0.000000 
#    y 0.000000 1.708030 0.000000 
#    z 0.000000 0.000000 1.731510 
# 
# From -- ./inp_files/70963.got.cif
#   From: 2010.03.12/outbox.cif.g09.slc.cpg/sg65_36_cif.got.tgz:70963.got - 2010.04.10 20:52:16.
