data_PCOD8271938
_publ_section_title
;
Structure prediction by ZEFSAII (Michael W. Deem and Ramdas Pophale) SiO2 
 PCOD8271938
Probable space group: C M M M
;
_chemical_formula_sum "Si O2"
_cell_formula_units_Z 88
_cell_length_a 11.513030
_cell_length_b 17.310620
_cell_length_c 23.382783
_cell_angle_alpha 90.000000
_cell_angle_beta 90.000000
_cell_angle_gamma 90.000000
_cell_volume 4660.134576
_symmetry_space_group_name_H-M "C M M M"
_symmetry_group_IT_number 65
_symmetry_cell_setting 'orthorhombic'
loop_
_space_group_symop_operation_xyz
x,y,z
-x,-y,z
x,-y,-z
-x,y,-z
-x,-y,-z
x,y,-z
-x,y,z
x,-y,z
1/2+x,1/2+y,z
1/2-x,1/2-y,z
1/2+x,1/2-y,-z
1/2-x,1/2+y,-z
1/2-x,1/2-y,-z
1/2+x,1/2+y,-z
1/2-x,1/2+y,z
1/2+x,1/2-y,z
loop_
_atom_site_type_symbol
_atom_site_label
_atom_site_fract_x
_atom_site_fract_y
_atom_site_fract_z
Si Si1 0.864554 0.086691 0.166512
Si Si2 0.500000 0.092647 0.891896
Si Si3 0.362928 0.306727 0.500000
Si Si4 0.760581 0.341014 0.936278
Si Si5 0.256329 0.908024 0.721533
Si Si6 0.866848 0.087684 0.390670
Si Si7 0.500000 0.908710 0.761363
O O1 0.833655 0.128892 0.108232
O O2 0.808404 0.126295 0.222613
O O3 0.000000 0.088194 0.175921
O O4 0.815213 0.000000 0.161046
O O5 0.611618 0.128713 0.921890
O O6 0.500000 0.121557 0.826282
O O7 0.500000 0.000000 0.897794
O O8 0.500000 0.273388 0.500000
O O9 0.250000 0.250000 0.500000
O O10 0.345076 0.359704 0.554882
O O11 0.750000 0.250000 0.933754
O O12 0.728704 0.370477 0.000000
O O13 0.204612 0.875841 0.662362
O O14 0.388917 0.879570 0.726041
O O15 0.241715 0.000000 0.721135
O O16 0.000000 0.087747 0.371690
O O17 0.826736 0.000000 0.405064
O O18 0.500000 0.000000 0.764821
#
# Coordination Sequence:
#
# PCOD8271938 Si02
#       7
#    16   8   8  16  16  16   8
#     4  10  20  35  57  82 109 142 181 228 283 346
#     4  11  21  40  67  88 108 146 202 245 283 348
#     4  10  21  39  59  81 117 158 196 234 282 334
#     4  11  25  40  56  79 112 148 186 237 296 348
#     4   9  16  30  53  84 115 140 178 233 289 334
#     4   9  17  32  59  88 112 144 191 239 279 331
#     4   9  16  29  54  84 114 142 175 233 291 333
#
# _framework density 18.883573999999999
#
# number of rings (size 3 to 8) (size 9 to 14) (size 15 to 20)
#    0.000    2.182    1.818    1.636    1.273    5.455 
#    1.636    1.818    0.000    0.545    0.000    0.000 
#    0.000    0.000    0.000    0.000    0.000    0.000 
#
# Total GULP energy -545352.390370 kJ/mol
# GULP energy per Si atom -12394.372508 kJ/mol
# Density = 1.884059 g / cm^3
# Si number density = 18.883574 Si / 1000 Ang^3
#
#
#
# Elastic Constant Matrix: (Units=GPa)
#
#
# Indices 1 2 3 4 5 6 
#
# 1 105.9437 36.4439 71.2190 0.0000 0.0000 0.0000
# 2 36.4439 48.8150 40.3239 0.0000 0.0000 0.0000
# 3 71.2190 40.3239 178.0799 0.0000 0.0000 0.0000
# 4 0.0000 0.0000 0.0000 -22.5399 0.0000 0.0000
# 5 0.0000 0.0000 0.0000 0.0000 38.2649 0.0000
# 6 0.0000 0.0000 0.0000 0.0000 0.0000 24.9013
#
#
#
# Elastic Compliance Matrix: (Units=1/GPa)
#
#
# Indices 1 2 3 4 5 6 
#
# 1 0.014912 -0.007635 -0.004235 0.000000 0.000000 0.000000
# 2 -0.007635 0.029108 -0.003538 0.000000 0.000000 0.000000
# 3 -0.004235 -0.003538 0.008110 0.000000 0.000000 0.000000
# 4 0.000000 0.000000 0.000000 -0.044366 0.000000 0.000000
# 5 0.000000 0.000000 0.000000 0.000000 0.026134 0.000000
# 6 0.000000 0.000000 0.000000 0.000000 0.000000 0.040159
#
#
# Mechanical properties :
#
#
# Convention : Reuss Voigt Hill
#
# Bulk Modulus (GPa) = 46.91477 69.86804 58.39141
# Shear Modulus (GPa) = 44.65221 20.44870 32.55045
#
# Velocity S-wave (km/s) = 4.86800 3.29429 4.15630
# Velocity P-wave (km/s) = 7.51629 7.17980 7.34997
#
# Compressibility (1/GPa) = 0.02131525
#
# Stress axis : x y z
#
# Youngs Moduli (GPa) = 67.05930 34.35516 123.30099
#
# Poissons Ratio (x) = 0.26229 0.52218
# Poissons Ratio (y) = 0.51197 0.43621
# Poissons Ratio (z) = 0.28400 0.12154
#
# Static dielectric constant tensor:
#      x y z
#    x 3.668680 0.000000 0.000000 
#    y 0.000000 3.200350 0.000000 
#    z 0.000000 0.000000 3.683040 
# 
# 
# High freq. dielectric constant tensor:
#      x y z
#    x 1.741850 0.000000 0.000000 
#    y 0.000000 1.696260 0.000000 
#    z 0.000000 0.000000 1.748340 
# 
# From -- ./inp_files/61515.got.cif
#   From: 2010.03.12/outbox.cif.g09.slc.cpg/sg65_31_cif.got.tgz:61515.got - 2010.04.10 20:52:16.
