data_PCOD8271056
_publ_section_title
;
Structure prediction by ZEFSAII (Michael W. Deem and Ramdas Pophale) SiO2 
 PCOD8271056
Probable space group: C M M M
;
_chemical_formula_sum "Si O2"
_cell_formula_units_Z 56
_cell_length_a 9.099535
_cell_length_b 38.924252
_cell_length_c 9.379126
_cell_angle_alpha 90.000000
_cell_angle_beta 90.000000
_cell_angle_gamma 90.000000
_cell_volume 3322.016962
_symmetry_space_group_name_H-M "C M M M"
_symmetry_group_IT_number 65
_symmetry_cell_setting 'orthorhombic'
loop_
_space_group_symop_operation_xyz
x,y,z
-x,-y,z
x,-y,-z
-x,y,-z
-x,-y,-z
x,y,-z
-x,y,z
x,-y,z
1/2+x,1/2+y,z
1/2-x,1/2-y,z
1/2+x,1/2-y,-z
1/2-x,1/2+y,-z
1/2-x,1/2-y,-z
1/2+x,1/2+y,-z
1/2-x,1/2+y,z
1/2+x,1/2-y,z
loop_
_atom_site_type_symbol
_atom_site_label
_atom_site_fract_x
_atom_site_fract_y
_atom_site_fract_z
Si Si1 0.328670 0.784747 0.334578
Si Si2 0.331595 0.655908 0.831671
Si Si3 0.338426 0.909737 0.841446
Si Si4 0.500000 0.039892 0.332979
O O1 0.296966 0.792022 0.500000
O O2 0.500000 0.780740 0.302547
O O3 0.250000 0.750000 0.283861
O O4 0.265446 0.815979 0.245515
O O5 0.500000 0.660132 0.785240
O O6 0.277446 0.618078 0.782995
O O7 0.309997 0.660189 0.000000
O O8 0.500000 0.891803 0.848300
O O9 0.352775 0.942756 0.736020
O O10 0.291881 0.922413 0.000000
O O11 0.500000 0.046908 0.500000
O O12 0.500000 0.000000 0.295223
#
# Coordination Sequence:
#
# PCOD8271056 Si02
#       4
#    16  16  16   8
#     4  10  21  36  53  73  99 132 170 211 255 303
#     4  10  20  34  52  74 101 132 168 210 254 300
#     4   8  16  30  48  71  98 128 162 201 246 294
#     4   9  17  29  49  77 103 127 163 207 247 295
#
# _framework density 16.857230000000001
#
# number of rings (size 3 to 8) (size 9 to 14) (size 15 to 20)
#    0.857    1.857    0.000    1.714    0.000    6.286 
#    0.000    0.000    0.000    0.857    0.000    6.000 
#    0.000    0.000    0.000    0.000    0.000    0.000 
#
# Total GULP energy -347011.035233 kJ/mol
# GULP energy per Si atom -12393.251258 kJ/mol
# Density = 1.681886 g / cm^3
# Si number density = 16.857230 Si / 1000 Ang^3
#
#
#
# Elastic Constant Matrix: (Units=GPa)
#
#
# Indices 1 2 3 4 5 6 
#
# 1 78.3846 50.0676 34.4442 0.0000 0.0000 0.0000
# 2 50.0676 137.5184 70.1585 0.0000 0.0000 0.0000
# 3 34.4442 70.1585 66.8579 0.0000 0.0000 0.0000
# 4 0.0000 0.0000 0.0000 34.3325 0.0000 0.0000
# 5 0.0000 0.0000 0.0000 0.0000 19.5507 0.0000
# 6 0.0000 0.0000 0.0000 0.0000 0.0000 28.4099
#
#
#
# Elastic Compliance Matrix: (Units=1/GPa)
#
#
# Indices 1 2 3 4 5 6 
#
# 1 0.017359 -0.003783 -0.004974 0.000000 0.000000 0.000000
# 2 -0.003783 0.016475 -0.015339 0.000000 0.000000 0.000000
# 3 -0.004974 -0.015339 0.033616 0.000000 0.000000 0.000000
# 4 0.000000 0.000000 0.000000 0.029127 0.000000 0.000000
# 5 0.000000 0.000000 0.000000 0.000000 0.051149 0.000000
# 6 0.000000 0.000000 0.000000 0.000000 0.000000 0.035199
#
#
# Mechanical properties :
#
#
# Convention : Reuss Voigt Hill
#
# Bulk Modulus (GPa) = 51.92497 65.78905 58.85701
# Shear Modulus (GPa) = 21.04946 24.99800 23.02373
#
# Velocity S-wave (km/s) = 3.53751 3.85505 3.69969
# Velocity P-wave (km/s) = 6.89601 7.67640 7.29665
#
# Compressibility (1/GPa) = 0.01925856
#
# Stress axis : x y z
#
# Youngs Moduli (GPa) = 57.60564 60.69967 29.74776
#
# Poissons Ratio (x) = 0.22960 0.14796
# Poissons Ratio (y) = 0.21790 0.45630
# Poissons Ratio (z) = 0.28653 0.93108
#
# Static dielectric constant tensor:
#      x y z
#    x 3.187790 0.000000 0.000000 
#    y 0.000000 3.045180 0.000000 
#    z 0.000000 0.000000 3.097380 
# 
# 
# High freq. dielectric constant tensor:
#      x y z
#    x 1.638320 0.000000 0.000000 
#    y 0.000000 1.642190 0.000000 
#    z 0.000000 0.000000 1.647640 
# 
# From -- ./inp_files/20473.got.cif
#   From: 2010.03.12/outbox.cif.g09.slc.cpg/sg65_11_cif.got.tgz:20473.got - 2010.04.10 20:52:16.
