data_PCOD8271349
_publ_section_title
;
Structure prediction by ZEFSAII (Michael W. Deem and Ramdas Pophale) SiO2 
 PCOD8271349
Probable space group: C M M M
;
_chemical_formula_sum "Si O2"
_cell_formula_units_Z 104
_cell_length_a 8.922698
_cell_length_b 18.314667
_cell_length_c 33.552009
_cell_angle_alpha 90.000000
_cell_angle_beta 90.000000
_cell_angle_gamma 90.000000
_cell_volume 5482.943243
_symmetry_space_group_name_H-M "C M M M"
_symmetry_group_IT_number 65
_symmetry_cell_setting 'orthorhombic'
loop_
_space_group_symop_operation_xyz
x,y,z
-x,-y,z
x,-y,-z
-x,y,-z
-x,-y,-z
x,y,-z
-x,y,z
x,-y,z
1/2+x,1/2+y,z
1/2-x,1/2-y,z
1/2+x,1/2-y,-z
1/2-x,1/2+y,-z
1/2-x,1/2-y,-z
1/2+x,1/2+y,-z
1/2-x,1/2+y,z
1/2+x,1/2-y,z
loop_
_atom_site_type_symbol
_atom_site_label
_atom_site_fract_x
_atom_site_fract_y
_atom_site_fract_z
Si Si1 0.330234 0.914262 0.545151
Si Si2 0.825532 0.328093 0.689104
Si Si3 0.823787 0.171022 0.612607
Si Si4 0.678287 0.582226 0.000000
Si Si5 0.674117 0.171621 0.222674
Si Si6 0.675164 0.584114 0.154363
Si Si7 0.177412 0.828837 0.076362
O O1 0.296434 0.889206 0.500000
O O2 0.500000 0.892307 0.556852
O O3 0.212220 0.875796 0.573779
O O4 0.307970 0.000000 0.549223
O O5 0.750000 0.250000 0.690971
O O6 0.743836 0.369692 0.652318
O O7 0.800082 0.362536 0.732948
O O8 0.000000 0.321324 0.678978
O O9 0.750000 0.250000 0.607674
O O10 0.000000 0.179027 0.617319
O O11 0.737028 0.624613 0.038914
O O12 0.743772 0.500000 0.000000
O O13 0.500000 0.578752 0.000000
O O14 0.500000 0.183962 0.214212
O O15 0.750000 0.250000 0.216455
O O16 0.738191 0.111969 0.192898
O O17 0.500000 0.594719 0.161983
O O18 0.715898 0.500000 0.146832
O O19 0.728968 0.629553 0.116107
O O20 0.250000 0.750000 0.075466
O O21 0.000000 0.820021 0.074582
#
# Coordination Sequence:
#
# PCOD8271349 Si02
#       7
#    16  16  16   8  16  16  16
#     4   9  19  37  58  77 101 136 175 215 262 314
#     4   9  17  31  51  75 103 134 170 212 257 307
#     4  11  21  33  53  80 109 139 173 215 261 309
#     4   9  17  32  55  79 104 137 176 216 258 309
#     4  10  20  34  55  80 104 135 174 214 258 310
#     4  10  21  36  53  75 105 139 175 218 266 313
#     4  10  20  34  54  79 105 136 176 218 261 311
#
# _framework density 18.967915000000001
#
# number of rings (size 3 to 8) (size 9 to 14) (size 15 to 20)
#    0.000    2.231    0.000    4.846    0.000    6.769 
#    0.000    1.538    0.000    2.769    0.000    0.000 
#    0.000    0.000    0.000    0.000    0.000    0.000 
#
# Total GULP energy -644665.787059 kJ/mol
# GULP energy per Si atom -12397.418982 kJ/mol
# Density = 1.892474 g / cm^3
# Si number density = 18.967915 Si / 1000 Ang^3
#
#
#
# Elastic Constant Matrix: (Units=GPa)
#
#
# Indices 1 2 3 4 5 6 
#
# 1 96.6139 41.9485 65.4310 0.0000 0.0000 0.0000
# 2 41.9485 98.7559 67.4872 0.0000 0.0000 0.0000
# 3 65.4310 67.4872 165.6841 0.0000 0.0000 0.0000
# 4 0.0000 0.0000 0.0000 12.3700 0.0000 0.0000
# 5 0.0000 0.0000 0.0000 0.0000 26.3303 0.0000
# 6 0.0000 0.0000 0.0000 0.0000 0.0000 27.7584
#
#
#
# Elastic Compliance Matrix: (Units=1/GPa)
#
#
# Indices 1 2 3 4 5 6 
#
# 1 0.014817 -0.003180 -0.004556 0.000000 0.000000 0.000000
# 2 -0.003180 0.014714 -0.004738 0.000000 0.000000 0.000000
# 3 -0.004556 -0.004738 0.009765 0.000000 0.000000 0.000000
# 4 0.000000 0.000000 0.000000 0.080841 0.000000 0.000000
# 5 0.000000 0.000000 0.000000 0.000000 0.037979 0.000000
# 6 0.000000 0.000000 0.000000 0.000000 0.000000 0.036025
#
#
# Mechanical properties :
#
#
# Convention : Reuss Voigt Hill
#
# Bulk Modulus (GPa) = 69.69589 78.97636 74.33612
# Shear Modulus (GPa) = 22.33427 25.70421 24.01924
#
# Velocity S-wave (km/s) = 3.43516 3.68522 3.56238
# Velocity P-wave (km/s) = 7.24966 7.73531 7.49642
#
# Compressibility (1/GPa) = 0.01434805
#
# Stress axis : x y z
#
# Youngs Moduli (GPa) = 67.49090 67.96054 102.41152
#
# Poissons Ratio (x) = 0.21614 0.46658
# Poissons Ratio (y) = 0.21464 0.48518
# Poissons Ratio (z) = 0.30748 0.32197
#
# Static dielectric constant tensor:
#      x y z
#    x 3.424660 0.000000 0.000000 
#    y 0.000000 3.219840 0.000000 
#    z 0.000000 0.000000 4.173170 
# 
# 
# High freq. dielectric constant tensor:
#      x y z
#    x 1.730880 0.000000 0.000000 
#    y 0.000000 1.713290 0.000000 
#    z 0.000000 0.000000 1.761180 
# 
# From -- ./inp_files/76912.got.cif
#   From: 2010.03.12/outbox.cif.g09.slc.cpg/sg65_39_cif.got.tgz:76912.got - 2010.04.10 20:52:16.
