data_PCOD8271634
_publ_section_title
;
Structure prediction by ZEFSAII (Michael W. Deem and Ramdas Pophale) SiO2 
 PCOD8271634
Probable space group: C M M M
;
_chemical_formula_sum "Si O2"
_cell_formula_units_Z 72
_cell_length_a 21.925379
_cell_length_b 14.113962
_cell_length_c 12.724411
_cell_angle_alpha 90.000000
_cell_angle_beta 90.000000
_cell_angle_gamma 90.000000
_cell_volume 3937.619449
_symmetry_space_group_name_H-M "C M M M"
_symmetry_group_IT_number 65
_symmetry_cell_setting 'orthorhombic'
loop_
_space_group_symop_operation_xyz
x,y,z
-x,-y,z
x,-y,-z
-x,y,-z
-x,-y,-z
x,y,-z
-x,y,z
x,-y,z
1/2+x,1/2+y,z
1/2-x,1/2-y,z
1/2+x,1/2-y,-z
1/2-x,1/2+y,-z
1/2-x,1/2-y,-z
1/2+x,1/2+y,-z
1/2-x,1/2+y,z
1/2+x,1/2-y,z
loop_
_atom_site_type_symbol
_atom_site_label
_atom_site_fract_x
_atom_site_fract_y
_atom_site_fract_z
Si Si1 0.572110 0.235814 0.810186
Si Si2 0.072264 0.605018 0.000000
Si Si3 0.346471 0.218115 0.381834
Si Si4 0.159544 0.892104 0.116911
Si Si5 0.229113 0.109189 0.319340
O O1 0.500000 0.247006 0.806402
O O2 0.595646 0.207767 0.694482
O O3 0.600503 0.334918 0.845794
O O4 0.594049 0.157570 0.894385
O O5 0.101151 0.500000 0.000000
O O6 0.000000 0.599714 0.000000
O O7 0.367953 0.194894 0.500000
O O8 0.297417 0.140769 0.344112
O O9 0.318226 0.324057 0.381660
O O10 0.216849 0.876018 0.194720
O O11 0.137660 0.000000 0.119693
O O12 0.180711 0.861947 0.000000
O O13 0.219327 0.000000 0.353794
#
# Coordination Sequence:
#
# PCOD8271634 Si02
#       5
#    16   8  16  16  16
#     4  10  20  35  53  76 106 139 175 215 259 305
#     4   9  18  34  53  70  95 133 174 212 250 297
#     4  10  21  35  52  78 105 136 179 217 257 310
#     4   9  17  31  53  81 111 138 166 206 260 320
#     4   9  18  34  54  77 105 137 173 215 263 311
#
# _framework density 18.285160999999999
#
# number of rings (size 3 to 8) (size 9 to 14) (size 15 to 20)
#    0.000    2.556    1.111    1.333    0.000    3.556 
#    2.000    3.333    0.000    0.000    0.000   10.889 
#    0.000    0.000    0.000    0.000    0.000    0.000 
#
# Total GULP energy -446306.822663 kJ/mol
# GULP energy per Si atom -12397.411741 kJ/mol
# Density = 1.824354 g / cm^3
# Si number density = 18.285161 Si / 1000 Ang^3
#
#
#
# Elastic Constant Matrix: (Units=GPa)
#
#
# Indices 1 2 3 4 5 6 
#
# 1 34.1257 28.8095 56.1454 0.0000 0.0000 0.0000
# 2 28.8095 95.8420 47.1001 0.0000 0.0000 0.0000
# 3 56.1454 47.1001 178.5769 0.0000 0.0000 0.0000
# 4 0.0000 0.0000 0.0000 20.5008 0.0000 0.0000
# 5 0.0000 0.0000 0.0000 0.0000 22.7528 0.0000
# 6 0.0000 0.0000 0.0000 0.0000 0.0000 17.9782
#
#
#
# Elastic Compliance Matrix: (Units=1/GPa)
#
#
# Indices 1 2 3 4 5 6 
#
# 1 0.070805 -0.011884 -0.019127 0.000000 0.000000 0.000000
# 2 -0.011884 0.013982 0.000048 0.000000 0.000000 0.000000
# 3 -0.019127 0.000048 0.011601 0.000000 0.000000 0.000000
# 4 0.000000 0.000000 0.000000 0.048779 0.000000 0.000000
# 5 0.000000 0.000000 0.000000 0.000000 0.043951 0.000000
# 6 0.000000 0.000000 0.000000 0.000000 0.000000 0.055623
#
#
# Mechanical properties :
#
#
# Convention : Reuss Voigt Hill
#
# Bulk Modulus (GPa) = 29.01666 63.62830 46.32248
# Shear Modulus (GPa) = 15.71579 24.01234 19.86406
#
# Velocity S-wave (km/s) = 2.93487 3.62776 3.29956
# Velocity P-wave (km/s) = 5.23336 7.24023 6.31700
#
# Compressibility (1/GPa) = 0.03446296
#
# Stress axis : x y z
#
# Youngs Moduli (GPa) = 14.12339 71.51943 86.20232
#
# Poissons Ratio (x) = 0.84992 1.64878
# Poissons Ratio (y) = 0.16784 -0.00418
# Poissons Ratio (z) = 0.27014 -0.00347
#
# Static dielectric constant tensor:
#      x y z
#    x 2.996340 0.000000 0.000000 
#    y 0.000000 3.528860 0.000000 
#    z 0.000000 0.000000 3.622910 
# 
# 
# High freq. dielectric constant tensor:
#      x y z
#    x 1.675150 0.000000 0.000000 
#    y 0.000000 1.713680 0.000000 
#    z 0.000000 0.000000 1.721140 
# 
# From -- ./inp_files/24486.got.cif
#   From: 2010.03.12/outbox.cif.g09.slc.cpg/sg65_13_cif.got.tgz:24486.got - 2010.04.10 20:52:16.
