data_PCOD8271720
_publ_section_title
;
Structure prediction by ZEFSAII (Michael W. Deem and Ramdas Pophale) SiO2 
 PCOD8271720
Probable space group: C M M M
;
_chemical_formula_sum "Si O2"
_cell_formula_units_Z 88
_cell_length_a 17.928471
_cell_length_b 8.997188
_cell_length_c 28.472223
_cell_angle_alpha 90.000000
_cell_angle_beta 90.000000
_cell_angle_gamma 90.000000
_cell_volume 4592.735396
_symmetry_space_group_name_H-M "C M M M"
_symmetry_group_IT_number 65
_symmetry_cell_setting 'orthorhombic'
loop_
_space_group_symop_operation_xyz
x,y,z
-x,-y,z
x,-y,-z
-x,y,-z
-x,-y,-z
x,y,-z
-x,y,z
x,-y,z
1/2+x,1/2+y,z
1/2-x,1/2-y,z
1/2+x,1/2-y,-z
1/2-x,1/2+y,-z
1/2-x,1/2-y,-z
1/2+x,1/2+y,-z
1/2-x,1/2+y,z
1/2+x,1/2-y,z
loop_
_atom_site_type_symbol
_atom_site_label
_atom_site_fract_x
_atom_site_fract_y
_atom_site_fract_z
Si Si1 0.588906 0.333243 0.191380
Si Si2 0.911462 0.332178 0.283332
Si Si3 0.410661 0.832706 0.899453
Si Si4 0.170963 0.175785 0.365727
Si Si5 0.081970 0.676844 0.000000
Si Si6 0.914223 0.329330 0.445715
O O1 0.500000 0.329238 0.190585
O O2 0.618856 0.500000 0.197939
O O3 0.619169 0.233961 0.234338
O O4 0.620628 0.270475 0.142170
O O5 0.880948 0.500000 0.288945
O O6 0.885129 0.229656 0.325731
O O7 0.000000 0.330983 0.283759
O O8 0.500000 0.828042 0.901644
O O9 0.378418 0.776475 0.950540
O O10 0.383811 0.000000 0.888841
O O11 0.250000 0.250000 0.356614
O O12 0.139092 0.222698 0.416263
O O13 0.179256 0.000000 0.364025
O O14 0.074235 0.500000 0.000000
O O15 0.000000 0.749859 0.000000
O O16 0.893987 0.306044 0.500000
O O17 0.900421 0.500000 0.430785
O O18 0.000000 0.286509 0.436278
#
# Coordination Sequence:
#
# PCOD8271720 Si02
#       6
#    16  16  16  16   8  16
#     4   9  16  25  38  59  86 115 152 199 247 295
#     4  10  20  35  55  76  99 130 169 212 258 308
#     4   8  12  19  31  47  70 104 147 192 238 289
#     4  12  25  39  56  79 109 142 175 213 257 305
#     4   7  10  16  27  43  65  99 144 189 232 285
#     4   9  19  38  63  88 114 144 177 213 253 298
#
# _framework density 19.160693999999999
#
# number of rings (size 3 to 8) (size 9 to 14) (size 15 to 20)
#    0.000    2.636    0.000    4.909    0.000    6.545 
#    0.000    1.364    0.000    2.727    0.000    0.000 
#    0.000    0.000    0.000    0.818    0.000   11.273 
#
# Total GULP energy -545371.958212 kJ/mol
# GULP energy per Si atom -12394.817232 kJ/mol
# Density = 1.911708 g / cm^3
# Si number density = 19.160694 Si / 1000 Ang^3
#
#
#
# Elastic Constant Matrix: (Units=GPa)
#
#
# Indices 1 2 3 4 5 6 
#
# 1 17.9661 21.6870 17.3547 0.0000 0.0000 0.0000
# 2 21.6870 133.3653 60.2031 0.0000 0.0000 0.0000
# 3 17.3547 60.2031 134.2584 0.0000 0.0000 0.0000
# 4 0.0000 0.0000 0.0000 21.7134 0.0000 0.0000
# 5 0.0000 0.0000 0.0000 0.0000 0.2045 0.0000
# 6 0.0000 0.0000 0.0000 0.0000 0.0000 17.8782
#
#
#
# Elastic Compliance Matrix: (Units=1/GPa)
#
#
# Indices 1 2 3 4 5 6 
#
# 1 0.071916 -0.009401 -0.005081 0.000000 0.000000 0.000000
# 2 -0.009401 0.010630 -0.003551 0.000000 0.000000 0.000000
# 3 -0.005081 -0.003551 0.009698 0.000000 0.000000 0.000000
# 4 0.000000 0.000000 0.000000 0.046054 0.000000 0.000000
# 5 0.000000 0.000000 0.000000 0.000000 4.889609 0.000000
# 6 0.000000 0.000000 0.000000 0.000000 0.000000 0.055934
#
#
# Mechanical properties :
#
#
# Convention : Reuss Voigt Hill
#
# Bulk Modulus (GPa) = 17.80068 53.78661 35.79365
# Shear Modulus (GPa) = 0.97302 20.38221 10.67761
#
# Velocity S-wave (km/s) = 0.71339 3.26506 2.36321
# Velocity P-wave (km/s) = 3.16053 6.50741 5.11543
#
# Compressibility (1/GPa) = 0.05617762
#
# Stress axis : x y z
#
# Youngs Moduli (GPa) = 13.90507 94.07218 103.11850
#
# Poissons Ratio (x) = 0.88438 0.52390
# Poissons Ratio (y) = 0.13072 0.36622
# Poissons Ratio (z) = 0.07065 0.33409
#
# Static dielectric constant tensor:
#      x y z
#    x 2.920580 0.000000 0.000000 
#    y 0.000000 3.527120 0.000000 
#    z 0.000000 0.000000 3.900040 
# 
# 
# High freq. dielectric constant tensor:
#      x y z
#    x 1.679300 0.000000 0.000000 
#    y 0.000000 1.739180 0.000000 
#    z 0.000000 0.000000 1.770800 
# 
# From -- ./inp_files/77889.got.cif
#   From: 2010.03.12/outbox.cif.g09.slc.cpg/sg65_39_cif.got.tgz:77889.got - 2010.04.10 20:52:16.
