data_PCOD8271529
_publ_section_title
;
Structure prediction by ZEFSAII (Michael W. Deem and Ramdas Pophale) SiO2 
 PCOD8271529
Probable space group: C M M M
;
_chemical_formula_sum "Si O2"
_cell_formula_units_Z 72
_cell_length_a 26.404907
_cell_length_b 9.343200
_cell_length_c 16.090048
_cell_angle_alpha 90.000000
_cell_angle_beta 90.000000
_cell_angle_gamma 90.000000
_cell_volume 3969.516645
_symmetry_space_group_name_H-M "C M M M"
_symmetry_group_IT_number 65
_symmetry_cell_setting 'orthorhombic'
loop_
_space_group_symop_operation_xyz
x,y,z
-x,-y,z
x,-y,-z
-x,y,-z
-x,-y,-z
x,y,-z
-x,y,z
x,-y,z
1/2+x,1/2+y,z
1/2-x,1/2-y,z
1/2+x,1/2-y,-z
1/2-x,1/2+y,-z
1/2-x,1/2-y,-z
1/2+x,1/2+y,-z
1/2-x,1/2+y,z
1/2+x,1/2-y,z
loop_
_atom_site_type_symbol
_atom_site_label
_atom_site_fract_x
_atom_site_fract_y
_atom_site_fract_z
Si Si1 0.197572 0.667816 0.000000
Si Si2 0.701205 0.836681 0.330786
Si Si3 0.442137 0.664672 0.745911
Si Si4 0.857431 0.332632 0.831939
Si Si5 0.404070 0.834343 0.405848
O O1 0.250000 0.750000 0.000000
O O2 0.164914 0.713218 0.079708
O O3 0.209741 0.500000 0.000000
O O4 0.750000 0.750000 0.359320
O O5 0.683986 0.793611 0.237853
O O6 0.655587 0.803967 0.394113
O O7 0.717772 0.000000 0.333905
O O8 0.500000 0.677479 0.775038
O O9 0.424986 0.500000 0.739233
O O10 0.408480 0.744007 0.815178
O O11 0.436629 0.736488 0.655389
O O12 0.871359 0.500000 0.828171
O O13 0.419540 0.797264 0.500000
O O14 0.415503 0.000000 0.384593
#
# Coordination Sequence:
#
# PCOD8271529 Si02
#       5
#     8  16  16  16  16
#     4  10  20  34  55  84 113 139 170 209 251 296
#     4   9  17  29  46  69  98 132 167 202 242 292
#     4  10  21  36  54  76 101 130 167 213 262 306
#     4   9  19  35  53  75 104 136 171 208 247 300
#     4   9  19  35  52  72 100 133 170 210 252 305
#
# _framework density 18.138228999999999
#
# number of rings (size 3 to 8) (size 9 to 14) (size 15 to 20)
#    0.000    2.667    0.000    2.667    0.000    7.556 
#    0.000    2.778    0.000    3.333    0.000    0.000 
#    0.000    0.000    0.000    0.000    0.000    0.000 
#
# Total GULP energy -446444.688459 kJ/mol
# GULP energy per Si atom -12401.241346 kJ/mol
# Density = 1.809695 g / cm^3
# Si number density = 18.138229 Si / 1000 Ang^3
#
#
#
# Elastic Constant Matrix: (Units=GPa)
#
#
# Indices 1 2 3 4 5 6 
#
# 1 95.0674 56.9513 34.7190 0.0000 0.0000 0.0000
# 2 56.9513 83.5446 39.5391 0.0000 0.0000 0.0000
# 3 34.7190 39.5391 105.9306 0.0000 0.0000 0.0000
# 4 0.0000 0.0000 0.0000 18.0837 0.0000 0.0000
# 5 0.0000 0.0000 0.0000 0.0000 13.5631 0.0000
# 6 0.0000 0.0000 0.0000 0.0000 0.0000 36.2409
#
#
#
# Elastic Compliance Matrix: (Units=1/GPa)
#
#
# Indices 1 2 3 4 5 6 
#
# 1 0.018001 -0.011512 -0.001603 0.000000 0.000000 0.000000
# 2 -0.011512 0.021900 -0.004401 0.000000 0.000000 0.000000
# 3 -0.001603 -0.004401 0.011608 0.000000 0.000000 0.000000
# 4 0.000000 0.000000 0.000000 0.055298 0.000000 0.000000
# 5 0.000000 0.000000 0.000000 0.000000 0.073730 0.000000
# 6 0.000000 0.000000 0.000000 0.000000 0.000000 0.027593
#
#
# Mechanical properties :
#
#
# Convention : Reuss Voigt Hill
#
# Bulk Modulus (GPa) = 60.69161 60.77351 60.73256
# Shear Modulus (GPa) = 20.10813 23.79975 21.95394
#
# Velocity S-wave (km/s) = 3.33318 3.62627 3.48281
# Velocity P-wave (km/s) = 6.95318 7.14924 7.05189
#
# Compressibility (1/GPa) = 0.01647674
#
# Stress axis : x y z
#
# Youngs Moduli (GPa) = 55.55300 45.66108 86.14575
#
# Poissons Ratio (x) = 0.52567 0.13807
# Poissons Ratio (y) = 0.63955 0.37915
# Poissons Ratio (z) = 0.08904 0.20097
#
# Static dielectric constant tensor:
#      x y z
#    x 3.187430 0.000000 0.000000 
#    y 0.000000 3.321370 0.000000 
#    z 0.000000 0.000000 3.421870 
# 
# 
# High freq. dielectric constant tensor:
#      x y z
#    x 1.698220 0.000000 0.000000 
#    y 0.000000 1.700590 0.000000 
#    z 0.000000 0.000000 1.696430 
# 
# From -- ./inp_files/36570.got.cif
#   From: 2010.03.12/outbox.cif.g09.slc.cpg/sg65_19_cif.got.tgz:36570.got - 2010.04.10 20:52:16.
