data_PCOD8271833
_publ_section_title
;
Structure prediction by ZEFSAII (Michael W. Deem and Ramdas Pophale) SiO2 
 PCOD8271833
Probable space group: C M M M
;
_chemical_formula_sum "Si O2"
_cell_formula_units_Z 104
_cell_length_a 25.442909
_cell_length_b 8.737386
_cell_length_c 25.996614
_cell_angle_alpha 90.000000
_cell_angle_beta 90.000000
_cell_angle_gamma 90.000000
_cell_volume 5779.164716
_symmetry_space_group_name_H-M "C M M M"
_symmetry_group_IT_number 65
_symmetry_cell_setting 'orthorhombic'
loop_
_space_group_symop_operation_xyz
x,y,z
-x,-y,z
x,-y,-z
-x,y,-z
-x,-y,-z
x,y,-z
-x,y,z
x,-y,z
1/2+x,1/2+y,z
1/2-x,1/2-y,z
1/2+x,1/2-y,-z
1/2-x,1/2+y,-z
1/2-x,1/2-y,-z
1/2+x,1/2+y,-z
1/2-x,1/2+y,z
1/2+x,1/2-y,z
loop_
_atom_site_type_symbol
_atom_site_label
_atom_site_fract_x
_atom_site_fract_y
_atom_site_fract_z
Si Si1 0.304987 0.180164 0.672354
Si Si2 0.440752 0.818310 0.500000
Si Si3 0.603687 0.177632 0.844901
Si Si4 0.805666 0.819352 0.218801
Si Si5 0.000000 0.179028 0.671637
Si Si6 0.594335 0.179699 0.390524
Si Si7 0.939487 0.177218 0.058219
Si Si8 0.000000 0.322442 0.218509
O O1 0.250000 0.250000 0.653458
O O2 0.323317 0.251962 0.726247
O O3 0.347651 0.221389 0.629096
O O4 0.298797 0.000000 0.680280
O O5 0.500000 0.752962 0.500000
O O6 0.410936 0.758726 0.449010
O O7 0.442066 0.000000 0.500000
O O8 0.651424 0.276916 0.823419
O O9 0.596052 0.219796 0.904584
O O10 0.550926 0.220483 0.814495
O O11 0.617725 0.000000 0.839535
O O12 0.750000 0.750000 0.201590
O O13 0.800203 0.000000 0.223616
O O14 0.052020 0.243470 0.645829
O O15 0.000000 0.219515 0.731292
O O16 0.000000 0.000000 0.664621
O O17 0.583551 0.000000 0.387964
O O18 0.000000 0.227113 0.063769
O O19 0.932902 0.000000 0.073061
O O20 0.920243 0.206464 0.000000
O O21 0.000000 0.500000 0.234512
#
# Coordination Sequence:
#
# PCOD8271833 Si02
#       8
#    16   8  16  16   8  16  16   8
#     4  10  20  35  56  80 107 139 176 220 266 318
#     4   9  16  32  59  80  98 134 184 222 253 310
#     4  11  21  35  54  80 111 144 182 226 271 319
#     4  11  22  37  57  80 107 143 183 224 269 324
#     4  12  24  33  49  77 108 138 172 216 268 321
#     4  10  20  36  57  78 102 138 179 218 260 316
#     4   9  18  33  53  78 110 148 187 226 270 320
#     4  10  22  36  50  74 110 147 177 213 264 321
#
# _framework density 17.99568
#
# number of rings (size 3 to 8) (size 9 to 14) (size 15 to 20)
#    0.000    1.769    1.538    5.308    0.000    6.462 
#    0.000    1.923    0.000    0.462    0.000    0.000 
#    0.000    0.000    0.000    0.000    0.000    0.000 
#
# Total GULP energy -644959.419909 kJ/mol
# GULP energy per Si atom -12403.065767 kJ/mol
# Density = 1.795472 g / cm^3
# Si number density = 17.995680 Si / 1000 Ang^3
#
#
#
# Elastic Constant Matrix: (Units=GPa)
#
#
# Indices 1 2 3 4 5 6 
#
# 1 111.2526 49.6940 67.7392 0.0000 0.0000 0.0000
# 2 49.6940 76.6649 37.5677 0.0000 0.0000 0.0000
# 3 67.7392 37.5677 123.1092 0.0000 0.0000 0.0000
# 4 0.0000 0.0000 0.0000 15.9458 0.0000 0.0000
# 5 0.0000 0.0000 0.0000 0.0000 34.9963 0.0000
# 6 0.0000 0.0000 0.0000 0.0000 0.0000 22.0658
#
#
#
# Elastic Compliance Matrix: (Units=1/GPa)
#
#
# Indices 1 2 3 4 5 6 
#
# 1 0.016377 -0.007290 -0.006787 0.000000 0.000000 0.000000
# 2 -0.007290 0.018582 -0.001659 0.000000 0.000000 0.000000
# 3 -0.006787 -0.001659 0.012364 0.000000 0.000000 0.000000
# 4 0.000000 0.000000 0.000000 0.062712 0.000000 0.000000
# 5 0.000000 0.000000 0.000000 0.000000 0.028574 0.000000
# 6 0.000000 0.000000 0.000000 0.000000 0.000000 0.045319
#
#
# Mechanical properties :
#
#
# Convention : Reuss Voigt Hill
#
# Bulk Modulus (GPa) = 63.08783 69.00316 66.04549
# Shear Modulus (GPa) = 22.65683 25.00331 23.83007
#
# Velocity S-wave (km/s) = 3.55211 3.73152 3.64292
# Velocity P-wave (km/s) = 7.20809 7.54938 7.38071
#
# Compressibility (1/GPa) = 0.01585092
#
# Stress axis : x y z
#
# Youngs Moduli (GPa) = 61.06107 53.81502 80.88317
#
# Poissons Ratio (x) = 0.39231 0.54893
# Poissons Ratio (y) = 0.44513 0.13421
# Poissons Ratio (z) = 0.41440 0.08930
#
# Static dielectric constant tensor:
#      x y z
#    x 3.230230 0.000000 0.000000 
#    y 0.000000 3.267690 0.000000 
#    z 0.000000 0.000000 3.429290 
# 
# 
# High freq. dielectric constant tensor:
#      x y z
#    x 1.690450 0.000000 0.000000 
#    y 0.000000 1.695360 0.000000 
#    z 0.000000 0.000000 1.698090 
# 
# From -- ./inp_files/71933.got.cif
#   From: 2010.03.12/outbox.cif.g09.slc.cpg/sg65_36_cif.got.tgz:71933.got - 2010.04.10 20:52:16.
