data_PCOD8271613
_publ_section_title
;
Structure prediction by ZEFSAII (Michael W. Deem and Ramdas Pophale) SiO2 
 PCOD8271613
Probable space group: C M M M
;
_chemical_formula_sum "Si O2"
_cell_formula_units_Z 120
_cell_length_a 13.438274
_cell_length_b 23.457564
_cell_length_c 21.366549
_cell_angle_alpha 90.000000
_cell_angle_beta 90.000000
_cell_angle_gamma 90.000000
_cell_volume 6735.359558
_symmetry_space_group_name_H-M "C M M M"
_symmetry_group_IT_number 65
_symmetry_cell_setting 'orthorhombic'
loop_
_space_group_symop_operation_xyz
x,y,z
-x,-y,z
x,-y,-z
-x,y,-z
-x,-y,-z
x,y,-z
-x,y,z
x,-y,z
1/2+x,1/2+y,z
1/2-x,1/2-y,z
1/2+x,1/2-y,-z
1/2-x,1/2+y,-z
1/2-x,1/2-y,-z
1/2+x,1/2+y,-z
1/2-x,1/2+y,z
1/2+x,1/2-y,z
loop_
_atom_site_type_symbol
_atom_site_label
_atom_site_fract_x
_atom_site_fract_y
_atom_site_fract_z
Si Si1 0.386808 0.565284 0.868303
Si Si2 0.758104 0.835587 0.326841
Si Si3 0.886942 0.259946 0.728918
Si Si4 0.115954 0.500000 0.432625
Si Si5 0.224619 0.835130 0.927930
Si Si6 0.888550 0.736863 0.871511
Si Si7 0.614960 0.875809 0.574411
Si Si8 0.886595 0.934281 0.722925
O O1 0.500000 0.577391 0.889424
O O2 0.358734 0.500000 0.880902
O O3 0.311456 0.602394 0.908949
O O4 0.374824 0.580363 0.795648
O O5 0.841740 0.786247 0.320001
O O6 0.671864 0.820003 0.276550
O O7 0.698197 0.835514 0.393146
O O8 0.809276 0.896295 0.315575
O O9 0.875524 0.239882 0.800641
O O10 0.000000 0.269669 0.709628
O O11 0.171309 0.500000 0.500000
O O12 0.140403 0.560123 0.398740
O O13 0.000000 0.500000 0.446326
O O14 0.136796 0.789470 0.916865
O O15 0.318935 0.817166 0.885878
O O16 0.256155 0.835211 0.000000
O O17 0.000000 0.716193 0.883924
O O18 0.629525 0.872499 0.500000
O O19 0.500000 0.859022 0.591279
O O20 0.000000 0.921022 0.701969
O O21 0.860916 0.000000 0.709275
#
# Coordination Sequence:
#
# PCOD8271613 Si02
#       8
#    16  16  16   8  16  16  16  16
#     4   9  18  33  51  71 100 136 167 199 247 302
#     4  11  19  30  54  76 100 131 167 209 249 297
#     4  10  21  35  51  74 100 131 168 209 253 301
#     4   7  12  26  46  66  93 129 163 197 237 278
#     4  11  21  31  48  75 101 125 164 213 250 291
#     4  10  20  35  53  70  97 132 163 202 259 310
#     4   9  18  32  50  74 105 138 171 207 246 292
#     4   9  18  32  51  76 103 130 163 205 251 302
#
# _framework density 17.816420000000001
#
# number of rings (size 3 to 8) (size 9 to 14) (size 15 to 20)
#    0.000    2.333    0.000    6.800    0.933    4.267 
#    0.000    2.000    0.000    2.800    0.000    5.600 
#    0.000    0.000    0.000    0.000    0.000    0.000 
#
# Total GULP energy -743428.059944 kJ/mol
# GULP energy per Si atom -12390.467666 kJ/mol
# Density = 1.777587 g / cm^3
# Si number density = 17.816420 Si / 1000 Ang^3
#
#
#
# Elastic Constant Matrix: (Units=GPa)
#
#
# Indices 1 2 3 4 5 6 
#
# 1 125.1587 54.4973 40.6331 0.0000 0.0000 0.0000
# 2 54.4973 79.3499 31.3187 0.0000 0.0000 0.0000
# 3 40.6331 31.3187 61.3329 0.0000 0.0000 0.0000
# 4 0.0000 0.0000 0.0000 4.3616 0.0000 0.0000
# 5 0.0000 0.0000 0.0000 0.0000 21.3207 0.0000
# 6 0.0000 0.0000 0.0000 0.0000 0.0000 29.0201
#
#
#
# Elastic Compliance Matrix: (Units=1/GPa)
#
#
# Indices 1 2 3 4 5 6 
#
# 1 0.012459 -0.006637 -0.004865 0.000000 0.000000 0.000000
# 2 -0.006637 0.019319 -0.005468 0.000000 0.000000 0.000000
# 3 -0.004865 -0.005468 0.022320 0.000000 0.000000 0.000000
# 4 0.000000 0.000000 0.000000 0.229275 0.000000 0.000000
# 5 0.000000 0.000000 0.000000 0.000000 0.046903 0.000000
# 6 0.000000 0.000000 0.000000 0.000000 0.000000 0.034459
#
#
# Mechanical properties :
#
#
# Convention : Reuss Voigt Hill
#
# Bulk Modulus (GPa) = 49.60859 57.63775 53.62317
# Shear Modulus (GPa) = 12.33372 20.23332 16.28352
#
# Velocity S-wave (km/s) = 2.63395 3.37360 3.02646
# Velocity P-wave (km/s) = 6.09549 6.89899 6.50965
#
# Compressibility (1/GPa) = 0.02015780
#
# Stress axis : x y z
#
# Youngs Moduli (GPa) = 80.26243 51.76371 44.80318
#
# Poissons Ratio (x) = 0.34354 0.21798
# Poissons Ratio (y) = 0.53267 0.24498
# Poissons Ratio (z) = 0.39050 0.28304
#
# Static dielectric constant tensor:
#      x y z
#    x 3.307960 0.000000 0.000000 
#    y 0.000000 3.376540 0.000000 
#    z 0.000000 0.000000 3.125530 
# 
# 
# High freq. dielectric constant tensor:
#      x y z
#    x 1.686710 0.000000 0.000000 
#    y 0.000000 1.684010 0.000000 
#    z 0.000000 0.000000 1.666950 
# 
# From -- ./inp_files/63152.got.cif
#   From: 2010.03.12/outbox.cif.g09.slc.cpg/sg65_32_cif.got.tgz:63152.got - 2010.04.10 20:52:16.
