data_PCOD8271192
_publ_section_title
;
Structure prediction by ZEFSAII (Michael W. Deem and Ramdas Pophale) SiO2 
 PCOD8271192
Probable space group: C M M M
;
_chemical_formula_sum "Si O2"
_cell_formula_units_Z 104
_cell_length_a 9.104976
_cell_length_b 18.338083
_cell_length_c 33.288738
_cell_angle_alpha 90.000000
_cell_angle_beta 90.000000
_cell_angle_gamma 90.000000
_cell_volume 5558.147535
_symmetry_space_group_name_H-M "C M M M"
_symmetry_group_IT_number 65
_symmetry_cell_setting 'orthorhombic'
loop_
_space_group_symop_operation_xyz
x,y,z
-x,-y,z
x,-y,-z
-x,y,-z
-x,-y,-z
x,y,-z
-x,y,z
x,-y,z
1/2+x,1/2+y,z
1/2-x,1/2-y,z
1/2+x,1/2-y,-z
1/2-x,1/2+y,-z
1/2-x,1/2-y,-z
1/2+x,1/2+y,-z
1/2-x,1/2+y,z
1/2+x,1/2-y,z
loop_
_atom_site_type_symbol
_atom_site_label
_atom_site_fract_x
_atom_site_fract_y
_atom_site_fract_z
Si Si1 0.825782 0.672533 0.734694
Si Si2 0.325814 0.918354 0.810929
Si Si3 0.327798 0.416453 0.577142
Si Si4 0.668509 0.583753 0.953416
Si Si5 0.326035 0.827121 0.887673
Si Si6 0.827745 0.416576 0.657054
Si Si7 0.825971 0.172907 0.500000
O O1 0.750000 0.750000 0.736562
O O2 0.768038 0.625127 0.772170
O O3 0.775012 0.631712 0.694372
O O4 0.000000 0.682736 0.736267
O O5 0.500000 0.922747 0.809598
O O6 0.272874 0.877751 0.851028
O O7 0.259081 0.000000 0.810622
O O8 0.500000 0.407961 0.583469
O O9 0.283117 0.500000 0.569222
O O10 0.249971 0.386201 0.617101
O O11 0.272251 0.370542 0.539201
O O12 0.500000 0.599897 0.941684
O O13 0.707843 0.500000 0.943976
O O14 0.776235 0.635821 0.928964
O O15 0.694635 0.600890 0.000000
O O16 0.500000 0.816342 0.888329
O O17 0.250000 0.750000 0.882084
O O18 0.781209 0.500000 0.665578
O O19 0.000000 0.409984 0.650384
O O20 0.750000 0.250000 0.500000
O O21 0.000000 0.182246 0.500000
#
# Coordination Sequence:
#
# PCOD8271192 Si02
#       7
#    16  16  16  16  16  16   8
#     4  10  20  34  53  76 105 138 169 206 252 303
#     4   9  18  34  56  79 102 133 175 218 259 306
#     4   9  18  34  55  75  97 129 168 209 251 296
#     4   9  19  37  59  81 107 140 177 218 265 316
#     4  11  22  35  54  80 110 142 177 219 265 314
#     4   9  18  33  53  76 100 130 170 210 248 294
#     4  10  21  35  51  73 101 132 166 204 250 304
#
# _framework density 18.711271
#
# number of rings (size 3 to 8) (size 9 to 14) (size 15 to 20)
#    0.000    2.462    0.000    2.538    0.000    6.154 
#    0.000    4.615    0.000    5.538    0.000    0.000 
#    0.000    0.000    0.000    0.000    0.000    0.000 
#
# Total GULP energy -644924.369456 kJ/mol
# GULP energy per Si atom -12402.391720 kJ/mol
# Density = 1.866868 g / cm^3
# Si number density = 18.711271 Si / 1000 Ang^3
#
#
#
# Elastic Constant Matrix: (Units=GPa)
#
#
# Indices 1 2 3 4 5 6 
#
# 1 42.1189 44.5984 45.7659 0.0000 0.0000 0.0000
# 2 44.5984 149.0679 92.8992 0.0000 0.0000 0.0000
# 3 45.7659 92.8992 156.2007 0.0000 0.0000 0.0000
# 4 0.0000 0.0000 0.0000 21.8600 0.0000 0.0000
# 5 0.0000 0.0000 0.0000 0.0000 26.9255 0.0000
# 6 0.0000 0.0000 0.0000 0.0000 0.0000 26.1031
#
#
#
# Elastic Compliance Matrix: (Units=1/GPa)
#
#
# Indices 1 2 3 4 5 6 
#
# 1 0.039231 -0.007267 -0.007172 0.000000 0.000000 0.000000
# 2 -0.007267 0.012005 -0.005011 0.000000 0.000000 0.000000
# 3 -0.007172 -0.005011 0.011484 0.000000 0.000000 0.000000
# 4 0.000000 0.000000 0.000000 0.045746 0.000000 0.000000
# 5 0.000000 0.000000 0.000000 0.000000 0.037139 0.000000
# 6 0.000000 0.000000 0.000000 0.000000 0.000000 0.038310
#
#
# Mechanical properties :
#
#
# Convention : Reuss Voigt Hill
#
# Bulk Modulus (GPa) = 41.98340 79.32381 60.65360
# Shear Modulus (GPa) = 21.66805 25.91935 23.79370
#
# Velocity S-wave (km/s) = 3.40666 3.72590 3.56985
# Velocity P-wave (km/s) = 6.16117 7.80996 7.03404
#
# Compressibility (1/GPa) = 0.02381894
#
# Stress axis : x y z
#
# Youngs Moduli (GPa) = 25.49023 83.29620 87.08129
#
# Poissons Ratio (x) = 0.60535 0.62456
# Poissons Ratio (y) = 0.18525 0.43634
# Poissons Ratio (z) = 0.18282 0.41738
#
# Static dielectric constant tensor:
#      x y z
#    x 3.191070 0.000000 0.000000 
#    y 0.000000 3.484620 0.000000 
#    z 0.000000 0.000000 3.636830 
# 
# 
# High freq. dielectric constant tensor:
#      x y z
#    x 1.703790 0.000000 0.000000 
#    y 0.000000 1.731370 0.000000 
#    z 0.000000 0.000000 1.741880 
# 
# From -- ./inp_files/76881.got.cif
#   From: 2010.03.12/outbox.cif.g09.slc.cpg/sg65_39_cif.got.tgz:76881.got - 2010.04.10 20:52:16.
