data_PCOD8271434
_publ_section_title
;
Structure prediction by ZEFSAII (Michael W. Deem and Ramdas Pophale) SiO2 
 PCOD8271434
Probable space group: C M M M
;
_chemical_formula_sum "Si O2"
_cell_formula_units_Z 72
_cell_length_a 8.858477
_cell_length_b 17.927270
_cell_length_c 23.328129
_cell_angle_alpha 90.000000
_cell_angle_beta 90.000000
_cell_angle_gamma 90.000000
_cell_volume 3704.700718
_symmetry_space_group_name_H-M "C M M M"
_symmetry_group_IT_number 65
_symmetry_cell_setting 'orthorhombic'
loop_
_space_group_symop_operation_xyz
x,y,z
-x,-y,z
x,-y,-z
-x,y,-z
-x,-y,-z
x,y,-z
-x,y,z
x,-y,z
1/2+x,1/2+y,z
1/2-x,1/2-y,z
1/2+x,1/2-y,-z
1/2-x,1/2+y,-z
1/2-x,1/2-y,-z
1/2+x,1/2+y,-z
1/2-x,1/2+y,z
1/2+x,1/2-y,z
loop_
_atom_site_type_symbol
_atom_site_label
_atom_site_fract_x
_atom_site_fract_y
_atom_site_fract_z
Si Si1 0.324473 0.587772 0.383906
Si Si2 0.330277 0.088643 0.062883
Si Si3 0.170634 0.088597 0.824658
Si Si4 0.829880 0.588573 0.500000
Si Si5 0.177892 0.669677 0.722112
O O1 0.500000 0.608007 0.381313
O O2 0.297382 0.500000 0.376147
O O3 0.258484 0.617172 0.444084
O O4 0.238035 0.629957 0.334300
O O5 0.500000 0.117780 0.074119
O O6 0.221313 0.119121 0.112861
O O7 0.329663 0.000000 0.063792
O O8 0.273776 0.116399 0.000000
O O9 0.281119 0.120851 0.777133
O O10 0.000000 0.115604 0.813161
O O11 0.182261 0.000000 0.821927
O O12 0.832627 0.500000 0.500000
O O13 0.000000 0.620683 0.500000
O O14 0.250000 0.750000 0.729002
O O15 0.000000 0.677501 0.717368
#
# Coordination Sequence:
#
# PCOD8271434 Si02
#       5
#    16  16  16   8  16
#     4  10  20  36  59  86 115 145 179 220 266 316
#     4   8  14  26  46  74 107 140 175 217 264 313
#     4  10  20  34  54  81 111 142 179 222 267 318
#     4   9  17  31  54  85 116 145 180 219 261 311
#     4  12  25  40  57  77 106 143 183 226 273 323
#
# _framework density 19.434768999999999
#
# number of rings (size 3 to 8) (size 9 to 14) (size 15 to 20)
#    0.000    2.111    0.000    5.000    0.000    7.111 
#    0.000    2.778    0.000    0.667    0.000    0.000 
#    0.000    0.000    0.000    0.000    0.000    0.000 
#
# Total GULP energy -446390.210547 kJ/mol
# GULP energy per Si atom -12399.728071 kJ/mol
# Density = 1.939053 g / cm^3
# Si number density = 19.434769 Si / 1000 Ang^3
#
#
#
# Elastic Constant Matrix: (Units=GPa)
#
#
# Indices 1 2 3 4 5 6 
#
# 1 87.6113 11.4579 24.7879 0.0000 0.0000 0.0000
# 2 11.4579 20.3616 15.3989 0.0000 0.0000 0.0000
# 3 24.7879 15.3989 134.8655 0.0000 0.0000 0.0000
# 4 0.0000 0.0000 0.0000 -10.1339 0.0000 0.0000
# 5 0.0000 0.0000 0.0000 0.0000 41.1441 0.0000
# 6 0.0000 0.0000 0.0000 0.0000 0.0000 24.8972
#
#
#
# Elastic Compliance Matrix: (Units=1/GPa)
#
#
# Indices 1 2 3 4 5 6 
#
# 1 0.012650 -0.005866 -0.001655 0.000000 0.000000 0.000000
# 2 -0.005866 0.056474 -0.005370 0.000000 0.000000 0.000000
# 3 -0.001655 -0.005370 0.008332 0.000000 0.000000 0.000000
# 4 0.000000 0.000000 0.000000 -0.098679 0.000000 0.000000
# 5 0.000000 0.000000 0.000000 0.000000 0.024305 0.000000
# 6 0.000000 0.000000 0.000000 0.000000 0.000000 0.040165
#
#
# Mechanical properties :
#
#
# Convention : Reuss Voigt Hill
#
# Bulk Modulus (GPa) = 19.35248 38.45865 28.90556
# Shear Modulus (GPa) = 57.96792 23.92773 40.94782
#
# Velocity S-wave (km/s) = 5.46733 3.51263 4.59512
# Velocity P-wave (km/s) = 7.05938 6.02353 6.56193
#
# Compressibility (1/GPa) = 0.05167297
#
# Stress axis : x y z
#
# Youngs Moduli (GPa) = 79.05423 17.70715 120.01704
#
# Poissons Ratio (x) = 0.10388 0.19864
# Poissons Ratio (y) = 0.46376 0.64449
# Poissons Ratio (z) = 0.13084 0.09509
#
# Static dielectric constant tensor:
#      x y z
#    x 3.747400 0.000000 0.000000 
#    y 0.000000 3.249060 0.000000 
#    z 0.000000 0.000000 1.017100 
# 
# 
# High freq. dielectric constant tensor:
#      x y z
#    x 1.768660 0.000000 0.000000 
#    y 0.000000 1.710660 0.000000 
#    z 0.000000 0.000000 1.779600 
# 
# From -- ./inp_files/72466.got.cif
#   From: 2010.03.12/outbox.cif.g09.slc.cpg/sg65_37_cif.got.tgz:72466.got - 2010.04.10 20:52:16.
