data_PCOD8271537
_publ_section_title
;
Structure prediction by ZEFSAII (Michael W. Deem and Ramdas Pophale) SiO2 
 PCOD8271537
Probable space group: C M M M
;
_chemical_formula_sum "Si O2"
_cell_formula_units_Z 104
_cell_length_a 28.999834
_cell_length_b 8.813824
_cell_length_c 20.337326
_cell_angle_alpha 90.000000
_cell_angle_beta 90.000000
_cell_angle_gamma 90.000000
_cell_volume 5198.208992
_symmetry_space_group_name_H-M "C M M M"
_symmetry_group_IT_number 65
_symmetry_cell_setting 'orthorhombic'
loop_
_space_group_symop_operation_xyz
x,y,z
-x,-y,z
x,-y,-z
-x,y,-z
-x,-y,-z
x,y,-z
-x,y,z
x,-y,z
1/2+x,1/2+y,z
1/2-x,1/2-y,z
1/2+x,1/2-y,-z
1/2-x,1/2+y,-z
1/2-x,1/2-y,-z
1/2+x,1/2+y,-z
1/2-x,1/2+y,z
1/2+x,1/2-y,z
loop_
_atom_site_type_symbol
_atom_site_label
_atom_site_fract_x
_atom_site_fract_y
_atom_site_fract_z
Si Si1 0.894048 0.677288 0.120105
Si Si2 0.864771 0.175927 0.573141
Si Si3 0.702438 0.179193 0.676787
Si Si4 0.202615 0.321895 0.826233
Si Si5 0.947327 0.179147 0.000000
Si Si6 0.947797 0.674595 0.626953
Si Si7 0.447011 0.673237 0.766047
O O1 0.898997 0.500000 0.104985
O O2 0.840019 0.724017 0.126458
O O3 0.919109 0.769330 0.063314
O O4 0.917900 0.715143 0.188657
O O5 0.843555 0.198264 0.500000
O O6 0.836695 0.262506 0.628664
O O7 0.915598 0.249981 0.571975
O O8 0.867443 0.000000 0.591565
O O9 0.750000 0.250000 0.651651
O O10 0.692238 0.233366 0.751557
O O11 0.705483 0.000000 0.671667
O O12 0.209709 0.500000 0.826257
O O13 0.250000 0.250000 0.853513
O O14 0.000000 0.244284 0.000000
O O15 0.949731 0.000000 0.000000
O O16 0.934374 0.500000 0.640076
O O17 0.940114 0.770036 0.692705
O O18 0.000000 0.687939 0.601544
O O19 0.500000 0.684372 0.788161
O O20 0.429461 0.500000 0.772211
#
# Coordination Sequence:
#
# PCOD8271537 Si02
#       7
#    16  16  16  16   8  16  16
#     4  11  22  37  59  87 118 152 192 236 283 333
#     4  11  24  39  55  78 109 147 191 236 286 347
#     4  10  20  37  61  87 116 148 184 231 286 342
#     4   9  20  37  59  88 116 143 181 229 279 334
#     4  11  25  43  60  83 118 159 202 239 276 331
#     4  10  21  37  57  81 109 143 186 236 289 344
#     4  10  20  34  55  84 115 147 185 230 282 340
#
# _framework density 20.006892000000001
#
# number of rings (size 3 to 8) (size 9 to 14) (size 15 to 20)
#    0.000    1.769    0.000    3.923    0.000    9.231 
#    0.000    1.923    0.000    0.000    0.000    0.000 
#    0.000    0.000    0.000    0.000    0.000    0.000 
#
# Total GULP energy -644869.113411 kJ/mol
# GULP energy per Si atom -12401.329104 kJ/mol
# Density = 1.996136 g / cm^3
# Si number density = 20.006892 Si / 1000 Ang^3
#
#
#
# Elastic Constant Matrix: (Units=GPa)
#
#
# Indices 1 2 3 4 5 6 
#
# 1 125.6196 49.3551 53.1385 0.0000 0.0000 0.0000
# 2 49.3551 78.0255 27.8708 0.0000 0.0000 0.0000
# 3 53.1385 27.8708 62.0473 0.0000 0.0000 0.0000
# 4 0.0000 0.0000 0.0000 26.7516 0.0000 0.0000
# 5 0.0000 0.0000 0.0000 0.0000 25.0267 0.0000
# 6 0.0000 0.0000 0.0000 0.0000 0.0000 37.6612
#
#
#
# Elastic Compliance Matrix: (Units=1/GPa)
#
#
# Indices 1 2 3 4 5 6 
#
# 1 0.014246 -0.005543 -0.009711 0.000000 0.000000 0.000000
# 2 -0.005543 0.017422 -0.003079 0.000000 0.000000 0.000000
# 3 -0.009711 -0.003079 0.025816 0.000000 0.000000 0.000000
# 4 0.000000 0.000000 0.000000 0.037381 0.000000 0.000000
# 5 0.000000 0.000000 0.000000 0.000000 0.039957 0.000000
# 6 0.000000 0.000000 0.000000 0.000000 0.000000 0.026553
#
#
# Mechanical properties :
#
#
# Convention : Reuss Voigt Hill
#
# Bulk Modulus (GPa) = 48.03181 58.49124 53.26152
# Shear Modulus (GPa) = 24.39261 26.90976 25.65119
#
# Velocity S-wave (km/s) = 3.49551 3.67144 3.58455
# Velocity P-wave (km/s) = 6.35226 6.87544 6.61902
#
# Compressibility (1/GPa) = 0.02081954
#
# Stress axis : x y z
#
# Youngs Moduli (GPa) = 70.19509 57.39833 38.73508
#
# Poissons Ratio (x) = 0.31814 0.37615
# Poissons Ratio (y) = 0.38906 0.11927
# Poissons Ratio (z) = 0.68166 0.17673
#
# Static dielectric constant tensor:
#      x y z
#    x 3.881380 0.000000 0.000000 
#    y 0.000000 3.686740 0.000000 
#    z 0.000000 0.000000 3.570860 
# 
# 
# High freq. dielectric constant tensor:
#      x y z
#    x 1.789370 0.000000 0.000000 
#    y 0.000000 1.790980 0.000000 
#    z 0.000000 0.000000 1.766500 
# 
# From -- ./inp_files/66329.got.cif
#   From: 2010.03.12/outbox.cif.g09.slc.cpg/sg65_34_cif.got.tgz:66329.got - 2010.04.10 20:52:16.
