data_PCOD8271526
_publ_section_title
;
Structure prediction by ZEFSAII (Michael W. Deem and Ramdas Pophale) SiO2 
 PCOD8271526
Probable space group: C M M M
;
_chemical_formula_sum "Si O2"
_cell_formula_units_Z 104
_cell_length_a 9.088663
_cell_length_b 21.799290
_cell_length_c 26.604504
_cell_angle_alpha 90.000000
_cell_angle_beta 90.000000
_cell_angle_gamma 90.000000
_cell_volume 5271.054613
_symmetry_space_group_name_H-M "C M M M"
_symmetry_group_IT_number 65
_symmetry_cell_setting 'orthorhombic'
loop_
_space_group_symop_operation_xyz
x,y,z
-x,-y,z
x,-y,-z
-x,y,-z
-x,-y,-z
x,y,-z
-x,y,z
x,-y,z
1/2+x,1/2+y,z
1/2-x,1/2-y,z
1/2+x,1/2-y,-z
1/2-x,1/2+y,-z
1/2-x,1/2-y,-z
1/2+x,1/2+y,-z
1/2-x,1/2+y,z
1/2+x,1/2-y,z
loop_
_atom_site_type_symbol
_atom_site_label
_atom_site_fract_x
_atom_site_fract_y
_atom_site_fract_z
Si Si1 0.341504 0.500000 0.885235
Si Si2 0.672065 0.688909 0.805983
Si Si3 0.171023 0.312923 0.000000
Si Si4 0.824490 0.386894 0.273283
Si Si5 0.663333 0.630824 0.910759
Si Si6 0.671522 0.311909 0.557736
Si Si7 0.328763 0.000000 0.788942
Si Si8 0.827640 0.072143 0.625883
O O1 0.500000 0.500000 0.856030
O O2 0.332891 0.441489 0.920960
O O3 0.207270 0.500000 0.847060
O O4 0.500000 0.698726 0.795775
O O5 0.750000 0.750000 0.825477
O O6 0.749145 0.671705 0.752879
O O7 0.701172 0.641798 0.851923
O O8 0.250000 0.250000 0.000000
O O9 0.214884 0.344936 0.948277
O O10 0.000000 0.303811 0.000000
O O11 0.763852 0.440825 0.238058
O O12 0.767120 0.402097 0.328343
O O13 0.000000 0.378473 0.274759
O O14 0.500000 0.657882 0.922898
O O15 0.719004 0.319308 0.500000
O O16 0.500000 0.299236 0.564380
O O17 0.750000 0.250000 0.580325
O O18 0.712531 0.378123 0.582503
O O19 0.500000 0.000000 0.780613
O O20 0.000000 0.075135 0.638864
O O21 0.786474 0.000000 0.612548
#
# Coordination Sequence:
#
# PCOD8271526 Si02
#       8
#     8  16   8  16  16  16   8  16
#     4  10  20  37  63  92 117 149 187 230 281 339
#     4  11  23  39  60  86 116 152 195 241 287 343
#     4  12  26  43  64  85 113 150 190 234 285 340
#     4  11  22  37  57  84 118 156 193 235 288 345
#     4  10  22  40  63  89 117 148 187 231 283 341
#     4   9  19  37  60  85 114 152 198 246 300 359
#     4  10  20  34  55  83 115 151 189 231 279 334
#     4  10  21  36  57  86 119 156 199 248 300 356
#
# _framework density 19.730398000000001
#
# number of rings (size 3 to 8) (size 9 to 14) (size 15 to 20)
#    0.000    1.692    2.308    2.077    0.000    5.538 
#    0.000    4.615    0.000    0.000    0.000    3.231 
#    0.000    0.000    0.000    0.000    0.000    0.000 
#
# Total GULP energy -644367.353370 kJ/mol
# GULP energy per Si atom -12391.679873 kJ/mol
# Density = 1.968549 g / cm^3
# Si number density = 19.730398 Si / 1000 Ang^3
#
#
#
# Elastic Constant Matrix: (Units=GPa)
#
#
# Indices 1 2 3 4 5 6 
#
# 1 99.8802 54.4142 51.5343 0.0000 0.0000 0.0000
# 2 54.4142 133.8898 49.7770 0.0000 0.0000 0.0000
# 3 51.5343 49.7770 91.3681 0.0000 0.0000 0.0000
# 4 0.0000 0.0000 0.0000 121.6252 0.0000 0.0000
# 5 0.0000 0.0000 0.0000 0.0000 32.0098 0.0000
# 6 0.0000 0.0000 0.0000 0.0000 0.0000 27.3102
#
#
#
# Elastic Compliance Matrix: (Units=1/GPa)
#
#
# Indices 1 2 3 4 5 6 
#
# 1 0.015548 -0.003835 -0.006680 0.000000 0.000000 0.000000
# 2 -0.003835 0.010312 -0.003455 0.000000 0.000000 0.000000
# 3 -0.006680 -0.003455 0.016595 0.000000 0.000000 0.000000
# 4 0.000000 0.000000 0.000000 0.008222 0.000000 0.000000
# 5 0.000000 0.000000 0.000000 0.000000 0.031240 0.000000
# 6 0.000000 0.000000 0.000000 0.000000 0.000000 0.036616
#
#
# Mechanical properties :
#
#
# Convention : Reuss Voigt Hill
#
# Bulk Modulus (GPa) = 68.89710 70.73213 69.81461
# Shear Modulus (GPa) = 33.04431 47.48320 40.26376
#
# Velocity S-wave (km/s) = 4.09686 4.91103 4.52231
# Velocity P-wave (km/s) = 7.57457 8.25135 7.92019
#
# Compressibility (1/GPa) = 0.01451440
#
# Stress axis : x y z
#
# Youngs Moduli (GPa) = 64.31615 96.97499 60.26072
#
# Poissons Ratio (x) = 0.37194 0.40255
# Poissons Ratio (y) = 0.24668 0.20818
# Poissons Ratio (z) = 0.42964 0.33501
#
# Static dielectric constant tensor:
#      x y z
#    x 3.260230 0.000000 0.000000 
#    y 0.000000 4.079030 0.000000 
#    z 0.000000 0.000000 3.405400 
# 
# 
# High freq. dielectric constant tensor:
#      x y z
#    x 1.767050 0.000000 0.000000 
#    y 0.000000 1.784740 0.000000 
#    z 0.000000 0.000000 1.755150 
# 
# From -- ./inp_files/73388.got.cif
#   From: 2010.03.12/outbox.cif.g09.slc.cpg/sg65_37_cif.got.tgz:73388.got - 2010.04.10 20:52:16.
