data_PCOD8271272
_publ_section_title
;
Structure prediction by ZEFSAII (Michael W. Deem and Ramdas Pophale) SiO2 
 PCOD8271272
Probable space group: C M M M
;
_chemical_formula_sum "Si O2"
_cell_formula_units_Z 112
_cell_length_a 14.252090
_cell_length_b 29.631806
_cell_length_c 14.286155
_cell_angle_alpha 90.000000
_cell_angle_beta 90.000000
_cell_angle_gamma 90.000000
_cell_volume 6033.259920
_symmetry_space_group_name_H-M "C M M M"
_symmetry_group_IT_number 65
_symmetry_cell_setting 'orthorhombic'
loop_
_space_group_symop_operation_xyz
x,y,z
-x,-y,z
x,-y,-z
-x,y,-z
-x,-y,-z
x,y,-z
-x,y,z
x,-y,z
1/2+x,1/2+y,z
1/2-x,1/2-y,z
1/2+x,1/2-y,-z
1/2-x,1/2+y,-z
1/2-x,1/2-y,-z
1/2+x,1/2+y,-z
1/2-x,1/2+y,z
1/2+x,1/2-y,z
loop_
_atom_site_type_symbol
_atom_site_label
_atom_site_fract_x
_atom_site_fract_y
_atom_site_fract_z
Si Si1 0.105061 0.550807 0.715907
Si Si2 0.264089 0.646506 0.892470
Si Si3 0.301062 0.872062 0.608239
Si Si4 0.888535 0.317264 0.231364
Si Si5 0.724539 0.950606 0.105479
Si Si6 0.102723 0.837519 0.604443
Si Si7 0.605716 0.284432 0.783781
O O1 0.107935 0.500000 0.677617
O O2 0.168290 0.579427 0.645629
O O3 0.139106 0.553048 0.822648
O O4 0.000000 0.570596 0.714215
O O5 0.160713 0.651713 0.846983
O O6 0.292671 0.593220 0.880253
O O7 0.336971 0.678864 0.841637
O O8 0.260124 0.661090 0.000000
O O9 0.329396 0.866068 0.500000
O O10 0.351098 0.832037 0.666435
O O11 0.188188 0.871880 0.622990
O O12 0.855394 0.266310 0.208159
O O13 0.000000 0.322892 0.226398
O O14 0.775681 0.000000 0.119352
O O15 0.683276 0.947867 0.000000
O O16 0.111325 0.817387 0.500000
O O17 0.110357 0.795459 0.673997
O O18 0.000000 0.861570 0.617676
O O19 0.500000 0.286651 0.822624
#
# Coordination Sequence:
#
# PCOD8271272 Si02
#       7
#    16  16  16  16  16  16  16
#     4  10  20  34  53  78 111 150 192 237 283 339
#     4  11  22  37  58  81 110 149 188 230 283 338
#     4  11  22  36  56  80 111 150 188 234 290 342
#     4  11  23  37  53  79 113 149 192 234 275 328
#     4   9  18  33  55  82 109 142 187 235 282 332
#     4   9  18  34  57  82 105 136 182 231 280 332
#     4  10  21  37  57  80 111 146 185 235 282 331
#
# _framework density 18.563761
#
# number of rings (size 3 to 8) (size 9 to 14) (size 15 to 20)
#    0.000    1.857    2.857    0.857    0.000    4.000 
#    0.000    7.857    0.000    0.857    0.000    8.000 
#    0.000    0.000    0.000    0.000    0.000    0.429 
#
# Total GULP energy -693909.487100 kJ/mol
# GULP energy per Si atom -12391.240841 kJ/mol
# Density = 1.852151 g / cm^3
# Si number density = 18.563761 Si / 1000 Ang^3
#
#
#
# Elastic Constant Matrix: (Units=GPa)
#
#
# Indices 1 2 3 4 5 6 
#
# 1 79.9136 53.3957 38.1127 0.0000 0.0000 0.0000
# 2 53.3957 150.3427 54.8004 0.0000 0.0000 0.0000
# 3 38.1127 54.8004 111.2645 0.0000 0.0000 0.0000
# 4 0.0000 0.0000 0.0000 22.7755 0.0000 0.0000
# 5 0.0000 0.0000 0.0000 0.0000 16.1896 0.0000
# 6 0.0000 0.0000 0.0000 0.0000 0.0000 22.4385
#
#
#
# Elastic Compliance Matrix: (Units=1/GPa)
#
#
# Indices 1 2 3 4 5 6 
#
# 1 0.017501 -0.004912 -0.003575 0.000000 0.000000 0.000000
# 2 -0.004912 0.009486 -0.002989 0.000000 0.000000 0.000000
# 3 -0.003575 -0.002989 0.011685 0.000000 0.000000 0.000000
# 4 0.000000 0.000000 0.000000 0.043907 0.000000 0.000000
# 5 0.000000 0.000000 0.000000 0.000000 0.061768 0.000000
# 6 0.000000 0.000000 0.000000 0.000000 0.000000 0.044566
#
#
# Mechanical properties :
#
#
# Convention : Reuss Voigt Hill
#
# Bulk Modulus (GPa) = 63.62411 70.45980 67.04195
# Shear Modulus (GPa) = 23.03026 25.29485 24.16255
#
# Velocity S-wave (km/s) = 3.52604 3.69534 3.61168
# Velocity P-wave (km/s) = 7.13617 7.49969 7.32019
#
# Compressibility (1/GPa) = 0.01571731
#
# Stress axis : x y z
#
# Youngs Moduli (GPa) = 57.13957 105.42122 85.58297
#
# Poissons Ratio (x) = 0.51787 0.30599
# Poissons Ratio (y) = 0.28069 0.25583
# Poissons Ratio (z) = 0.20429 0.31513
#
# Static dielectric constant tensor:
#      x y z
#    x 3.426300 0.000000 0.000000 
#    y 0.000000 3.648390 0.000000 
#    z 0.000000 0.000000 3.518450 
# 
# 
# High freq. dielectric constant tensor:
#      x y z
#    x 1.705080 0.000000 0.000000 
#    y 0.000000 1.722230 0.000000 
#    z 0.000000 0.000000 1.727670 
# 
# From -- ./inp_files/41165.got.cif
#   From: 2010.03.12/outbox.cif.g09.slc.cpg/sg65_21_cif.got.tgz:41165.got - 2010.04.10 20:52:16.
