data_PCOD8271194
_publ_section_title
;
Structure prediction by ZEFSAII (Michael W. Deem and Ramdas Pophale) SiO2 
 PCOD8271194
Probable space group: C M M M
;
_chemical_formula_sum "Si O2"
_cell_formula_units_Z 120
_cell_length_a 29.390629
_cell_length_b 8.783401
_cell_length_c 25.393495
_cell_angle_alpha 90.000000
_cell_angle_beta 90.000000
_cell_angle_gamma 90.000000
_cell_volume 6555.322612
_symmetry_space_group_name_H-M "C M M M"
_symmetry_group_IT_number 65
_symmetry_cell_setting 'orthorhombic'
loop_
_space_group_symop_operation_xyz
x,y,z
-x,-y,z
x,-y,-z
-x,y,-z
-x,-y,-z
x,y,-z
-x,y,z
x,-y,z
1/2+x,1/2+y,z
1/2-x,1/2-y,z
1/2+x,1/2-y,-z
1/2-x,1/2+y,-z
1/2-x,1/2-y,-z
1/2+x,1/2+y,-z
1/2-x,1/2+y,z
1/2+x,1/2-y,z
loop_
_atom_site_type_symbol
_atom_site_label
_atom_site_fract_x
_atom_site_fract_y
_atom_site_fract_z
Si Si1 0.294827 0.330610 0.835359
Si Si2 0.949119 0.319206 0.941841
Si Si3 0.381518 0.820994 0.669737
Si Si4 0.794051 0.831423 0.288223
Si Si5 0.447193 0.319840 0.251915
Si Si6 0.000000 0.337215 0.561044
Si Si7 0.608783 0.819151 0.844344
Si Si8 0.903005 0.681257 0.442389
O O1 0.299852 0.500000 0.859743
O O2 0.250000 0.250000 0.860011
O O3 0.287576 0.345796 0.773516
O O4 0.339218 0.232256 0.847827
O O5 0.949497 0.500000 0.940674
O O6 0.915111 0.257062 0.897454
O O7 0.000000 0.258326 0.929806
O O8 0.933472 0.262713 0.000000
O O9 0.337745 0.770804 0.701754
O O10 0.426367 0.739853 0.693080
O O11 0.372362 0.774884 0.608036
O O12 0.388378 0.000000 0.676152
O O13 0.750000 0.750000 0.313677
O O14 0.799635 0.000000 0.313171
O O15 0.500000 0.269610 0.247952
O O16 0.442091 0.500000 0.249671
O O17 0.417935 0.250058 0.204769
O O18 0.047126 0.248130 0.572731
O O19 0.000000 0.500000 0.591929
O O20 0.000000 0.373822 0.500000
O O21 0.606904 0.000000 0.839215
O O22 0.885315 0.742882 0.500000
O O23 0.907901 0.500000 0.446752
#
# Coordination Sequence:
#
# PCOD8271194 Si02
#       8
#    16  16  16  16  16   8  16  16
#     4  10  20  34  53  76 106 140 173 214 263 312
#     4   8  15  29  50  78 110 142 178 220 262 302
#     4  11  21  32  53  80 105 133 171 214 258 312
#     4  10  20  35  55  76 104 135 168 211 261 311
#     4  11  24  38  49  68 106 150 181 211 258 309
#     4   7  10  20  38  60  89 123 159 199 242 283
#     4  11  20  32  55  82 108 138 177 220 262 313
#     4   8  15  27  44  69 100 131 165 209 257 302
#
# _framework density 18.305736
#
# number of rings (size 3 to 8) (size 9 to 14) (size 15 to 20)
#    0.000    2.333    1.333    3.600    0.933    2.667 
#    0.000    0.000    0.000    4.000    0.000    5.600 
#    0.000    0.000    0.000    0.000    0.000    0.000 
#
# Total GULP energy -743393.481322 kJ/mol
# GULP energy per Si atom -12389.891355 kJ/mol
# Density = 1.826407 g / cm^3
# Si number density = 18.305736 Si / 1000 Ang^3
#
#
#
# Elastic Constant Matrix: (Units=GPa)
#
#
# Indices 1 2 3 4 5 6 
#
# 1 118.6590 37.8680 37.0002 0.0000 0.0000 0.0000
# 2 37.8680 68.5331 28.3356 0.0000 0.0000 0.0000
# 3 37.0002 28.3356 88.1121 0.0000 0.0000 0.0000
# 4 0.0000 0.0000 0.0000 4.9121 0.0000 0.0000
# 5 0.0000 0.0000 0.0000 0.0000 15.6463 0.0000
# 6 0.0000 0.0000 0.0000 0.0000 0.0000 19.7473
#
#
#
# Elastic Compliance Matrix: (Units=1/GPa)
#
#
# Indices 1 2 3 4 5 6 
#
# 1 0.010897 -0.004762 -0.003044 0.000000 0.000000 0.000000
# 2 -0.004762 0.018910 -0.004082 0.000000 0.000000 0.000000
# 3 -0.003044 -0.004082 0.013940 0.000000 0.000000 0.000000
# 4 0.000000 0.000000 0.000000 0.203578 0.000000 0.000000
# 5 0.000000 0.000000 0.000000 0.000000 0.063913 0.000000
# 6 0.000000 0.000000 0.000000 0.000000 0.000000 0.050640
#
#
# Mechanical properties :
#
#
# Convention : Reuss Voigt Hill
#
# Bulk Modulus (GPa) = 50.07255 53.52353 51.79804
# Shear Modulus (GPa) = 12.74498 19.53450 16.13974
#
# Velocity S-wave (km/s) = 2.64148 3.27023 2.97253
# Velocity P-wave (km/s) = 6.05938 6.60010 6.33551
#
# Compressibility (1/GPa) = 0.01997102
#
# Stress axis : x y z
#
# Youngs Moduli (GPa) = 91.77220 52.88090 71.73562
#
# Poissons Ratio (x) = 0.25183 0.21838
# Poissons Ratio (y) = 0.43704 0.29279
# Poissons Ratio (z) = 0.27938 0.21584
#
# Static dielectric constant tensor:
#      x y z
#    x 3.514520 0.000000 0.000000 
#    y 0.000000 3.258190 0.000000 
#    z 0.000000 0.000000 3.490010 
# 
# 
# High freq. dielectric constant tensor:
#      x y z
#    x 1.706480 0.000000 0.000000 
#    y 0.000000 1.689730 0.000000 
#    z 0.000000 0.000000 1.691700 
# 
# From -- ./inp_files/76156.got.cif
#   From: 2010.03.12/outbox.cif.g09.slc.cpg/sg65_39_cif.got.tgz:76156.got - 2010.04.10 20:52:16.
