data_PCOD8271930
_publ_section_title
;
Structure prediction by ZEFSAII (Michael W. Deem and Ramdas Pophale) SiO2 
 PCOD8271930
Probable space group: C M M M
;
_chemical_formula_sum "Si O2"
_cell_formula_units_Z 72
_cell_length_a 16.582729
_cell_length_b 9.039767
_cell_length_c 24.337434
_cell_angle_alpha 90.000000
_cell_angle_beta 90.000000
_cell_angle_gamma 90.000000
_cell_volume 3648.278862
_symmetry_space_group_name_H-M "C M M M"
_symmetry_group_IT_number 65
_symmetry_cell_setting 'orthorhombic'
loop_
_space_group_symop_operation_xyz
x,y,z
-x,-y,z
x,-y,-z
-x,y,-z
-x,-y,-z
x,y,-z
-x,y,z
x,-y,z
1/2+x,1/2+y,z
1/2-x,1/2-y,z
1/2+x,1/2-y,-z
1/2-x,1/2+y,-z
1/2-x,1/2-y,-z
1/2+x,1/2+y,-z
1/2-x,1/2+y,z
1/2+x,1/2-y,z
loop_
_atom_site_type_symbol
_atom_site_label
_atom_site_fract_x
_atom_site_fract_y
_atom_site_fract_z
Si Si1 0.665672 0.326306 0.380534
Si Si2 0.500000 0.675020 0.437047
Si Si3 0.908603 0.660307 0.840317
Si Si4 0.668466 0.673306 0.746390
Si Si5 0.665448 0.670759 0.061039
O O1 0.676720 0.500000 0.391699
O O2 0.750000 0.250000 0.400648
O O3 0.584365 0.264895 0.410642
O O4 0.650126 0.290015 0.316896
O O5 0.500000 0.500000 0.429736
O O6 0.500000 0.725536 0.500000
O O7 0.862216 0.500000 0.838572
O O8 0.898495 0.755368 0.784892
O O9 0.890022 0.755045 0.893924
O O10 0.000000 0.619799 0.844215
O O11 0.673681 0.500000 0.756570
O O12 0.750000 0.750000 0.766137
O O13 0.677226 0.500000 0.076109
O O14 0.750000 0.750000 0.063260
O O15 0.627173 0.688874 0.000000
#
# Coordination Sequence:
#
# PCOD8271930 Si02
#       5
#    16   8  16  16  16
#     4   9  19  35  57  84 114 151 194 239 289 343
#     4   9  18  34  57  85 117 155 196 237 284 341
#     4  11  24  38  53  78 111 144 179 222 276 331
#     4  10  20  35  57  80 108 142 183 230 277 332
#     4  10  21  38  60  82 105 138 180 224 270 324
#
# _framework density 19.735334000000002
#
# number of rings (size 3 to 8) (size 9 to 14) (size 15 to 20)
#    0.000    2.111    0.000    2.667    1.556    4.889 
#    0.000    2.778    0.000    0.667    0.000    0.000 
#    0.000    0.000    0.000    0.000    0.000    0.000 
#
# Total GULP energy -446148.360277 kJ/mol
# GULP energy per Si atom -12393.010008 kJ/mol
# Density = 1.969042 g / cm^3
# Si number density = 19.735334 Si / 1000 Ang^3
#
#
#
# Elastic Constant Matrix: (Units=GPa)
#
#
# Indices 1 2 3 4 5 6 
#
# 1 119.6514 45.4667 62.6754 0.0000 0.0000 0.0000
# 2 45.4667 116.5343 56.0759 0.0000 0.0000 0.0000
# 3 62.6754 56.0759 115.3620 0.0000 0.0000 0.0000
# 4 0.0000 0.0000 0.0000 22.8304 0.0000 0.0000
# 5 0.0000 0.0000 0.0000 0.0000 41.0240 0.0000
# 6 0.0000 0.0000 0.0000 0.0000 0.0000 25.1387
#
#
#
# Elastic Compliance Matrix: (Units=1/GPa)
#
#
# Indices 1 2 3 4 5 6 
#
# 1 0.012037 -0.002023 -0.005556 0.000000 0.000000 0.000000
# 2 -0.002023 0.011541 -0.004511 0.000000 0.000000 0.000000
# 3 -0.005556 -0.004511 0.013880 0.000000 0.000000 0.000000
# 4 0.000000 0.000000 0.000000 0.043801 0.000000 0.000000
# 5 0.000000 0.000000 0.000000 0.000000 0.024376 0.000000
# 6 0.000000 0.000000 0.000000 0.000000 0.000000 0.039779
#
#
# Mechanical properties :
#
#
# Convention : Reuss Voigt Hill
#
# Bulk Modulus (GPa) = 75.31457 75.55374 75.43415
# Shear Modulus (GPa) = 28.73238 30.28728 29.50983
#
# Velocity S-wave (km/s) = 3.81975 3.92174 3.87108
# Velocity P-wave (km/s) = 7.59599 7.67290 7.63454
#
# Compressibility (1/GPa) = 0.01327764
#
# Stress axis : x y z
#
# Youngs Moduli (GPa) = 83.07963 86.64772 72.04685
#
# Poissons Ratio (x) = 0.17525 0.40031
# Poissons Ratio (y) = 0.16803 0.32501
# Poissons Ratio (z) = 0.46162 0.39088
#
# Static dielectric constant tensor:
#      x y z
#    x 3.571980 0.000000 0.000000 
#    y 0.000000 3.588520 0.000000 
#    z 0.000000 0.000000 3.743840 
# 
# 
# High freq. dielectric constant tensor:
#      x y z
#    x 1.763040 0.000000 0.000000 
#    y 0.000000 1.770150 0.000000 
#    z 0.000000 0.000000 1.773190 
# 
# From -- ./inp_files/72473.got.cif
#   From: 2010.03.12/outbox.cif.g09.slc.cpg/sg65_37_cif.got.tgz:72473.got - 2010.04.10 20:52:16.
