data_PCOD8271586
_publ_section_title
;
Structure prediction by ZEFSAII (Michael W. Deem and Ramdas Pophale) SiO2 
 PCOD8271586
Probable space group: C M M M
;
_chemical_formula_sum "Si O2"
_cell_formula_units_Z 104
_cell_length_a 16.729043
_cell_length_b 18.323184
_cell_length_c 17.223475
_cell_angle_alpha 90.000000
_cell_angle_beta 90.000000
_cell_angle_gamma 90.000000
_cell_volume 5279.500304
_symmetry_space_group_name_H-M "C M M M"
_symmetry_group_IT_number 65
_symmetry_cell_setting 'orthorhombic'
loop_
_space_group_symop_operation_xyz
x,y,z
-x,-y,z
x,-y,-z
-x,y,-z
-x,-y,-z
x,y,-z
-x,y,z
x,-y,z
1/2+x,1/2+y,z
1/2-x,1/2-y,z
1/2+x,1/2-y,-z
1/2-x,1/2+y,-z
1/2-x,1/2-y,-z
1/2+x,1/2+y,-z
1/2-x,1/2+y,z
1/2+x,1/2-y,z
loop_
_atom_site_type_symbol
_atom_site_label
_atom_site_fract_x
_atom_site_fract_y
_atom_site_fract_z
Si Si1 0.411755 0.577465 0.500000
Si Si2 0.357309 0.674862 0.636906
Si Si3 0.710742 0.081691 0.328423
Si Si4 0.245140 0.082210 0.151813
Si Si5 0.333402 0.210016 0.086473
Si Si6 0.908370 0.172645 0.813747
Si Si7 0.408363 0.171534 0.410663
O O1 0.361294 0.500000 0.500000
O O2 0.500000 0.549476 0.500000
O O3 0.403734 0.624304 0.577523
O O4 0.268420 0.642865 0.636311
O O5 0.397551 0.673709 0.721479
O O6 0.355965 0.756879 0.606033
O O7 0.717692 0.083597 0.236748
O O8 0.622641 0.104919 0.357252
O O9 0.730527 0.000000 0.358536
O O10 0.311629 0.125491 0.102028
O O11 0.155296 0.116081 0.148833
O O12 0.238499 0.000000 0.119403
O O13 0.250000 0.250000 0.094738
O O14 0.393288 0.246676 0.149139
O O15 0.370154 0.217775 0.000000
O O16 0.000000 0.149058 0.832425
O O17 0.398990 0.148464 0.500000
O O18 0.500000 0.187703 0.388893
#
# Coordination Sequence:
#
# PCOD8271586 Si02
#       7
#     8  16  16  16  16  16  16
#     4  11  22  34  51  78 114 152 191 239 286 332
#     4  11  21  37  57  79 110 149 195 238 285 343
#     4  10  22  38  56  79 110 148 190 235 284 344
#     4   9  19  36  56  82 114 149 189 232 277 334
#     4   9  18  34  57  84 112 147 189 229 272 330
#     4  10  20  34  57  86 116 152 187 231 291 348
#     4  11  23  37  55  78 105 140 187 246 299 341
#
# _framework density 19.698834000000002
#
# number of rings (size 3 to 8) (size 9 to 14) (size 15 to 20)
#    0.000    1.923    0.769    3.231    1.077    5.231 
#    0.000    0.769    0.000    1.385    0.000    5.385 
#    0.000    0.000    0.000    0.000    0.000    0.000 
#
# Total GULP energy -644423.421955 kJ/mol
# GULP energy per Si atom -12392.758115 kJ/mol
# Density = 1.965400 g / cm^3
# Si number density = 19.698834 Si / 1000 Ang^3
#
#
#
# Elastic Constant Matrix: (Units=GPa)
#
#
# Indices 1 2 3 4 5 6 
#
# 1 65.3227 52.1270 36.4539 0.0000 0.0000 0.0000
# 2 52.1270 118.3297 43.7202 0.0000 0.0000 0.0000
# 3 36.4539 43.7202 88.7146 0.0000 0.0000 0.0000
# 4 0.0000 0.0000 0.0000 24.4754 0.0000 0.0000
# 5 0.0000 0.0000 0.0000 0.0000 -7.5432 0.0000
# 6 0.0000 0.0000 0.0000 0.0000 0.0000 22.2289
#
#
#
# Elastic Compliance Matrix: (Units=1/GPa)
#
#
# Indices 1 2 3 4 5 6 
#
# 1 0.026120 -0.009220 -0.006189 0.000000 0.000000 0.000000
# 2 -0.009220 0.013587 -0.002907 0.000000 0.000000 0.000000
# 3 -0.006189 -0.002907 0.015248 0.000000 0.000000 0.000000
# 4 0.000000 0.000000 0.000000 0.040857 0.000000 0.000000
# 5 0.000000 0.000000 0.000000 0.000000 -0.132570 0.000000
# 6 0.000000 0.000000 0.000000 0.000000 0.000000 0.044987
#
#
# Mechanical properties :
#
#
# Convention : Reuss Voigt Hill
#
# Bulk Modulus (GPa) = 54.57893 59.66325 57.12109
# Shear Modulus (GPa) = 98.10078 17.16995 57.63536
#
# Velocity S-wave (km/s) = 7.06459 2.95553 5.41496
# Velocity P-wave (km/s) = 9.71140 6.48077 8.25566
#
# Compressibility (1/GPa) = 0.01832209
#
# Stress axis : x y z
#
# Youngs Moduli (GPa) = 38.28527 73.60212 65.58175
#
# Poissons Ratio (x) = 0.67858 0.40591
# Poissons Ratio (y) = 0.35297 0.19067
# Poissons Ratio (z) = 0.23696 0.21398
#
# Static dielectric constant tensor:
#      x y z
#    x 3.477710 0.000000 0.000000 
#    y 0.000000 3.820000 0.000000 
#    z 0.000000 0.000000 3.604920 
# 
# 
# High freq. dielectric constant tensor:
#      x y z
#    x 1.749880 0.000000 0.000000 
#    y 0.000000 1.771550 0.000000 
#    z 0.000000 0.000000 1.763600 
# 
# From -- ./inp_files/54603.got.cif
#   From: 2010.03.12/outbox.cif.g09.slc.cpg/sg65_28_cif.got.tgz:54603.got - 2010.04.10 20:52:16.
