data_PCOD8271910
_publ_section_title
;
Structure prediction by ZEFSAII (Michael W. Deem and Ramdas Pophale) SiO2 
 PCOD8271910
Probable space group: C M M M
;
_chemical_formula_sum "Si O2"
_cell_formula_units_Z 88
_cell_length_a 23.217379
_cell_length_b 8.575480
_cell_length_c 22.641372
_cell_angle_alpha 90.000000
_cell_angle_beta 90.000000
_cell_angle_gamma 90.000000
_cell_volume 4507.900998
_symmetry_space_group_name_H-M "C M M M"
_symmetry_group_IT_number 65
_symmetry_cell_setting 'orthorhombic'
loop_
_space_group_symop_operation_xyz
x,y,z
-x,-y,z
x,-y,-z
-x,y,-z
-x,-y,-z
x,y,-z
-x,y,z
x,-y,z
1/2+x,1/2+y,z
1/2-x,1/2-y,z
1/2+x,1/2-y,-z
1/2-x,1/2+y,-z
1/2-x,1/2-y,-z
1/2+x,1/2+y,-z
1/2-x,1/2+y,z
1/2+x,1/2-y,z
loop_
_atom_site_type_symbol
_atom_site_label
_atom_site_fract_x
_atom_site_fract_y
_atom_site_fract_z
Si Si1 0.186624 0.183111 0.000000
Si Si2 0.189423 0.682962 0.434533
Si Si3 0.881274 0.316627 0.109550
Si Si4 0.500000 0.818861 0.270917
Si Si5 0.186947 0.182879 0.216220
Si Si6 0.000000 0.183795 0.858302
Si Si7 0.122192 0.681997 0.678030
O O1 0.250000 0.250000 0.000000
O O2 0.154141 0.236243 0.941811
O O3 0.191282 0.000000 0.000000
O O4 0.174225 0.749315 0.500000
O O5 0.197036 0.500000 0.437582
O O6 0.250000 0.750000 0.411464
O O7 0.138059 0.727121 0.389381
O O8 0.879481 0.500000 0.100191
O O9 0.855527 0.272322 0.172621
O O10 0.946217 0.256894 0.107793
O O11 0.500000 0.720153 0.211267
O O12 0.555584 0.776040 0.310277
O O13 0.500000 0.000000 0.252624
O O14 0.250000 0.250000 0.207226
O O15 0.164190 0.215184 0.281695
O O16 0.186741 0.000000 0.202390
O O17 0.000000 0.000000 0.866650
O O18 0.134228 0.500000 0.690773
#
# Coordination Sequence:
#
# PCOD8271910 Si02
#       7
#     8  16  16   8  16   8  16
#     4  12  26  47  70  97 130 166 206 252 304 364
#     4   9  18  33  53  79 113 153 198 249 303 362
#     4  12  25  44  67  93 125 164 205 250 302 360
#     4  10  20  36  58  83 118 160 198 245 304 364
#     4  12  24  38  58  87 120 155 198 251 306 364
#     4  12  24  41  65  95 125 161 205 253 303 360
#     4  10  20  35  56  83 115 154 199 248 304 364
#
# _framework density 19.521281999999999
#
# number of rings (size 3 to 8) (size 9 to 14) (size 15 to 20)
#    0.000    1.091    1.818    6.000    0.000    2.545 
#    0.000    2.273    0.000    2.727    0.000    0.000 
#    0.000    5.091    0.000    0.000    0.000    0.000 
#
# Total GULP energy -545785.855821 kJ/mol
# GULP energy per Si atom -12404.223996 kJ/mol
# Density = 1.947685 g / cm^3
# Si number density = 19.521282 Si / 1000 Ang^3
#
#
#
# Elastic Constant Matrix: (Units=GPa)
#
#
# Indices 1 2 3 4 5 6 
#
# 1 146.0245 52.2984 54.3942 0.0000 0.0000 0.0000
# 2 52.2984 117.6174 37.3427 0.0000 0.0000 0.0000
# 3 54.3942 37.3427 110.9678 0.0000 0.0000 0.0000
# 4 0.0000 0.0000 0.0000 35.8197 0.0000 0.0000
# 5 0.0000 0.0000 0.0000 0.0000 52.1564 0.0000
# 6 0.0000 0.0000 0.0000 0.0000 0.0000 27.7183
#
#
#
# Elastic Compliance Matrix: (Units=1/GPa)
#
#
# Indices 1 2 3 4 5 6 
#
# 1 0.009228 -0.002986 -0.003519 0.000000 0.000000 0.000000
# 2 -0.002986 0.010486 -0.002065 0.000000 0.000000 0.000000
# 3 -0.003519 -0.002065 0.011431 0.000000 0.000000 0.000000
# 4 0.000000 0.000000 0.000000 0.027918 0.000000 0.000000
# 5 0.000000 0.000000 0.000000 0.000000 0.019173 0.000000
# 6 0.000000 0.000000 0.000000 0.000000 0.000000 0.036077
#
#
# Mechanical properties :
#
#
# Convention : Reuss Voigt Hill
#
# Bulk Modulus (GPa) = 71.39894 73.63115 72.51505
# Shear Modulus (GPa) = 36.73202 38.51050 37.62126
#
# Velocity S-wave (km/s) = 4.34249 4.44638 4.39474
# Velocity P-wave (km/s) = 7.86113 8.01003 7.93593
#
# Compressibility (1/GPa) = 0.01400581
#
# Stress axis : x y z
#
# Youngs Moduli (GPa) = 108.36141 95.36956 87.47965
#
# Poissons Ratio (x) = 0.28480 0.30781
# Poissons Ratio (y) = 0.32359 0.18063
# Poissons Ratio (z) = 0.38129 0.19692
#
# Static dielectric constant tensor:
#      x y z
#    x 3.740590 0.000000 0.000000 
#    y 0.000000 3.613270 0.000000 
#    z 0.000000 0.000000 3.829580 
# 
# 
# High freq. dielectric constant tensor:
#      x y z
#    x 1.769500 0.000000 0.000000 
#    y 0.000000 1.765380 0.000000 
#    z 0.000000 0.000000 1.763200 
# 
# From -- ./inp_files/71077.got.cif
#   From: 2010.03.12/outbox.cif.g09.slc.cpg/sg65_36_cif.got.tgz:71077.got - 2010.04.10 20:52:16.
