data_PCOD8271357
_publ_section_title
;
Structure prediction by ZEFSAII (Michael W. Deem and Ramdas Pophale) SiO2 
 PCOD8271357
Probable space group: C M M M
;
_chemical_formula_sum "Si O2"
_cell_formula_units_Z 88
_cell_length_a 9.106667
_cell_length_b 18.420082
_cell_length_c 27.781019
_cell_angle_alpha 90.000000
_cell_angle_beta 90.000000
_cell_angle_gamma 90.000000
_cell_volume 4660.142392
_symmetry_space_group_name_H-M "C M M M"
_symmetry_group_IT_number 65
_symmetry_cell_setting 'orthorhombic'
loop_
_space_group_symop_operation_xyz
x,y,z
-x,-y,z
x,-y,-z
-x,y,-z
-x,-y,-z
x,y,-z
-x,y,z
x,-y,z
1/2+x,1/2+y,z
1/2-x,1/2-y,z
1/2+x,1/2-y,-z
1/2-x,1/2+y,-z
1/2-x,1/2-y,-z
1/2+x,1/2+y,-z
1/2-x,1/2+y,z
1/2+x,1/2-y,z
loop_
_atom_site_type_symbol
_atom_site_label
_atom_site_fract_x
_atom_site_fract_y
_atom_site_fract_z
Si Si1 0.669468 0.821859 0.236500
Si Si2 0.827810 0.676829 0.128141
Si Si3 0.329520 0.916031 0.325794
Si Si4 0.164593 0.914330 0.053598
Si Si5 0.825182 0.827891 0.592333
Si Si6 0.326207 0.581695 0.500000
O O1 0.500000 0.801234 0.236500
O O2 0.750000 0.750000 0.255665
O O3 0.721088 0.843271 0.182686
O O4 0.702165 0.889334 0.271521
O O5 0.750000 0.750000 0.110924
O O6 0.779419 0.613449 0.092666
O O7 0.000000 0.687744 0.124242
O O8 0.500000 0.904215 0.339596
O O9 0.226590 0.869868 0.360494
O O10 0.284816 0.000000 0.329125
O O11 0.000000 0.887758 0.066455
O O12 0.171813 0.000000 0.054729
O O13 0.207168 0.886559 0.000000
O O14 0.750000 0.750000 0.589148
O O15 0.771724 0.875124 0.546831
O O16 0.000000 0.817870 0.593637
O O17 0.259090 0.500000 0.500000
O O18 0.500000 0.576372 0.500000
#
# Coordination Sequence:
#
# PCOD8271357 Si02
#       6
#    16  16  16  16  16   8
#     4   9  19  35  54  76 104 139 175 214 262 313
#     4  10  20  34  54  79 106 137 175 217 260 310
#     4  10  21  37  56  80 111 143 176 218 268 318
#     4   9  19  36  55  75 103 138 173 213 264 317
#     4  11  22  37  58  82 110 144 183 223 265 316
#     4   9  19  36  57  81 110 143 178 221 270 316
#
# _framework density 18.883543
#
# number of rings (size 3 to 8) (size 9 to 14) (size 15 to 20)
#    0.000    2.273    0.000    3.000    0.000    5.818 
#    0.000    4.091    0.000    3.273    0.000    0.000 
#    0.000    0.000    0.000    0.000    0.000    0.000 
#
# Total GULP energy -545646.302131 kJ/mol
# GULP energy per Si atom -12401.052321 kJ/mol
# Density = 1.884056 g / cm^3
# Si number density = 18.883543 Si / 1000 Ang^3
#
#
#
# Elastic Constant Matrix: (Units=GPa)
#
#
# Indices 1 2 3 4 5 6 
#
# 1 68.8863 46.0391 45.7113 0.0000 0.0000 0.0000
# 2 46.0391 124.4945 63.1686 0.0000 0.0000 0.0000
# 3 45.7113 63.1686 113.7451 0.0000 0.0000 0.0000
# 4 0.0000 0.0000 0.0000 36.8693 0.0000 0.0000
# 5 0.0000 0.0000 0.0000 0.0000 19.2485 0.0000
# 6 0.0000 0.0000 0.0000 0.0000 0.0000 24.5933
#
#
#
# Elastic Compliance Matrix: (Units=1/GPa)
#
#
# Indices 1 2 3 4 5 6 
#
# 1 0.021860 -0.005049 -0.005981 0.000000 0.000000 0.000000
# 2 -0.005049 0.012350 -0.004830 0.000000 0.000000 0.000000
# 3 -0.005981 -0.004830 0.013877 0.000000 0.000000 0.000000
# 4 0.000000 0.000000 0.000000 0.027123 0.000000 0.000000
# 5 0.000000 0.000000 0.000000 0.000000 0.051952 0.000000
# 6 0.000000 0.000000 0.000000 0.000000 0.000000 0.040661
#
#
# Mechanical properties :
#
#
# Convention : Reuss Voigt Hill
#
# Bulk Modulus (GPa) = 61.09440 68.55152 64.82296
# Shear Modulus (GPa) = 24.39029 26.28935 25.33982
#
# Velocity S-wave (km/s) = 3.59781 3.73525 3.66717
# Velocity P-wave (km/s) = 7.04858 7.41511 7.23416
#
# Compressibility (1/GPa) = 0.01636811
#
# Stress axis : x y z
#
# Youngs Moduli (GPa) = 45.74546 80.96976 72.06038
#
# Poissons Ratio (x) = 0.40884 0.43098
# Poissons Ratio (y) = 0.23098 0.34802
# Poissons Ratio (z) = 0.27360 0.39105
#
# Static dielectric constant tensor:
#      x y z
#    x 3.447230 0.000000 0.000000 
#    y 0.000000 3.465220 0.000000 
#    z 0.000000 0.000000 3.681050 
# 
# 
# High freq. dielectric constant tensor:
#      x y z
#    x 1.725960 0.000000 0.000000 
#    y 0.000000 1.733470 0.000000 
#    z 0.000000 0.000000 1.745160 
# 
# From -- ./inp_files/67496.got.cif
#   From: 2010.03.12/outbox.cif.g09.slc.cpg/sg65_34_cif.got.tgz:67496.got - 2010.04.10 20:52:16.
