data_PCOD8271404
_publ_section_title
;
Structure prediction by ZEFSAII (Michael W. Deem and Ramdas Pophale) SiO2 
 PCOD8271404
Probable space group: C M M M
;
_chemical_formula_sum "Si O2"
_cell_formula_units_Z 88
_cell_length_a 8.883317
_cell_length_b 18.306546
_cell_length_c 27.858984
_cell_angle_alpha 90.000000
_cell_angle_beta 90.000000
_cell_angle_gamma 90.000000
_cell_volume 4530.507412
_symmetry_space_group_name_H-M "C M M M"
_symmetry_group_IT_number 65
_symmetry_cell_setting 'orthorhombic'
loop_
_space_group_symop_operation_xyz
x,y,z
-x,-y,z
x,-y,-z
-x,y,-z
-x,-y,-z
x,y,-z
-x,y,z
x,-y,z
1/2+x,1/2+y,z
1/2-x,1/2-y,z
1/2+x,1/2-y,-z
1/2-x,1/2+y,-z
1/2-x,1/2-y,-z
1/2+x,1/2+y,-z
1/2-x,1/2+y,z
1/2+x,1/2-y,z
loop_
_atom_site_type_symbol
_atom_site_label
_atom_site_fract_x
_atom_site_fract_y
_atom_site_fract_z
Si Si1 0.668555 0.086179 0.446903
Si Si2 0.323970 0.675517 0.369129
Si Si3 0.825060 0.824140 0.261929
Si Si4 0.179118 0.670207 0.087454
Si Si5 0.824326 0.915666 0.171825
Si Si6 0.675488 0.413422 0.000000
O O1 0.718679 0.113717 0.500000
O O2 0.500000 0.114586 0.435878
O O3 0.781512 0.112738 0.406179
O O4 0.671974 0.000000 0.445984
O O5 0.500000 0.686143 0.369242
O O6 0.250000 0.750000 0.387254
O O7 0.266250 0.655254 0.315342
O O8 0.750000 0.750000 0.242649
O O9 0.789186 0.890968 0.226263
O O10 0.000000 0.807377 0.263396
O O11 0.250000 0.750000 0.082617
O O12 0.222894 0.634168 0.137825
O O13 0.244351 0.618497 0.046484
O O14 0.000000 0.676248 0.082900
O O15 0.000000 0.904347 0.158929
O O16 0.777895 0.000000 0.166395
O O17 0.696465 0.500000 0.000000
O O18 0.500000 0.391705 0.000000
#
# Coordination Sequence:
#
# PCOD8271404 Si02
#       6
#    16  16  16  16  16   8
#     4   9  19  36  55  75 103 139 177 220 273 330
#     4  10  20  34  54  80 109 141 180 225 272 324
#     4   9  19  35  55  79 108 144 183 225 273 325
#     4  12  25  41  62  88 119 153 193 237 280 329
#     4  10  21  38  59  84 116 151 186 227 278 332
#     4  11  24  43  66  91 121 155 190 231 282 335
#
# _framework density 19.423873
#
# number of rings (size 3 to 8) (size 9 to 14) (size 15 to 20)
#    0.000    1.909    0.000    4.364    0.000    8.000 
#    0.000    2.727    0.000    0.000    0.000    0.000 
#    0.000    0.000    0.000    0.000    0.000    0.000 
#
# Total GULP energy -545644.228428 kJ/mol
# GULP energy per Si atom -12401.005192 kJ/mol
# Density = 1.937966 g / cm^3
# Si number density = 19.423873 Si / 1000 Ang^3
#
#
#
# Elastic Constant Matrix: (Units=GPa)
#
#
# Indices 1 2 3 4 5 6 
#
# 1 97.3085 47.7761 49.4304 0.0000 0.0000 0.0000
# 2 47.7761 92.6328 48.3247 0.0000 0.0000 0.0000
# 3 49.4304 48.3247 112.6394 0.0000 0.0000 0.0000
# 4 0.0000 0.0000 0.0000 39.7784 0.0000 0.0000
# 5 0.0000 0.0000 0.0000 0.0000 6.1108 0.0000
# 6 0.0000 0.0000 0.0000 0.0000 0.0000 31.1278
#
#
#
# Elastic Compliance Matrix: (Units=1/GPa)
#
#
# Indices 1 2 3 4 5 6 
#
# 1 0.015198 -0.005616 -0.004260 0.000000 0.000000 0.000000
# 2 -0.005616 0.015983 -0.004393 0.000000 0.000000 0.000000
# 3 -0.004260 -0.004393 0.012632 0.000000 0.000000 0.000000
# 4 0.000000 0.000000 0.000000 0.025139 0.000000 0.000000
# 5 0.000000 0.000000 0.000000 0.000000 0.163644 0.000000
# 6 0.000000 0.000000 0.000000 0.000000 0.000000 0.032126
#
#
# Mechanical properties :
#
#
# Convention : Reuss Voigt Hill
#
# Bulk Modulus (GPa) = 65.46342 65.96035 65.71189
# Shear Modulus (GPa) = 16.75875 25.87338 21.31606
#
# Velocity S-wave (km/s) = 2.94052 3.65367 3.31632
# Velocity P-wave (km/s) = 6.73087 7.19939 6.96907
#
# Compressibility (1/GPa) = 0.01527571
#
# Stress axis : x y z
#
# Youngs Moduli (GPa) = 65.79839 62.56479 79.16469
#
# Poissons Ratio (x) = 0.35137 0.33724
# Poissons Ratio (y) = 0.36953 0.34775
# Poissons Ratio (z) = 0.28030 0.27483
#
# Static dielectric constant tensor:
#      x y z
#    x 3.646450 0.000000 0.000000 
#    y 0.000000 3.503470 0.000000 
#    z 0.000000 0.000000 3.873330 
# 
# 
# High freq. dielectric constant tensor:
#      x y z
#    x 1.754630 0.000000 0.000000 
#    y 0.000000 1.754090 0.000000 
#    z 0.000000 0.000000 1.771060 
# 
# From -- ./inp_files/76433.got.cif
#   From: 2010.03.12/outbox.cif.g09.slc.cpg/sg65_39_cif.got.tgz:76433.got - 2010.04.10 20:52:16.
