data_PCOD8271466
_publ_section_title
;
Structure prediction by ZEFSAII (Michael W. Deem and Ramdas Pophale) SiO2 
 PCOD8271466
Probable space group: C M M M
;
_chemical_formula_sum "Si O2"
_cell_formula_units_Z 80
_cell_length_a 18.220890
_cell_length_b 8.936207
_cell_length_c 25.718240
_cell_angle_alpha 90.000000
_cell_angle_beta 90.000000
_cell_angle_gamma 90.000000
_cell_volume 4187.589010
_symmetry_space_group_name_H-M "C M M M"
_symmetry_group_IT_number 65
_symmetry_cell_setting 'orthorhombic'
loop_
_space_group_symop_operation_xyz
x,y,z
-x,-y,z
x,-y,-z
-x,y,-z
-x,-y,-z
x,y,-z
-x,y,z
x,-y,z
1/2+x,1/2+y,z
1/2-x,1/2-y,z
1/2+x,1/2-y,-z
1/2-x,1/2+y,-z
1/2-x,1/2-y,-z
1/2+x,1/2+y,-z
1/2-x,1/2+y,z
1/2+x,1/2-y,z
loop_
_atom_site_type_symbol
_atom_site_label
_atom_site_fract_x
_atom_site_fract_y
_atom_site_fract_z
Si Si1 0.912998 0.834661 0.206292
Si Si2 0.170815 0.822823 0.600254
Si Si3 0.917522 0.822271 0.500000
Si Si4 0.585336 0.674226 0.090820
Si Si5 0.828367 0.324273 0.000000
Si Si6 0.413533 0.828348 0.692022
O O1 0.885909 0.785505 0.148990
O O2 0.887013 0.717695 0.250115
O O3 0.000000 0.842985 0.204220
O O4 0.882212 0.000000 0.220106
O O5 0.250000 0.750000 0.598370
O O6 0.124849 0.763839 0.550830
O O7 0.128225 0.775838 0.651757
O O8 0.179642 0.000000 0.599452
O O9 0.000000 0.755561 0.500000
O O10 0.921011 0.000000 0.500000
O O11 0.500000 0.712375 0.084722
O O12 0.599594 0.500000 0.078622
O O13 0.628844 0.777016 0.051434
O O14 0.750000 0.250000 0.000000
O O15 0.818401 0.500000 0.000000
O O16 0.500000 0.801310 0.685251
O O17 0.391957 0.000000 0.682689
#
# Coordination Sequence:
#
# PCOD8271466 Si02
#       6
#    16  16   8  16   8  16
#     4   8  15  30  54  82 109 140 178 219 266 318
#     4  11  22  37  57  80 111 147 183 224 269 321
#     4   9  19  36  59  85 108 137 180 225 270 322
#     4   9  18  35  59  84 110 140 176 220 269 322
#     4  12  25  38  53  75 107 145 183 224 271 324
#     4  10  20  34  54  82 114 145 180 223 268 316
#
# _framework density 19.104073
#
# number of rings (size 3 to 8) (size 9 to 14) (size 15 to 20)
#    0.000    2.300    0.000    4.500    0.000    4.400 
#    0.000    4.500    0.000    8.400    0.000    0.000 
#    0.000    0.000    0.000    0.000    0.000    0.000 
#
# Total GULP energy -495987.245190 kJ/mol
# GULP energy per Si atom -12399.681130 kJ/mol
# Density = 1.906059 g / cm^3
# Si number density = 19.104073 Si / 1000 Ang^3
#
#
#
# Elastic Constant Matrix: (Units=GPa)
#
#
# Indices 1 2 3 4 5 6 
#
# 1 83.4754 51.2331 60.7021 0.0000 0.0000 0.0000
# 2 51.2331 95.5962 58.3766 0.0000 0.0000 0.0000
# 3 60.7021 58.3766 154.7812 0.0000 0.0000 0.0000
# 4 0.0000 0.0000 0.0000 23.9461 0.0000 0.0000
# 5 0.0000 0.0000 0.0000 0.0000 -7.3375 0.0000
# 6 0.0000 0.0000 0.0000 0.0000 0.0000 23.7752
#
#
#
# Elastic Compliance Matrix: (Units=1/GPa)
#
#
# Indices 1 2 3 4 5 6 
#
# 1 0.020511 -0.007900 -0.005065 0.000000 0.000000 0.000000
# 2 -0.007900 0.016633 -0.003175 0.000000 0.000000 0.000000
# 3 -0.005065 -0.003175 0.009645 0.000000 0.000000 0.000000
# 4 0.000000 0.000000 0.000000 0.041761 0.000000 0.000000
# 5 0.000000 0.000000 0.000000 0.000000 -0.136285 0.000000
# 6 0.000000 0.000000 0.000000 0.000000 0.000000 0.042061
#
#
# Mechanical properties :
#
#
# Convention : Reuss Voigt Hill
#
# Bulk Modulus (GPa) = 68.91929 74.94182 71.93056
# Shear Modulus (GPa) = 159.03102 18.97947 89.00524
#
# Velocity S-wave (km/s) = 9.13374 3.15537 6.83307
# Velocity P-wave (km/s) = 12.14033 7.25179 9.99941
#
# Compressibility (1/GPa) = 0.01450972
#
# Stress axis : x y z
#
# Youngs Moduli (GPa) = 48.75448 60.11993 103.68596
#
# Poissons Ratio (x) = 0.47493 0.52512
# Poissons Ratio (y) = 0.38515 0.32923
# Poissons Ratio (z) = 0.24692 0.19090
#
# Static dielectric constant tensor:
#      x y z
#    x 3.343720 0.000000 0.000000 
#    y 0.000000 3.414360 0.000000 
#    z 0.000000 0.000000 3.990400 
# 
# 
# High freq. dielectric constant tensor:
#      x y z
#    x 1.721470 0.000000 0.000000 
#    y 0.000000 1.734540 0.000000 
#    z 0.000000 0.000000 1.762240 
# 
# From -- ./inp_files/75044.got.cif
#   From: 2010.03.12/outbox.cif.g09.slc.cpg/sg65_38_cif.got.tgz:75044.got - 2010.04.10 20:52:16.
