data_PCOD8271183
_publ_section_title
;
Structure prediction by ZEFSAII (Michael W. Deem and Ramdas Pophale) SiO2 
 PCOD8271183
Probable space group: C M M M
;
_chemical_formula_sum "Si O2"
_cell_formula_units_Z 104
_cell_length_a 9.222474
_cell_length_b 19.841231
_cell_length_c 31.907101
_cell_angle_alpha 90.000000
_cell_angle_beta 90.000000
_cell_angle_gamma 90.000000
_cell_volume 5838.528439
_symmetry_space_group_name_H-M "C M M M"
_symmetry_group_IT_number 65
_symmetry_cell_setting 'orthorhombic'
loop_
_space_group_symop_operation_xyz
x,y,z
-x,-y,z
x,-y,-z
-x,y,-z
-x,-y,-z
x,y,-z
-x,y,z
x,-y,z
1/2+x,1/2+y,z
1/2-x,1/2-y,z
1/2+x,1/2-y,-z
1/2-x,1/2+y,-z
1/2-x,1/2-y,-z
1/2+x,1/2+y,-z
1/2-x,1/2+y,z
1/2+x,1/2-y,z
loop_
_atom_site_type_symbol
_atom_site_label
_atom_site_fract_x
_atom_site_fract_y
_atom_site_fract_z
Si Si1 0.668793 0.183084 0.548592
Si Si2 0.665313 0.578166 0.397377
Si Si3 0.834590 0.921790 0.300807
Si Si4 0.668519 0.816257 0.149827
Si Si5 0.829699 0.317562 0.245790
Si Si6 0.830698 0.422779 0.081338
Si Si7 0.836385 0.080121 0.000000
O O1 0.701644 0.169377 0.500000
O O2 0.500000 0.193177 0.557443
O O3 0.750000 0.250000 0.564293
O O4 0.724916 0.119426 0.574165
O O5 0.500000 0.595247 0.409880
O O6 0.697782 0.500000 0.405271
O O7 0.692549 0.596818 0.349099
O O8 0.723884 0.880176 0.272781
O O9 0.000000 0.904668 0.288345
O O10 0.802122 0.000000 0.292882
O O11 0.500000 0.800850 0.145356
O O12 0.750000 0.750000 0.133573
O O13 0.710436 0.833065 0.197605
O O14 0.715404 0.879879 0.121845
O O15 0.750000 0.250000 0.261235
O O16 0.000000 0.307833 0.252482
O O17 0.788119 0.500000 0.090900
O O18 0.000000 0.416127 0.071194
O O19 0.744871 0.393437 0.041399
O O20 0.000000 0.108000 0.000000
O O21 0.832090 0.000000 0.000000
#
# Coordination Sequence:
#
# PCOD8271183 Si02
#       7
#    16  16  16  16  16  16   8
#     4  10  21  36  54  77 105 136 171 212 255 299
#     4   9  19  36  56  77 103 136 171 207 251 303
#     4   9  19  36  55  76 104 135 168 209 254 299
#     4   9  19  34  51  72  99 130 163 202 245 291
#     4  10  20  34  53  76 102 134 171 209 251 300
#     4   9  17  31  51  72  95 126 162 198 240 290
#     4   9  17  29  46  71 100 125 155 199 244 285
#
# _framework density 17.812708000000001
#
# number of rings (size 3 to 8) (size 9 to 14) (size 15 to 20)
#    0.000    2.692    0.000    2.077    0.000    5.846 
#    0.000    5.000    0.000    1.846    0.000    0.000 
#    0.000    0.000    0.000    0.000    0.000    0.000 
#
# Total GULP energy -644920.070944 kJ/mol
# GULP energy per Si atom -12402.309057 kJ/mol
# Density = 1.777217 g / cm^3
# Si number density = 17.812708 Si / 1000 Ang^3
#
#
#
# Elastic Constant Matrix: (Units=GPa)
#
#
# Indices 1 2 3 4 5 6 
#
# 1 89.0608 56.4448 55.4732 0.0000 0.0000 0.0000
# 2 56.4448 94.7774 63.4468 0.0000 0.0000 0.0000
# 3 55.4732 63.4468 86.7964 0.0000 0.0000 0.0000
# 4 0.0000 0.0000 0.0000 11.5545 0.0000 0.0000
# 5 0.0000 0.0000 0.0000 0.0000 28.1595 0.0000
# 6 0.0000 0.0000 0.0000 0.0000 0.0000 34.6247
#
#
#
# Elastic Compliance Matrix: (Units=1/GPa)
#
#
# Indices 1 2 3 4 5 6 
#
# 1 0.020667 -0.006787 -0.008247 0.000000 0.000000 0.000000
# 2 -0.006787 0.022891 -0.012395 0.000000 0.000000 0.000000
# 3 -0.008247 -0.012395 0.025853 0.000000 0.000000 0.000000
# 4 0.000000 0.000000 0.000000 0.086547 0.000000 0.000000
# 5 0.000000 0.000000 0.000000 0.000000 0.035512 0.000000
# 6 0.000000 0.000000 0.000000 0.000000 0.000000 0.028881
#
#
# Mechanical properties :
#
#
# Convention : Reuss Voigt Hill
#
# Bulk Modulus (GPa) = 68.72144 69.04048 68.88096
# Shear Modulus (GPa) = 17.85340 21.21906 19.53623
#
# Velocity S-wave (km/s) = 3.16932 3.45517 3.31533
# Velocity P-wave (km/s) = 7.21502 7.40006 7.30813
#
# Compressibility (1/GPa) = 0.01455150
#
# Stress axis : x y z
#
# Youngs Moduli (GPa) = 48.38678 43.68597 38.68090
#
# Poissons Ratio (x) = 0.29651 0.31901
# Poissons Ratio (y) = 0.32841 0.47944
# Poissons Ratio (z) = 0.39905 0.54148
#
# Static dielectric constant tensor:
#      x y z
#    x 3.295500 0.000000 0.000000 
#    y 0.000000 3.209720 0.000000 
#    z 0.000000 0.000000 3.308680 
# 
# 
# High freq. dielectric constant tensor:
#      x y z
#    x 1.692430 0.000000 0.000000 
#    y 0.000000 1.682020 0.000000 
#    z 0.000000 0.000000 1.688920 
# 
# From -- ./inp_files/76878.got.cif
#   From: 2010.03.12/outbox.cif.g09.slc.cpg/sg65_39_cif.got.tgz:76878.got - 2010.04.10 20:52:16.
