data_PCOD8271919
_publ_section_title
;
Structure prediction by ZEFSAII (Michael W. Deem and Ramdas Pophale) SiO2 
 PCOD8271919
Probable space group: C M M M
;
_chemical_formula_sum "Si O2"
_cell_formula_units_Z 72
_cell_length_a 10.392502
_cell_length_b 14.039359
_cell_length_c 25.193444
_cell_angle_alpha 90.000000
_cell_angle_beta 90.000000
_cell_angle_gamma 90.000000
_cell_volume 3675.825928
_symmetry_space_group_name_H-M "C M M M"
_symmetry_group_IT_number 65
_symmetry_cell_setting 'orthorhombic'
loop_
_space_group_symop_operation_xyz
x,y,z
-x,-y,z
x,-y,-z
-x,y,-z
-x,-y,-z
x,y,-z
-x,y,z
x,-y,z
1/2+x,1/2+y,z
1/2-x,1/2-y,z
1/2+x,1/2-y,-z
1/2-x,1/2+y,-z
1/2-x,1/2-y,-z
1/2+x,1/2+y,-z
1/2-x,1/2+y,z
1/2+x,1/2-y,z
loop_
_atom_site_type_symbol
_atom_site_label
_atom_site_fract_x
_atom_site_fract_y
_atom_site_fract_z
Si Si1 0.352284 0.175431 0.371357
Si Si2 0.750000 0.250000 0.914115
Si Si3 0.647851 0.892901 0.000000
Si Si4 0.349348 0.000000 0.558507
Si Si5 0.644779 0.390211 0.831875
Si Si6 0.643267 0.111149 0.746783
O O1 0.500000 0.205161 0.382900
O O2 0.250000 0.250000 0.391880
O O3 0.306951 0.087916 0.406350
O O4 0.332168 0.160604 0.308941
O O5 0.652354 0.314304 0.879638
O O6 0.678049 0.170485 0.948620
O O7 0.500000 0.914987 0.000000
O O8 0.715016 0.000000 0.000000
O O9 0.500000 0.000000 0.550340
O O10 0.283162 0.000000 0.500000
O O11 0.500000 0.385030 0.808425
O O12 0.674304 0.500000 0.850046
O O13 0.747709 0.355897 0.788052
O O14 0.500000 0.136979 0.768935
O O15 0.653546 0.000000 0.736178
#
# Coordination Sequence:
#
# PCOD8271919 Si02
#       6
#    16   8   8   8  16  16
#     4  10  20  35  56  84 114 148 194 241 290 346
#     4  11  22  38  60  86 116 150 187 232 286 344
#     4  10  22  40  62  86 112 146 191 237 282 333
#     4   9  18  36  61  83 111 155 201 244 293 354
#     4  10  22  38  56  83 118 152 189 232 281 340
#     4   9  18  35  57  80 112 154 194 234 280 339
#
# _framework density 19.587436
#
# number of rings (size 3 to 8) (size 9 to 14) (size 15 to 20)
#    0.000    2.222    1.111    1.333    1.556    3.111 
#    0.000    2.778    0.000    6.000    0.000    0.000 
#    0.000    0.000    0.000    0.000    0.000    0.000 
#
# Total GULP energy -446060.876134 kJ/mol
# GULP energy per Si atom -12390.579893 kJ/mol
# Density = 1.954285 g / cm^3
# Si number density = 19.587436 Si / 1000 Ang^3
#
#
#
# Elastic Constant Matrix: (Units=GPa)
#
#
# Indices 1 2 3 4 5 6 
#
# 1 118.3648 62.3007 59.4258 0.0000 0.0000 0.0000
# 2 62.3007 134.2215 62.6588 0.0000 0.0000 0.0000
# 3 59.4258 62.6588 85.0009 0.0000 0.0000 0.0000
# 4 0.0000 0.0000 0.0000 85.9056 0.0000 0.0000
# 5 0.0000 0.0000 0.0000 0.0000 6.0990 0.0000
# 6 0.0000 0.0000 0.0000 0.0000 0.0000 27.1184
#
#
#
# Elastic Compliance Matrix: (Units=1/GPa)
#
#
# Indices 1 2 3 4 5 6 
#
# 1 0.013711 -0.002881 -0.007462 0.000000 0.000000 0.000000
# 2 -0.002881 0.011965 -0.006806 0.000000 0.000000 0.000000
# 3 -0.007462 -0.006806 0.021999 0.000000 0.000000 0.000000
# 4 0.000000 0.000000 0.000000 0.011641 0.000000 0.000000
# 5 0.000000 0.000000 0.000000 0.000000 0.163961 0.000000
# 6 0.000000 0.000000 0.000000 0.000000 0.000000 0.036875
#
#
# Mechanical properties :
#
#
# Convention : Reuss Voigt Hill
#
# Bulk Modulus (GPa) = 74.75614 78.48419 76.62017
# Shear Modulus (GPa) = 16.72754 34.03805 25.38280
#
# Velocity S-wave (km/s) = 2.92549 4.17315 3.60373
# Velocity P-wave (km/s) = 7.04695 7.96090 7.51783
#
# Compressibility (1/GPa) = 0.01337683
#
# Stress axis : x y z
#
# Youngs Moduli (GPa) = 72.93352 83.57953 45.45737
#
# Poissons Ratio (x) = 0.24076 0.33922
# Poissons Ratio (y) = 0.21009 0.30938
# Poissons Ratio (z) = 0.54425 0.56884
#
# Static dielectric constant tensor:
#      x y z
#    x 3.476900 0.000000 0.000000 
#    y 0.000000 3.977800 0.000000 
#    z 0.000000 0.000000 3.635840 
# 
# 
# High freq. dielectric constant tensor:
#      x y z
#    x 1.749730 0.000000 0.000000 
#    y 0.000000 1.778580 0.000000 
#    z 0.000000 0.000000 1.755160 
# 
# From -- ./inp_files/72580.got.cif
#   From: 2010.03.12/outbox.cif.g09.slc.cpg/sg65_37_cif.got.tgz:72580.got - 2010.04.10 20:52:16.
