data_PCOD8271701
_publ_section_title
;
Structure prediction by ZEFSAII (Michael W. Deem and Ramdas Pophale) SiO2 
 PCOD8271701
Probable space group: C M M M
;
_chemical_formula_sum "Si O2"
_cell_formula_units_Z 60
_cell_length_a 11.549685
_cell_length_b 25.827098
_cell_length_c 12.394051
_cell_angle_alpha 90.000000
_cell_angle_beta 90.000000
_cell_angle_gamma 90.000000
_cell_volume 3697.081539
_symmetry_space_group_name_H-M "C M M M"
_symmetry_group_IT_number 65
_symmetry_cell_setting 'orthorhombic'
loop_
_space_group_symop_operation_xyz
x,y,z
-x,-y,z
x,-y,-z
-x,y,-z
-x,-y,-z
x,y,-z
-x,y,z
x,-y,z
1/2+x,1/2+y,z
1/2-x,1/2-y,z
1/2+x,1/2-y,-z
1/2-x,1/2+y,-z
1/2-x,1/2-y,-z
1/2+x,1/2+y,-z
1/2-x,1/2+y,z
1/2+x,1/2-y,z
loop_
_atom_site_type_symbol
_atom_site_label
_atom_site_fract_x
_atom_site_fract_y
_atom_site_fract_z
Si Si1 0.720502 0.393765 0.697418
Si Si2 0.000000 0.838257 0.623351
Si Si3 0.000000 0.260264 0.500000
Si Si4 0.365579 0.059632 0.124766
Si Si5 0.864702 0.000000 0.617617
Si Si6 0.873048 0.640199 0.500000
O O1 0.612651 0.354044 0.692895
O O2 0.788780 0.397759 0.810730
O O3 0.672013 0.450479 0.682847
O O4 0.809052 0.377647 0.605994
O O5 0.000000 0.776011 0.607186
O O6 0.000000 0.863803 0.500000
O O7 0.885852 0.296892 0.500000
O O8 0.500000 0.071692 0.147174
O O9 0.339198 0.000000 0.158811
O O10 0.335142 0.067553 0.000000
O O11 0.804495 0.000000 0.500000
O O12 0.000000 0.000000 0.603349
O O13 0.000000 0.613871 0.500000
#
# Coordination Sequence:
#
# PCOD8271701 Si02
#       6
#    16   8   4  16   8   8
#     4  12  19  32  53  79 105 143 181 207 256 316
#     4  10  20  35  55  74 102 146 176 207 265 329
#     4   8  22  40  48  76 110 134 170 226 276 324
#     4   9  19  35  52  73 108 150 182 211 251 302
#     4  11  20  30  45  74 115 151 170 202 247 320
#     4  10  21  34  50  76 107 128 173 226 266 314
#
# _framework density 16.229016999999999
#
# number of rings (size 3 to 8) (size 9 to 14) (size 15 to 20)
#    0.800    0.933    5.333    1.600    0.000    2.133 
#    0.000    1.333    0.000    2.400    0.000    5.600 
#    0.000    0.000    0.000    0.000    0.000    0.000 
#
# Total GULP energy -371705.969642 kJ/mol
# GULP energy per Si atom -12390.198988 kJ/mol
# Density = 1.619208 g / cm^3
# Si number density = 16.229017 Si / 1000 Ang^3
#
#
#
# Elastic Constant Matrix: (Units=GPa)
#
#
# Indices 1 2 3 4 5 6 
#
# 1 101.2120 24.5916 45.5320 0.0000 0.0000 0.0000
# 2 24.5916 70.2424 23.7973 0.0000 0.0000 0.0000
# 3 45.5320 23.7973 86.8617 0.0000 0.0000 0.0000
# 4 0.0000 0.0000 0.0000 -8.3187 0.0000 0.0000
# 5 0.0000 0.0000 0.0000 0.0000 23.1040 0.0000
# 6 0.0000 0.0000 0.0000 0.0000 0.0000 86.3036
#
#
#
# Elastic Compliance Matrix: (Units=1/GPa)
#
#
# Indices 1 2 3 4 5 6 
#
# 1 0.013326 -0.002534 -0.006291 0.000000 0.000000 0.000000
# 2 -0.002534 0.016175 -0.003103 0.000000 0.000000 0.000000
# 3 -0.006291 -0.003103 0.015660 0.000000 0.000000 0.000000
# 4 0.000000 0.000000 0.000000 -0.120211 0.000000 0.000000
# 5 0.000000 0.000000 0.000000 0.000000 0.043283 0.000000
# 6 0.000000 0.000000 0.000000 0.000000 0.000000 0.011587
#
#
# Mechanical properties :
#
#
# Convention : Reuss Voigt Hill
#
# Bulk Modulus (GPa) = 46.93759 49.57308 48.25534
# Shear Modulus (GPa) = 463.91887 31.17747 247.54817
#
# Velocity S-wave (km/s) = 16.92567 4.38778 12.36388
# Velocity P-wave (km/s) = 20.27204 7.50216 15.28460
#
# Compressibility (1/GPa) = 0.02130488
#
# Stress axis : x y z
#
# Youngs Moduli (GPa) = 75.04040 61.82433 63.85510
#
# Poissons Ratio (x) = 0.15667 0.40172
# Poissons Ratio (y) = 0.19016 0.19815
# Poissons Ratio (z) = 0.47209 0.19184
#
# Static dielectric constant tensor:
#      x y z
#    x 3.189670 0.000000 0.000000 
#    y 0.000000 2.930760 0.000000 
#    z 0.000000 0.000000 3.366400 
# 
# 
# High freq. dielectric constant tensor:
#      x y z
#    x 1.635110 0.000000 0.000000 
#    y 0.000000 1.605150 0.000000 
#    z 0.000000 0.000000 1.600370 
# 
# From -- ./inp_files/22676.got.cif
#   From: 2010.03.12/outbox.cif.g09.slc.cpg/sg65_12_cif.got.tgz:22676.got - 2010.04.10 20:52:16.
