data_PCOD8271561
_publ_section_title
;
Structure prediction by ZEFSAII (Michael W. Deem and Ramdas Pophale) SiO2 
 PCOD8271561
Probable space group: C M M M
;
_chemical_formula_sum "Si O2"
_cell_formula_units_Z 72
_cell_length_a 16.897851
_cell_length_b 20.472288
_cell_length_c 11.782430
_cell_angle_alpha 90.000000
_cell_angle_beta 90.000000
_cell_angle_gamma 90.000000
_cell_volume 4075.986408
_symmetry_space_group_name_H-M "C M M M"
_symmetry_group_IT_number 65
_symmetry_cell_setting 'orthorhombic'
loop_
_space_group_symop_operation_xyz
x,y,z
-x,-y,z
x,-y,-z
-x,y,-z
-x,-y,-z
x,y,-z
-x,y,z
x,-y,z
1/2+x,1/2+y,z
1/2-x,1/2-y,z
1/2+x,1/2-y,-z
1/2-x,1/2+y,-z
1/2-x,1/2-y,-z
1/2+x,1/2+y,-z
1/2-x,1/2+y,z
1/2+x,1/2-y,z
loop_
_atom_site_type_symbol
_atom_site_label
_atom_site_fract_x
_atom_site_fract_y
_atom_site_fract_z
Si Si1 0.910405 0.171338 0.500000
Si Si2 0.910728 0.257539 0.718451
Si Si3 0.265387 0.573250 0.500000
Si Si4 0.594115 0.000000 0.864914
Si Si5 0.804304 0.813552 0.125491
Si Si6 0.313583 0.888431 0.267895
O O1 0.896258 0.217550 0.605534
O O2 0.844550 0.115789 0.500000
O O3 0.000000 0.141773 0.500000
O O4 0.886874 0.209234 0.820507
O O5 0.859777 0.322190 0.709946
O O6 0.000000 0.279570 0.737175
O O7 0.297108 0.500000 0.500000
O O8 0.210732 0.583180 0.389530
O O9 0.631808 0.063239 0.805290
O O10 0.500000 0.000000 0.843842
O O11 0.612562 0.000000 0.000000
O O12 0.750000 0.750000 0.122479
O O13 0.765337 0.872419 0.196448
O O14 0.820710 0.840661 0.000000
#
# Coordination Sequence:
#
# PCOD8271561 Si02
#       6
#     8  16   8   8  16  16
#     4  10  21  38  59  86 115 145 185 236 299 352
#     4  10  20  34  56  84 115 148 185 234 292 344
#     4  12  23  38  61  87 110 150 191 238 288 344
#     4  11  24  41  59  81 117 163 200 230 273 333
#     4   9  18  32  53  80 108 142 188 236 280 329
#     4  11  21  37  57  84 114 151 195 240 280 338
#
# _framework density 17.664437
#
# number of rings (size 3 to 8) (size 9 to 14) (size 15 to 20)
#    0.000    1.667    3.333    2.000    0.000    2.444 
#    0.000    2.222    0.000    0.000    0.000    0.000 
#    0.000    7.111    0.000    0.000    0.000    0.000 
#
# Total GULP energy -446323.878976 kJ/mol
# GULP energy per Si atom -12397.885527 kJ/mol
# Density = 1.762423 g / cm^3
# Si number density = 17.664437 Si / 1000 Ang^3
#
#
#
# Elastic Constant Matrix: (Units=GPa)
#
#
# Indices 1 2 3 4 5 6 
#
# 1 90.3325 58.6601 50.6762 0.0000 0.0000 0.0000
# 2 58.6601 91.6407 45.3966 0.0000 0.0000 0.0000
# 3 50.6762 45.3966 146.2977 0.0000 0.0000 0.0000
# 4 0.0000 0.0000 0.0000 -16.5850 0.0000 0.0000
# 5 0.0000 0.0000 0.0000 0.0000 31.6533 0.0000
# 6 0.0000 0.0000 0.0000 0.0000 0.0000 26.5117
#
#
#
# Elastic Compliance Matrix: (Units=1/GPa)
#
#
# Indices 1 2 3 4 5 6 
#
# 1 0.020404 -0.011296 -0.003563 0.000000 0.000000 0.000000
# 2 -0.011296 0.019148 -0.002029 0.000000 0.000000 0.000000
# 3 -0.003563 -0.002029 0.008699 0.000000 0.000000 0.000000
# 4 0.000000 0.000000 0.000000 -0.060295 0.000000 0.000000
# 5 0.000000 0.000000 0.000000 0.000000 0.031592 0.000000
# 6 0.000000 0.000000 0.000000 0.000000 0.000000 0.037719
#
#
# Mechanical properties :
#
#
# Convention : Reuss Voigt Hill
#
# Bulk Modulus (GPa) = 69.07933 70.85964 69.96949
# Shear Modulus (GPa) = 52.15510 19.88521 36.02015
#
# Velocity S-wave (km/s) = 5.43963 3.35881 4.52058
# Velocity P-wave (km/s) = 8.86815 7.43260 8.18192
#
# Compressibility (1/GPa) = 0.01447611
#
# Stress axis : x y z
#
# Youngs Moduli (GPa) = 49.00916 52.22487 114.95597
#
# Poissons Ratio (x) = 0.58994 0.40955
# Poissons Ratio (y) = 0.55362 0.23322
# Poissons Ratio (z) = 0.17460 0.10595
#
# Static dielectric constant tensor:
#      x y z
#    x 3.334360 0.000000 0.000000 
#    y 0.000000 3.202080 0.000000 
#    z 0.000000 0.000000 3.581970 
# 
# 
# High freq. dielectric constant tensor:
#      x y z
#    x 1.680920 0.000000 0.000000 
#    y 0.000000 1.674690 0.000000 
#    z 0.000000 0.000000 1.702510 
# 
# From -- ./inp_files/26361.got.cif
#   From: 2010.03.12/outbox.cif.g09.slc.cpg/sg65_14_cif.got.tgz:26361.got - 2010.04.10 20:52:16.
