data_PCOD8271401
_publ_section_title
;
Structure prediction by ZEFSAII (Michael W. Deem and Ramdas Pophale) SiO2 
 PCOD8271401
Probable space group: C M M M
;
_chemical_formula_sum "Si O2"
_cell_formula_units_Z 88
_cell_length_a 9.282353
_cell_length_b 17.855878
_cell_length_c 28.389043
_cell_angle_alpha 90.000000
_cell_angle_beta 90.000000
_cell_angle_gamma 90.000000
_cell_volume 4705.329518
_symmetry_space_group_name_H-M "C M M M"
_symmetry_group_IT_number 65
_symmetry_cell_setting 'orthorhombic'
loop_
_space_group_symop_operation_xyz
x,y,z
-x,-y,z
x,-y,-z
-x,y,-z
-x,-y,-z
x,y,-z
-x,y,z
x,-y,z
1/2+x,1/2+y,z
1/2-x,1/2-y,z
1/2+x,1/2-y,-z
1/2-x,1/2+y,-z
1/2-x,1/2-y,-z
1/2+x,1/2+y,-z
1/2-x,1/2+y,z
1/2+x,1/2-y,z
loop_
_atom_site_type_symbol
_atom_site_label
_atom_site_fract_x
_atom_site_fract_y
_atom_site_fract_z
Si Si1 0.328667 0.916014 0.000000
Si Si2 0.168196 0.327256 0.908945
Si Si3 0.837519 0.411008 0.551537
Si Si4 0.829112 0.171697 0.265716
Si Si5 0.168539 0.914610 0.640663
Si Si6 0.835906 0.412318 0.813425
O O1 0.272663 0.872594 0.953937
O O2 0.500000 0.920401 0.000000
O O3 0.264343 0.000000 0.000000
O O4 0.250000 0.250000 0.904416
O O5 0.202096 0.375731 0.863103
O O6 0.000000 0.310134 0.914335
O O7 0.783548 0.382250 0.500000
O O8 0.829920 0.500000 0.551895
O O9 0.740149 0.379228 0.593798
O O10 0.000000 0.383407 0.560167
O O11 0.750000 0.250000 0.259997
O O12 0.784286 0.135468 0.315347
O O13 0.775889 0.116793 0.225042
O O14 0.000000 0.182615 0.261317
O O15 0.000000 0.912093 0.632342
O O16 0.220272 0.000000 0.649805
O O17 0.813604 0.500000 0.819255
O O18 0.000000 0.393141 0.798230
#
# Coordination Sequence:
#
# PCOD8271401 Si02
#       6
#     8  16  16  16  16  16
#     4   9  17  32  55  79 104 139 182 224 264 307
#     4  10  20  34  54  80 109 141 177 217 262 314
#     4   8  14  25  43  70 102 132 163 202 249 301
#     4  11  23  38  55  76 104 138 176 217 263 315
#     4   9  18  32  50  73 100 130 166 209 256 306
#     4  10  21  37  57  81 107 136 174 218 263 315
#
# _framework density 18.702197000000002
#
# number of rings (size 3 to 8) (size 9 to 14) (size 15 to 20)
#    0.000    2.455    0.000    3.000    0.000    7.273 
#    0.000    3.636    0.000    2.727    0.000    0.000 
#    0.000    0.000    0.000    0.000    0.000    0.000 
#
# Total GULP energy -545589.546931 kJ/mol
# GULP energy per Si atom -12399.762430 kJ/mol
# Density = 1.865963 g / cm^3
# Si number density = 18.702197 Si / 1000 Ang^3
#
#
#
# Elastic Constant Matrix: (Units=GPa)
#
#
# Indices 1 2 3 4 5 6 
#
# 1 54.9283 39.9553 60.8973 0.0000 0.0000 0.0000
# 2 39.9553 104.9528 61.1088 0.0000 0.0000 0.0000
# 3 60.8973 61.1088 166.2951 0.0000 0.0000 0.0000
# 4 0.0000 0.0000 0.0000 -11.7294 0.0000 0.0000
# 5 0.0000 0.0000 0.0000 0.0000 55.4122 0.0000
# 6 0.0000 0.0000 0.0000 0.0000 0.0000 22.8077
#
#
#
# Elastic Compliance Matrix: (Units=1/GPa)
#
#
# Indices 1 2 3 4 5 6 
#
# 1 0.034623 -0.007377 -0.009968 0.000000 0.000000 0.000000
# 2 -0.007377 0.013693 -0.002331 0.000000 0.000000 0.000000
# 3 -0.009968 -0.002331 0.010520 0.000000 0.000000 0.000000
# 4 0.000000 0.000000 0.000000 -0.085256 0.000000 0.000000
# 5 0.000000 0.000000 0.000000 0.000000 0.018047 0.000000
# 6 0.000000 0.000000 0.000000 0.000000 0.000000 0.043845
#
#
# Mechanical properties :
#
#
# Convention : Reuss Voigt Hill
#
# Bulk Modulus (GPa) = 51.32059 72.23323 61.77691
# Shear Modulus (GPa) = 61.48673 24.24574 42.86623
#
# Velocity S-wave (km/s) = 5.74004 3.60448 4.79272
# Velocity P-wave (km/s) = 8.45171 7.48530 7.98314
#
# Compressibility (1/GPa) = 0.01948536
#
# Stress axis : x y z
#
# Youngs Moduli (GPa) = 28.88257 73.02769 95.05584
#
# Poissons Ratio (x) = 0.53872 0.94753
# Poissons Ratio (y) = 0.21307 0.22153
# Poissons Ratio (z) = 0.28790 0.17019
#
# Static dielectric constant tensor:
#      x y z
#    x 3.360770 0.000000 0.000000 
#    y 0.000000 3.318910 0.000000 
#    z 0.000000 0.000000 3.797290 
# 
# 
# High freq. dielectric constant tensor:
#      x y z
#    x 1.710470 0.000000 0.000000 
#    y 0.000000 1.712830 0.000000 
#    z 0.000000 0.000000 1.745590 
# 
# From -- ./inp_files/76665.got.cif
#   From: 2010.03.12/outbox.cif.g09.slc.cpg/sg65_39_cif.got.tgz:76665.got - 2010.04.10 20:52:16.
