data_PCOD8271563
_publ_section_title
;
Structure prediction by ZEFSAII (Michael W. Deem and Ramdas Pophale) SiO2 
 PCOD8271563
Probable space group: C M M M
;
_chemical_formula_sum "Si O2"
_cell_formula_units_Z 72
_cell_length_a 8.883380
_cell_length_b 26.750496
_cell_length_c 15.678874
_cell_angle_alpha 90.000000
_cell_angle_beta 90.000000
_cell_angle_gamma 90.000000
_cell_volume 3725.846419
_symmetry_space_group_name_H-M "C M M M"
_symmetry_group_IT_number 65
_symmetry_cell_setting 'orthorhombic'
loop_
_space_group_symop_operation_xyz
x,y,z
-x,-y,z
x,-y,-z
-x,y,-z
-x,-y,-z
x,y,-z
-x,y,z
x,-y,z
1/2+x,1/2+y,z
1/2-x,1/2-y,z
1/2+x,1/2-y,-z
1/2-x,1/2+y,-z
1/2-x,1/2-y,-z
1/2+x,1/2+y,-z
1/2-x,1/2+y,z
1/2+x,1/2-y,z
loop_
_atom_site_type_symbol
_atom_site_label
_atom_site_fract_x
_atom_site_fract_y
_atom_site_fract_z
Si Si1 0.678593 0.106136 0.827753
Si Si2 0.177980 0.802975 0.500000
Si Si3 0.676787 0.947243 0.500000
Si Si4 0.821169 0.500000 0.902269
Si Si5 0.677499 0.129445 0.363558
Si Si6 0.167075 0.201211 0.900342
O O1 0.500000 0.107058 0.836318
O O2 0.731477 0.120247 0.732580
O O3 0.744697 0.149410 0.887201
O O4 0.738086 0.050769 0.855472
O O5 0.250000 0.750000 0.500000
O O6 0.233839 0.826848 0.411166
O O7 0.000000 0.801405 0.500000
O O8 0.500000 0.954215 0.500000
O O9 0.724817 0.920096 0.586133
O O10 0.761382 0.000000 0.500000
O O11 0.000000 0.500000 0.899935
O O12 0.762983 0.500000 0.000000
O O13 0.500000 0.140897 0.369193
O O14 0.250000 0.250000 0.859470
O O15 0.000000 0.197659 0.859617
O O16 0.153236 0.210202 0.000000
#
# Coordination Sequence:
#
# PCOD8271563 Si02
#       6
#    16   8   8   8  16  16
#     4  10  20  34  56  84 117 151 188 234 281 333
#     4  11  22  38  60  80 107 146 184 226 279 336
#     4   8  14  26  49  75 102 134 168 212 256 299
#     4   9  18  32  53  84 119 154 192 235 283 333
#     4   9  19  34  52  81 112 140 180 223 267 321
#     4  10  21  37  57  80 107 142 185 233 286 341
#
# _framework density 19.324470000000002
#
# number of rings (size 3 to 8) (size 9 to 14) (size 15 to 20)
#    0.000    2.444    0.000    3.000    1.556    4.000 
#    0.000    0.556    0.000    7.333    0.000    0.000 
#    0.000    0.000    0.000    0.000    0.000    0.000 
#
# Total GULP energy -446133.163196 kJ/mol
# GULP energy per Si atom -12392.587867 kJ/mol
# Density = 1.928049 g / cm^3
# Si number density = 19.324470 Si / 1000 Ang^3
#
#
#
# Elastic Constant Matrix: (Units=GPa)
#
#
# Indices 1 2 3 4 5 6 
#
# 1 60.0731 48.6304 34.4506 0.0000 0.0000 0.0000
# 2 48.6304 184.9928 47.3102 0.0000 0.0000 0.0000
# 3 34.4506 47.3102 97.1364 0.0000 0.0000 0.0000
# 4 0.0000 0.0000 0.0000 19.9808 0.0000 0.0000
# 5 0.0000 0.0000 0.0000 0.0000 20.6508 0.0000
# 6 0.0000 0.0000 0.0000 0.0000 0.0000 22.9670
#
#
#
# Elastic Compliance Matrix: (Units=1/GPa)
#
#
# Indices 1 2 3 4 5 6 
#
# 1 0.024044 -0.004729 -0.006224 0.000000 0.000000 0.000000
# 2 -0.004729 0.007105 -0.001783 0.000000 0.000000 0.000000
# 3 -0.006224 -0.001783 0.013371 0.000000 0.000000 0.000000
# 4 0.000000 0.000000 0.000000 0.050048 0.000000 0.000000
# 5 0.000000 0.000000 0.000000 0.000000 0.048424 0.000000
# 6 0.000000 0.000000 0.000000 0.000000 0.000000 0.043541
#
#
# Mechanical properties :
#
#
# Convention : Reuss Voigt Hill
#
# Bulk Modulus (GPa) = 52.50214 66.99831 59.75022
# Shear Modulus (GPa) = 22.89855 26.84045 24.86950
#
# Velocity S-wave (km/s) = 3.44605 3.73089 3.59129
# Velocity P-wave (km/s) = 6.56212 7.30101 6.94140
#
# Compressibility (1/GPa) = 0.01904684
#
# Stress axis : x y z
#
# Youngs Moduli (GPa) = 41.59055 140.75080 74.78954
#
# Poissons Ratio (x) = 0.66558 0.46551
# Poissons Ratio (y) = 0.19667 0.13337
# Poissons Ratio (z) = 0.25887 0.25099
#
# Static dielectric constant tensor:
#      x y z
#    x 3.349050 0.000000 0.000000 
#    y 0.000000 3.835470 0.000000 
#    z 0.000000 0.000000 3.518080 
# 
# 
# High freq. dielectric constant tensor:
#      x y z
#    x 1.722860 0.000000 0.000000 
#    y 0.000000 1.767170 0.000000 
#    z 0.000000 0.000000 1.748370 
# 
# From -- ./inp_files/36690.got.cif
#   From: 2010.03.12/outbox.cif.g09.slc.cpg/sg65_19_cif.got.tgz:36690.got - 2010.04.10 20:52:16.
