data_PCOD8271425
_publ_section_title
;
Structure prediction by ZEFSAII (Michael W. Deem and Ramdas Pophale) SiO2 
 PCOD8271425
Probable space group: C M M M
;
_chemical_formula_sum "Si O2"
_cell_formula_units_Z 88
_cell_length_a 27.781103
_cell_length_b 20.681492
_cell_length_c 7.784595
_cell_angle_alpha 90.000000
_cell_angle_beta 90.000000
_cell_angle_gamma 90.000000
_cell_volume 4472.675329
_symmetry_space_group_name_H-M "C M M M"
_symmetry_group_IT_number 65
_symmetry_cell_setting 'orthorhombic'
loop_
_space_group_symop_operation_xyz
x,y,z
-x,-y,z
x,-y,-z
-x,y,-z
-x,-y,-z
x,y,-z
-x,y,z
x,-y,z
1/2+x,1/2+y,z
1/2-x,1/2-y,z
1/2+x,1/2-y,-z
1/2-x,1/2+y,-z
1/2-x,1/2-y,-z
1/2+x,1/2+y,-z
1/2-x,1/2+y,z
1/2+x,1/2-y,z
loop_
_atom_site_type_symbol
_atom_site_label
_atom_site_fract_x
_atom_site_fract_y
_atom_site_fract_z
Si Si1 0.820801 0.370638 0.302481
Si Si2 0.444925 0.500000 0.204640
Si Si3 0.622086 0.614682 0.806632
Si Si4 0.613082 0.754958 0.309653
Si Si5 0.056192 0.691735 0.000000
Si Si6 0.879762 0.572506 0.000000
Si Si7 0.221620 0.072589 0.304233
O O1 0.829935 0.393095 0.500000
O O2 0.838199 0.296506 0.273449
O O3 0.849246 0.416719 0.172853
O O4 0.764158 0.376858 0.258626
O O5 0.500000 0.500000 0.273606
O O6 0.416754 0.563845 0.271673
O O7 0.443520 0.500000 0.000000
O O8 0.624508 0.679159 0.693788
O O9 0.675165 0.584019 0.812764
O O10 0.606931 0.632848 0.000000
O O11 0.593519 0.772181 0.500000
O O12 0.572906 0.771363 0.170613
O O13 0.074064 0.618392 0.000000
O O14 0.000000 0.691514 0.000000
O O15 0.899349 0.500000 0.000000
O O16 0.204887 0.081634 0.500000
O O17 0.241235 0.000000 0.271676
#
# Coordination Sequence:
#
# PCOD8271425 Si02
#       7
#    16   8  16  16   8   8  16
#     4   9  20  37  57  85 119 158 197 236 283 341
#     4   9  20  38  57  79 111 152 195 243 300 350
#     4  11  21  36  57  85 114 148 192 246 296 348
#     4  10  21  40  62  84 116 153 194 241 293 349
#     4  10  22  41  61  86 119 149 190 240 292 348
#     4  10  20  35  59  89 118 156 193 235 282 339
#     4  10  20  34  54  80 116 156 194 237 287 347
#
# _framework density 19.675025000000002
#
# number of rings (size 3 to 8) (size 9 to 14) (size 15 to 20)
#    0.000    2.091    1.818    1.091    1.273    3.091 
#    0.000    3.636    0.000    3.818    0.000    5.091 
#    0.000    0.000    0.000    0.000    0.000    0.000 
#
# Total GULP energy -545528.547450 kJ/mol
# GULP energy per Si atom -12398.376078 kJ/mol
# Density = 1.963024 g / cm^3
# Si number density = 19.675025 Si / 1000 Ang^3
#
#
#
# Elastic Constant Matrix: (Units=GPa)
#
#
# Indices 1 2 3 4 5 6 
#
# 1 153.8374 63.4778 39.9017 0.0000 0.0000 0.0000
# 2 63.4778 136.1735 32.8988 0.0000 0.0000 0.0000
# 3 39.9017 32.8988 86.9836 0.0000 0.0000 0.0000
# 4 0.0000 0.0000 0.0000 17.5393 0.0000 0.0000
# 5 0.0000 0.0000 0.0000 0.0000 7.3383 0.0000
# 6 0.0000 0.0000 0.0000 0.0000 0.0000 21.2399
#
#
#
# Elastic Compliance Matrix: (Units=1/GPa)
#
#
# Indices 1 2 3 4 5 6 
#
# 1 0.008575 -0.003354 -0.002665 0.000000 0.000000 0.000000
# 2 -0.003354 0.009394 -0.002014 0.000000 0.000000 0.000000
# 3 -0.002665 -0.002014 0.013481 0.000000 0.000000 0.000000
# 4 0.000000 0.000000 0.000000 0.057015 0.000000 0.000000
# 5 0.000000 0.000000 0.000000 0.000000 0.136271 0.000000
# 6 0.000000 0.000000 0.000000 0.000000 0.000000 0.047081
#
#
# Mechanical properties :
#
#
# Convention : Reuss Voigt Hill
#
# Bulk Modulus (GPa) = 65.00601 72.17236 68.58918
# Shear Modulus (GPa) = 17.06418 25.27126 21.16772
#
# Velocity S-wave (km/s) = 2.94819 3.58779 3.28360
# Velocity P-wave (km/s) = 6.68586 7.34335 7.02230
#
# Compressibility (1/GPa) = 0.01538319
#
# Stress axis : x y z
#
# Youngs Moduli (GPa) = 116.61139 106.45635 74.17830
#
# Poissons Ratio (x) = 0.35701 0.19772
# Poissons Ratio (y) = 0.39106 0.14943
# Poissons Ratio (z) = 0.31082 0.21445
#
# Static dielectric constant tensor:
#      x y z
#    x 3.377300 0.000000 0.000000 
#    y 0.000000 3.637240 0.000000 
#    z 0.000000 0.000000 3.682270 
# 
# 
# High freq. dielectric constant tensor:
#      x y z
#    x 1.745830 0.000000 0.000000 
#    y 0.000000 1.767800 0.000000 
#    z 0.000000 0.000000 1.772190 
# 
# From -- ./inp_files/14037.got.cif
#   From: 2010.03.12/outbox.cif.g09.slc.cpg/sg65_8_cif.got.tgz:14037.got - 2010.04.10 20:52:16.
