data_PCOD8271915
_publ_section_title
;
Structure prediction by ZEFSAII (Michael W. Deem and Ramdas Pophale) SiO2 
 PCOD8271915
Probable space group: C M M M
;
_chemical_formula_sum "Si O2"
_cell_formula_units_Z 88
_cell_length_a 20.657507
_cell_length_b 15.667381
_cell_length_c 12.855185
_cell_angle_alpha 90.000000
_cell_angle_beta 90.000000
_cell_angle_gamma 90.000000
_cell_volume 4160.568190
_symmetry_space_group_name_H-M "C M M M"
_symmetry_group_IT_number 65
_symmetry_cell_setting 'orthorhombic'
loop_
_space_group_symop_operation_xyz
x,y,z
-x,-y,z
x,-y,-z
-x,y,-z
-x,-y,-z
x,y,-z
-x,y,z
x,-y,z
1/2+x,1/2+y,z
1/2-x,1/2-y,z
1/2+x,1/2-y,-z
1/2-x,1/2+y,-z
1/2-x,1/2-y,-z
1/2+x,1/2+y,-z
1/2-x,1/2+y,z
1/2+x,1/2-y,z
loop_
_atom_site_type_symbol
_atom_site_label
_atom_site_fract_x
_atom_site_fract_y
_atom_site_fract_z
Si Si1 0.116765 0.689353 0.611134
Si Si2 0.250000 0.750000 0.323421
Si Si3 0.927640 0.869675 0.618850
Si Si4 0.183468 0.902292 0.217134
Si Si5 0.927982 0.600238 0.193562
Si Si6 0.284352 0.343418 0.000000
Si Si7 0.645994 0.096195 0.000000
O O1 0.103853 0.644663 0.500000
O O2 0.188169 0.730291 0.606935
O O3 0.067803 0.767541 0.628316
O O4 0.107082 0.619473 0.698576
O O5 0.237831 0.836622 0.257708
O O6 0.905276 0.895133 0.500000
O O7 0.879720 0.904505 0.708396
O O8 0.000000 0.905939 0.639217
O O9 0.210084 0.000000 0.212511
O O10 0.170488 0.865666 0.100114
O O11 0.931767 0.500000 0.182432
O O12 0.884397 0.641933 0.101973
O O13 0.000000 0.639839 0.188574
O O14 0.250000 0.250000 0.000000
O O15 0.223054 0.406294 0.000000
O O16 0.620382 0.000000 0.000000
#
# Coordination Sequence:
#
# PCOD8271915 Si02
#       7
#    16   8  16  16  16   8   8
#     4  10  20  35  56  83 118 159 197 245 308 367
#     4  10  21  39  60  86 122 159 207 254 300 362
#     4   9  20  40  64  90 122 163 210 256 306 367
#     4  11  23  40  64  93 124 162 207 258 309 365
#     4  10  21  36  56  84 116 152 199 251 302 363
#     4  12  24  41  62  89 128 164 204 250 313 374
#     4  10  21  38  60  82 112 157 203 249 301 358
#
# _framework density 21.150956999999998
#
# number of rings (size 3 to 8) (size 9 to 14) (size 15 to 20)
#    0.000    1.818    0.909    3.000    2.545    6.182 
#    0.000    2.273    0.000    1.091    0.000    0.000 
#    0.000    0.000    0.000    0.000    0.000    0.000 
#
# Total GULP energy -545120.358318 kJ/mol
# GULP energy per Si atom -12389.099053 kJ/mol
# Density = 2.110282 g / cm^3
# Si number density = 21.150957 Si / 1000 Ang^3
#
#
#
# Elastic Constant Matrix: (Units=GPa)
#
#
# Indices 1 2 3 4 5 6 
#
# 1 98.6310 16.1669 52.2188 0.0000 0.0000 0.0000
# 2 16.1669 86.3630 36.5846 0.0000 0.0000 0.0000
# 3 52.2188 36.5846 182.8159 0.0000 0.0000 0.0000
# 4 0.0000 0.0000 0.0000 24.0119 0.0000 0.0000
# 5 0.0000 0.0000 0.0000 0.0000 26.7822 0.0000
# 6 0.0000 0.0000 0.0000 0.0000 0.0000 19.4739
#
#
#
# Elastic Compliance Matrix: (Units=1/GPa)
#
#
# Indices 1 2 3 4 5 6 
#
# 1 0.012005 -0.000868 -0.003255 0.000000 0.000000 0.000000
# 2 -0.000868 0.012714 -0.002296 0.000000 0.000000 0.000000
# 3 -0.003255 -0.002296 0.006859 0.000000 0.000000 0.000000
# 4 0.000000 0.000000 0.000000 0.041646 0.000000 0.000000
# 5 0.000000 0.000000 0.000000 0.000000 0.037338 0.000000
# 6 0.000000 0.000000 0.000000 0.000000 0.000000 0.051351
#
#
# Mechanical properties :
#
#
# Convention : Reuss Voigt Hill
#
# Bulk Modulus (GPa) = 53.36579 64.19449 58.78014
# Shear Modulus (GPa) = 27.62448 31.57625 29.60037
#
# Velocity S-wave (km/s) = 3.61787 3.86800 3.74502
# Velocity P-wave (km/s) = 6.53741 7.09683 6.82286
#
# Compressibility (1/GPa) = 0.01873859
#
# Stress axis : x y z
#
# Youngs Moduli (GPa) = 83.30197 78.65137 145.78724
#
# Poissons Ratio (x) = 0.06829 0.47456
# Poissons Ratio (y) = 0.07233 0.33478
# Poissons Ratio (z) = 0.27116 0.18061
#
# Static dielectric constant tensor:
#      x y z
#    x 3.724970 0.000000 0.000000 
#    y 0.000000 3.650520 0.000000 
#    z 0.000000 0.000000 4.031260 
# 
# 
# High freq. dielectric constant tensor:
#      x y z
#    x 1.818980 0.000000 0.000000 
#    y 0.000000 1.812800 0.000000 
#    z 0.000000 0.000000 1.842010 
# 
# From -- ./inp_files/28775.got.cif
#   From: 2010.03.12/outbox.cif.g09.slc.cpg/sg65_15_cif.got.tgz:28775.got - 2010.04.10 20:52:16.
