data_PCOD8271949
_publ_section_title
;
Structure prediction by ZEFSAII (Michael W. Deem and Ramdas Pophale) SiO2 
 PCOD8271949
Probable space group: C M M M
;
_chemical_formula_sum "Si O2"
_cell_formula_units_Z 104
_cell_length_a 27.536182
_cell_length_b 27.738114
_cell_length_c 7.762948
_cell_angle_alpha 90.000000
_cell_angle_beta 90.000000
_cell_angle_gamma 90.000000
_cell_volume 5929.353310
_symmetry_space_group_name_H-M "C M M M"
_symmetry_group_IT_number 65
_symmetry_cell_setting 'orthorhombic'
loop_
_space_group_symop_operation_xyz
x,y,z
-x,-y,z
x,-y,-z
-x,y,-z
-x,-y,-z
x,y,-z
-x,y,z
x,-y,z
1/2+x,1/2+y,z
1/2-x,1/2-y,z
1/2+x,1/2-y,-z
1/2-x,1/2+y,-z
1/2-x,1/2-y,-z
1/2+x,1/2+y,-z
1/2-x,1/2+y,z
1/2+x,1/2-y,z
loop_
_atom_site_type_symbol
_atom_site_label
_atom_site_fract_x
_atom_site_fract_y
_atom_site_fract_z
Si Si1 0.787844 0.944899 0.300662
Si Si2 0.815392 0.554333 0.202581
Si Si3 0.000000 0.554341 0.205771
Si Si4 0.390296 0.443463 0.806907
Si Si5 0.942907 0.713931 0.197318
Si Si6 0.057615 0.108788 0.500000
Si Si7 0.092458 0.610630 0.796191
Si Si8 0.557361 0.282946 0.500000
O O1 0.798944 0.938683 0.500000
O O2 0.736391 0.920704 0.250353
O O3 0.834887 0.923176 0.204055
O O4 0.782094 0.000000 0.242781
O O5 0.819958 0.500000 0.280952
O O6 0.857646 0.588440 0.280308
O O7 0.821017 0.551364 0.000000
O O8 0.047484 0.580693 0.281158
O O9 0.000000 0.500000 0.274399
O O10 0.000000 0.556167 0.000000
O O11 0.390473 0.500000 0.760275
O O12 0.424867 0.417005 0.673095
O O13 0.409974 0.434160 0.000000
O O14 0.912933 0.666625 0.253679
O O15 0.925347 0.756021 0.325865
O O16 0.000000 0.702499 0.217470
O O17 0.931376 0.729243 0.000000
O O18 0.078690 0.163149 0.500000
O O19 0.000000 0.107630 0.500000
O O20 0.091787 0.605442 0.000000
O O21 0.500000 0.285689 0.500000
#
# Coordination Sequence:
#
# PCOD8271949 Si02
#       8
#    16  16   8  16  16   8  16   8
#     4   9  16  29  48  69  97 134 174 212 245 280
#     4   9  16  25  39  64  98 131 168 218 265 304
#     4   9  14  20  34  59  93 133 174 211 257 322
#     4  10  20  35  57  83 111 145 176 196 225 276
#     4   9  16  30  50  69  92 125 172 224 265 308
#     4  11  23  38  55  81 116 141 165 199 234 287
#     4   9  15  24  39  63  93 129 172 218 267 315
#     4   9  20  35  52  74  96 127 167 208 258 297
#
# _framework density 17.539854999999999
#
# number of rings (size 3 to 8) (size 9 to 14) (size 15 to 20)
#    0.000    2.692    1.538    1.154    0.000    5.231 
#    1.385    2.308    0.000    0.000    0.000    2.692 
#    0.000    4.923    0.000    0.000    0.000    0.000 
#
# Total GULP energy -644519.824793 kJ/mol
# GULP energy per Si atom -12394.612015 kJ/mol
# Density = 1.749993 g / cm^3
# Si number density = 17.539855 Si / 1000 Ang^3
#
#
#
# Elastic Constant Matrix: (Units=GPa)
#
#
# Indices 1 2 3 4 5 6 
#
# 1 100.9771 49.1604 35.4806 0.0000 0.0000 0.0000
# 2 49.1604 96.0600 47.7071 0.0000 0.0000 0.0000
# 3 35.4806 47.7071 75.5255 0.0000 0.0000 0.0000
# 4 0.0000 0.0000 0.0000 13.1252 0.0000 0.0000
# 5 0.0000 0.0000 0.0000 0.0000 18.5192 0.0000
# 6 0.0000 0.0000 0.0000 0.0000 0.0000 10.2155
#
#
#
# Elastic Compliance Matrix: (Units=1/GPa)
#
#
# Indices 1 2 3 4 5 6 
#
# 1 0.013614 -0.005524 -0.002906 0.000000 0.000000 0.000000
# 2 -0.005524 0.017410 -0.008402 0.000000 0.000000 0.000000
# 3 -0.002906 -0.008402 0.019913 0.000000 0.000000 0.000000
# 4 0.000000 0.000000 0.000000 0.076189 0.000000 0.000000
# 5 0.000000 0.000000 0.000000 0.000000 0.053998 0.000000
# 6 0.000000 0.000000 0.000000 0.000000 0.000000 0.097890
#
#
# Mechanical properties :
#
#
# Convention : Reuss Voigt Hill
#
# Bulk Modulus (GPa) = 57.89631 59.69541 58.79586
# Shear Modulus (GPa) = 15.70172 17.71962 16.71067
#
# Velocity S-wave (km/s) = 2.99524 3.18189 3.08997
# Velocity P-wave (km/s) = 6.71134 6.89980 6.80622
#
# Compressibility (1/GPa) = 0.01727226
#
# Stress axis : x y z
#
# Youngs Moduli (GPa) = 73.45596 57.43850 50.21730
#
# Poissons Ratio (x) = 0.31727 0.14595
# Poissons Ratio (y) = 0.40574 0.42195
# Poissons Ratio (z) = 0.21349 0.48262
#
# Static dielectric constant tensor:
#      x y z
#    x 3.346670 0.000000 0.000000 
#    y 0.000000 3.149710 0.000000 
#    z 0.000000 0.000000 3.128480 
# 
# 
# High freq. dielectric constant tensor:
#      x y z
#    x 1.667330 0.000000 0.000000 
#    y 0.000000 1.638080 0.000000 
#    z 0.000000 0.000000 1.674600 
# 
# From -- ./inp_files/16850.got.cif
#   From: 2010.03.12/outbox.cif.g09.slc.cpg/sg65_9_cif.got.tgz:16850.got - 2010.04.10 20:52:16.
