data_PCOD8271004
_publ_section_title
;
Structure prediction by ZEFSAII (Michael W. Deem and Ramdas Pophale) SiO2 
 PCOD8271004
Probable space group: C M M M
;
_chemical_formula_sum "Si O2"
_cell_formula_units_Z 72
_cell_length_a 8.983955
_cell_length_b 28.134118
_cell_length_c 18.299264
_cell_angle_alpha 90.000000
_cell_angle_beta 90.000000
_cell_angle_gamma 90.000000
_cell_volume 4625.242368
_symmetry_space_group_name_H-M "C M M M"
_symmetry_group_IT_number 65
_symmetry_cell_setting 'orthorhombic'
loop_
_space_group_symop_operation_xyz
x,y,z
-x,-y,z
x,-y,-z
-x,y,-z
-x,-y,-z
x,y,-z
-x,y,z
x,-y,z
1/2+x,1/2+y,z
1/2-x,1/2-y,z
1/2+x,1/2-y,-z
1/2-x,1/2+y,-z
1/2-x,1/2-y,-z
1/2+x,1/2+y,-z
1/2-x,1/2+y,z
1/2+x,1/2-y,z
loop_
_atom_site_type_symbol
_atom_site_label
_atom_site_fract_x
_atom_site_fract_y
_atom_site_fract_z
Si Si1 0.327200 0.299231 0.085277
Si Si2 0.170612 0.943703 0.000000
Si Si3 0.325101 0.053645 0.277925
Si Si4 0.822984 0.607725 0.133103
Si Si5 0.168504 0.056455 0.579510
O O1 0.500000 0.296787 0.106769
O O2 0.250000 0.250000 0.106322
O O3 0.244450 0.339689 0.130974
O O4 0.306156 0.310937 0.000000
O O5 0.253810 0.925158 0.071101
O O6 0.000000 0.925190 0.000000
O O7 0.177537 0.000000 0.000000
O O8 0.500000 0.052645 0.284785
O O9 0.274081 0.085708 0.210314
O O10 0.263264 0.076886 0.352896
O O11 0.263687 0.000000 0.266035
O O12 0.000000 0.609638 0.122856
O O13 0.228033 0.074674 0.500000
O O14 0.000000 0.073682 0.590094
O O15 0.178522 0.000000 0.580317
#
# Coordination Sequence:
#
# PCOD8271004 Si02
#       5
#    16   8  16  16  16
#     4  10  20  34  52  71  91 113 146 189 235 282
#     4  11  23  35  46  63  88 121 161 197 227 265
#     4   9  18  30  43  63  91 123 157 189 223 265
#     4  11  21  33  49  67  91 121 154 191 232 274
#     4   8  14  25  41  61  85 115 151 188 226 266
#
# _framework density 15.566753
#
# number of rings (size 3 to 8) (size 9 to 14) (size 15 to 20)
#    0.000    2.333    1.111    3.000    0.000    4.889 
#    0.000    4.444    0.000    0.000    0.000    0.000 
#    0.000    0.889    0.000    2.889    0.000    4.222 
#
# Total GULP energy -446326.018766 kJ/mol
# GULP energy per Si atom -12397.944966 kJ/mol
# Density = 1.553132 g / cm^3
# Si number density = 15.566753 Si / 1000 Ang^3
#
#
#
# Elastic Constant Matrix: (Units=GPa)
#
#
# Indices 1 2 3 4 5 6 
#
# 1 75.0379 40.8274 56.0740 0.0000 0.0000 0.0000
# 2 40.8274 78.7175 54.9119 0.0000 0.0000 0.0000
# 3 56.0740 54.9119 145.3931 0.0000 0.0000 0.0000
# 4 0.0000 0.0000 0.0000 6.3912 0.0000 0.0000
# 5 0.0000 0.0000 0.0000 0.0000 24.4938 0.0000
# 6 0.0000 0.0000 0.0000 0.0000 0.0000 24.2215
#
#
#
# Elastic Compliance Matrix: (Units=1/GPa)
#
#
# Indices 1 2 3 4 5 6 
#
# 1 0.021389 -0.007249 -0.005511 0.000000 0.000000 0.000000
# 2 -0.007249 0.019705 -0.004646 0.000000 0.000000 0.000000
# 3 -0.005511 -0.004646 0.010758 0.000000 0.000000 0.000000
# 4 0.000000 0.000000 0.000000 0.156466 0.000000 0.000000
# 5 0.000000 0.000000 0.000000 0.000000 0.040827 0.000000
# 6 0.000000 0.000000 0.000000 0.000000 0.000000 0.041286
#
#
# Mechanical properties :
#
#
# Convention : Reuss Voigt Hill
#
# Bulk Modulus (GPa) = 58.68991 66.97502 62.83246
# Shear Modulus (GPa) = 15.10924 20.84365 17.97644
#
# Velocity S-wave (km/s) = 3.11884 3.66318 3.40192
# Velocity P-wave (km/s) = 7.12415 7.81087 7.47540
#
# Compressibility (1/GPa) = 0.01703871
#
# Stress axis : x y z
#
# Youngs Moduli (GPa) = 46.75241 50.74970 92.95149
#
# Poissons Ratio (x) = 0.36789 0.51230
# Poissons Ratio (y) = 0.33891 0.43188
# Poissons Ratio (z) = 0.25767 0.23580
#
# Static dielectric constant tensor:
#      x y z
#    x 3.083680 0.000000 0.000000 
#    y 0.000000 2.789740 0.000000 
#    z 0.000000 0.000000 3.272640 
# 
# 
# High freq. dielectric constant tensor:
#      x y z
#    x 1.607460 0.000000 0.000000 
#    y 0.000000 1.563810 0.000000 
#    z 0.000000 0.000000 1.593240 
# 
# From -- ./inp_files/49703.got.cif
#   From: 2010.03.12/outbox.cif.g09.slc.cpg/sg65_25_cif.got.tgz:49703.got - 2010.04.10 20:52:16.
