data_PCOD8271601
_publ_section_title
;
Structure prediction by ZEFSAII (Michael W. Deem and Ramdas Pophale) SiO2 
 PCOD8271601
Probable space group: C M M M
;
_chemical_formula_sum "Si O2"
_cell_formula_units_Z 104
_cell_length_a 28.723946
_cell_length_b 8.992788
_cell_length_c 23.254304
_cell_angle_alpha 90.000000
_cell_angle_beta 90.000000
_cell_angle_gamma 90.000000
_cell_volume 6006.781057
_symmetry_space_group_name_H-M "C M M M"
_symmetry_group_IT_number 65
_symmetry_cell_setting 'orthorhombic'
loop_
_space_group_symop_operation_xyz
x,y,z
-x,-y,z
x,-y,-z
-x,y,-z
-x,-y,-z
x,y,-z
-x,y,z
x,-y,z
1/2+x,1/2+y,z
1/2-x,1/2-y,z
1/2+x,1/2-y,-z
1/2-x,1/2+y,-z
1/2-x,1/2-y,-z
1/2+x,1/2+y,-z
1/2-x,1/2+y,z
1/2+x,1/2-y,z
loop_
_atom_site_type_symbol
_atom_site_label
_atom_site_fract_x
_atom_site_fract_y
_atom_site_fract_z
Si Si1 0.700181 0.323578 0.281888
Si Si2 0.851584 0.327387 0.385127
Si Si3 0.855901 0.823628 0.829165
Si Si4 0.551303 0.830068 0.658200
Si Si5 0.699948 0.175203 0.500000
Si Si6 0.798571 0.824785 0.935551
Si Si7 0.948969 0.823818 0.777277
O O1 0.705419 0.500000 0.283932
O O2 0.750000 0.250000 0.288084
O O3 0.668401 0.272063 0.334321
O O4 0.677072 0.267918 0.222456
O O5 0.839646 0.500000 0.373543
O O6 0.907705 0.302215 0.388246
O O7 0.829280 0.272635 0.444661
O O8 0.836855 0.764358 0.890351
O O9 0.908631 0.763194 0.819901
O O10 0.856351 0.000000 0.829302
O O11 0.500000 0.792255 0.631750
O O12 0.561599 0.730105 0.713327
O O13 0.552445 0.000000 0.679282
O O14 0.750000 0.250000 0.500000
O O15 0.707440 0.000000 0.500000
O O16 0.750000 0.750000 0.919878
O O17 0.791475 0.000000 0.929587
O O18 0.814881 0.781342 0.000000
O O19 0.000000 0.768150 0.798512
O O20 0.947352 0.000000 0.775137
#
# Coordination Sequence:
#
# PCOD8271601 Si02
#       7
#    16  16  16  16   8  16  16
#     4  11  21  32  47  69  97 124 154 195 241 285
#     4  10  20  35  52  71  96 125 158 194 234 281
#     4   9  17  29  45  69  96 121 154 193 236 280
#     4   9  17  30  49  73  99 123 150 190 237 282
#     4  10  22  38  53  69  91 125 164 198 231 278
#     4   9  17  30  47  65  90 125 161 195 231 275
#     4   9  16  28  47  69  94 124 156 189 229 282
#
# _framework density 17.313765
#
# number of rings (size 3 to 8) (size 9 to 14) (size 15 to 20)
#    0.000    2.462    1.538    1.385    0.000    1.846 
#    0.000    1.923    0.000    2.769    0.000    3.231 
#    0.000    4.308    0.000    7.692    0.000    8.000 
#
# Total GULP energy -644538.499731 kJ/mol
# GULP energy per Si atom -12394.971149 kJ/mol
# Density = 1.727436 g / cm^3
# Si number density = 17.313765 Si / 1000 Ang^3
#
#
#
# Elastic Constant Matrix: (Units=GPa)
#
#
# Indices 1 2 3 4 5 6 
#
# 1 163.7418 24.2968 77.8127 0.0000 0.0000 0.0000
# 2 24.2968 23.6571 18.5069 0.0000 0.0000 0.0000
# 3 77.8127 18.5069 115.7051 0.0000 0.0000 0.0000
# 4 0.0000 0.0000 0.0000 18.5416 0.0000 0.0000
# 5 0.0000 0.0000 0.0000 0.0000 31.5329 0.0000
# 6 0.0000 0.0000 0.0000 0.0000 0.0000 17.2220
#
#
#
# Elastic Compliance Matrix: (Units=1/GPa)
#
#
# Indices 1 2 3 4 5 6 
#
# 1 0.009558 -0.005473 -0.005552 0.000000 0.000000 0.000000
# 2 -0.005473 0.051450 -0.004549 0.000000 0.000000 0.000000
# 3 -0.005552 -0.004549 0.013104 0.000000 0.000000 0.000000
# 4 0.000000 0.000000 0.000000 0.053933 0.000000 0.000000
# 5 0.000000 0.000000 0.000000 0.000000 0.031713 0.000000
# 6 0.000000 0.000000 0.000000 0.000000 0.000000 0.058065
#
#
# Mechanical properties :
#
#
# Convention : Reuss Voigt Hill
#
# Bulk Modulus (GPa) = 23.27525 60.48186 41.87856
# Shear Modulus (GPa) = 18.99032 25.62515 22.30773
#
# Velocity S-wave (km/s) = 3.31544 3.85131 3.59338
# Velocity P-wave (km/s) = 5.30364 7.40172 6.43871
#
# Compressibility (1/GPa) = 0.04296410
#
# Stress axis : x y z
#
# Youngs Moduli (GPa) = 104.62647 19.43637 76.31090
#
# Poissons Ratio (x) = 0.10637 0.42371
# Poissons Ratio (y) = 0.57258 0.34713
# Poissons Ratio (z) = 0.58093 0.08842
#
# Static dielectric constant tensor:
#      x y z
#    x 3.720340 0.000000 0.000000 
#    y 0.000000 3.080770 0.000000 
#    z 0.000000 0.000000 3.299340 
# 
# 
# High freq. dielectric constant tensor:
#      x y z
#    x 1.683820 0.000000 0.000000 
#    y 0.000000 1.652050 0.000000 
#    z 0.000000 0.000000 1.648480 
# 
# From -- ./inp_files/60826.got.cif
#   From: 2010.03.12/outbox.cif.g09.slc.cpg/sg65_31_cif.got.tgz:60826.got - 2010.04.10 20:52:16.
