data_PCOD8271825
_publ_section_title
;
Structure prediction by ZEFSAII (Michael W. Deem and Ramdas Pophale) SiO2 
 PCOD8271825
Probable space group: C M M M
;
_chemical_formula_sum "Si O2"
_cell_formula_units_Z 120
_cell_length_a 23.023072
_cell_length_b 13.705394
_cell_length_c 19.220289
_cell_angle_alpha 90.000000
_cell_angle_beta 90.000000
_cell_angle_gamma 90.000000
_cell_volume 6064.775235
_symmetry_space_group_name_H-M "C M M M"
_symmetry_group_IT_number 65
_symmetry_cell_setting 'orthorhombic'
loop_
_space_group_symop_operation_xyz
x,y,z
-x,-y,z
x,-y,-z
-x,y,-z
-x,-y,-z
x,y,-z
-x,y,z
x,-y,z
1/2+x,1/2+y,z
1/2-x,1/2-y,z
1/2+x,1/2-y,-z
1/2-x,1/2+y,-z
1/2-x,1/2-y,-z
1/2+x,1/2+y,-z
1/2-x,1/2+y,z
1/2+x,1/2-y,z
loop_
_atom_site_type_symbol
_atom_site_label
_atom_site_fract_x
_atom_site_fract_y
_atom_site_fract_z
Si Si1 0.345795 0.884566 0.883863
Si Si2 0.140949 0.614959 0.276298
Si Si3 0.352648 0.390078 0.204063
Si Si4 0.432213 0.716102 0.307614
Si Si5 0.639019 0.616411 0.420955
Si Si6 0.065991 0.383892 0.000000
Si Si7 0.719277 0.616006 0.921981
Si Si8 0.262186 0.609387 0.324904
O O1 0.358656 0.856824 0.804583
O O2 0.398723 0.846352 0.932022
O O3 0.283571 0.838777 0.907619
O O4 0.340917 0.000000 0.893110
O O5 0.133410 0.500000 0.288087
O O6 0.087993 0.671044 0.313253
O O7 0.199932 0.660169 0.311233
O O8 0.375865 0.500000 0.193744
O O9 0.404338 0.328827 0.237891
O O10 0.330339 0.343160 0.130956
O O11 0.296797 0.389376 0.253317
O O12 0.500000 0.710835 0.299044
O O13 0.414770 0.658584 0.377474
O O14 0.634900 0.653028 0.500000
O O15 0.635993 0.500000 0.415048
O O16 0.699441 0.655989 0.387207
O O17 0.062183 0.500000 0.000000
O O18 0.000000 0.340864 0.000000
O O19 0.722625 0.500000 0.909572
O O20 0.699818 0.642224 0.000000
O O21 0.246960 0.500000 0.346994
#
# Coordination Sequence:
#
# PCOD8271825 Si02
#       8
#    16  16  16  16  16   8  16  16
#     4   9  15  26  46  72 103 140 182 234 286 329
#     4  10  20  35  56  79 109 149 191 233 274 320
#     4   9  17  31  53  81 110 139 173 223 286 343
#     4  11  24  38  54  79 111 149 194 233 268 322
#     4   9  19  37  63  94 122 143 168 214 279 341
#     4   9  16  24  38  66 101 140 190 240 289 339
#     4   9  14  24  48  80 110 136 172 226 288 349
#     4   8  14  29  53  82 113 141 171 213 271 333
#
# _framework density 19.786389
#
# number of rings (size 3 to 8) (size 9 to 14) (size 15 to 20)
#    0.000    2.733    2.000    1.200    0.000    4.267 
#    0.000    3.333    1.467    2.400    0.000    2.800 
#    0.000    0.000    0.000    0.000    0.000    0.000 
#
# Total GULP energy -743714.230598 kJ/mol
# GULP energy per Si atom -12395.237177 kJ/mol
# Density = 1.974135 g / cm^3
# Si number density = 19.786389 Si / 1000 Ang^3
#
#
#
# Elastic Constant Matrix: (Units=GPa)
#
#
# Indices 1 2 3 4 5 6 
#
# 1 141.9949 47.2357 87.3403 0.0000 0.0000 0.0000
# 2 47.2357 29.5516 25.9921 0.0000 0.0000 0.0000
# 3 87.3403 25.9921 127.9766 0.0000 0.0000 0.0000
# 4 0.0000 0.0000 0.0000 16.0827 0.0000 0.0000
# 5 0.0000 0.0000 0.0000 0.0000 18.7149 0.0000
# 6 0.0000 0.0000 0.0000 0.0000 0.0000 17.8608
#
#
#
# Elastic Compliance Matrix: (Units=1/GPa)
#
#
# Indices 1 2 3 4 5 6 
#
# 1 0.021486 -0.026110 -0.009361 0.000000 0.000000 0.000000
# 2 -0.026110 0.072929 0.003008 0.000000 0.000000 0.000000
# 3 -0.009361 0.003008 0.013591 0.000000 0.000000 0.000000
# 4 0.000000 0.000000 0.000000 0.062179 0.000000 0.000000
# 5 0.000000 0.000000 0.000000 0.000000 0.053433 0.000000
# 6 0.000000 0.000000 0.000000 0.000000 0.000000 0.055989
#
#
# Mechanical properties :
#
#
# Convention : Reuss Voigt Hill
#
# Bulk Modulus (GPa) = 23.21274 68.96213 46.08744
# Shear Modulus (GPa) = 13.93173 19.79534 16.86354
#
# Velocity S-wave (km/s) = 2.65638 3.16642 2.92255
# Velocity P-wave (km/s) = 4.60061 6.94963 5.89334
#
# Compressibility (1/GPa) = 0.04307979
#
# Stress axis : x y z
#
# Youngs Moduli (GPa) = 46.54208 13.71200 73.57626
#
# Poissons Ratio (x) = 0.35803 0.68871
# Poissons Ratio (y) = 1.21523 -0.22130
# Poissons Ratio (z) = 0.43566 -0.04124
#
# Static dielectric constant tensor:
#      x y z
#    x 3.478150 0.000000 0.000000 
#    y 0.000000 3.438270 0.000000 
#    z 0.000000 0.000000 3.659150 
# 
# 
# High freq. dielectric constant tensor:
#      x y z
#    x 1.745150 0.000000 0.000000 
#    y 0.000000 1.764710 0.000000 
#    z 0.000000 0.000000 1.761360 
# 
# From -- ./inp_files/64783.got.cif
#   From: 2010.03.12/outbox.cif.g09.slc.cpg/sg65_33_cif.got.tgz:64783.got - 2010.04.10 20:52:16.
