data_PCOD8271672
_publ_section_title
;
Structure prediction by ZEFSAII (Michael W. Deem and Ramdas Pophale) SiO2 
 PCOD8271672
Probable space group: C M M M
;
_chemical_formula_sum "Si O2"
_cell_formula_units_Z 96
_cell_length_a 8.651353
_cell_length_b 27.267057
_cell_length_c 24.012948
_cell_angle_alpha 90.000000
_cell_angle_beta 90.000000
_cell_angle_gamma 90.000000
_cell_volume 5664.580843
_symmetry_space_group_name_H-M "C M M M"
_symmetry_group_IT_number 65
_symmetry_cell_setting 'orthorhombic'
loop_
_space_group_symop_operation_xyz
x,y,z
-x,-y,z
x,-y,-z
-x,y,-z
-x,-y,-z
x,y,-z
-x,y,z
x,-y,z
1/2+x,1/2+y,z
1/2-x,1/2-y,z
1/2+x,1/2-y,-z
1/2-x,1/2+y,-z
1/2-x,1/2-y,-z
1/2+x,1/2+y,-z
1/2-x,1/2+y,z
1/2+x,1/2-y,z
loop_
_atom_site_type_symbol
_atom_site_label
_atom_site_fract_x
_atom_site_fract_y
_atom_site_fract_z
Si Si1 0.817302 0.055319 0.113119
Si Si2 0.682267 0.446334 0.332417
Si Si3 0.824814 0.558194 0.000000
Si Si4 0.183584 0.849582 0.609711
Si Si5 0.317307 0.198511 0.282383
Si Si6 0.181919 0.695933 0.500000
Si Si7 0.817185 0.890600 0.776706
O O1 0.755536 0.079000 0.055713
O O2 0.760080 0.088621 0.164207
O O3 0.000000 0.054199 0.110928
O O4 0.753007 0.000000 0.121255
O O5 0.500000 0.450491 0.336142
O O6 0.756286 0.500000 0.345345
O O7 0.737936 0.405384 0.376665
O O8 0.729329 0.430202 0.270222
O O9 0.806842 0.500000 0.000000
O O10 0.000000 0.575987 0.000000
O O11 0.236706 0.814212 0.659167
O O12 0.264382 0.834166 0.553280
O O13 0.000000 0.845409 0.603492
O O14 0.500000 0.200894 0.290767
O O15 0.250000 0.250000 0.261656
O O16 0.273512 0.159565 0.234737
O O17 0.250000 0.750000 0.500000
O O18 0.000000 0.700887 0.500000
O O19 0.000000 0.880129 0.775238
#
# Coordination Sequence:
#
# PCOD8271672 Si02
#       7
#    16  16   8  16  16   8  16
#     4   9  16  27  45  68  95 128 165 201 235 277
#     4   8  14  27  49  74  98 125 157 192 227 268
#     4   9  17  27  39  59  92 131 166 201 241 281
#     4  10  20  35  54  76 100 125 158 195 233 279
#     4  11  21  34  51  71  97 126 156 192 238 286
#     4  12  24  38  55  74  97 123 156 197 243 290
#     4   9  17  29  47  72  98 124 159 199 237 279
#
# _framework density 16.947413999999998
#
# number of rings (size 3 to 8) (size 9 to 14) (size 15 to 20)
#    0.000    2.417    0.000    5.000    0.000    3.667 
#    0.000    0.417    0.000   19.000    0.000    0.583 
#    0.000    0.000    0.000    0.000    0.000    0.000 
#
# Total GULP energy -595109.055917 kJ/mol
# GULP energy per Si atom -12398.105332 kJ/mol
# Density = 1.690884 g / cm^3
# Si number density = 16.947414 Si / 1000 Ang^3
#
#
#
# Elastic Constant Matrix: (Units=GPa)
#
#
# Indices 1 2 3 4 5 6 
#
# 1 68.4786 32.8006 37.6724 0.0000 0.0000 0.0000
# 2 32.8006 123.1081 65.8793 0.0000 0.0000 0.0000
# 3 37.6724 65.8793 147.7948 0.0000 0.0000 0.0000
# 4 0.0000 0.0000 0.0000 53.3001 0.0000 0.0000
# 5 0.0000 0.0000 0.0000 0.0000 24.1287 0.0000
# 6 0.0000 0.0000 0.0000 0.0000 0.0000 21.0337
#
#
#
# Elastic Compliance Matrix: (Units=1/GPa)
#
#
# Indices 1 2 3 4 5 6 
#
# 1 0.017812 -0.003042 -0.003184 0.000000 0.000000 0.000000
# 2 -0.003042 0.011187 -0.004211 0.000000 0.000000 0.000000
# 3 -0.003184 -0.004211 0.009455 0.000000 0.000000 0.000000
# 4 0.000000 0.000000 0.000000 0.018762 0.000000 0.000000
# 5 0.000000 0.000000 0.000000 0.000000 0.041444 0.000000
# 6 0.000000 0.000000 0.000000 0.000000 0.000000 0.047543
#
#
# Mechanical properties :
#
#
# Convention : Reuss Voigt Hill
#
# Bulk Modulus (GPa) = 56.88541 68.00957 62.44749
# Shear Modulus (GPa) = 28.91226 33.22777 31.07002
#
# Velocity S-wave (km/s) = 4.13485 4.43271 4.28637
# Velocity P-wave (km/s) = 7.51231 8.14957 7.83742
#
# Compressibility (1/GPa) = 0.01757920
#
# Stress axis : x y z
#
# Youngs Moduli (GPa) = 56.14233 89.38993 105.76441
#
# Poissons Ratio (x) = 0.27190 0.33679
# Poissons Ratio (y) = 0.17077 0.44540
# Poissons Ratio (z) = 0.17878 0.37644
#
# Static dielectric constant tensor:
#      x y z
#    x 3.058220 0.000000 0.000000 
#    y 0.000000 3.430380 0.000000 
#    z 0.000000 0.000000 3.242920 
# 
# 
# High freq. dielectric constant tensor:
#      x y z
#    x 1.645030 0.000000 0.000000 
#    y 0.000000 1.641350 0.000000 
#    z 0.000000 0.000000 1.648120 
# 
# From -- ./inp_files/68076.got.cif
#   From: 2010.03.12/outbox.cif.g09.slc.cpg/sg65_35_cif.got.tgz:68076.got - 2010.04.10 20:52:16.
