data_PCOD8271688
_publ_section_title
;
Structure prediction by ZEFSAII (Michael W. Deem and Ramdas Pophale) SiO2 
 PCOD8271688
Probable space group: C M M M
;
_chemical_formula_sum "Si O2"
_cell_formula_units_Z 80
_cell_length_a 7.901881
_cell_length_b 18.907170
_cell_length_c 27.216417
_cell_angle_alpha 90.000000
_cell_angle_beta 90.000000
_cell_angle_gamma 90.000000
_cell_volume 4066.192777
_symmetry_space_group_name_H-M "C M M M"
_symmetry_group_IT_number 65
_symmetry_cell_setting 'orthorhombic'
loop_
_space_group_symop_operation_xyz
x,y,z
-x,-y,z
x,-y,-z
-x,y,-z
-x,-y,-z
x,y,-z
-x,y,z
x,-y,z
1/2+x,1/2+y,z
1/2-x,1/2-y,z
1/2+x,1/2-y,-z
1/2-x,1/2+y,-z
1/2-x,1/2-y,-z
1/2+x,1/2+y,-z
1/2-x,1/2+y,z
1/2+x,1/2-y,z
loop_
_atom_site_type_symbol
_atom_site_label
_atom_site_fract_x
_atom_site_fract_y
_atom_site_fract_z
Si Si1 0.197694 0.173723 0.713436
Si Si2 0.806164 0.916631 0.377504
Si Si3 0.799874 0.668672 0.000000
Si Si4 0.000000 0.584014 0.554991
Si Si5 0.800650 0.172295 0.177411
Si Si6 0.696423 0.078608 0.909995
O O1 0.250000 0.250000 0.692553
O O2 0.256487 0.115358 0.674275
O O3 0.276825 0.160751 0.767631
O O4 0.000000 0.170292 0.720094
O O5 0.672837 0.889791 0.418512
O O6 0.000000 0.893107 0.390955
O O7 0.797227 0.000000 0.371583
O O8 0.750000 0.750000 0.000000
O O9 0.723149 0.629035 0.047963
O O10 0.000000 0.664012 0.000000
O O11 0.000000 0.500000 0.553460
O O12 0.000000 0.615596 0.500000
O O13 0.750000 0.250000 0.157975
O O14 0.721792 0.112542 0.143278
O O15 0.000000 0.163869 0.176372
O O16 0.500000 0.070765 0.920774
O O17 0.779412 0.000000 0.911469
#
# Coordination Sequence:
#
# PCOD8271688 Si02
#       6
#    16  16   8   8  16  16
#     4   9  19  33  52  77 103 139 176 212 262 316
#     4   9  18  33  52  77 107 139 178 223 271 321
#     4  10  21  37  57  77 101 136 177 220 266 316
#     4   9  18  32  52  80 108 138 179 224 272 322
#     4  10  20  35  54  77 107 138 175 218 262 317
#     4  10  21  37  55  77 105 138 175 217 268 320
#
# _framework density 19.674423000000001
#
# number of rings (size 3 to 8) (size 9 to 14) (size 15 to 20)
#    0.000    2.500    0.000    1.500    1.400    6.000 
#    0.000    4.000    0.000    2.400    0.000    0.000 
#    0.000    0.000    0.000    0.000    0.000    0.000 
#
# Total GULP energy -495838.382468 kJ/mol
# GULP energy per Si atom -12395.959562 kJ/mol
# Density = 1.962964 g / cm^3
# Si number density = 19.674423 Si / 1000 Ang^3
#
#
#
# Elastic Constant Matrix: (Units=GPa)
#
#
# Indices 1 2 3 4 5 6 
#
# 1 52.9149 26.7537 42.4982 0.0000 0.0000 0.0000
# 2 26.7537 112.1084 71.9682 0.0000 0.0000 0.0000
# 3 42.4982 71.9682 146.4602 0.0000 0.0000 0.0000
# 4 0.0000 0.0000 0.0000 31.6964 0.0000 0.0000
# 5 0.0000 0.0000 0.0000 0.0000 25.8080 0.0000
# 6 0.0000 0.0000 0.0000 0.0000 0.0000 21.1036
#
#
#
# Elastic Compliance Matrix: (Units=1/GPa)
#
#
# Indices 1 2 3 4 5 6 
#
# 1 0.024916 -0.001906 -0.006293 0.000000 0.000000 0.000000
# 2 -0.001906 0.013176 -0.005921 0.000000 0.000000 0.000000
# 3 -0.006293 -0.005921 0.011564 0.000000 0.000000 0.000000
# 4 0.000000 0.000000 0.000000 0.031549 0.000000 0.000000
# 5 0.000000 0.000000 0.000000 0.000000 0.038748 0.000000
# 6 0.000000 0.000000 0.000000 0.000000 0.000000 0.047385
#
#
# Mechanical properties :
#
#
# Convention : Reuss Voigt Hill
#
# Bulk Modulus (GPa) = 46.69746 65.99154 56.34450
# Shear Modulus (GPa) = 24.66474 27.07247 25.86861
#
# Velocity S-wave (km/s) = 3.54453 3.71350 3.63000
# Velocity P-wave (km/s) = 6.36696 7.21120 6.80219
#
# Compressibility (1/GPa) = 0.02141444
#
# Stress axis : x y z
#
# Youngs Moduli (GPa) = 40.13411 75.89510 86.47794
#
# Poissons Ratio (x) = 0.14466 0.54424
# Poissons Ratio (y) = 0.07650 0.51207
# Poissons Ratio (z) = 0.25258 0.44941
#
# Static dielectric constant tensor:
#      x y z
#    x 3.560930 0.000000 0.000000 
#    y 0.000000 3.580870 0.000000 
#    z 0.000000 0.000000 3.994950 
# 
# 
# High freq. dielectric constant tensor:
#      x y z
#    x 1.760640 0.000000 0.000000 
#    y 0.000000 1.752940 0.000000 
#    z 0.000000 0.000000 1.767490 
# 
# From -- ./inp_files/72894.got.cif
#   From: 2010.03.12/outbox.cif.g09.slc.cpg/sg65_37_cif.got.tgz:72894.got - 2010.04.10 20:52:16.
