data_PCOD8271648
_publ_section_title
;
Structure prediction by ZEFSAII (Michael W. Deem and Ramdas Pophale) SiO2 
 PCOD8271648
Probable space group: C M M M
;
_chemical_formula_sum "Si O2"
_cell_formula_units_Z 88
_cell_length_a 9.216439
_cell_length_b 27.818737
_cell_length_c 19.296952
_cell_angle_alpha 90.000000
_cell_angle_beta 90.000000
_cell_angle_gamma 90.000000
_cell_volume 4947.539592
_symmetry_space_group_name_H-M "C M M M"
_symmetry_group_IT_number 65
_symmetry_cell_setting 'orthorhombic'
loop_
_space_group_symop_operation_xyz
x,y,z
-x,-y,z
x,-y,-z
-x,y,-z
-x,-y,-z
x,y,-z
-x,y,z
x,-y,z
1/2+x,1/2+y,z
1/2-x,1/2-y,z
1/2+x,1/2-y,-z
1/2-x,1/2+y,-z
1/2-x,1/2-y,-z
1/2+x,1/2+y,-z
1/2-x,1/2+y,z
1/2+x,1/2-y,z
loop_
_atom_site_type_symbol
_atom_site_label
_atom_site_fract_x
_atom_site_fract_y
_atom_site_fract_z
Si Si1 0.169496 0.887519 0.578555
Si Si2 0.172922 0.602802 0.076466
Si Si3 0.156304 0.500000 0.919006
Si Si4 0.670473 0.298467 0.673939
Si Si5 0.669222 0.857733 0.217828
Si Si6 0.667693 0.945897 0.313312
O O1 0.226531 0.885055 0.500000
O O2 0.207261 0.836965 0.614662
O O3 0.246653 0.931269 0.617544
O O4 0.000000 0.897864 0.581607
O O5 0.239945 0.550153 0.097527
O O6 0.215029 0.640601 0.136480
O O7 0.000000 0.596405 0.074537
O O8 0.228450 0.619897 0.000000
O O9 0.000000 0.500000 0.879211
O O10 0.125391 0.500000 0.000000
O O11 0.500000 0.289376 0.682363
O O12 0.750000 0.250000 0.651058
O O13 0.734475 0.316497 0.747245
O O14 0.500000 0.844766 0.227231
O O15 0.705228 0.909788 0.250727
O O16 0.500000 0.943055 0.332868
O O17 0.712360 0.000000 0.290906
#
# Coordination Sequence:
#
# PCOD8271648 Si02
#       6
#    16  16   8  16  16  16
#     4   9  19  35  52  71  95 122 154 191 231 280
#     4   8  13  21  37  64  96 127 159 196 235 272
#     4   7  10  16  28  54  91 123 150 183 224 264
#     4  10  20  35  54  73  94 118 149 190 238 289
#     4   9  17  29  47  70  97 128 161 196 235 278
#     4   9  18  30  44  67  99 133 166 197 229 266
#
# _framework density 17.786619000000002
#
# number of rings (size 3 to 8) (size 9 to 14) (size 15 to 20)
#    0.000    3.182    0.000    1.636    1.273    2.182 
#    0.000    1.818    0.000    1.091    0.000    0.000 
#    0.000    2.182    0.000    0.000    0.000    0.000 
#
# Total GULP energy -545241.253950 kJ/mol
# GULP energy per Si atom -12391.846681 kJ/mol
# Density = 1.774614 g / cm^3
# Si number density = 17.786619 Si / 1000 Ang^3
#
#
#
# Elastic Constant Matrix: (Units=GPa)
#
#
# Indices 1 2 3 4 5 6 
#
# 1 37.8239 21.9649 20.1361 0.0000 0.0000 0.0000
# 2 21.9649 58.7634 11.1524 0.0000 0.0000 0.0000
# 3 20.1361 11.1524 99.0100 0.0000 0.0000 0.0000
# 4 0.0000 0.0000 0.0000 16.4514 0.0000 0.0000
# 5 0.0000 0.0000 0.0000 0.0000 16.2200 0.0000
# 6 0.0000 0.0000 0.0000 0.0000 0.0000 22.0169
#
#
#
# Elastic Compliance Matrix: (Units=1/GPa)
#
#
# Indices 1 2 3 4 5 6 
#
# 1 0.037061 -0.012694 -0.006107 0.000000 0.000000 0.000000
# 2 -0.012694 0.021737 0.000133 0.000000 0.000000 0.000000
# 3 -0.006107 0.000133 0.011327 0.000000 0.000000 0.000000
# 4 0.000000 0.000000 0.000000 0.060785 0.000000 0.000000
# 5 0.000000 0.000000 0.000000 0.000000 0.061652 0.000000
# 6 0.000000 0.000000 0.000000 0.000000 0.000000 0.045420
#
#
# Mechanical properties :
#
#
# Convention : Reuss Voigt Hill
#
# Bulk Modulus (GPa) = 30.49811 33.56711 32.03261
# Shear Modulus (GPa) = 17.46737 20.42725 18.94731
#
# Velocity S-wave (km/s) = 3.13717 3.39257 3.26737
# Velocity P-wave (km/s) = 5.50512 5.85313 5.68179
#
# Compressibility (1/GPa) = 0.03278892
#
# Stress axis : x y z
#
# Youngs Moduli (GPa) = 26.98245 46.00479 88.28389
#
# Poissons Ratio (x) = 0.58397 0.53919
# Poissons Ratio (y) = 0.34251 -0.01176
# Poissons Ratio (z) = 0.16479 -0.00613
#
# Static dielectric constant tensor:
#      x y z
#    x 2.980030 0.000000 0.000000 
#    y 0.000000 3.279510 0.000000 
#    z 0.000000 0.000000 3.441550 
# 
# 
# High freq. dielectric constant tensor:
#      x y z
#    x 1.650160 0.000000 0.000000 
#    y 0.000000 1.674240 0.000000 
#    z 0.000000 0.000000 1.688590 
# 
# From -- ./inp_files/60728.got.cif
#   From: 2010.03.12/outbox.cif.g09.slc.cpg/sg65_31_cif.got.tgz:60728.got - 2010.04.10 20:52:16.
