data_PCOD8271785
_publ_section_title
;
Structure prediction by ZEFSAII (Michael W. Deem and Ramdas Pophale) SiO2 
 PCOD8271785
Probable space group: C M M M
;
_chemical_formula_sum "Si O2"
_cell_formula_units_Z 64
_cell_length_a 29.296046
_cell_length_b 7.889629
_cell_length_c 13.944219
_cell_angle_alpha 90.000000
_cell_angle_beta 90.000000
_cell_angle_gamma 90.000000
_cell_volume 3222.996140
_symmetry_space_group_name_H-M "C M M M"
_symmetry_group_IT_number 65
_symmetry_cell_setting 'orthorhombic'
loop_
_space_group_symop_operation_xyz
x,y,z
-x,-y,z
x,-y,-z
-x,y,-z
-x,-y,-z
x,y,-z
-x,y,z
x,-y,z
1/2+x,1/2+y,z
1/2-x,1/2-y,z
1/2+x,1/2-y,-z
1/2-x,1/2+y,-z
1/2-x,1/2-y,-z
1/2+x,1/2+y,-z
1/2-x,1/2+y,z
1/2+x,1/2-y,z
loop_
_atom_site_type_symbol
_atom_site_label
_atom_site_fract_x
_atom_site_fract_y
_atom_site_fract_z
Si Si1 0.298167 0.311466 0.386770
Si Si2 0.402941 0.693770 0.106875
Si Si3 0.500000 0.186338 0.111729
Si Si4 0.111819 0.688172 0.695783
Si Si5 0.945932 0.000000 0.386595
O O1 0.294285 0.308285 0.500000
O O2 0.308655 0.500000 0.348689
O O3 0.250000 0.250000 0.342314
O O4 0.339651 0.192345 0.356580
O O5 0.387834 0.500000 0.104640
O O6 0.455710 0.706642 0.140308
O O7 0.375987 0.790119 0.190717
O O8 0.394913 0.773570 0.000000
O O9 0.500000 0.000000 0.162161
O O10 0.500000 0.156221 0.000000
O O11 0.090971 0.500000 0.678056
O O12 0.076894 0.831254 0.657920
O O13 0.936329 0.000000 0.500000
O O14 0.000000 0.000000 0.364498
#
# Coordination Sequence:
#
# PCOD8271785 Si02
#       5
#    16  16   8  16   8
#     4  10  20  37  62  92 123 153 195 254 313 368
#     4  10  20  35  55  80 114 155 199 249 302 354
#     4   9  17  29  47  75 107 142 191 247 297 347
#     4  12  24  39  63  91 123 163 206 253 307 370
#     4  11  26  46  63  85 123 167 212 258 304 364
#
# _framework density 19.857301
#
# number of rings (size 3 to 8) (size 9 to 14) (size 15 to 20)
#    0.000    1.500    2.500    2.625    1.750    6.500 
#    0.000    1.250    0.000    0.750    0.000    0.000 
#    0.000    0.000    0.000    0.000    0.000    0.000 
#
# Total GULP energy -396590.285816 kJ/mol
# GULP energy per Si atom -12393.446432 kJ/mol
# Density = 1.981210 g / cm^3
# Si number density = 19.857301 Si / 1000 Ang^3
#
#
#
# Elastic Constant Matrix: (Units=GPa)
#
#
# Indices 1 2 3 4 5 6 
#
# 1 89.9839 36.4582 24.6609 0.0000 0.0000 0.0000
# 2 36.4582 141.1194 43.1408 0.0000 0.0000 0.0000
# 3 24.6609 43.1408 75.9403 0.0000 0.0000 0.0000
# 4 0.0000 0.0000 0.0000 18.7874 0.0000 0.0000
# 5 0.0000 0.0000 0.0000 0.0000 15.1711 0.0000
# 6 0.0000 0.0000 0.0000 0.0000 0.0000 -56.5455
#
#
#
# Elastic Compliance Matrix: (Units=1/GPa)
#
#
# Indices 1 2 3 4 5 6 
#
# 1 0.012878 -0.002479 -0.002774 0.000000 0.000000 0.000000
# 2 -0.002479 0.009053 -0.004338 0.000000 0.000000 0.000000
# 3 -0.002774 -0.004338 0.016533 0.000000 0.000000 0.000000
# 4 0.000000 0.000000 0.000000 0.053227 0.000000 0.000000
# 5 0.000000 0.000000 0.000000 0.000000 0.065915 0.000000
# 6 0.000000 0.000000 0.000000 0.000000 0.000000 -0.017685
#
#
# Mechanical properties :
#
#
# Convention : Reuss Voigt Hill
#
# Bulk Modulus (GPa) = 51.85953 57.28480 54.57217
# Shear Modulus (GPa) = 30.20617 9.00150 19.60383
#
# Velocity S-wave (km/s) = 3.90444 2.13142 3.14544
# Velocity P-wave (km/s) = 6.81902 5.91338 6.38228
#
# Compressibility (1/GPa) = 0.01928286
#
# Stress axis : x y z
#
# Youngs Moduli (GPa) = 77.65396 110.46422 60.48463
#
# Poissons Ratio (x) = 0.27385 0.16776
# Poissons Ratio (y) = 0.19251 0.26236
# Poissons Ratio (z) = 0.21538 0.47916
#
# Static dielectric constant tensor:
#      x y z
#    x 3.569930 0.000000 0.000000 
#    y 0.000000 3.737420 0.000000 
#    z 0.000000 0.000000 3.762400 
# 
# 
# High freq. dielectric constant tensor:
#      x y z
#    x 1.746840 0.000000 0.000000 
#    y 0.000000 1.784010 0.000000 
#    z 0.000000 0.000000 1.768900 
# 
# From -- ./inp_files/47391.got.cif
#   From: 2010.03.12/outbox.cif.g09.slc.cpg/sg65_24_cif.got.tgz:47391.got - 2010.04.10 20:52:16.
