data_PCOD8271360
_publ_section_title
;
Structure prediction by ZEFSAII (Michael W. Deem and Ramdas Pophale) SiO2 
 PCOD8271360
Probable space group: C M M M
;
_chemical_formula_sum "Si O2"
_cell_formula_units_Z 80
_cell_length_a 8.988090
_cell_length_b 18.363436
_cell_length_c 25.163890
_cell_angle_alpha 90.000000
_cell_angle_beta 90.000000
_cell_angle_gamma 90.000000
_cell_volume 4153.355795
_symmetry_space_group_name_H-M "C M M M"
_symmetry_group_IT_number 65
_symmetry_cell_setting 'orthorhombic'
loop_
_space_group_symop_operation_xyz
x,y,z
-x,-y,z
x,-y,-z
-x,y,-z
-x,-y,-z
x,y,-z
-x,y,z
x,-y,z
1/2+x,1/2+y,z
1/2-x,1/2-y,z
1/2+x,1/2-y,-z
1/2-x,1/2+y,-z
1/2-x,1/2-y,-z
1/2+x,1/2+y,-z
1/2-x,1/2+y,z
1/2+x,1/2-y,z
loop_
_atom_site_type_symbol
_atom_site_label
_atom_site_fract_x
_atom_site_fract_y
_atom_site_fract_z
Si Si1 0.325520 0.175010 0.087000
Si Si2 0.175978 0.171794 0.398604
Si Si3 0.173140 0.083825 0.705092
Si Si4 0.331127 0.414193 0.000000
Si Si5 0.176921 0.082002 0.500000
Si Si6 0.673368 0.175329 0.209563
O O1 0.500000 0.180225 0.075540
O O2 0.250000 0.250000 0.069065
O O3 0.291089 0.157970 0.148352
O O4 0.253963 0.111133 0.052742
O O5 0.250000 0.250000 0.400202
O O6 0.225584 0.130430 0.345379
O O7 0.234784 0.124455 0.448134
O O8 0.000000 0.181625 0.401318
O O9 0.264203 0.108464 0.756626
O O10 0.000000 0.095610 0.716925
O O11 0.209390 0.000000 0.693139
O O12 0.328829 0.500000 0.000000
O O13 0.500000 0.384420 0.000000
O O14 0.000000 0.078191 0.500000
O O15 0.242313 0.000000 0.500000
O O16 0.500000 0.184461 0.220107
O O17 0.750000 0.250000 0.228148
#
# Coordination Sequence:
#
# PCOD8271360 Si02
#       6
#    16  16  16   8   8  16
#     4  10  21  38  60  83 109 142 181 224 268 319
#     4  10  20  34  54  79 106 139 180 223 268 320
#     4  10  21  36  54  78 109 144 181 223 272 324
#     4  11  24  39  56  81 113 147 182 221 268 321
#     4   9  17  32  55  79 104 137 178 222 266 319
#     4  10  21  37  58  83 109 141 181 223 269 321
#
# _framework density 19.261533
#
# number of rings (size 3 to 8) (size 9 to 14) (size 15 to 20)
#    0.000    2.000    0.000    3.300    0.000    9.200 
#    0.000    4.000    0.000    2.400    0.000    0.000 
#    0.000    0.000    0.000    0.000    0.000    0.000 
#
# Total GULP energy -496197.924437 kJ/mol
# GULP energy per Si atom -12404.948111 kJ/mol
# Density = 1.921769 g / cm^3
# Si number density = 19.261533 Si / 1000 Ang^3
#
#
#
# Elastic Constant Matrix: (Units=GPa)
#
#
# Indices 1 2 3 4 5 6 
#
# 1 75.6612 49.5802 51.1548 0.0000 0.0000 0.0000
# 2 49.5802 140.7916 72.3424 0.0000 0.0000 0.0000
# 3 51.1548 72.3424 122.5247 0.0000 0.0000 0.0000
# 4 0.0000 0.0000 0.0000 20.8656 0.0000 0.0000
# 5 0.0000 0.0000 0.0000 0.0000 14.0291 0.0000
# 6 0.0000 0.0000 0.0000 0.0000 0.0000 35.2551
#
#
#
# Elastic Compliance Matrix: (Units=1/GPa)
#
#
# Indices 1 2 3 4 5 6 
#
# 1 0.019812 -0.003914 -0.005960 0.000000 0.000000 0.000000
# 2 -0.003914 0.010969 -0.004842 0.000000 0.000000 0.000000
# 3 -0.005960 -0.004842 0.013509 0.000000 0.000000 0.000000
# 4 0.000000 0.000000 0.000000 0.047926 0.000000 0.000000
# 5 0.000000 0.000000 0.000000 0.000000 0.071280 0.000000
# 6 0.000000 0.000000 0.000000 0.000000 0.000000 0.028365
#
#
# Mechanical properties :
#
#
# Convention : Reuss Voigt Hill
#
# Bulk Modulus (GPa) = 67.31222 76.12581 71.71901
# Shear Modulus (GPa) = 22.09976 25.08998 23.59487
#
# Velocity S-wave (km/s) = 3.39093 3.61306 3.50376
# Velocity P-wave (km/s) = 7.09602 7.55074 7.32691
#
# Compressibility (1/GPa) = 0.01485614
#
# Stress axis : x y z
#
# Youngs Moduli (GPa) = 50.47564 91.16428 74.02329
#
# Poissons Ratio (x) = 0.35682 0.44121
# Poissons Ratio (y) = 0.19756 0.35845
# Poissons Ratio (z) = 0.30086 0.44146
#
# Static dielectric constant tensor:
#      x y z
#    x 3.457690 0.000000 0.000000 
#    y 0.000000 3.481770 0.000000 
#    z 0.000000 0.000000 3.652120 
# 
# 
# High freq. dielectric constant tensor:
#      x y z
#    x 1.740700 0.000000 0.000000 
#    y 0.000000 1.753280 0.000000 
#    z 0.000000 0.000000 1.763490 
# 
# From -- ./inp_files/67278.got.cif
#   From: 2010.03.12/outbox.cif.g09.slc.cpg/sg65_34_cif.got.tgz:67278.got - 2010.04.10 20:52:16.
