data_PCOD8271790
_publ_section_title
;
Structure prediction by ZEFSAII (Michael W. Deem and Ramdas Pophale) SiO2 
 PCOD8271790
Probable space group: C M M M
;
_chemical_formula_sum "Si O2"
_cell_formula_units_Z 112
_cell_length_a 14.852607
_cell_length_b 15.607166
_cell_length_c 23.377858
_cell_angle_alpha 90.000000
_cell_angle_beta 90.000000
_cell_angle_gamma 90.000000
_cell_volume 5419.153537
_symmetry_space_group_name_H-M "C M M M"
_symmetry_group_IT_number 65
_symmetry_cell_setting 'orthorhombic'
loop_
_space_group_symop_operation_xyz
x,y,z
-x,-y,z
x,-y,-z
-x,y,-z
-x,-y,-z
x,y,-z
-x,y,z
x,-y,z
1/2+x,1/2+y,z
1/2-x,1/2-y,z
1/2+x,1/2-y,-z
1/2-x,1/2+y,-z
1/2-x,1/2-y,-z
1/2+x,1/2+y,-z
1/2-x,1/2+y,z
1/2+x,1/2-y,z
loop_
_atom_site_type_symbol
_atom_site_label
_atom_site_fract_x
_atom_site_fract_y
_atom_site_fract_z
Si Si1 0.897096 0.092972 0.876098
Si Si2 0.600626 0.602034 0.564524
Si Si3 0.897103 0.864031 0.752321
Si Si4 0.763683 0.904883 0.657600
Si Si5 0.897138 0.665985 0.275436
Si Si6 0.647298 0.237771 0.938234
Si Si7 0.893998 0.594937 0.154888
O O1 0.854472 0.120189 0.815284
O O2 0.889720 0.169266 0.921141
O O3 0.000000 0.078389 0.862938
O O4 0.856501 0.000000 0.897006
O O5 0.620961 0.632730 0.500000
O O6 0.500000 0.634452 0.583000
O O7 0.601571 0.500000 0.568406
O O8 0.679497 0.639313 0.605621
O O9 0.833133 0.914584 0.709685
O O10 0.892449 0.764486 0.739316
O O11 0.000000 0.897114 0.746226
O O12 0.673093 0.852278 0.673091
O O13 0.731634 0.000000 0.640238
O O14 0.862105 0.615762 0.219216
O O15 0.000000 0.639424 0.292467
O O16 0.750000 0.250000 0.949028
O O17 0.636874 0.164140 0.891330
O O18 0.602914 0.212237 0.000000
O O19 0.858340 0.500000 0.137982
O O20 0.000000 0.598004 0.154858
#
# Coordination Sequence:
#
# PCOD8271790 Si02
#       7
#    16  16  16  16  16  16  16
#     4  10  21  38  60  84 111 145 184 230 289 357
#     4   8  15  30  52  80 118 159 197 242 293 344
#     4  10  20  35  55  81 114 147 184 233 288 350
#     4  11  21  31  53  87 116 148 189 239 294 348
#     4  10  21  37  55  78 113 155 195 237 290 351
#     4  11  25  41  58  82 113 148 184 232 291 354
#     4  10  21  39  62  83 105 141 193 247 293 340
#
# _framework density 20.667434
#
# number of rings (size 3 to 8) (size 9 to 14) (size 15 to 20)
#    0.000    2.000    1.429    2.571    2.000    4.571 
#    0.000    2.857    0.000    2.143    0.000    4.000 
#    0.000    0.000    0.000    0.000    0.000    0.000 
#
# Total GULP energy -693839.589145 kJ/mol
# GULP energy per Si atom -12389.992663 kJ/mol
# Density = 2.062039 g / cm^3
# Si number density = 20.667434 Si / 1000 Ang^3
#
#
#
# Elastic Constant Matrix: (Units=GPa)
#
#
# Indices 1 2 3 4 5 6 
#
# 1 89.4887 29.3417 55.4405 0.0000 0.0000 0.0000
# 2 29.3417 102.4441 34.1517 0.0000 0.0000 0.0000
# 3 55.4405 34.1517 122.5941 0.0000 0.0000 0.0000
# 4 0.0000 0.0000 0.0000 21.7125 0.0000 0.0000
# 5 0.0000 0.0000 0.0000 0.0000 25.2470 0.0000
# 6 0.0000 0.0000 0.0000 0.0000 0.0000 13.9121
#
#
#
# Elastic Compliance Matrix: (Units=1/GPa)
#
#
# Indices 1 2 3 4 5 6 
#
# 1 0.016041 -0.002399 -0.006586 0.000000 0.000000 0.000000
# 2 -0.002399 0.011120 -0.002013 0.000000 0.000000 0.000000
# 3 -0.006586 -0.002013 0.011696 0.000000 0.000000 0.000000
# 4 0.000000 0.000000 0.000000 0.046056 0.000000 0.000000
# 5 0.000000 0.000000 0.000000 0.000000 0.039609 0.000000
# 6 0.000000 0.000000 0.000000 0.000000 0.000000 0.071880
#
#
# Mechanical properties :
#
#
# Convention : Reuss Voigt Hill
#
# Bulk Modulus (GPa) = 59.30678 61.37719 60.34198
# Shear Modulus (GPa) = 22.31965 25.21387 23.76676
#
# Velocity S-wave (km/s) = 3.28981 3.49661 3.39479
# Velocity P-wave (km/s) = 6.57180 6.78703 6.68028
#
# Compressibility (1/GPa) = 0.01686148
#
# Stress axis : x y z
#
# Youngs Moduli (GPa) = 62.33863 89.93207 85.49834
#
# Poissons Ratio (x) = 0.21574 0.56310
# Poissons Ratio (y) = 0.14955 0.17209
# Poissons Ratio (z) = 0.41057 0.18101
#
# Static dielectric constant tensor:
#      x y z
#    x 3.885550 0.000000 0.000000 
#    y 0.000000 3.578910 0.000000 
#    z 0.000000 0.000000 6.557420 
# 
# 
# High freq. dielectric constant tensor:
#      x y z
#    x 1.807040 0.000000 0.000000 
#    y 0.000000 1.799740 0.000000 
#    z 0.000000 0.000000 1.791670 
# 
# From -- ./inp_files/69967.got.cif
#   From: 2010.03.12/outbox.cif.g09.slc.cpg/sg65_35_cif.got.tgz:69967.got - 2010.04.10 20:52:16.
