data_PCOD8271396
_publ_section_title
;
Structure prediction by ZEFSAII (Michael W. Deem and Ramdas Pophale) SiO2 
 PCOD8271396
Probable space group: C M M M
;
_chemical_formula_sum "Si O2"
_cell_formula_units_Z 72
_cell_length_a 9.072751
_cell_length_b 18.632399
_cell_length_c 22.572377
_cell_angle_alpha 90.000000
_cell_angle_beta 90.000000
_cell_angle_gamma 90.000000
_cell_volume 3815.795248
_symmetry_space_group_name_H-M "C M M M"
_symmetry_group_IT_number 65
_symmetry_cell_setting 'orthorhombic'
loop_
_space_group_symop_operation_xyz
x,y,z
-x,-y,z
x,-y,-z
-x,y,-z
-x,-y,-z
x,y,-z
-x,y,z
x,-y,z
1/2+x,1/2+y,z
1/2-x,1/2-y,z
1/2+x,1/2-y,-z
1/2-x,1/2+y,-z
1/2-x,1/2-y,-z
1/2+x,1/2+y,-z
1/2-x,1/2+y,z
1/2+x,1/2-y,z
loop_
_atom_site_type_symbol
_atom_site_label
_atom_site_fract_x
_atom_site_fract_y
_atom_site_fract_z
Si Si1 0.827159 0.322355 0.656991
Si Si2 0.324122 0.672160 0.000000
Si Si3 0.828607 0.583337 0.100902
Si Si4 0.834220 0.084651 0.433833
Si Si5 0.670292 0.178792 0.790423
O O1 0.750000 0.250000 0.635077
O O2 0.779655 0.385677 0.613816
O O3 0.776845 0.341394 0.724125
O O4 0.000000 0.311653 0.652678
O O5 0.250000 0.750000 0.000000
O O6 0.273882 0.628048 0.057233
O O7 0.500000 0.680903 0.000000
O O8 0.784691 0.500000 0.097839
O O9 0.796587 0.611406 0.167203
O O10 0.000000 0.594239 0.083584
O O11 0.792079 0.111292 0.500000
O O12 0.000000 0.109971 0.418341
O O13 0.823444 0.000000 0.431093
O O14 0.500000 0.198602 0.790423
O O15 0.750000 0.250000 0.814544
#
# Coordination Sequence:
#
# PCOD8271396 Si02
#       5
#    16   8  16  16  16
#     4  10  20  34  54  80 109 140 177 221 266 314
#     4  12  25  40  59  83 111 143 183 226 267 314
#     4  10  21  38  59  83 113 146 178 216 266 319
#     4   9  19  36  55  75 103 139 177 219 269 323
#     4   9  19  35  55  79 107 141 179 219 263 314
#
# _framework density 18.868938
#
# number of rings (size 3 to 8) (size 9 to 14) (size 15 to 20)
#    0.000    2.222    0.000    3.333    0.000    7.556 
#    0.000    3.333    0.000    0.000    0.000    0.000 
#    0.000    0.000    0.000    0.000    0.000    0.000 
#
# Total GULP energy -446438.127334 kJ/mol
# GULP energy per Si atom -12401.059093 kJ/mol
# Density = 1.882599 g / cm^3
# Si number density = 18.868938 Si / 1000 Ang^3
#
#
#
# Elastic Constant Matrix: (Units=GPa)
#
#
# Indices 1 2 3 4 5 6 
#
# 1 86.9177 53.1265 51.3926 0.0000 0.0000 0.0000
# 2 53.1265 112.5402 61.8959 0.0000 0.0000 0.0000
# 3 51.3926 61.8959 107.7792 0.0000 0.0000 0.0000
# 4 0.0000 0.0000 0.0000 35.4423 0.0000 0.0000
# 5 0.0000 0.0000 0.0000 0.0000 31.5534 0.0000
# 6 0.0000 0.0000 0.0000 0.0000 0.0000 32.7296
#
#
#
# Elastic Compliance Matrix: (Units=1/GPa)
#
#
# Indices 1 2 3 4 5 6 
#
# 1 0.018126 -0.005559 -0.005451 0.000000 0.000000 0.000000
# 2 -0.005559 0.014693 -0.005787 0.000000 0.000000 0.000000
# 3 -0.005451 -0.005787 0.015201 0.000000 0.000000 0.000000
# 4 0.000000 0.000000 0.000000 0.028215 0.000000 0.000000
# 5 0.000000 0.000000 0.000000 0.000000 0.031692 0.000000
# 6 0.000000 0.000000 0.000000 0.000000 0.000000 0.030553
#
#
# Mechanical properties :
#
#
# Convention : Reuss Voigt Hill
#
# Bulk Modulus (GPa) = 69.31926 71.11859 70.21892
# Shear Modulus (GPa) = 28.26755 29.33321 28.80038
#
# Velocity S-wave (km/s) = 3.87473 3.94709 3.91108
# Velocity P-wave (km/s) = 7.53890 7.65149 7.59540
#
# Compressibility (1/GPa) = 0.01442601
#
# Stress axis : x y z
#
# Youngs Moduli (GPa) = 55.17061 68.06097 65.78628
#
# Poissons Ratio (x) = 0.37833 0.35857
# Poissons Ratio (y) = 0.30668 0.38072
# Poissons Ratio (z) = 0.30071 0.39388
#
# Static dielectric constant tensor:
#      x y z
#    x 3.497490 0.000000 0.000000 
#    y 0.000000 3.397680 0.000000 
#    z 0.000000 0.000000 3.686580 
# 
# 
# High freq. dielectric constant tensor:
#      x y z
#    x 1.729570 0.000000 0.000000 
#    y 0.000000 1.729330 0.000000 
#    z 0.000000 0.000000 1.743730 
# 
# From -- ./inp_files/59288.got.cif
#   From: 2010.03.12/outbox.cif.g09.slc.cpg/sg65_30_cif.got.tgz:59288.got - 2010.04.10 20:52:16.
