data_PCOD8271735
_publ_section_title
;
Structure prediction by ZEFSAII (Michael W. Deem and Ramdas Pophale) SiO2 
 PCOD8271735
Probable space group: C M M M
;
_chemical_formula_sum "Si O2"
_cell_formula_units_Z 88
_cell_length_a 21.909391
_cell_length_b 8.738784
_cell_length_c 24.097261
_cell_angle_alpha 90.000000
_cell_angle_beta 90.000000
_cell_angle_gamma 90.000000
_cell_volume 4613.696183
_symmetry_space_group_name_H-M "C M M M"
_symmetry_group_IT_number 65
_symmetry_cell_setting 'orthorhombic'
loop_
_space_group_symop_operation_xyz
x,y,z
-x,-y,z
x,-y,-z
-x,y,-z
-x,-y,-z
x,y,-z
-x,y,z
x,-y,z
1/2+x,1/2+y,z
1/2-x,1/2-y,z
1/2+x,1/2-y,-z
1/2-x,1/2+y,-z
1/2-x,1/2-y,-z
1/2+x,1/2+y,-z
1/2-x,1/2+y,z
1/2+x,1/2-y,z
loop_
_atom_site_type_symbol
_atom_site_label
_atom_site_fract_x
_atom_site_fract_y
_atom_site_fract_z
Si Si1 0.686928 0.675842 0.059731
Si Si2 0.500000 0.320153 0.938066
Si Si3 0.398682 0.823016 0.137134
Si Si4 0.930648 0.318628 0.366276
Si Si5 0.686279 0.180458 0.436299
Si Si6 0.571136 0.673267 0.248561
O O1 0.690063 0.500000 0.080549
O O2 0.750000 0.750000 0.044767
O O3 0.665280 0.787702 0.108901
O O4 0.650148 0.681242 0.000000
O O5 0.500000 0.500000 0.943490
O O6 0.442411 0.272108 0.902532
O O7 0.500000 0.246168 0.000000
O O8 0.395601 0.765233 0.200112
O O9 0.416795 0.000000 0.136985
O O10 0.929952 0.500000 0.363390
O O11 0.876112 0.259564 0.406590
O O12 0.914095 0.253264 0.306429
O O13 0.000000 0.265159 0.384672
O O14 0.679409 0.231255 0.500000
O O15 0.750000 0.250000 0.411929
O O16 0.691324 0.000000 0.429415
O O17 0.500000 0.677673 0.234972
O O18 0.595500 0.500000 0.250781
#
# Coordination Sequence:
#
# PCOD8271735 Si02
#       6
#    16   8  16  16  16  16
#     4  10  21  38  58  78 103 136 174 218 269 326
#     4  11  23  37  53  77 109 141 174 217 270 325
#     4  12  23  35  55  80 107 139 177 221 269 326
#     4   9  18  33  54  80 110 143 186 235 279 331
#     4   9  18  33  54  81 114 152 188 226 277 333
#     4  10  20  35  55  77 106 142 180 223 275 331
#
# _framework density 19.073644000000002
#
# number of rings (size 3 to 8) (size 9 to 14) (size 15 to 20)
#    0.000    1.909    0.909    3.545    0.000    5.818 
#    0.000    2.727    0.000    2.182    0.000    5.091 
#    0.000    0.000    0.000    0.000    0.000    0.000 
#
# Total GULP energy -545197.189330 kJ/mol
# GULP energy per Si atom -12390.845212 kJ/mol
# Density = 1.903023 g / cm^3
# Si number density = 19.073644 Si / 1000 Ang^3
#
#
#
# Elastic Constant Matrix: (Units=GPa)
#
#
# Indices 1 2 3 4 5 6 
#
# 1 102.5125 31.6753 66.6641 0.0000 0.0000 0.0000
# 2 31.6753 33.9550 31.4636 0.0000 0.0000 0.0000
# 3 66.6641 31.4636 118.6345 0.0000 0.0000 0.0000
# 4 0.0000 0.0000 0.0000 29.3179 0.0000 0.0000
# 5 0.0000 0.0000 0.0000 0.0000 43.1709 0.0000
# 6 0.0000 0.0000 0.0000 0.0000 0.0000 31.3402
#
#
#
# Elastic Compliance Matrix: (Units=1/GPa)
#
#
# Indices 1 2 3 4 5 6 
#
# 1 0.017420 -0.009519 -0.007264 0.000000 0.000000 0.000000
# 2 -0.009519 0.044249 -0.006386 0.000000 0.000000 0.000000
# 3 -0.007264 -0.006386 0.014205 0.000000 0.000000 0.000000
# 4 0.000000 0.000000 0.000000 0.034109 0.000000 0.000000
# 5 0.000000 0.000000 0.000000 0.000000 0.023164 0.000000
# 6 0.000000 0.000000 0.000000 0.000000 0.000000 0.031908
#
#
# Mechanical properties :
#
#
# Convention : Reuss Voigt Hill
#
# Bulk Modulus (GPa) = 33.85913 57.18981 45.52447
# Shear Modulus (GPa) = 22.60004 29.11907 25.85955
#
# Velocity S-wave (km/s) = 3.44595 3.91150 3.68608
# Velocity P-wave (km/s) = 5.79854 7.10271 6.48350
#
# Compressibility (1/GPa) = 0.02953413
#
# Stress axis : x y z
#
# Youngs Moduli (GPa) = 57.40440 22.59961 70.39799
#
# Poissons Ratio (x) = 0.21513 0.51139
# Poissons Ratio (y) = 0.54646 0.44957
# Poissons Ratio (z) = 0.41700 0.14432
#
# Static dielectric constant tensor:
#      x y z
#    x 3.902840 0.000000 0.000000 
#    y 0.000000 3.434140 0.000000 
#    z 0.000000 0.000000 3.522150 
# 
# 
# High freq. dielectric constant tensor:
#      x y z
#    x 1.732870 0.000000 0.000000 
#    y 0.000000 1.741660 0.000000 
#    z 0.000000 0.000000 1.740730 
# 
# From -- ./inp_files/65193.got.cif
#   From: 2010.03.12/outbox.cif.g09.slc.cpg/sg65_33_cif.got.tgz:65193.got - 2010.04.10 20:52:16.
