data_PCOD8271783
_publ_section_title
;
Structure prediction by ZEFSAII (Michael W. Deem and Ramdas Pophale) SiO2 
 PCOD8271783
Probable space group: C M M M
;
_chemical_formula_sum "Si O2"
_cell_formula_units_Z 56
_cell_length_a 7.755754
_cell_length_b 27.988647
_cell_length_c 13.934423
_cell_angle_alpha 90.000000
_cell_angle_beta 90.000000
_cell_angle_gamma 90.000000
_cell_volume 3024.787853
_symmetry_space_group_name_H-M "C M M M"
_symmetry_group_IT_number 65
_symmetry_cell_setting 'orthorhombic'
loop_
_space_group_symop_operation_xyz
x,y,z
-x,-y,z
x,-y,-z
-x,y,-z
-x,-y,-z
x,y,-z
-x,y,z
x,-y,z
1/2+x,1/2+y,z
1/2-x,1/2-y,z
1/2+x,1/2-y,-z
1/2-x,1/2+y,-z
1/2-x,1/2-y,-z
1/2+x,1/2+y,-z
1/2-x,1/2+y,z
1/2+x,1/2-y,z
loop_
_atom_site_type_symbol
_atom_site_label
_atom_site_fract_x
_atom_site_fract_y
_atom_site_fract_z
Si Si1 0.203685 0.553511 0.394781
Si Si2 0.202271 0.803076 0.109338
Si Si3 0.696655 0.894749 0.792657
Si Si4 0.000000 0.948027 0.111456
O O1 0.278735 0.567876 0.500000
O O2 0.268725 0.500000 0.366951
O O3 0.262278 0.592297 0.315157
O O4 0.000000 0.552998 0.401255
O O5 0.250000 0.750000 0.142787
O O6 0.295321 0.838338 0.184627
O O7 0.000000 0.811858 0.114850
O O8 0.268601 0.811736 0.000000
O O9 0.500000 0.912905 0.807294
O O10 0.824696 0.920474 0.865161
O O11 0.000000 0.000000 0.162258
O O12 0.000000 0.954956 0.000000
#
# Coordination Sequence:
#
# PCOD8271783 Si02
#       4
#    16  16  16   8
#     4   8  15  30  53  80 108 140 182 229 274 322
#     4  10  20  35  55  80 109 141 182 232 279 327
#     4  11  21  35  57  81 109 147 185 227 278 335
#     4  11  24  38  51  75 113 151 188 228 268 323
#
# _framework density 18.513695999999999
#
# number of rings (size 3 to 8) (size 9 to 14) (size 15 to 20)
#    0.000    2.143    1.429    3.429    0.000    5.143 
#    0.000    2.143    0.000    3.429    0.000    0.000 
#    0.000    0.000    0.000    0.000    0.000    0.000 
#
# Total GULP energy -347023.777720 kJ/mol
# GULP energy per Si atom -12393.706347 kJ/mol
# Density = 1.847156 g / cm^3
# Si number density = 18.513696 Si / 1000 Ang^3
#
#
#
# Elastic Constant Matrix: (Units=GPa)
#
#
# Indices 1 2 3 4 5 6 
#
# 1 75.2945 21.5862 21.0361 0.0000 0.0000 0.0000
# 2 21.5862 133.2962 75.2761 0.0000 0.0000 0.0000
# 3 21.0361 75.2761 118.3942 0.0000 0.0000 0.0000
# 4 0.0000 0.0000 0.0000 36.3463 0.0000 0.0000
# 5 0.0000 0.0000 0.0000 0.0000 12.8444 0.0000
# 6 0.0000 0.0000 0.0000 0.0000 0.0000 20.8773
#
#
#
# Elastic Compliance Matrix: (Units=1/GPa)
#
#
# Indices 1 2 3 4 5 6 
#
# 1 0.014131 -0.001358 -0.001647 0.000000 0.000000 0.000000
# 2 -0.001358 0.011835 -0.007284 0.000000 0.000000 0.000000
# 3 -0.001647 -0.007284 0.013370 0.000000 0.000000 0.000000
# 4 0.000000 0.000000 0.000000 0.027513 0.000000 0.000000
# 5 0.000000 0.000000 0.000000 0.000000 0.077855 0.000000
# 6 0.000000 0.000000 0.000000 0.000000 0.000000 0.047899
#
#
# Mechanical properties :
#
#
# Convention : Reuss Voigt Hill
#
# Bulk Modulus (GPa) = 53.31037 62.53129 57.92083
# Shear Modulus (GPa) = 22.78588 27.95269 25.36929
#
# Velocity S-wave (km/s) = 3.51202 3.88988 3.70577
# Velocity P-wave (km/s) = 6.73078 7.35010 7.04724
#
# Compressibility (1/GPa) = 0.01875808
#
# Stress axis : x y z
#
# Youngs Moduli (GPa) = 70.76761 84.49270 74.79388
#
# Poissons Ratio (x) = 0.11475 0.12320
# Poissons Ratio (y) = 0.09611 0.54478
# Poissons Ratio (z) = 0.11657 0.61542
#
# Static dielectric constant tensor:
#      x y z
#    x 3.334990 0.000000 0.000000 
#    y 0.000000 3.514660 0.000000 
#    z 0.000000 0.000000 3.675780 
# 
# 
# High freq. dielectric constant tensor:
#      x y z
#    x 1.716940 0.000000 0.000000 
#    y 0.000000 1.708050 0.000000 
#    z 0.000000 0.000000 1.705970 
# 
# From -- ./inp_files/36221.got.cif
#   From: 2010.03.12/outbox.cif.g09.slc.cpg/sg65_19_cif.got.tgz:36221.got - 2010.04.10 20:52:16.
