data_PCOD8271638
_publ_section_title
;
Structure prediction by ZEFSAII (Michael W. Deem and Ramdas Pophale) SiO2 
 PCOD8271638
Probable space group: C M M M
;
_chemical_formula_sum "Si O2"
_cell_formula_units_Z 104
_cell_length_a 13.405564
_cell_length_b 23.739252
_cell_length_c 17.752015
_cell_angle_alpha 90.000000
_cell_angle_beta 90.000000
_cell_angle_gamma 90.000000
_cell_volume 5649.366850
_symmetry_space_group_name_H-M "C M M M"
_symmetry_group_IT_number 65
_symmetry_cell_setting 'orthorhombic'
loop_
_space_group_symop_operation_xyz
x,y,z
-x,-y,z
x,-y,-z
-x,y,-z
-x,-y,-z
x,y,-z
-x,y,z
x,-y,z
1/2+x,1/2+y,z
1/2-x,1/2-y,z
1/2+x,1/2-y,-z
1/2-x,1/2+y,-z
1/2-x,1/2-y,-z
1/2+x,1/2+y,-z
1/2-x,1/2+y,z
1/2+x,1/2-y,z
loop_
_atom_site_type_symbol
_atom_site_label
_atom_site_fract_x
_atom_site_fract_y
_atom_site_fract_z
Si Si1 0.227118 0.816300 0.788528
Si Si2 0.116788 0.369025 0.694977
Si Si3 0.762125 0.564420 0.413902
Si Si4 0.115458 0.877775 0.910933
Si Si5 0.617457 0.500000 0.917970
Si Si6 0.381900 0.773980 0.417426
Si Si7 0.382663 0.656910 0.641696
O O1 0.250000 0.750000 0.786622
O O2 0.325219 0.855633 0.772694
O O3 0.185252 0.831875 0.870770
O O4 0.141729 0.834163 0.729402
O O5 0.149481 0.423983 0.647297
O O6 0.158355 0.318038 0.643106
O O7 0.000000 0.371078 0.711692
O O8 0.798600 0.575896 0.500000
O O9 0.729491 0.500000 0.404605
O O10 0.666153 0.601610 0.393757
O O11 0.145593 0.940535 0.878104
O O12 0.000000 0.864453 0.893608
O O13 0.135554 0.874863 0.000000
O O14 0.500000 0.500000 0.930195
O O15 0.669045 0.500000 0.000000
O O16 0.348755 0.794105 0.500000
O O17 0.500000 0.772588 0.409120
O O18 0.339570 0.711603 0.402524
O O19 0.500000 0.650249 0.631095
#
# Coordination Sequence:
#
# PCOD8271638 Si02
#       7
#    16  16  16  16   8  16  16
#     4  11  21  34  53  79 112 147 178 218 264 322
#     4  10  21  37  54  74 103 142 184 230 275 313
#     4  10  22  37  53  76 104 139 185 230 274 326
#     4   9  18  34  58  87 116 144 174 212 261 319
#     4   7  12  28  54  82 109 135 164 201 249 301
#     4   9  16  28  51  78  97 125 176 226 269 314
#     4  10  20  35  53  78 110 143 173 214 276 338
#
# _framework density 18.409141999999999
#
# number of rings (size 3 to 8) (size 9 to 14) (size 15 to 20)
#    0.000    2.385    1.538    2.308    0.000    3.385 
#    5.538    3.846    0.000    0.462    0.000    0.000 
#    0.000    1.846    0.000    0.000    0.000    0.000 
#
# Total GULP energy -644423.789430 kJ/mol
# GULP energy per Si atom -12392.765181 kJ/mol
# Density = 1.836724 g / cm^3
# Si number density = 18.409142 Si / 1000 Ang^3
#
#
#
# Elastic Constant Matrix: (Units=GPa)
#
#
# Indices 1 2 3 4 5 6 
#
# 1 57.2816 26.6034 28.6505 0.0000 0.0000 0.0000
# 2 26.6034 109.8981 36.8256 0.0000 0.0000 0.0000
# 3 28.6505 36.8256 76.6006 0.0000 0.0000 0.0000
# 4 0.0000 0.0000 0.0000 19.5073 0.0000 0.0000
# 5 0.0000 0.0000 0.0000 0.0000 21.3733 0.0000
# 6 0.0000 0.0000 0.0000 0.0000 0.0000 22.7390
#
#
#
# Elastic Compliance Matrix: (Units=1/GPa)
#
#
# Indices 1 2 3 4 5 6 
#
# 1 0.022331 -0.003108 -0.006858 0.000000 0.000000 0.000000
# 2 -0.003108 0.011279 -0.004260 0.000000 0.000000 0.000000
# 3 -0.006858 -0.004260 0.017668 0.000000 0.000000 0.000000
# 4 0.000000 0.000000 0.000000 0.051263 0.000000 0.000000
# 5 0.000000 0.000000 0.000000 0.000000 0.046787 0.000000
# 6 0.000000 0.000000 0.000000 0.000000 0.000000 0.043977
#
#
# Mechanical properties :
#
#
# Convention : Reuss Voigt Hill
#
# Bulk Modulus (GPa) = 43.80958 47.54879 45.67918
# Shear Modulus (GPa) = 21.79911 22.83729 22.31820
#
# Velocity S-wave (km/s) = 3.44488 3.52595 3.48565
# Velocity P-wave (km/s) = 6.29859 6.51624 6.40834
#
# Compressibility (1/GPa) = 0.02282606
#
# Stress axis : x y z
#
# Youngs Moduli (GPa) = 44.78020 88.65944 56.59950
#
# Poissons Ratio (x) = 0.27552 0.38819
# Poissons Ratio (y) = 0.13916 0.24112
# Poissons Ratio (z) = 0.30712 0.37770
#
# Static dielectric constant tensor:
#      x y z
#    x 3.230790 0.000000 0.000000 
#    y 0.000000 3.548780 0.000000 
#    z 0.000000 0.000000 3.209010 
# 
# 
# High freq. dielectric constant tensor:
#      x y z
#    x 1.706130 0.000000 0.000000 
#    y 0.000000 1.715600 0.000000 
#    z 0.000000 0.000000 1.691290 
# 
# From -- ./inp_files/45759.got.cif
#   From: 2010.03.12/outbox.cif.g09.slc.cpg/sg65_23_cif.got.tgz:45759.got - 2010.04.10 20:52:16.
