data_PCOD8271855
_publ_section_title
;
Structure prediction by ZEFSAII (Michael W. Deem and Ramdas Pophale) SiO2 
 PCOD8271855
Probable space group: C M M M
;
_chemical_formula_sum "Si O2"
_cell_formula_units_Z 64
_cell_length_a 20.624232
_cell_length_b 17.870886
_cell_length_c 9.007508
_cell_angle_alpha 90.000000
_cell_angle_beta 90.000000
_cell_angle_gamma 90.000000
_cell_volume 3319.926939
_symmetry_space_group_name_H-M "C M M M"
_symmetry_group_IT_number 65
_symmetry_cell_setting 'orthorhombic'
loop_
_space_group_symop_operation_xyz
x,y,z
-x,-y,z
x,-y,-z
-x,y,-z
-x,-y,-z
x,y,-z
-x,y,z
x,-y,z
1/2+x,1/2+y,z
1/2-x,1/2-y,z
1/2+x,1/2-y,-z
1/2-x,1/2+y,-z
1/2-x,1/2-y,-z
1/2+x,1/2+y,-z
1/2-x,1/2+y,z
1/2+x,1/2-y,z
loop_
_atom_site_type_symbol
_atom_site_label
_atom_site_fract_x
_atom_site_fract_y
_atom_site_fract_z
Si Si1 0.000000 0.584219 0.323441
Si Si2 0.127588 0.668382 0.675614
Si Si3 0.000000 0.915962 0.823469
Si Si4 0.243219 0.412542 0.829964
Si Si5 0.374296 0.327597 0.173810
O O1 0.936764 0.627307 0.263859
O O2 0.000000 0.500000 0.258602
O O3 0.000000 0.581486 0.500000
O O4 0.126387 0.674757 0.500000
O O5 0.189265 0.620453 0.722774
O O6 0.131808 0.750237 0.742006
O O7 0.063316 0.872328 0.766040
O O8 0.000000 0.000000 0.757451
O O9 0.000000 0.920360 0.000000
O O10 0.249386 0.500000 0.800781
O O11 0.311784 0.376655 0.788870
O O12 0.224426 0.394783 0.000000
O O13 0.380539 0.310887 0.000000
#
# Coordination Sequence:
#
# PCOD8271855 Si02
#       5
#     8  16   8  16  16
#     4   9  19  36  55  75 102 137 176 218 264 311
#     4  11  22  36  56  80 107 141 180 220 264 317
#     4   9  17  32  57  85 108 137 182 227 264 310
#     4  10  21  37  56  79 108 141 177 219 267 316
#     4  10  20  35  56  81 110 142 176 218 267 316
#
# _framework density 19.277532000000001
#
# number of rings (size 3 to 8) (size 9 to 14) (size 15 to 20)
#    0.000    2.000    0.000    3.750    0.000    8.500 
#    0.000    1.875    0.000    7.500    0.000    0.000 
#    0.000    0.000    0.000    0.000    0.000    0.000 
#
# Total GULP energy -396925.757302 kJ/mol
# GULP energy per Si atom -12403.929916 kJ/mol
# Density = 1.923366 g / cm^3
# Si number density = 19.277532 Si / 1000 Ang^3
#
#
#
# Elastic Constant Matrix: (Units=GPa)
#
#
# Indices 1 2 3 4 5 6 
#
# 1 168.7604 78.8190 44.4415 0.0000 0.0000 0.0000
# 2 78.8190 163.4292 41.9689 0.0000 0.0000 0.0000
# 3 44.4415 41.9689 42.2738 0.0000 0.0000 0.0000
# 4 0.0000 0.0000 0.0000 7.0178 0.0000 0.0000
# 5 0.0000 0.0000 0.0000 0.0000 25.1357 0.0000
# 6 0.0000 0.0000 0.0000 0.0000 0.0000 -76.4577
#
#
#
# Elastic Compliance Matrix: (Units=1/GPa)
#
#
# Indices 1 2 3 4 5 6 
#
# 1 0.008916 -0.002541 -0.006851 0.000000 0.000000 0.000000
# 2 -0.002541 0.008937 -0.006201 0.000000 0.000000 0.000000
# 3 -0.006851 -0.006201 0.037014 0.000000 0.000000 0.000000
# 4 0.000000 0.000000 0.000000 0.142494 0.000000 0.000000
# 5 0.000000 0.000000 0.000000 0.000000 0.039784 0.000000
# 6 0.000000 0.000000 0.000000 0.000000 0.000000 -0.013079
#
#
# Mechanical properties :
#
#
# Convention : Reuss Voigt Hill
#
# Bulk Modulus (GPa) = 42.22778 78.32467 60.27623
# Shear Modulus (GPa) = 19.00085 5.08811 12.04448
#
# Velocity S-wave (km/s) = 3.14291 1.62639 2.50230
# Velocity P-wave (km/s) = 5.92649 6.65170 6.29954
#
# Compressibility (1/GPa) = 0.02368109
#
# Stress axis : x y z
#
# Youngs Moduli (GPa) = 112.15245 111.89783 27.01674
#
# Poissons Ratio (x) = 0.28432 0.18509
# Poissons Ratio (y) = 0.28496 0.16753
# Poissons Ratio (z) = 0.76837 0.69389
#
# Static dielectric constant tensor:
#      x y z
#    x 3.667330 0.000000 0.000000 
#    y 0.000000 3.699210 0.000000 
#    z 0.000000 0.000000 3.246640 
# 
# 
# High freq. dielectric constant tensor:
#      x y z
#    x 1.769890 0.000000 0.000000 
#    y 0.000000 1.770850 0.000000 
#    z 0.000000 0.000000 1.718300 
# 
# From -- ./inp_files/8815.got.cif
#   From: 2010.03.12/outbox.cif.g09.slc.cpg/sg65_5_cif.got.tgz:8815.got - 2010.04.10 20:52:16.
