data_PCOD8271394
_publ_section_title
;
Structure prediction by ZEFSAII (Michael W. Deem and Ramdas Pophale) SiO2 
 PCOD8271394
Probable space group: C M M M
;
_chemical_formula_sum "Si O2"
_cell_formula_units_Z 72
_cell_length_a 9.054477
_cell_length_b 18.670348
_cell_length_c 22.931894
_cell_angle_alpha 90.000000
_cell_angle_beta 90.000000
_cell_angle_gamma 90.000000
_cell_volume 3876.642105
_symmetry_space_group_name_H-M "C M M M"
_symmetry_group_IT_number 65
_symmetry_cell_setting 'orthorhombic'
loop_
_space_group_symop_operation_xyz
x,y,z
-x,-y,z
x,-y,-z
-x,y,-z
-x,-y,-z
x,y,-z
-x,y,z
x,-y,z
1/2+x,1/2+y,z
1/2-x,1/2-y,z
1/2+x,1/2-y,-z
1/2-x,1/2+y,-z
1/2-x,1/2-y,-z
1/2+x,1/2+y,-z
1/2-x,1/2+y,z
1/2+x,1/2-y,z
loop_
_atom_site_type_symbol
_atom_site_label
_atom_site_fract_x
_atom_site_fract_y
_atom_site_fract_z
Si Si1 0.672866 0.417473 0.888961
Si Si2 0.325760 0.326351 0.000000
Si Si3 0.672282 0.176852 0.567569
Si Si4 0.832037 0.084965 0.659115
Si Si5 0.166605 0.585214 0.226768
O O1 0.500000 0.409313 0.876732
O O2 0.713300 0.500000 0.902034
O O3 0.758011 0.387410 0.832560
O O4 0.725658 0.370701 0.943587
O O5 0.250000 0.250000 0.000000
O O6 0.500000 0.315595 0.000000
O O7 0.702342 0.160400 0.500000
O O8 0.500000 0.183063 0.581453
O O9 0.750000 0.250000 0.587109
O O10 0.742426 0.112102 0.603394
O O11 0.757234 0.115237 0.718052
O O12 0.000000 0.112679 0.656863
O O13 0.825355 0.000000 0.657710
O O14 0.169071 0.500000 0.227822
O O15 0.000000 0.614871 0.229840
#
# Coordination Sequence:
#
# PCOD8271394 Si02
#       5
#    16   8  16  16  16
#     4   9  17  32  54  76  98 129 171 211 248 298
#     4  10  21  35  51  73 103 136 166 204 254 302
#     4  10  21  37  56  77 104 139 177 217 261 310
#     4  10  20  34  54  80 109 140 174 214 260 309
#     4   9  17  30  50  77 106 133 165 210 261 307
#
# _framework density 18.572775
#
# number of rings (size 3 to 8) (size 9 to 14) (size 15 to 20)
#    0.000    2.444    0.000    2.333    0.000    8.000 
#    0.000    3.333    0.000    6.000    0.000    0.000 
#    0.000    0.000    0.000    0.000    0.000    0.000 
#
# Total GULP energy -446490.655341 kJ/mol
# GULP energy per Si atom -12402.518204 kJ/mol
# Density = 1.853050 g / cm^3
# Si number density = 18.572775 Si / 1000 Ang^3
#
#
#
# Elastic Constant Matrix: (Units=GPa)
#
#
# Indices 1 2 3 4 5 6 
#
# 1 120.2697 37.4144 76.6374 0.0000 0.0000 0.0000
# 2 37.4144 51.3632 47.4131 0.0000 0.0000 0.0000
# 3 76.6374 47.4131 139.1581 0.0000 0.0000 0.0000
# 4 0.0000 0.0000 0.0000 8.0224 0.0000 0.0000
# 5 0.0000 0.0000 0.0000 0.0000 35.2890 0.0000
# 6 0.0000 0.0000 0.0000 0.0000 0.0000 29.3804
#
#
#
# Elastic Compliance Matrix: (Units=1/GPa)
#
#
# Indices 1 2 3 4 5 6 
#
# 1 0.013434 -0.004313 -0.005929 0.000000 0.000000 0.000000
# 2 -0.004313 0.029786 -0.007773 0.000000 0.000000 0.000000
# 3 -0.005929 -0.007773 0.013100 0.000000 0.000000 0.000000
# 4 0.000000 0.000000 0.000000 0.124651 0.000000 0.000000
# 5 0.000000 0.000000 0.000000 0.000000 0.028337 0.000000
# 6 0.000000 0.000000 0.000000 0.000000 0.000000 0.034036
#
#
# Mechanical properties :
#
#
# Convention : Reuss Voigt Hill
#
# Bulk Modulus (GPa) = 49.28584 70.41344 59.84964
# Shear Modulus (GPa) = 17.47394 24.49344 20.98369
#
# Velocity S-wave (km/s) = 3.07063 3.63544 3.36491
# Velocity P-wave (km/s) = 6.25827 7.45764 6.88412
#
# Compressibility (1/GPa) = 0.02028980
#
# Stress axis : x y z
#
# Youngs Moduli (GPa) = 74.43528 33.57233 76.33609
#
# Poissons Ratio (x) = 0.14479 0.45261
# Poissons Ratio (y) = 0.32103 0.59340
# Poissons Ratio (z) = 0.44134 0.26097
#
# Static dielectric constant tensor:
#      x y z
#    x 3.557310 0.000000 0.000000 
#    y 0.000000 3.080320 0.000000 
#    z 0.000000 0.000000 3.559990 
# 
# 
# High freq. dielectric constant tensor:
#      x y z
#    x 1.730590 0.000000 0.000000 
#    y 0.000000 1.687570 0.000000 
#    z 0.000000 0.000000 1.733600 
# 
# From -- ./inp_files/59244.got.cif
#   From: 2010.03.12/outbox.cif.g09.slc.cpg/sg65_30_cif.got.tgz:59244.got - 2010.04.10 20:52:16.
