data_PCOD8271294
_publ_section_title
;
Structure prediction by ZEFSAII (Michael W. Deem and Ramdas Pophale) SiO2 
 PCOD8271294
Probable space group: C M M M
;
_chemical_formula_sum "Si O2"
_cell_formula_units_Z 72
_cell_length_a 13.722168
_cell_length_b 28.929687
_cell_length_c 8.817064
_cell_angle_alpha 90.000000
_cell_angle_beta 90.000000
_cell_angle_gamma 90.000000
_cell_volume 3500.180655
_symmetry_space_group_name_H-M "C M M M"
_symmetry_group_IT_number 65
_symmetry_cell_setting 'orthorhombic'
loop_
_space_group_symop_operation_xyz
x,y,z
-x,-y,z
x,-y,-z
-x,y,-z
-x,-y,-z
x,y,-z
-x,y,z
x,-y,z
1/2+x,1/2+y,z
1/2-x,1/2-y,z
1/2+x,1/2-y,-z
1/2-x,1/2+y,-z
1/2-x,1/2-y,-z
1/2+x,1/2+y,-z
1/2-x,1/2+y,z
1/2+x,1/2-y,z
loop_
_atom_site_type_symbol
_atom_site_label
_atom_site_fract_x
_atom_site_fract_y
_atom_site_fract_z
Si Si1 0.389698 0.133790 0.679070
Si Si2 0.384213 0.679784 0.328245
Si Si3 0.287578 0.592675 0.179778
Si Si4 0.615971 0.771964 0.828437
Si Si5 0.109426 0.000000 0.819723
O O1 0.383134 0.131261 0.500000
O O2 0.500000 0.125491 0.735938
O O3 0.321726 0.094777 0.753275
O O4 0.348994 0.183559 0.733119
O O5 0.344029 0.677539 0.500000
O O6 0.500000 0.682429 0.327537
O O7 0.352862 0.634644 0.237891
O O8 0.340298 0.725409 0.246227
O O9 0.334897 0.545296 0.239913
O O10 0.282931 0.594256 0.000000
O O11 0.500000 0.769531 0.824540
O O12 0.654780 0.776407 0.000000
O O13 0.000000 0.000000 0.753226
O O14 0.105874 0.000000 0.000000
#
# Coordination Sequence:
#
# PCOD8271294 Si02
#       5
#    16  16  16  16   8
#     4  10  21  38  58  81 114 153 189 230 281 334
#     4  10  20  34  53  81 118 155 190 231 281 338
#     4  11  22  37  60  86 111 144 189 237 284 336
#     4   9  17  31  53  81 113 150 192 235 278 327
#     4   9  20  40  64  89 116 144 177 225 284 337
#
# _framework density 20.570366
#
# number of rings (size 3 to 8) (size 9 to 14) (size 15 to 20)
#    0.000    2.111    0.000    3.333    0.000    7.111 
#    0.000    7.222    0.000    7.333    0.000    0.000 
#    0.000    0.000    0.000    0.000    0.000    0.000 
#
# Total GULP energy -446528.176331 kJ/mol
# GULP energy per Si atom -12403.560454 kJ/mol
# Density = 2.052355 g / cm^3
# Si number density = 20.570366 Si / 1000 Ang^3
#
#
#
# Elastic Constant Matrix: (Units=GPa)
#
#
# Indices 1 2 3 4 5 6 
#
# 1 80.2985 71.9990 32.8710 0.0000 0.0000 0.0000
# 2 71.9990 163.1058 51.6237 0.0000 0.0000 0.0000
# 3 32.8710 51.6237 104.5272 0.0000 0.0000 0.0000
# 4 0.0000 0.0000 0.0000 11.2886 0.0000 0.0000
# 5 0.0000 0.0000 0.0000 0.0000 29.3964 0.0000
# 6 0.0000 0.0000 0.0000 0.0000 0.0000 37.2062
#
#
#
# Elastic Compliance Matrix: (Units=1/GPa)
#
#
# Indices 1 2 3 4 5 6 
#
# 1 0.021113 -0.008556 -0.002414 0.000000 0.000000 0.000000
# 2 -0.008556 0.010734 -0.002611 0.000000 0.000000 0.000000
# 3 -0.002414 -0.002611 0.011615 0.000000 0.000000 0.000000
# 4 0.000000 0.000000 0.000000 0.088585 0.000000 0.000000
# 5 0.000000 0.000000 0.000000 0.000000 0.034018 0.000000
# 6 0.000000 0.000000 0.000000 0.000000 0.000000 0.026877
#
#
# Mechanical properties :
#
#
# Convention : Reuss Voigt Hill
#
# Bulk Modulus (GPa) = 61.34388 73.43542 67.38965
# Shear Modulus (GPa) = 22.16924 28.34076 25.25500
#
# Velocity S-wave (km/s) = 3.28644 3.71583 3.50771
# Velocity P-wave (km/s) = 6.65486 7.36118 7.01691
#
# Compressibility (1/GPa) = 0.01630154
#
# Stress axis : x y z
#
# Youngs Moduli (GPa) = 47.36355 93.16122 86.09263
#
# Poissons Ratio (x) = 0.79708 0.20783
# Poissons Ratio (y) = 0.40524 0.22476
# Poissons Ratio (z) = 0.11434 0.24322
#
# Static dielectric constant tensor:
#      x y z
#    x 3.876210 0.000000 0.000000 
#    y 0.000000 3.743970 0.000000 
#    z 0.000000 0.000000 3.718010 
# 
# 
# High freq. dielectric constant tensor:
#      x y z
#    x 1.820030 0.000000 0.000000 
#    y 0.000000 1.789540 0.000000 
#    z 0.000000 0.000000 1.804290 
# 
# From -- ./inp_files/7209.got.cif
#   From: 2010.03.12/outbox.cif.g09.slc.cpg/sg65_4_cif.got.tgz:7209.got - 2010.04.10 20:52:16.
