data_PCOD8271784
_publ_section_title
;
Structure prediction by ZEFSAII (Michael W. Deem and Ramdas Pophale) SiO2 
 PCOD8271784
Probable space group: C M M M
;
_chemical_formula_sum "Si O2"
_cell_formula_units_Z 96
_cell_length_a 24.311875
_cell_length_b 19.786784
_cell_length_c 10.997136
_cell_angle_alpha 90.000000
_cell_angle_beta 90.000000
_cell_angle_gamma 90.000000
_cell_volume 5290.214274
_symmetry_space_group_name_H-M "C M M M"
_symmetry_group_IT_number 65
_symmetry_cell_setting 'orthorhombic'
loop_
_space_group_symop_operation_xyz
x,y,z
-x,-y,z
x,-y,-z
-x,y,-z
-x,-y,-z
x,y,-z
-x,y,z
x,-y,z
1/2+x,1/2+y,z
1/2-x,1/2-y,z
1/2+x,1/2-y,-z
1/2-x,1/2+y,-z
1/2-x,1/2-y,-z
1/2+x,1/2+y,-z
1/2-x,1/2+y,z
1/2+x,1/2-y,z
loop_
_atom_site_type_symbol
_atom_site_label
_atom_site_fract_x
_atom_site_fract_y
_atom_site_fract_z
Si Si1 0.307820 0.709633 0.000000
Si Si2 0.294929 0.924037 0.741790
Si Si3 0.500000 0.184472 0.634746
Si Si4 0.000000 0.216116 0.140158
Si Si5 0.677949 0.578278 0.641028
Si Si6 0.247509 0.073589 0.000000
Si Si7 0.883437 0.193127 0.220567
Si Si8 0.381992 0.828127 0.635165
O O1 0.250000 0.750000 0.000000
O O2 0.299645 0.629077 0.000000
O O3 0.342850 0.725625 0.119879
O O4 0.240621 0.900661 0.669449
O O5 0.344218 0.873359 0.718925
O O6 0.311024 0.000000 0.701468
O O7 0.286558 0.918841 0.884925
O O8 0.500000 0.223006 0.500000
O O9 0.500000 0.226193 0.759136
O O10 0.556077 0.140577 0.638490
O O11 0.056687 0.174808 0.163297
O O12 0.000000 0.242799 0.000000
O O13 0.665328 0.590806 0.500000
O O14 0.668636 0.500000 0.677356
O O15 0.637923 0.623504 0.722319
O O16 0.218153 0.000000 0.000000
O O17 0.886320 0.250153 0.323993
O O18 0.357075 0.829420 0.500000
#
# Coordination Sequence:
#
# PCOD8271784 Si02
#       8
#     8  16   8   8  16   8  16  16
#     4  12  22  33  53  84 114 139 176 230 275 319
#     4  10  20  35  55  80 112 147 182 221 272 336
#     4   8  18  36  55  77 110 147 187 231 278 329
#     4  10  20  38  57  82 111 150 192 229 276 331
#     4  10  21  37  56  81 112 145 181 224 280 339
#     4  10  20  36  55  75 107 149 180 210 271 336
#     4  11  22  36  58  80 113 143 183 229 275 325
#     4  10  20  35  55  80 109 144 184 226 271 325
#
# _framework density 18.146713999999999
#
# number of rings (size 3 to 8) (size 9 to 14) (size 15 to 20)
#    0.000    1.833    2.500    2.000    0.000    1.667 
#    1.500    2.500    0.000    3.000    0.000    1.750 
#    0.000    0.000    0.000    0.000    0.000    0.000 
#
# Total GULP energy -594843.361734 kJ/mol
# GULP energy per Si atom -12392.570036 kJ/mol
# Density = 1.810541 g / cm^3
# Si number density = 18.146714 Si / 1000 Ang^3
#
#
#
# Elastic Constant Matrix: (Units=GPa)
#
#
# Indices 1 2 3 4 5 6 
#
# 1 122.5588 41.3945 35.3856 0.0000 0.0000 0.0000
# 2 41.3945 61.0431 17.9181 0.0000 0.0000 0.0000
# 3 35.3856 17.9181 105.2634 0.0000 0.0000 0.0000
# 4 0.0000 0.0000 0.0000 26.3526 0.0000 0.0000
# 5 0.0000 0.0000 0.0000 0.0000 22.3162 0.0000
# 6 0.0000 0.0000 0.0000 0.0000 0.0000 19.7000
#
#
#
# Elastic Compliance Matrix: (Units=1/GPa)
#
#
# Indices 1 2 3 4 5 6 
#
# 1 0.011225 -0.006846 -0.002608 0.000000 0.000000 0.000000
# 2 -0.006846 0.021419 -0.001345 0.000000 0.000000 0.000000
# 3 -0.002608 -0.001345 0.010606 0.000000 0.000000 0.000000
# 4 0.000000 0.000000 0.000000 0.037947 0.000000 0.000000
# 5 0.000000 0.000000 0.000000 0.000000 0.044810 0.000000
# 6 0.000000 0.000000 0.000000 0.000000 0.000000 0.050761
#
#
# Mechanical properties :
#
#
# Convention : Reuss Voigt Hill
#
# Bulk Modulus (GPa) = 46.18526 53.14018 49.66272
# Shear Modulus (GPa) = 24.32113 26.61823 25.46968
#
# Velocity S-wave (km/s) = 3.66491 3.83408 3.75045
# Velocity P-wave (km/s) = 6.58901 6.99625 6.79568
#
# Compressibility (1/GPa) = 0.02165193
#
# Stress axis : x y z
#
# Youngs Moduli (GPa) = 89.08996 46.68751 94.29032
#
# Poissons Ratio (x) = 0.31963 0.24590
# Poissons Ratio (y) = 0.60992 0.12678
# Poissons Ratio (z) = 0.23234 0.06277
#
# Static dielectric constant tensor:
#      x y z
#    x 3.577830 0.000000 0.000000 
#    y 0.000000 3.146590 0.000000 
#    z 0.000000 0.000000 3.576500 
# 
# 
# High freq. dielectric constant tensor:
#      x y z
#    x 1.704040 0.000000 0.000000 
#    y 0.000000 1.673070 0.000000 
#    z 0.000000 0.000000 1.727600 
# 
# From -- ./inp_files/29123.got.cif
#   From: 2010.03.12/outbox.cif.g09.slc.cpg/sg65_15_cif.got.tgz:29123.got - 2010.04.10 20:52:16.
