data_PCOD8271181
_publ_section_title
;
Structure prediction by ZEFSAII (Michael W. Deem and Ramdas Pophale) SiO2 
 PCOD8271181
Probable space group: C M M M
;
_chemical_formula_sum "Si O2"
_cell_formula_units_Z 72
_cell_length_a 16.345749
_cell_length_b 27.297277
_cell_length_c 8.932336
_cell_angle_alpha 90.000000
_cell_angle_beta 90.000000
_cell_angle_gamma 90.000000
_cell_volume 3985.558644
_symmetry_space_group_name_H-M "C M M M"
_symmetry_group_IT_number 65
_symmetry_cell_setting 'orthorhombic'
loop_
_space_group_symop_operation_xyz
x,y,z
-x,-y,z
x,-y,-z
-x,y,-z
-x,-y,-z
x,y,-z
-x,y,z
x,-y,z
1/2+x,1/2+y,z
1/2-x,1/2-y,z
1/2+x,1/2-y,-z
1/2-x,1/2+y,-z
1/2-x,1/2-y,-z
1/2+x,1/2+y,-z
1/2-x,1/2+y,z
1/2+x,1/2-y,z
loop_
_atom_site_type_symbol
_atom_site_label
_atom_site_fract_x
_atom_site_fract_y
_atom_site_fract_z
Si Si1 0.408452 0.644648 0.826877
Si Si2 0.697294 0.554696 0.830498
Si Si3 0.500000 0.057191 0.822151
Si Si4 0.737842 0.304530 0.676830
Si Si5 0.658332 0.103616 0.324049
O O1 0.500000 0.650345 0.764419
O O2 0.380797 0.588739 0.801570
O O3 0.350443 0.680209 0.735278
O O4 0.403675 0.659398 0.000000
O O5 0.666044 0.500000 0.803025
O O6 0.770005 0.565703 0.715221
O O7 0.730977 0.561896 0.000000
O O8 0.422201 0.087100 0.762994
O O9 0.500000 0.000000 0.767614
O O10 0.500000 0.058718 0.000000
O O11 0.734407 0.304550 0.500000
O O12 0.750000 0.250000 0.741152
O O13 0.810254 0.342035 0.728060
O O14 0.639917 0.102145 0.500000
#
# Coordination Sequence:
#
# PCOD8271181 Si02
#       5
#    16  16   8  16  16
#     4   9  18  32  50  75 105 132 164 206 247 293
#     4   9  17  30  49  72 101 138 172 202 244 297
#     4  11  23  37  53  75 107 143 175 211 260 317
#     4   9  19  37  57  75  98 132 171 210 256 308
#     4  10  20  34  53  76 102 132 172 217 258 303
#
# _framework density 18.065221000000001
#
# number of rings (size 3 to 8) (size 9 to 14) (size 15 to 20)
#    0.000    2.556    0.000    1.667    0.000    6.222 
#    2.000    2.222    0.000    0.000    0.000    6.222 
#    0.000    0.000    0.000    0.000    0.000    0.000 
#
# Total GULP energy -446279.747093 kJ/mol
# GULP energy per Si atom -12396.659641 kJ/mol
# Density = 1.802410 g / cm^3
# Si number density = 18.065221 Si / 1000 Ang^3
#
#
#
# Elastic Constant Matrix: (Units=GPa)
#
#
# Indices 1 2 3 4 5 6 
#
# 1 130.7835 72.1895 26.0213 0.0000 0.0000 0.0000
# 2 72.1895 155.8277 31.2583 0.0000 0.0000 0.0000
# 3 26.0213 31.2583 29.7898 0.0000 0.0000 0.0000
# 4 0.0000 0.0000 0.0000 23.4858 0.0000 0.0000
# 5 0.0000 0.0000 0.0000 0.0000 20.8378 0.0000
# 6 0.0000 0.0000 0.0000 0.0000 0.0000 13.9710
#
#
#
# Elastic Compliance Matrix: (Units=1/GPa)
#
#
# Indices 1 2 3 4 5 6 
#
# 1 0.010908 -0.003980 -0.005352 0.000000 0.000000 0.000000
# 2 -0.003980 0.009580 -0.006576 0.000000 0.000000 0.000000
# 3 -0.005352 -0.006576 0.045144 0.000000 0.000000 0.000000
# 4 0.000000 0.000000 0.000000 0.042579 0.000000 0.000000
# 5 0.000000 0.000000 0.000000 0.000000 0.047990 0.000000
# 6 0.000000 0.000000 0.000000 0.000000 0.000000 0.071577
#
#
# Mechanical properties :
#
#
# Convention : Reuss Voigt Hill
#
# Bulk Modulus (GPa) = 29.57182 63.92659 46.74921
# Shear Modulus (GPa) = 18.45937 24.12104 21.29021
#
# Velocity S-wave (km/s) = 3.20006 3.65803 3.43668
# Velocity P-wave (km/s) = 5.48259 7.30102 6.45615
#
# Compressibility (1/GPa) = 0.03381597
#
# Stress axis : x y z
#
# Youngs Moduli (GPa) = 91.67803 104.38318 22.15134
#
# Poissons Ratio (x) = 0.41540 0.11856
# Poissons Ratio (y) = 0.36484 0.14567
# Poissons Ratio (z) = 0.49068 0.68645
#
# Static dielectric constant tensor:
#      x y z
#    x 3.337870 0.000000 0.000000 
#    y 0.000000 3.612480 0.000000 
#    z 0.000000 0.000000 3.304230 
# 
# 
# High freq. dielectric constant tensor:
#      x y z
#    x 1.694650 0.000000 0.000000 
#    y 0.000000 1.702690 0.000000 
#    z 0.000000 0.000000 1.695660 
# 
# From -- ./inp_files/7203.got.cif
#   From: 2010.03.12/outbox.cif.g09.slc.cpg/sg65_4_cif.got.tgz:7203.got - 2010.04.10 20:52:16.
