data_PCOD8271460
_publ_section_title
;
Structure prediction by ZEFSAII (Michael W. Deem and Ramdas Pophale) SiO2 
 PCOD8271460
Probable space group: C M M M
;
_chemical_formula_sum "Si O2"
_cell_formula_units_Z 72
_cell_length_a 33.612685
_cell_length_b 9.778342
_cell_length_c 12.469943
_cell_angle_alpha 90.000000
_cell_angle_beta 90.000000
_cell_angle_gamma 90.000000
_cell_volume 4098.575094
_symmetry_space_group_name_H-M "C M M M"
_symmetry_group_IT_number 65
_symmetry_cell_setting 'orthorhombic'
loop_
_space_group_symop_operation_xyz
x,y,z
-x,-y,z
x,-y,-z
-x,y,-z
-x,-y,-z
x,y,-z
-x,y,z
x,-y,z
1/2+x,1/2+y,z
1/2-x,1/2-y,z
1/2+x,1/2-y,-z
1/2-x,1/2+y,-z
1/2-x,1/2-y,-z
1/2+x,1/2+y,-z
1/2-x,1/2+y,z
1/2+x,1/2-y,z
loop_
_atom_site_type_symbol
_atom_site_label
_atom_site_fract_x
_atom_site_fract_y
_atom_site_fract_z
Si Si1 0.435241 0.345789 0.379008
Si Si2 0.289136 0.339488 0.500000
Si Si3 0.652923 0.343380 0.691642
Si Si4 0.628115 0.840868 0.879512
Si Si5 0.542988 0.155991 0.803016
O O1 0.448542 0.317031 0.500000
O O2 0.446025 0.500000 0.344946
O O3 0.388236 0.321297 0.369743
O O4 0.459407 0.244398 0.304282
O O5 0.278859 0.500000 0.500000
O O6 0.250000 0.250000 0.500000
O O7 0.313119 0.300673 0.392290
O O8 0.658252 0.500000 0.729287
O O9 0.654434 0.247809 0.797299
O O10 0.580989 0.800831 0.874506
O O11 0.634365 0.000000 0.851761
O O12 0.642607 0.808415 0.000000
O O13 0.500000 0.175434 0.863248
O O14 0.548319 0.000000 0.767193
#
# Coordination Sequence:
#
# PCOD8271460 Si02
#       5
#    16   8  16  16  16
#     4   9  16  28  46  64  86 122 163 199 238 285
#     4  10  20  34  54  82 111 134 155 187 234 289
#     4   9  17  32  52  73 100 130 161 196 236 287
#     4   9  18  32  50  72  96 126 168 212 249 286
#     4   9  18  30  42  61  91 125 161 203 251 296
#
# _framework density 17.567081000000002
#
# number of rings (size 3 to 8) (size 9 to 14) (size 15 to 20)
#    0.000    2.889    1.111    0.000    0.000    3.111 
#    0.000    4.444    0.000    0.667    0.000    6.222 
#    0.000    0.000    0.000    0.000    0.000    0.000 
#
# Total GULP energy -446183.108689 kJ/mol
# GULP energy per Si atom -12393.975241 kJ/mol
# Density = 1.752710 g / cm^3
# Si number density = 17.567081 Si / 1000 Ang^3
#
#
#
# Elastic Constant Matrix: (Units=GPa)
#
#
# Indices 1 2 3 4 5 6 
#
# 1 81.1346 35.8315 39.1802 0.0000 0.0000 0.0000
# 2 35.8315 69.4569 59.3247 0.0000 0.0000 0.0000
# 3 39.1802 59.3247 111.4756 0.0000 0.0000 0.0000
# 4 0.0000 0.0000 0.0000 30.4082 0.0000 0.0000
# 5 0.0000 0.0000 0.0000 0.0000 14.7412 0.0000
# 6 0.0000 0.0000 0.0000 0.0000 0.0000 23.6973
#
#
#
# Elastic Compliance Matrix: (Units=1/GPa)
#
#
# Indices 1 2 3 4 5 6 
#
# 1 0.016276 -0.006436 -0.002296 0.000000 0.000000 0.000000
# 2 -0.006436 0.028940 -0.013139 0.000000 0.000000 0.000000
# 3 -0.002296 -0.013139 0.016770 0.000000 0.000000 0.000000
# 4 0.000000 0.000000 0.000000 0.032886 0.000000 0.000000
# 5 0.000000 0.000000 0.000000 0.000000 0.067837 0.000000
# 6 0.000000 0.000000 0.000000 0.000000 0.000000 0.042199
#
#
# Mechanical properties :
#
#
# Convention : Reuss Voigt Hill
#
# Bulk Modulus (GPa) = 54.81049 58.97107 56.89078
# Shear Modulus (GPa) = 19.62863 22.28473 20.95668
#
# Velocity S-wave (km/s) = 3.34631 3.56554 3.45766
# Velocity P-wave (km/s) = 6.79697 7.11285 6.95670
#
# Compressibility (1/GPa) = 0.01824468
#
# Stress axis : x y z
#
# Youngs Moduli (GPa) = 61.44034 34.55422 59.63116
#
# Poissons Ratio (x) = 0.22238 0.13688
# Poissons Ratio (y) = 0.39542 0.78351
# Poissons Ratio (z) = 0.14104 0.45402
#
# Static dielectric constant tensor:
#      x y z
#    x 3.082980 0.000000 0.000000 
#    y 0.000000 3.278970 0.000000 
#    z 0.000000 0.000000 3.200560 
# 
# 
# High freq. dielectric constant tensor:
#      x y z
#    x 1.657430 0.000000 0.000000 
#    y 0.000000 1.677260 0.000000 
#    z 0.000000 0.000000 1.667330 
# 
# From -- ./inp_files/22694.got.cif
#   From: 2010.03.12/outbox.cif.g09.slc.cpg/sg65_12_cif.got.tgz:22694.got - 2010.04.10 20:52:16.
