data_PCOD8271800
_publ_section_title
;
Structure prediction by ZEFSAII (Michael W. Deem and Ramdas Pophale) SiO2 
 PCOD8271800
Probable space group: C M M M
;
_chemical_formula_sum "Si O2"
_cell_formula_units_Z 72
_cell_length_a 15.913553
_cell_length_b 9.112462
_cell_length_c 26.123502
_cell_angle_alpha 90.000000
_cell_angle_beta 90.000000
_cell_angle_gamma 90.000000
_cell_volume 3788.212050
_symmetry_space_group_name_H-M "C M M M"
_symmetry_group_IT_number 65
_symmetry_cell_setting 'orthorhombic'
loop_
_space_group_symop_operation_xyz
x,y,z
-x,-y,z
x,-y,-z
-x,y,-z
-x,-y,-z
x,y,-z
-x,y,z
x,-y,z
1/2+x,1/2+y,z
1/2-x,1/2-y,z
1/2+x,1/2-y,-z
1/2-x,1/2+y,-z
1/2-x,1/2-y,-z
1/2+x,1/2+y,-z
1/2-x,1/2+y,z
1/2+x,1/2-y,z
loop_
_atom_site_type_symbol
_atom_site_label
_atom_site_fract_x
_atom_site_fract_y
_atom_site_fract_z
Si Si1 0.836872 0.828301 0.293145
Si Si2 0.834417 0.171634 0.940576
Si Si3 0.500000 0.325489 0.233113
Si Si4 0.500000 0.674518 0.883192
Si Si5 0.835557 0.828234 0.589631
Si Si6 0.092679 0.657193 0.500000
O O1 0.750000 0.750000 0.277028
O O2 0.861042 0.795287 0.351867
O O3 0.914990 0.766171 0.260039
O O4 0.822866 0.000000 0.283525
O O5 0.750000 0.250000 0.920181
O O6 0.915768 0.234241 0.910718
O O7 0.822848 0.000000 0.930497
O O8 0.849068 0.206984 0.000000
O O9 0.500000 0.500000 0.236744
O O10 0.500000 0.269086 0.174957
O O11 0.500000 0.500000 0.886606
O O12 0.750000 0.750000 0.575284
O O13 0.899609 0.755948 0.550663
O O14 0.828589 0.000000 0.579465
O O15 0.145010 0.500000 0.500000
O O16 0.000000 0.600872 0.500000
#
# Coordination Sequence:
#
# PCOD8271800 Si02
#       6
#    16  16   8   8  16   8
#     4   9  19  35  56  78 102 132 170 213 256 306
#     4   9  17  30  49  74 103 137 176 215 256 305
#     4   9  18  33  53  77 103 134 173 216 259 304
#     4   9  17  30  50  74 101 137 176 214 257 306
#     4  10  20  35  56  76  99 130 165 203 248 304
#     4  11  24  37  50  75 107 133 160 201 250 299
#
# _framework density 19.006328
#
# number of rings (size 3 to 8) (size 9 to 14) (size 15 to 20)
#    0.000    2.556    0.000    1.667    1.556    4.000 
#    0.000    1.111    0.000    4.000    0.000    0.000 
#    0.000    0.000    0.000    0.000    0.000    0.000 
#
# Total GULP energy -446202.263373 kJ/mol
# GULP energy per Si atom -12394.507316 kJ/mol
# Density = 1.896307 g / cm^3
# Si number density = 19.006328 Si / 1000 Ang^3
#
#
#
# Elastic Constant Matrix: (Units=GPa)
#
#
# Indices 1 2 3 4 5 6 
#
# 1 169.7520 45.3670 87.0972 0.0000 0.0000 0.0000
# 2 45.3670 62.6647 38.7239 0.0000 0.0000 0.0000
# 3 87.0972 38.7239 113.5883 0.0000 0.0000 0.0000
# 4 0.0000 0.0000 0.0000 17.1530 0.0000 0.0000
# 5 0.0000 0.0000 0.0000 0.0000 29.1246 0.0000
# 6 0.0000 0.0000 0.0000 0.0000 0.0000 26.6414
#
#
#
# Elastic Compliance Matrix: (Units=1/GPa)
#
#
# Indices 1 2 3 4 5 6 
#
# 1 0.010204 -0.003234 -0.006722 0.000000 0.000000 0.000000
# 2 -0.003234 0.021242 -0.004762 0.000000 0.000000 0.000000
# 3 -0.006722 -0.004762 0.015581 0.000000 0.000000 0.000000
# 4 0.000000 0.000000 0.000000 0.058299 0.000000 0.000000
# 5 0.000000 0.000000 0.000000 0.000000 0.034335 0.000000
# 6 0.000000 0.000000 0.000000 0.000000 0.000000 0.037536
#
#
# Mechanical properties :
#
#
# Convention : Reuss Voigt Hill
#
# Bulk Modulus (GPa) = 56.84417 76.48679 66.66548
# Shear Modulus (GPa) = 23.52985 26.23826 24.88406
#
# Velocity S-wave (km/s) = 3.52234 3.71954 3.62228
# Velocity P-wave (km/s) = 6.82022 7.66660 7.25577
#
# Compressibility (1/GPa) = 0.01759195
#
# Stress axis : x y z
#
# Youngs Moduli (GPa) = 98.00061 47.07712 64.17904
#
# Poissons Ratio (x) = 0.15223 0.43140
# Poissons Ratio (y) = 0.31689 0.30563
# Poissons Ratio (z) = 0.65875 0.22419
#
# Static dielectric constant tensor:
#      x y z
#    x 3.631280 0.000000 0.000000 
#    y 0.000000 3.273400 0.000000 
#    z 0.000000 0.000000 3.524790 
# 
# 
# High freq. dielectric constant tensor:
#      x y z
#    x 1.744540 0.000000 0.000000 
#    y 0.000000 1.716650 0.000000 
#    z 0.000000 0.000000 1.736690 
# 
# From -- ./inp_files/72599.got.cif
#   From: 2010.03.12/outbox.cif.g09.slc.cpg/sg65_37_cif.got.tgz:72599.got - 2010.04.10 20:52:16.
