data_PCOD8271328
_publ_section_title
;
Structure prediction by ZEFSAII (Michael W. Deem and Ramdas Pophale) SiO2 
 PCOD8271328
Probable space group: C M M M
;
_chemical_formula_sum "Si O2"
_cell_formula_units_Z 88
_cell_length_a 17.995919
_cell_length_b 8.821704
_cell_length_c 28.162056
_cell_angle_alpha 90.000000
_cell_angle_beta 90.000000
_cell_angle_gamma 90.000000
_cell_volume 4470.857924
_symmetry_space_group_name_H-M "C M M M"
_symmetry_group_IT_number 65
_symmetry_cell_setting 'orthorhombic'
loop_
_space_group_symop_operation_xyz
x,y,z
-x,-y,z
x,-y,-z
-x,y,-z
-x,-y,-z
x,y,-z
-x,y,z
x,-y,z
1/2+x,1/2+y,z
1/2-x,1/2-y,z
1/2+x,1/2-y,-z
1/2-x,1/2+y,-z
1/2-x,1/2-y,-z
1/2+x,1/2+y,-z
1/2-x,1/2+y,z
1/2+x,1/2-y,z
loop_
_atom_site_type_symbol
_atom_site_label
_atom_site_fract_x
_atom_site_fract_y
_atom_site_fract_z
Si Si1 0.913831 0.175717 0.827518
Si Si2 0.088012 0.173543 0.000000
Si Si3 0.828602 0.823641 0.267591
Si Si4 0.828194 0.178656 0.552908
Si Si5 0.417348 0.319383 0.642555
Si Si6 0.169228 0.320871 0.087211
O O1 0.886047 0.209545 0.774596
O O2 0.866202 0.279274 0.862439
O O3 0.000000 0.220828 0.830805
O O4 0.901966 0.000000 0.841244
O O5 0.116693 0.257360 0.046419
O O6 0.000000 0.182026 0.000000
O O7 0.115814 0.000000 0.000000
O O8 0.750000 0.750000 0.256130
O O9 0.864539 0.755491 0.315692
O O10 0.813964 0.000000 0.273763
O O11 0.853958 0.229028 0.500000
O O12 0.750000 0.250000 0.566556
O O13 0.887863 0.236048 0.591316
O O14 0.818601 0.000000 0.555614
O O15 0.500000 0.253039 0.649178
O O16 0.419543 0.500000 0.645312
O O17 0.175957 0.500000 0.082491
O O18 0.250000 0.250000 0.081958
#
# Coordination Sequence:
#
# PCOD8271328 Si02
#       6
#    16   8  16  16  16  16
#     4  10  21  38  59  83 112 145 182 225 275 329
#     4  11  24  43  66  91 121 155 190 231 280 329
#     4  10  20  34  54  78 104 138 178 220 267 320
#     4   9  17  29  47  71  98 130 168 211 260 314
#     4   9  17  30  49  73 100 131 171 218 265 314
#     4  12  25  41  62  88 119 153 191 232 275 325
#
# _framework density 19.683022999999999
#
# number of rings (size 3 to 8) (size 9 to 14) (size 15 to 20)
#    0.000    1.909    0.000    4.364    0.000    8.000 
#    0.000    1.818    0.000    3.273    0.000    2.545 
#    0.000    0.000    0.000    0.000    0.000    0.000 
#
# Total GULP energy -545698.965285 kJ/mol
# GULP energy per Si atom -12402.249211 kJ/mol
# Density = 1.963822 g / cm^3
# Si number density = 19.683023 Si / 1000 Ang^3
#
#
#
# Elastic Constant Matrix: (Units=GPa)
#
#
# Indices 1 2 3 4 5 6 
#
# 1 103.0457 38.7761 35.6770 0.0000 0.0000 0.0000
# 2 38.7761 75.7062 40.0663 0.0000 0.0000 0.0000
# 3 35.6770 40.0663 108.7159 0.0000 0.0000 0.0000
# 4 0.0000 0.0000 0.0000 681.5361 0.0000 0.0000
# 5 0.0000 0.0000 0.0000 0.0000 37.2683 0.0000
# 6 0.0000 0.0000 0.0000 0.0000 0.0000 27.6027
#
#
#
# Elastic Compliance Matrix: (Units=1/GPa)
#
#
# Indices 1 2 3 4 5 6 
#
# 1 0.012413 -0.005220 -0.002150 0.000000 0.000000 0.000000
# 2 -0.005220 0.018605 -0.005144 0.000000 0.000000 0.000000
# 3 -0.002150 -0.005144 0.011799 0.000000 0.000000 0.000000
# 4 0.000000 0.000000 0.000000 0.001467 0.000000 0.000000
# 5 0.000000 0.000000 0.000000 0.000000 0.026832 0.000000
# 6 0.000000 0.000000 0.000000 0.000000 0.000000 0.036228
#
#
# Mechanical properties :
#
#
# Convention : Reuss Voigt Hill
#
# Bulk Modulus (GPa) = 56.21017 57.38963 56.79990
# Shear Modulus (GPa) = 36.15266 160.81129 98.48198
#
# Velocity S-wave (km/s) = 4.29037 9.04864 7.08114
# Velocity P-wave (km/s) = 7.29128 11.76396 9.78656
#
# Compressibility (1/GPa) = 0.01779038
#
# Stress axis : x y z
#
# Youngs Moduli (GPa) = 80.56030 53.74952 84.75033
#
# Poissons Ratio (x) = 0.28058 0.18219
# Poissons Ratio (y) = 0.42054 0.43592
# Poissons Ratio (z) = 0.17318 0.27646
#
# Static dielectric constant tensor:
#      x y z
#    x 3.647200 0.000000 0.000000 
#    y 0.000000 3.399580 0.000000 
#    z 0.000000 0.000000 3.897160 
# 
# 
# High freq. dielectric constant tensor:
#      x y z
#    x 1.777540 0.000000 0.000000 
#    y 0.000000 1.740500 0.000000 
#    z 0.000000 0.000000 1.786610 
# 
# From -- ./inp_files/77881.got.cif
#   From: 2010.03.12/outbox.cif.g09.slc.cpg/sg65_39_cif.got.tgz:77881.got - 2010.04.10 20:52:16.
