data_PCOD8271959
_publ_section_title
;
Structure prediction by ZEFSAII (Michael W. Deem and Ramdas Pophale) SiO2 
 PCOD8271959
Probable space group: C M M M
;
_chemical_formula_sum "Si O2"
_cell_formula_units_Z 64
_cell_length_a 27.017504
_cell_length_b 14.046509
_cell_length_c 7.803620
_cell_angle_alpha 90.000000
_cell_angle_beta 90.000000
_cell_angle_gamma 90.000000
_cell_volume 2961.486378
_symmetry_space_group_name_H-M "C M M M"
_symmetry_group_IT_number 65
_symmetry_cell_setting 'orthorhombic'
loop_
_space_group_symop_operation_xyz
x,y,z
-x,-y,z
x,-y,-z
-x,y,-z
-x,-y,-z
x,y,-z
-x,y,z
x,-y,z
1/2+x,1/2+y,z
1/2-x,1/2-y,z
1/2+x,1/2-y,-z
1/2-x,1/2+y,-z
1/2-x,1/2-y,-z
1/2+x,1/2+y,-z
1/2-x,1/2+y,z
1/2+x,1/2-y,z
loop_
_atom_site_type_symbol
_atom_site_label
_atom_site_fract_x
_atom_site_fract_y
_atom_site_fract_z
Si Si1 0.941673 0.780838 0.198138
Si Si2 0.283172 0.347304 0.500000
Si Si3 0.232246 0.356710 0.815451
Si Si4 0.106338 0.111813 0.500000
Si Si5 0.878614 0.604782 0.201539
O O1 0.923643 0.863416 0.326526
O O2 0.918210 0.681948 0.266991
O O3 0.000000 0.770674 0.211787
O O4 0.925898 0.803596 0.000000
O O5 0.250000 0.250000 0.500000
O O6 0.267328 0.405359 0.671708
O O7 0.341806 0.330996 0.500000
O O8 0.250000 0.250000 0.841976
O O9 0.176069 0.359962 0.747703
O O10 0.236835 0.409962 0.000000
O O11 0.116985 0.000000 0.500000
O O12 0.888989 0.500000 0.282789
O O13 0.883682 0.597105 0.000000
#
# Coordination Sequence:
#
# PCOD8271959 Si02
#       5
#    16   8  16   8  16
#     4  10  22  42  67  91 119 159 202 249 310 370
#     4  10  20  35  57  83 113 152 194 237 292 353
#     4   9  17  31  52  79 117 160 197 237 283 337
#     4  12  27  44  63  91 124 156 201 260 308 353
#     4   9  18  34  59  92 127 162 201 247 300 358
#
# _framework density 21.610768
#
# number of rings (size 3 to 8) (size 9 to 14) (size 15 to 20)
#    0.000    2.250    0.000    3.375    0.000    6.000 
#    0.000    5.625    0.000    1.500    0.000    0.000 
#    0.000    0.000    0.000    0.000    0.000    0.000 
#
# Total GULP energy -396433.405373 kJ/mol
# GULP energy per Si atom -12388.543918 kJ/mol
# Density = 2.156158 g / cm^3
# Si number density = 21.610768 Si / 1000 Ang^3
#
#
#
# Elastic Constant Matrix: (Units=GPa)
#
#
# Indices 1 2 3 4 5 6 
#
# 1 125.6860 29.1105 54.1060 0.0000 0.0000 0.0000
# 2 29.1105 106.6068 13.3774 0.0000 0.0000 0.0000
# 3 54.1060 13.3774 142.8419 0.0000 0.0000 0.0000
# 4 0.0000 0.0000 0.0000 9.3390 0.0000 0.0000
# 5 0.0000 0.0000 0.0000 0.0000 39.7409 0.0000
# 6 0.0000 0.0000 0.0000 0.0000 0.0000 7.2241
#
#
#
# Elastic Compliance Matrix: (Units=1/GPa)
#
#
# Indices 1 2 3 4 5 6 
#
# 1 0.010030 -0.002289 -0.003585 0.000000 0.000000 0.000000
# 2 -0.002289 0.010014 -0.000071 0.000000 0.000000 0.000000
# 3 -0.003585 -0.000071 0.008365 0.000000 0.000000 0.000000
# 4 0.000000 0.000000 0.000000 0.107078 0.000000 0.000000
# 5 0.000000 0.000000 0.000000 0.000000 0.025163 0.000000
# 6 0.000000 0.000000 0.000000 0.000000 0.000000 0.138426
#
#
# Mechanical properties :
#
#
# Convention : Reuss Voigt Hill
#
# Bulk Modulus (GPa) = 60.53226 63.14693 61.83960
# Shear Modulus (GPa) = 15.79919 29.83019 22.81469
#
# Velocity S-wave (km/s) = 2.70678 3.71932 3.25269
# Velocity P-wave (km/s) = 6.15142 6.90855 6.54095
#
# Compressibility (1/GPa) = 0.01652012
#
# Stress axis : x y z
#
# Youngs Moduli (GPa) = 99.70455 99.85845 119.54290
#
# Poissons Ratio (x) = 0.22857 0.42852
# Poissons Ratio (y) = 0.22822 0.00847
# Poissons Ratio (z) = 0.35741 0.00707
#
# Static dielectric constant tensor:
#      x y z
#    x 3.827640 0.000000 0.000000 
#    y 0.000000 3.807850 0.000000 
#    z 0.000000 0.000000 6.278300 
# 
# 
# High freq. dielectric constant tensor:
#      x y z
#    x 1.842150 0.000000 0.000000 
#    y 0.000000 1.831340 0.000000 
#    z 0.000000 0.000000 1.860080 
# 
# From -- ./inp_files/13386.got.cif
#   From: 2010.03.12/outbox.cif.g09.slc.cpg/sg65_7_cif.got.tgz:13386.got - 2010.04.10 20:52:16.
