data_PCOD8271707
_publ_section_title
;
Structure prediction by ZEFSAII (Michael W. Deem and Ramdas Pophale) SiO2 
 PCOD8271707
Probable space group: C M M M
;
_chemical_formula_sum "Si O2"
_cell_formula_units_Z 88
_cell_length_a 8.710015
_cell_length_b 19.905580
_cell_length_c 27.753457
_cell_angle_alpha 90.000000
_cell_angle_beta 90.000000
_cell_angle_gamma 90.000000
_cell_volume 4811.836103
_symmetry_space_group_name_H-M "C M M M"
_symmetry_group_IT_number 65
_symmetry_cell_setting 'orthorhombic'
loop_
_space_group_symop_operation_xyz
x,y,z
-x,-y,z
x,-y,-z
-x,y,-z
-x,-y,-z
x,y,-z
-x,y,z
x,-y,z
1/2+x,1/2+y,z
1/2-x,1/2-y,z
1/2+x,1/2-y,-z
1/2-x,1/2+y,-z
1/2-x,1/2-y,-z
1/2+x,1/2+y,-z
1/2-x,1/2+y,z
1/2+x,1/2-y,z
loop_
_atom_site_type_symbol
_atom_site_label
_atom_site_fract_x
_atom_site_fract_y
_atom_site_fract_z
Si Si1 0.318243 0.821565 0.924323
Si Si2 0.817449 0.574742 0.261652
Si Si3 0.182121 0.078574 0.000000
Si Si4 0.680992 0.819679 0.814235
Si Si5 0.681801 0.820727 0.445679
Si Si6 0.317500 0.074882 0.631383
O O1 0.500000 0.819245 0.932196
O O2 0.250000 0.750000 0.941967
O O3 0.248538 0.884008 0.953236
O O4 0.270907 0.835002 0.869086
O O5 0.754018 0.500000 0.251561
O O6 0.748944 0.623417 0.220740
O O7 0.765675 0.598575 0.315116
O O8 0.000000 0.574172 0.258741
O O9 0.000000 0.084488 0.000000
O O10 0.233167 0.000000 0.000000
O O11 0.500000 0.815423 0.809401
O O12 0.750000 0.750000 0.796283
O O13 0.733431 0.839398 0.500000
O O14 0.500000 0.816598 0.441916
O O15 0.750000 0.750000 0.429560
O O16 0.750997 0.875924 0.409182
O O17 0.500000 0.074450 0.628359
O O18 0.254670 0.000000 0.621224
#
# Coordination Sequence:
#
# PCOD8271707 Si02
#       6
#    16  16   8  16  16  16
#     4  10  20  35  55  76 100 130 163 198 236 281
#     4   8  14  26  44  66  92 120 151 188 229 271
#     4  11  24  39  54  75 103 131 160 197 240 283
#     4   9  18  31  49  73  97 122 153 190 229 271
#     4   9  17  28  42  62  88 116 147 185 229 275
#     4   8  14  25  42  64  88 115 150 191 230 267
#
# _framework density 18.288238
#
# number of rings (size 3 to 8) (size 9 to 14) (size 15 to 20)
#    0.000    3.000    0.000    2.182    0.000    3.273 
#    0.000    3.636    0.000    1.091    0.000    5.091 
#    0.000    0.000    0.000    0.000    0.000    0.000 
#
# Total GULP energy -545409.516372 kJ/mol
# GULP energy per Si atom -12395.670827 kJ/mol
# Density = 1.824661 g / cm^3
# Si number density = 18.288238 Si / 1000 Ang^3
#
#
#
# Elastic Constant Matrix: (Units=GPa)
#
#
# Indices 1 2 3 4 5 6 
#
# 1 26.8536 29.1364 20.5248 0.0000 0.0000 0.0000
# 2 29.1364 162.7634 110.2148 0.0000 0.0000 0.0000
# 3 20.5248 110.2148 141.6958 0.0000 0.0000 0.0000
# 4 0.0000 0.0000 0.0000 44.2430 0.0000 0.0000
# 5 0.0000 0.0000 0.0000 0.0000 12.0089 0.0000
# 6 0.0000 0.0000 0.0000 0.0000 0.0000 25.3110
#
#
#
# Elastic Compliance Matrix: (Units=1/GPa)
#
#
# Indices 1 2 3 4 5 6 
#
# 1 0.046235 -0.007905 -0.000548 0.000000 0.000000 0.000000
# 2 -0.007905 0.014333 -0.010003 0.000000 0.000000 0.000000
# 3 -0.000548 -0.010003 0.014918 0.000000 0.000000 0.000000
# 4 0.000000 0.000000 0.000000 0.022602 0.000000 0.000000
# 5 0.000000 0.000000 0.000000 0.000000 0.083272 0.000000
# 6 0.000000 0.000000 0.000000 0.000000 0.000000 0.039509
#
#
# Mechanical properties :
#
#
# Convention : Reuss Voigt Hill
#
# Bulk Modulus (GPa) = 25.92559 72.34052 49.13306
# Shear Modulus (GPa) = 18.47476 27.74169 23.10822
#
# Velocity S-wave (km/s) = 3.18181 3.89898 3.55851
# Velocity P-wave (km/s) = 5.26360 7.74022 6.61878
#
# Compressibility (1/GPa) = 0.03857193
#
# Stress axis : x y z
#
# Youngs Moduli (GPa) = 21.62846 69.77038 67.03496
#
# Poissons Ratio (x) = 0.55156 0.03675
# Poissons Ratio (y) = 0.17098 0.67057
# Poissons Ratio (z) = 0.01186 0.69793
#
# Static dielectric constant tensor:
#      x y z
#    x 2.977910 0.000000 0.000000 
#    y 0.000000 3.634930 0.000000 
#    z 0.000000 0.000000 3.708580 
# 
# 
# High freq. dielectric constant tensor:
#      x y z
#    x 1.670710 0.000000 0.000000 
#    y 0.000000 1.710320 0.000000 
#    z 0.000000 0.000000 1.719550 
# 
# From -- ./inp_files/76625.got.cif
#   From: 2010.03.12/outbox.cif.g09.slc.cpg/sg65_39_cif.got.tgz:76625.got - 2010.04.10 20:52:16.
