data_PCOD8271496
_publ_section_title
;
Structure prediction by ZEFSAII (Michael W. Deem and Ramdas Pophale) SiO2 
 PCOD8271496
Probable space group: C M M M
;
_chemical_formula_sum "Si O2"
_cell_formula_units_Z 80
_cell_length_a 17.009423
_cell_length_b 26.263846
_cell_length_c 9.575307
_cell_angle_alpha 90.000000
_cell_angle_beta 90.000000
_cell_angle_gamma 90.000000
_cell_volume 4277.604341
_symmetry_space_group_name_H-M "C M M M"
_symmetry_group_IT_number 65
_symmetry_cell_setting 'orthorhombic'
loop_
_space_group_symop_operation_xyz
x,y,z
-x,-y,z
x,-y,-z
-x,y,-z
-x,-y,-z
x,y,-z
-x,y,z
x,-y,z
1/2+x,1/2+y,z
1/2-x,1/2-y,z
1/2+x,1/2-y,-z
1/2-x,1/2+y,-z
1/2-x,1/2-y,-z
1/2+x,1/2+y,-z
1/2-x,1/2+y,z
1/2+x,1/2-y,z
loop_
_atom_site_type_symbol
_atom_site_label
_atom_site_fract_x
_atom_site_fract_y
_atom_site_fract_z
Si Si1 0.321607 0.098981 0.661131
Si Si2 0.088104 0.676447 0.158967
Si Si3 0.910910 0.500000 0.666151
Si Si4 0.329186 0.722506 0.840771
Si Si5 0.000000 0.057272 0.665860
Si Si6 0.146918 0.876902 0.338557
O O1 0.343975 0.107394 0.500000
O O2 0.349367 0.148229 0.744683
O O3 0.228293 0.092372 0.680585
O O4 0.365377 0.049481 0.722773
O O5 0.100375 0.736969 0.170739
O O6 0.000000 0.663568 0.208977
O O7 0.101599 0.658553 0.000000
O O8 0.909636 0.500000 0.500000
O O9 0.000000 0.500000 0.723823
O O10 0.250000 0.750000 0.786923
O O11 0.352256 0.675201 0.746145
O O12 0.317139 0.703566 0.000000
O O13 0.922523 0.087003 0.718675
O O14 0.000000 0.054024 0.500000
O O15 0.000000 0.000000 0.728561
O O16 0.132964 0.862680 0.500000
#
# Coordination Sequence:
#
# PCOD8271496 Si02
#       6
#    16  16   8  16   8  16
#     4  10  20  34  55  80 106 139 179 222 267 317
#     4  10  21  36  54  78 109 144 181 216 261 323
#     4   9  18  32  51  76 106 134 167 213 265 315
#     4  10  20  36  56  77 107 147 182 219 273 331
#     4   9  20  38  59  83 115 149 185 236 293 340
#     4  10  21  35  55  83 109 140 184 229 273 323
#
# _framework density 18.702058000000001
#
# number of rings (size 3 to 8) (size 9 to 14) (size 15 to 20)
#    0.000    2.200    2.000    0.600    2.800    2.400 
#    0.000    0.500    0.000    3.000    0.000    0.000 
#    0.000    0.000    0.000    0.000    0.000    0.000 
#
# Total GULP energy -496058.384034 kJ/mol
# GULP energy per Si atom -12401.459601 kJ/mol
# Density = 1.865949 g / cm^3
# Si number density = 18.702058 Si / 1000 Ang^3
#
#
#
# Elastic Constant Matrix: (Units=GPa)
#
#
# Indices 1 2 3 4 5 6 
#
# 1 138.1372 65.5570 40.6777 0.0000 0.0000 0.0000
# 2 65.5570 132.4701 46.4298 0.0000 0.0000 0.0000
# 3 40.6777 46.4298 49.3439 0.0000 0.0000 0.0000
# 4 0.0000 0.0000 0.0000 -3.8927 0.0000 0.0000
# 5 0.0000 0.0000 0.0000 0.0000 19.8517 0.0000
# 6 0.0000 0.0000 0.0000 0.0000 0.0000 37.2445
#
#
#
# Elastic Compliance Matrix: (Units=1/GPa)
#
#
# Indices 1 2 3 4 5 6 
#
# 1 0.010393 -0.003194 -0.005563 0.000000 0.000000 0.000000
# 2 -0.003194 0.012245 -0.008889 0.000000 0.000000 0.000000
# 3 -0.005563 -0.008889 0.033216 0.000000 0.000000 0.000000
# 4 0.000000 0.000000 0.000000 -0.256891 0.000000 0.000000
# 5 0.000000 0.000000 0.000000 0.000000 0.050374 0.000000
# 6 0.000000 0.000000 0.000000 0.000000 0.000000 0.026850
#
#
# Mechanical properties :
#
#
# Convention : Reuss Voigt Hill
#
# Bulk Modulus (GPa) = 48.63115 69.47560 59.05337
# Shear Modulus (GPa) = -61.22203 21.79314 -19.71445
#
# Velocity S-wave (km/s) = -5.72770 3.41732 -3.25026
# Velocity P-wave (km/s) = 4.20505 7.26637 4.19032
#
# Compressibility (1/GPa) = 0.02056295
#
# Stress axis : x y z
#
# Youngs Moduli (GPa) = 96.22040 81.66702 30.10629
#
# Poissons Ratio (x) = 0.26081 0.16747
# Poissons Ratio (y) = 0.30729 0.26762
# Poissons Ratio (z) = 0.53523 0.72594
#
# Static dielectric constant tensor:
#      x y z
#    x 3.649160 0.000000 0.000000 
#    y 0.000000 3.411730 0.000000 
#    z 0.000000 0.000000 3.150130 
# 
# 
# High freq. dielectric constant tensor:
#      x y z
#    x 1.741510 0.000000 0.000000 
#    y 0.000000 1.724320 0.000000 
#    z 0.000000 0.000000 1.695280 
# 
# From -- ./inp_files/9721.got.cif
#   From: 2010.03.12/outbox.cif.g09.slc.cpg/sg65_5_cif.got.tgz:9721.got - 2010.04.10 20:52:16.
