data_PCOD8271623
_publ_section_title
;
Structure prediction by ZEFSAII (Michael W. Deem and Ramdas Pophale) SiO2 
 PCOD8271623
Probable space group: C M M M
;
_chemical_formula_sum "Si O2"
_cell_formula_units_Z 96
_cell_length_a 9.121139
_cell_length_b 26.897027
_cell_length_c 21.879900
_cell_angle_alpha 90.000000
_cell_angle_beta 90.000000
_cell_angle_gamma 90.000000
_cell_volume 5367.829167
_symmetry_space_group_name_H-M "C M M M"
_symmetry_group_IT_number 65
_symmetry_cell_setting 'orthorhombic'
loop_
_space_group_symop_operation_xyz
x,y,z
-x,-y,z
x,-y,-z
-x,y,-z
-x,-y,-z
x,y,-z
-x,y,z
x,-y,z
1/2+x,1/2+y,z
1/2-x,1/2-y,z
1/2+x,1/2-y,-z
1/2-x,1/2+y,-z
1/2-x,1/2-y,-z
1/2+x,1/2+y,-z
1/2-x,1/2+y,z
1/2+x,1/2-y,z
loop_
_atom_site_type_symbol
_atom_site_label
_atom_site_fract_x
_atom_site_fract_y
_atom_site_fract_z
Si Si1 0.328935 0.299688 0.279501
Si Si2 0.329515 0.599341 0.928409
Si Si3 0.172105 0.698125 0.500000
Si Si4 0.836184 0.056170 0.570326
Si Si5 0.828889 0.640499 0.378187
Si Si6 0.167564 0.500000 0.927397
Si Si7 0.170884 0.800606 0.137768
O O1 0.500000 0.294382 0.292844
O O2 0.250000 0.250000 0.302138
O O3 0.260982 0.343659 0.318766
O O4 0.295899 0.310104 0.208758
O O5 0.500000 0.591410 0.913143
O O6 0.245343 0.550456 0.902799
O O7 0.270589 0.650219 0.897179
O O8 0.301417 0.605644 0.000000
O O9 0.250000 0.750000 0.500000
O O10 0.221942 0.669606 0.561011
O O11 0.000000 0.706331 0.500000
O O12 0.788699 0.059761 0.500000
O O13 0.715635 0.083655 0.611202
O O14 0.000000 0.078528 0.579188
O O15 0.835012 0.000000 0.593178
O O16 0.000000 0.645931 0.364959
O O17 0.000000 0.500000 0.904720
O O18 0.179033 0.500000 0.000000
O O19 0.250000 0.750000 0.114880
O O20 0.000000 0.792762 0.124559
#
# Coordination Sequence:
#
# PCOD8271623 Si02
#       7
#    16  16   8  16  16   8  16
#     4  10  20  35  53  73  98 132 172 208 246 294
#     4   9  17  31  52  77 105 138 173 210 254 305
#     4  10  22  34  45  68  99 125 152 193 243 292
#     4   9  18  33  53  76 100 128 162 198 242 297
#     4  11  21  34  51  74 100 129 164 202 250 298
#     4   9  17  29  47  75 107 137 171 212 257 302
#     4   9  19  34  52  75 104 137 174 211 252 302
#
# _framework density 17.884325
#
# number of rings (size 3 to 8) (size 9 to 14) (size 15 to 20)
#    0.000    2.417    0.833    2.250    0.000    5.667 
#    0.000    0.833    1.833    0.000    0.000    0.000 
#    0.000    0.000    0.000    0.000    0.000    0.000 
#
# Total GULP energy -595160.655841 kJ/mol
# GULP energy per Si atom -12399.180330 kJ/mol
# Density = 1.784362 g / cm^3
# Si number density = 17.884325 Si / 1000 Ang^3
#
#
#
# Elastic Constant Matrix: (Units=GPa)
#
#
# Indices 1 2 3 4 5 6 
#
# 1 77.5146 59.9243 34.8397 0.0000 0.0000 0.0000
# 2 59.9243 146.0846 46.9552 0.0000 0.0000 0.0000
# 3 34.8397 46.9552 50.0990 0.0000 0.0000 0.0000
# 4 0.0000 0.0000 0.0000 25.1537 0.0000 0.0000
# 5 0.0000 0.0000 0.0000 0.0000 22.4456 0.0000
# 6 0.0000 0.0000 0.0000 0.0000 0.0000 37.0949
#
#
#
# Elastic Compliance Matrix: (Units=1/GPa)
#
#
# Indices 1 2 3 4 5 6 
#
# 1 0.021739 -0.005808 -0.009674 0.000000 0.000000 0.000000
# 2 -0.005808 0.011348 -0.006597 0.000000 0.000000 0.000000
# 3 -0.009674 -0.006597 0.032871 0.000000 0.000000 0.000000
# 4 0.000000 0.000000 0.000000 0.039756 0.000000 0.000000
# 5 0.000000 0.000000 0.000000 0.000000 0.044552 0.000000
# 6 0.000000 0.000000 0.000000 0.000000 0.000000 0.026958
#
#
# Mechanical properties :
#
#
# Convention : Reuss Voigt Hill
#
# Bulk Modulus (GPa) = 45.87183 61.90406 53.88795
# Shear Modulus (GPa) = 21.86755 25.73743 23.80249
#
# Velocity S-wave (km/s) = 3.50054 3.79767 3.65213
# Velocity P-wave (km/s) = 6.48407 7.34292 6.92682
#
# Compressibility (1/GPa) = 0.02179987
#
# Stress axis : x y z
#
# Youngs Moduli (GPa) = 46.00072 88.11937 30.42159
#
# Poissons Ratio (x) = 0.51178 0.29431
# Poissons Ratio (y) = 0.26716 0.20070
# Poissons Ratio (z) = 0.44502 0.58135
#
# Static dielectric constant tensor:
#      x y z
#    x 3.412940 0.000000 0.000000 
#    y 0.000000 3.432170 0.000000 
#    z 0.000000 0.000000 3.123310 
# 
# 
# High freq. dielectric constant tensor:
#      x y z
#    x 1.693490 0.000000 0.000000 
#    y 0.000000 1.697980 0.000000 
#    z 0.000000 0.000000 1.666790 
# 
# From -- ./inp_files/68120.got.cif
#   From: 2010.03.12/outbox.cif.g09.slc.cpg/sg65_35_cif.got.tgz:68120.got - 2010.04.10 20:52:16.
