data_PCOD8271269
_publ_section_title
;
Structure prediction by ZEFSAII (Michael W. Deem and Ramdas Pophale) SiO2 
 PCOD8271269
Probable space group: C M M M
;
_chemical_formula_sum "Si O2"
_cell_formula_units_Z 80
_cell_length_a 7.941790
_cell_length_b 28.854662
_cell_length_c 19.534169
_cell_angle_alpha 90.000000
_cell_angle_beta 90.000000
_cell_angle_gamma 90.000000
_cell_volume 4476.404578
_symmetry_space_group_name_H-M "C M M M"
_symmetry_group_IT_number 65
_symmetry_cell_setting 'orthorhombic'
loop_
_space_group_symop_operation_xyz
x,y,z
-x,-y,z
x,-y,-z
-x,y,-z
-x,-y,-z
x,y,-z
-x,y,z
x,-y,z
1/2+x,1/2+y,z
1/2-x,1/2-y,z
1/2+x,1/2-y,-z
1/2-x,1/2+y,-z
1/2-x,1/2-y,-z
1/2+x,1/2+y,-z
1/2-x,1/2+y,z
1/2+x,1/2-y,z
loop_
_atom_site_type_symbol
_atom_site_label
_atom_site_fract_x
_atom_site_fract_y
_atom_site_fract_z
Si Si1 0.698484 0.198166 0.353273
Si Si2 0.308253 0.894245 0.292934
Si Si3 0.302335 0.197657 0.500000
Si Si4 0.187859 0.053614 0.166149
Si Si5 0.303218 0.553577 0.423116
Si Si6 0.500000 0.055085 0.923425
O O1 0.500000 0.198201 0.360421
O O2 0.750000 0.250000 0.330773
O O3 0.753739 0.159533 0.297880
O O4 0.773990 0.180195 0.427129
O O5 0.500000 0.897116 0.267148
O O6 0.192153 0.919557 0.237908
O O7 0.299620 0.917572 0.367489
O O8 0.500000 0.189805 0.500000
O O9 0.250000 0.250000 0.500000
O O10 0.330014 0.072782 0.114225
O O11 0.000000 0.060248 0.134503
O O12 0.223466 0.000000 0.182426
O O13 0.257010 0.571237 0.500000
O O14 0.500000 0.559906 0.409224
O O15 0.252001 0.500000 0.416178
O O16 0.500000 0.000000 0.926687
O O17 0.500000 0.075936 0.000000
#
# Coordination Sequence:
#
# PCOD8271269 Si02
#       6
#    16  16   8  16  16   8
#     4   9  19  32  47  65  89 122 161 215 266 316
#     4  11  21  31  48  71  98 133 170 215 260 312
#     4   8  14  28  44  58  79 110 153 205 265 312
#     4  10  20  34  53  78 109 145 178 207 248 303
#     4   9  19  34  47  62  88 123 169 221 264 304
#     4   9  18  34  56  82 113 143 171 207 246 292
#
# _framework density 17.871485
#
# number of rings (size 3 to 8) (size 9 to 14) (size 15 to 20)
#    0.000    2.500    1.000    1.800    1.400    5.200 
#    0.000    3.000    0.000    0.000    0.000    0.000 
#    0.000    0.800    0.400    0.000    0.000    0.000 
#
# Total GULP energy -495577.377134 kJ/mol
# GULP energy per Si atom -12389.434428 kJ/mol
# Density = 1.783081 g / cm^3
# Si number density = 17.871485 Si / 1000 Ang^3
#
#
#
# Elastic Constant Matrix: (Units=GPa)
#
#
# Indices 1 2 3 4 5 6 
#
# 1 72.4173 24.8812 37.6956 0.0000 0.0000 0.0000
# 2 24.8812 64.5651 38.8417 0.0000 0.0000 0.0000
# 3 37.6956 38.8417 96.3919 0.0000 0.0000 0.0000
# 4 0.0000 0.0000 0.0000 7.2233 0.0000 0.0000
# 5 0.0000 0.0000 0.0000 0.0000 19.8411 0.0000
# 6 0.0000 0.0000 0.0000 0.0000 0.0000 18.9955
#
#
#
# Elastic Compliance Matrix: (Units=1/GPa)
#
#
# Indices 1 2 3 4 5 6 
#
# 1 0.017935 -0.003554 -0.005582 0.000000 0.000000 0.000000
# 2 -0.003554 0.021148 -0.007132 0.000000 0.000000 0.000000
# 3 -0.005582 -0.007132 0.015431 0.000000 0.000000 0.000000
# 4 0.000000 0.000000 0.000000 0.138442 0.000000 0.000000
# 5 0.000000 0.000000 0.000000 0.000000 0.050400 0.000000
# 6 0.000000 0.000000 0.000000 0.000000 0.000000 0.052644
#
#
# Mechanical properties :
#
#
# Convention : Reuss Voigt Hill
#
# Bulk Modulus (GPa) = 45.49711 48.46792 46.98252
# Shear Modulus (GPa) = 14.88701 18.00901 16.44801
#
# Velocity S-wave (km/s) = 2.88931 3.17787 3.03702
# Velocity P-wave (km/s) = 6.05343 6.37528 6.21644
#
# Compressibility (1/GPa) = 0.02197942
#
# Stress axis : x y z
#
# Youngs Moduli (GPa) = 55.75556 47.28508 64.80386
#
# Poissons Ratio (x) = 0.16803 0.36173
# Poissons Ratio (y) = 0.19813 0.46219
# Poissons Ratio (z) = 0.31123 0.33724
#
# Static dielectric constant tensor:
#      x y z
#    x 3.333590 0.000000 0.000000 
#    y 0.000000 3.511930 0.000000 
#    z 0.000000 0.000000 2.434270 
# 
# 
# High freq. dielectric constant tensor:
#      x y z
#    x 1.694480 0.000000 0.000000 
#    y 0.000000 1.669530 0.000000 
#    z 0.000000 0.000000 1.657930 
# 
# From -- ./inp_files/50165.got.cif
#   From: 2010.03.12/outbox.cif.g09.slc.cpg/sg65_26_cif.got.tgz:50165.got - 2010.04.10 20:52:16.
