data_PCOD8271070
_publ_section_title
;
Structure prediction by ZEFSAII (Michael W. Deem and Ramdas Pophale) SiO2 
 PCOD8271070
Probable space group: C M M M
;
_chemical_formula_sum "Si O2"
_cell_formula_units_Z 96
_cell_length_a 8.906160
_cell_length_b 29.661439
_cell_length_c 18.586095
_cell_angle_alpha 90.000000
_cell_angle_beta 90.000000
_cell_angle_gamma 90.000000
_cell_volume 4909.879824
_symmetry_space_group_name_H-M "C M M M"
_symmetry_group_IT_number 65
_symmetry_cell_setting 'orthorhombic'
loop_
_space_group_symop_operation_xyz
x,y,z
-x,-y,z
x,-y,-z
-x,y,-z
-x,-y,-z
x,y,-z
-x,y,z
x,-y,z
1/2+x,1/2+y,z
1/2-x,1/2-y,z
1/2+x,1/2-y,-z
1/2-x,1/2+y,-z
1/2-x,1/2-y,-z
1/2+x,1/2+y,-z
1/2-x,1/2+y,z
1/2+x,1/2-y,z
loop_
_atom_site_type_symbol
_atom_site_label
_atom_site_fract_x
_atom_site_fract_y
_atom_site_fract_z
Si Si1 0.176490 0.796853 0.581676
Si Si2 0.170239 0.183370 0.080089
Si Si3 0.328284 0.090317 0.079402
Si Si4 0.173554 0.707269 0.788171
Si Si5 0.322604 0.366544 0.701549
Si Si6 0.674954 0.050776 0.768674
O O1 0.225558 0.807584 0.500000
O O2 0.250000 0.750000 0.608177
O O3 0.230207 0.839878 0.629257
O O4 0.000000 0.790150 0.588861
O O5 0.212477 0.131013 0.081121
O O6 0.290368 0.211502 0.127143
O O7 0.000000 0.188907 0.110353
O O8 0.181219 0.202863 0.000000
O O9 0.500000 0.107835 0.089155
O O10 0.286069 0.058215 0.146690
O O11 0.313704 0.066243 0.000000
O O12 0.250000 0.750000 0.747724
O O13 0.253992 0.660954 0.767689
O O14 0.000000 0.706181 0.769422
O O15 0.500000 0.368302 0.705999
O O16 0.260014 0.417027 0.711219
O O17 0.500000 0.058475 0.755358
O O18 0.723834 0.000000 0.749496
#
# Coordination Sequence:
#
# PCOD8271070 Si02
#       6
#    16  16  16  16  16  16
#     4   9  19  36  59  89 121 150 182 220 265 324
#     4  10  20  34  52  74 102 137 179 228 279 331
#     4   9  17  31  52  76 103 139 182 231 288 342
#     4  12  24  37  54  77 107 143 184 226 272 329
#     4  11  22  37  58  83 113 148 183 224 277 329
#     4  10  21  36  55  81 112 148 190 236 285 338
#
# _framework density 19.552413000000001
#
# number of rings (size 3 to 8) (size 9 to 14) (size 15 to 20)
#    0.000    1.833    1.667    3.000    0.000    4.667 
#    0.000    1.667    0.000    0.500    0.000    7.000 
#    0.000    0.000    0.000    0.000    0.000    0.000 
#
# Total GULP energy -594881.850583 kJ/mol
# GULP energy per Si atom -12393.371887 kJ/mol
# Density = 1.950791 g / cm^3
# Si number density = 19.552413 Si / 1000 Ang^3
#
#
#
# Elastic Constant Matrix: (Units=GPa)
#
#
# Indices 1 2 3 4 5 6 
#
# 1 62.9992 42.4707 34.0917 0.0000 0.0000 0.0000
# 2 42.4707 124.2045 50.7416 0.0000 0.0000 0.0000
# 3 34.0917 50.7416 101.8504 0.0000 0.0000 0.0000
# 4 0.0000 0.0000 0.0000 23.0685 0.0000 0.0000
# 5 0.0000 0.0000 0.0000 0.0000 19.9947 0.0000
# 6 0.0000 0.0000 0.0000 0.0000 0.0000 30.6158
#
#
#
# Elastic Compliance Matrix: (Units=1/GPa)
#
#
# Indices 1 2 3 4 5 6 
#
# 1 0.022211 -0.005722 -0.004584 0.000000 0.000000 0.000000
# 2 -0.005722 0.011583 -0.003855 0.000000 0.000000 0.000000
# 3 -0.004584 -0.003855 0.013273 0.000000 0.000000 0.000000
# 4 0.000000 0.000000 0.000000 0.043349 0.000000 0.000000
# 5 0.000000 0.000000 0.000000 0.000000 0.050013 0.000000
# 6 0.000000 0.000000 0.000000 0.000000 0.000000 0.032663
#
#
# Mechanical properties :
#
#
# Convention : Reuss Voigt Hill
#
# Bulk Modulus (GPa) = 53.34780 60.40691 56.87736
# Shear Modulus (GPa) = 24.07739 25.51917 24.79828
#
# Velocity S-wave (km/s) = 3.51298 3.61663 3.56518
# Velocity P-wave (km/s) = 6.61804 6.95715 6.78971
#
# Compressibility (1/GPa) = 0.01874491
#
# Stress axis : x y z
#
# Youngs Moduli (GPa) = 45.02182 86.33396 75.33944
#
# Poissons Ratio (x) = 0.49404 0.34534
# Poissons Ratio (y) = 0.25763 0.29045
# Poissons Ratio (z) = 0.20637 0.33283
#
# Static dielectric constant tensor:
#      x y z
#    x 3.476640 0.000000 0.000000 
#    y 0.000000 3.475180 0.000000 
#    z 0.000000 0.000000 3.733410 
# 
# 
# High freq. dielectric constant tensor:
#      x y z
#    x 1.758700 0.000000 0.000000 
#    y 0.000000 1.743930 0.000000 
#    z 0.000000 0.000000 1.752910 
# 
# From -- ./inp_files/60314.got.cif
#   From: 2010.03.12/outbox.cif.g09.slc.cpg/sg65_31_cif.got.tgz:60314.got - 2010.04.10 20:52:16.
