data_PCOD8271773
_publ_section_title
;
Structure prediction by ZEFSAII (Michael W. Deem and Ramdas Pophale) SiO2 
 PCOD8271773
Probable space group: C M M M
;
_chemical_formula_sum "Si O2"
_cell_formula_units_Z 96
_cell_length_a 23.187387
_cell_length_b 25.096764
_cell_length_c 9.105755
_cell_angle_alpha 90.000000
_cell_angle_beta 90.000000
_cell_angle_gamma 90.000000
_cell_volume 5298.897250
_symmetry_space_group_name_H-M "C M M M"
_symmetry_group_IT_number 65
_symmetry_cell_setting 'orthorhombic'
loop_
_space_group_symop_operation_xyz
x,y,z
-x,-y,z
x,-y,-z
-x,y,-z
-x,-y,-z
x,y,-z
-x,y,z
x,-y,z
1/2+x,1/2+y,z
1/2-x,1/2-y,z
1/2+x,1/2-y,-z
1/2-x,1/2+y,-z
1/2-x,1/2-y,-z
1/2+x,1/2+y,-z
1/2-x,1/2+y,z
1/2+x,1/2-y,z
loop_
_atom_site_type_symbol
_atom_site_label
_atom_site_fract_x
_atom_site_fract_y
_atom_site_fract_z
Si Si1 0.566873 0.746884 0.169340
Si Si2 0.064893 0.439447 0.672844
Si Si3 0.371902 0.652883 0.326171
Si Si4 0.259206 0.689158 0.169600
Si Si5 0.433663 0.561600 0.831330
Si Si6 0.133534 0.350252 0.169611
O O1 0.500000 0.759363 0.189359
O O2 0.583456 0.695910 0.263999
O O3 0.601946 0.797515 0.230220
O O4 0.583044 0.735408 0.000000
O O5 0.070606 0.433084 0.500000
O O6 0.078109 0.500000 0.720403
O O7 0.111947 0.402166 0.747121
O O8 0.000000 0.423771 0.722784
O O9 0.372043 0.655493 0.500000
O O10 0.307705 0.662859 0.269094
O O11 0.392239 0.594853 0.274290
O O12 0.250000 0.750000 0.219200
O O13 0.201545 0.655275 0.195465
O O14 0.278789 0.687690 0.000000
O O15 0.500000 0.573060 0.790487
O O16 0.418697 0.500000 0.806407
O O17 0.422389 0.577885 0.000000
O O18 0.117869 0.357364 0.000000
#
# Coordination Sequence:
#
# PCOD8271773 Si02
#       6
#    16  16  16  16  16  16
#     4  10  20  35  55  79 110 145 181 224 275 331
#     4   9  19  36  56  79 112 152 183 212 266 335
#     4  12  24  35  53  83 117 147 182 226 276 334
#     4  10  20  39  61  77 104 148 192 231 275 325
#     4   9  19  38  63  86 109 144 189 232 276 328
#     4  10  20  35  58  84 105 135 185 237 276 314
#
# _framework density 18.116976999999999
#
# number of rings (size 3 to 8) (size 9 to 14) (size 15 to 20)
#    0.000    2.000    1.667    3.500    0.000    6.000 
#    0.000    2.500    0.000    1.000    0.000    0.000 
#    0.000    0.000    0.000    0.000    0.000    0.000 
#
# Total GULP energy -595378.564435 kJ/mol
# GULP energy per Si atom -12403.720092 kJ/mol
# Density = 1.807574 g / cm^3
# Si number density = 18.116977 Si / 1000 Ang^3
#
#
#
# Elastic Constant Matrix: (Units=GPa)
#
#
# Indices 1 2 3 4 5 6 
#
# 1 95.3632 50.5385 48.1969 0.0000 0.0000 0.0000
# 2 50.5385 105.5695 52.0156 0.0000 0.0000 0.0000
# 3 48.1969 52.0156 85.2112 0.0000 0.0000 0.0000
# 4 0.0000 0.0000 0.0000 3.3574 0.0000 0.0000
# 5 0.0000 0.0000 0.0000 0.0000 22.2463 0.0000
# 6 0.0000 0.0000 0.0000 0.0000 0.0000 29.3309
#
#
#
# Elastic Compliance Matrix: (Units=1/GPa)
#
#
# Indices 1 2 3 4 5 6 
#
# 1 0.016113 -0.004610 -0.006300 0.000000 0.000000 0.000000
# 2 -0.004610 0.014866 -0.006467 0.000000 0.000000 0.000000
# 3 -0.006300 -0.006467 0.019247 0.000000 0.000000 0.000000
# 4 0.000000 0.000000 0.000000 0.297852 0.000000 0.000000
# 5 0.000000 0.000000 0.000000 0.000000 0.044951 0.000000
# 6 0.000000 0.000000 0.000000 0.000000 0.000000 0.034094
#
#
# Mechanical properties :
#
#
# Convention : Reuss Voigt Hill
#
# Bulk Modulus (GPa) = 64.63337 65.29399 64.96368
# Shear Modulus (GPa) = 10.70586 20.01311 15.35949
#
# Velocity S-wave (km/s) = 2.43354 3.32725 2.91485
# Velocity P-wave (km/s) = 6.60675 7.13297 6.87490
#
# Compressibility (1/GPa) = 0.01547188
#
# Stress axis : x y z
#
# Youngs Moduli (GPa) = 62.06093 67.26918 51.95689
#
# Poissons Ratio (x) = 0.31009 0.32733
# Poissons Ratio (y) = 0.28608 0.33601
# Poissons Ratio (z) = 0.39099 0.43504
#
# Static dielectric constant tensor:
#      x y z
#    x 3.341620 0.000000 0.000000 
#    y 0.000000 3.347400 0.000000 
#    z 0.000000 0.000000 3.191920 
# 
# 
# High freq. dielectric constant tensor:
#      x y z
#    x 1.705770 0.000000 0.000000 
#    y 0.000000 1.703580 0.000000 
#    z 0.000000 0.000000 1.688720 
# 
# From -- ./inp_files/14285.got.cif
#   From: 2010.03.12/outbox.cif.g09.slc.cpg/sg65_8_cif.got.tgz:14285.got - 2010.04.10 20:52:16.
