data_PCOD8271742
_publ_section_title
;
Structure prediction by ZEFSAII (Michael W. Deem and Ramdas Pophale) SiO2 
 PCOD8271742
Probable space group: C M M M
;
_chemical_formula_sum "Si O2"
_cell_formula_units_Z 72
_cell_length_a 32.502233
_cell_length_b 13.689083
_cell_length_c 8.778706
_cell_angle_alpha 90.000000
_cell_angle_beta 90.000000
_cell_angle_gamma 90.000000
_cell_volume 3905.872485
_symmetry_space_group_name_H-M "C M M M"
_symmetry_group_IT_number 65
_symmetry_cell_setting 'orthorhombic'
loop_
_space_group_symop_operation_xyz
x,y,z
-x,-y,z
x,-y,-z
-x,y,-z
-x,-y,-z
x,y,-z
-x,y,z
x,-y,z
1/2+x,1/2+y,z
1/2-x,1/2-y,z
1/2+x,1/2-y,-z
1/2-x,1/2+y,-z
1/2-x,1/2-y,-z
1/2+x,1/2+y,-z
1/2-x,1/2+y,z
1/2+x,1/2-y,z
loop_
_atom_site_type_symbol
_atom_site_label
_atom_site_fract_x
_atom_site_fract_y
_atom_site_fract_z
Si Si1 0.705077 0.263100 0.175805
Si Si2 0.370378 0.612562 0.181051
Si Si3 0.000000 0.386615 0.180247
Si Si4 0.655698 0.110266 0.669333
Si Si5 0.425444 0.772633 0.328192
O O1 0.750000 0.250000 0.255315
O O2 0.674210 0.347066 0.242365
O O3 0.682749 0.160930 0.201801
O O4 0.711981 0.285946 0.000000
O O5 0.374409 0.500000 0.231028
O O6 0.408441 0.672469 0.252636
O O7 0.372586 0.625348 0.000000
O O8 0.961383 0.323190 0.233969
O O9 0.000000 0.500000 0.242831
O O10 0.000000 0.390617 0.000000
O O11 0.674772 0.125414 0.500000
O O12 0.609601 0.147084 0.670287
O O13 0.654793 0.000000 0.720335
O O14 0.440229 0.748238 0.500000
#
# Coordination Sequence:
#
# PCOD8271742 Si02
#       5
#    16  16   8  16  16
#     4   9  18  31  48  73 102 132 170 214 257 303
#     4   9  18  34  54  74 102 141 180 219 264 310
#     4  11  23  37  56  83 112 139 167 202 250 311
#     4   9  18  32  49  70  98 132 166 201 247 301
#     4  10  20  35  55  78 105 135 170 212 255 304
#
# _framework density 18.433782000000001
#
# number of rings (size 3 to 8) (size 9 to 14) (size 15 to 20)
#    0.000    2.556    0.000    1.667    0.000    4.889 
#    0.000    2.778    0.000    3.333    0.000    0.000 
#    0.000    0.000    0.000    0.000    0.000    0.000 
#
# Total GULP energy -446051.665138 kJ/mol
# GULP energy per Si atom -12390.324032 kJ/mol
# Density = 1.839183 g / cm^3
# Si number density = 18.433782 Si / 1000 Ang^3
#
#
#
# Elastic Constant Matrix: (Units=GPa)
#
#
# Indices 1 2 3 4 5 6 
#
# 1 102.6768 73.1213 33.6751 0.0000 0.0000 0.0000
# 2 73.1213 150.7524 28.2052 0.0000 0.0000 0.0000
# 3 33.6751 28.2052 42.7045 0.0000 0.0000 0.0000
# 4 0.0000 0.0000 0.0000 20.4755 0.0000 0.0000
# 5 0.0000 0.0000 0.0000 0.0000 19.2647 0.0000
# 6 0.0000 0.0000 0.0000 0.0000 0.0000 12.3284
#
#
#
# Elastic Compliance Matrix: (Units=1/GPa)
#
#
# Indices 1 2 3 4 5 6 
#
# 1 0.017690 -0.006812 -0.009450 0.000000 0.000000 0.000000
# 2 -0.006812 0.010192 -0.001360 0.000000 0.000000 0.000000
# 3 -0.009450 -0.001360 0.031767 0.000000 0.000000 0.000000
# 4 0.000000 0.000000 0.000000 0.048839 0.000000 0.000000
# 5 0.000000 0.000000 0.000000 0.000000 0.051908 0.000000
# 6 0.000000 0.000000 0.000000 0.000000 0.000000 0.081114
#
#
# Mechanical properties :
#
#
# Convention : Reuss Voigt Hill
#
# Bulk Modulus (GPa) = 40.97621 62.90411 51.94016
# Shear Modulus (GPa) = 17.55065 21.15587 19.35326
#
# Velocity S-wave (km/s) = 3.08895 3.39140 3.24370
# Velocity P-wave (km/s) = 5.91602 7.03803 6.50128
#
# Compressibility (1/GPa) = 0.02440440
#
# Stress axis : x y z
#
# Youngs Moduli (GPa) = 56.52856 98.11573 31.47927
#
# Poissons Ratio (x) = 0.66840 0.29749
# Poissons Ratio (y) = 0.38509 0.04280
# Poissons Ratio (z) = 0.53422 0.13340
#
# Static dielectric constant tensor:
#      x y z
#    x 3.527000 0.000000 0.000000 
#    y 0.000000 3.416940 0.000000 
#    z 0.000000 0.000000 3.360950 
# 
# 
# High freq. dielectric constant tensor:
#      x y z
#    x 1.713800 0.000000 0.000000 
#    y 0.000000 1.714890 0.000000 
#    z 0.000000 0.000000 1.705660 
# 
# From -- ./inp_files/7689.got.cif
#   From: 2010.03.12/outbox.cif.g09.slc.cpg/sg65_4_cif.got.tgz:7689.got - 2010.04.10 20:52:16.
