data_PCOD8271624
_publ_section_title
;
Structure prediction by ZEFSAII (Michael W. Deem and Ramdas Pophale) SiO2 
 PCOD8271624
Probable space group: C M M M
;
_chemical_formula_sum "Si O2"
_cell_formula_units_Z 104
_cell_length_a 9.128903
_cell_length_b 26.535536
_cell_length_c 22.866859
_cell_angle_alpha 90.000000
_cell_angle_beta 90.000000
_cell_angle_gamma 90.000000
_cell_volume 5539.275566
_symmetry_space_group_name_H-M "C M M M"
_symmetry_group_IT_number 65
_symmetry_cell_setting 'orthorhombic'
loop_
_space_group_symop_operation_xyz
x,y,z
-x,-y,z
x,-y,-z
-x,y,-z
-x,-y,-z
x,y,-z
-x,y,z
x,-y,z
1/2+x,1/2+y,z
1/2-x,1/2-y,z
1/2+x,1/2-y,-z
1/2-x,1/2+y,-z
1/2-x,1/2-y,-z
1/2+x,1/2+y,-z
1/2-x,1/2+y,z
1/2+x,1/2-y,z
loop_
_atom_site_type_symbol
_atom_site_label
_atom_site_fract_x
_atom_site_fract_y
_atom_site_fract_z
Si Si1 0.674395 0.603451 0.874094
Si Si2 0.326277 0.500000 0.065860
Si Si3 0.329592 0.298437 0.332531
Si Si4 0.830552 0.699129 0.930829
Si Si5 0.169052 0.896441 0.259179
Si Si6 0.331659 0.055689 0.359374
Si Si7 0.172787 0.350590 0.433269
O O1 0.500000 0.610635 0.880611
O O2 0.728904 0.550810 0.902288
O O3 0.753176 0.650224 0.904377
O O4 0.725820 0.602200 0.806928
O O5 0.500000 0.500000 0.065739
O O6 0.263845 0.500000 0.000000
O O7 0.500000 0.288165 0.341604
O O8 0.250000 0.250000 0.305482
O O9 0.298010 0.341893 0.286041
O O10 0.258603 0.309263 0.395785
O O11 0.750000 0.750000 0.908521
O O12 0.000000 0.701367 0.911062
O O13 0.816220 0.694725 0.000000
O O14 0.249197 0.938122 0.297975
O O15 0.000000 0.910386 0.261330
O O16 0.500000 0.064730 0.344706
O O17 0.279841 0.094456 0.409250
O O18 0.301265 0.000000 0.384245
O O19 0.224688 0.346492 0.500000
O O20 0.000000 0.341443 0.427201
#
# Coordination Sequence:
#
# PCOD8271624 Si02
#       7
#    16   8  16  16  16  16  16
#     4  10  20  35  56  82 110 144 186 228 270 321
#     4   9  18  32  53  81 111 145 182 221 266 318
#     4  10  20  35  53  74 101 135 172 213 263 315
#     4  10  21  37  57  81 109 142 179 222 273 326
#     4   9  20  35  52  76 104 136 175 217 260 308
#     4   9  18  32  51  75 103 136 172 213 260 308
#     4   9  18  33  52  75 103 134 171 214 259 310
#
# _framework density 18.775019
#
# number of rings (size 3 to 8) (size 9 to 14) (size 15 to 20)
#    0.000    2.538    0.000    1.385    1.077    4.615 
#    0.000    3.462    0.000    1.385    0.000    4.308 
#    0.000    0.000    0.000    0.000    0.000    0.000 
#
# Total GULP energy -644806.962866 kJ/mol
# GULP energy per Si atom -12400.133901 kJ/mol
# Density = 1.873229 g / cm^3
# Si number density = 18.775019 Si / 1000 Ang^3
#
#
#
# Elastic Constant Matrix: (Units=GPa)
#
#
# Indices 1 2 3 4 5 6 
#
# 1 52.3352 36.8113 32.4180 0.0000 0.0000 0.0000
# 2 36.8113 111.1302 42.2808 0.0000 0.0000 0.0000
# 3 32.4180 42.2808 109.8282 0.0000 0.0000 0.0000
# 4 0.0000 0.0000 0.0000 14.2129 0.0000 0.0000
# 5 0.0000 0.0000 0.0000 0.0000 26.2930 0.0000
# 6 0.0000 0.0000 0.0000 0.0000 0.0000 28.8548
#
#
#
# Elastic Compliance Matrix: (Units=1/GPa)
#
#
# Indices 1 2 3 4 5 6 
#
# 1 0.027378 -0.007023 -0.005378 0.000000 0.000000 0.000000
# 2 -0.007023 0.012344 -0.002679 0.000000 0.000000 0.000000
# 3 -0.005378 -0.002679 0.011724 0.000000 0.000000 0.000000
# 4 0.000000 0.000000 0.000000 0.070359 0.000000 0.000000
# 5 0.000000 0.000000 0.000000 0.000000 0.038033 0.000000
# 6 0.000000 0.000000 0.000000 0.000000 0.000000 0.034656
#
#
# Mechanical properties :
#
#
# Convention : Reuss Voigt Hill
#
# Bulk Modulus (GPa) = 46.97738 55.14596 51.06167
# Shear Modulus (GPa) = 21.57503 24.65771 23.11637
#
# Velocity S-wave (km/s) = 3.39357 3.62791 3.51270
# Velocity P-wave (km/s) = 6.35851 6.85454 6.61118
#
# Compressibility (1/GPa) = 0.02128684
#
# Stress axis : x y z
#
# Youngs Moduli (GPa) = 36.52504 81.01037 85.29621
#
# Poissons Ratio (x) = 0.56893 0.45869
# Poissons Ratio (y) = 0.25651 0.22852
# Poissons Ratio (z) = 0.19642 0.21704
#
# Static dielectric constant tensor:
#      x y z
#    x 3.363020 0.000000 0.000000 
#    y 0.000000 3.600520 0.000000 
#    z 0.000000 0.000000 3.512950 
# 
# 
# High freq. dielectric constant tensor:
#      x y z
#    x 1.717320 0.000000 0.000000 
#    y 0.000000 1.739990 0.000000 
#    z 0.000000 0.000000 1.725580 
# 
# From -- ./inp_files/60407.got.cif
#   From: 2010.03.12/outbox.cif.g09.slc.cpg/sg65_31_cif.got.tgz:60407.got - 2010.04.10 20:52:16.
