data_PCOD8271029
_publ_section_title
;
Structure prediction by ZEFSAII (Michael W. Deem and Ramdas Pophale) SiO2 
 PCOD8271029
Probable space group: C M M M
;
_chemical_formula_sum "Si O2"
_cell_formula_units_Z 104
_cell_length_a 9.672544
_cell_length_b 29.988611
_cell_length_c 19.182552
_cell_angle_alpha 90.000000
_cell_angle_beta 90.000000
_cell_angle_gamma 90.000000
_cell_volume 5564.209186
_symmetry_space_group_name_H-M "C M M M"
_symmetry_group_IT_number 65
_symmetry_cell_setting 'orthorhombic'
loop_
_space_group_symop_operation_xyz
x,y,z
-x,-y,z
x,-y,-z
-x,y,-z
-x,-y,-z
x,y,-z
-x,y,z
x,-y,z
1/2+x,1/2+y,z
1/2-x,1/2-y,z
1/2+x,1/2-y,-z
1/2-x,1/2+y,-z
1/2-x,1/2-y,-z
1/2+x,1/2+y,-z
1/2-x,1/2+y,z
1/2+x,1/2-y,z
loop_
_atom_site_type_symbol
_atom_site_label
_atom_site_fract_x
_atom_site_fract_y
_atom_site_fract_z
Si Si1 0.163634 0.452006 0.422378
Si Si2 0.653817 0.286381 0.854719
Si Si3 0.162549 0.295721 0.500000
Si Si4 0.163893 0.950241 0.850961
Si Si5 0.335567 0.681133 0.000000
Si Si6 0.663192 0.141550 0.631365
Si Si7 0.164965 0.918431 0.000000
Si Si8 0.156013 0.869570 0.758987
O O1 0.225506 0.450676 0.500000
O O2 0.205820 0.500000 0.387560
O O3 0.218973 0.408798 0.382444
O O4 0.000000 0.447994 0.426926
O O5 0.500000 0.266448 0.855357
O O6 0.750000 0.250000 0.815853
O O7 0.715848 0.292765 0.932059
O O8 0.654051 0.334467 0.820699
O O9 0.250000 0.250000 0.500000
O O10 0.200649 0.325043 0.431881
O O11 0.000000 0.283739 0.500000
O O12 0.219138 0.915129 0.792605
O O13 0.000000 0.944439 0.853173
O O14 0.208201 0.000000 0.827574
O O15 0.221698 0.941860 0.929274
O O16 0.500000 0.677185 0.000000
O O17 0.274969 0.631341 0.000000
O O18 0.500000 0.143220 0.646009
O O19 0.747815 0.153415 0.700377
O O20 0.000000 0.920406 0.000000
O O21 0.000000 0.876953 0.729831
#
# Coordination Sequence:
#
# PCOD8271029 Si02
#       8
#    16  16   8  16   8  16   8  16
#     4   8  13  25  50  80 103 124 156 200 246 289
#     4  10  20  34  52  73 100 132 169 212 258 305
#     4  10  22  40  61  83 105 131 170 220 265 306
#     4   9  16  27  46  74 107 142 179 217 257 303
#     4   9  15  28  50  72  96 129 168 213 260 302
#     4  10  20  36  57  80 105 133 170 213 253 301
#     4   9  13  23  46  73 100 134 179 224 260 296
#     4  10  21  35  50  74 109 143 169 204 258 311
#
# _framework density 18.690885000000002
#
# number of rings (size 3 to 8) (size 9 to 14) (size 15 to 20)
#    0.000    2.615    2.308    0.923    0.000    3.385 
#    0.000    3.077    0.000    0.000    0.000    1.615 
#    0.000    1.231    0.000    0.000    0.000    0.000 
#
# Total GULP energy -644284.568096 kJ/mol
# GULP energy per Si atom -12390.087848 kJ/mol
# Density = 1.864834 g / cm^3
# Si number density = 18.690885 Si / 1000 Ang^3
#
#
#
# Elastic Constant Matrix: (Units=GPa)
#
#
# Indices 1 2 3 4 5 6 
#
# 1 42.9537 38.5633 37.5127 0.0000 0.0000 0.0000
# 2 38.5633 122.8622 34.1819 0.0000 0.0000 0.0000
# 3 37.5127 34.1819 100.1333 0.0000 0.0000 0.0000
# 4 0.0000 0.0000 0.0000 13.9252 0.0000 0.0000
# 5 0.0000 0.0000 0.0000 0.0000 19.9188 0.0000
# 6 0.0000 0.0000 0.0000 0.0000 0.0000 21.5855
#
#
#
# Elastic Compliance Matrix: (Units=1/GPa)
#
#
# Indices 1 2 3 4 5 6 
#
# 1 0.043604 -0.010101 -0.012887 0.000000 0.000000 0.000000
# 2 -0.010101 0.011333 -0.000085 0.000000 0.000000 0.000000
# 3 -0.012887 -0.000085 0.014844 0.000000 0.000000 0.000000
# 4 0.000000 0.000000 0.000000 0.071812 0.000000 0.000000
# 5 0.000000 0.000000 0.000000 0.000000 0.050204 0.000000
# 6 0.000000 0.000000 0.000000 0.000000 0.000000 0.046327
#
#
# Mechanical properties :
#
#
# Convention : Reuss Voigt Hill
#
# Bulk Modulus (GPa) = 42.30965 54.05169 48.18067
# Shear Modulus (GPa) = 17.11462 21.46533 19.28997
#
# Velocity S-wave (km/s) = 3.02928 3.39254 3.21604
# Velocity P-wave (km/s) = 5.90940 6.65787 6.29477
#
# Compressibility (1/GPa) = 0.02363527
#
# Stress axis : x y z
#
# Youngs Moduli (GPa) = 22.93360 88.23667 67.36947
#
# Poissons Ratio (x) = 0.89126 0.86821
# Poissons Ratio (y) = 0.23165 0.00571
# Poissons Ratio (z) = 0.29555 0.00747
#
# Static dielectric constant tensor:
#      x y z
#    x 2.905000 0.000000 0.000000 
#    y 0.000000 3.613830 0.000000 
#    z 0.000000 0.000000 3.408720 
# 
# 
# High freq. dielectric constant tensor:
#      x y z
#    x 1.664980 0.000000 0.000000 
#    y 0.000000 1.742060 0.000000 
#    z 0.000000 0.000000 1.720670 
# 
# From -- ./inp_files/51966.got.cif
#   From: 2010.03.12/outbox.cif.g09.slc.cpg/sg65_26_cif.got.tgz:51966.got - 2010.04.10 20:52:16.
