data_PCOD8271255
_publ_section_title
;
Structure prediction by ZEFSAII (Michael W. Deem and Ramdas Pophale) SiO2 
 PCOD8271255
Probable space group: C M M M
;
_chemical_formula_sum "Si O2"
_cell_formula_units_Z 80
_cell_length_a 26.885990
_cell_length_b 8.806128
_cell_length_c 18.671657
_cell_angle_alpha 90.000000
_cell_angle_beta 90.000000
_cell_angle_gamma 90.000000
_cell_volume 4420.728946
_symmetry_space_group_name_H-M "C M M M"
_symmetry_group_IT_number 65
_symmetry_cell_setting 'orthorhombic'
loop_
_space_group_symop_operation_xyz
x,y,z
-x,-y,z
x,-y,-z
-x,y,-z
-x,-y,-z
x,y,-z
-x,y,z
x,-y,z
1/2+x,1/2+y,z
1/2-x,1/2-y,z
1/2+x,1/2-y,-z
1/2-x,1/2+y,-z
1/2-x,1/2-y,-z
1/2+x,1/2+y,-z
1/2-x,1/2+y,z
1/2+x,1/2-y,z
loop_
_atom_site_type_symbol
_atom_site_label
_atom_site_fract_x
_atom_site_fract_y
_atom_site_fract_z
Si Si1 0.098167 0.679609 0.850579
Si Si2 0.444184 0.819647 0.000000
Si Si3 0.646378 0.179468 0.362708
Si Si4 0.195504 0.820450 0.500000
Si Si5 0.698884 0.176175 0.218313
Si Si6 0.943027 0.824244 0.287272
O O1 0.089452 0.500000 0.841360
O O2 0.155758 0.722469 0.837420
O O3 0.063405 0.762786 0.793253
O O4 0.084137 0.739116 0.929427
O O5 0.500000 0.754170 0.000000
O O6 0.445177 0.000000 0.000000
O O7 0.664683 0.268481 0.431534
O O8 0.682804 0.226967 0.297871
O O9 0.590499 0.230173 0.343134
O O10 0.646958 0.000000 0.376979
O O11 0.250000 0.750000 0.500000
O O12 0.201135 0.000000 0.500000
O O13 0.750000 0.250000 0.193623
O O14 0.708343 0.000000 0.217158
O O15 0.000000 0.801912 0.310728
O O16 0.927308 0.000000 0.289594
#
# Coordination Sequence:
#
# PCOD8271255 Si02
#       6
#    16   8  16   8  16  16
#     4   9  18  32  50  74 101 131 173 218 258 307
#     4   9  16  28  50  75  97 127 169 217 264 307
#     4  10  21  37  56  79 105 136 177 219 260 306
#     4  12  24  38  57  82 113 144 174 213 261 311
#     4   9  18  31  49  72  98 130 167 209 253 299
#     4  10  20  34  53  78 107 138 171 211 262 316
#
# _framework density 18.096564000000001
#
# number of rings (size 3 to 8) (size 9 to 14) (size 15 to 20)
#    0.000    2.300    0.000    4.500    0.000    8.000 
#    0.000    1.500    0.000    4.800    0.000    0.000 
#    0.000    0.000    0.000    0.000    0.000    0.000 
#
# Total GULP energy -496032.818535 kJ/mol
# GULP energy per Si atom -12400.820463 kJ/mol
# Density = 1.805538 g / cm^3
# Si number density = 18.096564 Si / 1000 Ang^3
#
#
#
# Elastic Constant Matrix: (Units=GPa)
#
#
# Indices 1 2 3 4 5 6 
#
# 1 130.8208 41.6643 69.1766 0.0000 0.0000 0.0000
# 2 41.6643 69.6218 41.1370 0.0000 0.0000 0.0000
# 3 69.1766 41.1370 138.9566 0.0000 0.0000 0.0000
# 4 0.0000 0.0000 0.0000 19.9259 0.0000 0.0000
# 5 0.0000 0.0000 0.0000 0.0000 27.6766 0.0000
# 6 0.0000 0.0000 0.0000 0.0000 0.0000 33.4391
#
#
#
# Elastic Compliance Matrix: (Units=1/GPa)
#
#
# Indices 1 2 3 4 5 6 
#
# 1 0.011291 -0.004164 -0.004388 0.000000 0.000000 0.000000
# 2 -0.004164 0.018944 -0.003535 0.000000 0.000000 0.000000
# 3 -0.004388 -0.003535 0.010428 0.000000 0.000000 0.000000
# 4 0.000000 0.000000 0.000000 0.050186 0.000000 0.000000
# 5 0.000000 0.000000 0.000000 0.000000 0.036132 0.000000
# 6 0.000000 0.000000 0.000000 0.000000 0.000000 0.029905
#
#
# Mechanical properties :
#
#
# Convention : Reuss Voigt Hill
#
# Bulk Modulus (GPa) = 60.65170 71.48391 66.06781
# Shear Modulus (GPa) = 26.80170 28.70307 27.75239
#
# Velocity S-wave (km/s) = 3.85260 3.98692 3.92033
# Velocity P-wave (km/s) = 7.30605 7.79622 7.55511
#
# Compressibility (1/GPa) = 0.01648758
#
# Stress axis : x y z
#
# Youngs Moduli (GPa) = 88.56962 52.78695 95.89939
#
# Poissons Ratio (x) = 0.21980 0.42081
# Poissons Ratio (y) = 0.36880 0.33903
# Poissons Ratio (z) = 0.38865 0.18662
#
# Static dielectric constant tensor:
#      x y z
#    x 3.541450 0.000000 0.000000 
#    y 0.000000 3.286910 0.000000 
#    z 0.000000 0.000000 3.385850 
# 
# 
# High freq. dielectric constant tensor:
#      x y z
#    x 1.708380 0.000000 0.000000 
#    y 0.000000 1.696480 0.000000 
#    z 0.000000 0.000000 1.691810 
# 
# From -- ./inp_files/57262.got.cif
#   From: 2010.03.12/outbox.cif.g09.slc.cpg/sg65_29_cif.got.tgz:57262.got - 2010.04.10 20:52:16.
