data_PCOD8271009
_publ_section_title
;
Structure prediction by ZEFSAII (Michael W. Deem and Ramdas Pophale) SiO2 
 PCOD8271009
Probable space group: C M M M
;
_chemical_formula_sum "Si O2"
_cell_formula_units_Z 104
_cell_length_a 30.063474
_cell_length_b 8.932528
_cell_length_c 23.263503
_cell_angle_alpha 90.000000
_cell_angle_beta 90.000000
_cell_angle_gamma 90.000000
_cell_volume 6247.246775
_symmetry_space_group_name_H-M "C M M M"
_symmetry_group_IT_number 65
_symmetry_cell_setting 'orthorhombic'
loop_
_space_group_symop_operation_xyz
x,y,z
-x,-y,z
x,-y,-z
-x,y,-z
-x,-y,-z
x,y,-z
-x,y,z
x,-y,z
1/2+x,1/2+y,z
1/2-x,1/2-y,z
1/2+x,1/2-y,-z
1/2-x,1/2+y,-z
1/2-x,1/2-y,-z
1/2+x,1/2+y,-z
1/2-x,1/2+y,z
1/2+x,1/2-y,z
loop_
_atom_site_type_symbol
_atom_site_label
_atom_site_fract_x
_atom_site_fract_y
_atom_site_fract_z
Si Si1 0.792967 0.167185 0.774726
Si Si2 0.614879 0.822532 0.909140
Si Si3 0.552878 0.167816 0.439153
Si Si4 0.049695 0.679269 0.683774
Si Si5 0.706017 0.669073 0.088697
Si Si6 0.947736 0.823054 0.000000
Si Si7 0.118191 0.676031 0.777210
O O1 0.750000 0.250000 0.748970
O O2 0.791001 0.167569 0.843133
O O3 0.836713 0.251879 0.753838
O O4 0.793681 0.000000 0.750101
O O5 0.662050 0.758222 0.931472
O O6 0.574429 0.748604 0.943564
O O7 0.607265 0.778503 0.842631
O O8 0.614896 0.000000 0.918898
O O9 0.567351 0.249314 0.500000
O O10 0.500000 0.162095 0.435754
O O11 0.568458 0.241622 0.378323
O O12 0.571895 0.000000 0.442069
O O13 0.049763 0.500000 0.681445
O O14 0.079450 0.738618 0.736174
O O15 0.000000 0.739236 0.695395
O O16 0.703731 0.500000 0.064486
O O17 0.750000 0.750000 0.063392
O O18 0.000000 0.783793 0.000000
O O19 0.939659 0.000000 0.000000
O O20 0.124038 0.500000 0.772227
#
# Coordination Sequence:
#
# PCOD8271009 Si02
#       7
#    16  16  16  16  16   8  16
#     4   9  16  26  42  63  88 117 147 178 213 257
#     4  10  20  34  52  72  92 115 146 183 223 267
#     4   7   9  14  26  46  75 112 149 180 210 245
#     4   8  13  21  34  55  85 119 151 181 213 250
#     4   9  16  28  48  73  99 123 145 171 210 261
#     4  11  25  43  58  69  84 111 149 191 231 267
#     4   9  17  28  44  67  93 118 144 177 218 262
#
# _framework density 16.647334000000001
#
# number of rings (size 3 to 8) (size 9 to 14) (size 15 to 20)
#    0.000    3.154    0.000    3.000    0.000    5.538 
#    0.000    1.923    0.000    0.462    0.000    0.000 
#    0.000    1.231    0.000    4.923    0.000    4.615 
#
# Total GULP energy -644231.124176 kJ/mol
# GULP energy per Si atom -12389.060080 kJ/mol
# Density = 1.660944 g / cm^3
# Si number density = 16.647334 Si / 1000 Ang^3
#
#
#
# Elastic Constant Matrix: (Units=GPa)
#
#
# Indices 1 2 3 4 5 6 
#
# 1 128.1726 45.9269 63.8703 0.0000 0.0000 0.0000
# 2 45.9269 64.3713 29.6906 0.0000 0.0000 0.0000
# 3 63.8703 29.6906 101.6974 0.0000 0.0000 0.0000
# 4 0.0000 0.0000 0.0000 4.8028 0.0000 0.0000
# 5 0.0000 0.0000 0.0000 0.0000 -1.2911 0.0000
# 6 0.0000 0.0000 0.0000 0.0000 0.0000 23.6393
#
#
#
# Elastic Compliance Matrix: (Units=1/GPa)
#
#
# Indices 1 2 3 4 5 6 
#
# 1 0.013387 -0.006556 -0.006494 0.000000 0.000000 0.000000
# 2 -0.006556 0.021163 -0.002061 0.000000 0.000000 0.000000
# 3 -0.006494 -0.002061 0.014513 0.000000 0.000000 0.000000
# 4 0.000000 0.000000 0.000000 0.208211 0.000000 0.000000
# 5 0.000000 0.000000 0.000000 0.000000 -0.774544 0.000000
# 6 0.000000 0.000000 0.000000 0.000000 0.000000 0.042302
#
#
# Mechanical properties :
#
#
# Convention : Reuss Voigt Hill
#
# Bulk Modulus (GPa) = 53.07374 63.69076 58.38225
# Shear Modulus (GPa) = -11.40343 15.74711 2.17184
#
# Velocity S-wave (km/s) = -2.62009 3.07892 1.14344
# Velocity P-wave (km/s) = 4.77465 7.14014 6.07367
#
# Compressibility (1/GPa) = 0.01884171
#
# Stress axis : x y z
#
# Youngs Moduli (GPa) = 74.69930 47.25205 68.90353
#
# Poissons Ratio (x) = 0.30979 0.44743
# Poissons Ratio (y) = 0.48974 0.14201
# Poissons Ratio (z) = 0.48506 0.09739
#
# Static dielectric constant tensor:
#      x y z
#    x 3.118170 0.000000 0.000000 
#    y 0.000000 2.960860 0.000000 
#    z 0.000000 0.000000 3.318910 
# 
# 
# High freq. dielectric constant tensor:
#      x y z
#    x 1.622800 0.000000 0.000000 
#    y 0.000000 1.618510 0.000000 
#    z 0.000000 0.000000 1.625420 
# 
# From -- ./inp_files/72163.got.cif
#   From: 2010.03.12/outbox.cif.g09.slc.cpg/sg65_37_cif.got.tgz:72163.got - 2010.04.10 20:52:16.
