data_PCOD8271245
_publ_section_title
;
Structure prediction by ZEFSAII (Michael W. Deem and Ramdas Pophale) SiO2 
 PCOD8271245
Probable space group: C M M M
;
_chemical_formula_sum "Si O2"
_cell_formula_units_Z 96
_cell_length_a 8.403234
_cell_length_b 24.012072
_cell_length_c 25.334568
_cell_angle_alpha 90.000000
_cell_angle_beta 90.000000
_cell_angle_gamma 90.000000
_cell_volume 5111.985313
_symmetry_space_group_name_H-M "C M M M"
_symmetry_group_IT_number 65
_symmetry_cell_setting 'orthorhombic'
loop_
_space_group_symop_operation_xyz
x,y,z
-x,-y,z
x,-y,-z
-x,y,-z
-x,-y,-z
x,y,-z
-x,y,z
x,-y,z
1/2+x,1/2+y,z
1/2-x,1/2-y,z
1/2+x,1/2-y,-z
1/2-x,1/2+y,-z
1/2-x,1/2-y,-z
1/2+x,1/2+y,-z
1/2-x,1/2+y,z
1/2+x,1/2-y,z
loop_
_atom_site_type_symbol
_atom_site_label
_atom_site_fract_x
_atom_site_fract_y
_atom_site_fract_z
Si Si1 0.690448 0.620565 0.843044
Si Si2 0.186751 0.435905 0.440291
Si Si3 0.818762 0.000000 0.175519
Si Si4 0.687596 0.812055 0.742835
Si Si5 0.315767 0.394620 0.660882
Si Si6 0.311928 0.690080 0.058472
Si Si7 0.319462 0.000000 0.285373
O O1 0.500000 0.622782 0.836268
O O2 0.757540 0.557257 0.846189
O O3 0.767150 0.651285 0.793453
O O4 0.750183 0.647195 0.897786
O O5 0.233541 0.419908 0.500000
O O6 0.235818 0.500000 0.428883
O O7 0.281988 0.393318 0.401983
O O8 0.000000 0.428301 0.431267
O O9 0.806070 0.000000 0.238316
O O10 0.000000 0.000000 0.157794
O O11 0.500000 0.811063 0.736108
O O12 0.750000 0.750000 0.751405
O O13 0.764603 0.837705 0.689814
O O14 0.500000 0.405981 0.672468
O O15 0.206938 0.444978 0.680865
O O16 0.500000 0.691466 0.057926
O O17 0.250000 0.750000 0.075690
O O18 0.247329 0.673634 0.000000
O O19 0.500000 0.000000 0.263907
#
# Coordination Sequence:
#
# PCOD8271245 Si02
#       7
#    16  16   8  16  16  16   8
#     4  10  20  35  55  80 111 145 182 227 277 331
#     4   9  18  33  54  81 114 150 187 228 274 324
#     4  10  20  34  53  77 111 148 183 222 272 332
#     4  12  25  40  58  81 110 144 184 230 279 334
#     4  12  23  36  56  83 115 149 185 229 277 331
#     4   9  18  33  53  77 105 140 184 232 280 329
#     4  12  22  34  53  80 111 149 189 225 272 331
#
# _framework density 18.779395999999998
#
# number of rings (size 3 to 8) (size 9 to 14) (size 15 to 20)
#    0.000    1.500    2.500    4.750    0.000    2.333 
#    0.000    1.250    0.000    3.000    0.000    0.000 
#    0.000    4.667    0.000    0.000    0.000    0.000 
#
# Total GULP energy -595126.290437 kJ/mol
# GULP energy per Si atom -12398.464384 kJ/mol
# Density = 1.873665 g / cm^3
# Si number density = 18.779396 Si / 1000 Ang^3
#
#
#
# Elastic Constant Matrix: (Units=GPa)
#
#
# Indices 1 2 3 4 5 6 
#
# 1 63.7619 26.0328 27.6149 0.0000 0.0000 0.0000
# 2 26.0328 136.7635 72.7680 0.0000 0.0000 0.0000
# 3 27.6149 72.7680 135.9363 0.0000 0.0000 0.0000
# 4 0.0000 0.0000 0.0000 25.8880 0.0000 0.0000
# 5 0.0000 0.0000 0.0000 0.0000 25.3370 0.0000
# 6 0.0000 0.0000 0.0000 0.0000 0.0000 19.9610
#
#
#
# Elastic Compliance Matrix: (Units=1/GPa)
#
#
# Indices 1 2 3 4 5 6 
#
# 1 0.017588 -0.002023 -0.002490 0.000000 0.000000 0.000000
# 2 -0.002023 0.010457 -0.005187 0.000000 0.000000 0.000000
# 3 -0.002490 -0.005187 0.010639 0.000000 0.000000 0.000000
# 4 0.000000 0.000000 0.000000 0.038628 0.000000 0.000000
# 5 0.000000 0.000000 0.000000 0.000000 0.039468 0.000000
# 6 0.000000 0.000000 0.000000 0.000000 0.000000 0.050098
#
#
# Mechanical properties :
#
#
# Convention : Reuss Voigt Hill
#
# Bulk Modulus (GPa) = 51.85664 65.47701 58.66683
# Shear Modulus (GPa) = 25.94664 28.24029 27.09347
#
# Velocity S-wave (km/s) = 3.72109 3.88208 3.80244
# Velocity P-wave (km/s) = 6.79232 7.41864 7.11238
#
# Compressibility (1/GPa) = 0.01928393
#
# Stress axis : x y z
#
# Youngs Moduli (GPa) = 56.85805 95.63357 93.99722
#
# Poissons Ratio (x) = 0.19346 0.23405
# Poissons Ratio (y) = 0.11502 0.48752
# Poissons Ratio (z) = 0.14157 0.49601
#
# Static dielectric constant tensor:
#      x y z
#    x 3.363750 0.000000 0.000000 
#    y 0.000000 3.565460 0.000000 
#    z 0.000000 0.000000 3.725810 
# 
# 
# High freq. dielectric constant tensor:
#      x y z
#    x 1.724990 0.000000 0.000000 
#    y 0.000000 1.713480 0.000000 
#    z 0.000000 0.000000 1.733520 
# 
# From -- ./inp_files/67896.got.cif
#   From: 2010.03.12/outbox.cif.g09.slc.cpg/sg65_34_cif.got.tgz:67896.got - 2010.04.10 20:52:16.
