data_PCOD8271892
_publ_section_title
;
Structure prediction by ZEFSAII (Michael W. Deem and Ramdas Pophale) SiO2 
 PCOD8271892
Probable space group: C M M M
;
_chemical_formula_sum "Si O2"
_cell_formula_units_Z 72
_cell_length_a 16.177883
_cell_length_b 16.745377
_cell_length_c 14.131102
_cell_angle_alpha 90.000000
_cell_angle_beta 90.000000
_cell_angle_gamma 90.000000
_cell_volume 3828.182653
_symmetry_space_group_name_H-M "C M M M"
_symmetry_group_IT_number 65
_symmetry_cell_setting 'orthorhombic'
loop_
_space_group_symop_operation_xyz
x,y,z
-x,-y,z
x,-y,-z
-x,y,-z
-x,-y,-z
x,y,-z
-x,y,z
x,-y,z
1/2+x,1/2+y,z
1/2-x,1/2-y,z
1/2+x,1/2-y,-z
1/2-x,1/2+y,-z
1/2-x,1/2-y,-z
1/2+x,1/2+y,-z
1/2-x,1/2+y,z
1/2+x,1/2-y,z
loop_
_atom_site_type_symbol
_atom_site_label
_atom_site_fract_x
_atom_site_fract_y
_atom_site_fract_z
Si Si1 0.000000 0.406710 0.893494
Si Si2 0.906487 0.739307 0.608867
Si Si3 0.796252 0.173261 0.248136
Si Si4 0.904555 0.910883 0.104557
Si Si5 0.369752 0.092310 0.263727
O O1 0.082532 0.383221 0.833622
O O2 0.000000 0.500000 0.909555
O O3 0.000000 0.366818 0.000000
O O4 0.881334 0.731198 0.500000
O O5 0.842581 0.802886 0.654355
O O6 0.900857 0.651123 0.654151
O O7 0.000000 0.771632 0.620357
O O8 0.750000 0.250000 0.207023
O O9 0.865218 0.152743 0.173022
O O10 0.729681 0.101922 0.256711
O O11 0.000000 0.890026 0.099131
O O12 0.890374 0.000000 0.144309
O O13 0.865342 0.903702 0.000000
O O14 0.389562 0.000000 0.289782
#
# Coordination Sequence:
#
# PCOD8271892 Si02
#       5
#     8  16  16  16  16
#     4   9  18  34  55  79 111 147 181 222 274 329
#     4  10  21  38  59  80 107 146 186 227 279 333
#     4  10  21  34  54  79 113 144 179 220 275 332
#     4   9  18  34  56  79 104 138 180 224 268 314
#     4  10  20  35  56  83 110 141 185 231 278 328
#
# _framework density 18.807879
#
# number of rings (size 3 to 8) (size 9 to 14) (size 15 to 20)
#    0.000    2.333    1.111    2.000    0.000    5.778 
#    0.000    6.667    0.000    2.000    0.000    7.778 
#    0.000    0.000    0.000    0.000    0.000    0.000 
#
# Total GULP energy -446167.559599 kJ/mol
# GULP energy per Si atom -12393.543322 kJ/mol
# Density = 1.876507 g / cm^3
# Si number density = 18.807879 Si / 1000 Ang^3
#
#
#
# Elastic Constant Matrix: (Units=GPa)
#
#
# Indices 1 2 3 4 5 6 
#
# 1 92.3322 46.2412 69.9293 0.0000 0.0000 0.0000
# 2 46.2412 55.6389 53.5037 0.0000 0.0000 0.0000
# 3 69.9293 53.5037 149.6706 0.0000 0.0000 0.0000
# 4 0.0000 0.0000 0.0000 -46.2231 0.0000 0.0000
# 5 0.0000 0.0000 0.0000 0.0000 -20.5931 0.0000
# 6 0.0000 0.0000 0.0000 0.0000 0.0000 30.7260
#
#
#
# Elastic Compliance Matrix: (Units=1/GPa)
#
#
# Indices 1 2 3 4 5 6 
#
# 1 0.021141 -0.012300 -0.005481 0.000000 0.000000 0.000000
# 2 -0.012300 0.034544 -0.006602 0.000000 0.000000 0.000000
# 3 -0.005481 -0.006602 0.011602 0.000000 0.000000 0.000000
# 4 0.000000 0.000000 0.000000 -0.021634 0.000000 0.000000
# 5 0.000000 0.000000 0.000000 0.000000 -0.048560 0.000000
# 6 0.000000 0.000000 0.000000 0.000000 0.000000 0.032546
#
#
# Mechanical properties :
#
#
# Convention : Reuss Voigt Hill
#
# Bulk Modulus (GPa) = 53.98924 70.77666 62.38295
# Shear Modulus (GPa) = 59.11685 1.31314 30.21500
#
# Velocity S-wave (km/s) = 5.61250 0.83648 4.01247
# Velocity P-wave (km/s) = 8.41239 6.21659 7.39643
#
# Compressibility (1/GPa) = 0.01852221
#
# Stress axis : x y z
#
# Youngs Moduli (GPa) = 47.30052 28.94859 86.19180
#
# Poissons Ratio (x) = 0.35607 0.47239
# Poissons Ratio (y) = 0.58180 0.56902
# Poissons Ratio (z) = 0.25924 0.19111
#
# Static dielectric constant tensor:
#      x y z
#    x 3.724450 0.000000 0.000000 
#    y 0.000000 3.284000 0.000000 
#    z 0.000000 0.000000 3.483050 
# 
# 
# High freq. dielectric constant tensor:
#      x y z
#    x 1.745200 0.000000 0.000000 
#    y 0.000000 1.715310 0.000000 
#    z 0.000000 0.000000 1.720600 
# 
# From -- ./inp_files/26330.got.cif
#   From: 2010.03.12/outbox.cif.g09.slc.cpg/sg65_14_cif.got.tgz:26330.got - 2010.04.10 20:52:16.
