data_PCOD8271599
_publ_section_title
;
Structure prediction by ZEFSAII (Michael W. Deem and Ramdas Pophale) SiO2 
 PCOD8271599
Probable space group: C M M M
;
_chemical_formula_sum "Si O2"
_cell_formula_units_Z 88
_cell_length_a 28.038791
_cell_length_b 9.226711
_cell_length_c 20.788099
_cell_angle_alpha 90.000000
_cell_angle_beta 90.000000
_cell_angle_gamma 90.000000
_cell_volume 5378.002226
_symmetry_space_group_name_H-M "C M M M"
_symmetry_group_IT_number 65
_symmetry_cell_setting 'orthorhombic'
loop_
_space_group_symop_operation_xyz
x,y,z
-x,-y,z
x,-y,-z
-x,y,-z
-x,-y,-z
x,y,-z
-x,y,z
x,-y,z
1/2+x,1/2+y,z
1/2-x,1/2-y,z
1/2+x,1/2-y,-z
1/2-x,1/2+y,-z
1/2-x,1/2-y,-z
1/2+x,1/2+y,-z
1/2-x,1/2+y,z
1/2+x,1/2-y,z
loop_
_atom_site_type_symbol
_atom_site_label
_atom_site_fract_x
_atom_site_fract_y
_atom_site_fract_z
Si Si1 0.202782 0.662250 0.000000
Si Si2 0.554325 0.330367 0.692457
Si Si3 0.699420 0.830061 0.139852
Si Si4 0.388706 0.328415 0.181534
Si Si5 0.943328 0.663819 0.429705
Si Si6 0.443698 0.164815 0.926731
O O1 0.250000 0.750000 0.000000
O O2 0.175852 0.691260 0.067696
O O3 0.221595 0.500000 0.000000
O O4 0.500000 0.278247 0.702951
O O5 0.556962 0.500000 0.681999
O O6 0.583561 0.280960 0.754531
O O7 0.577449 0.259589 0.628501
O O8 0.750000 0.750000 0.145865
O O9 0.662214 0.752043 0.186817
O O10 0.705327 0.000000 0.156959
O O11 0.380958 0.500000 0.177165
O O12 0.418482 0.278106 0.119903
O O13 0.925054 0.719083 0.500000
O O14 0.926067 0.500000 0.418827
O O15 0.000000 0.673202 0.428969
O O16 0.500000 0.186484 0.920555
O O17 0.429475 0.000000 0.907817
O O18 0.427258 0.195581 0.000000
#
# Coordination Sequence:
#
# PCOD8271599 Si02
#       6
#     8  16  16  16  16  16
#     4   8  16  30  48  66  83 104 133 176 228 281
#     4   9  18  31  45  64  94 129 162 194 226 266
#     4  10  20  35  52  70  91 117 149 191 241 292
#     4  11  22  33  47  69  95 124 157 194 236 283
#     4   8  14  25  42  65  92 121 154 191 228 267
#     4   9  19  35  51  66  87 118 158 201 240 279
#
# _framework density 16.362953999999998
#
# number of rings (size 3 to 8) (size 9 to 14) (size 15 to 20)
#    0.000    2.727    0.000    2.727    1.273    4.000 
#    0.000    4.545    0.000    0.000    0.000    0.000 
#    0.000    0.727    0.000    2.364    0.000    3.455 
#
# Total GULP energy -545277.840061 kJ/mol
# GULP energy per Si atom -12392.678183 kJ/mol
# Density = 1.632571 g / cm^3
# Si number density = 16.362954 Si / 1000 Ang^3
#
#
#
# Elastic Constant Matrix: (Units=GPa)
#
#
# Indices 1 2 3 4 5 6 
#
# 1 55.1420 38.6784 52.0648 0.0000 0.0000 0.0000
# 2 38.6784 76.0323 56.9614 0.0000 0.0000 0.0000
# 3 52.0648 56.9614 123.4251 0.0000 0.0000 0.0000
# 4 0.0000 0.0000 0.0000 29.7293 0.0000 0.0000
# 5 0.0000 0.0000 0.0000 0.0000 9.0544 0.0000
# 6 0.0000 0.0000 0.0000 0.0000 0.0000 25.1619
#
#
#
# Elastic Compliance Matrix: (Units=1/GPa)
#
#
# Indices 1 2 3 4 5 6 
#
# 1 0.034644 -0.010203 -0.009905 0.000000 0.000000 0.000000
# 2 -0.010203 0.023108 -0.006360 0.000000 0.000000 0.000000
# 3 -0.009905 -0.006360 0.015216 0.000000 0.000000 0.000000
# 4 0.000000 0.000000 0.000000 0.033637 0.000000 0.000000
# 5 0.000000 0.000000 0.000000 0.000000 0.110443 0.000000
# 6 0.000000 0.000000 0.000000 0.000000 0.000000 0.039743
#
#
# Mechanical properties :
#
#
# Convention : Reuss Voigt Hill
#
# Bulk Modulus (GPa) = 49.92430 61.11206 55.51818
# Shear Modulus (GPa) = 15.80252 19.91543 17.85898
#
# Velocity S-wave (km/s) = 3.11102 3.49249 3.30726
# Velocity P-wave (km/s) = 6.59404 7.32750 6.97042
#
# Compressibility (1/GPa) = 0.02003032
#
# Stress axis : x y z
#
# Youngs Moduli (GPa) = 28.86472 43.27557 65.72097
#
# Poissons Ratio (x) = 0.44154 0.65099
# Poissons Ratio (y) = 0.29451 0.41801
# Poissons Ratio (z) = 0.28592 0.27525
#
# Static dielectric constant tensor:
#      x y z
#    x 2.798030 0.000000 0.000000 
#    y 0.000000 3.121780 0.000000 
#    z 0.000000 0.000000 3.580480 
# 
# 
# High freq. dielectric constant tensor:
#      x y z
#    x 1.596780 0.000000 0.000000 
#    y 0.000000 1.635320 0.000000 
#    z 0.000000 0.000000 1.621720 
# 
# From -- ./inp_files/57990.got.cif
#   From: 2010.03.12/outbox.cif.g09.slc.cpg/sg65_29_cif.got.tgz:57990.got - 2010.04.10 20:52:16.
