data_PCOD8271132
_publ_section_title
;
Structure prediction by ZEFSAII (Michael W. Deem and Ramdas Pophale) SiO2 
 PCOD8271132
Probable space group: C M M M
;
_chemical_formula_sum "Si O2"
_cell_formula_units_Z 72
_cell_length_a 26.933685
_cell_length_b 11.634968
_cell_length_c 12.628350
_cell_angle_alpha 90.000000
_cell_angle_beta 90.000000
_cell_angle_gamma 90.000000
_cell_volume 3957.378407
_symmetry_space_group_name_H-M "C M M M"
_symmetry_group_IT_number 65
_symmetry_cell_setting 'orthorhombic'
loop_
_space_group_symop_operation_xyz
x,y,z
-x,-y,z
x,-y,-z
-x,y,-z
-x,-y,-z
x,y,-z
-x,y,z
x,-y,z
1/2+x,1/2+y,z
1/2-x,1/2-y,z
1/2+x,1/2-y,-z
1/2-x,1/2+y,-z
1/2-x,1/2-y,-z
1/2+x,1/2+y,-z
1/2-x,1/2+y,z
1/2+x,1/2-y,z
loop_
_atom_site_type_symbol
_atom_site_label
_atom_site_fract_x
_atom_site_fract_y
_atom_site_fract_z
Si Si1 0.250000 0.750000 0.218888
Si Si2 0.000000 0.136439 0.375320
Si Si3 0.155620 0.365560 0.877206
Si Si4 0.446160 0.000000 0.621428
Si Si5 0.185200 0.129082 0.617687
Si Si6 0.595189 0.233015 0.303622
O O1 0.210070 0.685521 0.146072
O O2 0.226478 0.846130 0.294703
O O3 0.952831 0.185934 0.312137
O O4 0.000000 0.174323 0.500000
O O5 0.000000 0.000000 0.366065
O O6 0.153595 0.500000 0.844076
O O7 0.113979 0.289486 0.816487
O O8 0.143620 0.350797 0.000000
O O9 0.414335 0.890192 0.648213
O O10 0.500000 0.000000 0.681274
O O11 0.458259 0.000000 0.500000
O O12 0.208101 0.144116 0.500000
O O13 0.138514 0.212299 0.627216
O O14 0.165811 0.000000 0.635174
#
# Coordination Sequence:
#
# PCOD8271132 Si02
#       6
#     8   8  16   8  16  16
#     4  10  20  34  58  80 106 140 188 234 282 324
#     4  11  22  37  60  87 116 151 183 216 266 330
#     4  10  21  38  57  79 107 142 188 237 282 325
#     4  11  20  32  53  81 115 145 176 220 268 321
#     4  10  20  34  52  78 114 149 180 219 273 337
#     4  11  21  35  55  81 112 147 185 223 271 324
#
# _framework density 18.193863
#
# number of rings (size 3 to 8) (size 9 to 14) (size 15 to 20)
#    0.000    1.556    2.222    4.000    0.000    1.778 
#    0.000    0.556    0.000   16.000    0.000    0.000 
#    0.000    0.000    0.000    0.000    0.000    0.000 
#
# Total GULP energy -446322.098574 kJ/mol
# GULP energy per Si atom -12397.836072 kJ/mol
# Density = 1.815245 g / cm^3
# Si number density = 18.193863 Si / 1000 Ang^3
#
#
#
# Elastic Constant Matrix: (Units=GPa)
#
#
# Indices 1 2 3 4 5 6 
#
# 1 103.2424 45.7134 45.6314 0.0000 0.0000 0.0000
# 2 45.7134 122.8667 46.1443 0.0000 0.0000 0.0000
# 3 45.6314 46.1443 99.2546 0.0000 0.0000 0.0000
# 4 0.0000 0.0000 0.0000 -2.2771 0.0000 0.0000
# 5 0.0000 0.0000 0.0000 0.0000 17.9357 0.0000
# 6 0.0000 0.0000 0.0000 0.0000 0.0000 43.0075
#
#
#
# Elastic Compliance Matrix: (Units=1/GPa)
#
#
# Indices 1 2 3 4 5 6 
#
# 1 0.013098 -0.003164 -0.004551 0.000000 0.000000 0.000000
# 2 -0.003164 0.010625 -0.003485 0.000000 0.000000 0.000000
# 3 -0.004551 -0.003485 0.013787 0.000000 0.000000 0.000000
# 4 0.000000 0.000000 0.000000 -0.439148 0.000000 0.000000
# 5 0.000000 0.000000 0.000000 0.000000 0.055755 0.000000
# 6 0.000000 0.000000 0.000000 0.000000 0.000000 0.023252
#
#
# Mechanical properties :
#
#
# Convention : Reuss Voigt Hill
#
# Bulk Modulus (GPa) = 66.17720 66.70465 66.44093
# Shear Modulus (GPa) = -16.93802 24.25819 3.66008
#
# Velocity S-wave (km/s) = -3.05450 3.65542 1.41989
# Velocity P-wave (km/s) = 4.90024 7.38641 6.26783
#
# Compressibility (1/GPa) = 0.01511094
#
# Stress axis : x y z
#
# Youngs Moduli (GPa) = 76.34544 94.11779 72.52979
#
# Poissons Ratio (x) = 0.29781 0.33007
# Poissons Ratio (y) = 0.24157 0.25276
# Poissons Ratio (z) = 0.34743 0.32799
#
# Static dielectric constant tensor:
#      x y z
#    x 3.489530 0.000000 0.000000 
#    y 0.000000 3.502900 0.000000 
#    z 0.000000 0.000000 3.277760 
# 
# 
# High freq. dielectric constant tensor:
#      x y z
#    x 1.708540 0.000000 0.000000 
#    y 0.000000 1.720380 0.000000 
#    z 0.000000 0.000000 1.692550 
# 
# From -- ./inp_files/32005.got.cif
#   From: 2010.03.12/outbox.cif.g09.slc.cpg/sg65_17_cif.got.tgz:32005.got - 2010.04.10 20:52:16.
