data_PCOD8271708
_publ_section_title
;
Structure prediction by ZEFSAII (Michael W. Deem and Ramdas Pophale) SiO2 
 PCOD8271708
Probable space group: C M M M
;
_chemical_formula_sum "Si O2"
_cell_formula_units_Z 96
_cell_length_a 19.353432
_cell_length_b 8.798553
_cell_length_c 31.095045
_cell_angle_alpha 90.000000
_cell_angle_beta 90.000000
_cell_angle_gamma 90.000000
_cell_volume 5294.932584
_symmetry_space_group_name_H-M "C M M M"
_symmetry_group_IT_number 65
_symmetry_cell_setting 'orthorhombic'
loop_
_space_group_symop_operation_xyz
x,y,z
-x,-y,z
x,-y,-z
-x,y,-z
-x,-y,-z
x,y,-z
-x,y,z
x,-y,z
1/2+x,1/2+y,z
1/2-x,1/2-y,z
1/2+x,1/2-y,-z
1/2-x,1/2+y,-z
1/2-x,1/2-y,-z
1/2+x,1/2+y,-z
1/2-x,1/2+y,z
1/2+x,1/2-y,z
loop_
_atom_site_type_symbol
_atom_site_label
_atom_site_fract_x
_atom_site_fract_y
_atom_site_fract_z
Si Si1 0.321902 0.179402 0.048219
Si Si2 0.675093 0.822064 0.546568
Si Si3 0.082006 0.170714 0.790602
Si Si4 0.080991 0.323371 0.296649
Si Si5 0.825950 0.179507 0.631539
Si Si6 0.579083 0.178674 0.877000
O O1 0.250000 0.250000 0.063310
O O2 0.380468 0.236385 0.080955
O O3 0.314538 0.000000 0.049714
O O4 0.341536 0.234217 0.000000
O O5 0.637404 0.795442 0.500000
O O6 0.750000 0.750000 0.543368
O O7 0.638384 0.740505 0.587061
O O8 0.681159 0.000000 0.556516
O O9 0.106429 0.272830 0.750576
O O10 0.111105 0.240972 0.834851
O O11 0.000000 0.172149 0.792878
O O12 0.110619 0.000000 0.784934
O O13 0.097708 0.500000 0.302838
O O14 0.123379 0.225321 0.330443
O O15 0.000000 0.288909 0.303042
O O16 0.750000 0.250000 0.638445
O O17 0.818729 0.000000 0.629736
O O18 0.500000 0.226001 0.884292
O O19 0.586776 0.000000 0.869951
#
# Coordination Sequence:
#
# PCOD8271708 Si02
#       6
#    16  16  16  16  16  16
#     4   9  18  32  49  69  95 128 162 195 234 283
#     4   9  16  27  45  69  97 129 166 206 248 295
#     4   9  17  30  49  73  99 126 159 199 243 291
#     4  10  20  35  55  76 100 132 169 206 247 299
#     4  11  21  33  51  75 105 135 166 207 252 297
#     4   9  17  30  49  72  96 122 156 199 243 284
#
# _framework density 18.130541999999998
#
# number of rings (size 3 to 8) (size 9 to 14) (size 15 to 20)
#    0.000    2.500    0.000    4.000    0.000    5.000 
#    0.000    2.500    0.000    2.500    0.000    8.167 
#    0.000    0.000    0.000    0.000    0.000    0.000 
#
# Total GULP energy -594985.114632 kJ/mol
# GULP energy per Si atom -12395.523221 kJ/mol
# Density = 1.808928 g / cm^3
# Si number density = 18.130542 Si / 1000 Ang^3
#
#
#
# Elastic Constant Matrix: (Units=GPa)
#
#
# Indices 1 2 3 4 5 6 
#
# 1 49.8194 31.7457 55.7804 0.0000 0.0000 0.0000
# 2 31.7457 100.7945 57.1360 0.0000 0.0000 0.0000
# 3 55.7804 57.1360 161.1664 0.0000 0.0000 0.0000
# 4 0.0000 0.0000 0.0000 31.5806 0.0000 0.0000
# 5 0.0000 0.0000 0.0000 0.0000 26.6057 0.0000
# 6 0.0000 0.0000 0.0000 0.0000 0.0000 22.3565
#
#
#
# Elastic Compliance Matrix: (Units=1/GPa)
#
#
# Indices 1 2 3 4 5 6 
#
# 1 0.034802 -0.005173 -0.010211 0.000000 0.000000 0.000000
# 2 -0.005173 0.013185 -0.002884 0.000000 0.000000 0.000000
# 3 -0.010211 -0.002884 0.010761 0.000000 0.000000 0.000000
# 4 0.000000 0.000000 0.000000 0.031665 0.000000 0.000000
# 5 0.000000 0.000000 0.000000 0.000000 0.037586 0.000000
# 6 0.000000 0.000000 0.000000 0.000000 0.000000 0.044730
#
#
# Mechanical properties :
#
#
# Convention : Reuss Voigt Hill
#
# Bulk Modulus (GPa) = 45.02010 66.78937 55.90474
# Shear Modulus (GPa) = 23.07670 27.24977 25.16324
#
# Velocity S-wave (km/s) = 3.57151 3.88103 3.72948
# Velocity P-wave (km/s) = 6.47245 7.54991 7.03185
#
# Compressibility (1/GPa) = 0.02221230
#
# Stress axis : x y z
#
# Youngs Moduli (GPa) = 28.73431 75.84276 92.92501
#
# Poissons Ratio (x) = 0.39231 0.94888
# Poissons Ratio (y) = 0.14863 0.26800
# Poissons Ratio (z) = 0.29341 0.21874
#
# Static dielectric constant tensor:
#      x y z
#    x 2.910560 0.000000 0.000000 
#    y 0.000000 3.458830 0.000000 
#    z 0.000000 0.000000 3.978370 
# 
# 
# High freq. dielectric constant tensor:
#      x y z
#    x 1.651400 0.000000 0.000000 
#    y 0.000000 1.711420 0.000000 
#    z 0.000000 0.000000 1.724780 
# 
# From -- ./inp_files/75704.got.cif
#   From: 2010.03.12/outbox.cif.g09.slc.cpg/sg65_38_cif.got.tgz:75704.got - 2010.04.10 20:52:16.
