data_PCOD8271370
_publ_section_title
;
Structure prediction by ZEFSAII (Michael W. Deem and Ramdas Pophale) SiO2 
 PCOD8271370
Probable space group: C M M M
;
_chemical_formula_sum "Si O2"
_cell_formula_units_Z 104
_cell_length_a 8.917068
_cell_length_b 27.815577
_cell_length_c 21.578969
_cell_angle_alpha 90.000000
_cell_angle_beta 90.000000
_cell_angle_gamma 90.000000
_cell_volume 5352.304868
_symmetry_space_group_name_H-M "C M M M"
_symmetry_group_IT_number 65
_symmetry_cell_setting 'orthorhombic'
loop_
_space_group_symop_operation_xyz
x,y,z
-x,-y,z
x,-y,-z
-x,y,-z
-x,-y,-z
x,y,-z
-x,y,z
x,-y,z
1/2+x,1/2+y,z
1/2-x,1/2-y,z
1/2+x,1/2-y,-z
1/2-x,1/2+y,-z
1/2-x,1/2-y,-z
1/2+x,1/2+y,-z
1/2-x,1/2+y,z
1/2+x,1/2-y,z
loop_
_atom_site_type_symbol
_atom_site_label
_atom_site_fract_x
_atom_site_fract_y
_atom_site_fract_z
Si Si1 0.326473 0.300003 0.428622
Si Si2 0.674587 0.300527 0.816391
Si Si3 0.325618 0.363217 0.070171
Si Si4 0.325818 0.055235 0.860539
Si Si5 0.178403 0.446293 0.500000
Si Si6 0.676586 0.603779 0.747088
Si Si7 0.177981 0.390391 0.379411
O O1 0.303952 0.314793 0.500000
O O2 0.500000 0.297463 0.410306
O O3 0.250000 0.250000 0.414138
O O4 0.242143 0.337073 0.384946
O O5 0.500000 0.290371 0.815585
O O6 0.750000 0.250000 0.800044
O O7 0.725453 0.320132 0.884127
O O8 0.718112 0.341271 0.765957
O O9 0.500000 0.375245 0.082225
O O10 0.231909 0.411543 0.083277
O O11 0.295477 0.346370 0.000000
O O12 0.500000 0.065749 0.847981
O O13 0.232681 0.067067 0.798986
O O14 0.298530 0.000000 0.879262
O O15 0.242454 0.500000 0.500000
O O16 0.238594 0.420808 0.437900
O O17 0.000000 0.445646 0.500000
O O18 0.500000 0.597702 0.738739
O O19 0.758559 0.587879 0.684026
O O20 0.000000 0.389521 0.377428
#
# Coordination Sequence:
#
# PCOD8271370 Si02
#       7
#    16  16  16  16   8  16  16
#     4  10  20  34  54  79 109 142 179 222 271 328
#     4   9  19  35  55  79 110 147 186 229 271 319
#     4   9  19  36  56  81 115 152 188 226 273 332
#     4  10  21  37  57  82 111 143 184 235 287 335
#     4   9  20  38  58  81 110 143 178 221 276 337
#     4  10  22  39  57  80 111 146 188 232 278 334
#     4  11  21  36  59  84 112 145 184 229 283 340
#
# _framework density 19.430880999999999
#
# number of rings (size 3 to 8) (size 9 to 14) (size 15 to 20)
#    0.000    2.231    0.769    2.769    0.000    7.077 
#    0.000    4.615    0.000    3.231    0.000    0.000 
#    0.000    0.000    0.000    0.000    0.000    0.000 
#
# Total GULP energy -644864.812157 kJ/mol
# GULP energy per Si atom -12401.246388 kJ/mol
# Density = 1.938666 g / cm^3
# Si number density = 19.430881 Si / 1000 Ang^3
#
#
#
# Elastic Constant Matrix: (Units=GPa)
#
#
# Indices 1 2 3 4 5 6 
#
# 1 71.7768 30.8468 24.6164 0.0000 0.0000 0.0000
# 2 30.8468 75.0685 17.2196 0.0000 0.0000 0.0000
# 3 24.6164 17.2196 98.9752 0.0000 0.0000 0.0000
# 4 0.0000 0.0000 0.0000 15.7855 0.0000 0.0000
# 5 0.0000 0.0000 0.0000 0.0000 32.3081 0.0000
# 6 0.0000 0.0000 0.0000 0.0000 0.0000 29.5821
#
#
#
# Elastic Compliance Matrix: (Units=1/GPa)
#
#
# Indices 1 2 3 4 5 6 
#
# 1 0.017901 -0.006598 -0.003304 0.000000 0.000000 0.000000
# 2 -0.006598 0.016307 -0.001196 0.000000 0.000000 0.000000
# 3 -0.003304 -0.001196 0.011133 0.000000 0.000000 0.000000
# 4 0.000000 0.000000 0.000000 0.063349 0.000000 0.000000
# 5 0.000000 0.000000 0.000000 0.000000 0.030952 0.000000
# 6 0.000000 0.000000 0.000000 0.000000 0.000000 0.033804
#
#
# Mechanical properties :
#
#
# Convention : Reuss Voigt Hill
#
# Bulk Modulus (GPa) = 43.20651 43.46512 43.33581
# Shear Modulus (GPa) = 24.58727 27.07766 25.83247
#
# Velocity S-wave (km/s) = 3.56106 3.73706 3.65012
# Velocity P-wave (km/s) = 6.26039 6.40613 6.33368
#
# Compressibility (1/GPa) = 0.02314466
#
# Stress axis : x y z
#
# Youngs Moduli (GPa) = 55.86359 61.32470 89.81940
#
# Poissons Ratio (x) = 0.40460 0.29679
# Poissons Ratio (y) = 0.36857 0.10743
# Poissons Ratio (z) = 0.18459 0.07335
#
# Static dielectric constant tensor:
#      x y z
#    x 3.492140 0.000000 0.000000 
#    y 0.000000 3.482660 0.000000 
#    z 0.000000 0.000000 3.607880 
# 
# 
# High freq. dielectric constant tensor:
#      x y z
#    x 1.754490 0.000000 0.000000 
#    y 0.000000 1.750150 0.000000 
#    z 0.000000 0.000000 1.758100 
# 
# From -- ./inp_files/60453.got.cif
#   From: 2010.03.12/outbox.cif.g09.slc.cpg/sg65_31_cif.got.tgz:60453.got - 2010.04.10 20:52:16.
