data_PCOD8271069
_publ_section_title
;
Structure prediction by ZEFSAII (Michael W. Deem and Ramdas Pophale) SiO2 
 PCOD8271069
Probable space group: C M M M
;
_chemical_formula_sum "Si O2"
_cell_formula_units_Z 104
_cell_length_a 23.854103
_cell_length_b 8.670950
_cell_length_c 28.043996
_cell_angle_alpha 90.000000
_cell_angle_beta 90.000000
_cell_angle_gamma 90.000000
_cell_volume 5800.556596
_symmetry_space_group_name_H-M "C M M M"
_symmetry_group_IT_number 65
_symmetry_cell_setting 'orthorhombic'
loop_
_space_group_symop_operation_xyz
x,y,z
-x,-y,z
x,-y,-z
-x,y,-z
-x,-y,-z
x,y,-z
-x,y,z
x,-y,z
1/2+x,1/2+y,z
1/2-x,1/2-y,z
1/2+x,1/2-y,-z
1/2-x,1/2+y,-z
1/2-x,1/2-y,-z
1/2+x,1/2+y,-z
1/2-x,1/2+y,z
1/2+x,1/2-y,z
loop_
_atom_site_type_symbol
_atom_site_label
_atom_site_fract_x
_atom_site_fract_y
_atom_site_fract_z
Si Si1 0.310363 0.822699 0.273223
Si Si2 0.812150 0.679838 0.167294
Si Si3 0.688189 0.817019 0.000000
Si Si4 0.688461 0.318750 0.634035
Si Si5 0.000000 0.317220 0.055750
Si Si6 0.882984 0.817263 0.914722
Si Si7 0.000000 0.172495 0.556599
Si Si8 0.113843 0.318656 0.554584
O O1 0.250000 0.750000 0.267594
O O2 0.337566 0.802572 0.220951
O O3 0.342972 0.736699 0.316932
O O4 0.305143 0.000000 0.287895
O O5 0.808960 0.500000 0.152660
O O6 0.750000 0.750000 0.161127
O O7 0.857011 0.771756 0.135976
O O8 0.750000 0.750000 0.000000
O O9 0.655883 0.760507 0.953878
O O10 0.690921 0.000000 0.000000
O O11 0.689552 0.500000 0.631573
O O12 0.750000 0.250000 0.636467
O O13 0.661420 0.257270 0.585977
O O14 0.054122 0.246152 0.081300
O O15 0.000000 0.500000 0.062605
O O16 0.000000 0.272279 0.000000
O O17 0.883325 0.000000 0.921470
O O18 0.054379 0.262156 0.575071
O O19 0.000000 0.170246 0.500000
O O20 0.000000 0.000000 0.577682
O O21 0.122784 0.265077 0.500000
O O22 0.116972 0.500000 0.559181
#
# Coordination Sequence:
#
# PCOD8271069 Si02
#       8
#    16  16   8  16   8  16   8  16
#     4   9  17  31  52  76 104 138 176 217 261 315
#     4  10  20  35  56  83 113 143 177 219 269 320
#     4  12  24  39  56  79 112 146 178 216 264 314
#     4  11  21  33  51  75 106 141 177 218 265 320
#     4  11  23  41  63  82 106 145 188 228 263 311
#     4  12  24  38  58  83 111 143 180 222 264 314
#     4   9  17  31  51  74  99 128 167 213 259 307
#     4  10  20  34  52  74 102 137 177 220 265 316
#
# _framework density 17.929314000000002
#
# number of rings (size 3 to 8) (size 9 to 14) (size 15 to 20)
#    0.000    1.538    0.769    6.692    0.000    4.308 
#    0.000    0.000    0.000    0.923    0.000    1.077 
#    0.000    0.000    0.000    0.000    0.000    0.000 
#
# Total GULP energy -644668.078390 kJ/mol
# GULP energy per Si atom -12397.463046 kJ/mol
# Density = 1.788851 g / cm^3
# Si number density = 17.929314 Si / 1000 Ang^3
#
#
#
# Elastic Constant Matrix: (Units=GPa)
#
#
# Indices 1 2 3 4 5 6 
#
# 1 91.5832 32.8094 46.5161 0.0000 0.0000 0.0000
# 2 32.8094 116.9594 47.5630 0.0000 0.0000 0.0000
# 3 46.5161 47.5630 108.8444 0.0000 0.0000 0.0000
# 4 0.0000 0.0000 0.0000 30.0437 0.0000 0.0000
# 5 0.0000 0.0000 0.0000 0.0000 -14.0673 0.0000
# 6 0.0000 0.0000 0.0000 0.0000 0.0000 31.3319
#
#
#
# Elastic Compliance Matrix: (Units=1/GPa)
#
#
# Indices 1 2 3 4 5 6 
#
# 1 0.014269 -0.001852 -0.005289 0.000000 0.000000 0.000000
# 2 -0.001852 0.010638 -0.003857 0.000000 0.000000 0.000000
# 3 -0.005289 -0.003857 0.013133 0.000000 0.000000 0.000000
# 4 0.000000 0.000000 0.000000 0.033285 0.000000 0.000000
# 5 0.000000 0.000000 0.000000 0.000000 -0.071087 0.000000
# 6 0.000000 0.000000 0.000000 0.000000 0.000000 0.031916
#
#
# Mechanical properties :
#
#
# Convention : Reuss Voigt Hill
#
# Bulk Modulus (GPa) = 62.32745 63.46267 62.89506
# Shear Modulus (GPa) = 84.03705 22.16157 53.09931
#
# Velocity S-wave (km/s) = 6.85369 3.51957 5.44795
# Velocity P-wave (km/s) = 9.87264 7.21036 8.64461
#
# Compressibility (1/GPa) = 0.01604429
#
# Stress axis : x y z
#
# Youngs Moduli (GPa) = 70.08383 94.00217 76.14349
#
# Poissons Ratio (x) = 0.17409 0.40269
# Poissons Ratio (y) = 0.12979 0.29370
# Poissons Ratio (z) = 0.37065 0.36258
#
# Static dielectric constant tensor:
#      x y z
#    x 3.215180 0.000000 0.000000 
#    y 0.000000 3.572850 0.000000 
#    z 0.000000 0.000000 3.894700 
# 
# 
# High freq. dielectric constant tensor:
#      x y z
#    x 1.667140 0.000000 0.000000 
#    y 0.000000 1.718770 0.000000 
#    z 0.000000 0.000000 1.699210 
# 
# From -- ./inp_files/75818.got.cif
#   From: 2010.03.12/outbox.cif.g09.slc.cpg/sg65_38_cif.got.tgz:75818.got - 2010.04.10 20:52:16.
