data_PCOD8271254
_publ_section_title
;
Structure prediction by ZEFSAII (Michael W. Deem and Ramdas Pophale) SiO2 
 PCOD8271254
Probable space group: C M M M
;
_chemical_formula_sum "Si O2"
_cell_formula_units_Z 104
_cell_length_a 27.737153
_cell_length_b 8.746105
_cell_length_c 22.994974
_cell_angle_alpha 90.000000
_cell_angle_beta 90.000000
_cell_angle_gamma 90.000000
_cell_volume 5578.397941
_symmetry_space_group_name_H-M "C M M M"
_symmetry_group_IT_number 65
_symmetry_cell_setting 'orthorhombic'
loop_
_space_group_symop_operation_xyz
x,y,z
-x,-y,z
x,-y,-z
-x,y,-z
-x,-y,-z
x,y,-z
-x,y,z
x,-y,z
1/2+x,1/2+y,z
1/2-x,1/2-y,z
1/2+x,1/2-y,-z
1/2-x,1/2+y,-z
1/2-x,1/2-y,-z
1/2+x,1/2+y,-z
1/2-x,1/2+y,z
1/2+x,1/2-y,z
loop_
_atom_site_type_symbol
_atom_site_label
_atom_site_fract_x
_atom_site_fract_y
_atom_site_fract_z
Si Si1 0.803081 0.681557 0.823862
Si Si2 0.637991 0.171412 0.710535
Si Si3 0.056273 0.681455 0.000000
Si Si4 0.554197 0.828970 0.206052
Si Si5 0.868326 0.821791 0.589388
Si Si6 0.447011 0.680102 0.500000
Si Si7 0.698970 0.177983 0.500000
Si Si8 0.110699 0.178443 0.109167
O O1 0.801597 0.500000 0.830996
O O2 0.750000 0.750000 0.830740
O O3 0.824447 0.726397 0.760416
O O4 0.837342 0.748203 0.874799
O O5 0.583992 0.174120 0.734822
O O6 0.636308 0.287619 0.657344
O O7 0.651618 0.000000 0.689815
O O8 0.085833 0.742157 0.054679
O O9 0.057030 0.500000 0.000000
O O10 0.000000 0.738297 0.000000
O O11 0.500000 0.785955 0.222394
O O12 0.574120 0.702826 0.162196
O O13 0.558019 0.000000 0.177986
O O14 0.918586 0.769688 0.558805
O O15 0.826362 0.730004 0.558711
O O16 0.860228 0.000000 0.578771
O O17 0.453138 0.500000 0.500000
O O18 0.500000 0.758209 0.500000
O O19 0.750000 0.250000 0.500000
O O20 0.703664 0.000000 0.500000
O O21 0.118027 0.000000 0.096764
#
# Coordination Sequence:
#
# PCOD8271254 Si02
#       8
#    16  16   8  16  16   8   8  16
#     4  10  21  39  61  83 110 146 186 227 276 331
#     4   9  19  34  52  77 109 143 179 220 266 319
#     4  11  23  39  60  85 116 155 193 229 275 327
#     4   9  18  34  54  76 108 149 186 222 269 322
#     4  10  20  34  53  78 107 137 174 219 266 318
#     4   8  16  32  51  71 100 140 180 218 264 317
#     4  11  22  38  58  76  99 130 166 210 263 320
#     4  11  22  36  56  84 116 147 185 232 277 324
#
# _framework density 18.643345
#
# number of rings (size 3 to 8) (size 9 to 14) (size 15 to 20)
#    0.000    2.154    0.000    5.077    0.000    7.077 
#    0.000    1.923    0.000    7.846    0.000    0.000 
#    0.000    0.000    0.000    0.000    0.000    0.000 
#
# Total GULP energy -644611.746410 kJ/mol
# GULP energy per Si atom -12396.379739 kJ/mol
# Density = 1.860091 g / cm^3
# Si number density = 18.643345 Si / 1000 Ang^3
#
#
#
# Elastic Constant Matrix: (Units=GPa)
#
#
# Indices 1 2 3 4 5 6 
#
# 1 177.7615 54.8820 62.0810 0.0000 0.0000 0.0000
# 2 54.8820 101.5434 45.0568 0.0000 0.0000 0.0000
# 3 62.0810 45.0568 107.3651 0.0000 0.0000 0.0000
# 4 0.0000 0.0000 0.0000 26.8897 0.0000 0.0000
# 5 0.0000 0.0000 0.0000 0.0000 19.4192 0.0000
# 6 0.0000 0.0000 0.0000 0.0000 0.0000 28.2492
#
#
#
# Elastic Compliance Matrix: (Units=1/GPa)
#
#
# Indices 1 2 3 4 5 6 
#
# 1 0.007587 -0.002647 -0.003276 0.000000 0.000000 0.000000
# 2 -0.002647 0.013025 -0.003936 0.000000 0.000000 0.000000
# 3 -0.003276 -0.003936 0.012860 0.000000 0.000000 0.000000
# 4 0.000000 0.000000 0.000000 0.037189 0.000000 0.000000
# 5 0.000000 0.000000 0.000000 0.000000 0.051495 0.000000
# 6 0.000000 0.000000 0.000000 0.000000 0.000000 0.035399
#
#
# Mechanical properties :
#
#
# Convention : Reuss Voigt Hill
#
# Bulk Modulus (GPa) = 72.70285 78.96775 75.83530
# Shear Modulus (GPa) = 27.49412 29.88831 28.69122
#
# Velocity S-wave (km/s) = 3.84440 4.00829 3.92720
# Velocity P-wave (km/s) = 7.66728 7.99193 7.83129
#
# Compressibility (1/GPa) = 0.01375462
#
# Stress axis : x y z
#
# Youngs Moduli (GPa) = 131.80714 76.77636 77.76096
#
# Poissons Ratio (x) = 0.20322 0.25475
# Poissons Ratio (y) = 0.34887 0.30603
# Poissons Ratio (z) = 0.43181 0.30216
#
# Static dielectric constant tensor:
#      x y z
#    x 3.668790 0.000000 0.000000 
#    y 0.000000 3.408310 0.000000 
#    z 0.000000 0.000000 3.450520 
# 
# 
# High freq. dielectric constant tensor:
#      x y z
#    x 1.730840 0.000000 0.000000 
#    y 0.000000 1.722920 0.000000 
#    z 0.000000 0.000000 1.716010 
# 
# From -- ./inp_files/65977.got.cif
#   From: 2010.03.12/outbox.cif.g09.slc.cpg/sg65_33_cif.got.tgz:65977.got - 2010.04.10 20:52:16.
