data_PCOD8271475
_publ_section_title
;
Structure prediction by ZEFSAII (Michael W. Deem and Ramdas Pophale) SiO2 
 PCOD8271475
Probable space group: C M M M
;
_chemical_formula_sum "Si O2"
_cell_formula_units_Z 88
_cell_length_a 21.274892
_cell_length_b 13.695105
_cell_length_c 15.540908
_cell_angle_alpha 90.000000
_cell_angle_beta 90.000000
_cell_angle_gamma 90.000000
_cell_volume 4528.028169
_symmetry_space_group_name_H-M "C M M M"
_symmetry_group_IT_number 65
_symmetry_cell_setting 'orthorhombic'
loop_
_space_group_symop_operation_xyz
x,y,z
-x,-y,z
x,-y,-z
-x,y,-z
-x,-y,-z
x,y,-z
-x,y,z
x,-y,z
1/2+x,1/2+y,z
1/2-x,1/2-y,z
1/2+x,1/2-y,-z
1/2-x,1/2+y,-z
1/2-x,1/2-y,-z
1/2+x,1/2+y,-z
1/2-x,1/2+y,z
1/2+x,1/2-y,z
loop_
_atom_site_type_symbol
_atom_site_label
_atom_site_fract_x
_atom_site_fract_y
_atom_site_fract_z
Si Si1 0.393822 0.258727 0.815570
Si Si2 0.500000 0.613307 0.898381
Si Si3 0.790893 0.655198 0.092721
Si Si4 0.931103 0.611439 0.676883
Si Si5 0.803132 0.384755 0.405824
Si Si6 0.784717 0.108183 0.746667
O O1 0.437811 0.337375 0.861027
O O2 0.361696 0.188653 0.885941
O O3 0.433293 0.186954 0.755484
O O4 0.341240 0.317419 0.761613
O O5 0.500000 0.500000 0.871315
O O6 0.500000 0.625642 0.000000
O O7 0.750000 0.750000 0.081175
O O8 0.760866 0.593568 0.170485
O O9 0.791353 0.598691 0.000000
O O10 0.919129 0.500000 0.709646
O O11 0.875665 0.643958 0.612681
O O12 0.000000 0.617600 0.631589
O O13 0.785152 0.341654 0.500000
O O14 0.797084 0.500000 0.407412
O O15 0.755842 0.346161 0.332143
O O16 0.810915 0.000000 0.724523
#
# Coordination Sequence:
#
# PCOD8271475 Si02
#       6
#    16   8  16  16  16  16
#     4  11  20  36  57  81 112 151 192 237 287 339
#     4  11  24  40  59  85 116 153 199 243 285 340
#     4   9  18  31  50  75 105 141 180 225 278 330
#     4  10  20  35  57  82 109 147 191 240 290 340
#     4   9  18  34  57  85 117 152 190 238 295 350
#     4  10  20  34  54  82 116 151 191 237 288 347
#
# _framework density 19.434508000000001
#
# number of rings (size 3 to 8) (size 9 to 14) (size 15 to 20)
#    0.000    2.091    2.727    1.091    0.000    1.455 
#    0.000    3.636    0.000    2.182    0.000    0.000 
#    0.000    4.364    0.000    0.000    0.000    0.000 
#
# Total GULP energy -545206.412212 kJ/mol
# GULP energy per Si atom -12391.054823 kJ/mol
# Density = 1.939027 g / cm^3
# Si number density = 19.434508 Si / 1000 Ang^3
#
#
#
# Elastic Constant Matrix: (Units=GPa)
#
#
# Indices 1 2 3 4 5 6 
#
# 1 113.5460 23.2341 41.5761 0.0000 0.0000 0.0000
# 2 23.2341 70.3103 19.5022 0.0000 0.0000 0.0000
# 3 41.5761 19.5022 126.2495 0.0000 0.0000 0.0000
# 4 0.0000 0.0000 0.0000 559.0499 0.0000 0.0000
# 5 0.0000 0.0000 0.0000 0.0000 21.1459 0.0000
# 6 0.0000 0.0000 0.0000 0.0000 0.0000 26.0063
#
#
#
# Elastic Compliance Matrix: (Units=1/GPa)
#
#
# Indices 1 2 3 4 5 6 
#
# 1 0.010454 -0.002612 -0.003039 0.000000 0.000000 0.000000
# 2 -0.002612 0.015512 -0.001536 0.000000 0.000000 0.000000
# 3 -0.003039 -0.001536 0.009159 0.000000 0.000000 0.000000
# 4 0.000000 0.000000 0.000000 0.001789 0.000000 0.000000
# 5 0.000000 0.000000 0.000000 0.000000 0.047291 0.000000
# 6 0.000000 0.000000 0.000000 0.000000 0.000000 0.038452
#
#
# Mechanical properties :
#
#
# Convention : Reuss Voigt Hill
#
# Bulk Modulus (GPa) = 48.19057 53.19228 50.69143
# Shear Modulus (GPa) = 34.73487 136.29333 85.51410
#
# Velocity S-wave (km/s) = 4.23221 8.38342 6.64053
# Velocity P-wave (km/s) = 6.98085 11.00629 9.21604
#
# Compressibility (1/GPa) = 0.02075095
#
# Stress axis : x y z
#
# Youngs Moduli (GPa) = 95.65459 64.46730 109.18203
#
# Poissons Ratio (x) = 0.16836 0.33184
# Poissons Ratio (y) = 0.24981 0.16772
# Poissons Ratio (z) = 0.29073 0.09903
#
# Static dielectric constant tensor:
#      x y z
#    x 3.345850 0.000000 0.000000 
#    y 0.000000 3.375910 0.000000 
#    z 0.000000 0.000000 3.971380 
# 
# 
# High freq. dielectric constant tensor:
#      x y z
#    x 1.753260 0.000000 0.000000 
#    y 0.000000 1.752290 0.000000 
#    z 0.000000 0.000000 1.746660 
# 
# From -- ./inp_files/40238.got.cif
#   From: 2010.03.12/outbox.cif.g09.slc.cpg/sg65_21_cif.got.tgz:40238.got - 2010.04.10 20:52:16.
