data_PCOD8271737
_publ_section_title
;
Structure prediction by ZEFSAII (Michael W. Deem and Ramdas Pophale) SiO2 
 PCOD8271737
Probable space group: C M M M
;
_chemical_formula_sum "Si O2"
_cell_formula_units_Z 112
_cell_length_a 18.313183
_cell_length_b 21.760298
_cell_length_c 14.486301
_cell_angle_alpha 90.000000
_cell_angle_beta 90.000000
_cell_angle_gamma 90.000000
_cell_volume 5772.795576
_symmetry_space_group_name_H-M "C M M M"
_symmetry_group_IT_number 65
_symmetry_cell_setting 'orthorhombic'
loop_
_space_group_symop_operation_xyz
x,y,z
-x,-y,z
x,-y,-z
-x,y,-z
-x,-y,-z
x,y,-z
-x,y,z
x,-y,z
1/2+x,1/2+y,z
1/2-x,1/2-y,z
1/2+x,1/2-y,-z
1/2-x,1/2+y,-z
1/2-x,1/2-y,-z
1/2+x,1/2+y,-z
1/2-x,1/2+y,z
1/2+x,1/2-y,z
loop_
_atom_site_type_symbol
_atom_site_label
_atom_site_fract_x
_atom_site_fract_y
_atom_site_fract_z
Si Si1 0.809023 0.070176 0.603740
Si Si2 0.347942 0.883226 0.394424
Si Si3 0.084668 0.860496 0.275784
Si Si4 0.157740 0.189985 0.893810
Si Si5 0.416662 0.244416 0.395015
Si Si6 0.584509 0.069751 0.780141
Si Si7 0.174050 0.669996 0.106227
O O1 0.838157 0.083305 0.500000
O O2 0.737810 0.110482 0.625108
O O3 0.871700 0.083655 0.678131
O O4 0.784948 0.000000 0.614483
O O5 0.367933 0.900562 0.500000
O O6 0.365332 0.812645 0.371904
O O7 0.395753 0.926579 0.328234
O O8 0.104819 0.851547 0.168657
O O9 0.108214 0.799424 0.329991
O O10 0.000000 0.875967 0.285570
O O11 0.143206 0.261961 0.872577
O O12 0.240270 0.170339 0.871209
O O13 0.139046 0.175855 0.000000
O O14 0.406623 0.266590 0.500000
O O15 0.500000 0.224769 0.375533
O O16 0.500000 0.086620 0.795661
O O17 0.634041 0.118349 0.834302
O O18 0.600015 0.000000 0.814142
O O19 0.160374 0.653302 0.000000
#
# Coordination Sequence:
#
# PCOD8271737 Si02
#       7
#    16  16  16  16  16  16  16
#     4  10  22  39  58  80 105 139 187 233 269 314
#     4  10  20  35  55  77 107 147 186 226 270 314
#     4  11  22  35  55  82 112 143 174 218 276 330
#     4   9  19  36  59  85 107 134 177 224 274 331
#     4   9  18  32  51  79 113 145 178 216 263 321
#     4  11  23  35  51  80 115 151 189 221 254 309
#     4   9  19  38  60  79 106 143 181 226 274 316
#
# _framework density 19.401344999999999
#
# number of rings (size 3 to 8) (size 9 to 14) (size 15 to 20)
#    0.000    2.143    0.000    3.857    0.000    7.143 
#    0.000    5.714    0.000    1.286    0.000    1.000 
#    0.000    0.000    0.000    0.000    0.000    0.000 
#
# Total GULP energy -694501.714115 kJ/mol
# GULP energy per Si atom -12401.816323 kJ/mol
# Density = 1.935719 g / cm^3
# Si number density = 19.401345 Si / 1000 Ang^3
#
#
#
# Elastic Constant Matrix: (Units=GPa)
#
#
# Indices 1 2 3 4 5 6 
#
# 1 83.8048 49.6540 40.3407 0.0000 0.0000 0.0000
# 2 49.6540 75.5512 42.4715 0.0000 0.0000 0.0000
# 3 40.3407 42.4715 90.8647 0.0000 0.0000 0.0000
# 4 0.0000 0.0000 0.0000 26.9619 0.0000 0.0000
# 5 0.0000 0.0000 0.0000 0.0000 27.3871 0.0000
# 6 0.0000 0.0000 0.0000 0.0000 0.0000 33.1749
#
#
#
# Elastic Compliance Matrix: (Units=1/GPa)
#
#
# Indices 1 2 3 4 5 6 
#
# 1 0.020464 -0.011315 -0.003796 0.000000 0.000000 0.000000
# 2 -0.011315 0.024210 -0.006293 0.000000 0.000000 0.000000
# 3 -0.003796 -0.006293 0.015632 0.000000 0.000000 0.000000
# 4 0.000000 0.000000 0.000000 0.037089 0.000000 0.000000
# 5 0.000000 0.000000 0.000000 0.000000 0.036514 0.000000
# 6 0.000000 0.000000 0.000000 0.000000 0.000000 0.030143
#
#
# Mechanical properties :
#
#
# Convention : Reuss Voigt Hill
#
# Bulk Modulus (GPa) = 57.15016 57.23926 57.19471
# Shear Modulus (GPa) = 23.50793 25.35509 24.43151
#
# Velocity S-wave (km/s) = 3.48467 3.61899 3.55247
# Velocity P-wave (km/s) = 6.76102 6.85781 6.80959
#
# Compressibility (1/GPa) = 0.01749776
#
# Stress axis : x y z
#
# Youngs Moduli (GPa) = 48.86560 41.30486 63.97095
#
# Poissons Ratio (x) = 0.46738 0.24286
# Poissons Ratio (y) = 0.55294 0.40254
# Poissons Ratio (z) = 0.18551 0.25991
#
# Static dielectric constant tensor:
#      x y z
#    x 3.394170 0.000000 0.000000 
#    y 0.000000 3.357490 0.000000 
#    z 0.000000 0.000000 3.610850 
# 
# 
# High freq. dielectric constant tensor:
#      x y z
#    x 1.750310 0.000000 0.000000 
#    y 0.000000 1.742430 0.000000 
#    z 0.000000 0.000000 1.759930 
# 
# From -- ./inp_files/40763.got.cif
#   From: 2010.03.12/outbox.cif.g09.slc.cpg/sg65_21_cif.got.tgz:40763.got - 2010.04.10 20:52:16.
