data_PCOD8271879
_publ_section_title
;
Structure prediction by ZEFSAII (Michael W. Deem and Ramdas Pophale) SiO2 
 PCOD8271879
Probable space group: C M M M
;
_chemical_formula_sum "Si O2"
_cell_formula_units_Z 64
_cell_length_a 8.612889
_cell_length_b 18.884962
_cell_length_c 20.331421
_cell_angle_alpha 90.000000
_cell_angle_beta 90.000000
_cell_angle_gamma 90.000000
_cell_volume 3306.988608
_symmetry_space_group_name_H-M "C M M M"
_symmetry_group_IT_number 65
_symmetry_cell_setting 'orthorhombic'
loop_
_space_group_symop_operation_xyz
x,y,z
-x,-y,z
x,-y,-z
-x,y,-z
-x,-y,-z
x,y,-z
-x,y,z
x,-y,z
1/2+x,1/2+y,z
1/2-x,1/2-y,z
1/2+x,1/2-y,-z
1/2-x,1/2+y,-z
1/2-x,1/2-y,-z
1/2+x,1/2+y,-z
1/2-x,1/2+y,z
1/2+x,1/2-y,z
loop_
_atom_site_type_symbol
_atom_site_label
_atom_site_fract_x
_atom_site_fract_y
_atom_site_fract_z
Si Si1 0.682099 0.175445 0.254686
Si Si2 0.177365 0.083778 0.634810
Si Si3 0.816405 0.826006 0.114078
Si Si4 0.825018 0.584195 0.500000
Si Si5 0.819675 0.583172 0.000000
O O1 0.500000 0.182970 0.243007
O O2 0.750000 0.250000 0.279558
O O3 0.716269 0.116272 0.308633
O O4 0.760727 0.152316 0.186565
O O5 0.235932 0.112328 0.564353
O O6 0.000000 0.107673 0.644454
O O7 0.195661 0.000000 0.639087
O O8 0.750000 0.750000 0.092520
O O9 0.000000 0.821693 0.112519
O O10 0.758838 0.885788 0.064826
O O11 0.825818 0.500000 0.500000
O O12 0.000000 0.614111 0.500000
O O13 0.790396 0.500000 0.000000
O O14 0.000000 0.602768 0.000000
#
# Coordination Sequence:
#
# PCOD8271879 Si02
#       5
#    16  16  16   8   8
#     4  11  22  38  59  83 113 147 186 230 278 330
#     4  10  20  35  56  82 112 147 187 230 277 330
#     4  11  22  39  62  85 112 147 188 228 272 330
#     4   9  17  31  52  79 110 145 186 229 275 329
#     4  11  24  41  60  85 117 149 184 229 278 325
#
# _framework density 19.352955999999999
#
# number of rings (size 3 to 8) (size 9 to 14) (size 15 to 20)
#    0.000    1.500    0.000    7.875    0.000    5.000 
#    0.000    0.625    0.000    0.000    0.000    0.000 
#    0.000    0.000    0.000    0.000    0.000    0.000 
#
# Total GULP energy -396967.226441 kJ/mol
# GULP energy per Si atom -12405.225826 kJ/mol
# Density = 1.930891 g / cm^3
# Si number density = 19.352956 Si / 1000 Ang^3
#
#
#
# Elastic Constant Matrix: (Units=GPa)
#
#
# Indices 1 2 3 4 5 6 
#
# 1 171.1476 52.9396 58.6412 0.0000 0.0000 0.0000
# 2 52.9396 57.8308 57.7336 0.0000 0.0000 0.0000
# 3 58.6412 57.7336 130.8942 0.0000 0.0000 0.0000
# 4 0.0000 0.0000 0.0000 25.0064 0.0000 0.0000
# 5 0.0000 0.0000 0.0000 0.0000 36.9244 0.0000
# 6 0.0000 0.0000 0.0000 0.0000 0.0000 29.0660
#
#
#
# Elastic Compliance Matrix: (Units=1/GPa)
#
#
# Indices 1 2 3 4 5 6 
#
# 1 0.008181 -0.006844 -0.000647 0.000000 0.000000 0.000000
# 2 -0.006844 0.036621 -0.013087 0.000000 0.000000 0.000000
# 3 -0.000647 -0.013087 0.013702 0.000000 0.000000 0.000000
# 4 0.000000 0.000000 0.000000 0.039990 0.000000 0.000000
# 5 0.000000 0.000000 0.000000 0.000000 0.027082 0.000000
# 6 0.000000 0.000000 0.000000 0.000000 0.000000 0.034404
#
#
# Mechanical properties :
#
#
# Convention : Reuss Voigt Hill
#
# Bulk Modulus (GPa) = 57.63617 77.61126 67.62372
# Shear Modulus (GPa) = 24.16409 30.90325 27.53367
#
# Velocity S-wave (km/s) = 3.53739 4.00036 3.77598
# Velocity P-wave (km/s) = 6.82132 7.84393 7.35043
#
# Compressibility (1/GPa) = 0.01735022
#
# Stress axis : x y z
#
# Youngs Moduli (GPa) = 122.22779 27.30642 72.98437
#
# Poissons Ratio (x) = 0.18688 0.04720
# Poissons Ratio (y) = 0.83651 0.95511
# Poissons Ratio (z) = 0.07904 0.35735
#
# Static dielectric constant tensor:
#      x y z
#    x 3.760770 0.000000 0.000000 
#    y 0.000000 3.287390 0.000000 
#    z 0.000000 0.000000 3.640740 
# 
# 
# High freq. dielectric constant tensor:
#      x y z
#    x 1.776800 0.000000 0.000000 
#    y 0.000000 1.731540 0.000000 
#    z 0.000000 0.000000 1.767040 
# 
# From -- ./inp_files/58801.got.cif
#   From: 2010.03.12/outbox.cif.g09.slc.cpg/sg65_30_cif.got.tgz:58801.got - 2010.04.10 20:52:16.
