data_PCOD8271101
_publ_section_title
;
Structure prediction by ZEFSAII (Michael W. Deem and Ramdas Pophale) SiO2 
 PCOD8271101
Probable space group: C M M M
;
_chemical_formula_sum "Si O2"
_cell_formula_units_Z 88
_cell_length_a 23.816150
_cell_length_b 23.709905
_cell_length_c 8.863638
_cell_angle_alpha 90.000000
_cell_angle_beta 90.000000
_cell_angle_gamma 90.000000
_cell_volume 5005.107175
_symmetry_space_group_name_H-M "C M M M"
_symmetry_group_IT_number 65
_symmetry_cell_setting 'orthorhombic'
loop_
_space_group_symop_operation_xyz
x,y,z
-x,-y,z
x,-y,-z
-x,y,-z
-x,-y,-z
x,y,-z
-x,y,z
x,-y,z
1/2+x,1/2+y,z
1/2-x,1/2-y,z
1/2+x,1/2-y,-z
1/2-x,1/2+y,-z
1/2-x,1/2-y,-z
1/2+x,1/2+y,-z
1/2-x,1/2+y,z
1/2+x,1/2-y,z
loop_
_atom_site_type_symbol
_atom_site_label
_atom_site_fract_x
_atom_site_fract_y
_atom_site_fract_z
Si Si1 0.233205 0.563876 0.820499
Si Si2 0.934594 0.438370 0.000000
Si Si3 0.934796 0.852974 0.174204
Si Si4 0.564073 0.235284 0.676042
Si Si5 0.650628 0.435081 0.675483
Si Si6 0.634095 0.858511 0.831533
O O1 0.220605 0.500000 0.761231
O O2 0.293517 0.584287 0.762452
O O3 0.188187 0.609880 0.759795
O O4 0.231777 0.564368 0.000000
O O5 0.913987 0.406227 0.150123
O O6 0.906433 0.500000 0.000000
O O7 0.000000 0.442872 0.000000
O O8 0.919612 0.791096 0.233497
O O9 0.901662 0.899353 0.267742
O O10 0.000000 0.866013 0.199386
O O11 0.917638 0.856481 0.000000
O O12 0.569655 0.247925 0.500000
O O13 0.500000 0.216480 0.716511
O O14 0.609910 0.188616 0.720771
O O15 0.660426 0.424125 0.500000
O O16 0.636748 0.500000 0.710377
O O17 0.647745 0.833347 0.000000
#
# Coordination Sequence:
#
# PCOD8271101 Si02
#       6
#    16   8  16  16  16  16
#     4   9  17  32  53  76 104 138 179 222 263 307
#     4   9  16  26  46  76 105 134 174 224 269 308
#     4  10  21  37  58  81 105 134 172 219 266 314
#     4  10  20  34  52  75 106 142 177 216 267 321
#     4  10  21  36  55  80 109 141 173 209 261 321
#     4   9  18  29  50  76 103 135 178 221 257 308
#
# _framework density 17.582039999999999
#
# number of rings (size 3 to 8) (size 9 to 14) (size 15 to 20)
#    0.545    1.909    0.000    2.727    0.000    4.000 
#    0.000    2.727    0.000    7.091    0.000    6.364 
#    0.000    0.000    0.000    0.000    0.000    0.000 
#
# Total GULP energy -545410.350404 kJ/mol
# GULP energy per Si atom -12395.689782 kJ/mol
# Density = 1.754202 g / cm^3
# Si number density = 17.582040 Si / 1000 Ang^3
#
#
#
# Elastic Constant Matrix: (Units=GPa)
#
#
# Indices 1 2 3 4 5 6 
#
# 1 86.4438 56.4168 18.9401 0.0000 0.0000 0.0000
# 2 56.4168 86.6109 20.7053 0.0000 0.0000 0.0000
# 3 18.9401 20.7053 25.2291 0.0000 0.0000 0.0000
# 4 0.0000 0.0000 0.0000 29.3222 0.0000 0.0000
# 5 0.0000 0.0000 0.0000 0.0000 26.0734 0.0000
# 6 0.0000 0.0000 0.0000 0.0000 0.0000 35.2726
#
#
#
# Elastic Compliance Matrix: (Units=1/GPa)
#
#
# Indices 1 2 3 4 5 6 
#
# 1 0.020735 -0.012173 -0.005575 0.000000 0.000000 0.000000
# 2 -0.012173 0.021511 -0.008515 0.000000 0.000000 0.000000
# 3 -0.005575 -0.008515 0.050811 0.000000 0.000000 0.000000
# 4 0.000000 0.000000 0.000000 0.034104 0.000000 0.000000
# 5 0.000000 0.000000 0.000000 0.000000 0.038353 0.000000
# 6 0.000000 0.000000 0.000000 0.000000 0.000000 0.028351
#
#
# Mechanical properties :
#
#
# Convention : Reuss Voigt Hill
#
# Bulk Modulus (GPa) = 24.67396 43.37869 34.02633
# Shear Modulus (GPa) = 19.23808 24.94841 22.09325
#
# Velocity S-wave (km/s) = 3.31144 3.77101 3.54867
# Velocity P-wave (km/s) = 5.35583 6.60957 6.01545
#
# Compressibility (1/GPa) = 0.04052856
#
# Stress axis : x y z
#
# Youngs Moduli (GPa) = 48.22854 46.48788 19.68092
#
# Poissons Ratio (x) = 0.56591 0.10973
# Poissons Ratio (y) = 0.58710 0.16758
# Poissons Ratio (z) = 0.26890 0.39585
#
# Static dielectric constant tensor:
#      x y z
#    x 3.237890 0.000000 0.000000 
#    y 0.000000 3.262240 0.000000 
#    z 0.000000 0.000000 3.143400 
# 
# 
# High freq. dielectric constant tensor:
#      x y z
#    x 1.679900 0.000000 0.000000 
#    y 0.000000 1.676640 0.000000 
#    z 0.000000 0.000000 1.667720 
# 
# From -- ./inp_files/12319.got.cif
#   From: 2010.03.12/outbox.cif.g09.slc.cpg/sg65_7_cif.got.tgz:12319.got - 2010.04.10 20:52:16.
