data_PCOD8271767
_publ_section_title
;
Structure prediction by ZEFSAII (Michael W. Deem and Ramdas Pophale) SiO2 
 PCOD8271767
Probable space group: C M M M
;
_chemical_formula_sum "Si O2"
_cell_formula_units_Z 96
_cell_length_a 24.042303
_cell_length_b 8.864708
_cell_length_c 23.237311
_cell_angle_alpha 90.000000
_cell_angle_beta 90.000000
_cell_angle_gamma 90.000000
_cell_volume 4952.521520
_symmetry_space_group_name_H-M "C M M M"
_symmetry_group_IT_number 65
_symmetry_cell_setting 'orthorhombic'
loop_
_space_group_symop_operation_xyz
x,y,z
-x,-y,z
x,-y,-z
-x,y,-z
-x,-y,-z
x,y,-z
-x,y,z
x,-y,z
1/2+x,1/2+y,z
1/2-x,1/2-y,z
1/2+x,1/2-y,-z
1/2-x,1/2+y,-z
1/2-x,1/2-y,-z
1/2+x,1/2+y,-z
1/2-x,1/2+y,z
1/2+x,1/2-y,z
loop_
_atom_site_type_symbol
_atom_site_label
_atom_site_fract_x
_atom_site_fract_y
_atom_site_fract_z
Si Si1 0.500000 0.321556 0.734144
Si Si2 0.381020 0.675559 0.434401
Si Si3 0.000000 0.679439 0.065443
Si Si4 0.500000 0.678536 0.604252
Si Si5 0.189827 0.321516 0.336381
Si Si6 0.309910 0.179752 0.000000
Si Si7 0.387471 0.176439 0.767855
Si Si8 0.882955 0.323009 0.104763
O O1 0.500000 0.500000 0.735458
O O2 0.500000 0.259775 0.669008
O O3 0.445649 0.261726 0.765551
O O4 0.362355 0.700584 0.500000
O O5 0.377518 0.500000 0.416844
O O6 0.444145 0.737225 0.427019
O O7 0.339381 0.769063 0.394847
O O8 0.055056 0.745250 0.096450
O O9 0.000000 0.500000 0.068781
O O10 0.000000 0.735277 0.000000
O O11 0.500000 0.500000 0.601824
O O12 0.195952 0.500000 0.337256
O O13 0.250000 0.250000 0.331209
O O14 0.154208 0.265308 0.281470
O O15 0.250000 0.250000 0.000000
O O16 0.341179 0.242783 0.056922
O O17 0.305622 0.000000 0.000000
O O18 0.361203 0.212773 0.830654
O O19 0.399432 0.000000 0.760315
O O20 0.886730 0.500000 0.094004
#
# Coordination Sequence:
#
# PCOD8271767 Si02
#       8
#     8  16   8   8  16   8  16  16
#     4  11  20  33  58  87 117 150 180 219 275 338
#     4  10  20  37  62  88 114 146 183 223 271 329
#     4   9  13  22  46  79 106 132 169 217 265 310
#     4   9  17  32  57  87 116 144 174 214 267 328
#     4  11  24  40  58  79 109 147 190 234 279 326
#     4  10  20  35  55  79 107 142 185 230 276 326
#     4  10  21  37  57  83 113 147 186 231 277 328
#     4   9  17  31  53  80 109 139 178 225 273 324
#
# _framework density 19.384066000000001
#
# number of rings (size 3 to 8) (size 9 to 14) (size 15 to 20)
#    0.000    2.083    2.500    1.500    0.000    4.333 
#    0.000    1.250    0.000    1.000    0.000    1.167 
#    0.000    0.000    0.000    0.000    0.000    0.000 
#
# Total GULP energy -595149.709083 kJ/mol
# GULP energy per Si atom -12398.952273 kJ/mol
# Density = 1.933995 g / cm^3
# Si number density = 19.384066 Si / 1000 Ang^3
#
#
#
# Elastic Constant Matrix: (Units=GPa)
#
#
# Indices 1 2 3 4 5 6 
#
# 1 159.6934 35.0626 73.1087 0.0000 0.0000 0.0000
# 2 35.0626 37.7645 32.3955 0.0000 0.0000 0.0000
# 3 73.1087 32.3955 148.1147 0.0000 0.0000 0.0000
# 4 0.0000 0.0000 0.0000 17.6085 0.0000 0.0000
# 5 0.0000 0.0000 0.0000 0.0000 14.1395 0.0000
# 6 0.0000 0.0000 0.0000 0.0000 0.0000 3.9971
#
#
#
# Elastic Compliance Matrix: (Units=1/GPa)
#
#
# Indices 1 2 3 4 5 6 
#
# 1 0.008949 -0.005563 -0.003200 0.000000 0.000000 0.000000
# 2 -0.005563 0.036054 -0.005140 0.000000 0.000000 0.000000
# 3 -0.003200 -0.005140 0.009455 0.000000 0.000000 0.000000
# 4 0.000000 0.000000 0.000000 0.056791 0.000000 0.000000
# 5 0.000000 0.000000 0.000000 0.000000 0.070724 0.000000
# 6 0.000000 0.000000 0.000000 0.000000 0.000000 0.250183
#
#
# Mechanical properties :
#
#
# Convention : Reuss Voigt Hill
#
# Bulk Modulus (GPa) = 37.52108 69.63402 53.57755
# Shear Modulus (GPa) = 10.66450 20.81606 15.74028
#
# Velocity S-wave (km/s) = 2.34811 3.28056 2.85269
# Velocity P-wave (km/s) = 5.17206 7.09582 6.20890
#
# Compressibility (1/GPa) = 0.02665169
#
# Stress axis : x y z
#
# Youngs Moduli (GPa) = 111.75052 27.73623 105.76084
#
# Poissons Ratio (x) = 0.15430 0.33846
# Poissons Ratio (y) = 0.62167 0.54359
# Poissons Ratio (z) = 0.35762 0.14256
#
# Static dielectric constant tensor:
#      x y z
#    x 3.622430 0.000000 0.000000 
#    y 0.000000 3.142710 0.000000 
#    z 0.000000 0.000000 3.761690 
# 
# 
# High freq. dielectric constant tensor:
#      x y z
#    x 1.755690 0.000000 0.000000 
#    y 0.000000 1.712170 0.000000 
#    z 0.000000 0.000000 1.771720 
# 
# From -- ./inp_files/71495.got.cif
#   From: 2010.03.12/outbox.cif.g09.slc.cpg/sg65_36_cif.got.tgz:71495.got - 2010.04.10 20:52:16.
