data_PCOD8271618
_publ_section_title
;
Structure prediction by ZEFSAII (Michael W. Deem and Ramdas Pophale) SiO2 
 PCOD8271618
Probable space group: C M M M
;
_chemical_formula_sum "Si O2"
_cell_formula_units_Z 80
_cell_length_a 8.796922
_cell_length_b 19.649761
_cell_length_c 25.505708
_cell_angle_alpha 90.000000
_cell_angle_beta 90.000000
_cell_angle_gamma 90.000000
_cell_volume 4408.850748
_symmetry_space_group_name_H-M "C M M M"
_symmetry_group_IT_number 65
_symmetry_cell_setting 'orthorhombic'
loop_
_space_group_symop_operation_xyz
x,y,z
-x,-y,z
x,-y,-z
-x,y,-z
-x,-y,-z
x,y,-z
-x,y,z
x,-y,z
1/2+x,1/2+y,z
1/2-x,1/2-y,z
1/2+x,1/2-y,-z
1/2-x,1/2+y,-z
1/2-x,1/2-y,-z
1/2+x,1/2+y,-z
1/2-x,1/2+y,z
1/2+x,1/2-y,z
loop_
_atom_site_type_symbol
_atom_site_label
_atom_site_fract_x
_atom_site_fract_y
_atom_site_fract_z
Si Si1 0.673882 0.921374 0.060596
Si Si2 0.681286 0.177467 0.248893
Si Si3 0.679104 0.076519 0.661269
Si Si4 0.328018 0.419196 0.556944
Si Si5 0.178981 0.821634 0.861094
O O1 0.500000 0.902875 0.074604
O O2 0.788871 0.876968 0.094527
O O3 0.705669 0.000000 0.073093
O O4 0.706460 0.905679 0.000000
O O5 0.500000 0.182292 0.246350
O O6 0.750000 0.250000 0.264776
O O7 0.739323 0.123137 0.291554
O O8 0.745082 0.153400 0.192927
O O9 0.500000 0.074575 0.661569
O O10 0.730510 0.109014 0.605634
O O11 0.744894 0.000000 0.668868
O O12 0.266896 0.392709 0.500000
O O13 0.500000 0.394217 0.564699
O O14 0.319103 0.500000 0.556884
O O15 0.250000 0.750000 0.878964
O O16 0.000000 0.812809 0.852991
#
# Coordination Sequence:
#
# PCOD8271618 Si02
#       5
#    16  16  16  16  16
#     4   9  19  37  59  81 107 139 171 205 251 303
#     4  10  20  35  53  72  98 132 168 206 250 300
#     4   9  18  31  48  72  98 125 160 201 245 293
#     4   8  14  25  42  66  96 127 157 193 240 290
#     4  11  22  36  55  78 104 135 173 214 254 299
#
# _framework density 18.145319000000001
#
# number of rings (size 3 to 8) (size 9 to 14) (size 15 to 20)
#    0.000    2.600    0.000    4.800    0.000    4.000 
#    0.000    5.000    0.000    0.600    0.000    0.000 
#    0.000    0.000    0.000    0.000    0.000    0.000 
#
# Total GULP energy -495883.162426 kJ/mol
# GULP energy per Si atom -12397.079061 kJ/mol
# Density = 1.810402 g / cm^3
# Si number density = 18.145319 Si / 1000 Ang^3
#
#
#
# Elastic Constant Matrix: (Units=GPa)
#
#
# Indices 1 2 3 4 5 6 
#
# 1 67.9444 31.9118 42.0613 0.0000 0.0000 0.0000
# 2 31.9118 71.8570 72.2269 0.0000 0.0000 0.0000
# 3 42.0613 72.2269 132.9007 0.0000 0.0000 0.0000
# 4 0.0000 0.0000 0.0000 8.9856 0.0000 0.0000
# 5 0.0000 0.0000 0.0000 0.0000 34.4416 0.0000
# 6 0.0000 0.0000 0.0000 0.0000 0.0000 25.0768
#
#
#
# Elastic Compliance Matrix: (Units=1/GPa)
#
#
# Indices 1 2 3 4 5 6 
#
# 1 0.019187 -0.005328 -0.003177 0.000000 0.000000 0.000000
# 2 -0.005328 0.032150 -0.015786 0.000000 0.000000 0.000000
# 3 -0.003177 -0.015786 0.017109 0.000000 0.000000 0.000000
# 4 0.000000 0.000000 0.000000 0.111289 0.000000 0.000000
# 5 0.000000 0.000000 0.000000 0.000000 0.029035 0.000000
# 6 0.000000 0.000000 0.000000 0.000000 0.000000 0.039877
#
#
# Mechanical properties :
#
#
# Convention : Reuss Voigt Hill
#
# Bulk Modulus (GPa) = 50.34143 62.78913 56.56528
# Shear Modulus (GPa) = 16.45545 22.13428 19.29487
#
# Velocity S-wave (km/s) = 3.01470 3.49640 3.26445
# Velocity P-wave (km/s) = 6.31835 7.13991 6.74166
#
# Compressibility (1/GPa) = 0.01986436
#
# Stress axis : x y z
#
# Youngs Moduli (GPa) = 52.11889 31.10400 58.44774
#
# Poissons Ratio (x) = 0.16571 0.18569
# Poissons Ratio (y) = 0.27766 0.92268
# Poissons Ratio (z) = 0.16559 0.49102
#
# Static dielectric constant tensor:
#      x y z
#    x 3.283440 0.000000 0.000000 
#    y 0.000000 3.214830 0.000000 
#    z 0.000000 0.000000 3.694650 
# 
# 
# High freq. dielectric constant tensor:
#      x y z
#    x 1.699830 0.000000 0.000000 
#    y 0.000000 1.675270 0.000000 
#    z 0.000000 0.000000 1.716080 
# 
# From -- ./inp_files/72725.got.cif
#   From: 2010.03.12/outbox.cif.g09.slc.cpg/sg65_37_cif.got.tgz:72725.got - 2010.04.10 20:52:16.
