data_PCOD8271977
_publ_section_title
;
Structure prediction by ZEFSAII (Michael W. Deem and Ramdas Pophale) SiO2 
 PCOD8271977
Probable space group: C M M M
;
_chemical_formula_sum "Si O2"
_cell_formula_units_Z 88
_cell_length_a 22.811242
_cell_length_b 22.303668
_cell_length_c 9.087504
_cell_angle_alpha 90.000000
_cell_angle_beta 90.000000
_cell_angle_gamma 90.000000
_cell_volume 4623.489106
_symmetry_space_group_name_H-M "C M M M"
_symmetry_group_IT_number 65
_symmetry_cell_setting 'orthorhombic'
loop_
_space_group_symop_operation_xyz
x,y,z
-x,-y,z
x,-y,-z
-x,y,-z
-x,-y,-z
x,y,-z
-x,y,z
x,-y,z
1/2+x,1/2+y,z
1/2-x,1/2-y,z
1/2+x,1/2-y,-z
1/2-x,1/2+y,-z
1/2-x,1/2-y,-z
1/2+x,1/2+y,-z
1/2-x,1/2+y,z
1/2+x,1/2-y,z
loop_
_atom_site_type_symbol
_atom_site_label
_atom_site_fract_x
_atom_site_fract_y
_atom_site_fract_z
Si Si1 0.565683 0.262883 0.669201
Si Si2 0.435132 0.064848 0.174537
Si Si3 0.143062 0.329915 0.174121
Si Si4 0.878787 0.884540 0.669005
Si Si5 0.068702 0.000000 0.824942
Si Si6 0.742576 0.320581 0.329709
O O1 0.577046 0.245282 0.500000
O O2 0.500000 0.244275 0.719870
O O3 0.616298 0.231738 0.764269
O O4 0.570986 0.334477 0.688201
O O5 0.500000 0.071897 0.240352
O O6 0.396425 0.117274 0.240951
O O7 0.409090 0.000000 0.219979
O O8 0.437347 0.070440 0.000000
O O9 0.206965 0.348673 0.229727
O O10 0.143455 0.325421 0.000000
O O11 0.873958 0.905913 0.500000
O O12 0.896757 0.941550 0.766505
O O13 0.818181 0.851903 0.719477
O O14 0.000000 0.000000 0.774164
O O15 0.072605 0.000000 0.000000
O O16 0.754122 0.333940 0.500000
O O17 0.750000 0.250000 0.298113
#
# Coordination Sequence:
#
# PCOD8271977 Si02
#       6
#    16  16  16  16   8  16
#     4  10  20  35  57  84 113 147 189 238 291 346
#     4   8  15  30  50  72 104 145 183 218 262 323
#     4  11  21  32  53  84 116 146 185 234 290 351
#     4  10  21  40  65  86 110 153 204 244 285 349
#     4  11  25  43  63  91 127 159 190 245 312 361
#     4  10  20  39  62  81 110 149 191 236 282 337
#
# _framework density 19.033245000000001
#
# number of rings (size 3 to 8) (size 9 to 14) (size 15 to 20)
#    0.000    2.091    1.818    2.455    0.000    4.364 
#    1.636    0.000    0.000    1.636    0.000    6.364 
#    0.000    0.000    0.000    0.000    0.000    0.000 
#
# Total GULP energy -545304.801123 kJ/mol
# GULP energy per Si atom -12393.290935 kJ/mol
# Density = 1.898992 g / cm^3
# Si number density = 19.033245 Si / 1000 Ang^3
#
#
#
# Elastic Constant Matrix: (Units=GPa)
#
#
# Indices 1 2 3 4 5 6 
#
# 1 122.8368 54.2394 49.0229 0.0000 0.0000 0.0000
# 2 54.2394 112.7427 40.4487 0.0000 0.0000 0.0000
# 3 49.0229 40.4487 48.6097 0.0000 0.0000 0.0000
# 4 0.0000 0.0000 0.0000 24.1811 0.0000 0.0000
# 5 0.0000 0.0000 0.0000 0.0000 31.4375 0.0000
# 6 0.0000 0.0000 0.0000 0.0000 0.0000 26.8575
#
#
#
# Elastic Compliance Matrix: (Units=1/GPa)
#
#
# Indices 1 2 3 4 5 6 
#
# 1 0.014063 -0.002391 -0.012192 0.000000 0.000000 0.000000
# 2 -0.002391 0.013051 -0.008449 0.000000 0.000000 0.000000
# 3 -0.012192 -0.008449 0.039898 0.000000 0.000000 0.000000
# 4 0.000000 0.000000 0.000000 0.041355 0.000000 0.000000
# 5 0.000000 0.000000 0.000000 0.000000 0.031809 0.000000
# 6 0.000000 0.000000 0.000000 0.000000 0.000000 0.037234
#
#
# Mechanical properties :
#
#
# Convention : Reuss Voigt Hill
#
# Bulk Modulus (GPa) = 47.73786 63.51235 55.62511
# Shear Modulus (GPa) = 21.69608 25.86043 23.77826
#
# Velocity S-wave (km/s) = 3.37991 3.69005 3.53838
# Velocity P-wave (km/s) = 6.35354 7.18310 6.78102
#
# Compressibility (1/GPa) = 0.02094773
#
# Stress axis : x y z
#
# Youngs Moduli (GPa) = 71.11083 76.62125 25.06368
#
# Poissons Ratio (x) = 0.18321 0.30559
# Poissons Ratio (y) = 0.17003 0.21176
# Poissons Ratio (z) = 0.86701 0.64735
#
# Static dielectric constant tensor:
#      x y z
#    x 3.718950 0.000000 0.000000 
#    y 0.000000 3.573580 0.000000 
#    z 0.000000 0.000000 3.192930 
# 
# 
# High freq. dielectric constant tensor:
#      x y z
#    x 1.748850 0.000000 0.000000 
#    y 0.000000 1.739700 0.000000 
#    z 0.000000 0.000000 1.715990 
# 
# From -- ./inp_files/13982.got.cif
#   From: 2010.03.12/outbox.cif.g09.slc.cpg/sg65_7_cif.got.tgz:13982.got - 2010.04.10 20:52:16.
