data_PCOD8271796
_publ_section_title
;
Structure prediction by ZEFSAII (Michael W. Deem and Ramdas Pophale) SiO2 
 PCOD8271796
Probable space group: C M M M
;
_chemical_formula_sum "Si O2"
_cell_formula_units_Z 104
_cell_length_a 20.481200
_cell_length_b 27.105280
_cell_length_c 9.580934
_cell_angle_alpha 90.000000
_cell_angle_beta 90.000000
_cell_angle_gamma 90.000000
_cell_volume 5318.842679
_symmetry_space_group_name_H-M "C M M M"
_symmetry_group_IT_number 65
_symmetry_cell_setting 'orthorhombic'
loop_
_space_group_symop_operation_xyz
x,y,z
-x,-y,z
x,-y,-z
-x,y,-z
-x,-y,-z
x,y,-z
-x,y,z
x,-y,z
1/2+x,1/2+y,z
1/2-x,1/2-y,z
1/2+x,1/2-y,-z
1/2-x,1/2+y,-z
1/2-x,1/2-y,-z
1/2+x,1/2+y,-z
1/2-x,1/2+y,z
1/2+x,1/2-y,z
loop_
_atom_site_type_symbol
_atom_site_label
_atom_site_fract_x
_atom_site_fract_y
_atom_site_fract_z
Si Si1 0.500000 0.059012 0.833272
Si Si2 0.426216 0.441035 0.000000
Si Si3 0.187548 0.215492 0.837831
Si Si4 0.656521 0.442108 0.252803
Si Si5 0.929291 0.058702 0.500000
Si Si6 0.927246 0.736545 0.659845
Si Si7 0.097142 0.624916 0.662004
Si Si8 0.246941 0.631174 0.335551
O O1 0.563506 0.083958 0.761073
O O2 0.500000 0.000000 0.805276
O O3 0.500000 0.069534 0.000000
O O4 0.382241 0.420269 0.876747
O O5 0.431619 0.500000 0.000000
O O6 0.500000 0.419205 0.000000
O O7 0.250000 0.250000 0.826324
O O8 0.124038 0.240086 0.767376
O O9 0.206838 0.167410 0.751434
O O10 0.171645 0.203546 0.000000
O O11 0.664045 0.500000 0.243612
O O12 0.609287 0.421625 0.370053
O O13 0.728598 0.422418 0.285188
O O14 0.000000 0.083437 0.500000
O O15 0.934717 0.000000 0.500000
O O16 0.903650 0.746114 0.500000
O O17 0.935063 0.678008 0.684815
O O18 0.000000 0.758982 0.684199
O O19 0.091093 0.607724 0.500000
O O20 0.171935 0.632243 0.708205
O O21 0.255340 0.641327 0.500000
#
# Coordination Sequence:
#
# PCOD8271796 Si02
#       8
#     8   8  16  16   8  16  16  16
#     4  11  25  43  61  93 137 173 211 263 322 381
#     4   9  18  34  56  80 107 151 203 243 290 348
#     4  11  24  40  62  93 125 160 203 251 308 375
#     4  10  20  35  55  85 119 152 197 247 297 357
#     4   9  16  30  54  78 105 147 197 245 284 334
#     4  10  20  39  66  93 120 154 208 264 312 372
#     4  10  21  39  66  94 118 160 213 257 306 372
#     4  11  23  39  63  92 124 163 205 251 306 366
#
# _framework density 19.553125999999999
#
# number of rings (size 3 to 8) (size 9 to 14) (size 15 to 20)
#    0.000    1.769    3.077    1.154    1.077    5.231 
#    0.000    3.077    0.000    0.000    0.000    0.000 
#    0.000    0.000    0.000    0.000    0.000    0.000 
#
# Total GULP energy -644336.823377 kJ/mol
# GULP energy per Si atom -12391.092757 kJ/mol
# Density = 1.950862 g / cm^3
# Si number density = 19.553126 Si / 1000 Ang^3
#
#
#
# Elastic Constant Matrix: (Units=GPa)
#
#
# Indices 1 2 3 4 5 6 
#
# 1 133.9825 41.1088 65.3869 0.0000 0.0000 0.0000
# 2 41.1088 61.7590 46.9287 0.0000 0.0000 0.0000
# 3 65.3869 46.9287 153.2926 0.0000 0.0000 0.0000
# 4 0.0000 0.0000 0.0000 30.3417 0.0000 0.0000
# 5 0.0000 0.0000 0.0000 0.0000 37.8688 0.0000
# 6 0.0000 0.0000 0.0000 0.0000 0.0000 33.0651
#
#
#
# Elastic Compliance Matrix: (Units=1/GPa)
#
#
# Indices 1 2 3 4 5 6 
#
# 1 0.010341 -0.004602 -0.003002 0.000000 0.000000 0.000000
# 2 -0.004602 0.023149 -0.005124 0.000000 0.000000 0.000000
# 3 -0.003002 -0.005124 0.009373 0.000000 0.000000 0.000000
# 4 0.000000 0.000000 0.000000 0.032958 0.000000 0.000000
# 5 0.000000 0.000000 0.000000 0.000000 0.026407 0.000000
# 6 0.000000 0.000000 0.000000 0.000000 0.000000 0.030243
#
#
# Mechanical properties :
#
#
# Convention : Reuss Voigt Hill
#
# Bulk Modulus (GPa) = 57.44993 72.87589 65.16291
# Shear Modulus (GPa) = 30.53855 33.29576 31.91715
#
# Velocity S-wave (km/s) = 3.95628 4.13102 4.04459
# Velocity P-wave (km/s) = 7.09329 7.75277 7.43035
#
# Compressibility (1/GPa) = 0.01740646
#
# Stress axis : x y z
#
# Youngs Moduli (GPa) = 96.70525 43.19928 106.69499
#
# Poissons Ratio (x) = 0.19880 0.32030
# Poissons Ratio (y) = 0.44504 0.54667
# Poissons Ratio (z) = 0.29031 0.22134
#
# Static dielectric constant tensor:
#      x y z
#    x 3.711740 0.000000 0.000000 
#    y 0.000000 3.365440 0.000000 
#    z 0.000000 0.000000 3.733150 
# 
# 
# High freq. dielectric constant tensor:
#      x y z
#    x 1.775730 0.000000 0.000000 
#    y 0.000000 1.740310 0.000000 
#    z 0.000000 0.000000 1.768860 
# 
# From -- ./inp_files/12465.got.cif
#   From: 2010.03.12/outbox.cif.g09.slc.cpg/sg65_7_cif.got.tgz:12465.got - 2010.04.10 20:52:16.
