data_PCOD8271636
_publ_section_title
;
Structure prediction by ZEFSAII (Michael W. Deem and Ramdas Pophale) SiO2 
 PCOD8271636
Probable space group: C M M M
;
_chemical_formula_sum "Si O2"
_cell_formula_units_Z 72
_cell_length_a 27.039398
_cell_length_b 9.746065
_cell_length_c 16.019259
_cell_angle_alpha 90.000000
_cell_angle_beta 90.000000
_cell_angle_gamma 90.000000
_cell_volume 4221.518968
_symmetry_space_group_name_H-M "C M M M"
_symmetry_group_IT_number 65
_symmetry_cell_setting 'orthorhombic'
loop_
_space_group_symop_operation_xyz
x,y,z
-x,-y,z
x,-y,-z
-x,y,-z
-x,-y,-z
x,y,-z
-x,y,z
x,-y,z
1/2+x,1/2+y,z
1/2-x,1/2-y,z
1/2+x,1/2-y,-z
1/2-x,1/2+y,-z
1/2-x,1/2-y,-z
1/2+x,1/2+y,-z
1/2-x,1/2+y,z
1/2+x,1/2-y,z
loop_
_atom_site_type_symbol
_atom_site_label
_atom_site_fract_x
_atom_site_fract_y
_atom_site_fract_z
Si Si1 0.058404 0.156279 0.500000
Si Si2 0.896646 0.748437 0.174203
Si Si3 0.553988 0.000000 0.094965
Si Si4 0.797597 0.160086 0.096166
Si Si5 0.556665 0.500000 0.908201
Si Si6 0.942302 0.660349 0.344370
O O1 0.075760 0.242834 0.419741
O O2 0.000000 0.146527 0.500000
O O3 0.080446 0.000000 0.500000
O O4 0.912020 0.627860 0.113618
O O5 0.839758 0.787990 0.159254
O O6 0.930964 0.873166 0.149290
O O7 0.906850 0.703421 0.268704
O O8 0.500000 0.000000 0.143308
O O9 0.540054 0.000000 0.000000
O O10 0.750000 0.250000 0.117886
O O11 0.786254 0.000000 0.112836
O O12 0.813845 0.183017 0.000000
O O13 0.500000 0.500000 0.928944
O O14 0.584284 0.500000 0.000000
O O15 0.934051 0.500000 0.366802
O O16 0.000000 0.686284 0.322657
#
# Coordination Sequence:
#
# PCOD8271636 Si02
#       6
#     8  16   8  16   8  16
#     4   9  19  33  53  79 106 141 182 225 273 323
#     4  12  22  35  54  78 108 144 189 231 274 326
#     4  11  22  34  49  74 110 150 188 220 257 319
#     4  10  22  39  57  77 102 138 187 241 292 332
#     4  11  22  34  49  72 108 150 184 222 271 321
#     4  10  20  35  53  77 111 148 184 222 268 326
#
# _framework density 17.055472000000002
#
# number of rings (size 3 to 8) (size 9 to 14) (size 15 to 20)
#    0.000    1.444    2.222    4.333    3.111    3.111 
#    0.000    0.000    0.000    0.000    0.000    0.778 
#    0.000    0.000    0.000    0.000    0.000    0.000 
#
# Total GULP energy -446269.683377 kJ/mol
# GULP energy per Si atom -12396.380094 kJ/mol
# Density = 1.701665 g / cm^3
# Si number density = 17.055472 Si / 1000 Ang^3
#
#
#
# Elastic Constant Matrix: (Units=GPa)
#
#
# Indices 1 2 3 4 5 6 
#
# 1 91.0374 47.7356 38.3463 0.0000 0.0000 0.0000
# 2 47.7356 154.2102 52.2235 0.0000 0.0000 0.0000
# 3 38.3463 52.2235 99.4142 0.0000 0.0000 0.0000
# 4 0.0000 0.0000 0.0000 37.0833 0.0000 0.0000
# 5 0.0000 0.0000 0.0000 0.0000 13.7130 0.0000
# 6 0.0000 0.0000 0.0000 0.0000 0.0000 22.0133
#
#
#
# Elastic Compliance Matrix: (Units=1/GPa)
#
#
# Indices 1 2 3 4 5 6 
#
# 1 0.014237 -0.003098 -0.003864 0.000000 0.000000 0.000000
# 2 -0.003098 0.008562 -0.003303 0.000000 0.000000 0.000000
# 3 -0.003864 -0.003303 0.013284 0.000000 0.000000 0.000000
# 4 0.000000 0.000000 0.000000 0.026966 0.000000 0.000000
# 5 0.000000 0.000000 0.000000 0.000000 0.072923 0.000000
# 6 0.000000 0.000000 0.000000 0.000000 0.000000 0.045427
#
#
# Mechanical properties :
#
#
# Convention : Reuss Voigt Hill
#
# Bulk Modulus (GPa) = 64.29509 69.03028 66.66269
# Shear Modulus (GPa) = 24.14127 28.31901 26.23014
#
# Velocity S-wave (km/s) = 3.76634 4.07923 3.92590
# Velocity P-wave (km/s) = 7.52949 7.92140 7.72793
#
# Compressibility (1/GPa) = 0.01555329
#
# Stress axis : x y z
#
# Youngs Moduli (GPa) = 70.24127 116.79174 75.27740
#
# Poissons Ratio (x) = 0.36188 0.29085
# Poissons Ratio (y) = 0.21764 0.24862
# Poissons Ratio (z) = 0.27139 0.38573
#
# Static dielectric constant tensor:
#      x y z
#    x 3.350350 0.000000 0.000000 
#    y 0.000000 3.502930 0.000000 
#    z 0.000000 0.000000 3.109850 
# 
# 
# High freq. dielectric constant tensor:
#      x y z
#    x 1.625550 0.000000 0.000000 
#    y 0.000000 1.684120 0.000000 
#    z 0.000000 0.000000 1.644620 
# 
# From -- ./inp_files/46527.got.cif
#   From: 2010.03.12/outbox.cif.g09.slc.cpg/sg65_24_cif.got.tgz:46527.got - 2010.04.10 20:52:16.
