data_PCOD8271043
_publ_section_title
;
Structure prediction by ZEFSAII (Michael W. Deem and Ramdas Pophale) SiO2 
 PCOD8271043
Probable space group: C M M M
;
_chemical_formula_sum "Si O2"
_cell_formula_units_Z 104
_cell_length_a 9.000707
_cell_length_b 19.931632
_cell_length_c 32.962091
_cell_angle_alpha 90.000000
_cell_angle_beta 90.000000
_cell_angle_gamma 90.000000
_cell_volume 5913.358901
_symmetry_space_group_name_H-M "C M M M"
_symmetry_group_IT_number 65
_symmetry_cell_setting 'orthorhombic'
loop_
_space_group_symop_operation_xyz
x,y,z
-x,-y,z
x,-y,-z
-x,y,-z
-x,-y,-z
x,y,-z
-x,y,z
x,-y,z
1/2+x,1/2+y,z
1/2-x,1/2-y,z
1/2+x,1/2-y,-z
1/2-x,1/2+y,-z
1/2-x,1/2-y,-z
1/2+x,1/2+y,-z
1/2-x,1/2+y,z
1/2+x,1/2-y,z
loop_
_atom_site_type_symbol
_atom_site_label
_atom_site_fract_x
_atom_site_fract_y
_atom_site_fract_z
Si Si1 0.327171 0.078062 0.259781
Si Si2 0.674815 0.322059 0.587810
Si Si3 0.825149 0.819319 0.201128
Si Si4 0.825644 0.181920 0.891970
Si Si5 0.676507 0.574543 0.954940
Si Si6 0.671942 0.680235 0.500000
Si Si7 0.173564 0.923142 0.343227
O O1 0.500000 0.096431 0.258062
O O2 0.239332 0.119115 0.226148
O O3 0.265365 0.097911 0.303747
O O4 0.298364 0.000000 0.250863
O O5 0.500000 0.310800 0.592360
O O6 0.750000 0.250000 0.594906
O O7 0.714084 0.354628 0.543099
O O8 0.731567 0.375739 0.620579
O O9 0.750000 0.750000 0.215372
O O10 0.785812 0.834810 0.154441
O O11 0.000000 0.813252 0.208552
O O12 0.750000 0.250000 0.906340
O O13 0.758878 0.123763 0.920637
O O14 0.000000 0.190280 0.897991
O O15 0.500000 0.573159 0.952352
O O16 0.739037 0.500000 0.946376
O O17 0.726038 0.598362 0.000000
O O18 0.500000 0.695814 0.500000
O O19 0.750000 0.750000 0.500000
O O20 0.000000 0.912341 0.334100
O O21 0.205912 0.000000 0.355626
#
# Coordination Sequence:
#
# PCOD8271043 Si02
#       7
#    16  16  16  16  16   8  16
#     4  10  21  36  53  73  97 126 161 200 243 292
#     4   9  17  29  47  70  94 122 156 193 232 276
#     4  10  20  34  52  73  99 129 161 201 245 289
#     4   9  18  31  48  71  97 125 157 193 235 282
#     4   8  14  26  45  69  96 125 159 198 234 270
#     4   8  14  26  43  65  93 121 151 188 230 274
#     4   9  18  33  50  68  94 127 160 194 235 283
#
# _framework density 17.587297
#
# number of rings (size 3 to 8) (size 9 to 14) (size 15 to 20)
#    0.000    2.923    0.000    1.385    0.000    3.692 
#    0.000    3.462    0.000    2.769    0.000    1.077 
#    0.000    8.615    0.000    0.000    0.000    0.000 
#
# Total GULP energy -644513.492013 kJ/mol
# GULP energy per Si atom -12394.490231 kJ/mol
# Density = 1.754727 g / cm^3
# Si number density = 17.587297 Si / 1000 Ang^3
#
#
#
# Elastic Constant Matrix: (Units=GPa)
#
#
# Indices 1 2 3 4 5 6 
#
# 1 45.8098 36.7805 42.1032 0.0000 0.0000 0.0000
# 2 36.7805 107.5119 90.9412 0.0000 0.0000 0.0000
# 3 42.1032 90.9412 135.6677 0.0000 0.0000 0.0000
# 4 0.0000 0.0000 0.0000 35.5807 0.0000 0.0000
# 5 0.0000 0.0000 0.0000 0.0000 17.2741 0.0000
# 6 0.0000 0.0000 0.0000 0.0000 0.0000 26.6224
#
#
#
# Elastic Compliance Matrix: (Units=1/GPa)
#
#
# Indices 1 2 3 4 5 6 
#
# 1 0.032082 -0.005898 -0.006003 0.000000 0.000000 0.000000
# 2 -0.005898 0.022566 -0.013296 0.000000 0.000000 0.000000
# 3 -0.006003 -0.013296 0.018146 0.000000 0.000000 0.000000
# 4 0.000000 0.000000 0.000000 0.028105 0.000000 0.000000
# 5 0.000000 0.000000 0.000000 0.000000 0.057890 0.000000
# 6 0.000000 0.000000 0.000000 0.000000 0.000000 0.037562
#
#
# Mechanical properties :
#
#
# Convention : Reuss Voigt Hill
#
# Bulk Modulus (GPa) = 44.64134 69.84879 57.24507
# Shear Modulus (GPa) = 19.66866 23.83975 21.75421
#
# Velocity S-wave (km/s) = 3.34779 3.68572 3.52081
# Velocity P-wave (km/s) = 6.35464 7.61015 7.01056
#
# Compressibility (1/GPa) = 0.02240076
#
# Stress axis : x y z
#
# Youngs Moduli (GPa) = 31.17032 44.31526 55.10706
#
# Poissons Ratio (x) = 0.26136 0.33080
# Poissons Ratio (y) = 0.18383 0.73270
# Poissons Ratio (z) = 0.18711 0.58921
#
# Static dielectric constant tensor:
#      x y z
#    x 3.035090 0.000000 0.000000 
#    y 0.000000 3.290500 0.000000 
#    z 0.000000 0.000000 3.714010 
# 
# 
# High freq. dielectric constant tensor:
#      x y z
#    x 1.665080 0.000000 0.000000 
#    y 0.000000 1.669460 0.000000 
#    z 0.000000 0.000000 1.691680 
# 
# From -- ./inp_files/76885.got.cif
#   From: 2010.03.12/outbox.cif.g09.slc.cpg/sg65_39_cif.got.tgz:76885.got - 2010.04.10 20:52:16.
