data_PCOD8271489
_publ_section_title
;
Structure prediction by ZEFSAII (Michael W. Deem and Ramdas Pophale) SiO2 
 PCOD8271489
Probable space group: C M M M
;
_chemical_formula_sum "Si O2"
_cell_formula_units_Z 104
_cell_length_a 19.382007
_cell_length_b 18.388314
_cell_length_c 15.775343
_cell_angle_alpha 90.000000
_cell_angle_beta 90.000000
_cell_angle_gamma 90.000000
_cell_volume 5622.370590
_symmetry_space_group_name_H-M "C M M M"
_symmetry_group_IT_number 65
_symmetry_cell_setting 'orthorhombic'
loop_
_space_group_symop_operation_xyz
x,y,z
-x,-y,z
x,-y,-z
-x,y,-z
-x,-y,-z
x,y,-z
-x,y,z
x,-y,z
1/2+x,1/2+y,z
1/2-x,1/2-y,z
1/2+x,1/2-y,-z
1/2-x,1/2+y,-z
1/2-x,1/2-y,-z
1/2+x,1/2+y,-z
1/2-x,1/2+y,z
1/2+x,1/2-y,z
loop_
_atom_site_type_symbol
_atom_site_label
_atom_site_fract_x
_atom_site_fract_y
_atom_site_fract_z
Si Si1 0.077813 0.853500 0.323139
Si Si2 0.721492 0.829250 0.594573
Si Si3 0.423525 0.083100 0.181176
Si Si4 0.787383 0.585507 0.092427
Si Si5 0.076553 0.314348 0.659599
Si Si6 0.291212 0.585610 0.255370
Si Si7 0.418342 0.581972 0.500000
O O1 0.081532 0.768056 0.307909
O O2 0.128231 0.892656 0.256526
O O3 0.105932 0.873654 0.417246
O O4 0.000000 0.883009 0.309200
O O5 0.745441 0.852491 0.500000
O O6 0.750000 0.750000 0.618299
O O7 0.637767 0.829583 0.593670
O O8 0.750631 0.884327 0.663548
O O9 0.500000 0.094426 0.142438
O O10 0.367752 0.103382 0.109945
O O11 0.411830 0.133583 0.261443
O O12 0.412941 0.000000 0.211898
O O13 0.775167 0.500000 0.088652
O O14 0.740448 0.618227 0.168064
O O15 0.768251 0.619353 0.000000
O O16 0.000000 0.327102 0.618698
O O17 0.282213 0.500000 0.257910
O O18 0.387249 0.500000 0.500000
O O19 0.500000 0.577774 0.500000
#
# Coordination Sequence:
#
# PCOD8271489 Si02
#       7
#    16  16  16  16  16  16   8
#     4  10  21  35  53  79 109 144 183 223 275 331
#     4  11  23  37  53  77 110 148 188 226 264 320
#     4   9  17  31  53  80 108 139 178 224 274 325
#     4   9  18  33  54  81 108 135 176 229 282 332
#     4  10  20  34  55  79 108 148 187 223 266 324
#     4  11  22  36  57  81 109 144 180 228 280 326
#     4   9  18  32  50  75 107 137 176 231 275 313
#
# _framework density 18.497536
#
# number of rings (size 3 to 8) (size 9 to 14) (size 15 to 20)
#    0.000    2.077    3.077    0.462    2.154    1.846 
#    0.000    1.538    0.000    4.615    0.000    7.538 
#    0.000    0.000    0.000    0.000    0.000    0.000 
#
# Total GULP energy -644572.168112 kJ/mol
# GULP energy per Si atom -12395.618618 kJ/mol
# Density = 1.845543 g / cm^3
# Si number density = 18.497536 Si / 1000 Ang^3
#
#
#
# Elastic Constant Matrix: (Units=GPa)
#
#
# Indices 1 2 3 4 5 6 
#
# 1 124.1660 20.4269 66.9481 0.0000 0.0000 0.0000
# 2 20.4269 68.2860 39.6857 0.0000 0.0000 0.0000
# 3 66.9481 39.6857 123.6723 0.0000 0.0000 0.0000
# 4 0.0000 0.0000 0.0000 3.6244 0.0000 0.0000
# 5 0.0000 0.0000 0.0000 0.0000 22.5887 0.0000
# 6 0.0000 0.0000 0.0000 0.0000 0.0000 23.0026
#
#
#
# Elastic Compliance Matrix: (Units=1/GPa)
#
#
# Indices 1 2 3 4 5 6 
#
# 1 0.011376 0.000216 -0.006228 0.000000 0.000000 0.000000
# 2 0.000216 0.018006 -0.005895 0.000000 0.000000 0.000000
# 3 -0.006228 -0.005895 0.013349 0.000000 0.000000 0.000000
# 4 0.000000 0.000000 0.000000 0.275909 0.000000 0.000000
# 5 0.000000 0.000000 0.000000 0.000000 0.044270 0.000000
# 6 0.000000 0.000000 0.000000 0.000000 0.000000 0.043473
#
#
# Mechanical properties :
#
#
# Convention : Reuss Voigt Hill
#
# Bulk Modulus (GPa) = 52.86041 63.36062 58.11051
# Shear Modulus (GPa) = 11.45474 22.44739 16.95107
#
# Velocity S-wave (km/s) = 2.49119 3.48736 3.03049
# Velocity P-wave (km/s) = 6.07567 7.10939 6.61276
#
# Compressibility (1/GPa) = 0.01891775
#
# Stress axis : x y z
#
# Youngs Moduli (GPa) = 87.90463 55.53838 74.91325
#
# Poissons Ratio (x) = -0.01201 0.46653
# Poissons Ratio (y) = -0.01902 0.44161
# Poissons Ratio (z) = 0.54744 0.32740
#
# Static dielectric constant tensor:
#      x y z
#    x 3.800770 0.000000 0.000000 
#    y 0.000000 3.276150 0.000000 
#    z 0.000000 0.000000 3.416170 
# 
# 
# High freq. dielectric constant tensor:
#      x y z
#    x 1.735000 0.000000 0.000000 
#    y 0.000000 1.702070 0.000000 
#    z 0.000000 0.000000 1.690570 
# 
# From -- ./inp_files/44426.got.cif
#   From: 2010.03.12/outbox.cif.g09.slc.cpg/sg65_23_cif.got.tgz:44426.got - 2010.04.10 20:52:16.
