data_PCOD8271572
_publ_section_title
;
Structure prediction by ZEFSAII (Michael W. Deem and Ramdas Pophale) SiO2 
 PCOD8271572
Probable space group: C M M M
;
_chemical_formula_sum "Si O2"
_cell_formula_units_Z 80
_cell_length_a 28.929856
_cell_length_b 15.552326
_cell_length_c 9.448787
_cell_angle_alpha 90.000000
_cell_angle_beta 90.000000
_cell_angle_gamma 90.000000
_cell_volume 4251.260152
_symmetry_space_group_name_H-M "C M M M"
_symmetry_group_IT_number 65
_symmetry_cell_setting 'orthorhombic'
loop_
_space_group_symop_operation_xyz
x,y,z
-x,-y,z
x,-y,-z
-x,y,-z
-x,-y,-z
x,y,-z
-x,y,z
x,-y,z
1/2+x,1/2+y,z
1/2-x,1/2-y,z
1/2+x,1/2-y,-z
1/2-x,1/2+y,-z
1/2-x,1/2-y,-z
1/2+x,1/2+y,-z
1/2-x,1/2+y,z
1/2+x,1/2-y,z
loop_
_atom_site_type_symbol
_atom_site_label
_atom_site_fract_x
_atom_site_fract_y
_atom_site_fract_z
Si Si1 0.146782 0.403584 0.165167
Si Si2 0.947864 0.149252 0.835481
Si Si3 0.549629 0.155194 0.832646
Si Si4 0.863755 0.095046 0.662622
Si Si5 0.696704 0.244116 0.333776
O O1 0.165227 0.500000 0.191402
O O2 0.093320 0.400406 0.218573
O O3 0.177086 0.338116 0.253665
O O4 0.149796 0.378392 0.000000
O O5 0.942757 0.247143 0.783134
O O6 0.911542 0.093727 0.748108
O O7 0.000000 0.115918 0.806948
O O8 0.935526 0.140277 0.000000
O O9 0.500000 0.120872 0.771556
O O10 0.546128 0.152659 0.000000
O O11 0.875875 0.112968 0.500000
O O12 0.828365 0.168150 0.717667
O O13 0.841039 0.000000 0.681272
O O14 0.690071 0.229188 0.500000
O O15 0.750000 0.250000 0.291888
#
# Coordination Sequence:
#
# PCOD8271572 Si02
#       5
#    16  16  16  16  16
#     4  10  20  34  56  86 115 142 176 219 266 317
#     4   9  17  31  53  79 107 142 181 217 257 311
#     4   8  14  27  49  77 109 143 176 211 253 305
#     4  10  21  36  54  78 107 138 177 224 271 319
#     4  10  22  40  60  79 102 139 183 226 275 325
#
# _framework density 18.817951000000001
#
# number of rings (size 3 to 8) (size 9 to 14) (size 15 to 20)
#    0.000    2.600    2.000    1.200    0.000    3.200 
#    0.000    6.000    0.000    0.600    0.000    1.400 
#    0.000    0.000    0.000    0.000    0.000    0.000 
#
# Total GULP energy -495775.099464 kJ/mol
# GULP energy per Si atom -12394.377487 kJ/mol
# Density = 1.877512 g / cm^3
# Si number density = 18.817951 Si / 1000 Ang^3
#
#
#
# Elastic Constant Matrix: (Units=GPa)
#
#
# Indices 1 2 3 4 5 6 
#
# 1 134.2009 69.2546 46.7262 0.0000 0.0000 0.0000
# 2 69.2546 117.2055 39.0200 0.0000 0.0000 0.0000
# 3 46.7262 39.0200 40.4586 0.0000 0.0000 0.0000
# 4 0.0000 0.0000 0.0000 26.1721 0.0000 0.0000
# 5 0.0000 0.0000 0.0000 0.0000 25.8557 0.0000
# 6 0.0000 0.0000 0.0000 0.0000 0.0000 14.3588
#
#
#
# Elastic Compliance Matrix: (Units=1/GPa)
#
#
# Indices 1 2 3 4 5 6 
#
# 1 0.013721 -0.004171 -0.011824 0.000000 0.000000 0.000000
# 2 -0.004171 0.013835 -0.008526 0.000000 0.000000 0.000000
# 3 -0.011824 -0.008526 0.046595 0.000000 0.000000 0.000000
# 4 0.000000 0.000000 0.000000 0.038209 0.000000 0.000000
# 5 0.000000 0.000000 0.000000 0.000000 0.038676 0.000000
# 6 0.000000 0.000000 0.000000 0.000000 0.000000 0.069644
#
#
# Mechanical properties :
#
#
# Convention : Reuss Voigt Hill
#
# Bulk Modulus (GPa) = 39.82576 66.87406 53.34991
# Shear Modulus (GPa) = 17.97980 22.40159 20.19069
#
# Velocity S-wave (km/s) = 3.09440 3.45401 3.27914
# Velocity P-wave (km/s) = 5.82896 7.17785 6.53828
#
# Compressibility (1/GPa) = 0.02510938
#
# Stress axis : x y z
#
# Youngs Moduli (GPa) = 72.88241 72.28016 21.46169
#
# Poissons Ratio (x) = 0.30148 0.25375
# Poissons Ratio (y) = 0.30400 0.18298
# Poissons Ratio (z) = 0.86173 0.61626
#
# Static dielectric constant tensor:
#      x y z
#    x -0.064710 0.000000 0.000000 
#    y 0.000000 3.484290 0.000000 
#    z 0.000000 0.000000 3.122670 
# 
# 
# High freq. dielectric constant tensor:
#      x y z
#    x 1.731890 0.000000 0.000000 
#    y 0.000000 1.733040 0.000000 
#    z 0.000000 0.000000 1.696430 
# 
# From -- ./inp_files/16036.got.cif
#   From: 2010.03.12/outbox.cif.g09.slc.cpg/sg65_9_cif.got.tgz:16036.got - 2010.04.10 20:52:16.
