data_PCOD8271266
_publ_section_title
;
Structure prediction by ZEFSAII (Michael W. Deem and Ramdas Pophale) SiO2 
 PCOD8271266
Probable space group: C M M M
;
_chemical_formula_sum "Si O2"
_cell_formula_units_Z 88
_cell_length_a 18.484241
_cell_length_b 7.783537
_cell_length_c 31.570032
_cell_angle_alpha 90.000000
_cell_angle_beta 90.000000
_cell_angle_gamma 90.000000
_cell_volume 4542.068071
_symmetry_space_group_name_H-M "C M M M"
_symmetry_group_IT_number 65
_symmetry_cell_setting 'orthorhombic'
loop_
_space_group_symop_operation_xyz
x,y,z
-x,-y,z
x,-y,-z
-x,y,-z
-x,-y,-z
x,y,-z
-x,y,z
x,-y,z
1/2+x,1/2+y,z
1/2-x,1/2-y,z
1/2+x,1/2-y,-z
1/2-x,1/2+y,-z
1/2-x,1/2-y,-z
1/2+x,1/2+y,-z
1/2-x,1/2+y,z
1/2+x,1/2-y,z
loop_
_atom_site_type_symbol
_atom_site_label
_atom_site_fract_x
_atom_site_fract_y
_atom_site_fract_z
Si Si1 0.083113 0.807060 0.163516
Si Si2 0.918237 0.704026 0.000000
Si Si3 0.666719 0.202122 0.917687
Si Si4 0.913558 0.500000 0.682844
Si Si5 0.083834 0.809445 0.373755
Si Si6 0.585568 0.000000 0.222596
Si Si7 0.169209 0.298750 0.452217
O O1 0.132992 0.797041 0.122422
O O2 0.111792 0.671606 0.198316
O O3 0.000000 0.764417 0.151021
O O4 0.089239 0.000000 0.182338
O O5 0.875757 0.771157 0.958808
O O6 0.919741 0.500000 0.000000
O O7 0.000000 0.777783 0.000000
O O8 0.750000 0.250000 0.922750
O O9 0.656451 0.000000 0.911735
O O10 0.883588 0.668947 0.658639
O O11 0.880822 0.500000 0.730261
O O12 0.000000 0.500000 0.684729
O O13 0.117146 0.799154 0.420339
O O14 0.000000 0.771534 0.379717
O O15 0.097851 0.000000 0.355019
O O16 0.500000 0.000000 0.226162
O O17 0.152390 0.236049 0.500000
O O18 0.156433 0.500000 0.447753
O O19 0.250000 0.250000 0.439406
#
# Coordination Sequence:
#
# PCOD8271266 Si02
#       7
#    16   8  16   8  16   8  16
#     4  10  20  35  57  86 113 142 187 231 275 332
#     4   9  19  34  55  81 112 152 192 234 276 324
#     4  11  21  35  55  81 114 153 191 229 278 333
#     4   9  18  34  55  82 112 142 182 225 277 336
#     4  10  20  34  54  81 112 147 184 227 276 328
#     4   9  18  34  58  84 112 144 178 230 283 328
#     4  10  20  34  53  78 108 145 187 230 273 325
#
# _framework density 19.374434999999998
#
# number of rings (size 3 to 8) (size 9 to 14) (size 15 to 20)
#    0.000    2.091    1.818    1.909    0.000    2.909 
#    0.000    6.818    0.000    4.364    0.000    0.000 
#    0.000    0.000    0.000    0.000    0.000    0.000 
#
# Total GULP energy -545624.936696 kJ/mol
# GULP energy per Si atom -12400.566743 kJ/mol
# Density = 1.933034 g / cm^3
# Si number density = 19.374435 Si / 1000 Ang^3
#
#
#
# Elastic Constant Matrix: (Units=GPa)
#
#
# Indices 1 2 3 4 5 6 
#
# 1 74.3516 30.9500 49.6497 0.0000 0.0000 0.0000
# 2 30.9500 118.6019 62.2948 0.0000 0.0000 0.0000
# 3 49.6497 62.2948 150.5020 0.0000 0.0000 0.0000
# 4 0.0000 0.0000 0.0000 13.3652 0.0000 0.0000
# 5 0.0000 0.0000 0.0000 0.0000 6.8143 0.0000
# 6 0.0000 0.0000 0.0000 0.0000 0.0000 23.7561
#
#
#
# Elastic Compliance Matrix: (Units=1/GPa)
#
#
# Indices 1 2 3 4 5 6 
#
# 1 0.017603 -0.001972 -0.004991 0.000000 0.000000 0.000000
# 2 -0.001972 0.010995 -0.003900 0.000000 0.000000 0.000000
# 3 -0.004991 -0.003900 0.009905 0.000000 0.000000 0.000000
# 4 0.000000 0.000000 0.000000 0.074821 0.000000 0.000000
# 5 0.000000 0.000000 0.000000 0.000000 0.146749 0.000000
# 6 0.000000 0.000000 0.000000 0.000000 0.000000 0.042094
#
#
# Mechanical properties :
#
#
# Convention : Reuss Voigt Hill
#
# Bulk Modulus (GPa) = 59.60688 69.91606 64.76147
# Shear Modulus (GPa) = 15.17508 22.15787 18.66648
#
# Velocity S-wave (km/s) = 2.80170 3.38548 3.10733
# Velocity P-wave (km/s) = 6.42640 7.17266 6.80976
#
# Compressibility (1/GPa) = 0.01677659
#
# Stress axis : x y z
#
# Youngs Moduli (GPa) = 56.80731 90.95180 100.95642
#
# Poissons Ratio (x) = 0.17938 0.50386
# Poissons Ratio (y) = 0.11204 0.39376
# Poissons Ratio (z) = 0.28352 0.35474
#
# Static dielectric constant tensor:
#      x y z
#    x 3.280160 0.000000 0.000000 
#    y 0.000000 3.740590 0.000000 
#    z 0.000000 0.000000 3.642020 
# 
# 
# High freq. dielectric constant tensor:
#      x y z
#    x 1.727520 0.000000 0.000000 
#    y 0.000000 1.766190 0.000000 
#    z 0.000000 0.000000 1.748920 
# 
# From -- ./inp_files/77990.got.cif
#   From: 2010.03.12/outbox.cif.g09.slc.cpg/sg65_39_cif.got.tgz:77990.got - 2010.04.10 20:52:16.
