data_PCOD8271264
_publ_section_title
;
Structure prediction by ZEFSAII (Michael W. Deem and Ramdas Pophale) SiO2 
 PCOD8271264
Probable space group: C M M M
;
_chemical_formula_sum "Si O2"
_cell_formula_units_Z 120
_cell_length_a 26.423225
_cell_length_b 27.842980
_cell_length_c 8.961390
_cell_angle_alpha 90.000000
_cell_angle_beta 90.000000
_cell_angle_gamma 90.000000
_cell_volume 6592.906499
_symmetry_space_group_name_H-M "C M M M"
_symmetry_group_IT_number 65
_symmetry_cell_setting 'orthorhombic'
loop_
_space_group_symop_operation_xyz
x,y,z
-x,-y,z
x,-y,-z
-x,y,-z
-x,-y,-z
x,y,-z
-x,y,z
x,-y,z
1/2+x,1/2+y,z
1/2-x,1/2-y,z
1/2+x,1/2-y,-z
1/2-x,1/2+y,-z
1/2-x,1/2-y,-z
1/2+x,1/2+y,-z
1/2-x,1/2+y,z
1/2+x,1/2-y,z
loop_
_atom_site_type_symbol
_atom_site_label
_atom_site_fract_x
_atom_site_fract_y
_atom_site_fract_z
Si Si1 0.911267 0.114719 0.674888
Si Si2 0.441788 0.191174 0.325743
Si Si3 0.354142 0.142536 0.176562
Si Si4 0.290476 0.946874 0.824209
Si Si5 0.440571 0.290137 0.170086
Si Si6 0.500000 0.556375 0.825145
Si Si7 0.204010 0.894371 0.671275
Si Si8 0.266776 0.197281 0.326014
O O1 0.923759 0.115684 0.500000
O O2 0.914007 0.168255 0.737470
O O3 0.854638 0.097013 0.708277
O O4 0.949753 0.078960 0.755183
O O5 0.431008 0.196918 0.500000
O O6 0.500000 0.178298 0.293639
O O7 0.408292 0.148659 0.256010
O O8 0.425641 0.240185 0.245364
O O9 0.332898 0.090829 0.230091
O O10 0.316101 0.183962 0.230671
O O11 0.360970 0.145608 0.000000
O O12 0.235300 0.932854 0.765088
O O13 0.305296 0.000000 0.766431
O O14 0.286601 0.945668 0.000000
O O15 0.500000 0.299437 0.177482
O O16 0.421150 0.290063 0.000000
O O17 0.500000 0.500000 0.791322
O O18 0.500000 0.567919 0.000000
O O19 0.215473 0.905195 0.500000
O O20 0.221289 0.839880 0.709444
O O21 0.281632 0.196720 0.500000
O O22 0.250000 0.250000 0.274254
#
# Coordination Sequence:
#
# PCOD8271264 Si02
#       8
#    16  16  16  16  16   8  16  16
#     4  11  22  36  56  79 108 142 179 228 282 337
#     4  10  21  36  55  80 112 150 188 222 263 320
#     4  10  20  34  54  82 112 142 180 227 272 321
#     4   9  19  37  59  81 107 141 180 223 274 330
#     4  10  20  34  53  78 108 142 182 223 265 316
#     4  11  25  43  59  75  99 137 187 241 292 339
#     4   9  20  35  51  79 109 138 179 223 270 322
#     4   9  18  33  52  74 106 148 182 215 263 324
#
# _framework density 18.20138
#
# number of rings (size 3 to 8) (size 9 to 14) (size 15 to 20)
#    0.000    2.200    0.667    1.800    1.867    4.533 
#    0.000    2.667    0.000    0.400    0.000    2.800 
#    0.000    0.000    0.000    0.000    0.000    0.000 
#
# Total GULP energy -744134.136506 kJ/mol
# GULP energy per Si atom -12402.235608 kJ/mol
# Density = 1.815995 g / cm^3
# Si number density = 18.201380 Si / 1000 Ang^3
#
#
#
# Elastic Constant Matrix: (Units=GPa)
#
#
# Indices 1 2 3 4 5 6 
#
# 1 104.8934 67.0799 52.9181 0.0000 0.0000 0.0000
# 2 67.0799 128.8605 52.3836 0.0000 0.0000 0.0000
# 3 52.9181 52.3836 82.8859 0.0000 0.0000 0.0000
# 4 0.0000 0.0000 0.0000 25.1883 0.0000 0.0000
# 5 0.0000 0.0000 0.0000 0.0000 30.0183 0.0000
# 6 0.0000 0.0000 0.0000 0.0000 0.0000 19.0640
#
#
#
# Elastic Compliance Matrix: (Units=1/GPa)
#
#
# Indices 1 2 3 4 5 6 
#
# 1 0.016865 -0.005924 -0.007024 0.000000 0.000000 0.000000
# 2 -0.005924 0.012524 -0.004133 0.000000 0.000000 0.000000
# 3 -0.007024 -0.004133 0.019161 0.000000 0.000000 0.000000
# 4 0.000000 0.000000 0.000000 0.039701 0.000000 0.000000
# 5 0.000000 0.000000 0.000000 0.000000 0.033313 0.000000
# 6 0.000000 0.000000 0.000000 0.000000 0.000000 0.052455
#
#
# Mechanical properties :
#
#
# Convention : Reuss Voigt Hill
#
# Bulk Modulus (GPa) = 69.49707 73.48921 71.49314
# Shear Modulus (GPa) = 23.47659 24.47133 23.97396
#
# Velocity S-wave (km/s) = 3.59531 3.67069 3.63319
# Velocity P-wave (km/s) = 7.44985 7.64386 7.54747
#
# Compressibility (1/GPa) = 0.01438910
#
# Stress axis : x y z
#
# Youngs Moduli (GPa) = 59.29268 79.84372 52.18945
#
# Poissons Ratio (x) = 0.47302 0.36655
# Poissons Ratio (y) = 0.35127 0.21570
# Poissons Ratio (z) = 0.41644 0.33000
#
# Static dielectric constant tensor:
#      x y z
#    x 3.358380 0.000000 0.000000 
#    y 0.000000 3.480980 0.000000 
#    z 0.000000 0.000000 3.416370 
# 
# 
# High freq. dielectric constant tensor:
#      x y z
#    x 1.701130 0.000000 0.000000 
#    y 0.000000 1.697810 0.000000 
#    z 0.000000 0.000000 1.713620 
# 
# From -- ./inp_files/17051.got.cif
#   From: 2010.03.12/outbox.cif.g09.slc.cpg/sg65_9_cif.got.tgz:17051.got - 2010.04.10 20:52:16.
