data_PCOD8271358
_publ_section_title
;
Structure prediction by ZEFSAII (Michael W. Deem and Ramdas Pophale) SiO2 
 PCOD8271358
Probable space group: C M M M
;
_chemical_formula_sum "Si O2"
_cell_formula_units_Z 88
_cell_length_a 18.407767
_cell_length_b 9.206606
_cell_length_c 27.594504
_cell_angle_alpha 90.000000
_cell_angle_beta 90.000000
_cell_angle_gamma 90.000000
_cell_volume 4676.524980
_symmetry_space_group_name_H-M "C M M M"
_symmetry_group_IT_number 65
_symmetry_cell_setting 'orthorhombic'
loop_
_space_group_symop_operation_xyz
x,y,z
-x,-y,z
x,-y,-z
-x,y,-z
-x,-y,-z
x,y,-z
-x,y,z
x,-y,z
1/2+x,1/2+y,z
1/2-x,1/2-y,z
1/2+x,1/2-y,-z
1/2-x,1/2+y,-z
1/2-x,1/2-y,-z
1/2+x,1/2+y,-z
1/2-x,1/2+y,z
1/2+x,1/2-y,z
loop_
_atom_site_type_symbol
_atom_site_label
_atom_site_fract_x
_atom_site_fract_y
_atom_site_fract_z
Si Si1 0.085717 0.837331 0.553993
Si Si2 0.823666 0.669923 0.261737
Si Si3 0.918077 0.827457 0.000000
Si Si4 0.673389 0.329128 0.908135
Si Si5 0.584007 0.332071 0.187067
Si Si6 0.322112 0.168247 0.626611
O O1 0.114148 0.797402 0.500000
O O2 0.113017 0.722610 0.593121
O O3 0.000000 0.829570 0.554638
O O4 0.111771 0.000000 0.567759
O O5 0.814112 0.500000 0.251069
O O6 0.750000 0.750000 0.245433
O O7 0.890855 0.733218 0.231745
O O8 0.841443 0.701578 0.317709
O O9 0.874922 0.772099 0.952867
O O10 0.000000 0.762893 0.000000
O O11 0.922926 0.000000 0.000000
O O12 0.687531 0.500000 0.912192
O O13 0.750000 0.250000 0.908193
O O14 0.630103 0.288137 0.859792
O O15 0.500000 0.299791 0.176034
O O16 0.596022 0.500000 0.200806
O O17 0.250000 0.250000 0.610146
O O18 0.309256 0.000000 0.617717
#
# Coordination Sequence:
#
# PCOD8271358 Si02
#       6
#    16  16   8  16  16  16
#     4   9  19  36  56  78 106 140 176 214 259 312
#     4  10  21  37  56  78 105 138 176 217 263 315
#     4   9  17  32  55  79 104 137 176 218 262 309
#     4  10  20  34  54  79 106 138 177 218 261 313
#     4  10  21  36  54  78 107 139 177 219 263 314
#     4  10  21  36  55  79 106 137 175 218 262 311
#
# _framework density 18.817391000000001
#
# number of rings (size 3 to 8) (size 9 to 14) (size 15 to 20)
#    0.000    2.273    0.000    3.000    0.000    8.727 
#    0.000    4.545    0.000    2.182    0.000    0.000 
#    0.000    0.000    0.000    0.000    0.000    0.000 
#
# Total GULP energy -545725.546546 kJ/mol
# GULP energy per Si atom -12402.853331 kJ/mol
# Density = 1.877456 g / cm^3
# Si number density = 18.817391 Si / 1000 Ang^3
#
#
#
# Elastic Constant Matrix: (Units=GPa)
#
#
# Indices 1 2 3 4 5 6 
#
# 1 124.6557 51.6110 65.5849 0.0000 0.0000 0.0000
# 2 51.6110 77.3540 57.3253 0.0000 0.0000 0.0000
# 3 65.5849 57.3253 110.9608 0.0000 0.0000 0.0000
# 4 0.0000 0.0000 0.0000 21.8325 0.0000 0.0000
# 5 0.0000 0.0000 0.0000 0.0000 37.7418 0.0000
# 6 0.0000 0.0000 0.0000 0.0000 0.0000 36.2635
#
#
#
# Elastic Compliance Matrix: (Units=1/GPa)
#
#
# Indices 1 2 3 4 5 6 
#
# 1 0.012609 -0.004683 -0.005034 0.000000 0.000000 0.000000
# 2 -0.004683 0.022686 -0.008953 0.000000 0.000000 0.000000
# 3 -0.005034 -0.008953 0.016613 0.000000 0.000000 0.000000
# 4 0.000000 0.000000 0.000000 0.045803 0.000000 0.000000
# 5 0.000000 0.000000 0.000000 0.000000 0.026496 0.000000
# 6 0.000000 0.000000 0.000000 0.000000 0.000000 0.027576
#
#
# Mechanical properties :
#
#
# Convention : Reuss Voigt Hill
#
# Bulk Modulus (GPa) = 68.63270 73.55699 71.09485
# Shear Modulus (GPa) = 25.77610 28.39751 27.08680
#
# Velocity S-wave (km/s) = 3.70510 3.88894 3.79813
# Velocity P-wave (km/s) = 7.40648 7.70324 7.55631
#
# Compressibility (1/GPa) = 0.01457031
#
# Stress axis : x y z
#
# Youngs Moduli (GPa) = 79.30730 44.07910 60.19496
#
# Poissons Ratio (x) = 0.20640 0.30300
# Poissons Ratio (y) = 0.37136 0.53891
# Poissons Ratio (z) = 0.39921 0.39463
#
# Static dielectric constant tensor:
#      x y z
#    x 3.394540 0.000000 0.000000 
#    y 0.000000 3.424210 0.000000 
#    z 0.000000 0.000000 3.567360 
# 
# 
# High freq. dielectric constant tensor:
#      x y z
#    x 1.732590 0.000000 0.000000 
#    y 0.000000 1.720200 0.000000 
#    z 0.000000 0.000000 1.741280 
# 
# From -- ./inp_files/70998.got.cif
#   From: 2010.03.12/outbox.cif.g09.slc.cpg/sg65_36_cif.got.tgz:70998.got - 2010.04.10 20:52:16.
