data_PCOD8271895
_publ_section_title
;
Structure prediction by ZEFSAII (Michael W. Deem and Ramdas Pophale) SiO2 
 PCOD8271895
Probable space group: C M M M
;
_chemical_formula_sum "Si O2"
_cell_formula_units_Z 72
_cell_length_a 7.644703
_cell_length_b 18.856632
_cell_length_c 26.772625
_cell_angle_alpha 90.000000
_cell_angle_beta 90.000000
_cell_angle_gamma 90.000000
_cell_volume 3859.363615
_symmetry_space_group_name_H-M "C M M M"
_symmetry_group_IT_number 65
_symmetry_cell_setting 'orthorhombic'
loop_
_space_group_symop_operation_xyz
x,y,z
-x,-y,z
x,-y,-z
-x,y,-z
-x,-y,-z
x,y,-z
-x,y,z
x,-y,z
1/2+x,1/2+y,z
1/2-x,1/2-y,z
1/2+x,1/2-y,-z
1/2-x,1/2+y,-z
1/2-x,1/2-y,-z
1/2+x,1/2+y,-z
1/2-x,1/2+y,z
1/2+x,1/2-y,z
loop_
_atom_site_type_symbol
_atom_site_label
_atom_site_fract_x
_atom_site_fract_y
_atom_site_fract_z
Si Si1 0.799748 0.083415 0.352286
Si Si2 0.205146 0.667525 0.000000
Si Si3 0.500000 0.915815 0.279025
Si Si4 0.803324 0.081239 0.095709
Si Si5 0.000000 0.416160 0.167987
Si Si6 0.295346 0.671276 0.445120
O O1 0.675756 0.109832 0.307279
O O2 0.724891 0.117362 0.403386
O O3 0.000000 0.106840 0.340690
O O4 0.786528 0.000000 0.359640
O O5 0.250000 0.750000 0.000000
O O6 0.289164 0.631195 0.048010
O O7 0.000000 0.654158 0.000000
O O8 0.500000 0.882280 0.223399
O O9 0.500000 0.000000 0.275886
O O10 0.672733 0.109274 0.138514
O O11 0.000000 0.086127 0.117066
O O12 0.757455 0.000000 0.080560
O O13 0.000000 0.500000 0.173036
O O14 0.210057 0.656368 0.500000
O O15 0.500000 0.661072 0.449784
O O16 0.250000 0.750000 0.427008
#
# Coordination Sequence:
#
# PCOD8271895 Si02
#       6
#    16   8   8  16   8  16
#     4   9  18  32  50  74 102 133 168 211 259 308
#     4  12  23  36  55  82 113 148 181 213 262 320
#     4   9  18  32  52  78 104 132 173 216 260 306
#     4  10  20  35  56  83 112 141 178 221 261 308
#     4   9  18  33  54  80 106 137 174 219 266 304
#     4   9  18  31  48  72  99 131 167 207 256 310
#
# _framework density 18.655923999999999
#
# number of rings (size 3 to 8) (size 9 to 14) (size 15 to 20)
#    0.000    2.444    1.111    1.333    1.556    2.667 
#    0.000    6.667    0.000    3.333    0.000    0.000 
#    0.000    0.000    0.000    0.000    0.000    0.000 
#
# Total GULP energy -446295.432318 kJ/mol
# GULP energy per Si atom -12397.095342 kJ/mol
# Density = 1.861346 g / cm^3
# Si number density = 18.655924 Si / 1000 Ang^3
#
#
#
# Elastic Constant Matrix: (Units=GPa)
#
#
# Indices 1 2 3 4 5 6 
#
# 1 112.5534 25.4991 67.5511 0.0000 0.0000 0.0000
# 2 25.4991 53.0911 49.7962 0.0000 0.0000 0.0000
# 3 67.5511 49.7962 171.1247 0.0000 0.0000 0.0000
# 4 0.0000 0.0000 0.0000 2.4356 0.0000 0.0000
# 5 0.0000 0.0000 0.0000 0.0000 9.6372 0.0000
# 6 0.0000 0.0000 0.0000 0.0000 0.0000 20.0184
#
#
#
# Elastic Compliance Matrix: (Units=1/GPa)
#
#
# Indices 1 2 3 4 5 6 
#
# 1 0.011764 -0.001781 -0.004126 0.000000 0.000000 0.000000
# 2 -0.001781 0.026176 -0.006914 0.000000 0.000000 0.000000
# 3 -0.004126 -0.006914 0.009484 0.000000 0.000000 0.000000
# 4 0.000000 0.000000 0.000000 0.410569 0.000000 0.000000
# 5 0.000000 0.000000 0.000000 0.000000 0.103765 0.000000
# 6 0.000000 0.000000 0.000000 0.000000 0.000000 0.049954
#
#
# Mechanical properties :
#
#
# Convention : Reuss Voigt Hill
#
# Bulk Modulus (GPa) = 45.90646 69.16245 57.53445
# Shear Modulus (GPa) = 7.75658 19.34644 13.55151
#
# Velocity S-wave (km/s) = 2.04126 3.22376 2.69809
# Velocity P-wave (km/s) = 5.49691 7.14213 6.37283
#
# Compressibility (1/GPa) = 0.02178343
#
# Stress axis : x y z
#
# Youngs Moduli (GPa) = 85.00351 38.20336 105.43743
#
# Poissons Ratio (x) = 0.06802 0.43501
# Poissons Ratio (y) = 0.15135 0.72901
# Poissons Ratio (z) = 0.35071 0.26414
#
# Static dielectric constant tensor:
#      x y z
#    x 3.640980 0.000000 0.000000 
#    y 0.000000 3.126890 0.000000 
#    z 0.000000 0.000000 3.775040 
# 
# 
# High freq. dielectric constant tensor:
#      x y z
#    x 1.736630 0.000000 0.000000 
#    y 0.000000 1.689300 0.000000 
#    z 0.000000 0.000000 1.720900 
# 
# From -- ./inp_files/59387.got.cif
#   From: 2010.03.12/outbox.cif.g09.slc.cpg/sg65_30_cif.got.tgz:59387.got - 2010.04.10 20:52:16.
