data_PCOD8271922
_publ_section_title
;
Structure prediction by ZEFSAII (Michael W. Deem and Ramdas Pophale) SiO2 
 PCOD8271922
Probable space group: C M M M
;
_chemical_formula_sum "Si O2"
_cell_formula_units_Z 88
_cell_length_a 8.752067
_cell_length_b 21.979595
_cell_length_c 24.961829
_cell_angle_alpha 90.000000
_cell_angle_beta 90.000000
_cell_angle_gamma 90.000000
_cell_volume 4801.829365
_symmetry_space_group_name_H-M "C M M M"
_symmetry_group_IT_number 65
_symmetry_cell_setting 'orthorhombic'
loop_
_space_group_symop_operation_xyz
x,y,z
-x,-y,z
x,-y,-z
-x,y,-z
-x,-y,-z
x,y,-z
-x,y,z
x,-y,z
1/2+x,1/2+y,z
1/2-x,1/2-y,z
1/2+x,1/2-y,-z
1/2-x,1/2+y,-z
1/2-x,1/2-y,-z
1/2+x,1/2+y,-z
1/2-x,1/2+y,z
1/2+x,1/2-y,z
loop_
_atom_site_type_symbol
_atom_site_label
_atom_site_fract_x
_atom_site_fract_y
_atom_site_fract_z
Si Si1 0.678658 0.119202 0.901227
Si Si2 0.819536 0.000000 0.062753
Si Si3 0.330539 0.071035 0.500000
Si Si4 0.822492 0.688842 0.202332
Si Si5 0.320962 0.685701 0.000000
Si Si6 0.818876 0.928960 0.611158
Si Si7 0.682237 0.184022 0.676796
O O1 0.500000 0.126272 0.913112
O O2 0.737002 0.052095 0.905404
O O3 0.720982 0.137641 0.840607
O O4 0.770486 0.154943 0.945684
O O5 0.000000 0.000000 0.071171
O O6 0.778464 0.000000 0.000000
O O7 0.500000 0.102008 0.500000
O O8 0.234757 0.090082 0.551951
O O9 0.354885 0.000000 0.500000
O O10 0.750000 0.750000 0.179687
O O11 0.763688 0.673275 0.261887
O O12 0.000000 0.700252 0.205342
O O13 0.250000 0.750000 0.000000
O O14 0.500000 0.687920 0.000000
O O15 0.745053 0.876889 0.648328
O O16 0.000000 0.923837 0.614837
O O17 0.769733 0.000000 0.624981
O O18 0.500000 0.186445 0.669434
O O19 0.750000 0.250000 0.656733
#
# Coordination Sequence:
#
# PCOD8271922 Si02
#       7
#    16   8   8  16   8  16  16
#     4  11  22  38  59  81 106 139 178 220 271 324
#     4  11  23  39  57  79 108 142 178 215 264 327
#     4   9  17  31  54  83 114 151 194 235 283 335
#     4   9  20  37  58  83 108 139 179 223 271 324
#     4  12  24  37  54  81 110 136 172 218 268 322
#     4  10  20  35  56  84 118 153 193 237 282 332
#     4  10  20  37  59  83 114 151 190 233 284 338
#
# _framework density 18.326349
#
# number of rings (size 3 to 8) (size 9 to 14) (size 15 to 20)
#    0.000    1.818    0.909    3.545    0.000    6.182 
#    1.636    0.455    0.000    0.000    0.000    0.000 
#    0.000    0.000    0.000    0.000    0.000    0.000 
#
# Total GULP energy -545198.960424 kJ/mol
# GULP energy per Si atom -12390.885464 kJ/mol
# Density = 1.828464 g / cm^3
# Si number density = 18.326349 Si / 1000 Ang^3
#
#
#
# Elastic Constant Matrix: (Units=GPa)
#
#
# Indices 1 2 3 4 5 6 
#
# 1 89.3490 55.1518 51.5475 0.0000 0.0000 0.0000
# 2 55.1518 144.4887 70.5820 0.0000 0.0000 0.0000
# 3 51.5475 70.5820 111.1284 0.0000 0.0000 0.0000
# 4 0.0000 0.0000 0.0000 35.6246 0.0000 0.0000
# 5 0.0000 0.0000 0.0000 0.0000 30.3263 0.0000
# 6 0.0000 0.0000 0.0000 0.0000 0.0000 34.0168
#
#
#
# Elastic Compliance Matrix: (Units=1/GPa)
#
#
# Indices 1 2 3 4 5 6 
#
# 1 0.016557 -0.003723 -0.005315 0.000000 0.000000 0.000000
# 2 -0.003723 0.010872 -0.005178 0.000000 0.000000 0.000000
# 3 -0.005315 -0.005178 0.014753 0.000000 0.000000 0.000000
# 4 0.000000 0.000000 0.000000 0.028071 0.000000 0.000000
# 5 0.000000 0.000000 0.000000 0.000000 0.032975 0.000000
# 6 0.000000 0.000000 0.000000 0.000000 0.000000 0.029397
#
#
# Mechanical properties :
#
#
# Convention : Reuss Voigt Hill
#
# Bulk Modulus (GPa) = 72.73578 77.72541 75.23060
# Shear Modulus (GPa) = 30.18618 31.17252 30.67935
#
# Velocity S-wave (km/s) = 4.06291 4.12875 4.09596
# Velocity P-wave (km/s) = 7.86034 8.07668 7.96924
#
# Compressibility (1/GPa) = 0.01374839
#
# Stress axis : x y z
#
# Youngs Moduli (GPa) = 60.39826 91.98351 67.78437
#
# Poissons Ratio (x) = 0.34249 0.36028
# Poissons Ratio (y) = 0.22489 0.35097
# Poissons Ratio (z) = 0.32102 0.47627
#
# Static dielectric constant tensor:
#      x y z
#    x 3.560770 0.000000 0.000000 
#    y 0.000000 3.282230 0.000000 
#    z 0.000000 0.000000 3.644420 
# 
# 
# High freq. dielectric constant tensor:
#      x y z
#    x 1.725340 0.000000 0.000000 
#    y 0.000000 1.710550 0.000000 
#    z 0.000000 0.000000 1.711410 
# 
# From -- ./inp_files/67666.got.cif
#   From: 2010.03.12/outbox.cif.g09.slc.cpg/sg65_34_cif.got.tgz:67666.got - 2010.04.10 20:52:16.
