data_PCOD8271201
_publ_section_title
;
Structure prediction by ZEFSAII (Michael W. Deem and Ramdas Pophale) SiO2 
 PCOD8271201
Probable space group: C M M M
;
_chemical_formula_sum "Si O2"
_cell_formula_units_Z 80
_cell_length_a 25.825072
_cell_length_b 9.026893
_cell_length_c 18.756334
_cell_angle_alpha 90.000000
_cell_angle_beta 90.000000
_cell_angle_gamma 90.000000
_cell_volume 4372.479614
_symmetry_space_group_name_H-M "C M M M"
_symmetry_group_IT_number 65
_symmetry_cell_setting 'orthorhombic'
loop_
_space_group_symop_operation_xyz
x,y,z
-x,-y,z
x,-y,-z
-x,y,-z
-x,-y,-z
x,y,-z
-x,y,z
x,-y,z
1/2+x,1/2+y,z
1/2-x,1/2-y,z
1/2+x,1/2-y,-z
1/2-x,1/2+y,-z
1/2-x,1/2-y,-z
1/2+x,1/2+y,-z
1/2-x,1/2+y,z
1/2+x,1/2-y,z
loop_
_atom_site_type_symbol
_atom_site_label
_atom_site_fract_x
_atom_site_fract_y
_atom_site_fract_z
Si Si1 0.500000 0.833296 0.915229
Si Si2 0.500000 0.332169 0.415177
Si Si3 0.696841 0.674310 0.660312
Si Si4 0.397218 0.830812 0.415321
Si Si5 0.697789 0.672811 0.824646
Si Si6 0.897645 0.826089 0.917881
O O1 0.551172 0.751726 0.886691
O O2 0.500000 0.000000 0.886095
O O3 0.500000 0.826956 0.000000
O O4 0.500000 0.500000 0.385259
O O5 0.500000 0.333657 0.500000
O O6 0.550533 0.246538 0.386552
O O7 0.700849 0.500000 0.646200
O O8 0.750000 0.750000 0.635116
O O9 0.651116 0.741050 0.614045
O O10 0.685849 0.711408 0.742752
O O11 0.395091 0.824565 0.500000
O O12 0.396005 0.000000 0.388063
O O13 0.705655 0.500000 0.836517
O O14 0.750000 0.750000 0.851362
O O15 0.650673 0.733198 0.872277
O O16 0.905735 0.000000 0.908256
O O17 0.887633 0.783507 0.000000
#
# Coordination Sequence:
#
# PCOD8271201 Si02
#       6
#     8   8  16  16  16  16
#     4   9  17  29  46  71 100 127 159 201 246 287
#     4   9  17  31  52  77 104 133 163 197 242 293
#     4  10  20  35  53  72  98 132 168 205 247 295
#     4  10  20  34  53  77 103 130 163 204 247 292
#     4   9  19  34  51  72  98 130 165 201 243 290
#     4   9  17  31  51  73  98 129 163 198 240 291
#
# _framework density 18.296254999999999
#
# number of rings (size 3 to 8) (size 9 to 14) (size 15 to 20)
#    0.000    2.600    0.000    1.800    0.000    6.000 
#    0.000    1.000    0.000    2.400    0.000    0.000 
#    0.000    0.000    0.000    0.000    0.000    0.000 
#
# Total GULP energy -496077.119650 kJ/mol
# GULP energy per Si atom -12401.927991 kJ/mol
# Density = 1.825461 g / cm^3
# Si number density = 18.296255 Si / 1000 Ang^3
#
#
#
# Elastic Constant Matrix: (Units=GPa)
#
#
# Indices 1 2 3 4 5 6 
#
# 1 175.9428 72.5482 40.2079 0.0000 0.0000 0.0000
# 2 72.5482 100.9222 26.5676 0.0000 0.0000 0.0000
# 3 40.2079 26.5676 27.6326 0.0000 0.0000 0.0000
# 4 0.0000 0.0000 0.0000 18.7490 0.0000 0.0000
# 5 0.0000 0.0000 0.0000 0.0000 -5.5021 0.0000
# 6 0.0000 0.0000 0.0000 0.0000 0.0000 41.3782
#
#
#
# Elastic Compliance Matrix: (Units=1/GPa)
#
#
# Indices 1 2 3 4 5 6 
#
# 1 0.009785 -0.004399 -0.010008 0.000000 0.000000 0.000000
# 2 -0.004399 0.015244 -0.008256 0.000000 0.000000 0.000000
# 3 -0.010008 -0.008256 0.058689 0.000000 0.000000 0.000000
# 4 0.000000 0.000000 0.000000 0.053336 0.000000 0.000000
# 5 0.000000 0.000000 0.000000 0.000000 -0.181750 0.000000
# 6 0.000000 0.000000 0.000000 0.000000 0.000000 0.024167
#
#
# Mechanical properties :
#
#
# Convention : Reuss Voigt Hill
#
# Bulk Modulus (GPa) = 26.04664 64.79389 45.42026
# Shear Modulus (GPa) = 132.99613 21.93662 77.46638
#
# Velocity S-wave (km/s) = 8.53511 3.46637 6.51398
# Velocity P-wave (km/s) = 10.55452 7.17716 9.02523
#
# Compressibility (1/GPa) = 0.03839267
#
# Stress axis : x y z
#
# Youngs Moduli (GPa) = 102.19985 65.59857 17.03890
#
# Poissons Ratio (x) = 0.28858 0.17053
# Poissons Ratio (y) = 0.44960 0.14066
# Poissons Ratio (z) = 1.02282 0.54155
#
# Static dielectric constant tensor:
#      x y z
#    x 3.587710 0.000000 0.000000 
#    y 0.000000 3.478120 0.000000 
#    z 0.000000 0.000000 3.124250 
# 
# 
# High freq. dielectric constant tensor:
#      x y z
#    x 1.724460 0.000000 0.000000 
#    y 0.000000 1.717280 0.000000 
#    z 0.000000 0.000000 1.676750 
# 
# From -- ./inp_files/59673.got.cif
#   From: 2010.03.12/outbox.cif.g09.slc.cpg/sg65_30_cif.got.tgz:59673.got - 2010.04.10 20:52:16.
