data_PCOD8271290
_publ_section_title
;
Structure prediction by ZEFSAII (Michael W. Deem and Ramdas Pophale) SiO2 
 PCOD8271290
Probable space group: C M M M
;
_chemical_formula_sum "Si O2"
_cell_formula_units_Z 88
_cell_length_a 22.183694
_cell_length_b 22.564443
_cell_length_c 9.046481
_cell_angle_alpha 90.000000
_cell_angle_beta 90.000000
_cell_angle_gamma 90.000000
_cell_volume 4528.330944
_symmetry_space_group_name_H-M "C M M M"
_symmetry_group_IT_number 65
_symmetry_cell_setting 'orthorhombic'
loop_
_space_group_symop_operation_xyz
x,y,z
-x,-y,z
x,-y,-z
-x,y,-z
-x,-y,-z
x,y,-z
-x,y,z
x,-y,z
1/2+x,1/2+y,z
1/2-x,1/2-y,z
1/2+x,1/2-y,-z
1/2-x,1/2+y,-z
1/2-x,1/2-y,-z
1/2+x,1/2+y,-z
1/2-x,1/2+y,z
1/2+x,1/2-y,z
loop_
_atom_site_type_symbol
_atom_site_label
_atom_site_fract_x
_atom_site_fract_y
_atom_site_fract_z
Si Si1 0.433011 0.722861 0.667608
Si Si2 0.710214 0.000000 0.834785
Si Si3 0.500000 0.932298 0.174992
Si Si4 0.847615 0.882170 0.673557
Si Si5 0.352963 0.500000 0.164471
Si Si6 0.790525 0.617137 0.325739
Si Si7 0.400873 0.838599 0.174764
O O1 0.415488 0.741827 0.500000
O O2 0.500000 0.695184 0.670209
O O3 0.386755 0.673424 0.726942
O O4 0.433713 0.778862 0.775610
O O5 0.686836 0.943917 0.745479
O O6 0.781494 0.000000 0.842454
O O7 0.682015 0.000000 0.000000
O O8 0.440706 0.895476 0.226284
O O9 0.500000 0.000000 0.240188
O O10 0.500000 0.935705 0.000000
O O11 0.853226 0.893475 0.500000
O O12 0.778365 0.868621 0.718273
O O13 0.873939 0.940858 0.751355
O O14 0.380785 0.500000 0.000000
O O15 0.798493 0.614553 0.500000
O O16 0.835739 0.664711 0.255155
O O17 0.391735 0.838459 0.000000
#
# Coordination Sequence:
#
# PCOD8271290 Si02
#       7
#    16   8   8  16   8  16  16
#     4  10  21  39  61  81 106 145 192 236 279 331
#     4   9  17  31  51  77 111 147 182 219 273 333
#     4   9  20  38  57  79 109 148 188 225 272 326
#     4   9  19  36  58  82 112 150 185 225 280 338
#     4   9  17  31  54  84 114 143 178 225 274 326
#     4  10  20  34  53  81 113 145 184 229 278 332
#     4  11  22  37  58  82 111 147 188 232 282 335
#
# _framework density 19.433209000000002
#
# number of rings (size 3 to 8) (size 9 to 14) (size 15 to 20)
#    0.000    2.273    0.909    1.636    1.273    4.364 
#    0.000    4.091    0.000    4.909    0.000    0.000 
#    0.000    0.000    0.000    0.000    0.000    0.000 
#
# Total GULP energy -545518.184500 kJ/mol
# GULP energy per Si atom -12398.140557 kJ/mol
# Density = 1.938898 g / cm^3
# Si number density = 19.433209 Si / 1000 Ang^3
#
#
#
# Elastic Constant Matrix: (Units=GPa)
#
#
# Indices 1 2 3 4 5 6 
#
# 1 99.0338 59.0459 39.1937 0.0000 0.0000 0.0000
# 2 59.0459 124.1616 43.7916 0.0000 0.0000 0.0000
# 3 39.1937 43.7916 79.3720 0.0000 0.0000 0.0000
# 4 0.0000 0.0000 0.0000 31.0826 0.0000 0.0000
# 5 0.0000 0.0000 0.0000 0.0000 20.4509 0.0000
# 6 0.0000 0.0000 0.0000 0.0000 0.0000 28.6369
#
#
#
# Elastic Compliance Matrix: (Units=1/GPa)
#
#
# Indices 1 2 3 4 5 6 
#
# 1 0.015226 -0.005698 -0.004375 0.000000 0.000000 0.000000
# 2 -0.005698 0.012132 -0.003880 0.000000 0.000000 0.000000
# 3 -0.004375 -0.003880 0.016900 0.000000 0.000000 0.000000
# 4 0.000000 0.000000 0.000000 0.032172 0.000000 0.000000
# 5 0.000000 0.000000 0.000000 0.000000 0.048898 0.000000
# 6 0.000000 0.000000 0.000000 0.000000 0.000000 0.034920
#
#
# Mechanical properties :
#
#
# Convention : Reuss Voigt Hill
#
# Bulk Modulus (GPa) = 61.15257 65.18109 63.16683
# Shear Modulus (GPa) = 25.82579 26.73648 26.28113
#
# Velocity S-wave (km/s) = 3.64943 3.71322 3.68147
# Velocity P-wave (km/s) = 7.02098 7.21096 7.11660
#
# Compressibility (1/GPa) = 0.01635254
#
# Stress axis : x y z
#
# Youngs Moduli (GPa) = 65.67630 82.42545 59.17164
#
# Poissons Ratio (x) = 0.46965 0.25888
# Poissons Ratio (y) = 0.37422 0.22959
# Poissons Ratio (z) = 0.28733 0.31981
#
# Static dielectric constant tensor:
#      x y z
#    x 3.492200 0.000000 0.000000 
#    y 0.000000 3.722880 0.000000 
#    z 0.000000 0.000000 3.485300 
# 
# 
# High freq. dielectric constant tensor:
#      x y z
#    x 1.749960 0.000000 0.000000 
#    y 0.000000 1.750480 0.000000 
#    z 0.000000 0.000000 1.749360 
# 
# From -- ./inp_files/14028.got.cif
#   From: 2010.03.12/outbox.cif.g09.slc.cpg/sg65_8_cif.got.tgz:14028.got - 2010.04.10 20:52:16.
