data_PCOD8271060
_publ_section_title
;
Structure prediction by ZEFSAII (Michael W. Deem and Ramdas Pophale) SiO2 
 PCOD8271060
Probable space group: C M M M
;
_chemical_formula_sum "Si O2"
_cell_formula_units_Z 88
_cell_length_a 30.565706
_cell_length_b 8.965561
_cell_length_c 17.378241
_cell_angle_alpha 90.000000
_cell_angle_beta 90.000000
_cell_angle_gamma 90.000000
_cell_volume 4762.310601
_symmetry_space_group_name_H-M "C M M M"
_symmetry_group_IT_number 65
_symmetry_cell_setting 'orthorhombic'
loop_
_space_group_symop_operation_xyz
x,y,z
-x,-y,z
x,-y,-z
-x,y,-z
-x,-y,-z
x,y,-z
-x,y,z
x,-y,z
1/2+x,1/2+y,z
1/2-x,1/2-y,z
1/2+x,1/2-y,-z
1/2-x,1/2+y,-z
1/2-x,1/2-y,-z
1/2+x,1/2+y,-z
1/2-x,1/2+y,z
1/2+x,1/2-y,z
loop_
_atom_site_type_symbol
_atom_site_label
_atom_site_fract_x
_atom_site_fract_y
_atom_site_fract_z
Si Si1 0.586854 0.831207 0.868957
Si Si2 0.048668 0.823829 0.587126
Si Si3 0.793828 0.322446 0.235509
Si Si4 0.384131 0.166613 0.303257
Si Si5 0.327760 0.673583 0.086574
Si Si6 0.000000 0.834627 0.089963
O O1 0.592428 0.831557 0.778069
O O2 0.622722 0.732072 0.911897
O O3 0.540784 0.759507 0.883770
O O4 0.589101 0.000000 0.901170
O O5 0.056609 0.768930 0.500000
O O6 0.088311 0.765888 0.638633
O O7 0.000000 0.768756 0.614324
O O8 0.049945 0.000000 0.591306
O O9 0.790338 0.500000 0.231676
O O10 0.750000 0.250000 0.271071
O O11 0.834407 0.273415 0.290082
O O12 0.799064 0.264298 0.148032
O O13 0.382516 0.000000 0.337280
O O14 0.327179 0.500000 0.109236
O O15 0.309195 0.697684 0.000000
O O16 0.000000 0.000000 0.128230
O O17 0.000000 0.853891 0.000000
#
# Coordination Sequence:
#
# PCOD8271060 Si02
#       6
#    16  16  16  16  16   8
#     4  10  21  35  50  71 100 135 176 223 270 318
#     4   9  19  35  55  83 116 146 177 212 253 306
#     4  10  21  37  56  79 106 138 179 225 273 325
#     4   9  20  36  54  79 108 138 174 216 263 315
#     4  10  20  34  52  74 101 134 175 223 273 326
#     4  11  23  35  47  67  96 133 180 227 269 318
#
# _framework density 18.478425000000001
#
# number of rings (size 3 to 8) (size 9 to 14) (size 15 to 20)
#    0.000    2.273    0.000    4.091    1.273    9.818 
#    0.000    0.909    0.000    0.545    0.000    0.000 
#    0.000    0.000    0.000    0.000    0.000    0.000 
#
# Total GULP energy -545459.516834 kJ/mol
# GULP energy per Si atom -12396.807201 kJ/mol
# Density = 1.843637 g / cm^3
# Si number density = 18.478425 Si / 1000 Ang^3
#
#
#
# Elastic Constant Matrix: (Units=GPa)
#
#
# Indices 1 2 3 4 5 6 
#
# 1 142.2271 46.2511 50.0074 0.0000 0.0000 0.0000
# 2 46.2511 87.8308 37.4456 0.0000 0.0000 0.0000
# 3 50.0074 37.4456 64.2057 0.0000 0.0000 0.0000
# 4 0.0000 0.0000 0.0000 4.3377 0.0000 0.0000
# 5 0.0000 0.0000 0.0000 0.0000 16.2757 0.0000
# 6 0.0000 0.0000 0.0000 0.0000 0.0000 36.4820
#
#
#
# Elastic Compliance Matrix: (Units=1/GPa)
#
#
# Indices 1 2 3 4 5 6 
#
# 1 0.010116 -0.002619 -0.006351 0.000000 0.000000 0.000000
# 2 -0.002619 0.015831 -0.007193 0.000000 0.000000 0.000000
# 3 -0.006351 -0.007193 0.024717 0.000000 0.000000 0.000000
# 4 0.000000 0.000000 0.000000 0.230535 0.000000 0.000000
# 5 0.000000 0.000000 0.000000 0.000000 0.061441 0.000000
# 6 0.000000 0.000000 0.000000 0.000000 0.000000 0.027411
#
#
# Mechanical properties :
#
#
# Convention : Reuss Voigt Hill
#
# Bulk Modulus (GPa) = 54.53474 62.40797 58.47135
# Shear Modulus (GPa) = 12.24016 22.12306 17.18161
#
# Velocity S-wave (km/s) = 2.57651 3.46387 3.05260
# Velocity P-wave (km/s) = 6.19903 7.06007 6.64351
#
# Compressibility (1/GPa) = 0.01833694
#
# Stress axis : x y z
#
# Youngs Moduli (GPa) = 98.85444 63.16540 40.45810
#
# Poissons Ratio (x) = 0.16544 0.25696
# Poissons Ratio (y) = 0.25891 0.29102
# Poissons Ratio (z) = 0.62786 0.45436
#
# Static dielectric constant tensor:
#      x y z
#    x 3.398630 0.000000 0.000000 
#    y 0.000000 3.596430 0.000000 
#    z 0.000000 0.000000 3.210290 
# 
# 
# High freq. dielectric constant tensor:
#      x y z
#    x 1.724230 0.000000 0.000000 
#    y 0.000000 1.725580 0.000000 
#    z 0.000000 0.000000 1.691320 
# 
# From -- ./inp_files/50306.got.cif
#   From: 2010.03.12/outbox.cif.g09.slc.cpg/sg65_26_cif.got.tgz:50306.got - 2010.04.10 20:52:16.
