data_PCOD8271086
_publ_section_title
;
Structure prediction by ZEFSAII (Michael W. Deem and Ramdas Pophale) SiO2 
 PCOD8271086
Probable space group: C M M M
;
_chemical_formula_sum "Si O2"
_cell_formula_units_Z 72
_cell_length_a 14.316528
_cell_length_b 29.934685
_cell_length_c 9.397906
_cell_angle_alpha 90.000000
_cell_angle_beta 90.000000
_cell_angle_gamma 90.000000
_cell_volume 4027.573700
_symmetry_space_group_name_H-M "C M M M"
_symmetry_group_IT_number 65
_symmetry_cell_setting 'orthorhombic'
loop_
_space_group_symop_operation_xyz
x,y,z
-x,-y,z
x,-y,-z
-x,y,-z
-x,-y,-z
x,y,-z
-x,y,z
x,-y,z
1/2+x,1/2+y,z
1/2-x,1/2-y,z
1/2+x,1/2-y,-z
1/2-x,1/2+y,-z
1/2-x,1/2-y,-z
1/2+x,1/2+y,-z
1/2-x,1/2+y,z
1/2+x,1/2-y,z
loop_
_atom_site_type_symbol
_atom_site_label
_atom_site_fract_x
_atom_site_fract_y
_atom_site_fract_z
Si Si1 0.697642 0.205850 0.664782
Si Si2 0.000000 0.553065 0.339347
Si Si3 0.698368 0.368192 0.164553
Si Si4 0.000000 0.165668 0.832541
Si Si5 0.177854 0.449212 0.835938
Si Si6 0.000000 0.256938 0.337229
O O1 0.720444 0.197495 0.500000
O O2 0.750000 0.250000 0.719813
O O3 0.732317 0.163621 0.751036
O O4 0.588213 0.211829 0.694403
O O5 0.907434 0.569796 0.258351
O O6 0.000000 0.500000 0.339344
O O7 0.000000 0.572328 0.500000
O O8 0.591297 0.362314 0.215678
O O9 0.730457 0.419160 0.192566
O O10 0.707617 0.355345 0.000000
O O11 0.000000 0.213662 0.760326
O O12 0.000000 0.173899 0.000000
O O13 0.203967 0.500000 0.793815
O O14 0.146206 0.446475 0.000000
O O15 0.000000 0.239886 0.500000
#
# Coordination Sequence:
#
# PCOD8271086 Si02
#       6
#    16   8  16   8  16   8
#     4  10  20  34  53  76 103 134 169 210 256 308
#     4   9  17  30  51  78 104 132 168 211 258 305
#     4  10  21  35  53  77 104 135 175 216 259 307
#     4  10  20  34  52  75 102 133 171 216 259 301
#     4   9  18  34  54  76 106 142 175 210 256 311
#     4  10  20  35  53  75 103 135 171 207 252 310
#
# _framework density 17.876767999999998
#
# number of rings (size 3 to 8) (size 9 to 14) (size 15 to 20)
#    0.000    2.333    2.222    0.333    0.000    4.444 
#    0.000    2.778    0.000    3.333    0.000    0.000 
#    0.000    6.222    0.000    0.000    0.000    0.000 
#
# Total GULP energy -446424.051981 kJ/mol
# GULP energy per Si atom -12400.668111 kJ/mol
# Density = 1.783608 g / cm^3
# Si number density = 17.876768 Si / 1000 Ang^3
#
#
#
# Elastic Constant Matrix: (Units=GPa)
#
#
# Indices 1 2 3 4 5 6 
#
# 1 148.2352 61.3483 45.3216 0.0000 0.0000 0.0000
# 2 61.3483 93.2953 37.4119 0.0000 0.0000 0.0000
# 3 45.3216 37.4119 55.3216 0.0000 0.0000 0.0000
# 4 0.0000 0.0000 0.0000 18.5246 0.0000 0.0000
# 5 0.0000 0.0000 0.0000 0.0000 18.6255 0.0000
# 6 0.0000 0.0000 0.0000 0.0000 0.0000 13.6790
#
#
#
# Elastic Compliance Matrix: (Units=1/GPa)
#
#
# Indices 1 2 3 4 5 6 
#
# 1 0.010283 -0.004643 -0.005285 0.000000 0.000000 0.000000
# 2 -0.004643 0.016803 -0.007560 0.000000 0.000000 0.000000
# 3 -0.005285 -0.007560 0.027518 0.000000 0.000000 0.000000
# 4 0.000000 0.000000 0.000000 0.053982 0.000000 0.000000
# 5 0.000000 0.000000 0.000000 0.000000 0.053690 0.000000
# 6 0.000000 0.000000 0.000000 0.000000 0.000000 0.073105
#
#
# Mechanical properties :
#
#
# Convention : Reuss Voigt Hill
#
# Bulk Modulus (GPa) = 50.94290 65.00174 57.97232
# Shear Modulus (GPa) = 18.05713 20.35051 19.20382
#
# Velocity S-wave (km/s) = 3.18164 3.37765 3.28111
# Velocity P-wave (km/s) = 6.48503 7.18688 6.84496
#
# Compressibility (1/GPa) = 0.01962982
#
# Stress axis : x y z
#
# Youngs Moduli (GPa) = 97.24565 59.51275 36.33994
#
# Poissons Ratio (x) = 0.27630 0.19205
# Poissons Ratio (y) = 0.45149 0.27472
# Poissons Ratio (z) = 0.51391 0.44990
#
# Static dielectric constant tensor:
#      x y z
#    x 3.540830 0.000000 0.000000 
#    y 0.000000 3.169540 0.000000 
#    z 0.000000 0.000000 3.338030 
# 
# 
# High freq. dielectric constant tensor:
#      x y z
#    x 1.697840 0.000000 0.000000 
#    y 0.000000 1.677170 0.000000 
#    z 0.000000 0.000000 1.688340 
# 
# From -- ./inp_files/7361.got.cif
#   From: 2010.03.12/outbox.cif.g09.slc.cpg/sg65_4_cif.got.tgz:7361.got - 2010.04.10 20:52:16.
