data_PCOD8271027
_publ_section_title
;
Structure prediction by ZEFSAII (Michael W. Deem and Ramdas Pophale) SiO2 
 PCOD8271027
Probable space group: C M M M
;
_chemical_formula_sum "Si O2"
_cell_formula_units_Z 88
_cell_length_a 30.068324
_cell_length_b 18.041290
_cell_length_c 9.066465
_cell_angle_alpha 90.000000
_cell_angle_beta 90.000000
_cell_angle_gamma 90.000000
_cell_volume 4918.297536
_symmetry_space_group_name_H-M "C M M M"
_symmetry_group_IT_number 65
_symmetry_cell_setting 'orthorhombic'
loop_
_space_group_symop_operation_xyz
x,y,z
-x,-y,z
x,-y,-z
-x,y,-z
-x,-y,-z
x,y,-z
-x,y,z
x,-y,z
1/2+x,1/2+y,z
1/2-x,1/2-y,z
1/2+x,1/2-y,-z
1/2-x,1/2+y,-z
1/2-x,1/2-y,-z
1/2+x,1/2+y,-z
1/2-x,1/2+y,z
1/2+x,1/2-y,z
loop_
_atom_site_type_symbol
_atom_site_label
_atom_site_fract_x
_atom_site_fract_y
_atom_site_fract_z
Si Si1 0.170911 0.916736 0.666274
Si Si2 0.077943 0.845314 0.665876
Si Si3 0.000000 0.080972 0.826889
Si Si4 0.702743 0.274503 0.172371
Si Si5 0.050922 0.413143 0.671420
Si Si6 0.888815 0.703223 0.825592
O O1 0.189212 0.909535 0.500000
O O2 0.118598 0.901858 0.668205
O O3 0.194481 0.856210 0.766003
O O4 0.179792 0.000000 0.726943
O O5 0.059272 0.836617 0.500000
O O6 0.088055 0.765037 0.728402
O O7 0.042849 0.876463 0.777173
O O8 0.000000 0.000000 0.753686
O O9 0.000000 0.075618 0.000000
O O10 0.750000 0.250000 0.240356
O O11 0.664296 0.213223 0.208185
O O12 0.706701 0.285560 0.000000
O O13 0.059377 0.394845 0.500000
O O14 0.056828 0.500000 0.701504
O O15 0.088939 0.373269 0.770237
O O16 0.000000 0.389474 0.714211
O O17 0.897678 0.712682 0.000000
#
# Coordination Sequence:
#
# PCOD8271027 Si02
#       6
#    16  16   8  16  16  16
#     4   9  18  33  53  77 102 129 168 214 257 305
#     4  10  20  34  52  72  99 137 174 209 251 302
#     4  11  23  35  47  69 102 135 170 213 253 289
#     4   9  19  36  55  76 104 138 175 214 261 318
#     4   9  19  36  56  77 104 140 180 219 263 321
#     4  10  20  34  54  79 105 134 172 219 264 310
#
# _framework density 17.892371000000001
#
# number of rings (size 3 to 8) (size 9 to 14) (size 15 to 20)
#    0.000    2.455    0.000    2.455    1.273    4.364 
#    0.000    1.818    0.000    5.455    0.000    0.000 
#    0.000    0.000    0.000    0.000    0.000    0.000 
#
# Total GULP energy -545301.697005 kJ/mol
# GULP energy per Si atom -12393.220386 kJ/mol
# Density = 1.785165 g / cm^3
# Si number density = 17.892371 Si / 1000 Ang^3
#
#
#
# Elastic Constant Matrix: (Units=GPa)
#
#
# Indices 1 2 3 4 5 6 
#
# 1 104.3769 53.9260 36.3169 0.0000 0.0000 0.0000
# 2 53.9260 88.7365 29.1074 0.0000 0.0000 0.0000
# 3 36.3169 29.1074 58.1888 0.0000 0.0000 0.0000
# 4 0.0000 0.0000 0.0000 32.7412 0.0000 0.0000
# 5 0.0000 0.0000 0.0000 0.0000 24.6022 0.0000
# 6 0.0000 0.0000 0.0000 0.0000 0.0000 20.2729
#
#
#
# Elastic Compliance Matrix: (Units=1/GPa)
#
#
# Indices 1 2 3 4 5 6 
#
# 1 0.015511 -0.007478 -0.005940 0.000000 0.000000 0.000000
# 2 -0.007478 0.017086 -0.003880 0.000000 0.000000 0.000000
# 3 -0.005940 -0.003880 0.022834 0.000000 0.000000 0.000000
# 4 0.000000 0.000000 0.000000 0.030543 0.000000 0.000000
# 5 0.000000 0.000000 0.000000 0.000000 0.040647 0.000000
# 6 0.000000 0.000000 0.000000 0.000000 0.000000 0.049327
#
#
# Mechanical properties :
#
#
# Convention : Reuss Voigt Hill
#
# Bulk Modulus (GPa) = 47.99566 54.44476 51.22021
# Shear Modulus (GPa) = 22.98983 24.32005 23.65494
#
# Velocity S-wave (km/s) = 3.58843 3.69079 3.63997
# Velocity P-wave (km/s) = 6.63717 6.97550 6.80844
#
# Compressibility (1/GPa) = 0.02083522
#
# Stress axis : x y z
#
# Youngs Moduli (GPa) = 64.47156 58.52679 43.79487
#
# Poissons Ratio (x) = 0.43763 0.26015
# Poissons Ratio (y) = 0.48209 0.16993
# Poissons Ratio (z) = 0.38297 0.22709
#
# Static dielectric constant tensor:
#      x y z
#    x 3.583020 0.000000 0.000000 
#    y 0.000000 3.300060 0.000000 
#    z 0.000000 0.000000 3.317020 
# 
# 
# High freq. dielectric constant tensor:
#      x y z
#    x 1.683960 0.000000 0.000000 
#    y 0.000000 1.692260 0.000000 
#    z 0.000000 0.000000 1.696090 
# 
# From -- ./inp_files/10025.got.cif
#   From: 2010.03.12/outbox.cif.g09.slc.cpg/sg65_6_cif.got.tgz:10025.got - 2010.04.10 20:52:16.
