data_PCOD8271450
_publ_section_title
;
Structure prediction by ZEFSAII (Michael W. Deem and Ramdas Pophale) SiO2 
 PCOD8271450
Probable space group: C M M M
;
_chemical_formula_sum "Si O2"
_cell_formula_units_Z 96
_cell_length_a 30.173411
_cell_length_b 19.557279
_cell_length_c 8.670224
_cell_angle_alpha 90.000000
_cell_angle_beta 90.000000
_cell_angle_gamma 90.000000
_cell_volume 5116.384301
_symmetry_space_group_name_H-M "C M M M"
_symmetry_group_IT_number 65
_symmetry_cell_setting 'orthorhombic'
loop_
_space_group_symop_operation_xyz
x,y,z
-x,-y,z
x,-y,-z
-x,y,-z
-x,-y,-z
x,y,-z
-x,y,z
x,-y,z
1/2+x,1/2+y,z
1/2-x,1/2-y,z
1/2+x,1/2-y,-z
1/2-x,1/2+y,-z
1/2-x,1/2-y,-z
1/2+x,1/2+y,-z
1/2-x,1/2+y,z
1/2+x,1/2-y,z
loop_
_atom_site_type_symbol
_atom_site_label
_atom_site_fract_x
_atom_site_fract_y
_atom_site_fract_z
Si Si1 0.665567 0.422533 0.321429
Si Si2 0.551976 0.780275 0.319362
Si Si3 0.260333 0.076780 0.821188
Si Si4 0.049804 0.571886 0.317097
Si Si5 0.293159 0.792456 0.680874
Si Si6 0.129247 0.205795 0.178569
O O1 0.659987 0.403635 0.500000
O O2 0.650800 0.500000 0.286653
O O3 0.716482 0.410989 0.278209
O O4 0.634561 0.373844 0.219967
O O5 0.560646 0.768480 0.500000
O O6 0.500000 0.772664 0.281751
O O7 0.570598 0.855649 0.264594
O O8 0.578966 0.725247 0.221102
O O9 0.295301 0.133961 0.766513
O O10 0.279237 0.000000 0.791614
O O11 0.248582 0.086834 0.000000
O O12 0.048297 0.573569 0.500000
O O13 0.073744 0.500000 0.262309
O O14 0.000000 0.569761 0.252836
O O15 0.292096 0.806181 0.500000
O O16 0.250000 0.750000 0.735574
O O17 0.336921 0.750834 0.722340
O O18 0.138687 0.217976 0.000000
#
# Coordination Sequence:
#
# PCOD8271450 Si02
#       6
#    16  16  16  16  16  16
#     4  10  20  35  56  81 108 139 179 224 267 322
#     4   9  18  34  56  80 108 143 184 230 277 329
#     4  10  20  34  54  81 113 147 181 221 274 332
#     4   7  10  20  43  74 101 126 164 214 262 306
#     4  11  22  36  56  80 108 145 187 230 268 316
#     4  12  24  36  55  81 112 147 182 226 278 331
#
# _framework density 18.763251
#
# number of rings (size 3 to 8) (size 9 to 14) (size 15 to 20)
#    0.000    2.167    1.667    4.500    0.000    3.000 
#    0.000    0.833    0.000    4.000    0.000    5.833 
#    0.000    0.000    0.000    0.000    0.000    0.000 
#
# Total GULP energy -594882.416465 kJ/mol
# GULP energy per Si atom -12393.383676 kJ/mol
# Density = 1.872054 g / cm^3
# Si number density = 18.763251 Si / 1000 Ang^3
#
#
#
# Elastic Constant Matrix: (Units=GPa)
#
#
# Indices 1 2 3 4 5 6 
#
# 1 55.8664 38.5519 18.9720 0.0000 0.0000 0.0000
# 2 38.5519 126.4210 36.9114 0.0000 0.0000 0.0000
# 3 18.9720 36.9114 53.3971 0.0000 0.0000 0.0000
# 4 0.0000 0.0000 0.0000 25.6060 0.0000 0.0000
# 5 0.0000 0.0000 0.0000 0.0000 16.3644 0.0000
# 6 0.0000 0.0000 0.0000 0.0000 0.0000 26.6401
#
#
#
# Elastic Compliance Matrix: (Units=1/GPa)
#
#
# Indices 1 2 3 4 5 6 
#
# 1 0.023412 -0.005902 -0.004238 0.000000 0.000000 0.000000
# 2 -0.005902 0.011398 -0.005782 0.000000 0.000000 0.000000
# 3 -0.004238 -0.005782 0.024231 0.000000 0.000000 0.000000
# 4 0.000000 0.000000 0.000000 0.039053 0.000000 0.000000
# 5 0.000000 0.000000 0.000000 0.000000 0.061108 0.000000
# 6 0.000000 0.000000 0.000000 0.000000 0.000000 0.037537
#
#
# Mechanical properties :
#
#
# Convention : Reuss Voigt Hill
#
# Bulk Modulus (GPa) = 36.77076 47.17278 41.97177
# Shear Modulus (GPa) = 21.03936 23.13871 22.08903
#
# Velocity S-wave (km/s) = 3.35222 3.51549 3.43483
# Velocity P-wave (km/s) = 5.88413 6.45553 6.17644
#
# Compressibility (1/GPa) = 0.02719552
#
# Stress axis : x y z
#
# Youngs Moduli (GPa) = 42.71316 87.73405 41.27028
#
# Poissons Ratio (x) = 0.51780 0.17492
# Poissons Ratio (y) = 0.25209 0.23863
# Poissons Ratio (z) = 0.18104 0.50729
#
# Static dielectric constant tensor:
#      x y z
#    x 3.044810 0.000000 0.000000 
#    y 0.000000 3.943360 0.000000 
#    z 0.000000 0.000000 3.241150 
# 
# 
# High freq. dielectric constant tensor:
#      x y z
#    x 1.682410 0.000000 0.000000 
#    y 0.000000 1.746860 0.000000 
#    z 0.000000 0.000000 1.717100 
# 
# From -- ./inp_files/16334.got.cif
#   From: 2010.03.12/outbox.cif.g09.slc.cpg/sg65_9_cif.got.tgz:16334.got - 2010.04.10 20:52:16.
