data_PCOD8271705
_publ_section_title
;
Structure prediction by ZEFSAII (Michael W. Deem and Ramdas Pophale) SiO2 
 PCOD8271705
Probable space group: C M M M
;
_chemical_formula_sum "Si O2"
_cell_formula_units_Z 96
_cell_length_a 19.133824
_cell_length_b 9.421834
_cell_length_c 30.096574
_cell_angle_alpha 90.000000
_cell_angle_beta 90.000000
_cell_angle_gamma 90.000000
_cell_volume 5425.681352
_symmetry_space_group_name_H-M "C M M M"
_symmetry_group_IT_number 65
_symmetry_cell_setting 'orthorhombic'
loop_
_space_group_symop_operation_xyz
x,y,z
-x,-y,z
x,-y,-z
-x,y,-z
-x,-y,-z
x,y,-z
-x,y,z
x,-y,z
1/2+x,1/2+y,z
1/2-x,1/2-y,z
1/2+x,1/2-y,-z
1/2-x,1/2+y,-z
1/2-x,1/2-y,-z
1/2+x,1/2+y,-z
1/2-x,1/2+y,z
1/2+x,1/2-y,z
loop_
_atom_site_type_symbol
_atom_site_label
_atom_site_fract_x
_atom_site_fract_y
_atom_site_fract_z
Si Si1 0.583076 0.660203 0.951251
Si Si2 0.316646 0.663552 0.449733
Si Si3 0.081316 0.164088 0.371836
Si Si4 0.817073 0.336632 0.793010
Si Si5 0.079627 0.665527 0.130985
Si Si6 0.679687 0.167180 0.690773
O O1 0.500000 0.669593 0.950983
O O2 0.608048 0.500000 0.942377
O O3 0.613621 0.758008 0.911982
O O4 0.610196 0.710900 0.000000
O O5 0.335782 0.709620 0.500000
O O6 0.295085 0.500000 0.447474
O O7 0.250000 0.750000 0.431694
O O8 0.383671 0.695825 0.419458
O O9 0.114562 0.267638 0.335431
O O10 0.000000 0.201065 0.376126
O O11 0.092831 0.000000 0.357830
O O12 0.798184 0.500000 0.799737
O O13 0.750000 0.250000 0.808167
O O14 0.880802 0.289180 0.824228
O O15 0.837685 0.305216 0.742277
O O16 0.085748 0.500000 0.121566
O O17 0.000000 0.713484 0.138291
O O18 0.750000 0.250000 0.676599
O O19 0.688582 0.000000 0.680194
#
# Coordination Sequence:
#
# PCOD8271705 Si02
#       6
#    16  16  16  16  16  16
#     4   8  14  25  41  63  92 123 154 189 230 277
#     4   9  18  33  53  75  99 131 170 208 246 290
#     4  10  21  35  51  75 106 135 165 205 250 294
#     4   9  19  34  51  71  95 125 159 196 238 285
#     4   9  17  29  46  69  95 121 152 192 236 280
#     4  10  20  35  55  75  97 129 168 206 246 295
#
# _framework density 17.693631
#
# number of rings (size 3 to 8) (size 9 to 14) (size 15 to 20)
#    0.000    2.833    0.000    1.500    0.000    5.000 
#    0.000    5.000    0.000    2.500    0.000    3.500 
#    0.000    0.000    0.000    0.000    0.000    0.000 
#
# Total GULP energy -595142.515566 kJ/mol
# GULP energy per Si atom -12398.802408 kJ/mol
# Density = 1.765336 g / cm^3
# Si number density = 17.693631 Si / 1000 Ang^3
#
#
#
# Elastic Constant Matrix: (Units=GPa)
#
#
# Indices 1 2 3 4 5 6 
#
# 1 108.2450 56.4920 70.3087 0.0000 0.0000 0.0000
# 2 56.4920 73.1782 59.9598 0.0000 0.0000 0.0000
# 3 70.3087 59.9598 114.9544 0.0000 0.0000 0.0000
# 4 0.0000 0.0000 0.0000 30.1864 0.0000 0.0000
# 5 0.0000 0.0000 0.0000 0.0000 21.3303 0.0000
# 6 0.0000 0.0000 0.0000 0.0000 0.0000 25.9831
#
#
#
# Elastic Compliance Matrix: (Units=1/GPa)
#
#
# Indices 1 2 3 4 5 6 
#
# 1 0.017899 -0.008466 -0.006532 0.000000 0.000000 0.000000
# 2 -0.008466 0.027869 -0.009358 0.000000 0.000000 0.000000
# 3 -0.006532 -0.009358 0.017575 0.000000 0.000000 0.000000
# 4 0.000000 0.000000 0.000000 0.033127 0.000000 0.000000
# 5 0.000000 0.000000 0.000000 0.000000 0.046882 0.000000
# 6 0.000000 0.000000 0.000000 0.000000 0.000000 0.038487
#
#
# Mechanical properties :
#
#
# Convention : Reuss Voigt Hill
#
# Bulk Modulus (GPa) = 68.34660 74.43319 71.38990
# Shear Modulus (GPa) = 21.23795 22.80775 22.02285
#
# Velocity S-wave (km/s) = 3.46832 3.59421 3.53182
# Velocity P-wave (km/s) = 7.39937 7.70608 7.55428
#
# Compressibility (1/GPa) = 0.01463131
#
# Stress axis : x y z
#
# Youngs Moduli (GPa) = 55.86863 35.88270 56.89802
#
# Poissons Ratio (x) = 0.30378 0.37164
# Poissons Ratio (y) = 0.47298 0.53247
# Poissons Ratio (z) = 0.36492 0.33580
#
# Static dielectric constant tensor:
#      x y z
#    x 3.101690 0.000000 0.000000 
#    y 0.000000 3.319250 0.000000 
#    z 0.000000 0.000000 3.581120 
# 
# 
# High freq. dielectric constant tensor:
#      x y z
#    x 1.657080 0.000000 0.000000 
#    y 0.000000 1.683350 0.000000 
#    z 0.000000 0.000000 1.696070 
# 
# From -- ./inp_files/75369.got.cif
#   From: 2010.03.12/outbox.cif.g09.slc.cpg/sg65_38_cif.got.tgz:75369.got - 2010.04.10 20:52:16.
