data_PCOD8271020
_publ_section_title
;
Structure prediction by ZEFSAII (Michael W. Deem and Ramdas Pophale) SiO2 
 PCOD8271020
Probable space group: C M M M
;
_chemical_formula_sum "Si O2"
_cell_formula_units_Z 96
_cell_length_a 19.249669
_cell_length_b 9.119290
_cell_length_c 30.357726
_cell_angle_alpha 90.000000
_cell_angle_beta 90.000000
_cell_angle_gamma 90.000000
_cell_volume 5329.095828
_symmetry_space_group_name_H-M "C M M M"
_symmetry_group_IT_number 65
_symmetry_cell_setting 'orthorhombic'
loop_
_space_group_symop_operation_xyz
x,y,z
-x,-y,z
x,-y,-z
-x,y,-z
-x,-y,-z
x,y,-z
-x,y,z
x,-y,z
1/2+x,1/2+y,z
1/2-x,1/2-y,z
1/2+x,1/2-y,-z
1/2-x,1/2+y,-z
1/2-x,1/2-y,-z
1/2+x,1/2+y,-z
1/2-x,1/2+y,z
1/2+x,1/2-y,z
loop_
_atom_site_type_symbol
_atom_site_label
_atom_site_fract_x
_atom_site_fract_y
_atom_site_fract_z
Si Si1 0.579979 0.671359 0.115111
Si Si2 0.318801 0.670042 0.191915
Si Si3 0.179591 0.172828 0.707834
Si Si4 0.581736 0.828884 0.358206
Si Si5 0.319930 0.829955 0.948507
Si Si6 0.917599 0.666430 0.453507
O O1 0.500000 0.717621 0.119218
O O2 0.588212 0.500000 0.104417
O O3 0.616453 0.712940 0.161226
O O4 0.613729 0.762266 0.075602
O O5 0.301719 0.500000 0.189356
O O6 0.250000 0.750000 0.174422
O O7 0.337031 0.716839 0.241738
O O8 0.250000 0.250000 0.691821
O O9 0.116633 0.231304 0.678925
O O10 0.187448 0.000000 0.701667
O O11 0.500000 0.806900 0.352982
O O12 0.607821 0.767746 0.406563
O O13 0.601375 0.000000 0.352787
O O14 0.250000 0.750000 0.932258
O O15 0.312602 0.000000 0.936555
O O16 0.332018 0.804257 0.000000
O O17 0.891758 0.743302 0.500000
O O18 0.891634 0.500000 0.454929
O O19 0.000000 0.670249 0.452586
#
# Coordination Sequence:
#
# PCOD8271020 Si02
#       6
#    16  16  16  16  16  16
#     4  10  21  36  54  78 108 138 167 203 249 298
#     4   9  19  35  54  74  96 127 167 208 248 293
#     4  10  20  34  52  72  97 130 166 204 247 296
#     4   9  17  29  47  73 102 128 158 200 246 292
#     4  10  21  37  57  80 106 137 174 213 250 292
#     4   7  10  19  38  64  92 122 156 193 235 285
#
# _framework density 18.014313999999999
#
# number of rings (size 3 to 8) (size 9 to 14) (size 15 to 20)
#    0.000    2.833    0.000    3.000    0.000    5.333 
#    0.000    3.333    0.000    1.000    0.000    2.333 
#    0.000    0.000    0.000    0.000    0.000    0.000 
#
# Total GULP energy -594855.227925 kJ/mol
# GULP energy per Si atom -12392.817248 kJ/mol
# Density = 1.797331 g / cm^3
# Si number density = 18.014314 Si / 1000 Ang^3
#
#
#
# Elastic Constant Matrix: (Units=GPa)
#
#
# Indices 1 2 3 4 5 6 
#
# 1 102.4451 49.9763 65.8920 0.0000 0.0000 0.0000
# 2 49.9763 65.9431 50.6117 0.0000 0.0000 0.0000
# 3 65.8920 50.6117 108.2242 0.0000 0.0000 0.0000
# 4 0.0000 0.0000 0.0000 20.0908 0.0000 0.0000
# 5 0.0000 0.0000 0.0000 0.0000 15.8289 0.0000
# 6 0.0000 0.0000 0.0000 0.0000 0.0000 28.7099
#
#
#
# Elastic Compliance Matrix: (Units=1/GPa)
#
#
# Indices 1 2 3 4 5 6 
#
# 1 0.018642 -0.008450 -0.007399 0.000000 0.000000 0.000000
# 2 -0.008450 0.027485 -0.007709 0.000000 0.000000 0.000000
# 3 -0.007399 -0.007709 0.017350 0.000000 0.000000 0.000000
# 4 0.000000 0.000000 0.000000 0.049774 0.000000 0.000000
# 5 0.000000 0.000000 0.000000 0.000000 0.063176 0.000000
# 6 0.000000 0.000000 0.000000 0.000000 0.000000 0.034831
#
#
# Mechanical properties :
#
#
# Convention : Reuss Voigt Hill
#
# Bulk Modulus (GPa) = 61.11591 67.73027 64.42309
# Shear Modulus (GPa) = 18.95183 20.26809 19.60996
#
# Velocity S-wave (km/s) = 3.24704 3.35791 3.30294
# Velocity P-wave (km/s) = 6.93236 7.26042 7.09829
#
# Compressibility (1/GPa) = 0.01636235
#
# Stress axis : x y z
#
# Youngs Moduli (GPa) = 53.64166 36.38334 57.63754
#
# Poissons Ratio (x) = 0.30744 0.42644
# Poissons Ratio (y) = 0.45327 0.44432
# Poissons Ratio (z) = 0.39687 0.28047
#
# Static dielectric constant tensor:
#      x y z
#    x 3.124140 0.000000 0.000000 
#    y 0.000000 3.157710 0.000000 
#    z 0.000000 0.000000 3.694150 
# 
# 
# High freq. dielectric constant tensor:
#      x y z
#    x 1.672910 0.000000 0.000000 
#    y 0.000000 1.677420 0.000000 
#    z 0.000000 0.000000 1.718070 
# 
# From -- ./inp_files/73204.got.cif
#   From: 2010.03.12/outbox.cif.g09.slc.cpg/sg65_37_cif.got.tgz:73204.got - 2010.04.10 20:52:16.
