data_PCOD8271876
_publ_section_title
;
Structure prediction by ZEFSAII (Michael W. Deem and Ramdas Pophale) SiO2 
 PCOD8271876
Probable space group: C M M M
;
_chemical_formula_sum "Si O2"
_cell_formula_units_Z 72
_cell_length_a 8.694613
_cell_length_b 19.452709
_cell_length_c 22.673086
_cell_angle_alpha 90.000000
_cell_angle_beta 90.000000
_cell_angle_gamma 90.000000
_cell_volume 3834.784661
_symmetry_space_group_name_H-M "C M M M"
_symmetry_group_IT_number 65
_symmetry_cell_setting 'orthorhombic'
loop_
_space_group_symop_operation_xyz
x,y,z
-x,-y,z
x,-y,-z
-x,y,-z
-x,-y,-z
x,y,-z
-x,y,z
x,-y,z
1/2+x,1/2+y,z
1/2-x,1/2-y,z
1/2+x,1/2-y,-z
1/2-x,1/2+y,-z
1/2-x,1/2-y,-z
1/2+x,1/2+y,-z
1/2-x,1/2+y,z
1/2+x,1/2-y,z
loop_
_atom_site_type_symbol
_atom_site_label
_atom_site_fract_x
_atom_site_fract_y
_atom_site_fract_z
Si Si1 0.324079 0.079888 0.567513
Si Si2 0.818656 0.676934 0.216807
Si Si3 0.320234 0.678150 0.658332
Si Si4 0.326872 0.081602 0.000000
Si Si5 0.321891 0.580913 0.120822
O O1 0.287247 0.098786 0.500000
O O2 0.500000 0.098925 0.582571
O O3 0.209323 0.121510 0.608813
O O4 0.294215 0.000000 0.578908
O O5 0.750000 0.750000 0.196710
O O6 0.755685 0.654510 0.280489
O O7 0.774060 0.618137 0.171152
O O8 0.000000 0.683968 0.220228
O O9 0.500000 0.687297 0.668748
O O10 0.250000 0.750000 0.636408
O O11 0.237350 0.108048 0.942364
O O12 0.500000 0.111359 0.000000
O O13 0.329823 0.000000 0.000000
O O14 0.500000 0.599890 0.126905
O O15 0.293078 0.500000 0.127719
#
# Coordination Sequence:
#
# PCOD8271876 Si02
#       5
#    16  16  16   8  16
#     4   9  19  37  59  82 110 143 178 219 268 319
#     4  11  22  38  58  79 108 143 180 223 272 323
#     4  11  22  37  57  80 108 142 181 223 267 318
#     4   9  17  31  52  79 110 143 180 221 267 317
#     4  10  20  35  56  82 111 143 181 223 267 317
#
# _framework density 18.775500000000001
#
# number of rings (size 3 to 8) (size 9 to 14) (size 15 to 20)
#    0.000    1.889    0.000    7.000    0.000    4.889 
#    0.000    1.667    0.000    0.000    0.000    0.000 
#    0.000    0.000    0.000    0.000    0.000    0.000 
#
# Total GULP energy -446538.288398 kJ/mol
# GULP energy per Si atom -12403.841344 kJ/mol
# Density = 1.873277 g / cm^3
# Si number density = 18.775500 Si / 1000 Ang^3
#
#
#
# Elastic Constant Matrix: (Units=GPa)
#
#
# Indices 1 2 3 4 5 6 
#
# 1 158.8723 46.2247 60.4718 0.0000 0.0000 0.0000
# 2 46.2247 61.6817 60.7625 0.0000 0.0000 0.0000
# 3 60.4718 60.7625 119.1092 0.0000 0.0000 0.0000
# 4 0.0000 0.0000 0.0000 148.6994 0.0000 0.0000
# 5 0.0000 0.0000 0.0000 0.0000 36.6084 0.0000
# 6 0.0000 0.0000 0.0000 0.0000 0.0000 29.5698
#
#
#
# Elastic Compliance Matrix: (Units=1/GPa)
#
#
# Indices 1 2 3 4 5 6 
#
# 1 0.008301 -0.004160 -0.002092 0.000000 0.000000 0.000000
# 2 -0.004160 0.034674 -0.015577 0.000000 0.000000 0.000000
# 3 -0.002092 -0.015577 0.017404 0.000000 0.000000 0.000000
# 4 0.000000 0.000000 0.000000 0.006725 0.000000 0.000000
# 5 0.000000 0.000000 0.000000 0.000000 0.027316 0.000000
# 6 0.000000 0.000000 0.000000 0.000000 0.000000 0.033818
#
#
# Mechanical properties :
#
#
# Convention : Reuss Voigt Hill
#
# Bulk Modulus (GPa) = 59.80224 74.95346 67.37785
# Shear Modulus (GPa) = 28.17357 54.45579 41.31468
#
# Velocity S-wave (km/s) = 3.87790 5.39135 4.69599
# Velocity P-wave (km/s) = 7.20910 8.87485 8.08499
#
# Compressibility (1/GPa) = 0.01672178
#
# Stress axis : x y z
#
# Youngs Moduli (GPa) = 120.46622 28.83979 57.45653
#
# Poissons Ratio (x) = 0.11996 0.12023
# Poissons Ratio (y) = 0.50109 0.89500
# Poissons Ratio (z) = 0.25207 0.44924
#
# Static dielectric constant tensor:
#      x y z
#    x 3.547020 0.000000 0.000000 
#    y 0.000000 3.237360 0.000000 
#    z 0.000000 0.000000 3.490970 
# 
# 
# High freq. dielectric constant tensor:
#      x y z
#    x 1.744110 0.000000 0.000000 
#    y 0.000000 1.713100 0.000000 
#    z 0.000000 0.000000 1.737380 
# 
# From -- ./inp_files/59199.got.cif
#   From: 2010.03.12/outbox.cif.g09.slc.cpg/sg65_30_cif.got.tgz:59199.got - 2010.04.10 20:52:16.
