data_PCOD8271444
_publ_section_title
;
Structure prediction by ZEFSAII (Michael W. Deem and Ramdas Pophale) SiO2 
 PCOD8271444
Probable space group: C M M M
;
_chemical_formula_sum "Si O2"
_cell_formula_units_Z 88
_cell_length_a 17.914424
_cell_length_b 8.912239
_cell_length_c 28.383806
_cell_angle_alpha 90.000000
_cell_angle_beta 90.000000
_cell_angle_gamma 90.000000
_cell_volume 4531.691146
_symmetry_space_group_name_H-M "C M M M"
_symmetry_group_IT_number 65
_symmetry_cell_setting 'orthorhombic'
loop_
_space_group_symop_operation_xyz
x,y,z
-x,-y,z
x,-y,-z
-x,y,-z
-x,-y,-z
x,y,-z
-x,y,z
x,-y,z
1/2+x,1/2+y,z
1/2-x,1/2-y,z
1/2+x,1/2-y,-z
1/2-x,1/2+y,-z
1/2-x,1/2-y,-z
1/2+x,1/2+y,-z
1/2-x,1/2+y,z
1/2+x,1/2-y,z
loop_
_atom_site_type_symbol
_atom_site_label
_atom_site_fract_x
_atom_site_fract_y
_atom_site_fract_z
Si Si1 0.670018 0.676923 0.729686
Si Si2 0.169976 0.676915 0.908402
Si Si3 0.583781 0.178761 0.000000
Si Si4 0.912605 0.672517 0.813545
Si Si5 0.588534 0.668247 0.448371
Si Si6 0.587618 0.826317 0.644565
O O1 0.679724 0.500000 0.728746
O O2 0.750000 0.750000 0.737872
O O3 0.615954 0.722637 0.771975
O O4 0.634172 0.728929 0.680939
O O5 0.179521 0.500000 0.911868
O O6 0.250000 0.750000 0.906126
O O7 0.124883 0.723938 0.862062
O O8 0.126060 0.739313 0.953802
O O9 0.500000 0.243847 0.000000
O O10 0.581222 0.000000 0.000000
O O11 0.893312 0.500000 0.801383
O O12 0.000000 0.696065 0.819447
O O13 0.618281 0.721131 0.500000
O O14 0.500000 0.667741 0.449483
O O15 0.617541 0.500000 0.437479
O O16 0.615959 0.781038 0.407691
O O17 0.500000 0.791882 0.651221
O O18 0.605211 0.000000 0.652940
#
# Coordination Sequence:
#
# PCOD8271444 Si02
#       6
#    16  16   8  16  16  16
#     4  12  25  40  58  79 106 141 181 224 273 329
#     4  10  20  34  55  82 112 147 184 225 273 325
#     4   9  17  32  55  81 108 143 190 234 272 321
#     4  10  21  38  59  83 111 142 179 224 273 325
#     4   8  14  26  46  74 108 144 182 224 268 315
#     4  10  20  34  54  81 112 144 180 224 272 323
#
# _framework density 19.418797999999999
#
# number of rings (size 3 to 8) (size 9 to 14) (size 15 to 20)
#    0.000    2.091    0.000    4.636    0.000    8.364 
#    0.000    1.818    0.000    2.727    0.000    0.000 
#    0.000    0.000    0.000    0.000    0.000    0.000 
#
# Total GULP energy -545643.770856 kJ/mol
# GULP energy per Si atom -12400.994792 kJ/mol
# Density = 1.937460 g / cm^3
# Si number density = 19.418798 Si / 1000 Ang^3
#
#
#
# Elastic Constant Matrix: (Units=GPa)
#
#
# Indices 1 2 3 4 5 6 
#
# 1 101.0908 36.3715 54.4330 0.0000 0.0000 0.0000
# 2 36.3715 71.7653 42.7416 0.0000 0.0000 0.0000
# 3 54.4330 42.7416 150.1185 0.0000 0.0000 0.0000
# 4 0.0000 0.0000 0.0000 -678.3270 0.0000 0.0000
# 5 0.0000 0.0000 0.0000 0.0000 31.6588 0.0000
# 6 0.0000 0.0000 0.0000 0.0000 0.0000 28.9711
#
#
#
# Elastic Compliance Matrix: (Units=1/GPa)
#
#
# Indices 1 2 3 4 5 6 
#
# 1 0.013506 -0.004730 -0.003550 0.000000 0.000000 0.000000
# 2 -0.004730 0.018436 -0.003534 0.000000 0.000000 0.000000
# 3 -0.003550 -0.003534 0.008955 0.000000 0.000000 0.000000
# 4 0.000000 0.000000 0.000000 -0.001474 0.000000 0.000000
# 5 0.000000 0.000000 0.000000 0.000000 0.031587 0.000000
# 6 0.000000 0.000000 0.000000 0.000000 0.000000 0.034517
#
#
# Mechanical properties :
#
#
# Convention : Reuss Voigt Hill
#
# Bulk Modulus (GPa) = 57.91144 65.56301 61.73723
# Shear Modulus (GPa) = 37.06113 -110.91085 -36.92486
#
# Velocity S-wave (km/s) = 4.37340 -7.56566 -4.36535
# Velocity P-wave (km/s) = 7.44240 6.51790 2.54030
#
# Compressibility (1/GPa) = 0.01726774
#
# Stress axis : x y z
#
# Youngs Moduli (GPa) = 74.04248 54.24034 111.66998
#
# Poissons Ratio (x) = 0.25658 0.39647
# Poissons Ratio (y) = 0.35025 0.39464
# Poissons Ratio (z) = 0.26288 0.19168
#
# Static dielectric constant tensor:
#      x y z
#    x 3.005830 0.000000 0.000000 
#    y 0.000000 3.443990 0.000000 
#    z 0.000000 0.000000 3.945310 
# 
# 
# High freq. dielectric constant tensor:
#      x y z
#    x 1.742920 0.000000 0.000000 
#    y 0.000000 1.741170 0.000000 
#    z 0.000000 0.000000 1.777800 
# 
# From -- ./inp_files/77792.got.cif
#   From: 2010.03.12/outbox.cif.g09.slc.cpg/sg65_39_cif.got.tgz:77792.got - 2010.04.10 20:52:16.
