data_PCOD8271257
_publ_section_title
;
Structure prediction by ZEFSAII (Michael W. Deem and Ramdas Pophale) SiO2 
 PCOD8271257
Probable space group: C M M M
;
_chemical_formula_sum "Si O2"
_cell_formula_units_Z 104
_cell_length_a 21.303021
_cell_length_b 26.738371
_cell_length_c 9.502720
_cell_angle_alpha 90.000000
_cell_angle_beta 90.000000
_cell_angle_gamma 90.000000
_cell_volume 5412.826084
_symmetry_space_group_name_H-M "C M M M"
_symmetry_group_IT_number 65
_symmetry_cell_setting 'orthorhombic'
loop_
_space_group_symop_operation_xyz
x,y,z
-x,-y,z
x,-y,-z
-x,y,-z
-x,-y,-z
x,y,-z
-x,y,z
x,-y,z
1/2+x,1/2+y,z
1/2-x,1/2-y,z
1/2+x,1/2-y,-z
1/2-x,1/2+y,-z
1/2-x,1/2-y,-z
1/2+x,1/2+y,-z
1/2-x,1/2+y,z
1/2+x,1/2-y,z
loop_
_atom_site_type_symbol
_atom_site_label
_atom_site_fract_x
_atom_site_fract_y
_atom_site_fract_z
Si Si1 0.286550 0.605995 0.658783
Si Si2 0.072265 0.733833 0.833124
Si Si3 0.000000 0.940233 0.341594
Si Si4 0.072824 0.620690 0.154612
Si Si5 0.156983 0.556289 0.339715
Si Si6 0.812807 0.221498 0.336586
Si Si7 0.613393 0.441131 0.156985
O O1 0.307044 0.590701 0.500000
O O2 0.214000 0.594388 0.682208
O O3 0.299471 0.663529 0.687783
O O4 0.321079 0.572155 0.772950
O O5 0.084486 0.676580 0.787082
O O6 0.124303 0.766075 0.750827
O O7 0.000000 0.749264 0.793374
O O8 0.081717 0.740706 0.000000
O O9 0.940374 0.918765 0.257757
O O10 0.000000 0.918434 0.500000
O O11 0.000000 0.000000 0.346298
O O12 0.099652 0.577789 0.252719
O O13 0.000000 0.610057 0.143669
O O14 0.103658 0.616038 0.000000
O O15 0.135092 0.555271 0.500000
O O16 0.174401 0.500000 0.289807
O O17 0.825201 0.234449 0.500000
O O18 0.750000 0.250000 0.282938
O O19 0.605897 0.500000 0.146082
O O20 0.608174 0.417903 0.000000
#
# Coordination Sequence:
#
# PCOD8271257 Si02
#       7
#    16  16   8  16  16  16  16
#     4  10  21  37  55  77 106 143 183 223 273 330
#     4   9  19  37  59  83 112 147 187 229 277 336
#     4   9  17  31  53  77 101 135 175 213 259 313
#     4   9  19  36  57  81 110 145 183 221 268 332
#     4  10  21  36  55  80 110 145 186 231 276 325
#     4  10  21  37  58  84 111 141 183 233 281 333
#     4  10  20  34  53  78 107 138 177 223 266 313
#
# _framework density 19.213623999999999
#
# number of rings (size 3 to 8) (size 9 to 14) (size 15 to 20)
#    0.000    2.385    0.000    3.000    0.000    7.077 
#    1.385    3.077    0.000    0.000    0.000    0.000 
#    0.000    0.000    0.000    0.000    0.000    0.000 
#
# Total GULP energy -644679.058744 kJ/mol
# GULP energy per Si atom -12397.674207 kJ/mol
# Density = 1.916989 g / cm^3
# Si number density = 19.213624 Si / 1000 Ang^3
#
#
#
# Elastic Constant Matrix: (Units=GPa)
#
#
# Indices 1 2 3 4 5 6 
#
# 1 82.8632 44.4735 47.0780 0.0000 0.0000 0.0000
# 2 44.4735 76.6511 38.9447 0.0000 0.0000 0.0000
# 3 47.0780 38.9447 96.0407 0.0000 0.0000 0.0000
# 4 0.0000 0.0000 0.0000 23.4640 0.0000 0.0000
# 5 0.0000 0.0000 0.0000 0.0000 14.7082 0.0000
# 6 0.0000 0.0000 0.0000 0.0000 0.0000 35.4580
#
#
#
# Elastic Compliance Matrix: (Units=1/GPa)
#
#
# Indices 1 2 3 4 5 6 
#
# 1 0.020326 -0.008477 -0.006526 0.000000 0.000000 0.000000
# 2 -0.008477 0.019967 -0.003941 0.000000 0.000000 0.000000
# 3 -0.006526 -0.003941 0.015209 0.000000 0.000000 0.000000
# 4 0.000000 0.000000 0.000000 0.042619 0.000000 0.000000
# 5 0.000000 0.000000 0.000000 0.000000 0.067989 0.000000
# 6 0.000000 0.000000 0.000000 0.000000 0.000000 0.028202
#
#
# Mechanical properties :
#
#
# Convention : Reuss Voigt Hill
#
# Bulk Modulus (GPa) = 56.77536 57.39417 57.08477
# Shear Modulus (GPa) = 21.00203 23.06329 22.03266
#
# Velocity S-wave (km/s) = 3.30976 3.46838 3.39000
# Velocity P-wave (km/s) = 6.64979 6.78056 6.71549
#
# Compressibility (1/GPa) = 0.01761327
#
# Stress axis : x y z
#
# Youngs Moduli (GPa) = 49.19918 50.08204 65.74952
#
# Poissons Ratio (x) = 0.42457 0.42906
# Poissons Ratio (y) = 0.41708 0.25913
# Poissons Ratio (z) = 0.32106 0.19738
#
# Static dielectric constant tensor:
#      x y z
#    x 3.505390 0.000000 0.000000 
#    y 0.000000 3.346090 0.000000 
#    z 0.000000 0.000000 3.692880 
# 
# 
# High freq. dielectric constant tensor:
#      x y z
#    x 1.749650 0.000000 0.000000 
#    y 0.000000 1.735580 0.000000 
#    z 0.000000 0.000000 1.748230 
# 
# From -- ./inp_files/12388.got.cif
#   From: 2010.03.12/outbox.cif.g09.slc.cpg/sg65_7_cif.got.tgz:12388.got - 2010.04.10 20:52:16.
