data_PCOD8271205
_publ_section_title
;
Structure prediction by ZEFSAII (Michael W. Deem and Ramdas Pophale) SiO2 
 PCOD8271205
Probable space group: C M M M
;
_chemical_formula_sum "Si O2"
_cell_formula_units_Z 88
_cell_length_a 9.050815
_cell_length_b 19.536585
_cell_length_c 27.502649
_cell_angle_alpha 90.000000
_cell_angle_beta 90.000000
_cell_angle_gamma 90.000000
_cell_volume 4863.073857
_symmetry_space_group_name_H-M "C M M M"
_symmetry_group_IT_number 65
_symmetry_cell_setting 'orthorhombic'
loop_
_space_group_symop_operation_xyz
x,y,z
-x,-y,z
x,-y,-z
-x,y,-z
-x,-y,-z
x,y,-z
-x,y,z
x,-y,z
1/2+x,1/2+y,z
1/2-x,1/2-y,z
1/2+x,1/2-y,-z
1/2-x,1/2+y,-z
1/2-x,1/2-y,-z
1/2+x,1/2+y,-z
1/2-x,1/2+y,z
1/2+x,1/2-y,z
loop_
_atom_site_type_symbol
_atom_site_label
_atom_site_fract_x
_atom_site_fract_y
_atom_site_fract_z
Si Si1 0.672688 0.680653 0.419398
Si Si2 0.324678 0.423437 0.500000
Si Si3 0.673868 0.320198 0.692271
Si Si4 0.828996 0.580335 0.764466
Si Si5 0.171356 0.078719 0.137748
Si Si6 0.826634 0.180818 0.945235
O O1 0.500000 0.692370 0.426742
O O2 0.750000 0.750000 0.437183
O O3 0.729376 0.617274 0.452035
O O4 0.712505 0.664178 0.363732
O O5 0.255500 0.500000 0.500000
O O6 0.500000 0.429120 0.500000
O O7 0.500000 0.313895 0.701246
O O8 0.750000 0.250000 0.709502
O O9 0.738561 0.382858 0.722352
O O10 0.803704 0.500000 0.757152
O O11 0.766849 0.604040 0.816569
O O12 0.000000 0.600788 0.761344
O O13 0.223088 0.120182 0.090385
O O14 0.000000 0.091422 0.150145
O O15 0.203118 0.000000 0.125700
O O16 0.750000 0.250000 0.927307
O O17 0.000000 0.192980 0.942884
O O18 0.776305 0.161522 0.000000
#
# Coordination Sequence:
#
# PCOD8271205 Si02
#       6
#    16   8  16  16  16  16
#     4   9  18  32  52  75  99 131 166 203 246 293
#     4   9  17  30  49  75 104 131 164 204 244 289
#     4  10  20  34  53  77 103 132 170 212 253 300
#     4  10  21  36  53  74 102 135 169 208 255 303
#     4   9  18  33  52  73  98 130 168 207 246 292
#     4   9  18  32  50  73 100 129 161 199 245 295
#
# _framework density 18.095552000000001
#
# number of rings (size 3 to 8) (size 9 to 14) (size 15 to 20)
#    0.000    2.636    0.000    1.364    0.000    4.364 
#    0.000    5.455    0.000    1.091    0.000    5.091 
#    0.000    0.000    0.000    0.000    0.000    0.000 
#
# Total GULP energy -545676.359602 kJ/mol
# GULP energy per Si atom -12401.735445 kJ/mol
# Density = 1.805437 g / cm^3
# Si number density = 18.095552 Si / 1000 Ang^3
#
#
#
# Elastic Constant Matrix: (Units=GPa)
#
#
# Indices 1 2 3 4 5 6 
#
# 1 60.6145 43.2742 45.1962 0.0000 0.0000 0.0000
# 2 43.2742 115.4180 79.6463 0.0000 0.0000 0.0000
# 3 45.1962 79.6463 116.3697 0.0000 0.0000 0.0000
# 4 0.0000 0.0000 0.0000 38.7612 0.0000 0.0000
# 5 0.0000 0.0000 0.0000 0.0000 21.5463 0.0000
# 6 0.0000 0.0000 0.0000 0.0000 0.0000 30.8733
#
#
#
# Elastic Compliance Matrix: (Units=1/GPa)
#
#
# Indices 1 2 3 4 5 6 
#
# 1 0.024655 -0.004996 -0.006156 0.000000 0.000000 0.000000
# 2 -0.004996 0.017431 -0.009990 0.000000 0.000000 0.000000
# 3 -0.006156 -0.009990 0.017822 0.000000 0.000000 0.000000
# 4 0.000000 0.000000 0.000000 0.025799 0.000000 0.000000
# 5 0.000000 0.000000 0.000000 0.000000 0.046412 0.000000
# 6 0.000000 0.000000 0.000000 0.000000 0.000000 0.032390
#
#
# Mechanical properties :
#
#
# Convention : Reuss Voigt Hill
#
# Bulk Modulus (GPa) = 56.74264 69.84840 63.29552
# Shear Modulus (GPa) = 23.51102 26.52188 25.01645
#
# Velocity S-wave (km/s) = 3.60845 3.83254 3.72218
# Velocity P-wave (km/s) = 6.98473 7.63335 7.31624
#
# Compressibility (1/GPa) = 0.01762343
#
# Stress axis : x y z
#
# Youngs Moduli (GPa) = 40.56054 57.36945 56.11141
#
# Poissons Ratio (x) = 0.28659 0.34544
# Poissons Ratio (y) = 0.20262 0.56055
# Poissons Ratio (z) = 0.24971 0.57312
#
# Static dielectric constant tensor:
#      x y z
#    x 3.272830 0.000000 0.000000 
#    y 0.000000 3.423080 0.000000 
#    z 0.000000 0.000000 3.500280 
# 
# 
# High freq. dielectric constant tensor:
#      x y z
#    x 1.692300 0.000000 0.000000 
#    y 0.000000 1.699000 0.000000 
#    z 0.000000 0.000000 1.707700 
# 
# From -- ./inp_files/67491.got.cif
#   From: 2010.03.12/outbox.cif.g09.slc.cpg/sg65_34_cif.got.tgz:67491.got - 2010.04.10 20:52:16.
