data_PCOD8271814
_publ_section_title
;
Structure prediction by ZEFSAII (Michael W. Deem and Ramdas Pophale) SiO2 
 PCOD8271814
Probable space group: C M M M
;
_chemical_formula_sum "Si O2"
_cell_formula_units_Z 72
_cell_length_a 19.166166
_cell_length_b 8.880045
_cell_length_c 22.679811
_cell_angle_alpha 90.000000
_cell_angle_beta 90.000000
_cell_angle_gamma 90.000000
_cell_volume 3860.022560
_symmetry_space_group_name_H-M "C M M M"
_symmetry_group_IT_number 65
_symmetry_cell_setting 'orthorhombic'
loop_
_space_group_symop_operation_xyz
x,y,z
-x,-y,z
x,-y,-z
-x,y,-z
-x,-y,-z
x,y,-z
-x,y,z
x,-y,z
1/2+x,1/2+y,z
1/2-x,1/2-y,z
1/2+x,1/2-y,-z
1/2-x,1/2+y,-z
1/2-x,1/2-y,-z
1/2+x,1/2+y,-z
1/2-x,1/2+y,z
1/2+x,1/2-y,z
loop_
_atom_site_type_symbol
_atom_site_label
_atom_site_fract_x
_atom_site_fract_y
_atom_site_fract_z
Si Si1 0.678227 0.823573 0.269899
Si Si2 0.322572 0.822505 0.933491
Si Si3 0.418171 0.323244 0.500000
Si Si4 0.323303 0.821982 0.404602
Si Si5 0.422377 0.820848 0.831300
O O1 0.750000 0.750000 0.249010
O O2 0.660001 0.779972 0.336973
O O3 0.616799 0.763727 0.227585
O O4 0.688255 0.000000 0.262856
O O5 0.250000 0.750000 0.913851
O O6 0.382530 0.763115 0.889684
O O7 0.313523 0.000000 0.928241
O O8 0.342994 0.774249 0.000000
O O9 0.402442 0.500000 0.500000
O O10 0.500000 0.288376 0.500000
O O11 0.385552 0.248493 0.557957
O O12 0.250000 0.750000 0.424628
O O13 0.319420 0.000000 0.415214
O O14 0.500000 0.751378 0.831439
O O15 0.426130 0.000000 0.831513
#
# Coordination Sequence:
#
# PCOD8271814 Si02
#       5
#    16  16   8  16  16
#     4   9  18  32  52  75  97 126 162 201 243 286
#     4   9  17  29  47  70  94 124 162 202 243 286
#     4  11  24  39  54  75 105 137 166 201 248 297
#     4  10  20  35  56  79 102 130 167 208 248 294
#     4   9  17  29  46  70  99 128 160 200 243 286
#
# _framework density 18.652740999999999
#
# number of rings (size 3 to 8) (size 9 to 14) (size 15 to 20)
#    0.000    2.556    0.000    2.000    0.000    3.111 
#    0.000    4.444    0.000    2.667    0.000    3.111 
#    0.000    0.000    0.000    0.000    0.000    0.000 
#
# Total GULP energy -446418.695705 kJ/mol
# GULP energy per Si atom -12400.519325 kJ/mol
# Density = 1.861029 g / cm^3
# Si number density = 18.652741 Si / 1000 Ang^3
#
#
#
# Elastic Constant Matrix: (Units=GPa)
#
#
# Indices 1 2 3 4 5 6 
#
# 1 178.9213 42.4947 102.6677 0.0000 0.0000 0.0000
# 2 42.4947 44.4256 31.4285 0.0000 0.0000 0.0000
# 3 102.6677 31.4285 135.5909 0.0000 0.0000 0.0000
# 4 0.0000 0.0000 0.0000 16.9600 0.0000 0.0000
# 5 0.0000 0.0000 0.0000 0.0000 24.5064 0.0000
# 6 0.0000 0.0000 0.0000 0.0000 0.0000 26.7332
#
#
#
# Elastic Compliance Matrix: (Units=1/GPa)
#
#
# Indices 1 2 3 4 5 6 
#
# 1 0.010897 -0.005486 -0.006979 0.000000 0.000000 0.000000
# 2 -0.005486 0.029686 -0.002727 0.000000 0.000000 0.000000
# 3 -0.006979 -0.002727 0.013292 0.000000 0.000000 0.000000
# 4 0.000000 0.000000 0.000000 0.058962 0.000000 0.000000
# 5 0.000000 0.000000 0.000000 0.000000 0.040806 0.000000
# 6 0.000000 0.000000 0.000000 0.000000 0.000000 0.037407
#
#
# Mechanical properties :
#
#
# Convention : Reuss Voigt Hill
#
# Bulk Modulus (GPa) = 42.57077 79.12440 60.84759
# Shear Modulus (GPa) = 21.80890 25.79638 23.80264
#
# Velocity S-wave (km/s) = 3.42308 3.72288 3.57612
# Velocity P-wave (km/s) = 6.20448 7.80971 7.05291
#
# Compressibility (1/GPa) = 0.02349030
#
# Stress axis : x y z
#
# Youngs Moduli (GPa) = 91.76997 33.68575 75.23323
#
# Poissons Ratio (x) = 0.18479 0.52508
# Poissons Ratio (y) = 0.50342 0.20518
# Poissons Ratio (z) = 0.64050 0.09187
#
# Static dielectric constant tensor:
#      x y z
#    x 3.607500 0.000000 0.000000 
#    y 0.000000 3.208070 0.000000 
#    z 0.000000 0.000000 3.701680 
# 
# 
# High freq. dielectric constant tensor:
#      x y z
#    x 1.720990 0.000000 0.000000 
#    y 0.000000 1.700400 0.000000 
#    z 0.000000 0.000000 1.739910 
# 
# From -- ./inp_files/67098.got.cif
#   From: 2010.03.12/outbox.cif.g09.slc.cpg/sg65_34_cif.got.tgz:67098.got - 2010.04.10 20:52:16.
