data_PCOD8271973
_publ_section_title
;
Structure prediction by ZEFSAII (Michael W. Deem and Ramdas Pophale) SiO2 
 PCOD8271973
Probable space group: C M M M
;
_chemical_formula_sum "Si O2"
_cell_formula_units_Z 64
_cell_length_a 8.949266
_cell_length_b 17.955901
_cell_length_c 20.723828
_cell_angle_alpha 90.000000
_cell_angle_beta 90.000000
_cell_angle_gamma 90.000000
_cell_volume 3330.156153
_symmetry_space_group_name_H-M "C M M M"
_symmetry_group_IT_number 65
_symmetry_cell_setting 'orthorhombic'
loop_
_space_group_symop_operation_xyz
x,y,z
-x,-y,z
x,-y,-z
-x,y,-z
-x,-y,-z
x,y,-z
-x,y,z
x,-y,z
1/2+x,1/2+y,z
1/2-x,1/2-y,z
1/2+x,1/2-y,-z
1/2-x,1/2+y,-z
1/2-x,1/2-y,-z
1/2+x,1/2+y,-z
1/2-x,1/2+y,z
1/2+x,1/2-y,z
loop_
_atom_site_type_symbol
_atom_site_label
_atom_site_fract_x
_atom_site_fract_y
_atom_site_fract_z
Si Si1 0.169158 0.911317 0.000000
Si Si2 0.669895 0.911561 0.128443
Si Si3 0.322926 0.670141 0.244087
Si Si4 0.675521 0.414958 0.628166
Si Si5 0.668629 0.088551 0.500000
O O1 0.255797 0.881068 0.937252
O O2 0.000000 0.880294 0.000000
O O3 0.168109 0.000000 0.000000
O O4 0.500000 0.881970 0.132353
O O5 0.766002 0.882846 0.187815
O O6 0.673798 0.000000 0.129948
O O7 0.500000 0.676798 0.239440
O O8 0.250000 0.750000 0.236690
O O9 0.271851 0.634272 0.311625
O O10 0.500000 0.410950 0.617458
O O11 0.726914 0.500000 0.640648
O O12 0.751857 0.380827 0.564297
O O13 0.500000 0.117707 0.500000
O O14 0.679662 0.000000 0.500000
#
# Coordination Sequence:
#
# PCOD8271973 Si02
#       5
#     8  16  16  16   8
#     4   9  17  31  54  83 112 141 176 219 265 315
#     4  10  20  35  57  84 112 142 178 221 268 318
#     4  11  23  38  55  77 108 145 184 224 269 320
#     4   9  18  34  56  79 104 137 176 217 263 318
#     4   9  17  29  50  81 110 133 165 215 268 315
#
# _framework density 19.218319000000001
#
# number of rings (size 3 to 8) (size 9 to 14) (size 15 to 20)
#    0.000    2.250    0.000    3.000    0.000    7.500 
#    0.000    3.750    0.000    0.000    0.000    0.000 
#    0.000    0.000    0.000    0.000    0.000    0.000 
#
# Total GULP energy -396874.929860 kJ/mol
# GULP energy per Si atom -12402.341558 kJ/mol
# Density = 1.917458 g / cm^3
# Si number density = 19.218319 Si / 1000 Ang^3
#
#
#
# Elastic Constant Matrix: (Units=GPa)
#
#
# Indices 1 2 3 4 5 6 
#
# 1 93.4411 21.3723 65.6223 0.0000 0.0000 0.0000
# 2 21.3723 22.7241 19.3284 0.0000 0.0000 0.0000
# 3 65.6223 19.3284 168.8572 0.0000 0.0000 0.0000
# 4 0.0000 0.0000 0.0000 -1.7607 0.0000 0.0000
# 5 0.0000 0.0000 0.0000 0.0000 31.8090 0.0000
# 6 0.0000 0.0000 0.0000 0.0000 0.0000 23.0850
#
#
#
# Elastic Compliance Matrix: (Units=1/GPa)
#
#
# Indices 1 2 3 4 5 6 
#
# 1 0.017073 -0.011537 -0.005314 0.000000 0.000000 0.000000
# 2 -0.011537 0.056549 -0.001989 0.000000 0.000000 0.000000
# 3 -0.005314 -0.001989 0.008215 0.000000 0.000000 0.000000
# 4 0.000000 0.000000 0.000000 -0.567962 0.000000 0.000000
# 5 0.000000 0.000000 0.000000 0.000000 0.031438 0.000000
# 6 0.000000 0.000000 0.000000 0.000000 0.000000 0.043318
#
#
# Mechanical properties :
#
#
# Convention : Reuss Voigt Hill
#
# Bulk Modulus (GPa) = 22.64722 55.29651 38.97187
# Shear Modulus (GPa) = -13.92877 22.53995 4.30559
#
# Velocity S-wave (km/s) = -2.69507 3.42839 1.49841
# Velocity P-wave (km/s) = 1.45782 6.67136 4.82868
#
# Compressibility (1/GPa) = 0.04415554
#
# Stress axis : x y z
#
# Youngs Moduli (GPa) = 58.57205 17.68376 121.72574
#
# Poissons Ratio (x) = 0.20402 0.64690
# Poissons Ratio (y) = 0.67575 0.24215
# Poissons Ratio (z) = 0.31128 0.03518
#
# Static dielectric constant tensor:
#      x y z
#    x 3.663810 0.000000 0.000000 
#    y 0.000000 3.164270 0.000000 
#    z 0.000000 0.000000 3.754770 
# 
# 
# High freq. dielectric constant tensor:
#      x y z
#    x 1.758390 0.000000 0.000000 
#    y 0.000000 1.710200 0.000000 
#    z 0.000000 0.000000 1.766820 
# 
# From -- ./inp_files/49046.got.cif
#   From: 2010.03.12/outbox.cif.g09.slc.cpg/sg65_25_cif.got.tgz:49046.got - 2010.04.10 20:52:16.
