data_PCOD8271837
_publ_section_title
;
Structure prediction by ZEFSAII (Michael W. Deem and Ramdas Pophale) SiO2 
 PCOD8271837
Probable space group: C M M M
;
_chemical_formula_sum "Si O2"
_cell_formula_units_Z 96
_cell_length_a 9.042662
_cell_length_b 18.299257
_cell_length_c 30.300683
_cell_angle_alpha 90.000000
_cell_angle_beta 90.000000
_cell_angle_gamma 90.000000
_cell_volume 5013.975095
_symmetry_space_group_name_H-M "C M M M"
_symmetry_group_IT_number 65
_symmetry_cell_setting 'orthorhombic'
loop_
_space_group_symop_operation_xyz
x,y,z
-x,-y,z
x,-y,-z
-x,y,-z
-x,-y,-z
x,y,-z
-x,y,z
x,-y,z
1/2+x,1/2+y,z
1/2-x,1/2-y,z
1/2+x,1/2-y,-z
1/2-x,1/2+y,-z
1/2-x,1/2-y,-z
1/2+x,1/2+y,-z
1/2-x,1/2+y,z
1/2+x,1/2-y,z
loop_
_atom_site_type_symbol
_atom_site_label
_atom_site_fract_x
_atom_site_fract_y
_atom_site_fract_z
Si Si1 0.172703 0.675676 0.449147
Si Si2 0.169973 0.583879 0.948931
Si Si3 0.824442 0.918129 0.791318
Si Si4 0.828817 0.915712 0.621020
Si Si5 0.825166 0.172519 0.124229
Si Si6 0.674830 0.327938 0.707538
O O1 0.209995 0.659222 0.500000
O O2 0.250000 0.750000 0.433063
O O3 0.233782 0.608322 0.421081
O O4 0.000000 0.684880 0.440919
O O5 0.210940 0.500000 0.938890
O O6 0.276258 0.636240 0.921487
O O7 0.000000 0.599184 0.936284
O O8 0.197302 0.601818 0.000000
O O9 0.771025 0.878709 0.835804
O O10 0.764669 0.873600 0.749225
O O11 0.000000 0.922020 0.789496
O O12 0.757879 0.000000 0.790462
O O13 0.777809 0.870647 0.663637
O O14 0.000000 0.901971 0.610161
O O15 0.796688 0.000000 0.630924
O O16 0.750000 0.250000 0.130705
O O17 0.000000 0.183122 0.123927
O O18 0.500000 0.317516 0.710353
O O19 0.750000 0.250000 0.707371
#
# Coordination Sequence:
#
# PCOD8271837 Si02
#       6
#    16  16  16  16  16  16
#     4  10  21  37  57  80 107 141 180 222 270 322
#     4   9  19  37  59  81 107 140 177 220 272 325
#     4   9  18  34  56  80 106 138 177 220 266 317
#     4  10  21  36  55  80 109 143 182 222 267 318
#     4  11  22  35  54  80 110 144 182 223 267 316
#     4  10  20  35  56  80 108 141 177 218 264 316
#
# _framework density 19.146484000000001
#
# number of rings (size 3 to 8) (size 9 to 14) (size 15 to 20)
#    0.000    2.167    0.000    3.500    0.000    7.333 
#    0.000    3.333    0.000    3.500    0.000    0.000 
#    0.000    0.000    0.000    0.000    0.000    0.000 
#
# Total GULP energy -595401.132054 kJ/mol
# GULP energy per Si atom -12404.190251 kJ/mol
# Density = 1.910291 g / cm^3
# Si number density = 19.146484 Si / 1000 Ang^3
#
#
#
# Elastic Constant Matrix: (Units=GPa)
#
#
# Indices 1 2 3 4 5 6 
#
# 1 59.2707 51.3914 47.3174 0.0000 0.0000 0.0000
# 2 51.3914 163.5652 81.1160 0.0000 0.0000 0.0000
# 3 47.3174 81.1160 122.1592 0.0000 0.0000 0.0000
# 4 0.0000 0.0000 0.0000 41.1844 0.0000 0.0000
# 5 0.0000 0.0000 0.0000 0.0000 21.2706 0.0000
# 6 0.0000 0.0000 0.0000 0.0000 0.0000 24.4143
#
#
#
# Elastic Compliance Matrix: (Units=1/GPa)
#
#
# Indices 1 2 3 4 5 6 
#
# 1 0.026805 -0.004880 -0.007142 0.000000 0.000000 0.000000
# 2 -0.004880 0.010004 -0.004753 0.000000 0.000000 0.000000
# 3 -0.007142 -0.004753 0.014108 0.000000 0.000000 0.000000
# 4 0.000000 0.000000 0.000000 0.024281 0.000000 0.000000
# 5 0.000000 0.000000 0.000000 0.000000 0.047013 0.000000
# 6 0.000000 0.000000 0.000000 0.000000 0.000000 0.040960
#
#
# Mechanical properties :
#
#
# Convention : Reuss Voigt Hill
#
# Bulk Modulus (GPa) = 57.57874 78.29388 67.93631
# Shear Modulus (GPa) = 24.69015 28.38521 26.53768
#
# Velocity S-wave (km/s) = 3.59491 3.85454 3.72699
# Velocity P-wave (km/s) = 6.88253 7.79684 7.35391
#
# Compressibility (1/GPa) = 0.01736752
#
# Stress axis : x y z
#
# Youngs Moduli (GPa) = 37.30671 99.96047 70.87992
#
# Poissons Ratio (x) = 0.48780 0.50624
# Poissons Ratio (y) = 0.18205 0.33686
# Poissons Ratio (z) = 0.26646 0.47507
#
# Static dielectric constant tensor:
#      x y z
#    x 3.297620 0.000000 0.000000 
#    y 0.000000 3.560270 0.000000 
#    z 0.000000 0.000000 3.611140 
# 
# 
# High freq. dielectric constant tensor:
#      x y z
#    x 1.725350 0.000000 0.000000 
#    y 0.000000 1.754120 0.000000 
#    z 0.000000 0.000000 1.757440 
# 
# From -- ./inp_files/73135.got.cif
#   From: 2010.03.12/outbox.cif.g09.slc.cpg/sg65_37_cif.got.tgz:73135.got - 2010.04.10 20:52:16.
