data_PCOD8271813
_publ_section_title
;
Structure prediction by ZEFSAII (Michael W. Deem and Ramdas Pophale) SiO2 
 PCOD8271813
Probable space group: C M M M
;
_chemical_formula_sum "Si O2"
_cell_formula_units_Z 80
_cell_length_a 19.011272
_cell_length_b 8.927790
_cell_length_c 25.668526
_cell_angle_alpha 90.000000
_cell_angle_beta 90.000000
_cell_angle_gamma 90.000000
_cell_volume 4356.684113
_symmetry_space_group_name_H-M "C M M M"
_symmetry_group_IT_number 65
_symmetry_cell_setting 'orthorhombic'
loop_
_space_group_symop_operation_xyz
x,y,z
-x,-y,z
x,-y,-z
-x,y,-z
-x,-y,-z
x,y,-z
-x,y,z
x,-y,z
1/2+x,1/2+y,z
1/2-x,1/2-y,z
1/2+x,1/2-y,-z
1/2-x,1/2+y,-z
1/2-x,1/2-y,-z
1/2+x,1/2+y,-z
1/2-x,1/2+y,z
1/2+x,1/2-y,z
loop_
_atom_site_type_symbol
_atom_site_label
_atom_site_fract_x
_atom_site_fract_y
_atom_site_fract_z
Si Si1 0.178017 0.675184 0.796454
Si Si2 0.826050 0.676670 0.387448
Si Si3 0.082745 0.174951 0.000000
Si Si4 0.578433 0.178221 0.294215
Si Si5 0.176360 0.677156 0.915424
Si Si6 0.176227 0.326655 0.500000
O O1 0.189521 0.500000 0.790534
O O2 0.250000 0.750000 0.777915
O O3 0.115723 0.732312 0.759025
O O4 0.159197 0.718404 0.855659
O O5 0.816079 0.500000 0.380231
O O6 0.750000 0.750000 0.380357
O O7 0.878929 0.740868 0.343999
O O8 0.860891 0.715199 0.444741
O O9 0.113980 0.252339 0.051237
O O10 0.000000 0.203433 0.000000
O O11 0.101482 0.000000 0.000000
O O12 0.500000 0.246372 0.295196
O O13 0.574991 0.000000 0.296317
O O14 0.180519 0.500000 0.924897
O O15 0.250000 0.750000 0.932926
O O16 0.192416 0.500000 0.500000
O O17 0.250000 0.250000 0.500000
#
# Coordination Sequence:
#
# PCOD8271813 Si02
#       6
#    16  16   8  16  16   8
#     4   9  18  32  52  75  96 122 157 197 237 279
#     4   9  16  27  45  66  89 119 154 194 235 277
#     4  11  24  39  54  75 105 137 166 199 240 285
#     4   9  17  29  45  67  95 125 156 191 234 281
#     4  10  20  35  56  79 102 129 163 203 244 288
#     4   8  14  24  39  63  89 113 149 192 234 276
#
# _framework density 18.362589
#
# number of rings (size 3 to 8) (size 9 to 14) (size 15 to 20)
#    0.000    2.700    0.000    1.800    0.000    2.400 
#    0.000    2.500    0.000    5.400    0.000    0.000 
#    0.000    8.000    0.000    0.000    0.000    0.000 
#
# Total GULP energy -495757.115250 kJ/mol
# GULP energy per Si atom -12393.927881 kJ/mol
# Density = 1.832080 g / cm^3
# Si number density = 18.362589 Si / 1000 Ang^3
#
#
#
# Elastic Constant Matrix: (Units=GPa)
#
#
# Indices 1 2 3 4 5 6 
#
# 1 136.7139 35.4973 89.8253 0.0000 0.0000 0.0000
# 2 35.4973 42.2526 33.5979 0.0000 0.0000 0.0000
# 3 89.8253 33.5979 152.1909 0.0000 0.0000 0.0000
# 4 0.0000 0.0000 0.0000 17.0269 0.0000 0.0000
# 5 0.0000 0.0000 0.0000 0.0000 14.7033 0.0000
# 6 0.0000 0.0000 0.0000 0.0000 0.0000 22.8771
#
#
#
# Elastic Compliance Matrix: (Units=1/GPa)
#
#
# Indices 1 2 3 4 5 6 
#
# 1 0.013046 -0.005868 -0.006405 0.000000 0.000000 0.000000
# 2 -0.005868 0.031345 -0.003457 0.000000 0.000000 0.000000
# 3 -0.006405 -0.003457 0.011114 0.000000 0.000000 0.000000
# 4 0.000000 0.000000 0.000000 0.058731 0.000000 0.000000
# 5 0.000000 0.000000 0.000000 0.000000 0.068012 0.000000
# 6 0.000000 0.000000 0.000000 0.000000 0.000000 0.043712
#
#
# Mechanical properties :
#
#
# Convention : Reuss Voigt Hill
#
# Bulk Modulus (GPa) = 41.58437 72.11093 56.84765
# Shear Modulus (GPa) = 18.83712 22.40392 20.62052
#
# Velocity S-wave (km/s) = 3.20635 3.49676 3.35470
# Velocity P-wave (km/s) = 6.03349 7.46049 6.78461
#
# Compressibility (1/GPa) = 0.02404749
#
# Stress axis : x y z
#
# Youngs Moduli (GPa) = 76.65123 31.90269 89.97700
#
# Poissons Ratio (x) = 0.18719 0.57627
# Poissons Ratio (y) = 0.44975 0.31103
# Poissons Ratio (z) = 0.49093 0.11028
#
# Static dielectric constant tensor:
#      x y z
#    x 3.327720 0.000000 0.000000 
#    y 0.000000 3.112670 0.000000 
#    z 0.000000 0.000000 3.963130 
# 
# 
# High freq. dielectric constant tensor:
#      x y z
#    x 1.690620 0.000000 0.000000 
#    y 0.000000 1.691070 0.000000 
#    z 0.000000 0.000000 1.736480 
# 
# From -- ./inp_files/75102.got.cif
#   From: 2010.03.12/outbox.cif.g09.slc.cpg/sg65_38_cif.got.tgz:75102.got - 2010.04.10 20:52:16.
