data_PCOD8271875
_publ_section_title
;
Structure prediction by ZEFSAII (Michael W. Deem and Ramdas Pophale) SiO2 
 PCOD8271875
Probable space group: C M M M
;
_chemical_formula_sum "Si O2"
_cell_formula_units_Z 80
_cell_length_a 26.721189
_cell_length_b 8.769575
_cell_length_c 18.606393
_cell_angle_alpha 90.000000
_cell_angle_beta 90.000000
_cell_angle_gamma 90.000000
_cell_volume 4360.100655
_symmetry_space_group_name_H-M "C M M M"
_symmetry_group_IT_number 65
_symmetry_cell_setting 'orthorhombic'
loop_
_space_group_symop_operation_xyz
x,y,z
-x,-y,z
x,-y,-z
-x,y,-z
-x,-y,-z
x,y,-z
-x,y,z
x,-y,z
1/2+x,1/2+y,z
1/2-x,1/2-y,z
1/2+x,1/2-y,-z
1/2-x,1/2+y,-z
1/2-x,1/2-y,-z
1/2+x,1/2+y,-z
1/2-x,1/2+y,z
1/2+x,1/2-y,z
loop_
_atom_site_type_symbol
_atom_site_label
_atom_site_fract_x
_atom_site_fract_y
_atom_site_fract_z
Si Si1 0.195194 0.179979 0.500000
Si Si2 0.903207 0.679936 0.145252
Si Si3 0.558294 0.679243 0.000000
Si Si4 0.146847 0.319563 0.361101
Si Si5 0.557161 0.675923 0.714706
Si Si6 0.198591 0.676848 0.216320
O O1 0.250000 0.250000 0.500000
O O2 0.164439 0.232168 0.431115
O O3 0.200687 0.000000 0.500000
O O4 0.913127 0.500000 0.147864
O O5 0.937772 0.758137 0.205060
O O6 0.845107 0.718828 0.160386
O O7 0.916135 0.746512 0.068500
O O8 0.568006 0.500000 0.000000
O O9 0.500000 0.719140 0.000000
O O10 0.148280 0.500000 0.374073
O O11 0.090416 0.270327 0.341810
O O12 0.182910 0.267793 0.295910
O O13 0.500000 0.693270 0.689767
O O14 0.574049 0.500000 0.714956
O O15 0.208181 0.500000 0.218644
O O16 0.250000 0.750000 0.190091
#
# Coordination Sequence:
#
# PCOD8271875 Si02
#       6
#     8  16   8  16  16  16
#     4  12  24  38  57  82 113 146 180 223 275 325
#     4  10  21  36  54  79 109 141 180 221 264 320
#     4  11  23  37  54  79 108 137 174 221 272 323
#     4  10  21  37  56  81 111 143 183 226 269 321
#     4  10  20  35  56  82 111 143 180 223 270 320
#     4   9  19  34  54  79 105 136 175 218 261 310
#
# _framework density 18.348199999999999
#
# number of rings (size 3 to 8) (size 9 to 14) (size 15 to 20)
#    0.000    1.900    0.000    5.400    0.000   11.200 
#    0.000    1.000    0.000    3.000    0.000    0.000 
#    0.000    0.000    0.000    0.000    0.000    0.000 
#
# Total GULP energy -496109.201980 kJ/mol
# GULP energy per Si atom -12402.730050 kJ/mol
# Density = 1.830644 g / cm^3
# Si number density = 18.348200 Si / 1000 Ang^3
#
#
#
# Elastic Constant Matrix: (Units=GPa)
#
#
# Indices 1 2 3 4 5 6 
#
# 1 113.7494 48.8977 51.7230 0.0000 0.0000 0.0000
# 2 48.8977 97.4596 48.3366 0.0000 0.0000 0.0000
# 3 51.7230 48.3366 123.5297 0.0000 0.0000 0.0000
# 4 0.0000 0.0000 0.0000 32.3665 0.0000 0.0000
# 5 0.0000 0.0000 0.0000 0.0000 18.4930 0.0000
# 6 0.0000 0.0000 0.0000 0.0000 0.0000 35.5507
#
#
#
# Elastic Compliance Matrix: (Units=1/GPa)
#
#
# Indices 1 2 3 4 5 6 
#
# 1 0.012250 -0.004469 -0.003380 0.000000 0.000000 0.000000
# 2 -0.004469 0.014362 -0.003748 0.000000 0.000000 0.000000
# 3 -0.003380 -0.003748 0.010977 0.000000 0.000000 0.000000
# 4 0.000000 0.000000 0.000000 0.030896 0.000000 0.000000
# 5 0.000000 0.000000 0.000000 0.000000 0.054075 0.000000
# 6 0.000000 0.000000 0.000000 0.000000 0.000000 0.028129
#
#
# Mechanical properties :
#
#
# Convention : Reuss Voigt Hill
#
# Bulk Modulus (GPa) = 69.47852 70.29479 69.88666
# Shear Modulus (GPa) = 27.98265 29.66747 28.82506
#
# Velocity S-wave (km/s) = 3.90948 4.02545 3.96789
# Velocity P-wave (km/s) = 7.63725 7.74599 7.69181
#
# Compressibility (1/GPa) = 0.01439294
#
# Stress axis : x y z
#
# Youngs Moduli (GPa) = 81.63586 69.62728 91.09742
#
# Poissons Ratio (x) = 0.31120 0.30792
# Poissons Ratio (y) = 0.36487 0.34147
# Poissons Ratio (z) = 0.27594 0.26099
#
# Static dielectric constant tensor:
#      x y z
#    x 3.657660 0.000000 0.000000 
#    y 0.000000 3.513240 0.000000 
#    z 0.000000 0.000000 3.289340 
# 
# 
# High freq. dielectric constant tensor:
#      x y z
#    x 1.718150 0.000000 0.000000 
#    y 0.000000 1.727120 0.000000 
#    z 0.000000 0.000000 1.702470 
# 
# From -- ./inp_files/57312.got.cif
#   From: 2010.03.12/outbox.cif.g09.slc.cpg/sg65_29_cif.got.tgz:57312.got - 2010.04.10 20:52:16.
