data_PCOD8271798
_publ_section_title
;
Structure prediction by ZEFSAII (Michael W. Deem and Ramdas Pophale) SiO2 
 PCOD8271798
Probable space group: C M M M
;
_chemical_formula_sum "Si O2"
_cell_formula_units_Z 72
_cell_length_a 13.869254
_cell_length_b 25.468227
_cell_length_c 10.199107
_cell_angle_alpha 90.000000
_cell_angle_beta 90.000000
_cell_angle_gamma 90.000000
_cell_volume 3602.582724
_symmetry_space_group_name_H-M "C M M M"
_symmetry_group_IT_number 65
_symmetry_cell_setting 'orthorhombic'
loop_
_space_group_symop_operation_xyz
x,y,z
-x,-y,z
x,-y,-z
-x,y,-z
-x,-y,-z
x,y,-z
-x,y,z
x,-y,z
1/2+x,1/2+y,z
1/2-x,1/2-y,z
1/2+x,1/2-y,-z
1/2-x,1/2+y,-z
1/2-x,1/2-y,-z
1/2+x,1/2+y,-z
1/2-x,1/2+y,z
1/2+x,1/2-y,z
loop_
_atom_site_type_symbol
_atom_site_label
_atom_site_fract_x
_atom_site_fract_y
_atom_site_fract_z
Si Si1 0.886697 0.283587 0.500000
Si Si2 0.605604 0.849993 0.747119
Si Si3 0.614750 0.500000 0.653432
Si Si4 0.384775 0.333227 0.500000
Si Si5 0.158123 0.172511 0.000000
Si Si6 0.807799 0.892181 0.249925
Si Si7 0.128716 0.286776 0.000000
O O1 0.854238 0.314726 0.371506
O O2 0.841459 0.225487 0.500000
O O3 0.000000 0.275553 0.500000
O O4 0.500000 0.876099 0.713731
O O5 0.690749 0.892558 0.769701
O O6 0.585505 0.813398 0.871178
O O7 0.500000 0.500000 0.661501
O O8 0.647270 0.500000 0.500000
O O9 0.657442 0.451388 0.733683
O O10 0.500000 0.337597 0.500000
O O11 0.342120 0.360846 0.374683
O O12 0.141480 0.135552 0.125652
O O13 0.093141 0.225465 0.000000
O O14 0.259319 0.201522 0.000000
#
# Coordination Sequence:
#
# PCOD8271798 Si02
#       7
#     8  16   8   8   8  16   8
#     4   9  19  31  49  81 117 146 186 237 278 329
#     4  10  20  35  55  85 122 159 192 228 280 348
#     4  11  24  45  66  84 107 142 197 255 309 357
#     4  11  21  36  57  83 111 151 198 236 288 354
#     4   9  20  35  57  93 123 153 197 240 280 339
#     4  11  22  38  62  84 114 153 195 245 296 342
#     4   9  17  34  58  85 126 168 194 221 275 340
#
# _framework density 19.985661
#
# number of rings (size 3 to 8) (size 9 to 14) (size 15 to 20)
#    0.000    1.889    1.111    3.000    0.000    4.000 
#    0.000    6.667    0.000    0.667    0.000    4.667 
#    0.000    0.000    0.000    0.000    0.000    0.000 
#
# Total GULP energy -446119.165643 kJ/mol
# GULP energy per Si atom -12392.199046 kJ/mol
# Density = 1.994017 g / cm^3
# Si number density = 19.985661 Si / 1000 Ang^3
#
#
#
# Elastic Constant Matrix: (Units=GPa)
#
#
# Indices 1 2 3 4 5 6 
#
# 1 100.1796 42.5112 18.2590 0.0000 0.0000 0.0000
# 2 42.5112 130.8137 51.4203 0.0000 0.0000 0.0000
# 3 18.2590 51.4203 154.0776 0.0000 0.0000 0.0000
# 4 0.0000 0.0000 0.0000 23.6975 0.0000 0.0000
# 5 0.0000 0.0000 0.0000 0.0000 23.5869 0.0000
# 6 0.0000 0.0000 0.0000 0.0000 0.0000 20.6132
#
#
#
# Elastic Compliance Matrix: (Units=1/GPa)
#
#
# Indices 1 2 3 4 5 6 
#
# 1 0.011581 -0.003711 -0.000134 0.000000 0.000000 0.000000
# 2 -0.003711 0.009988 -0.002893 0.000000 0.000000 0.000000
# 3 -0.000134 -0.002893 0.007472 0.000000 0.000000 0.000000
# 4 0.000000 0.000000 0.000000 0.042199 0.000000 0.000000
# 5 0.000000 0.000000 0.000000 0.000000 0.042396 0.000000
# 6 0.000000 0.000000 0.000000 0.000000 0.000000 0.048513
#
#
# Mechanical properties :
#
#
# Convention : Reuss Voigt Hill
#
# Bulk Modulus (GPa) = 64.25085 67.71687 65.98386
# Shear Modulus (GPa) = 27.65282 31.77151 29.71217
#
# Velocity S-wave (km/s) = 3.72376 3.99145 3.85992
# Velocity P-wave (km/s) = 7.12087 7.42957 7.27686
#
# Compressibility (1/GPa) = 0.01556400
#
# Stress axis : x y z
#
# Youngs Moduli (GPa) = 86.34654 100.12224 133.83748
#
# Poissons Ratio (x) = 0.37155 0.01793
# Poissons Ratio (y) = 0.32043 0.38725
# Poissons Ratio (z) = 0.01157 0.28970
#
# Static dielectric constant tensor:
#      x y z
#    x 3.809900 0.000000 0.000000 
#    y 0.000000 3.613900 0.000000 
#    z 0.000000 0.000000 3.229080 
# 
# 
# High freq. dielectric constant tensor:
#      x y z
#    x 1.796850 0.000000 0.000000 
#    y 0.000000 1.748150 0.000000 
#    z 0.000000 0.000000 1.791270 
# 
# From -- ./inp_files/7479.got.cif
#   From: 2010.03.12/outbox.cif.g09.slc.cpg/sg65_4_cif.got.tgz:7479.got - 2010.04.10 20:52:16.
