data_PCOD8271317
_publ_section_title
;
Structure prediction by ZEFSAII (Michael W. Deem and Ramdas Pophale) SiO2 
 PCOD8271317
Probable space group: C M M M
;
_chemical_formula_sum "Si O2"
_cell_formula_units_Z 80
_cell_length_a 26.130590
_cell_length_b 17.742695
_cell_length_c 9.132984
_cell_angle_alpha 90.000000
_cell_angle_beta 90.000000
_cell_angle_gamma 90.000000
_cell_volume 4234.298782
_symmetry_space_group_name_H-M "C M M M"
_symmetry_group_IT_number 65
_symmetry_cell_setting 'orthorhombic'
loop_
_space_group_symop_operation_xyz
x,y,z
-x,-y,z
x,-y,-z
-x,y,-z
-x,-y,-z
x,y,-z
-x,y,z
x,-y,z
1/2+x,1/2+y,z
1/2-x,1/2-y,z
1/2+x,1/2-y,-z
1/2-x,1/2+y,-z
1/2-x,1/2-y,-z
1/2+x,1/2+y,-z
1/2-x,1/2+y,z
1/2+x,1/2-y,z
loop_
_atom_site_type_symbol
_atom_site_label
_atom_site_fract_x
_atom_site_fract_y
_atom_site_fract_z
Si Si1 0.445430 0.307018 0.165626
Si Si2 0.556203 0.845348 0.670185
Si Si3 0.247897 0.086148 0.667862
Si Si4 0.835802 0.823055 0.834680
Si Si5 0.655204 0.144863 0.168996
O O1 0.500000 0.352476 0.178767
O O2 0.446760 0.241453 0.283860
O O3 0.393790 0.356051 0.191132
O O4 0.440754 0.272549 0.000000
O O5 0.570128 0.850268 0.500000
O O6 0.500000 0.882683 0.700292
O O7 0.601825 0.884718 0.760746
O O8 0.258680 0.106479 0.500000
O O9 0.202005 0.138455 0.722263
O O10 0.299082 0.099743 0.757650
O O11 0.230687 0.000000 0.687681
O O12 0.836782 0.733767 0.804970
O O13 0.816921 0.839870 0.000000
O O14 0.654364 0.123576 0.000000
#
# Coordination Sequence:
#
# PCOD8271317 Si02
#       5
#    16  16  16  16  16
#     4   8  14  26  45  71 103 133 161 199 245 290
#     4   9  16  26  44  73 106 135 162 195 239 290
#     4  11  24  38  51  70  98 132 169 209 254 302
#     4   9  18  32  52  78 103 129 165 205 245 294
#     4  10  20  34  54  78 102 130 166 207 249 294
#
# _framework density 18.893328
#
# number of rings (size 3 to 8) (size 9 to 14) (size 15 to 20)
#    0.000    2.600    0.000    3.600    0.000    9.200 
#    0.000    0.000    0.000    1.200    0.000    8.400 
#    0.000    0.000    0.000    0.000    0.000    0.000 
#
# Total GULP energy -495598.166436 kJ/mol
# GULP energy per Si atom -12389.954161 kJ/mol
# Density = 1.885033 g / cm^3
# Si number density = 18.893328 Si / 1000 Ang^3
#
#
#
# Elastic Constant Matrix: (Units=GPa)
#
#
# Indices 1 2 3 4 5 6 
#
# 1 137.6023 10.8179 57.0953 0.0000 0.0000 0.0000
# 2 10.8179 21.0550 19.2722 0.0000 0.0000 0.0000
# 3 57.0953 19.2722 111.8006 0.0000 0.0000 0.0000
# 4 0.0000 0.0000 0.0000 17.3460 0.0000 0.0000
# 5 0.0000 0.0000 0.0000 0.0000 37.5071 0.0000
# 6 0.0000 0.0000 0.0000 0.0000 0.0000 -3.2378
#
#
#
# Elastic Compliance Matrix: (Units=1/GPa)
#
#
# Indices 1 2 3 4 5 6 
#
# 1 0.009226 -0.000508 -0.004624 0.000000 0.000000 0.000000
# 2 -0.000508 0.056420 -0.009467 0.000000 0.000000 0.000000
# 3 -0.004624 -0.009467 0.012938 0.000000 0.000000 0.000000
# 4 0.000000 0.000000 0.000000 0.057650 0.000000 0.000000
# 5 0.000000 0.000000 0.000000 0.000000 0.026662 0.000000
# 6 0.000000 0.000000 0.000000 0.000000 0.000000 -0.308849
#
#
# Mechanical properties :
#
#
# Convention : Reuss Voigt Hill
#
# Bulk Modulus (GPa) = 20.24797 49.42539 34.83668
# Shear Modulus (GPa) = -49.85352 22.54122 -13.65615
#
# Velocity S-wave (km/s) = -5.14238 3.45784 -2.69142
# Velocity P-wave (km/s) = 4.95162 6.49302 2.96991
#
# Compressibility (1/GPa) = 0.04938767
#
# Stress axis : x y z
#
# Youngs Moduli (GPa) = 108.39076 17.72408 77.29302
#
# Poissons Ratio (x) = 0.00900 0.35741
# Poissons Ratio (y) = 0.05503 0.73169
# Poissons Ratio (z) = 0.50120 0.16779
#
# Static dielectric constant tensor:
#      x y z
#    x 4.123660 0.000000 0.000000 
#    y 0.000000 2.842580 0.000000 
#    z 0.000000 0.000000 3.535670 
# 
# 
# High freq. dielectric constant tensor:
#      x y z
#    x 1.767280 0.000000 0.000000 
#    y 0.000000 1.660680 0.000000 
#    z 0.000000 0.000000 1.743700 
# 
# From -- ./inp_files/9572.got.cif
#   From: 2010.03.12/outbox.cif.g09.slc.cpg/sg65_5_cif.got.tgz:9572.got - 2010.04.10 20:52:16.
