data_PCOD8271497
_publ_section_title
;
Structure prediction by ZEFSAII (Michael W. Deem and Ramdas Pophale) SiO2 
 PCOD8271497
Probable space group: C M M M
;
_chemical_formula_sum "Si O2"
_cell_formula_units_Z 96
_cell_length_a 27.925857
_cell_length_b 20.168001
_cell_length_c 8.887704
_cell_angle_alpha 90.000000
_cell_angle_beta 90.000000
_cell_angle_gamma 90.000000
_cell_volume 5005.632322
_symmetry_space_group_name_H-M "C M M M"
_symmetry_group_IT_number 65
_symmetry_cell_setting 'orthorhombic'
loop_
_space_group_symop_operation_xyz
x,y,z
-x,-y,z
x,-y,-z
-x,y,-z
-x,-y,-z
x,y,-z
-x,y,z
x,-y,z
1/2+x,1/2+y,z
1/2-x,1/2-y,z
1/2+x,1/2-y,-z
1/2-x,1/2+y,-z
1/2-x,1/2-y,-z
1/2+x,1/2+y,-z
1/2-x,1/2+y,z
1/2+x,1/2-y,z
loop_
_atom_site_type_symbol
_atom_site_label
_atom_site_fract_x
_atom_site_fract_y
_atom_site_fract_z
Si Si1 0.945166 0.184881 0.322526
Si Si2 0.722517 0.184003 0.175957
Si Si3 0.612351 0.803426 0.822569
Si Si4 0.053559 0.572852 0.821251
Si Si5 0.714601 0.423757 0.323715
Si Si6 0.384610 0.577104 0.174864
O O1 0.939746 0.181335 0.500000
O O2 0.912220 0.242813 0.259963
O O3 0.927914 0.115467 0.253507
O O4 0.000000 0.197105 0.273893
O O5 0.750000 0.250000 0.226410
O O6 0.667701 0.194772 0.220413
O O7 0.741792 0.120733 0.265870
O O8 0.729128 0.169600 0.000000
O O9 0.589314 0.871417 0.759550
O O10 0.604304 0.794899 0.000000
O O11 0.069813 0.500000 0.762777
O O12 0.000000 0.588624 0.762973
O O13 0.054038 0.572934 0.000000
O O14 0.707512 0.413869 0.500000
O O15 0.726324 0.500000 0.283005
O O16 0.666029 0.400127 0.243254
O O17 0.393876 0.500000 0.204808
O O18 0.383514 0.595050 0.000000
#
# Coordination Sequence:
#
# PCOD8271497 Si02
#       6
#    16  16  16  16  16  16
#     4  11  24  39  56  81 114 150 185 224 273 330
#     4  10  21  35  52  78 110 143 184 232 276 319
#     4  10  20  34  55  80 106 141 185 231 274 319
#     4   8  14  26  46  73 102 130 166 216 270 319
#     4  10  21  37  58  84 114 149 186 223 271 333
#     4  10  21  38  61  86 111 142 182 229 278 326
#
# _framework density 19.178395999999999
#
# number of rings (size 3 to 8) (size 9 to 14) (size 15 to 20)
#    0.000    2.167    0.000    3.500    0.000    7.333 
#    0.000    3.333    0.000    0.500    0.000    2.333 
#    0.000    0.000    0.000    0.000    0.000    0.000 
#
# Total GULP energy -595340.150102 kJ/mol
# GULP energy per Si atom -12402.919794 kJ/mol
# Density = 1.913474 g / cm^3
# Si number density = 19.178396 Si / 1000 Ang^3
#
#
#
# Elastic Constant Matrix: (Units=GPa)
#
#
# Indices 1 2 3 4 5 6 
#
# 1 142.7195 82.1618 54.4567 0.0000 0.0000 0.0000
# 2 82.1618 120.6675 43.2686 0.0000 0.0000 0.0000
# 3 54.4567 43.2686 66.3829 0.0000 0.0000 0.0000
# 4 0.0000 0.0000 0.0000 26.6946 0.0000 0.0000
# 5 0.0000 0.0000 0.0000 0.0000 13.5028 0.0000
# 6 0.0000 0.0000 0.0000 0.0000 0.0000 41.2372
#
#
#
# Elastic Compliance Matrix: (Units=1/GPa)
#
#
# Indices 1 2 3 4 5 6 
#
# 1 0.013424 -0.006775 -0.006596 0.000000 0.000000 0.000000
# 2 -0.006775 0.014234 -0.003720 0.000000 0.000000 0.000000
# 3 -0.006596 -0.003720 0.022900 0.000000 0.000000 0.000000
# 4 0.000000 0.000000 0.000000 0.037461 0.000000 0.000000
# 5 0.000000 0.000000 0.000000 0.000000 0.074059 0.000000
# 6 0.000000 0.000000 0.000000 0.000000 0.000000 0.024250
#
#
# Mechanical properties :
#
#
# Convention : Reuss Voigt Hill
#
# Bulk Modulus (GPa) = 61.06672 76.61601 68.84136
# Shear Modulus (GPa) = 22.12695 26.27912 24.20304
#
# Velocity S-wave (km/s) = 3.40037 3.70570 3.55631
# Velocity P-wave (km/s) = 6.87948 7.63842 7.26886
#
# Compressibility (1/GPa) = 0.01637553
#
# Stress axis : x y z
#
# Youngs Moduli (GPa) = 74.49394 70.25316 43.66803
#
# Poissons Ratio (x) = 0.47597 0.28804
# Poissons Ratio (y) = 0.50470 0.16245
# Poissons Ratio (z) = 0.49138 0.26135
#
# Static dielectric constant tensor:
#      x y z
#    x 3.721840 0.000000 0.000000 
#    y 0.000000 3.744080 0.000000 
#    z 0.000000 0.000000 3.310400 
# 
# 
# High freq. dielectric constant tensor:
#      x y z
#    x 1.749450 0.000000 0.000000 
#    y 0.000000 1.759890 0.000000 
#    z 0.000000 0.000000 1.728510 
# 
# From -- ./inp_files/12192.got.cif
#   From: 2010.03.12/outbox.cif.g09.slc.cpg/sg65_7_cif.got.tgz:12192.got - 2010.04.10 20:52:16.
