data_PCOD8271416
_publ_section_title
;
Structure prediction by ZEFSAII (Michael W. Deem and Ramdas Pophale) SiO2 
 PCOD8271416
Probable space group: C M M M
;
_chemical_formula_sum "Si O2"
_cell_formula_units_Z 104
_cell_length_a 22.427332
_cell_length_b 27.428709
_cell_length_c 9.142502
_cell_angle_alpha 90.000000
_cell_angle_beta 90.000000
_cell_angle_gamma 90.000000
_cell_volume 5624.035367
_symmetry_space_group_name_H-M "C M M M"
_symmetry_group_IT_number 65
_symmetry_cell_setting 'orthorhombic'
loop_
_space_group_symop_operation_xyz
x,y,z
-x,-y,z
x,-y,-z
-x,y,-z
-x,-y,-z
x,y,-z
-x,y,z
x,-y,z
1/2+x,1/2+y,z
1/2-x,1/2-y,z
1/2+x,1/2-y,-z
1/2-x,1/2+y,-z
1/2-x,1/2-y,-z
1/2+x,1/2+y,-z
1/2-x,1/2+y,z
1/2+x,1/2-y,z
loop_
_atom_site_type_symbol
_atom_site_label
_atom_site_fract_x
_atom_site_fract_y
_atom_site_fract_z
Si Si1 0.931680 0.944068 0.671233
Si Si2 0.567255 0.725899 0.333839
Si Si3 0.570346 0.906831 0.163696
Si Si4 0.367322 0.823300 0.328058
Si Si5 0.928797 0.500000 0.335036
Si Si6 0.373696 0.357104 0.171939
Si Si7 0.249660 0.693192 0.828823
O O1 0.923462 0.934705 0.500000
O O2 0.885149 0.909899 0.757132
O O3 0.000000 0.932362 0.716845
O O4 0.916450 0.000000 0.710549
O O5 0.579216 0.708985 0.500000
O O6 0.500000 0.745258 0.315413
O O7 0.612237 0.768704 0.289110
O O8 0.576209 0.679985 0.228774
O O9 0.500000 0.911217 0.154263
O O10 0.585990 0.858625 0.251763
O O11 0.596693 0.953084 0.250341
O O12 0.597603 0.905525 0.000000
O O13 0.367735 0.833234 0.500000
O O14 0.302067 0.832893 0.263035
O O15 0.903595 0.500000 0.500000
O O16 0.000000 0.500000 0.337306
O O17 0.309837 0.334692 0.217101
O O18 0.379630 0.362653 0.000000
O O19 0.250000 0.750000 0.784554
O O20 0.236440 0.687317 0.000000
#
# Coordination Sequence:
#
# PCOD8271416 Si02
#       7
#    16  16  16  16   8  16  16
#     4   9  19  37  60  85 115 150 183 221 278 343
#     4  10  21  35  51  76 112 147 177 217 271 329
#     4  10  20  34  54  80 111 146 180 218 274 336
#     4  11  22  35  55  80 107 141 186 234 274 320
#     4   9  17  31  53  79 107 139 177 221 264 313
#     4  11  22  35  56  83 110 144 185 231 275 323
#     4  10  21  39  57  75 107 147 185 225 272 328
#
# _framework density 18.492059999999999
#
# number of rings (size 3 to 8) (size 9 to 14) (size 15 to 20)
#    0.000    1.923    1.538    3.000    0.000    7.385 
#    0.000    0.769    1.692    0.000    0.000    0.000 
#    0.000    0.000    0.000    0.000    0.000    0.000 
#
# Total GULP energy -644915.425501 kJ/mol
# GULP energy per Si atom -12402.219721 kJ/mol
# Density = 1.844997 g / cm^3
# Si number density = 18.492060 Si / 1000 Ang^3
#
#
#
# Elastic Constant Matrix: (Units=GPa)
#
#
# Indices 1 2 3 4 5 6 
#
# 1 73.9854 41.8575 37.9625 0.0000 0.0000 0.0000
# 2 41.8575 117.5911 62.1158 0.0000 0.0000 0.0000
# 3 37.9625 62.1158 95.2084 0.0000 0.0000 0.0000
# 4 0.0000 0.0000 0.0000 36.3285 0.0000 0.0000
# 5 0.0000 0.0000 0.0000 0.0000 30.4430 0.0000
# 6 0.0000 0.0000 0.0000 0.0000 0.0000 23.6607
#
#
#
# Elastic Compliance Matrix: (Units=1/GPa)
#
#
# Indices 1 2 3 4 5 6 
#
# 1 0.018162 -0.004028 -0.004614 0.000000 0.000000 0.000000
# 2 -0.004028 0.013869 -0.007443 0.000000 0.000000 0.000000
# 3 -0.004614 -0.007443 0.017199 0.000000 0.000000 0.000000
# 4 0.000000 0.000000 0.000000 0.027527 0.000000 0.000000
# 5 0.000000 0.000000 0.000000 0.000000 0.032848 0.000000
# 6 0.000000 0.000000 0.000000 0.000000 0.000000 0.042264
#
#
# Mechanical properties :
#
#
# Convention : Reuss Voigt Hill
#
# Bulk Modulus (GPa) = 58.61146 63.40630 61.00888
# Shear Modulus (GPa) = 26.35388 27.74304 27.04846
#
# Velocity S-wave (km/s) = 3.77921 3.87753 3.82868
# Velocity P-wave (km/s) = 7.12794 7.37630 7.25318
#
# Compressibility (1/GPa) = 0.01706151
#
# Stress axis : x y z
#
# Youngs Moduli (GPa) = 55.05870 72.10244 58.14379
#
# Poissons Ratio (x) = 0.29041 0.26829
# Poissons Ratio (y) = 0.22176 0.43274
# Poissons Ratio (z) = 0.25405 0.53663
#
# Static dielectric constant tensor:
#      x y z
#    x 3.218090 0.000000 0.000000 
#    y 0.000000 3.408500 0.000000 
#    z 0.000000 0.000000 3.462500 
# 
# 
# High freq. dielectric constant tensor:
#      x y z
#    x 1.696580 0.000000 0.000000 
#    y 0.000000 1.717720 0.000000 
#    z 0.000000 0.000000 1.725060 
# 
# From -- ./inp_files/12409.got.cif
#   From: 2010.03.12/outbox.cif.g09.slc.cpg/sg65_7_cif.got.tgz:12409.got - 2010.04.10 20:52:16.
