data_PCOD8271213
_publ_section_title
;
Structure prediction by ZEFSAII (Michael W. Deem and Ramdas Pophale) SiO2 
 PCOD8271213
Probable space group: C M M M
;
_chemical_formula_sum "Si O2"
_cell_formula_units_Z 104
_cell_length_a 32.614173
_cell_length_b 19.792198
_cell_length_c 9.102141
_cell_angle_alpha 90.000000
_cell_angle_beta 90.000000
_cell_angle_gamma 90.000000
_cell_volume 5875.488172
_symmetry_space_group_name_H-M "C M M M"
_symmetry_group_IT_number 65
_symmetry_cell_setting 'orthorhombic'
loop_
_space_group_symop_operation_xyz
x,y,z
-x,-y,z
x,-y,-z
-x,y,-z
-x,-y,-z
x,y,-z
-x,y,z
x,-y,z
1/2+x,1/2+y,z
1/2-x,1/2-y,z
1/2+x,1/2-y,-z
1/2-x,1/2+y,-z
1/2-x,1/2-y,-z
1/2+x,1/2+y,-z
1/2-x,1/2+y,z
1/2+x,1/2-y,z
loop_
_atom_site_type_symbol
_atom_site_label
_atom_site_fract_x
_atom_site_fract_y
_atom_site_fract_z
Si Si1 0.547425 0.000000 0.162162
Si Si2 0.126974 0.179919 0.328800
Si Si3 0.953604 0.777419 0.173826
Si Si4 0.184606 0.078474 0.831677
Si Si5 0.078294 0.364062 0.826482
Si Si6 0.156695 0.327545 0.331419
Si Si7 0.731926 0.076950 0.330862
O O1 0.560566 0.932151 0.247488
O O2 0.500000 0.000000 0.142348
O O3 0.568181 0.000000 0.000000
O O4 0.120630 0.166933 0.500000
O O5 0.081588 0.180757 0.256853
O O6 0.150433 0.117540 0.258979
O O7 0.154914 0.246911 0.301167
O O8 0.948159 0.699938 0.226849
O O9 0.000000 0.800890 0.215985
O O10 0.946443 0.785115 0.000000
O O11 0.229425 0.094126 0.769089
O O12 0.173985 0.000000 0.816108
O O13 0.183665 0.102407 0.000000
O O14 0.124943 0.361489 0.777546
O O15 0.075250 0.367483 0.000000
O O16 0.144590 0.342046 0.500000
O O17 0.199435 0.364054 0.293646
O O18 0.745499 0.082373 0.500000
O O19 0.715602 0.000000 0.298973
#
# Coordination Sequence:
#
# PCOD8271213 Si02
#       7
#     8  16  16  16  16  16  16
#     4   9  16  26  41  63  91 125 169 217 261 301
#     4  10  20  34  53  77 105 134 166 205 249 301
#     4   9  17  31  51  73  99 132 169 208 250 297
#     4  10  21  37  56  78 102 128 161 203 250 301
#     4   9  17  28  44  67  94 129 171 214 256 297
#     4   9  19  33  48  71 101 134 171 210 252 294
#     4   9  18  33  52  72  98 137 178 210 246 294
#
# _framework density 17.700657
#
# number of rings (size 3 to 8) (size 9 to 14) (size 15 to 20)
#    0.000    2.692    0.000    1.385    1.077    4.923 
#    0.000    3.077    0.000    2.308    0.000    3.231 
#    0.000    0.000    0.000    0.000    0.000    0.000 
#
# Total GULP energy -644453.117492 kJ/mol
# GULP energy per Si atom -12393.329183 kJ/mol
# Density = 1.766037 g / cm^3
# Si number density = 17.700657 Si / 1000 Ang^3
#
#
#
# Elastic Constant Matrix: (Units=GPa)
#
#
# Indices 1 2 3 4 5 6 
#
# 1 114.5546 55.2251 45.8405 0.0000 0.0000 0.0000
# 2 55.2251 65.0016 30.6658 0.0000 0.0000 0.0000
# 3 45.8405 30.6658 51.8006 0.0000 0.0000 0.0000
# 4 0.0000 0.0000 0.0000 22.3955 0.0000 0.0000
# 5 0.0000 0.0000 0.0000 0.0000 9.2374 0.0000
# 6 0.0000 0.0000 0.0000 0.0000 0.0000 26.8365
#
#
#
# Elastic Compliance Matrix: (Units=1/GPa)
#
#
# Indices 1 2 3 4 5 6 
#
# 1 0.017498 -0.010491 -0.009274 0.000000 0.000000 0.000000
# 2 -0.010491 0.027636 -0.007076 0.000000 0.000000 0.000000
# 3 -0.009274 -0.007076 0.031701 0.000000 0.000000 0.000000
# 4 0.000000 0.000000 0.000000 0.044652 0.000000 0.000000
# 5 0.000000 0.000000 0.000000 0.000000 0.108255 0.000000
# 6 0.000000 0.000000 0.000000 0.000000 0.000000 0.037263
#
#
# Mechanical properties :
#
#
# Convention : Reuss Voigt Hill
#
# Bulk Modulus (GPa) = 43.19301 54.97998 49.08649
# Shear Modulus (GPa) = 15.22508 18.33557 16.78033
#
# Velocity S-wave (km/s) = 2.93600 3.22198 3.08231
# Velocity P-wave (km/s) = 5.99569 6.70597 6.36075
#
# Compressibility (1/GPa) = 0.02315190
#
# Stress axis : x y z
#
# Youngs Moduli (GPa) = 57.14831 36.18486 31.54469
#
# Poissons Ratio (x) = 0.37962 0.29255
# Poissons Ratio (y) = 0.59955 0.22322
# Poissons Ratio (z) = 0.53001 0.25605
#
# Static dielectric constant tensor:
#      x y z
#    x 3.204640 0.000000 0.000000 
#    y 0.000000 3.362200 0.000000 
#    z 0.000000 0.000000 3.276260 
# 
# 
# High freq. dielectric constant tensor:
#      x y z
#    x 1.679060 0.000000 0.000000 
#    y 0.000000 1.677840 0.000000 
#    z 0.000000 0.000000 1.675850 
# 
# From -- ./inp_files/14697.got.cif
#   From: 2010.03.12/outbox.cif.g09.slc.cpg/sg65_8_cif.got.tgz:14697.got - 2010.04.10 20:52:16.
