data_PCOD8271295
_publ_section_title
;
Structure prediction by ZEFSAII (Michael W. Deem and Ramdas Pophale) SiO2 
 PCOD8271295
Probable space group: C M M M
;
_chemical_formula_sum "Si O2"
_cell_formula_units_Z 56
_cell_length_a 28.216682
_cell_length_b 10.076569
_cell_length_c 8.732549
_cell_angle_alpha 90.000000
_cell_angle_beta 90.000000
_cell_angle_gamma 90.000000
_cell_volume 2482.902456
_symmetry_space_group_name_H-M "C M M M"
_symmetry_group_IT_number 65
_symmetry_cell_setting 'orthorhombic'
loop_
_space_group_symop_operation_xyz
x,y,z
-x,-y,z
x,-y,-z
-x,y,-z
-x,-y,-z
x,y,-z
-x,y,z
x,-y,z
1/2+x,1/2+y,z
1/2-x,1/2-y,z
1/2+x,1/2-y,-z
1/2-x,1/2+y,-z
1/2-x,1/2-y,-z
1/2+x,1/2+y,-z
1/2-x,1/2+y,z
1/2+x,1/2-y,z
loop_
_atom_site_type_symbol
_atom_site_label
_atom_site_fract_x
_atom_site_fract_y
_atom_site_fract_z
Si Si1 0.179532 0.500000 0.180387
Si Si2 0.053847 0.500000 0.333024
Si Si3 0.354219 0.274339 0.320621
Si Si4 0.719095 0.500000 0.678090
Si Si5 0.052898 0.773635 0.819712
O O1 0.154476 0.370316 0.249214
O O2 0.234862 0.500000 0.218241
O O3 0.172545 0.500000 0.000000
O O4 0.080872 0.500000 0.500000
O O5 0.065383 0.375860 0.227121
O O6 0.000000 0.500000 0.378128
O O7 0.360855 0.259037 0.500000
O O8 0.310296 0.368527 0.280478
O O9 0.402245 0.348280 0.256184
O O10 0.733871 0.500000 0.500000
O O11 0.000000 0.817653 0.760330
O O12 0.054069 0.792300 0.000000
#
# Coordination Sequence:
#
# PCOD8271295 Si02
#       5
#     8   8  16   8  16
#     4  12  25  41  65  96 126 157 197 248 307 369
#     4   9  16  27  46  73 106 146 192 241 292 343
#     4  11  23  41  65  91 122 161 205 252 301 358
#     4  10  24  45  66  90 121 159 204 254 306 358
#     4  10  20  34  53  81 119 159 199 246 298 354
#
# _framework density 22.554248999999999
#
# number of rings (size 3 to 8) (size 9 to 14) (size 15 to 20)
#    0.000    1.571    0.000    5.143    0.000    9.143 
#    0.000    0.714    0.000    4.286    0.000    0.000 
#    0.000    0.000    0.000    0.000    0.000    0.000 
#
# Total GULP energy -346913.788216 kJ/mol
# GULP energy per Si atom -12389.778151 kJ/mol
# Density = 2.250291 g / cm^3
# Si number density = 22.554249 Si / 1000 Ang^3
#
#
#
# Elastic Constant Matrix: (Units=GPa)
#
#
# Indices 1 2 3 4 5 6 
#
# 1 191.2660 24.0080 71.7719 0.0000 0.0000 0.0000
# 2 24.0080 70.6241 27.2544 0.0000 0.0000 0.0000
# 3 71.7719 27.2544 120.7747 0.0000 0.0000 0.0000
# 4 0.0000 0.0000 0.0000 3.1317 0.0000 0.0000
# 5 0.0000 0.0000 0.0000 0.0000 43.4067 0.0000
# 6 0.0000 0.0000 0.0000 0.0000 0.0000 -125.1419
#
#
#
# Elastic Compliance Matrix: (Units=1/GPa)
#
#
# Indices 1 2 3 4 5 6 
#
# 1 0.006772 -0.000820 -0.003839 0.000000 0.000000 0.000000
# 2 -0.000820 0.015610 -0.003035 0.000000 0.000000 0.000000
# 3 -0.003839 -0.003035 0.011246 0.000000 0.000000 0.000000
# 4 0.000000 0.000000 0.000000 0.319317 0.000000 0.000000
# 5 0.000000 0.000000 0.000000 0.000000 0.023038 0.000000
# 6 0.000000 0.000000 0.000000 0.000000 0.000000 -0.007991
#
#
# Mechanical properties :
#
#
# Convention : Reuss Voigt Hill
#
# Bulk Modulus (GPa) = 54.82876 69.85926 62.34401
# Shear Modulus (GPa) = 12.83826 1.58802 7.21314
#
# Velocity S-wave (km/s) = 2.38842 0.84001 1.79027
# Velocity P-wave (km/s) = 5.65407 5.65526 5.65467
#
# Compressibility (1/GPa) = 0.01823860
#
# Stress axis : x y z
#
# Youngs Moduli (GPa) = 147.66828 64.06317 88.91883
#
# Poissons Ratio (x) = 0.05256 0.34137
# Poissons Ratio (y) = 0.12116 0.26986
# Poissons Ratio (z) = 0.56692 0.19443
#
# Static dielectric constant tensor:
#      x y z
#    x 4.674650 0.000000 0.000000 
#    y 0.000000 4.072780 0.000000 
#    z 0.000000 0.000000 3.929820 
# 
# 
# High freq. dielectric constant tensor:
#      x y z
#    x 1.925140 0.000000 0.000000 
#    y 0.000000 1.865470 0.000000 
#    z 0.000000 0.000000 1.887340 
# 
# From -- ./inp_files/17736.got.cif
#   From: 2010.03.12/outbox.cif.g09.slc.cpg/sg65_9_cif.got.tgz:17736.got - 2010.04.10 20:52:16.
