data_PCOD8271038
_publ_section_title
;
Structure prediction by ZEFSAII (Michael W. Deem and Ramdas Pophale) SiO2 
 PCOD8271038
Probable space group: C M M M
;
_chemical_formula_sum "Si O2"
_cell_formula_units_Z 48
_cell_length_a 9.426465
_cell_length_b 34.764560
_cell_length_c 7.670004
_cell_angle_alpha 90.000000
_cell_angle_beta 90.000000
_cell_angle_gamma 90.000000
_cell_volume 2513.513296
_symmetry_space_group_name_H-M "C M M M"
_symmetry_group_IT_number 65
_symmetry_cell_setting 'orthorhombic'
loop_
_space_group_symop_operation_xyz
x,y,z
-x,-y,z
x,-y,-z
-x,y,-z
-x,-y,-z
x,y,-z
-x,y,z
x,-y,z
1/2+x,1/2+y,z
1/2-x,1/2-y,z
1/2+x,1/2-y,-z
1/2-x,1/2+y,-z
1/2-x,1/2-y,-z
1/2+x,1/2+y,-z
1/2-x,1/2+y,z
1/2+x,1/2-y,z
loop_
_atom_site_type_symbol
_atom_site_label
_atom_site_fract_x
_atom_site_fract_y
_atom_site_fract_z
Si Si1 0.840661 0.500000 0.791728
Si Si2 0.157738 0.929565 0.793356
Si Si3 0.168593 0.155185 0.193417
Si Si4 0.331055 0.710238 0.500000
O O1 0.761668 0.462165 0.717785
O O2 0.000000 0.500000 0.718247
O O3 0.840428 0.500000 0.000000
O O4 0.219199 0.887283 0.744650
O O5 0.000000 0.935596 0.714045
O O6 0.147954 0.932916 0.000000
O O7 0.220918 0.187074 0.329496
O O8 0.000000 0.154025 0.186270
O O9 0.228615 0.165195 0.000000
O O10 0.500000 0.716742 0.500000
O O11 0.250000 0.750000 0.500000
#
# Coordination Sequence:
#
# PCOD8271038 Si02
#       4
#     8  16  16   8
#     4   9  15  21  33  60  95 122 147 185 228 267
#     4   8  13  23  40  60  83 116 156 190 220 260
#     4   8  15  29  49  71  94 122 157 195 232 271
#     4  10  20  34  52  73  96 121 151 190 237 286
#
# _framework density 19.096775999999998
#
# number of rings (size 3 to 8) (size 9 to 14) (size 15 to 20)
#    0.000    3.500    0.000    2.500    0.000    2.667 
#    0.000    1.667    0.000    3.000    0.000    7.000 
#    0.000    0.000    0.000    0.000    0.000    0.000 
#
# Total GULP energy -297419.767036 kJ/mol
# GULP energy per Si atom -12392.490293 kJ/mol
# Density = 1.905331 g / cm^3
# Si number density = 19.096776 Si / 1000 Ang^3
#
#
#
# Elastic Constant Matrix: (Units=GPa)
#
#
# Indices 1 2 3 4 5 6 
#
# 1 75.7299 68.0488 25.3657 0.0000 0.0000 0.0000
# 2 68.0488 201.0121 69.4880 0.0000 0.0000 0.0000
# 3 25.3657 69.4880 77.7578 0.0000 0.0000 0.0000
# 4 0.0000 0.0000 0.0000 -4.1979 0.0000 0.0000
# 5 0.0000 0.0000 0.0000 0.0000 5.9543 0.0000
# 6 0.0000 0.0000 0.0000 0.0000 0.0000 30.6057
#
#
#
# Elastic Compliance Matrix: (Units=1/GPa)
#
#
# Indices 1 2 3 4 5 6 
#
# 1 0.019001 -0.006207 -0.000651 0.000000 0.000000 0.000000
# 2 -0.006207 0.009226 -0.006220 0.000000 0.000000 0.000000
# 3 -0.000651 -0.006220 0.018632 0.000000 0.000000 0.000000
# 4 0.000000 0.000000 0.000000 -0.238217 0.000000 0.000000
# 5 0.000000 0.000000 0.000000 0.000000 0.167946 0.000000
# 6 0.000000 0.000000 0.000000 0.000000 0.000000 0.032674
#
#
# Mechanical properties :
#
#
# Convention : Reuss Voigt Hill
#
# Bulk Modulus (GPa) = 48.30635 75.58943 61.94789
# Shear Modulus (GPa) = 118.14867 19.24558 68.69712
#
# Velocity S-wave (km/s) = 7.87418 3.17802 6.00427
# Velocity P-wave (km/s) = 10.39330 7.28935 8.97651
#
# Compressibility (1/GPa) = 0.02070121
#
# Stress axis : x y z
#
# Youngs Moduli (GPa) = 52.63018 108.38414 53.67200
#
# Poissons Ratio (x) = 0.67275 0.03495
# Poissons Ratio (y) = 0.32668 0.33386
# Poissons Ratio (z) = 0.03428 0.67419
#
# Static dielectric constant tensor:
#      x y z
#    x 3.258630 0.000000 0.000000 
#    y 0.000000 3.713340 0.000000 
#    z 0.000000 0.000000 3.491100 
# 
# 
# High freq. dielectric constant tensor:
#      x y z
#    x 1.693870 0.000000 0.000000 
#    y 0.000000 1.748490 0.000000 
#    z 0.000000 0.000000 1.721820 
# 
# From -- ./inp_files/3054.got.cif
#   From: 2010.03.12/outbox.cif.g09.slc.cpg/sg65_2_cif.got.tgz:3054.got - 2010.04.10 20:52:16.
