data_PCOD8271839
_publ_section_title
;
Structure prediction by ZEFSAII (Michael W. Deem and Ramdas Pophale) SiO2 
 PCOD8271839
Probable space group: C M M M
;
_chemical_formula_sum "Si O2"
_cell_formula_units_Z 80
_cell_length_a 8.715510
_cell_length_b 22.089675
_cell_length_c 22.176416
_cell_angle_alpha 90.000000
_cell_angle_beta 90.000000
_cell_angle_gamma 90.000000
_cell_volume 4269.465333
_symmetry_space_group_name_H-M "C M M M"
_symmetry_group_IT_number 65
_symmetry_cell_setting 'orthorhombic'
loop_
_space_group_symop_operation_xyz
x,y,z
-x,-y,z
x,-y,-z
-x,y,-z
-x,-y,-z
x,y,-z
-x,y,z
x,-y,z
1/2+x,1/2+y,z
1/2-x,1/2-y,z
1/2+x,1/2-y,-z
1/2-x,1/2+y,-z
1/2-x,1/2-y,-z
1/2+x,1/2+y,-z
1/2-x,1/2+y,z
1/2+x,1/2-y,z
loop_
_atom_site_type_symbol
_atom_site_label
_atom_site_fract_x
_atom_site_fract_y
_atom_site_fract_z
Si Si1 0.678449 0.624466 0.113498
Si Si2 0.321838 0.186240 0.000000
Si Si3 0.319057 0.687202 0.765083
Si Si4 0.323766 0.431563 0.428774
Si Si5 0.820689 0.000000 0.066484
Si Si6 0.181821 0.316342 0.637016
O O1 0.500000 0.637271 0.101087
O O2 0.772910 0.656257 0.061886
O O3 0.722735 0.641477 0.181480
O O4 0.727924 0.555406 0.107743
O O5 0.250000 0.250000 0.000000
O O6 0.500000 0.191583 0.000000
O O7 0.500000 0.692453 0.752977
O O8 0.250000 0.750000 0.787620
O O9 0.236522 0.666655 0.704016
O O10 0.306454 0.427781 0.500000
O O11 0.500000 0.423376 0.408914
O O12 0.268423 0.500000 0.407997
O O13 0.229363 0.374422 0.402914
O O14 0.000000 0.000000 0.054234
O O15 0.740423 0.000000 0.000000
O O16 0.250000 0.250000 0.616852
O O17 0.000000 0.309426 0.634310
#
# Coordination Sequence:
#
# PCOD8271839 Si02
#       6
#    16   8  16  16   8  16
#     4  10  20  36  57  79 104 138 180 222 269 324
#     4  12  24  35  52  77 105 134 172 220 275 330
#     4  10  20  35  56  80 108 142 184 229 279 331
#     4   9  19  38  63  89 119 155 195 239 285 335
#     4   9  16  32  58  78 102 136 173 216 261 322
#     4  11  22  37  59  85 119 156 195 238 286 340
#
# _framework density 18.73771
#
# number of rings (size 3 to 8) (size 9 to 14) (size 15 to 20)
#    0.000    1.900    1.000    5.700    0.000    4.400 
#    1.800    2.000    0.000    0.000    0.000    0.000 
#    0.000    0.000    0.000    0.000    0.000    0.000 
#
# Total GULP energy -495602.915506 kJ/mol
# GULP energy per Si atom -12390.072888 kJ/mol
# Density = 1.869506 g / cm^3
# Si number density = 18.737710 Si / 1000 Ang^3
#
#
#
# Elastic Constant Matrix: (Units=GPa)
#
#
# Indices 1 2 3 4 5 6 
#
# 1 109.4451 58.6165 45.3087 0.0000 0.0000 0.0000
# 2 58.6165 161.0510 68.0065 0.0000 0.0000 0.0000
# 3 45.3087 68.0065 82.6565 0.0000 0.0000 0.0000
# 4 0.0000 0.0000 0.0000 45.2042 0.0000 0.0000
# 5 0.0000 0.0000 0.0000 0.0000 32.3626 0.0000
# 6 0.0000 0.0000 0.0000 0.0000 0.0000 27.2276
#
#
#
# Elastic Compliance Matrix: (Units=1/GPa)
#
#
# Indices 1 2 3 4 5 6 
#
# 1 0.012457 -0.002529 -0.004747 0.000000 0.000000 0.000000
# 2 -0.002529 0.010028 -0.006865 0.000000 0.000000 0.000000
# 3 -0.004747 -0.006865 0.020349 0.000000 0.000000 0.000000
# 4 0.000000 0.000000 0.000000 0.022122 0.000000 0.000000
# 5 0.000000 0.000000 0.000000 0.000000 0.030900 0.000000
# 6 0.000000 0.000000 0.000000 0.000000 0.000000 0.036727
#
#
# Mechanical properties :
#
#
# Convention : Reuss Voigt Hill
#
# Bulk Modulus (GPa) = 68.72173 77.44622 73.08398
# Shear Modulus (GPa) = 30.17210 33.04028 31.60619
#
# Velocity S-wave (km/s) = 4.01713 4.20373 4.11149
# Velocity P-wave (km/s) = 7.63359 8.06122 7.85031
#
# Compressibility (1/GPa) = 0.01455144
#
# Stress axis : x y z
#
# Youngs Moduli (GPa) = 80.27640 99.71648 49.14359
#
# Poissons Ratio (x) = 0.25220 0.23331
# Poissons Ratio (y) = 0.20303 0.33735
# Poissons Ratio (z) = 0.38111 0.68451
#
# Static dielectric constant tensor:
#      x y z
#    x 3.368720 0.000000 0.000000 
#    y 0.000000 3.496190 0.000000 
#    z 0.000000 0.000000 3.414700 
# 
# 
# High freq. dielectric constant tensor:
#      x y z
#    x 1.719940 0.000000 0.000000 
#    y 0.000000 1.740190 0.000000 
#    z 0.000000 0.000000 1.726550 
# 
# From -- ./inp_files/67340.got.cif
#   From: 2010.03.12/outbox.cif.g09.slc.cpg/sg65_34_cif.got.tgz:67340.got - 2010.04.10 20:52:16.
