data_PCOD8271247
_publ_section_title
;
Structure prediction by ZEFSAII (Michael W. Deem and Ramdas Pophale) SiO2 
 PCOD8271247
Probable space group: C M M M
;
_chemical_formula_sum "Si O2"
_cell_formula_units_Z 88
_cell_length_a 17.477390
_cell_length_b 30.596850
_cell_length_c 9.201912
_cell_angle_alpha 90.000000
_cell_angle_beta 90.000000
_cell_angle_gamma 90.000000
_cell_volume 4920.750786
_symmetry_space_group_name_H-M "C M M M"
_symmetry_group_IT_number 65
_symmetry_cell_setting 'orthorhombic'
loop_
_space_group_symop_operation_xyz
x,y,z
-x,-y,z
x,-y,-z
-x,y,-z
-x,-y,-z
x,y,-z
-x,y,z
x,-y,z
1/2+x,1/2+y,z
1/2-x,1/2-y,z
1/2+x,1/2-y,-z
1/2-x,1/2+y,-z
1/2-x,1/2-y,-z
1/2+x,1/2+y,-z
1/2-x,1/2+y,z
1/2+x,1/2-y,z
loop_
_atom_site_type_symbol
_atom_site_label
_atom_site_fract_x
_atom_site_fract_y
_atom_site_fract_z
Si Si1 0.695808 0.615624 0.662161
Si Si2 0.588088 0.450695 0.171143
Si Si3 0.133767 0.416325 0.336178
Si Si4 0.590279 0.000000 0.163625
Si Si5 0.414645 0.165863 0.167430
Si Si6 0.277050 0.201095 0.332156
O O1 0.660922 0.616913 0.500000
O O2 0.637660 0.588245 0.760291
O O3 0.776556 0.591964 0.663082
O O4 0.712069 0.665728 0.718007
O O5 0.500000 0.442725 0.214513
O O6 0.612469 0.500000 0.222785
O O7 0.599063 0.447455 0.000000
O O8 0.102092 0.420925 0.500000
O O9 0.122899 0.459438 0.247117
O O10 0.086545 0.379120 0.254871
O O11 0.500000 0.000000 0.164732
O O12 0.622285 0.000000 0.000000
O O13 0.500000 0.186036 0.180322
O O14 0.353597 0.198781 0.236635
O O15 0.393202 0.156971 0.000000
O O16 0.297702 0.190424 0.500000
O O17 0.250000 0.250000 0.310949
#
# Coordination Sequence:
#
# PCOD8271247 Si02
#       6
#    16  16  16   8  16  16
#     4   9  19  34  53  78 103 130 170 217 261 310
#     4   9  19  35  53  75 104 139 178 216 259 318
#     4  10  21  35  51  73 102 137 176 216 256 305
#     4  11  23  35  47  69 102 137 174 215 257 300
#     4  10  20  34  53  78 106 135 172 216 261 313
#     4   9  19  37  58  79 105 138 177 220 267 322
#
# _framework density 17.883448999999999
#
# number of rings (size 3 to 8) (size 9 to 14) (size 15 to 20)
#    0.000    2.455    0.000    3.545    1.273    9.091 
#    0.000    1.818    0.000    5.455    0.000    0.000 
#    0.000    0.000    0.000    0.000    0.000    0.000 
#
# Total GULP energy -545384.274341 kJ/mol
# GULP energy per Si atom -12395.097144 kJ/mol
# Density = 1.784275 g / cm^3
# Si number density = 17.883449 Si / 1000 Ang^3
#
#
#
# Elastic Constant Matrix: (Units=GPa)
#
#
# Indices 1 2 3 4 5 6 
#
# 1 79.7847 56.0765 44.7044 0.0000 0.0000 0.0000
# 2 56.0765 131.5276 64.1468 0.0000 0.0000 0.0000
# 3 44.7044 64.1468 108.9120 0.0000 0.0000 0.0000
# 4 0.0000 0.0000 0.0000 41.3740 0.0000 0.0000
# 5 0.0000 0.0000 0.0000 0.0000 30.2947 0.0000
# 6 0.0000 0.0000 0.0000 0.0000 0.0000 11.0453
#
#
#
# Elastic Compliance Matrix: (Units=1/GPa)
#
#
# Indices 1 2 3 4 5 6 
#
# 1 0.019232 -0.006103 -0.004300 0.000000 0.000000 0.000000
# 2 -0.006103 0.012603 -0.004918 0.000000 0.000000 0.000000
# 3 -0.004300 -0.004918 0.013843 0.000000 0.000000 0.000000
# 4 0.000000 0.000000 0.000000 0.024170 0.000000 0.000000
# 5 0.000000 0.000000 0.000000 0.000000 0.033009 0.000000
# 6 0.000000 0.000000 0.000000 0.000000 0.000000 0.090537
#
#
# Mechanical properties :
#
#
# Convention : Reuss Voigt Hill
#
# Bulk Modulus (GPa) = 66.49956 72.23106 69.36531
# Shear Modulus (GPa) = 21.82946 26.89589 24.36268
#
# Velocity S-wave (km/s) = 3.49757 3.88229 3.69494
# Velocity P-wave (km/s) = 7.31959 7.78292 7.55481
#
# Compressibility (1/GPa) = 0.01503769
#
# Stress axis : x y z
#
# Youngs Moduli (GPa) = 51.99633 79.34345 72.23645
#
# Poissons Ratio (x) = 0.48419 0.31061
# Poissons Ratio (y) = 0.31731 0.35528
# Poissons Ratio (z) = 0.22358 0.39023
#
# Static dielectric constant tensor:
#      x y z
#    x 2.684930 0.000000 0.000000 
#    y 0.000000 3.176770 0.000000 
#    z 0.000000 0.000000 3.495390 
# 
# 
# High freq. dielectric constant tensor:
#      x y z
#    x 1.683740 0.000000 0.000000 
#    y 0.000000 1.689420 0.000000 
#    z 0.000000 0.000000 1.699390 
# 
# From -- ./inp_files/10132.got.cif
#   From: 2010.03.12/outbox.cif.g09.slc.cpg/sg65_6_cif.got.tgz:10132.got - 2010.04.10 20:52:16.
