data_PCOD8271998
_publ_section_title
;
Structure prediction by ZEFSAII (Michael W. Deem and Ramdas Pophale) SiO2 
 PCOD8271998
Probable space group: C M M M
;
_chemical_formula_sum "Si O2"
_cell_formula_units_Z 120
_cell_length_a 28.158121
_cell_length_b 14.412556
_cell_length_c 14.764716
_cell_angle_alpha 90.000000
_cell_angle_beta 90.000000
_cell_angle_gamma 90.000000
_cell_volume 5991.972014
_symmetry_space_group_name_H-M "C M M M"
_symmetry_group_IT_number 65
_symmetry_cell_setting 'orthorhombic'
loop_
_space_group_symop_operation_xyz
x,y,z
-x,-y,z
x,-y,-z
-x,y,-z
-x,-y,-z
x,y,-z
-x,y,z
x,-y,z
1/2+x,1/2+y,z
1/2-x,1/2-y,z
1/2+x,1/2-y,-z
1/2-x,1/2+y,-z
1/2-x,1/2-y,-z
1/2+x,1/2+y,-z
1/2-x,1/2+y,z
1/2+x,1/2-y,z
loop_
_atom_site_type_symbol
_atom_site_label
_atom_site_fract_x
_atom_site_fract_y
_atom_site_fract_z
Si Si1 0.000000 0.896739 0.607002
Si Si2 0.405590 0.293508 0.398179
Si Si3 0.054161 0.210064 0.899504
Si Si4 0.444731 0.103831 0.353302
Si Si5 0.408192 0.898480 0.153691
Si Si6 0.809010 0.647599 0.898042
Si Si7 0.703336 0.365399 0.897254
Si Si8 0.377610 0.397103 0.234295
O O1 0.046187 0.840830 0.638593
O O2 0.000000 0.902861 0.500000
O O3 0.000000 0.000000 0.649599
O O4 0.391138 0.325418 0.500000
O O5 0.412426 0.182062 0.401291
O O6 0.368005 0.331658 0.323407
O O7 0.073159 0.315566 0.908610
O O8 0.083178 0.149620 0.829043
O O9 0.000000 0.210015 0.866631
O O10 0.059191 0.166554 0.000000
O O11 0.500000 0.123392 0.374208
O O12 0.435229 0.111521 0.247674
O O13 0.431122 0.000000 0.388408
O O14 0.350847 0.889990 0.166787
O O15 0.419930 0.000000 0.111837
O O16 0.757433 0.608237 0.870118
O O17 0.806683 0.757328 0.892958
O O18 0.821425 0.615737 0.000000
O O19 0.670228 0.412668 0.822967
O O20 0.692965 0.400589 0.000000
O O21 0.394355 0.500000 0.265150
#
# Coordination Sequence:
#
# PCOD8271998 Si02
#       8
#     8  16  16  16  16  16  16  16
#     4   9  18  32  51  77 106 138 178 225 279 339
#     4  11  22  38  59  83 112 145 185 239 297 352
#     4  11  24  40  56  77 112 157 202 242 279 332
#     4  10  20  35  57  85 117 153 192 235 289 355
#     4  11  21  34  56  85 117 154 192 234 285 342
#     4   9  17  32  56  85 117 151 190 239 291 343
#     4   9  18  35  59  85 116 154 193 236 289 346
#     4  12  25  39  59  83 113 154 196 244 295 344
#
# _framework density 20.026796000000001
#
# number of rings (size 3 to 8) (size 9 to 14) (size 15 to 20)
#    0.000    1.667    3.333    2.400    0.933    4.800 
#    0.000    3.333    0.000    0.000    0.000    7.467 
#    0.000    6.400    0.000    0.000    0.000    0.000 
#
# Total GULP energy -743601.725357 kJ/mol
# GULP energy per Si atom -12393.362089 kJ/mol
# Density = 1.998121 g / cm^3
# Si number density = 20.026796 Si / 1000 Ang^3
#
#
#
# Elastic Constant Matrix: (Units=GPa)
#
#
# Indices 1 2 3 4 5 6 
#
# 1 74.3158 17.4289 29.6718 0.0000 0.0000 0.0000
# 2 17.4289 119.7483 27.3289 0.0000 0.0000 0.0000
# 3 29.6718 27.3289 92.2181 0.0000 0.0000 0.0000
# 4 0.0000 0.0000 0.0000 -30.6745 0.0000 0.0000
# 5 0.0000 0.0000 0.0000 0.0000 15.8308 0.0000
# 6 0.0000 0.0000 0.0000 0.0000 0.0000 12.5151
#
#
#
# Elastic Compliance Matrix: (Units=1/GPa)
#
#
# Indices 1 2 3 4 5 6 
#
# 1 0.015600 -0.001207 -0.004662 0.000000 0.000000 0.000000
# 2 -0.001207 0.009050 -0.002294 0.000000 0.000000 0.000000
# 3 -0.004662 -0.002294 0.013024 0.000000 0.000000 0.000000
# 4 0.000000 0.000000 0.000000 -0.032600 0.000000 0.000000
# 5 0.000000 0.000000 0.000000 0.000000 0.063168 0.000000
# 6 0.000000 0.000000 0.000000 0.000000 0.000000 0.079904
#
#
# Mechanical properties :
#
#
# Convention : Reuss Voigt Hill
#
# Bulk Modulus (GPa) = 46.83974 48.34902 47.59438
# Shear Modulus (GPa) = 29.13984 13.65778 21.39881
#
# Velocity S-wave (km/s) = 3.81864 2.61430 3.27235
# Velocity P-wave (km/s) = 6.54843 5.77125 6.17209
#
# Compressibility (1/GPa) = 0.02134939
#
# Stress axis : x y z
#
# Youngs Moduli (GPa) = 64.10072 110.49795 76.78353
#
# Poissons Ratio (x) = 0.13333 0.35796
# Poissons Ratio (y) = 0.07735 0.17612
# Poissons Ratio (z) = 0.29884 0.25345
#
# Static dielectric constant tensor:
#      x y z
#    x 3.784570 0.000000 0.000000 
#    y 0.000000 3.836770 0.000000 
#    z 0.000000 0.000000 3.448200 
# 
# 
# High freq. dielectric constant tensor:
#      x y z
#    x 1.757680 0.000000 0.000000 
#    y 0.000000 1.797100 0.000000 
#    z 0.000000 0.000000 1.758930 
# 
# From -- ./inp_files/48109.got.cif
#   From: 2010.03.12/outbox.cif.g09.slc.cpg/sg65_25_cif.got.tgz:48109.got - 2010.04.10 20:52:16.
