data_PCOD8271436
_publ_section_title
;
Structure prediction by ZEFSAII (Michael W. Deem and Ramdas Pophale) SiO2 
 PCOD8271436
Probable space group: C M M M
;
_chemical_formula_sum "Si O2"
_cell_formula_units_Z 96
_cell_length_a 8.717777
_cell_length_b 28.669144
_cell_length_c 20.418690
_cell_angle_alpha 90.000000
_cell_angle_beta 90.000000
_cell_angle_gamma 90.000000
_cell_volume 5103.267779
_symmetry_space_group_name_H-M "C M M M"
_symmetry_group_IT_number 65
_symmetry_cell_setting 'orthorhombic'
loop_
_space_group_symop_operation_xyz
x,y,z
-x,-y,z
x,-y,-z
-x,y,-z
-x,-y,-z
x,y,-z
-x,y,z
x,-y,z
1/2+x,1/2+y,z
1/2-x,1/2-y,z
1/2+x,1/2-y,-z
1/2-x,1/2+y,-z
1/2-x,1/2-y,-z
1/2+x,1/2+y,-z
1/2-x,1/2+y,z
1/2+x,1/2-y,z
loop_
_atom_site_type_symbol
_atom_site_label
_atom_site_fract_x
_atom_site_fract_y
_atom_site_fract_z
Si Si1 0.321107 0.299160 0.075879
Si Si2 0.820352 0.642364 0.813943
Si Si3 0.678172 0.447306 0.230358
Si Si4 0.323860 0.947755 0.368849
Si Si5 0.681080 0.301019 0.305752
Si Si6 0.177418 0.862319 0.427112
O O1 0.500000 0.298295 0.092678
O O2 0.250000 0.250000 0.097032
O O3 0.237078 0.339006 0.116538
O O4 0.289881 0.309759 0.000000
O O5 0.778575 0.587647 0.813352
O O6 0.736760 0.668209 0.754637
O O7 0.000000 0.650055 0.806800
O O8 0.500000 0.435935 0.220372
O O9 0.717835 0.500000 0.208377
O O10 0.717765 0.439733 0.306076
O O11 0.500000 0.939586 0.348367
O O12 0.273052 0.910296 0.422698
O O13 0.301049 0.000000 0.397303
O O14 0.500000 0.296752 0.302236
O O15 0.750000 0.250000 0.301239
O O16 0.735458 0.324821 0.373765
O O17 0.204272 0.841642 0.500000
O O18 0.000000 0.874240 0.415098
#
# Coordination Sequence:
#
# PCOD8271436 Si02
#       6
#    16  16  16  16  16  16
#     4  10  21  38  60  87 121 158 195 234 279 331
#     4  12  23  36  59  88 119 151 188 232 279 332
#     4  10  20  35  57  84 114 148 186 230 280 334
#     4  10  20  34  54  81 111 142 180 228 282 338
#     4  11  23  39  58  80 109 143 187 238 284 337
#     4  10  22  39  57  77 105 145 189 233 284 342
#
# _framework density 18.811475999999999
#
# number of rings (size 3 to 8) (size 9 to 14) (size 15 to 20)
#    0.000    1.500    1.667    4.000    0.000    4.667 
#    0.000    1.667    0.000    0.500    0.000    3.500 
#    0.000    0.000    0.000    0.000    0.000    0.000 
#
# Total GULP energy -595378.832599 kJ/mol
# GULP energy per Si atom -12403.725679 kJ/mol
# Density = 1.876866 g / cm^3
# Si number density = 18.811476 Si / 1000 Ang^3
#
#
#
# Elastic Constant Matrix: (Units=GPa)
#
#
# Indices 1 2 3 4 5 6 
#
# 1 72.1118 38.8796 28.7367 0.0000 0.0000 0.0000
# 2 38.8796 115.1963 47.2477 0.0000 0.0000 0.0000
# 3 28.7367 47.2477 82.6996 0.0000 0.0000 0.0000
# 4 0.0000 0.0000 0.0000 30.5444 0.0000 0.0000
# 5 0.0000 0.0000 0.0000 0.0000 22.5110 0.0000
# 6 0.0000 0.0000 0.0000 0.0000 0.0000 34.7077
#
#
#
# Elastic Compliance Matrix: (Units=1/GPa)
#
#
# Indices 1 2 3 4 5 6 
#
# 1 0.017729 -0.004515 -0.003581 0.000000 0.000000 0.000000
# 2 -0.004515 0.012487 -0.005565 0.000000 0.000000 0.000000
# 3 -0.003581 -0.005565 0.016516 0.000000 0.000000 0.000000
# 4 0.000000 0.000000 0.000000 0.032739 0.000000 0.000000
# 5 0.000000 0.000000 0.000000 0.000000 0.044423 0.000000
# 6 0.000000 0.000000 0.000000 0.000000 0.000000 0.028812
#
#
# Mechanical properties :
#
#
# Convention : Reuss Voigt Hill
#
# Bulk Modulus (GPa) = 51.52145 55.52618 53.52381
# Shear Modulus (GPa) = 26.80996 27.89553 27.35275
#
# Velocity S-wave (km/s) = 3.77927 3.85502 3.81733
# Velocity P-wave (km/s) = 6.81847 7.02824 6.92415
#
# Compressibility (1/GPa) = 0.01940939
#
# Stress axis : x y z
#
# Youngs Moduli (GPa) = 56.40614 80.08177 60.54777
#
# Poissons Ratio (x) = 0.36155 0.21682
# Poissons Ratio (y) = 0.25466 0.33697
# Poissons Ratio (z) = 0.20199 0.44568
#
# Static dielectric constant tensor:
#      x y z
#    x 3.528430 0.000000 0.000000 
#    y 0.000000 3.615410 0.000000 
#    z 0.000000 0.000000 3.313050 
# 
# 
# High freq. dielectric constant tensor:
#      x y z
#    x 1.743840 0.000000 0.000000 
#    y 0.000000 1.735160 0.000000 
#    z 0.000000 0.000000 1.712770 
# 
# From -- ./inp_files/60287.got.cif
#   From: 2010.03.12/outbox.cif.g09.slc.cpg/sg65_31_cif.got.tgz:60287.got - 2010.04.10 20:52:16.
