data_PCOD8271324
_publ_section_title
;
Structure prediction by ZEFSAII (Michael W. Deem and Ramdas Pophale) SiO2 
 PCOD8271324
Probable space group: C M M M
;
_chemical_formula_sum "Si O2"
_cell_formula_units_Z 88
_cell_length_a 18.038637
_cell_length_b 28.015072
_cell_length_c 9.414702
_cell_angle_alpha 90.000000
_cell_angle_beta 90.000000
_cell_angle_gamma 90.000000
_cell_volume 4757.754625
_symmetry_space_group_name_H-M "C M M M"
_symmetry_group_IT_number 65
_symmetry_cell_setting 'orthorhombic'
loop_
_space_group_symop_operation_xyz
x,y,z
-x,-y,z
x,-y,-z
-x,y,-z
-x,-y,-z
x,y,-z
-x,y,z
x,-y,z
1/2+x,1/2+y,z
1/2-x,1/2-y,z
1/2+x,1/2-y,-z
1/2-x,1/2+y,-z
1/2-x,1/2-y,-z
1/2+x,1/2+y,-z
1/2-x,1/2+y,z
1/2+x,1/2-y,z
loop_
_atom_site_type_symbol
_atom_site_label
_atom_site_fract_x
_atom_site_fract_y
_atom_site_fract_z
Si Si1 0.500000 0.053627 0.668704
Si Si2 0.135818 0.382044 0.664185
Si Si3 0.686315 0.287019 0.838012
Si Si4 0.583879 0.443826 0.838758
Si Si5 0.083267 0.703868 0.836639
Si Si6 0.302752 0.382712 0.335132
O O1 0.500000 0.050821 0.500000
O O2 0.425831 0.080792 0.722906
O O3 0.500000 0.000000 0.732536
O O4 0.119831 0.371096 0.500000
O O5 0.133197 0.332263 0.747135
O O6 0.218808 0.402407 0.686477
O O7 0.750000 0.250000 0.795890
O O8 0.609488 0.258424 0.818623
O O9 0.686347 0.331218 0.733504
O O10 0.696735 0.305036 0.000000
O O11 0.500000 0.428187 0.799890
O O12 0.592385 0.500000 0.822074
O O13 0.641204 0.419938 0.732807
O O14 0.601832 0.428110 0.000000
O O15 0.000000 0.700706 0.779349
O O16 0.089624 0.688091 0.000000
O O17 0.321894 0.377840 0.500000
#
# Coordination Sequence:
#
# PCOD8271324 Si02
#       6
#     8  16  16  16  16  16
#     4   9  18  34  55  77 105 145 191 231 270 327
#     4  10  20  34  54  79 108 148 189 228 277 335
#     4  10  20  35  54  77 108 150 193 231 278 332
#     4   9  20  41  66  87 110 147 192 234 282 346
#     4  10  20  34  54  78 103 139 188 237 279 326
#     4  11  23  35  55  89 122 149 185 236 290 342
#
# _framework density 18.496120999999999
#
# number of rings (size 3 to 8) (size 9 to 14) (size 15 to 20)
#    0.000    2.091    2.727    1.091    0.000    4.000 
#    0.000    4.545    0.000    1.091    0.000    0.000 
#    0.000    0.000    0.000    0.000    0.000    0.000 
#
# Total GULP energy -545601.450702 kJ/mol
# GULP energy per Si atom -12400.032971 kJ/mol
# Density = 1.845402 g / cm^3
# Si number density = 18.496121 Si / 1000 Ang^3
#
#
#
# Elastic Constant Matrix: (Units=GPa)
#
#
# Indices 1 2 3 4 5 6 
#
# 1 122.5171 49.1968 58.3983 0.0000 0.0000 0.0000
# 2 49.1968 80.7239 44.5149 0.0000 0.0000 0.0000
# 3 58.3983 44.5149 80.4584 0.0000 0.0000 0.0000
# 4 0.0000 0.0000 0.0000 19.8018 0.0000 0.0000
# 5 0.0000 0.0000 0.0000 0.0000 29.0671 0.0000
# 6 0.0000 0.0000 0.0000 0.0000 0.0000 31.0214
#
#
#
# Elastic Compliance Matrix: (Units=1/GPa)
#
#
# Indices 1 2 3 4 5 6 
#
# 1 0.013325 -0.004011 -0.007452 0.000000 0.000000 0.000000
# 2 -0.004011 0.019034 -0.007620 0.000000 0.000000 0.000000
# 3 -0.007452 -0.007620 0.022053 0.000000 0.000000 0.000000
# 4 0.000000 0.000000 0.000000 0.050500 0.000000 0.000000
# 5 0.000000 0.000000 0.000000 0.000000 0.034403 0.000000
# 6 0.000000 0.000000 0.000000 0.000000 0.000000 0.032236
#
#
# Mechanical properties :
#
#
# Convention : Reuss Voigt Hill
#
# Bulk Modulus (GPa) = 61.55158 65.32436 63.43797
# Shear Modulus (GPa) = 23.24134 24.75069 23.99601
#
# Velocity S-wave (km/s) = 3.54863 3.66205 3.60579
# Velocity P-wave (km/s) = 7.08101 7.29900 7.19083
#
# Compressibility (1/GPa) = 0.01624654
#
# Stress axis : x y z
#
# Youngs Moduli (GPa) = 75.04680 52.53650 45.34456
#
# Poissons Ratio (x) = 0.21074 0.33792
# Poissons Ratio (y) = 0.30104 0.34550
# Poissons Ratio (z) = 0.55926 0.40030
#
# Static dielectric constant tensor:
#      x y z
#    x 3.679600 0.000000 0.000000 
#    y 0.000000 3.345480 0.000000 
#    z 0.000000 0.000000 3.293620 
# 
# 
# High freq. dielectric constant tensor:
#      x y z
#    x 1.732480 0.000000 0.000000 
#    y 0.000000 1.707520 0.000000 
#    z 0.000000 0.000000 1.705350 
# 
# From -- ./inp_files/10032.got.cif
#   From: 2010.03.12/outbox.cif.g09.slc.cpg/sg65_6_cif.got.tgz:10032.got - 2010.04.10 20:52:16.
