data_PCOD8271151
_publ_section_title
;
Structure prediction by ZEFSAII (Michael W. Deem and Ramdas Pophale) SiO2 
 PCOD8271151
Probable space group: C M M M
;
_chemical_formula_sum "Si O2"
_cell_formula_units_Z 120
_cell_length_a 8.885754
_cell_length_b 28.069318
_cell_length_c 28.640723
_cell_angle_alpha 90.000000
_cell_angle_beta 90.000000
_cell_angle_gamma 90.000000
_cell_volume 7143.484775
_symmetry_space_group_name_H-M "C M M M"
_symmetry_group_IT_number 65
_symmetry_cell_setting 'orthorhombic'
loop_
_space_group_symop_operation_xyz
x,y,z
-x,-y,z
x,-y,-z
-x,y,-z
-x,-y,-z
x,y,-z
-x,y,z
x,-y,z
1/2+x,1/2+y,z
1/2-x,1/2-y,z
1/2+x,1/2-y,-z
1/2-x,1/2+y,-z
1/2-x,1/2-y,-z
1/2+x,1/2+y,-z
1/2-x,1/2+y,z
1/2+x,1/2-y,z
loop_
_atom_site_type_symbol
_atom_site_label
_atom_site_fract_x
_atom_site_fract_y
_atom_site_fract_z
Si Si1 0.329494 0.556571 0.050730
Si Si2 0.328362 0.556347 0.679067
Si Si3 0.674994 0.700423 0.622782
Si Si4 0.675415 0.299691 0.731475
Si Si5 0.321463 0.053476 0.500000
Si Si6 0.821174 0.606798 0.592554
Si Si7 0.177023 0.553653 0.142690
Si Si8 0.821172 0.393113 0.764780
O O1 0.500000 0.573737 0.057236
O O2 0.318886 0.500000 0.051127
O O3 0.234668 0.576974 0.094183
O O4 0.268725 0.574935 0.000000
O O5 0.500000 0.575599 0.677785
O O6 0.323526 0.500000 0.676698
O O7 0.237938 0.576520 0.635627
O O8 0.249919 0.572800 0.726235
O O9 0.500000 0.703108 0.610721
O O10 0.750000 0.750000 0.608448
O O11 0.702881 0.688832 0.677119
O O12 0.752973 0.659617 0.592365
O O13 0.500000 0.297821 0.743662
O O14 0.750000 0.250000 0.745652
O O15 0.756804 0.340029 0.761514
O O16 0.500000 0.050936 0.500000
O O17 0.264229 0.081155 0.545640
O O18 0.253956 0.000000 0.500000
O O19 0.000000 0.610179 0.595417
O O20 0.241351 0.500000 0.149828
O O21 0.230441 0.586423 0.185333
O O22 0.000000 0.551775 0.140197
O O23 0.000000 0.392508 0.758535
#
# Coordination Sequence:
#
# PCOD8271151 Si02
#       8
#    16  16  16  16   8  16  16  16
#     4   8  14  25  41  61  86 121 167 213 254 296
#     4  11  23  36  50  72 102 134 170 208 245 291
#     4  10  20  35  56  81 108 132 163 203 246 298
#     4  10  20  34  53  75 102 131 164 204 247 296
#     4   9  20  38  58  81 106 133 168 207 246 293
#     4  11  21  36  59  81 103 132 167 206 250 297
#     4   9  18  30  43  64  96 133 171 209 248 291
#     4  11  21  33  50  72 101 134 169 205 248 299
#
# _framework density 16.798525000000001
#
# number of rings (size 3 to 8) (size 9 to 14) (size 15 to 20)
#    0.000    2.067    1.333    3.200    0.000    4.533 
#    0.000    4.333    0.000    2.400    0.000    0.000 
#    0.000    0.533    0.000    1.733    0.000    2.533 
#
# Total GULP energy -744033.821801 kJ/mol
# GULP energy per Si atom -12400.563697 kJ/mol
# Density = 1.676029 g / cm^3
# Si number density = 16.798525 Si / 1000 Ang^3
#
#
#
# Elastic Constant Matrix: (Units=GPa)
#
#
# Indices 1 2 3 4 5 6 
#
# 1 80.2721 47.4818 47.6708 0.0000 0.0000 0.0000
# 2 47.4818 109.2966 63.4944 0.0000 0.0000 0.0000
# 3 47.6708 63.4944 135.5399 0.0000 0.0000 0.0000
# 4 0.0000 0.0000 0.0000 13.4972 0.0000 0.0000
# 5 0.0000 0.0000 0.0000 0.0000 1.0913 0.0000
# 6 0.0000 0.0000 0.0000 0.0000 0.0000 28.6630
#
#
#
# Elastic Compliance Matrix: (Units=1/GPa)
#
#
# Indices 1 2 3 4 5 6 
#
# 1 0.018000 -0.005691 -0.003665 0.000000 0.000000 0.000000
# 2 -0.005691 0.014369 -0.004730 0.000000 0.000000 0.000000
# 3 -0.003665 -0.004730 0.010883 0.000000 0.000000 0.000000
# 4 0.000000 0.000000 0.000000 0.074089 0.000000 0.000000
# 5 0.000000 0.000000 0.000000 0.000000 0.916308 0.000000
# 6 0.000000 0.000000 0.000000 0.000000 0.000000 0.034888
#
#
# Mechanical properties :
#
#
# Convention : Reuss Voigt Hill
#
# Bulk Modulus (GPa) = 66.30857 71.37805 68.84331
# Shear Modulus (GPa) = 4.53829 19.74776 12.14302
#
# Velocity S-wave (km/s) = 1.64544 3.43237 2.69153
# Velocity P-wave (km/s) = 6.57027 7.63486 7.12249
#
# Compressibility (1/GPa) = 0.01508101
#
# Stress axis : x y z
#
# Youngs Moduli (GPa) = 55.55468 69.59217 91.88887
#
# Poissons Ratio (x) = 0.39603 0.33678
# Poissons Ratio (y) = 0.31615 0.43463
# Poissons Ratio (z) = 0.20361 0.32917
#
# Static dielectric constant tensor:
#      x y z
#    x 3.221170 0.000000 0.000000 
#    y 0.000000 3.107630 0.000000 
#    z 0.000000 0.000000 3.366590 
# 
# 
# High freq. dielectric constant tensor:
#      x y z
#    x 1.654150 0.000000 0.000000 
#    y 0.000000 1.633340 0.000000 
#    z 0.000000 0.000000 1.638630 
# 
# From -- ./inp_files/73906.got.cif
#   From: 2010.03.12/outbox.cif.g09.slc.cpg/sg65_37_cif.got.tgz:73906.got - 2010.04.10 20:52:16.
