data_PCOD8271421
_publ_section_title
;
Structure prediction by ZEFSAII (Michael W. Deem and Ramdas Pophale) SiO2 
 PCOD8271421
Probable space group: C M M M
;
_chemical_formula_sum "Si O2"
_cell_formula_units_Z 88
_cell_length_a 18.660307
_cell_length_b 10.157833
_cell_length_c 25.013556
_cell_angle_alpha 90.000000
_cell_angle_beta 90.000000
_cell_angle_gamma 90.000000
_cell_volume 4741.276572
_symmetry_space_group_name_H-M "C M M M"
_symmetry_group_IT_number 65
_symmetry_cell_setting 'orthorhombic'
loop_
_space_group_symop_operation_xyz
x,y,z
-x,-y,z
x,-y,-z
-x,y,-z
-x,-y,-z
x,y,-z
-x,y,z
x,-y,z
1/2+x,1/2+y,z
1/2-x,1/2-y,z
1/2+x,1/2-y,-z
1/2-x,1/2+y,-z
1/2-x,1/2-y,-z
1/2+x,1/2+y,-z
1/2-x,1/2+y,z
1/2+x,1/2-y,z
loop_
_atom_site_type_symbol
_atom_site_label
_atom_site_fract_x
_atom_site_fract_y
_atom_site_fract_z
Si Si1 0.416717 0.150830 0.560681
Si Si2 0.921760 0.500000 0.176826
Si Si3 0.820140 0.658477 0.000000
Si Si4 0.334461 0.250409 0.656732
Si Si5 0.915690 0.000000 0.160764
Si Si6 0.581577 0.239695 0.901896
Si Si7 0.340187 0.500000 0.724496
Si Si8 0.171522 0.500000 0.277444
O O1 0.401372 0.195421 0.500000
O O2 0.500000 0.164901 0.574275
O O3 0.372353 0.246949 0.599183
O O4 0.391901 0.000000 0.568744
O O5 0.913153 0.629029 0.142174
O O6 0.859454 0.500000 0.218924
O O7 0.000000 0.500000 0.204624
O O8 0.750000 0.750000 0.000000
O O9 0.866091 0.698801 0.051020
O O10 0.803275 0.500000 0.000000
O O11 0.250000 0.250000 0.646591
O O12 0.363372 0.374226 0.689938
O O13 0.357478 0.124878 0.690831
O O14 0.892386 0.125393 0.125639
O O15 0.876361 0.000000 0.217656
O O16 0.000000 0.000000 0.172763
O O17 0.500000 0.253351 0.923648
O O18 0.255639 0.500000 0.732025
#
# Coordination Sequence:
#
# PCOD8271421 Si02
#       8
#    16   8   8  16   8  16   8   8
#     4   9  18  34  57  83 109 141 188 244 292 334
#     4  10  20  35  59  89 112 144 196 246 286 331
#     4  12  27  43  64  94 124 153 192 243 293 347
#     4  10  20  35  54  80 113 152 191 232 281 347
#     4  10  22  39  59  87 118 154 196 236 284 345
#     4  10  22  41  65  88 118 157 196 239 288 339
#     4  10  22  36  54  80 120 157 187 229 288 343
#     4  10  20  34  54  80 112 151 195 235 282 335
#
# _framework density 18.560402
#
# number of rings (size 3 to 8) (size 9 to 14) (size 15 to 20)
#    0.000    2.000    1.818    1.909    1.273    3.636 
#    0.000    1.818    0.000    1.091    0.000    0.000 
#    0.000    0.000    0.000    0.000    0.000    0.000 
#
# Total GULP energy -545600.678835 kJ/mol
# GULP energy per Si atom -12400.015428 kJ/mol
# Density = 1.851816 g / cm^3
# Si number density = 18.560402 Si / 1000 Ang^3
#
#
#
# Elastic Constant Matrix: (Units=GPa)
#
#
# Indices 1 2 3 4 5 6 
#
# 1 62.7752 42.7385 59.4462 0.0000 0.0000 0.0000
# 2 42.7385 156.2258 64.9070 0.0000 0.0000 0.0000
# 3 59.4462 64.9070 123.3353 0.0000 0.0000 0.0000
# 4 0.0000 0.0000 0.0000 1.7000 0.0000 0.0000
# 5 0.0000 0.0000 0.0000 0.0000 39.1722 0.0000
# 6 0.0000 0.0000 0.0000 0.0000 0.0000 5.4624
#
#
#
# Elastic Compliance Matrix: (Units=1/GPa)
#
#
# Indices 1 2 3 4 5 6 
#
# 1 0.030259 -0.002839 -0.013090 0.000000 0.000000 0.000000
# 2 -0.002839 0.008459 -0.003083 0.000000 0.000000 0.000000
# 3 -0.013090 -0.003083 0.016040 0.000000 0.000000 0.000000
# 4 0.000000 0.000000 0.000000 0.588226 0.000000 0.000000
# 5 0.000000 0.000000 0.000000 0.000000 0.025528 0.000000
# 6 0.000000 0.000000 0.000000 0.000000 0.000000 0.183068
#
#
# Mechanical properties :
#
#
# Convention : Reuss Voigt Hill
#
# Bulk Modulus (GPa) = 59.76449 75.16887 67.46668
# Shear Modulus (GPa) = 5.58545 20.94991 13.26768
#
# Velocity S-wave (km/s) = 1.73663 3.36332 2.67655
# Velocity P-wave (km/s) = 6.02421 7.46124 6.78090
#
# Compressibility (1/GPa) = 0.01673234
#
# Stress axis : x y z
#
# Youngs Moduli (GPa) = 33.04798 118.22269 62.34498
#
# Poissons Ratio (x) = 0.33567 0.81611
# Poissons Ratio (y) = 0.09383 0.19221
# Poissons Ratio (z) = 0.43261 0.36447
#
# Static dielectric constant tensor:
#      x y z
#    x 3.363360 0.000000 0.000000 
#    y 0.000000 3.616770 0.000000 
#    z 0.000000 0.000000 3.377070 
# 
# 
# High freq. dielectric constant tensor:
#      x y z
#    x 1.713740 0.000000 0.000000 
#    y 0.000000 1.729180 0.000000 
#    z 0.000000 0.000000 1.727640 
# 
# From -- ./inp_files/67730.got.cif
#   From: 2010.03.12/outbox.cif.g09.slc.cpg/sg65_34_cif.got.tgz:67730.got - 2010.04.10 20:52:16.
