data_PCOD8271127
_publ_section_title
;
Structure prediction by ZEFSAII (Michael W. Deem and Ramdas Pophale) SiO2 
 PCOD8271127
Probable space group: C M M M
;
_chemical_formula_sum "Si O2"
_cell_formula_units_Z 104
_cell_length_a 22.279270
_cell_length_b 27.636988
_cell_length_c 9.013961
_cell_angle_alpha 90.000000
_cell_angle_beta 90.000000
_cell_angle_gamma 90.000000
_cell_volume 5550.183492
_symmetry_space_group_name_H-M "C M M M"
_symmetry_group_IT_number 65
_symmetry_cell_setting 'orthorhombic'
loop_
_space_group_symop_operation_xyz
x,y,z
-x,-y,z
x,-y,-z
-x,y,-z
-x,-y,-z
x,y,-z
-x,y,z
x,-y,z
1/2+x,1/2+y,z
1/2-x,1/2-y,z
1/2+x,1/2-y,-z
1/2-x,1/2+y,-z
1/2-x,1/2-y,-z
1/2+x,1/2+y,-z
1/2-x,1/2+y,z
1/2+x,1/2-y,z
loop_
_atom_site_type_symbol
_atom_site_label
_atom_site_fract_x
_atom_site_fract_y
_atom_site_fract_z
Si Si1 0.756579 0.303332 0.329151
Si Si2 0.928284 0.000000 0.333468
Si Si3 0.874483 0.356515 0.323324
Si Si4 0.570586 0.406918 0.835297
Si Si5 0.123645 0.817993 0.671194
Si Si6 0.568954 0.055492 0.172962
Si Si7 0.431577 0.770914 0.171261
O O1 0.773132 0.294553 0.500000
O O2 0.750000 0.250000 0.253589
O O3 0.809918 0.336555 0.263109
O O4 0.693700 0.331486 0.310095
O O5 0.902248 0.952931 0.250613
O O6 0.902862 0.000000 0.500000
O O7 0.000000 0.000000 0.334808
O O8 0.878963 0.356090 0.500000
O O9 0.885920 0.410834 0.266273
O O10 0.925336 0.322470 0.251800
O O11 0.500000 0.413185 0.847392
O O12 0.583921 0.358490 0.747249
O O13 0.598854 0.404331 0.000000
O O14 0.104978 0.814183 0.500000
O O15 0.111742 0.766705 0.747342
O O16 0.500000 0.065303 0.219534
O O17 0.586020 0.000000 0.207856
O O18 0.577412 0.066776 0.000000
O O19 0.500000 0.753186 0.185443
O O20 0.412506 0.775337 0.000000
#
# Coordination Sequence:
#
# PCOD8271127 Si02
#       7
#    16   8  16  16  16  16  16
#     4   9  18  36  56  76 105 141 178 221 270 313
#     4   9  17  31  53  79 103 133 177 217 252 309
#     4  11  21  35  58  83 108 141 184 229 270 319
#     4  10  20  34  52  77 111 143 170 213 274 325
#     4  11  21  35  56  77 102 139 184 226 264 317
#     4   9  19  37  59  83 115 151 181 218 277 339
#     4  11  23  36  50  75 113 147 174 213 270 328
#
# _framework density 18.738119000000001
#
# number of rings (size 3 to 8) (size 9 to 14) (size 15 to 20)
#    0.000    1.923    1.538    3.462    0.000    7.385 
#    0.000    4.615    1.692    0.000    0.000    0.000 
#    0.000    0.000    0.000    0.000    0.000    0.000 
#
# Total GULP energy -644809.530789 kJ/mol
# GULP energy per Si atom -12400.183284 kJ/mol
# Density = 1.869547 g / cm^3
# Si number density = 18.738119 Si / 1000 Ang^3
#
#
#
# Elastic Constant Matrix: (Units=GPa)
#
#
# Indices 1 2 3 4 5 6 
#
# 1 64.9648 31.0729 37.1304 0.0000 0.0000 0.0000
# 2 31.0729 122.4461 59.5105 0.0000 0.0000 0.0000
# 3 37.1304 59.5105 119.1135 0.0000 0.0000 0.0000
# 4 0.0000 0.0000 0.0000 35.7939 0.0000 0.0000
# 5 0.0000 0.0000 0.0000 0.0000 16.2833 0.0000
# 6 0.0000 0.0000 0.0000 0.0000 0.0000 23.9697
#
#
#
# Elastic Compliance Matrix: (Units=1/GPa)
#
#
# Indices 1 2 3 4 5 6 
#
# 1 0.019343 -0.002612 -0.004724 0.000000 0.000000 0.000000
# 2 -0.002612 0.011139 -0.004751 0.000000 0.000000 0.000000
# 3 -0.004724 -0.004751 0.012242 0.000000 0.000000 0.000000
# 4 0.000000 0.000000 0.000000 0.027938 0.000000 0.000000
# 5 0.000000 0.000000 0.000000 0.000000 0.061413 0.000000
# 6 0.000000 0.000000 0.000000 0.000000 0.000000 0.041719
#
#
# Mechanical properties :
#
#
# Convention : Reuss Voigt Hill
#
# Bulk Modulus (GPa) = 53.91419 62.43911 58.17665
# Shear Modulus (GPa) = 24.49176 27.13008 25.81092
#
# Velocity S-wave (km/s) = 3.61924 3.80920 3.71543
# Velocity P-wave (km/s) = 6.80442 7.26230 7.03708
#
# Compressibility (1/GPa) = 0.01854799
#
# Stress axis : x y z
#
# Youngs Moduli (GPa) = 51.69911 89.77709 81.68917
#
# Poissons Ratio (x) = 0.23454 0.38593
# Poissons Ratio (y) = 0.13506 0.38808
# Poissons Ratio (z) = 0.24424 0.42650
#
# Static dielectric constant tensor:
#      x y z
#    x 3.268400 0.000000 0.000000 
#    y 0.000000 3.462600 0.000000 
#    z 0.000000 0.000000 3.452930 
# 
# 
# High freq. dielectric constant tensor:
#      x y z
#    x 1.704760 0.000000 0.000000 
#    y 0.000000 1.729530 0.000000 
#    z 0.000000 0.000000 1.726430 
# 
# From -- ./inp_files/14713.got.cif
#   From: 2010.03.12/outbox.cif.g09.slc.cpg/sg65_8_cif.got.tgz:14713.got - 2010.04.10 20:52:16.
