data_PCOD8271886
_publ_section_title
;
Structure prediction by ZEFSAII (Michael W. Deem and Ramdas Pophale) SiO2 
 PCOD8271886
Probable space group: C M M M
;
_chemical_formula_sum "Si O2"
_cell_formula_units_Z 88
_cell_length_a 15.338099
_cell_length_b 24.150181
_cell_length_c 11.842239
_cell_angle_alpha 90.000000
_cell_angle_beta 90.000000
_cell_angle_gamma 90.000000
_cell_volume 4386.576911
_symmetry_space_group_name_H-M "C M M M"
_symmetry_group_IT_number 65
_symmetry_cell_setting 'orthorhombic'
loop_
_space_group_symop_operation_xyz
x,y,z
-x,-y,z
x,-y,-z
-x,y,-z
-x,-y,-z
x,y,-z
-x,y,z
x,-y,z
1/2+x,1/2+y,z
1/2-x,1/2-y,z
1/2+x,1/2-y,-z
1/2-x,1/2+y,-z
1/2-x,1/2-y,-z
1/2+x,1/2+y,-z
1/2-x,1/2+y,z
1/2+x,1/2-y,z
loop_
_atom_site_type_symbol
_atom_site_label
_atom_site_fract_x
_atom_site_fract_y
_atom_site_fract_z
Si Si1 0.250000 0.250000 0.287782
Si Si2 0.400782 0.935240 0.755655
Si Si3 0.153125 0.565552 0.000000
Si Si4 0.843144 0.061937 0.000000
Si Si5 0.404302 0.614693 0.786722
Si Si6 0.598349 0.737036 0.870231
Si Si7 0.249539 0.371152 0.629582
O O1 0.332940 0.233003 0.210710
O O2 0.260655 0.304445 0.364182
O O3 0.500000 0.926950 0.713940
O O4 0.339099 0.895982 0.680927
O O5 0.373025 0.000000 0.743163
O O6 0.395282 0.914796 0.885943
O O7 0.249727 0.593728 0.000000
O O8 0.152198 0.500000 0.000000
O O9 0.899181 0.071134 0.112132
O O10 0.811838 0.000000 0.000000
O O11 0.500000 0.611504 0.729793
O O12 0.388813 0.672310 0.849737
O O13 0.332225 0.601712 0.692551
O O14 0.500000 0.755865 0.839068
O O15 0.619199 0.751074 0.000000
O O16 0.253215 0.389028 0.500000
#
# Coordination Sequence:
#
# PCOD8271886 Si02
#       7
#     8  16   8   8  16  16  16
#     4  10  22  38  58  80 112 153 197 246 298 346
#     4  10  21  39  64  92 122 157 196 243 303 362
#     4   9  17  33  59  90 122 153 187 236 296 359
#     4  11  19  31  57  90 120 149 181 228 292 356
#     4  10  20  35  56  82 114 148 187 235 289 349
#     4   9  17  32  54  80 111 144 179 225 287 355
#     4  11  24  41  60  82 113 156 208 254 294 346
#
# _framework density 20.061201000000001
#
# number of rings (size 3 to 8) (size 9 to 14) (size 15 to 20)
#    0.000    2.000    2.727    1.091    0.000    3.636 
#    1.636    0.909    0.000    3.273    0.000    2.545 
#    0.000    0.000    0.000    0.000    0.000    0.000 
#
# Total GULP energy -545404.063260 kJ/mol
# GULP energy per Si atom -12395.546892 kJ/mol
# Density = 2.001554 g / cm^3
# Si number density = 20.061201 Si / 1000 Ang^3
#
#
#
# Elastic Constant Matrix: (Units=GPa)
#
#
# Indices 1 2 3 4 5 6 
#
# 1 129.3734 20.5757 54.0073 0.0000 0.0000 0.0000
# 2 20.5757 41.9834 25.0603 0.0000 0.0000 0.0000
# 3 54.0073 25.0603 137.4735 0.0000 0.0000 0.0000
# 4 0.0000 0.0000 0.0000 22.3821 0.0000 0.0000
# 5 0.0000 0.0000 0.0000 0.0000 9.9318 0.0000
# 6 0.0000 0.0000 0.0000 0.0000 0.0000 28.4069
#
#
#
# Elastic Compliance Matrix: (Units=1/GPa)
#
#
# Indices 1 2 3 4 5 6 
#
# 1 0.009517 -0.002729 -0.003241 0.000000 0.000000 0.000000
# 2 -0.002729 0.027510 -0.003943 0.000000 0.000000 0.000000
# 3 -0.003241 -0.003943 0.009266 0.000000 0.000000 0.000000
# 4 0.000000 0.000000 0.000000 0.044679 0.000000 0.000000
# 5 0.000000 0.000000 0.000000 0.000000 0.100687 0.000000
# 6 0.000000 0.000000 0.000000 0.000000 0.000000 0.035203
#
#
# Mechanical properties :
#
#
# Convention : Reuss Voigt Hill
#
# Bulk Modulus (GPa) = 37.78352 56.45743 47.12047
# Shear Modulus (GPa) = 19.56876 26.08994 22.82935
#
# Velocity S-wave (km/s) = 3.12661 3.61018 3.37706
# Velocity P-wave (km/s) = 5.64883 6.75141 6.22458
#
# Compressibility (1/GPa) = 0.02646657
#
# Stress axis : x y z
#
# Youngs Moduli (GPa) = 105.07873 36.35043 107.91988
#
# Poissons Ratio (x) = 0.09921 0.34978
# Poissons Ratio (y) = 0.28680 0.42548
# Poissons Ratio (z) = 0.34057 0.14332
#
# Static dielectric constant tensor:
#      x y z
#    x 3.816660 0.000000 0.000000 
#    y 0.000000 3.386610 0.000000 
#    z 0.000000 0.000000 3.469610 
# 
# 
# High freq. dielectric constant tensor:
#      x y z
#    x 1.796680 0.000000 0.000000 
#    y 0.000000 1.761860 0.000000 
#    z 0.000000 0.000000 1.762120 
# 
# From -- ./inp_files/25225.got.cif
#   From: 2010.03.12/outbox.cif.g09.slc.cpg/sg65_13_cif.got.tgz:25225.got - 2010.04.10 20:52:16.
