data_PCOD8271559
_publ_section_title
;
Structure prediction by ZEFSAII (Michael W. Deem and Ramdas Pophale) SiO2 
 PCOD8271559
Probable space group: C M M M
;
_chemical_formula_sum "Si O2"
_cell_formula_units_Z 72
_cell_length_a 17.597703
_cell_length_b 23.458803
_cell_length_c 9.387580
_cell_angle_alpha 90.000000
_cell_angle_beta 90.000000
_cell_angle_gamma 90.000000
_cell_volume 3875.390613
_symmetry_space_group_name_H-M "C M M M"
_symmetry_group_IT_number 65
_symmetry_cell_setting 'orthorhombic'
loop_
_space_group_symop_operation_xyz
x,y,z
-x,-y,z
x,-y,-z
-x,y,-z
-x,-y,-z
x,y,-z
-x,y,z
x,-y,z
1/2+x,1/2+y,z
1/2-x,1/2-y,z
1/2+x,1/2-y,-z
1/2-x,1/2+y,-z
1/2-x,1/2-y,-z
1/2+x,1/2+y,-z
1/2-x,1/2+y,z
1/2+x,1/2-y,z
loop_
_atom_site_type_symbol
_atom_site_label
_atom_site_fract_x
_atom_site_fract_y
_atom_site_fract_z
Si Si1 0.839290 0.244323 0.337344
Si Si2 0.000000 0.936887 0.830736
Si Si3 0.911650 0.637248 0.666688
Si Si4 0.855287 0.132435 0.831427
Si Si5 0.295051 0.933997 0.166640
O O1 0.862327 0.231343 0.500000
O O2 0.750000 0.250000 0.319940
O O3 0.879793 0.301691 0.282871
O O4 0.867571 0.193553 0.238784
O O5 0.924685 0.905683 0.776058
O O6 0.000000 0.000000 0.765140
O O7 0.000000 0.939627 0.000000
O O8 0.896373 0.628596 0.500000
O O9 0.869170 0.587014 0.749919
O O10 0.000000 0.633385 0.704931
O O11 0.777606 0.102263 0.781360
O O12 0.856519 0.140413 0.000000
O O13 0.280049 0.000000 0.202346
O O14 0.309509 0.925043 0.000000
#
# Coordination Sequence:
#
# PCOD8271559 Si02
#       5
#    16   8  16  16  16
#     4  10  20  36  57  79 107 142 178 221 274 324
#     4   9  18  34  55  81 115 149 180 219 268 323
#     4  10  22  39  57  80 110 145 183 222 269 325
#     4  10  20  34  56  84 110 142 183 224 267 321
#     4  10  21  37  57  81 109 142 181 226 275 322
#
# _framework density 18.578772000000001
#
# number of rings (size 3 to 8) (size 9 to 14) (size 15 to 20)
#    0.000    2.111    2.222    0.667    1.556    5.333 
#    0.000    2.222    0.000    2.667    0.000    0.000 
#    0.000    0.000    0.000    0.000    0.000    0.000 
#
# Total GULP energy -446529.668172 kJ/mol
# GULP energy per Si atom -12403.601894 kJ/mol
# Density = 1.853649 g / cm^3
# Si number density = 18.578772 Si / 1000 Ang^3
#
#
#
# Elastic Constant Matrix: (Units=GPa)
#
#
# Indices 1 2 3 4 5 6 
#
# 1 109.1936 34.9274 30.1605 0.0000 0.0000 0.0000
# 2 34.9274 99.8699 35.3145 0.0000 0.0000 0.0000
# 3 30.1605 35.3145 34.2669 0.0000 0.0000 0.0000
# 4 0.0000 0.0000 0.0000 14.3942 0.0000 0.0000
# 5 0.0000 0.0000 0.0000 0.0000 21.5205 0.0000
# 6 0.0000 0.0000 0.0000 0.0000 0.0000 32.8642
#
#
#
# Elastic Compliance Matrix: (Units=1/GPa)
#
#
# Indices 1 2 3 4 5 6 
#
# 1 0.012134 -0.000735 -0.009922 0.000000 0.000000 0.000000
# 2 -0.000735 0.015799 -0.015635 0.000000 0.000000 0.000000
# 3 -0.009922 -0.015635 0.054028 0.000000 0.000000 0.000000
# 4 0.000000 0.000000 0.000000 0.069473 0.000000 0.000000
# 5 0.000000 0.000000 0.000000 0.000000 0.046467 0.000000
# 6 0.000000 0.000000 0.000000 0.000000 0.000000 0.030428
#
#
# Mechanical properties :
#
#
# Convention : Reuss Voigt Hill
#
# Bulk Modulus (GPa) = 34.04016 49.34836 41.69426
# Shear Modulus (GPa) = 17.19957 23.28432 20.24195
#
# Velocity S-wave (km/s) = 3.04594 3.54400 3.30437
# Velocity P-wave (km/s) = 5.54366 6.58528 6.08680
#
# Compressibility (1/GPa) = 0.02937706
#
# Stress axis : x y z
#
# Youngs Moduli (GPa) = 82.41453 63.29705 18.50877
#
# Poissons Ratio (x) = 0.04652 0.18365
# Poissons Ratio (y) = 0.06057 0.28938
# Poissons Ratio (z) = 0.81774 0.98962
#
# Static dielectric constant tensor:
#      x y z
#    x 3.514840 0.000000 0.000000 
#    y 0.000000 3.533280 0.000000 
#    z 0.000000 0.000000 3.192240 
# 
# 
# High freq. dielectric constant tensor:
#      x y z
#    x 1.730730 0.000000 0.000000 
#    y 0.000000 1.731330 0.000000 
#    z 0.000000 0.000000 1.698390 
# 
# From -- ./inp_files/7231.got.cif
#   From: 2010.03.12/outbox.cif.g09.slc.cpg/sg65_4_cif.got.tgz:7231.got - 2010.04.10 20:52:16.
