data_PCOD8271842
_publ_section_title
;
Structure prediction by ZEFSAII (Michael W. Deem and Ramdas Pophale) SiO2 
 PCOD8271842
Probable space group: C M M M
;
_chemical_formula_sum "Si O2"
_cell_formula_units_Z 80
_cell_length_a 16.886683
_cell_length_b 11.940709
_cell_length_c 20.362394
_cell_angle_alpha 90.000000
_cell_angle_beta 90.000000
_cell_angle_gamma 90.000000
_cell_volume 4105.852106
_symmetry_space_group_name_H-M "C M M M"
_symmetry_group_IT_number 65
_symmetry_cell_setting 'orthorhombic'
loop_
_space_group_symop_operation_xyz
x,y,z
-x,-y,z
x,-y,-z
-x,y,-z
-x,-y,-z
x,y,-z
-x,y,z
x,-y,z
1/2+x,1/2+y,z
1/2-x,1/2-y,z
1/2+x,1/2-y,-z
1/2-x,1/2+y,-z
1/2-x,1/2-y,-z
1/2+x,1/2+y,-z
1/2-x,1/2+y,z
1/2+x,1/2-y,z
loop_
_atom_site_type_symbol
_atom_site_label
_atom_site_fract_x
_atom_site_fract_y
_atom_site_fract_z
Si Si1 0.406105 0.500000 0.129118
Si Si2 0.406934 0.876231 0.191819
Si Si3 0.094507 0.231504 0.926967
Si Si4 0.159064 0.236798 0.309468
Si Si5 0.591569 0.128813 0.424667
Si Si6 0.905537 0.000000 0.279996
O O1 0.500000 0.500000 0.126067
O O2 0.372224 0.609358 0.092694
O O3 0.378643 0.500000 0.204414
O O4 0.500000 0.887019 0.183823
O O5 0.371712 0.821114 0.125318
O O6 0.391676 0.799220 0.254348
O O7 0.369114 0.000000 0.200835
O O8 0.000000 0.229407 0.924700
O O9 0.124626 0.262982 0.000000
O O10 0.250000 0.250000 0.289777
O O11 0.145556 0.292597 0.380113
O O12 0.132008 0.108326 0.314654
O O13 0.613219 0.153614 0.500000
O O14 0.500000 0.155933 0.411032
O O15 0.609324 0.000000 0.407209
O O16 0.000000 0.000000 0.288599
#
# Coordination Sequence:
#
# PCOD8271842 Si02
#       6
#     8  16  16  16  16   8
#     4   9  15  28  49  75 108 145 189 242 294 342
#     4  10  20  35  56  80 110 151 194 241 298 360
#     4   9  16  27  47  78 110 140 184 246 304 351
#     4  12  25  37  59  87 123 155 195 245 297 346
#     4   9  19  39  67  92 116 152 194 234 282 348
#     4  11  22  39  61  87 120 161 203 247 297 353
#
# _framework density 19.484385
#
# number of rings (size 3 to 8) (size 9 to 14) (size 15 to 20)
#    0.000    2.000    2.000    3.300    2.800    3.600 
#    0.000    2.500    0.000    2.400    0.000    0.000 
#    0.000    0.000    0.000    0.000    0.000    0.000 
#
# Total GULP energy -496024.201763 kJ/mol
# GULP energy per Si atom -12400.605044 kJ/mol
# Density = 1.944004 g / cm^3
# Si number density = 19.484385 Si / 1000 Ang^3
#
#
#
# Elastic Constant Matrix: (Units=GPa)
#
#
# Indices 1 2 3 4 5 6 
#
# 1 35.8426 23.6671 12.2098 0.0000 0.0000 0.0000
# 2 23.6671 152.0659 58.8165 0.0000 0.0000 0.0000
# 3 12.2098 58.8165 114.1003 0.0000 0.0000 0.0000
# 4 0.0000 0.0000 0.0000 37.0894 0.0000 0.0000
# 5 0.0000 0.0000 0.0000 0.0000 3.3756 0.0000
# 6 0.0000 0.0000 0.0000 0.0000 0.0000 15.6337
#
#
#
# Elastic Compliance Matrix: (Units=1/GPa)
#
#
# Indices 1 2 3 4 5 6 
#
# 1 0.031195 -0.004451 -0.001043 0.000000 0.000000 0.000000
# 2 -0.004451 0.008849 -0.004085 0.000000 0.000000 0.000000
# 3 -0.001043 -0.004085 0.010982 0.000000 0.000000 0.000000
# 4 0.000000 0.000000 0.000000 0.026962 0.000000 0.000000
# 5 0.000000 0.000000 0.000000 0.000000 0.296245 0.000000
# 6 0.000000 0.000000 0.000000 0.000000 0.000000 0.063964
#
#
# Mechanical properties :
#
#
# Convention : Reuss Voigt Hill
#
# Bulk Modulus (GPa) = 31.38230 54.59952 42.99091
# Shear Modulus (GPa) = 10.68427 25.04078 17.86252
#
# Velocity S-wave (km/s) = 2.34423 3.58882 3.03109
# Velocity P-wave (km/s) = 4.84444 6.72725 5.86193
#
# Compressibility (1/GPa) = 0.03186510
#
# Stress axis : x y z
#
# Youngs Moduli (GPa) = 32.05691 113.00761 91.06071
#
# Poissons Ratio (x) = 0.50305 0.09502
# Poissons Ratio (y) = 0.14270 0.37199
# Poissons Ratio (z) = 0.03345 0.46165
#
# Static dielectric constant tensor:
#      x y z
#    x 3.099790 0.000000 0.000000 
#    y 0.000000 3.834150 0.000000 
#    z 0.000000 0.000000 3.611370 
# 
# 
# High freq. dielectric constant tensor:
#      x y z
#    x 1.713890 0.000000 0.000000 
#    y 0.000000 1.768900 0.000000 
#    z 0.000000 0.000000 1.763890 
# 
# From -- ./inp_files/63549.got.cif
#   From: 2010.03.12/outbox.cif.g09.slc.cpg/sg65_32_cif.got.tgz:63549.got - 2010.04.10 20:52:16.
