data_PCOD8271765
_publ_section_title
;
Structure prediction by ZEFSAII (Michael W. Deem and Ramdas Pophale) SiO2 
 PCOD8271765
Probable space group: C M M M
;
_chemical_formula_sum "Si O2"
_cell_formula_units_Z 80
_cell_length_a 25.939852
_cell_length_b 8.808380
_cell_length_c 18.419617
_cell_angle_alpha 90.000000
_cell_angle_beta 90.000000
_cell_angle_gamma 90.000000
_cell_volume 4208.662804
_symmetry_space_group_name_H-M "C M M M"
_symmetry_group_IT_number 65
_symmetry_cell_setting 'orthorhombic'
loop_
_space_group_symop_operation_xyz
x,y,z
-x,-y,z
x,-y,-z
-x,y,-z
-x,-y,-z
x,y,-z
-x,y,z
x,-y,z
1/2+x,1/2+y,z
1/2-x,1/2-y,z
1/2+x,1/2-y,-z
1/2-x,1/2+y,-z
1/2-x,1/2-y,-z
1/2+x,1/2+y,-z
1/2-x,1/2+y,z
1/2+x,1/2-y,z
loop_
_atom_site_type_symbol
_atom_site_label
_atom_site_fract_x
_atom_site_fract_y
_atom_site_fract_z
Si Si1 0.908140 0.680598 0.830047
Si Si2 0.089085 0.181927 0.325477
Si Si3 0.000000 0.674233 0.585748
Si Si4 0.300665 0.330551 0.162253
Si Si5 0.000000 0.826270 0.914149
Si Si6 0.201195 0.834508 0.666038
O O1 0.908802 0.500000 0.825797
O O2 0.924552 0.747898 0.752293
O O3 0.851739 0.734891 0.856052
O O4 0.949273 0.739401 0.887649
O O5 0.145679 0.240437 0.351405
O O6 0.049906 0.239566 0.385378
O O7 0.088006 0.000000 0.318096
O O8 0.000000 0.500000 0.612024
O O9 0.000000 0.686532 0.500000
O O10 0.306099 0.500000 0.129258
O O11 0.250000 0.250000 0.128113
O O12 0.293009 0.342795 0.247881
O O13 0.000000 0.000000 0.885688
O O14 0.000000 0.821158 0.000000
O O15 0.250000 0.750000 0.630816
O O16 0.202580 0.000000 0.630834
#
# Coordination Sequence:
#
# PCOD8271765 Si02
#       6
#    16  16   8  16   8  16
#     4  11  21  34  55  82 111 141 175 218 266 315
#     4  10  20  35  55  79 107 139 177 216 257 311
#     4  11  24  39  54  75 103 135 174 221 272 321
#     4   9  16  28  47  75 109 141 175 214 259 309
#     4  11  24  41  58  75 101 139 180 223 270 319
#     4   8  15  26  44  72 103 133 164 204 250 297
#
# _framework density 19.008412
#
# number of rings (size 3 to 8) (size 9 to 14) (size 15 to 20)
#    0.000    2.200    0.000    5.400    0.000    7.200 
#    0.000    0.000    0.000    1.200    0.000    0.000 
#    0.000    0.000    0.000    0.000    0.000    0.000 
#
# Total GULP energy -495871.155732 kJ/mol
# GULP energy per Si atom -12396.778893 kJ/mol
# Density = 1.896515 g / cm^3
# Si number density = 19.008412 Si / 1000 Ang^3
#
#
#
# Elastic Constant Matrix: (Units=GPa)
#
#
# Indices 1 2 3 4 5 6 
#
# 1 162.4915 66.1938 41.7935 0.0000 0.0000 0.0000
# 2 66.1938 144.4155 32.7927 0.0000 0.0000 0.0000
# 3 41.7935 32.7927 43.1779 0.0000 0.0000 0.0000
# 4 0.0000 0.0000 0.0000 19.8124 0.0000 0.0000
# 5 0.0000 0.0000 0.0000 0.0000 -5.3444 0.0000
# 6 0.0000 0.0000 0.0000 0.0000 0.0000 36.5532
#
#
#
# Elastic Compliance Matrix: (Units=1/GPa)
#
#
# Indices 1 2 3 4 5 6 
#
# 1 0.008920 -0.002572 -0.006681 0.000000 0.000000 0.000000
# 2 -0.002572 0.009109 -0.004429 0.000000 0.000000 0.000000
# 3 -0.006681 -0.004429 0.032991 0.000000 0.000000 0.000000
# 4 0.000000 0.000000 0.000000 0.050473 0.000000 0.000000
# 5 0.000000 0.000000 0.000000 0.000000 -0.187111 0.000000
# 6 0.000000 0.000000 0.000000 0.000000 0.000000 0.027357
#
#
# Mechanical properties :
#
#
# Convention : Reuss Voigt Hill
#
# Bulk Modulus (GPa) = 42.27178 70.18275 56.22727
# Shear Modulus (GPa) = -217.27204 24.15790 -96.55707
#
# Velocity S-wave (km/s) = -10.70286 3.56884 -7.13493
# Velocity P-wave (km/s) = 11.42139 7.34740 6.18320
#
# Compressibility (1/GPa) = 0.02365644
#
# Stress axis : x y z
#
# Youngs Moduli (GPa) = 112.10604 109.78384 30.31174
#
# Poissons Ratio (x) = 0.28231 0.20252
# Poissons Ratio (y) = 0.28828 0.13425
# Poissons Ratio (z) = 0.74899 0.48622
#
# Static dielectric constant tensor:
#      x y z
#    x 3.842800 0.000000 0.000000 
#    y 0.000000 3.776950 0.000000 
#    z 0.000000 0.000000 2.916400 
# 
# 
# High freq. dielectric constant tensor:
#      x y z
#    x 1.763240 0.000000 0.000000 
#    y 0.000000 1.752430 0.000000 
#    z 0.000000 0.000000 1.678700 
# 
# From -- ./inp_files/57326.got.cif
#   From: 2010.03.12/outbox.cif.g09.slc.cpg/sg65_29_cif.got.tgz:57326.got - 2010.04.10 20:52:16.
