data_PCOD8271303
_publ_section_title
;
Structure prediction by ZEFSAII (Michael W. Deem and Ramdas Pophale) SiO2 
 PCOD8271303
Probable space group: C M M M
;
_chemical_formula_sum "Si O2"
_cell_formula_units_Z 104
_cell_length_a 26.000970
_cell_length_b 9.082695
_cell_length_c 22.334222
_cell_angle_alpha 90.000000
_cell_angle_beta 90.000000
_cell_angle_gamma 90.000000
_cell_volume 5274.424858
_symmetry_space_group_name_H-M "C M M M"
_symmetry_group_IT_number 65
_symmetry_cell_setting 'orthorhombic'
loop_
_space_group_symop_operation_xyz
x,y,z
-x,-y,z
x,-y,-z
-x,y,-z
-x,-y,-z
x,y,-z
-x,y,z
x,-y,z
1/2+x,1/2+y,z
1/2-x,1/2-y,z
1/2+x,1/2-y,-z
1/2-x,1/2+y,-z
1/2-x,1/2-y,-z
1/2+x,1/2+y,-z
1/2-x,1/2+y,z
1/2+x,1/2-y,z
loop_
_atom_site_type_symbol
_atom_site_label
_atom_site_fract_x
_atom_site_fract_y
_atom_site_fract_z
Si Si1 0.197378 0.826122 0.649356
Si Si2 0.000000 0.333245 0.428786
Si Si3 0.943134 0.668887 0.174626
Si Si4 0.841554 0.332542 0.763664
Si Si5 0.400603 0.669188 0.933046
Si Si6 0.898369 0.828012 0.431005
Si Si7 0.698627 0.831198 0.894946
O O1 0.250000 0.750000 0.627701
O O2 0.183064 0.776985 0.716077
O O3 0.151957 0.776388 0.604856
O O4 0.205725 0.000000 0.648592
O O5 0.948449 0.254605 0.404582
O O6 0.000000 0.500000 0.405304
O O7 0.000000 0.323532 0.500000
O O8 0.931463 0.500000 0.156481
O O9 0.900652 0.717354 0.223457
O O10 0.940787 0.764216 0.114216
O O11 0.000000 0.687357 0.202832
O O12 0.839399 0.500000 0.739265
O O13 0.809057 0.316341 0.823903
O O14 0.390475 0.500000 0.916255
O O15 0.347396 0.756084 0.930429
O O16 0.423599 0.684264 0.000000
O O17 0.888878 0.786233 0.500000
O O18 0.908746 0.000000 0.422851
O O19 0.750000 0.750000 0.914830
O O20 0.702026 0.000000 0.914761
#
# Coordination Sequence:
#
# PCOD8271303 Si02
#       7
#    16   8  16  16  16  16  16
#     4  11  23  37  56  82 112 147 188 230 276 331
#     4   9  17  31  55  85 111 139 181 229 272 317
#     4   9  19  37  59  80 104 137 177 219 268 325
#     4   9  19  36  56  78 106 138 176 220 270 324
#     4  10  21  35  51  75 107 140 175 216 263 316
#     4   9  19  37  58  80 112 153 190 227 276 332
#     4  10  20  34  54  77 101 135 176 218 266 320
#
# _framework density 19.717790000000001
#
# number of rings (size 3 to 8) (size 9 to 14) (size 15 to 20)
#    0.000    2.385    0.000    3.000    0.000    8.923 
#    1.385    1.538    0.000    0.000    0.000    0.000 
#    0.000    0.000    0.000    0.000    0.000    0.000 
#
# Total GULP energy -644869.669951 kJ/mol
# GULP energy per Si atom -12401.339807 kJ/mol
# Density = 1.967291 g / cm^3
# Si number density = 19.717790 Si / 1000 Ang^3
#
#
#
# Elastic Constant Matrix: (Units=GPa)
#
#
# Indices 1 2 3 4 5 6 
#
# 1 135.9802 47.8644 23.0414 0.0000 0.0000 0.0000
# 2 47.8644 96.3389 25.1928 0.0000 0.0000 0.0000
# 3 23.0414 25.1928 50.6456 0.0000 0.0000 0.0000
# 4 0.0000 0.0000 0.0000 24.6814 0.0000 0.0000
# 5 0.0000 0.0000 0.0000 0.0000 16.9646 0.0000
# 6 0.0000 0.0000 0.0000 0.0000 0.0000 32.8916
#
#
#
# Elastic Compliance Matrix: (Units=1/GPa)
#
#
# Indices 1 2 3 4 5 6 
#
# 1 0.009117 -0.003960 -0.002178 0.000000 0.000000 0.000000
# 2 -0.003960 0.013652 -0.004989 0.000000 0.000000 0.000000
# 3 -0.002178 -0.004989 0.023218 0.000000 0.000000 0.000000
# 4 0.000000 0.000000 0.000000 0.040516 0.000000 0.000000
# 5 0.000000 0.000000 0.000000 0.000000 0.058946 0.000000
# 6 0.000000 0.000000 0.000000 0.000000 0.000000 0.030403
#
#
# Mechanical properties :
#
#
# Convention : Reuss Voigt Hill
#
# Bulk Modulus (GPa) = 42.13689 52.79577 47.46633
# Shear Modulus (GPa) = 24.26968 27.36526 25.81747
#
# Velocity S-wave (km/s) = 3.51216 3.72942 3.62242
# Velocity P-wave (km/s) = 6.15332 6.73637 6.45143
#
# Compressibility (1/GPa) = 0.02373218
#
# Stress axis : x y z
#
# Youngs Moduli (GPa) = 109.68533 73.24782 43.07036
#
# Poissons Ratio (x) = 0.29007 0.09380
# Poissons Ratio (y) = 0.43436 0.21490
# Poissons Ratio (z) = 0.23889 0.36547
#
# Static dielectric constant tensor:
#      x y z
#    x 3.755410 0.000000 0.000000 
#    y 0.000000 3.621800 0.000000 
#    z 0.000000 0.000000 3.341920 
# 
# 
# High freq. dielectric constant tensor:
#      x y z
#    x 1.778280 0.000000 0.000000 
#    y 0.000000 1.772070 0.000000 
#    z 0.000000 0.000000 1.744840 
# 
# From -- ./inp_files/65857.got.cif
#   From: 2010.03.12/outbox.cif.g09.slc.cpg/sg65_33_cif.got.tgz:65857.got - 2010.04.10 20:52:16.
