data_PCOD8271888
_publ_section_title
;
Structure prediction by ZEFSAII (Michael W. Deem and Ramdas Pophale) SiO2 
 PCOD8271888
Probable space group: C M M M
;
_chemical_formula_sum "Si O2"
_cell_formula_units_Z 104
_cell_length_a 27.551938
_cell_length_b 22.008801
_cell_length_c 8.898115
_cell_angle_alpha 90.000000
_cell_angle_beta 90.000000
_cell_angle_gamma 90.000000
_cell_volume 5395.684537
_symmetry_space_group_name_H-M "C M M M"
_symmetry_group_IT_number 65
_symmetry_cell_setting 'orthorhombic'
loop_
_space_group_symop_operation_xyz
x,y,z
-x,-y,z
x,-y,-z
-x,y,-z
-x,-y,-z
x,y,-z
-x,y,z
x,-y,z
1/2+x,1/2+y,z
1/2-x,1/2-y,z
1/2+x,1/2-y,-z
1/2-x,1/2+y,-z
1/2-x,1/2-y,-z
1/2+x,1/2+y,-z
1/2-x,1/2+y,z
1/2+x,1/2-y,z
loop_
_atom_site_type_symbol
_atom_site_label
_atom_site_fract_x
_atom_site_fract_y
_atom_site_fract_z
Si Si1 0.579195 0.163477 0.676215
Si Si2 0.673930 0.500000 0.678350
Si Si3 0.554929 0.290366 0.174254
Si Si4 0.181946 0.612993 0.673166
Si Si5 0.000000 0.431291 0.678279
Si Si6 0.261253 0.319906 0.834360
Si Si7 0.638228 0.621145 0.825252
Si Si8 0.779919 0.500000 0.825516
O O1 0.571973 0.171247 0.500000
O O2 0.562809 0.226032 0.748314
O O3 0.634630 0.150616 0.720284
O O4 0.547081 0.106448 0.733896
O O5 0.676516 0.500000 0.500000
O O6 0.644947 0.559280 0.732965
O O7 0.728709 0.500000 0.739764
O O8 0.500000 0.312610 0.203177
O O9 0.590764 0.343030 0.235501
O O10 0.565993 0.279962 0.000000
O O11 0.179714 0.592399 0.500000
O O12 0.229353 0.653224 0.700604
O O13 0.186274 0.555824 0.781293
O O14 0.000000 0.500000 0.747047
O O15 0.000000 0.436943 0.500000
O O16 0.250000 0.250000 0.839538
O O17 0.317073 0.333169 0.796598
O O18 0.248916 0.348248 0.000000
O O19 0.632904 0.603785 0.000000
O O20 0.767431 0.500000 0.000000
#
# Coordination Sequence:
#
# PCOD8271888 Si02
#       8
#    16   8  16  16   8  16  16   8
#     4  10  21  37  60  87 118 158 202 251 307 356
#     4  12  24  40  63  91 121 156 200 254 306 363
#     4  10  21  39  64  92 121 156 202 255 305 358
#     4  11  23  36  55  86 118 150 193 245 288 342
#     4   9  18  34  57  81 111 158 207 244 293 361
#     4  10  20  35  56  82 114 156 198 236 288 356
#     4  10  21  38  61  87 120 162 202 244 304 373
#     4  12  24  40  60  82 116 162 199 236 294 364
#
# _framework density 19.274661999999999
#
# number of rings (size 3 to 8) (size 9 to 14) (size 15 to 20)
#    0.000    1.615    2.308    2.769    1.077    3.385 
#    0.000    0.385    0.000    2.769    0.000    0.000 
#    0.000    0.000    0.000    0.000    0.000    0.000 
#
# Total GULP energy -644768.967376 kJ/mol
# GULP energy per Si atom -12399.403219 kJ/mol
# Density = 1.923079 g / cm^3
# Si number density = 19.274662 Si / 1000 Ang^3
#
#
#
# Elastic Constant Matrix: (Units=GPa)
#
#
# Indices 1 2 3 4 5 6 
#
# 1 127.7636 54.4594 41.6294 0.0000 0.0000 0.0000
# 2 54.4594 120.5131 44.1449 0.0000 0.0000 0.0000
# 3 41.6294 44.1449 70.1289 0.0000 0.0000 0.0000
# 4 0.0000 0.0000 0.0000 32.5299 0.0000 0.0000
# 5 0.0000 0.0000 0.0000 0.0000 15.7529 0.0000
# 6 0.0000 0.0000 0.0000 0.0000 0.0000 36.7817
#
#
#
# Elastic Compliance Matrix: (Units=1/GPa)
#
#
# Indices 1 2 3 4 5 6 
#
# 1 0.010588 -0.003226 -0.004254 0.000000 0.000000 0.000000
# 2 -0.003226 0.011768 -0.005492 0.000000 0.000000 0.000000
# 3 -0.004254 -0.005492 0.020242 0.000000 0.000000 0.000000
# 4 0.000000 0.000000 0.000000 0.030741 0.000000 0.000000
# 5 0.000000 0.000000 0.000000 0.000000 0.063480 0.000000
# 6 0.000000 0.000000 0.000000 0.000000 0.000000 0.027187
#
#
# Mechanical properties :
#
#
# Convention : Reuss Voigt Hill
#
# Bulk Modulus (GPa) = 60.05275 66.54146 63.29711
# Shear Modulus (GPa) = 25.57485 28.89101 27.23293
#
# Velocity S-wave (km/s) = 3.64657 3.87578 3.76292
# Velocity P-wave (km/s) = 6.99670 7.39098 7.19654
#
# Compressibility (1/GPa) = 0.01665203
#
# Stress axis : x y z
#
# Youngs Moduli (GPa) = 94.44233 84.97795 49.40156
#
# Poissons Ratio (x) = 0.27418 0.21018
# Poissons Ratio (y) = 0.30471 0.27133
# Poissons Ratio (z) = 0.40180 0.46673
#
# Static dielectric constant tensor:
#      x y z
#    x 3.759190 0.000000 0.000000 
#    y 0.000000 3.505300 0.000000 
#    z 0.000000 0.000000 3.511600 
# 
# 
# High freq. dielectric constant tensor:
#      x y z
#    x 1.754520 0.000000 0.000000 
#    y 0.000000 1.756150 0.000000 
#    z 0.000000 0.000000 1.735750 
# 
# From -- ./inp_files/16814.got.cif
#   From: 2010.03.12/outbox.cif.g09.slc.cpg/sg65_9_cif.got.tgz:16814.got - 2010.04.10 20:52:16.
