data_PCOD8271323
_publ_section_title
;
Structure prediction by ZEFSAII (Michael W. Deem and Ramdas Pophale) SiO2 
 PCOD8271323
Probable space group: C M M M
;
_chemical_formula_sum "Si O2"
_cell_formula_units_Z 96
_cell_length_a 27.740407
_cell_length_b 20.272240
_cell_length_c 9.141172
_cell_angle_alpha 90.000000
_cell_angle_beta 90.000000
_cell_angle_gamma 90.000000
_cell_volume 5140.631208
_symmetry_space_group_name_H-M "C M M M"
_symmetry_group_IT_number 65
_symmetry_cell_setting 'orthorhombic'
loop_
_space_group_symop_operation_xyz
x,y,z
-x,-y,z
x,-y,-z
-x,y,-z
-x,-y,-z
x,y,-z
-x,y,z
x,-y,z
1/2+x,1/2+y,z
1/2-x,1/2-y,z
1/2+x,1/2-y,-z
1/2-x,1/2+y,-z
1/2-x,1/2-y,-z
1/2+x,1/2+y,-z
1/2-x,1/2+y,z
1/2+x,1/2-y,z
loop_
_atom_site_type_symbol
_atom_site_label
_atom_site_fract_x
_atom_site_fract_y
_atom_site_fract_z
Si Si1 0.554947 0.688663 0.328837
Si Si2 0.555219 0.923704 0.169729
Si Si3 0.108819 0.075914 0.829855
Si Si4 0.215907 0.312115 0.169928
Si Si5 0.716552 0.572695 0.173938
Si Si6 0.115327 0.314274 0.326386
O O1 0.561741 0.678974 0.500000
O O2 0.500000 0.702393 0.285587
O O3 0.571518 0.621479 0.254027
O O4 0.585069 0.751243 0.272206
O O5 0.500000 0.907981 0.212945
O O6 0.591185 0.880537 0.265993
O O7 0.566894 0.000000 0.201807
O O8 0.563961 0.907633 0.000000
O O9 0.162846 0.090163 0.769942
O O10 0.094809 0.000000 0.801074
O O11 0.105508 0.093057 0.000000
O O12 0.250000 0.250000 0.193493
O O13 0.244595 0.375390 0.232153
O O14 0.168560 0.304467 0.265211
O O15 0.201740 0.320471 0.000000
O O16 0.731795 0.500000 0.229800
O O17 0.714757 0.573898 0.000000
O O18 0.117069 0.319465 0.500000
#
# Coordination Sequence:
#
# PCOD8271323 Si02
#       6
#    16  16  16  16  16  16
#     4  10  22  38  53  72 103 143 181 214 255 312
#     4   9  19  37  60  84 109 139 178 223 270 323
#     4   9  18  34  57  83 107 132 169 217 264 310
#     4  10  20  34  54  78 103 136 180 224 266 315
#     4   8  15  30  52  76 102 132 165 205 255 308
#     4  11  23  37  54  78 110 145 181 223 270 321
#
# _framework density 18.67475
#
# number of rings (size 3 to 8) (size 9 to 14) (size 15 to 20)
#    0.000    2.500    0.000    3.500    0.000    6.000 
#    0.000    5.000    0.000    1.000    0.000    0.000 
#    0.000    0.000    0.000    0.000    0.000    0.000 
#
# Total GULP energy -595234.227901 kJ/mol
# GULP energy per Si atom -12400.713081 kJ/mol
# Density = 1.863225 g / cm^3
# Si number density = 18.674750 Si / 1000 Ang^3
#
#
#
# Elastic Constant Matrix: (Units=GPa)
#
#
# Indices 1 2 3 4 5 6 
#
# 1 98.8201 67.0074 53.1497 0.0000 0.0000 0.0000
# 2 67.0074 117.4623 43.5504 0.0000 0.0000 0.0000
# 3 53.1497 43.5504 48.0178 0.0000 0.0000 0.0000
# 4 0.0000 0.0000 0.0000 26.1075 0.0000 0.0000
# 5 0.0000 0.0000 0.0000 0.0000 29.1508 0.0000
# 6 0.0000 0.0000 0.0000 0.0000 0.0000 39.6154
#
#
#
# Elastic Compliance Matrix: (Units=1/GPa)
#
#
# Indices 1 2 3 4 5 6 
#
# 1 0.028204 -0.006802 -0.025049 0.000000 0.000000 0.000000
# 2 -0.006802 0.014467 -0.005592 0.000000 0.000000 0.000000
# 3 -0.025049 -0.005592 0.053624 0.000000 0.000000 0.000000
# 4 0.000000 0.000000 0.000000 0.038303 0.000000 0.000000
# 5 0.000000 0.000000 0.000000 0.000000 0.034304 0.000000
# 6 0.000000 0.000000 0.000000 0.000000 0.000000 0.025243
#
#
# Mechanical properties :
#
#
# Convention : Reuss Voigt Hill
#
# Bulk Modulus (GPa) = 46.71101 65.74613 56.22857
# Shear Modulus (GPa) = 18.10490 25.68093 21.89292
#
# Velocity S-wave (km/s) = 3.11703 3.71235 3.42764
# Velocity P-wave (km/s) = 6.16618 7.32514 6.77050
#
# Compressibility (1/GPa) = 0.02140823
#
# Stress axis : x y z
#
# Youngs Moduli (GPa) = 35.45546 69.12302 18.64846
#
# Poissons Ratio (x) = 0.47018 0.46713
# Poissons Ratio (y) = 0.24117 0.10428
# Poissons Ratio (z) = 0.88814 0.38653
#
# Static dielectric constant tensor:
#      x y z
#    x 3.308730 0.000000 0.000000 
#    y 0.000000 3.684000 0.000000 
#    z 0.000000 0.000000 3.152990 
# 
# 
# High freq. dielectric constant tensor:
#      x y z
#    x 1.730650 0.000000 0.000000 
#    y 0.000000 1.739080 0.000000 
#    z 0.000000 0.000000 1.698710 
# 
# From -- ./inp_files/12328.got.cif
#   From: 2010.03.12/outbox.cif.g09.slc.cpg/sg65_7_cif.got.tgz:12328.got - 2010.04.10 20:52:16.
