data_PCOD8271591
_publ_section_title
;
Structure prediction by ZEFSAII (Michael W. Deem and Ramdas Pophale) SiO2 
 PCOD8271591
Probable space group: C M M M
;
_chemical_formula_sum "Si O2"
_cell_formula_units_Z 112
_cell_length_a 17.820781
_cell_length_b 18.897794
_cell_length_c 17.386501
_cell_angle_alpha 90.000000
_cell_angle_beta 90.000000
_cell_angle_gamma 90.000000
_cell_volume 5855.311895
_symmetry_space_group_name_H-M "C M M M"
_symmetry_group_IT_number 65
_symmetry_cell_setting 'orthorhombic'
loop_
_space_group_symop_operation_xyz
x,y,z
-x,-y,z
x,-y,-z
-x,y,-z
-x,-y,-z
x,y,-z
-x,y,z
x,-y,z
1/2+x,1/2+y,z
1/2-x,1/2-y,z
1/2+x,1/2-y,-z
1/2-x,1/2+y,-z
1/2-x,1/2-y,-z
1/2+x,1/2+y,-z
1/2-x,1/2+y,z
1/2+x,1/2-y,z
loop_
_atom_site_type_symbol
_atom_site_label
_atom_site_fract_x
_atom_site_fract_y
_atom_site_fract_z
Si Si1 0.716455 0.084990 0.868562
Si Si2 0.267593 0.423737 0.297819
Si Si3 0.913478 0.316081 0.128410
Si Si4 0.295749 0.820841 0.414640
Si Si5 0.083785 0.879365 0.243593
Si Si6 0.916721 0.725799 0.298101
Si Si7 0.634702 0.661207 0.914705
O O1 0.724499 0.103707 0.777969
O O2 0.636037 0.115691 0.897798
O O3 0.780968 0.129847 0.911290
O O4 0.722128 0.000000 0.884548
O O5 0.235688 0.500000 0.320597
O O6 0.257777 0.375770 0.372014
O O7 0.355913 0.433640 0.276993
O O8 0.915002 0.319597 0.220588
O O9 0.870879 0.245924 0.098150
O O10 0.000000 0.319933 0.097181
O O11 0.317212 0.848476 0.500000
O O12 0.250000 0.750000 0.422410
O O13 0.369801 0.810850 0.364711
O O14 0.111370 0.804259 0.277354
O O15 0.084551 0.877001 0.150353
O O16 0.000000 0.900481 0.269790
O O17 0.000000 0.730204 0.331782
O O18 0.603139 0.644217 0.000000
#
# Coordination Sequence:
#
# PCOD8271591 Si02
#       7
#    16  16  16  16  16  16  16
#     4  10  21  36  57  82 110 152 193 226 278 337
#     4  10  20  35  55  78 108 145 184 227 266 317
#     4  10  20  34  58  86 111 146 189 233 281 333
#     4  11  21  33  55  83 108 144 184 223 276 328
#     4   9  18  33  56  82 109 143 180 220 270 327
#     4   9  17  32  54  80 109 141 177 223 273 319
#     4  10  21  36  56  84 114 144 186 238 284 330
#
# _framework density 19.127931
#
# number of rings (size 3 to 8) (size 9 to 14) (size 15 to 20)
#    0.000    2.143    2.857    1.714    0.000    3.714 
#    0.000    0.000    0.000    2.143    0.000   11.000 
#    0.000    0.000    0.000    0.000    0.000    0.000 
#
# Total GULP energy -693893.062702 kJ/mol
# GULP energy per Si atom -12390.947548 kJ/mol
# Density = 1.908439 g / cm^3
# Si number density = 19.127931 Si / 1000 Ang^3
#
#
#
# Elastic Constant Matrix: (Units=GPa)
#
#
# Indices 1 2 3 4 5 6 
#
# 1 105.1704 43.2148 21.5092 0.0000 0.0000 0.0000
# 2 43.2148 76.2397 26.5379 0.0000 0.0000 0.0000
# 3 21.5092 26.5379 119.7409 0.0000 0.0000 0.0000
# 4 0.0000 0.0000 0.0000 37.3972 0.0000 0.0000
# 5 0.0000 0.0000 0.0000 0.0000 2.4779 0.0000
# 6 0.0000 0.0000 0.0000 0.0000 0.0000 17.4462
#
#
#
# Elastic Compliance Matrix: (Units=1/GPa)
#
#
# Indices 1 2 3 4 5 6 
#
# 1 0.012454 -0.006805 -0.000729 0.000000 0.000000 0.000000
# 2 -0.006805 0.017932 -0.002752 0.000000 0.000000 0.000000
# 3 -0.000729 -0.002752 0.009092 0.000000 0.000000 0.000000
# 4 0.000000 0.000000 0.000000 0.026740 0.000000 0.000000
# 5 0.000000 0.000000 0.000000 0.000000 0.403568 0.000000
# 6 0.000000 0.000000 0.000000 0.000000 0.000000 0.057319
#
#
# Mechanical properties :
#
#
# Convention : Reuss Voigt Hill
#
# Bulk Modulus (GPa) = 52.89379 53.74165 53.31772
# Shear Modulus (GPa) = 9.02561 25.45686 17.24124
#
# Velocity S-wave (km/s) = 2.17458 3.65207 3.00553
# Velocity P-wave (km/s) = 5.83247 6.77794 6.32290
#
# Compressibility (1/GPa) = 0.01890581
#
# Stress axis : x y z
#
# Youngs Moduli (GPa) = 80.29660 55.76652 109.98510
#
# Poissons Ratio (x) = 0.37952 0.08016
# Poissons Ratio (y) = 0.54646 0.30265
# Poissons Ratio (z) = 0.05852 0.15345
#
# Static dielectric constant tensor:
#      x y z
#    x 3.489210 0.000000 0.000000 
#    y 0.000000 3.330400 0.000000 
#    z 0.000000 0.000000 3.489280 
# 
# 
# High freq. dielectric constant tensor:
#      x y z
#    x 1.741520 0.000000 0.000000 
#    y 0.000000 1.726830 0.000000 
#    z 0.000000 0.000000 1.727920 
# 
# From -- ./inp_files/54885.got.cif
#   From: 2010.03.12/outbox.cif.g09.slc.cpg/sg65_28_cif.got.tgz:54885.got - 2010.04.10 20:52:16.
