data_PCOD8271942
_publ_section_title
;
Structure prediction by ZEFSAII (Michael W. Deem and Ramdas Pophale) SiO2 
 PCOD8271942
Probable space group: C M M M
;
_chemical_formula_sum "Si O2"
_cell_formula_units_Z 104
_cell_length_a 8.914236
_cell_length_b 27.690494
_cell_length_c 21.142824
_cell_angle_alpha 90.000000
_cell_angle_beta 90.000000
_cell_angle_gamma 90.000000
_cell_volume 5218.886187
_symmetry_space_group_name_H-M "C M M M"
_symmetry_group_IT_number 65
_symmetry_cell_setting 'orthorhombic'
loop_
_space_group_symop_operation_xyz
x,y,z
-x,-y,z
x,-y,-z
-x,y,-z
-x,-y,-z
x,y,-z
-x,y,z
x,-y,z
1/2+x,1/2+y,z
1/2-x,1/2-y,z
1/2+x,1/2-y,-z
1/2-x,1/2+y,-z
1/2-x,1/2-y,-z
1/2+x,1/2+y,-z
1/2-x,1/2+y,z
1/2+x,1/2-y,z
loop_
_atom_site_type_symbol
_atom_site_label
_atom_site_fract_x
_atom_site_fract_y
_atom_site_fract_z
Si Si1 0.168844 0.443075 0.500000
Si Si2 0.176052 0.699877 0.182007
Si Si3 0.825833 0.554899 0.127150
Si Si4 0.828043 0.699928 0.573515
Si Si5 0.327249 0.644400 0.927436
Si Si6 0.172244 0.395099 0.743449
Si Si7 0.823198 0.893536 0.383294
O O1 0.163659 0.500000 0.500000
O O2 0.253139 0.426669 0.437221
O O3 0.000000 0.421298 0.500000
O O4 0.250000 0.750000 0.203872
O O5 0.237349 0.683121 0.114035
O O6 0.213841 0.659129 0.234067
O O7 0.000000 0.707471 0.174915
O O8 0.775412 0.500000 0.114466
O O9 0.731271 0.589872 0.082251
O O10 0.796517 0.567497 0.200311
O O11 0.000000 0.562723 0.110943
O O12 0.814893 0.686322 0.500000
O O13 0.750000 0.750000 0.588864
O O14 0.739816 0.660458 0.613145
O O15 0.000000 0.702326 0.595617
O O16 0.500000 0.646192 0.907067
O O17 0.304742 0.659182 0.000000
O O18 0.276795 0.412569 0.685827
O O19 0.000000 0.397326 0.721181
O O20 0.000000 0.893877 0.391903
#
# Coordination Sequence:
#
# PCOD8271942 Si02
#       7
#     8  16  16  16  16  16  16
#     4  11  25  45  66  85 110 149 193 237 287 343
#     4  10  21  38  61  86 115 154 196 240 285 333
#     4   9  19  37  60  84 111 147 191 239 289 341
#     4  10  20  35  57  82 112 147 183 222 271 329
#     4  10  21  36  55  83 119 156 194 237 285 338
#     4   9  20  38  58  82 114 151 193 235 280 339
#     4  12  24  38  60  88 119 150 185 233 289 344
#
# _framework density 19.927623000000001
#
# number of rings (size 3 to 8) (size 9 to 14) (size 15 to 20)
#    0.000    1.923    0.769    3.923    0.000    7.692 
#    0.000    4.615    0.000    0.000    0.000    0.000 
#    0.000    0.000    0.000    0.000    0.000    0.000 
#
# Total GULP energy -645004.972168 kJ/mol
# GULP energy per Si atom -12403.941772 kJ/mol
# Density = 1.988227 g / cm^3
# Si number density = 19.927623 Si / 1000 Ang^3
#
#
#
# Elastic Constant Matrix: (Units=GPa)
#
#
# Indices 1 2 3 4 5 6 
#
# 1 129.6447 25.0311 41.9070 0.0000 0.0000 0.0000
# 2 25.0311 57.6201 7.8303 0.0000 0.0000 0.0000
# 3 41.9070 7.8303 77.6330 0.0000 0.0000 0.0000
# 4 0.0000 0.0000 0.0000 14.7152 0.0000 0.0000
# 5 0.0000 0.0000 0.0000 0.0000 30.1972 0.0000
# 6 0.0000 0.0000 0.0000 0.0000 0.0000 32.4430
#
#
#
# Elastic Compliance Matrix: (Units=1/GPa)
#
#
# Indices 1 2 3 4 5 6 
#
# 1 0.010060 -0.003683 -0.005059 0.000000 0.000000 0.000000
# 2 -0.003683 0.018944 0.000077 0.000000 0.000000 0.000000
# 3 -0.005059 0.000077 0.015604 0.000000 0.000000 0.000000
# 4 0.000000 0.000000 0.000000 0.067957 0.000000 0.000000
# 5 0.000000 0.000000 0.000000 0.000000 0.033116 0.000000
# 6 0.000000 0.000000 0.000000 0.000000 0.000000 0.030823
#
#
# Mechanical properties :
#
#
# Convention : Reuss Voigt Hill
#
# Bulk Modulus (GPa) = 36.65759 46.04830 41.35294
# Shear Modulus (GPa) = 24.63951 28.14637 26.39294
#
# Velocity S-wave (km/s) = 3.52013 3.76231 3.64323
# Velocity P-wave (km/s) = 5.91245 6.48315 6.20437
#
# Compressibility (1/GPa) = 0.02727948
#
# Stress axis : x y z
#
# Youngs Moduli (GPa) = 99.40699 52.78621 64.08550
#
# Poissons Ratio (x) = 0.19439 0.32420
# Poissons Ratio (y) = 0.36608 -0.00494
# Poissons Ratio (z) = 0.50289 -0.00407
#
# Static dielectric constant tensor:
#      x y z
#    x 3.688470 0.000000 0.000000 
#    y 0.000000 3.635170 0.000000 
#    z 0.000000 0.000000 3.514610 
# 
# 
# High freq. dielectric constant tensor:
#      x y z
#    x 1.783040 0.000000 0.000000 
#    y 0.000000 1.777110 0.000000 
#    z 0.000000 0.000000 1.774710 
# 
# From -- ./inp_files/60444.got.cif
#   From: 2010.03.12/outbox.cif.g09.slc.cpg/sg65_31_cif.got.tgz:60444.got - 2010.04.10 20:52:16.
