data_PCOD8271550
_publ_section_title
;
Structure prediction by ZEFSAII (Michael W. Deem and Ramdas Pophale) SiO2 
 PCOD8271550
Probable space group: C M M M
;
_chemical_formula_sum "Si O2"
_cell_formula_units_Z 112
_cell_length_a 22.297933
_cell_length_b 17.029172
_cell_length_c 14.828412
_cell_angle_alpha 90.000000
_cell_angle_beta 90.000000
_cell_angle_gamma 90.000000
_cell_volume 5630.575449
_symmetry_space_group_name_H-M "C M M M"
_symmetry_group_IT_number 65
_symmetry_cell_setting 'orthorhombic'
loop_
_space_group_symop_operation_xyz
x,y,z
-x,-y,z
x,-y,-z
-x,y,-z
-x,-y,-z
x,y,-z
-x,y,z
x,-y,z
1/2+x,1/2+y,z
1/2-x,1/2-y,z
1/2+x,1/2-y,-z
1/2-x,1/2+y,-z
1/2-x,1/2-y,-z
1/2+x,1/2+y,-z
1/2-x,1/2+y,z
1/2+x,1/2-y,z
loop_
_atom_site_type_symbol
_atom_site_label
_atom_site_fract_x
_atom_site_fract_y
_atom_site_fract_z
Si Si1 0.769554 0.910767 0.096990
Si Si2 0.801853 0.907477 0.396389
Si Si3 0.821911 0.354222 0.685184
Si Si4 0.569965 0.241434 0.103213
Si Si5 0.639626 0.085530 0.864533
Si Si6 0.161417 0.188965 0.237624
Si Si7 0.564971 0.912484 0.394784
O O1 0.699013 0.899126 0.077135
O O2 0.789199 0.852630 0.175529
O O3 0.784412 0.000000 0.126836
O O4 0.800897 0.892062 0.000000
O O5 0.816750 0.883963 0.500000
O O6 0.734149 0.879903 0.375241
O O7 0.848488 0.865115 0.327095
O O8 0.807700 0.000000 0.383000
O O9 0.836243 0.417149 0.762230
O O10 0.809902 0.269974 0.729568
O O11 0.883046 0.350043 0.627038
O O12 0.500000 0.247251 0.123779
O O13 0.590163 0.151508 0.116666
O O14 0.602263 0.298266 0.176241
O O15 0.583921 0.267687 0.000000
O O16 0.611424 0.000000 0.887413
O O17 0.557737 0.916148 0.500000
O O18 0.500000 0.886239 0.353293
O O19 0.581319 0.000000 0.358715
#
# Coordination Sequence:
#
# PCOD8271550 Si02
#       7
#    16  16  16  16  16  16  16
#     4  10  20  36  61  90 118 152 194 242 294 346
#     4  11  23  39  60  85 116 154 195 244 302 360
#     4  11  21  32  52  83 122 161 196 236 291 348
#     4  10  23  41  60  85 119 160 203 244 292 350
#     4  10  20  34  55  86 124 160 195 236 279 339
#     4  11  23  38  59  87 121 154 194 246 297 350
#     4   9  18  33  53  77 108 153 208 253 284 327
#
# _framework density 19.891393999999998
#
# number of rings (size 3 to 8) (size 9 to 14) (size 15 to 20)
#    0.000    1.714    1.429    3.857    2.000    6.286 
#    0.000    2.857    0.000    2.143    0.000    6.000 
#    0.000    0.000    0.000    0.000    0.000    0.000 
#
# Total GULP energy -693892.837249 kJ/mol
# GULP energy per Si atom -12390.943522 kJ/mol
# Density = 1.984612 g / cm^3
# Si number density = 19.891394 Si / 1000 Ang^3
#
#
#
# Elastic Constant Matrix: (Units=GPa)
#
#
# Indices 1 2 3 4 5 6 
#
# 1 98.1715 48.9158 48.9951 0.0000 0.0000 0.0000
# 2 48.9158 102.5115 61.0288 0.0000 0.0000 0.0000
# 3 48.9951 61.0288 136.4256 0.0000 0.0000 0.0000
# 4 0.0000 0.0000 0.0000 25.8210 0.0000 0.0000
# 5 0.0000 0.0000 0.0000 0.0000 30.1421 0.0000
# 6 0.0000 0.0000 0.0000 0.0000 0.0000 4.7113
#
#
#
# Elastic Compliance Matrix: (Units=1/GPa)
#
#
# Indices 1 2 3 4 5 6 
#
# 1 0.014108 -0.005064 -0.002801 0.000000 0.000000 0.000000
# 2 -0.005064 0.015114 -0.004942 0.000000 0.000000 0.000000
# 3 -0.002801 -0.004942 0.010547 0.000000 0.000000 0.000000
# 4 0.000000 0.000000 0.000000 0.038728 0.000000 0.000000
# 5 0.000000 0.000000 0.000000 0.000000 0.033176 0.000000
# 6 0.000000 0.000000 0.000000 0.000000 0.000000 0.212254
#
#
# Mechanical properties :
#
#
# Convention : Reuss Voigt Hill
#
# Bulk Modulus (GPa) = 70.65594 72.77643 71.71619
# Shear Modulus (GPa) = 14.11394 24.01281 19.06338
#
# Velocity S-wave (km/s) = 2.66663 3.47824 3.09912
# Velocity P-wave (km/s) = 6.71410 7.26617 6.99558
#
# Compressibility (1/GPa) = 0.01415309
#
# Stress axis : x y z
#
# Youngs Moduli (GPa) = 70.88423 66.16454 94.81483
#
# Poissons Ratio (x) = 0.33507 0.26558
# Poissons Ratio (y) = 0.35897 0.46861
# Poissons Ratio (z) = 0.19855 0.32701
#
# Static dielectric constant tensor:
#      x y z
#    x 3.546400 0.000000 0.000000 
#    y 0.000000 3.621980 0.000000 
#    z 0.000000 0.000000 4.036220 
# 
# 
# High freq. dielectric constant tensor:
#      x y z
#    x 1.744610 0.000000 0.000000 
#    y 0.000000 1.763780 0.000000 
#    z 0.000000 0.000000 1.796910 
# 
# From -- ./inp_files/45787.got.cif
#   From: 2010.03.12/outbox.cif.g09.slc.cpg/sg65_23_cif.got.tgz:45787.got - 2010.04.10 20:52:16.
