data_PCOD8271831
_publ_section_title
;
Structure prediction by ZEFSAII (Michael W. Deem and Ramdas Pophale) SiO2 
 PCOD8271831
Probable space group: C M M M
;
_chemical_formula_sum "Si O2"
_cell_formula_units_Z 72
_cell_length_a 19.086902
_cell_length_b 8.827183
_cell_length_c 22.479971
_cell_angle_alpha 90.000000
_cell_angle_beta 90.000000
_cell_angle_gamma 90.000000
_cell_volume 3787.505922
_symmetry_space_group_name_H-M "C M M M"
_symmetry_group_IT_number 65
_symmetry_cell_setting 'orthorhombic'
loop_
_space_group_symop_operation_xyz
x,y,z
-x,-y,z
x,-y,-z
-x,y,-z
-x,-y,-z
x,y,-z
-x,y,z
x,-y,z
1/2+x,1/2+y,z
1/2-x,1/2-y,z
1/2+x,1/2-y,-z
1/2-x,1/2+y,-z
1/2-x,1/2-y,-z
1/2+x,1/2+y,-z
1/2-x,1/2+y,z
1/2+x,1/2-y,z
loop_
_atom_site_type_symbol
_atom_site_label
_atom_site_fract_x
_atom_site_fract_y
_atom_site_fract_z
Si Si1 0.176400 0.178949 0.761768
Si Si2 0.177554 0.178070 0.897027
Si Si3 0.676924 0.323278 0.569097
Si Si4 0.081830 0.677370 0.335577
Si Si5 0.077791 0.819678 0.000000
O O1 0.250000 0.250000 0.741155
O O2 0.159116 0.225435 0.829623
O O3 0.114302 0.244679 0.722309
O O4 0.181019 0.000000 0.753188
O O5 0.250000 0.250000 0.918208
O O6 0.186400 0.000000 0.902637
O O7 0.116896 0.238506 0.940650
O O8 0.662464 0.292366 0.500000
O O9 0.680160 0.500000 0.584208
O O10 0.750000 0.250000 0.589477
O O11 0.614012 0.246457 0.604554
O O12 0.097421 0.500000 0.333535
O O13 0.000000 0.713923 0.335961
O O14 0.000000 0.749789 0.000000
O O15 0.074483 0.000000 0.000000
#
# Coordination Sequence:
#
# PCOD8271831 Si02
#       5
#    16  16  16  16   8
#     4  10  20  35  56  80 106 138 179 224 268 317
#     4   9  18  32  53  78 102 134 173 216 263 310
#     4  10  21  38  61  86 111 141 178 220 264 312
#     4  11  24  39  55  78 110 146 180 218 267 318
#     4   9  17  30  49  75 106 137 172 214 260 311
#
# _framework density 19.009872000000001
#
# number of rings (size 3 to 8) (size 9 to 14) (size 15 to 20)
#    0.000    2.111    0.000    3.000    0.000    5.333 
#    0.000    4.444    0.000    1.333    0.000    0.000 
#    0.000    0.000    0.000    0.000    0.000    0.000 
#
# Total GULP energy -446526.465196 kJ/mol
# GULP energy per Si atom -12403.512922 kJ/mol
# Density = 1.896660 g / cm^3
# Si number density = 19.009872 Si / 1000 Ang^3
#
#
#
# Elastic Constant Matrix: (Units=GPa)
#
#
# Indices 1 2 3 4 5 6 
#
# 1 160.4377 63.2747 87.5777 0.0000 0.0000 0.0000
# 2 63.2747 83.3900 44.8194 0.0000 0.0000 0.0000
# 3 87.5777 44.8194 118.8250 0.0000 0.0000 0.0000
# 4 0.0000 0.0000 0.0000 21.5657 0.0000 0.0000
# 5 0.0000 0.0000 0.0000 0.0000 24.3109 0.0000
# 6 0.0000 0.0000 0.0000 0.0000 0.0000 31.5112
#
#
#
# Elastic Compliance Matrix: (Units=1/GPa)
#
#
# Indices 1 2 3 4 5 6 
#
# 1 0.012175 -0.005538 -0.006885 0.000000 0.000000 0.000000
# 2 -0.005538 0.017560 -0.002542 0.000000 0.000000 0.000000
# 3 -0.006885 -0.002542 0.014449 0.000000 0.000000 0.000000
# 4 0.000000 0.000000 0.000000 0.046370 0.000000 0.000000
# 5 0.000000 0.000000 0.000000 0.000000 0.041134 0.000000
# 6 0.000000 0.000000 0.000000 0.000000 0.000000 0.031735
#
#
# Mechanical properties :
#
#
# Convention : Reuss Voigt Hill
#
# Bulk Modulus (GPa) = 70.15027 83.77737 76.96382
# Shear Modulus (GPa) = 25.23943 26.60963 25.92453
#
# Velocity S-wave (km/s) = 3.64772 3.74542 3.69689
# Velocity P-wave (km/s) = 7.39752 7.92908 7.66791
#
# Compressibility (1/GPa) = 0.01425511
#
# Stress axis : x y z
#
# Youngs Moduli (GPa) = 82.13458 56.94719 69.21081
#
# Poissons Ratio (x) = 0.31538 0.47649
# Poissons Ratio (y) = 0.45486 0.17592
# Poissons Ratio (z) = 0.56546 0.14475
#
# Static dielectric constant tensor:
#      x y z
#    x 3.549110 0.000000 0.000000 
#    y 0.000000 3.457660 0.000000 
#    z 0.000000 0.000000 3.670890 
# 
# 
# High freq. dielectric constant tensor:
#      x y z
#    x 1.735670 0.000000 0.000000 
#    y 0.000000 1.736940 0.000000 
#    z 0.000000 0.000000 1.754000 
# 
# From -- ./inp_files/67076.got.cif
#   From: 2010.03.12/outbox.cif.g09.slc.cpg/sg65_34_cif.got.tgz:67076.got - 2010.04.10 20:52:16.
