data_PCOD8271216
_publ_section_title
;
Structure prediction by ZEFSAII (Michael W. Deem and Ramdas Pophale) SiO2 
 PCOD8271216
Probable space group: C M M M
;
_chemical_formula_sum "Si O2"
_cell_formula_units_Z 96
_cell_length_a 9.182762
_cell_length_b 18.712410
_cell_length_c 30.054752
_cell_angle_alpha 90.000000
_cell_angle_beta 90.000000
_cell_angle_gamma 90.000000
_cell_volume 5164.356348
_symmetry_space_group_name_H-M "C M M M"
_symmetry_group_IT_number 65
_symmetry_cell_setting 'orthorhombic'
loop_
_space_group_symop_operation_xyz
x,y,z
-x,-y,z
x,-y,-z
-x,y,-z
-x,-y,-z
x,y,-z
-x,y,z
x,-y,z
1/2+x,1/2+y,z
1/2-x,1/2-y,z
1/2+x,1/2-y,-z
1/2-x,1/2+y,-z
1/2-x,1/2-y,-z
1/2+x,1/2+y,-z
1/2-x,1/2+y,z
1/2+x,1/2-y,z
loop_
_atom_site_type_symbol
_atom_site_label
_atom_site_fract_x
_atom_site_fract_y
_atom_site_fract_z
Si Si1 0.172713 0.579491 0.783656
Si Si2 0.830081 0.821636 0.949020
Si Si3 0.331033 0.678360 0.551896
Si Si4 0.671060 0.824707 0.296354
Si Si5 0.336662 0.915545 0.117331
Si Si6 0.168341 0.582628 0.617866
O O1 0.237773 0.500000 0.774807
O O2 0.233121 0.635614 0.747603
O O3 0.215207 0.606762 0.833049
O O4 0.000000 0.574058 0.779569
O O5 0.750000 0.750000 0.933649
O O6 0.775157 0.885840 0.918619
O O7 0.000000 0.810408 0.941803
O O8 0.792454 0.840466 0.000000
O O9 0.304946 0.664561 0.500000
O O10 0.500000 0.687331 0.563555
O O11 0.250000 0.750000 0.568007
O O12 0.265882 0.610564 0.577322
O O13 0.500000 0.810440 0.292423
O O14 0.750000 0.750000 0.302623
O O15 0.709269 0.874815 0.337790
O O16 0.500000 0.886567 0.108002
O O17 0.335531 0.000000 0.113348
O O18 0.205066 0.500000 0.626202
O O19 0.000000 0.593405 0.605107
#
# Coordination Sequence:
#
# PCOD8271216 Si02
#       6
#    16  16  16  16  16  16
#     4   8  15  31  54  76 100 133 171 208 248 299
#     4  10  21  36  53  73 100 135 173 214 260 308
#     4  10  21  37  57  80 107 140 176 215 261 311
#     4  10  20  34  53  77 105 136 172 213 256 305
#     4   9  18  33  54  79 105 135 171 210 254 305
#     4  10  21  36  55  79 106 139 178 218 261 308
#
# _framework density 18.588957000000001
#
# number of rings (size 3 to 8) (size 9 to 14) (size 15 to 20)
#    0.000    2.500    0.000    3.000    0.000    8.000 
#    0.000    5.833    0.000    2.500    0.000    0.000 
#    0.000    0.000    0.000    0.000    0.000    0.000 
#
# Total GULP energy -595274.728214 kJ/mol
# GULP energy per Si atom -12401.556838 kJ/mol
# Density = 1.854665 g / cm^3
# Si number density = 18.588957 Si / 1000 Ang^3
#
#
#
# Elastic Constant Matrix: (Units=GPa)
#
#
# Indices 1 2 3 4 5 6 
#
# 1 71.5734 51.8881 54.9712 0.0000 0.0000 0.0000
# 2 51.8881 116.2549 69.2757 0.0000 0.0000 0.0000
# 3 54.9712 69.2757 107.4779 0.0000 0.0000 0.0000
# 4 0.0000 0.0000 0.0000 35.6734 0.0000 0.0000
# 5 0.0000 0.0000 0.0000 0.0000 16.9757 0.0000
# 6 0.0000 0.0000 0.0000 0.0000 0.0000 32.3152
#
#
#
# Elastic Compliance Matrix: (Units=1/GPa)
#
#
# Indices 1 2 3 4 5 6 
#
# 1 0.025204 -0.005793 -0.009158 0.000000 0.000000 0.000000
# 2 -0.005793 0.015297 -0.006897 0.000000 0.000000 0.000000
# 3 -0.009158 -0.006897 0.018434 0.000000 0.000000 0.000000
# 4 0.000000 0.000000 0.000000 0.028032 0.000000 0.000000
# 5 0.000000 0.000000 0.000000 0.000000 0.058908 0.000000
# 6 0.000000 0.000000 0.000000 0.000000 0.000000 0.030945
#
#
# Mechanical properties :
#
#
# Convention : Reuss Voigt Hill
#
# Bulk Modulus (GPa) = 65.61414 71.95290 68.78352
# Shear Modulus (GPa) = 22.16360 24.93762 23.55061
#
# Velocity S-wave (km/s) = 3.45671 3.66666 3.56323
# Velocity P-wave (km/s) = 7.16281 7.53109 7.34925
#
# Compressibility (1/GPa) = 0.01524062
#
# Stress axis : x y z
#
# Youngs Moduli (GPa) = 39.67551 65.37141 54.24856
#
# Poissons Ratio (x) = 0.37867 0.49678
# Poissons Ratio (y) = 0.22982 0.37416
# Poissons Ratio (z) = 0.36333 0.45088
#
# Static dielectric constant tensor:
#      x y z
#    x 3.280950 0.000000 0.000000 
#    y 0.000000 3.401100 0.000000 
#    z 0.000000 0.000000 3.596710 
# 
# 
# High freq. dielectric constant tensor:
#      x y z
#    x 1.701850 0.000000 0.000000 
#    y 0.000000 1.721120 0.000000 
#    z 0.000000 0.000000 1.731410 
# 
# From -- ./inp_files/73175.got.cif
#   From: 2010.03.12/outbox.cif.g09.slc.cpg/sg65_37_cif.got.tgz:73175.got - 2010.04.10 20:52:16.
