data_PCOD8271581
_publ_section_title
;
Structure prediction by ZEFSAII (Michael W. Deem and Ramdas Pophale) SiO2 
 PCOD8271581
Probable space group: C M M M
;
_chemical_formula_sum "Si O2"
_cell_formula_units_Z 80
_cell_length_a 11.851409
_cell_length_b 28.034343
_cell_length_c 12.845106
_cell_angle_alpha 90.000000
_cell_angle_beta 90.000000
_cell_angle_gamma 90.000000
_cell_volume 4267.741060
_symmetry_space_group_name_H-M "C M M M"
_symmetry_group_IT_number 65
_symmetry_cell_setting 'orthorhombic'
loop_
_space_group_symop_operation_xyz
x,y,z
-x,-y,z
x,-y,-z
-x,y,-z
-x,-y,-z
x,y,-z
-x,y,z
x,-y,z
1/2+x,1/2+y,z
1/2-x,1/2-y,z
1/2+x,1/2-y,-z
1/2-x,1/2+y,-z
1/2-x,1/2-y,-z
1/2+x,1/2+y,-z
1/2-x,1/2+y,z
1/2+x,1/2-y,z
loop_
_atom_site_type_symbol
_atom_site_label
_atom_site_fract_x
_atom_site_fract_y
_atom_site_fract_z
Si Si1 0.783440 0.555774 0.256264
Si Si2 0.287522 0.803498 0.705949
Si Si3 0.625695 0.776654 0.500000
Si Si4 0.500000 0.943449 0.384798
Si Si5 0.867648 0.118686 0.380651
Si Si6 0.369802 0.868632 0.116892
O O1 0.781045 0.500000 0.231086
O O2 0.889413 0.573625 0.324597
O O3 0.673874 0.570736 0.322195
O O4 0.794115 0.585422 0.149300
O O5 0.250000 0.750000 0.731634
O O6 0.373073 0.806596 0.607080
O O7 0.177644 0.834458 0.677554
O O8 0.348318 0.823773 0.807958
O O9 0.500000 0.749583 0.500000
O O10 0.750000 0.750000 0.500000
O O11 0.500000 0.920698 0.500000
O O12 0.500000 0.000000 0.392240
O O13 0.826633 0.117834 0.500000
O O14 0.000000 0.119872 0.372465
O O15 0.500000 0.883711 0.121045
O O16 0.334249 0.854048 0.000000
#
# Coordination Sequence:
#
# PCOD8271581 Si02
#       6
#    16  16   8   8  16  16
#     4  10  20  35  54  80 110 146 188 236 292 350
#     4  10  21  37  57  85 115 155 195 239 290 352
#     4  10  20  34  56  88 119 152 191 237 293 356
#     4   9  16  28  49  77 109 141 176 221 279 349
#     4  10  21  36  54  82 118 155 192 233 283 344
#     4  10  21  37  56  81 112 146 191 247 300 348
#
# _framework density 18.745280999999999
#
# number of rings (size 3 to 8) (size 9 to 14) (size 15 to 20)
#    0.000    2.100    2.000    1.200    0.000    6.400 
#    0.000    2.000    0.000    9.600    0.000    5.600 
#    0.000    0.000    0.000    0.000    0.000    0.000 
#
# Total GULP energy -495734.789517 kJ/mol
# GULP energy per Si atom -12393.369738 kJ/mol
# Density = 1.870262 g / cm^3
# Si number density = 18.745281 Si / 1000 Ang^3
#
#
#
# Elastic Constant Matrix: (Units=GPa)
#
#
# Indices 1 2 3 4 5 6 
#
# 1 79.0864 20.8646 37.4393 0.0000 0.0000 0.0000
# 2 20.8646 106.6624 51.1196 0.0000 0.0000 0.0000
# 3 37.4393 51.1196 151.5741 0.0000 0.0000 0.0000
# 4 0.0000 0.0000 0.0000 23.1539 0.0000 0.0000
# 5 0.0000 0.0000 0.0000 0.0000 22.3202 0.0000
# 6 0.0000 0.0000 0.0000 0.0000 0.0000 21.3791
#
#
#
# Elastic Compliance Matrix: (Units=1/GPa)
#
#
# Indices 1 2 3 4 5 6 
#
# 1 0.014476 -0.001334 -0.003126 0.000000 0.000000 0.000000
# 2 -0.001334 0.011306 -0.003484 0.000000 0.000000 0.000000
# 3 -0.003126 -0.003484 0.008544 0.000000 0.000000 0.000000
# 4 0.000000 0.000000 0.000000 0.043189 0.000000 0.000000
# 5 0.000000 0.000000 0.000000 0.000000 0.044802 0.000000
# 6 0.000000 0.000000 0.000000 0.000000 0.000000 0.046775
#
#
# Mechanical properties :
#
#
# Convention : Reuss Voigt Hill
#
# Bulk Modulus (GPa) = 54.22947 61.79667 58.01307
# Shear Modulus (GPa) = 26.16083 28.56392 27.36238
#
# Velocity S-wave (km/s) = 3.73982 3.90781 3.82474
# Velocity P-wave (km/s) = 6.90223 7.30749 7.10775
#
# Compressibility (1/GPa) = 0.01844016
#
# Stress axis : x y z
#
# Youngs Moduli (GPa) = 69.07982 88.45024 117.03589
#
# Poissons Ratio (x) = 0.11796 0.36584
# Poissons Ratio (y) = 0.09212 0.40770
# Poissons Ratio (z) = 0.21593 0.30812
#
# Static dielectric constant tensor:
#      x y z
#    x 3.388240 0.000000 0.000000 
#    y 0.000000 3.266220 0.000000 
#    z 0.000000 0.000000 3.640020 
# 
# 
# High freq. dielectric constant tensor:
#      x y z
#    x 1.720480 0.000000 0.000000 
#    y 0.000000 1.720340 0.000000 
#    z 0.000000 0.000000 1.723880 
# 
# From -- ./inp_files/22892.got.cif
#   From: 2010.03.12/outbox.cif.g09.slc.cpg/sg65_12_cif.got.tgz:22892.got - 2010.04.10 20:52:16.
