data_PCOD8271191
_publ_section_title
;
Structure prediction by ZEFSAII (Michael W. Deem and Ramdas Pophale) SiO2 
 PCOD8271191
Probable space group: C M M M
;
_chemical_formula_sum "Si O2"
_cell_formula_units_Z 96
_cell_length_a 23.892269
_cell_length_b 23.724444
_cell_length_c 9.119335
_cell_angle_alpha 90.000000
_cell_angle_beta 90.000000
_cell_angle_gamma 90.000000
_cell_volume 5169.119935
_symmetry_space_group_name_H-M "C M M M"
_symmetry_group_IT_number 65
_symmetry_cell_setting 'orthorhombic'
loop_
_space_group_symop_operation_xyz
x,y,z
-x,-y,z
x,-y,-z
-x,y,-z
-x,-y,-z
x,y,-z
-x,y,z
x,-y,z
1/2+x,1/2+y,z
1/2-x,1/2-y,z
1/2+x,1/2-y,-z
1/2-x,1/2+y,-z
1/2-x,1/2-y,-z
1/2+x,1/2+y,-z
1/2-x,1/2+y,z
1/2+x,1/2-y,z
loop_
_atom_site_type_symbol
_atom_site_label
_atom_site_fract_x
_atom_site_fract_y
_atom_site_fract_z
Si Si1 0.660773 0.230128 0.671074
Si Si2 0.869772 0.563109 0.829172
Si Si3 0.655838 0.360167 0.326964
Si Si4 0.562355 0.850531 0.329404
Si Si5 0.564783 0.435008 0.170310
Si Si6 0.267765 0.143221 0.172112
O O1 0.674394 0.222870 0.500000
O O2 0.650191 0.294505 0.713981
O O3 0.603793 0.199201 0.719309
O O4 0.713187 0.203092 0.758185
O O5 0.862844 0.500000 0.769233
O O6 0.922677 0.591568 0.751532
O O7 0.813522 0.596347 0.790428
O O8 0.882159 0.563926 0.000000
O O9 0.660723 0.370004 0.500000
O O10 0.602508 0.394222 0.268609
O O11 0.711835 0.381126 0.246648
O O12 0.567622 0.862828 0.500000
O O13 0.500000 0.831645 0.285206
O O14 0.500000 0.422284 0.206756
O O15 0.578763 0.500000 0.207844
O O16 0.577091 0.423095 0.000000
O O17 0.258201 0.151702 0.000000
#
# Coordination Sequence:
#
# PCOD8271191 Si02
#       6
#    16  16  16  16  16  16
#     4   9  19  35  52  73 106 142 173 212 261 308
#     4   9  19  35  52  71  98 133 171 211 256 302
#     4  11  22  34  54  83 109 136 172 211 256 314
#     4   9  18  33  52  73  99 133 171 209 251 300
#     4   9  20  40  61  79 104 138 173 212 259 308
#     4  10  20  34  53  76 104 139 178 218 260 307
#
# _framework density 18.571826000000001
#
# number of rings (size 3 to 8) (size 9 to 14) (size 15 to 20)
#    0.000    2.500    0.000    2.000    0.000    7.000 
#    0.000    5.833    0.000    0.000    0.000    0.000 
#    0.000    0.000    0.000    0.000    0.000    0.000 
#
# Total GULP energy -595263.900494 kJ/mol
# GULP energy per Si atom -12401.331260 kJ/mol
# Density = 1.852956 g / cm^3
# Si number density = 18.571826 Si / 1000 Ang^3
#
#
#
# Elastic Constant Matrix: (Units=GPa)
#
#
# Indices 1 2 3 4 5 6 
#
# 1 97.3027 24.5180 36.0906 0.0000 0.0000 0.0000
# 2 24.5180 70.9406 24.5012 0.0000 0.0000 0.0000
# 3 36.0906 24.5012 55.4225 0.0000 0.0000 0.0000
# 4 0.0000 0.0000 0.0000 31.2677 0.0000 0.0000
# 5 0.0000 0.0000 0.0000 0.0000 34.2540 0.0000
# 6 0.0000 0.0000 0.0000 0.0000 0.0000 26.1699
#
#
#
# Elastic Compliance Matrix: (Units=1/GPa)
#
#
# Indices 1 2 3 4 5 6 
#
# 1 0.013778 -0.001963 -0.008104 0.000000 0.000000 0.000000
# 2 -0.001963 0.016916 -0.006200 0.000000 0.000000 0.000000
# 3 -0.008104 -0.006200 0.026062 0.000000 0.000000 0.000000
# 4 0.000000 0.000000 0.000000 0.031982 0.000000 0.000000
# 5 0.000000 0.000000 0.000000 0.000000 0.029194 0.000000
# 6 0.000000 0.000000 0.000000 0.000000 0.000000 0.038212
#
#
# Mechanical properties :
#
#
# Convention : Reuss Voigt Hill
#
# Bulk Modulus (GPa) = 41.28631 43.76507 42.52569
# Shear Modulus (GPa) = 25.41286 27.57536 26.49411
#
# Velocity S-wave (km/s) = 3.70314 3.85748 3.78110
# Velocity P-wave (km/s) = 6.36893 6.59217 6.48151
#
# Compressibility (1/GPa) = 0.02422110
#
# Stress axis : x y z
#
# Youngs Moduli (GPa) = 72.58090 59.11554 38.37068
#
# Poissons Ratio (x) = 0.11603 0.31097
# Poissons Ratio (y) = 0.14246 0.23790
# Poissons Ratio (z) = 0.58821 0.36652
#
# Static dielectric constant tensor:
#      x y z
#    x 3.543820 0.000000 0.000000 
#    y 0.000000 3.512290 0.000000 
#    z 0.000000 0.000000 3.359020 
# 
# 
# High freq. dielectric constant tensor:
#      x y z
#    x 1.726620 0.000000 0.000000 
#    y 0.000000 1.718390 0.000000 
#    z 0.000000 0.000000 1.718840 
# 
# From -- ./inp_files/14282.got.cif
#   From: 2010.03.12/outbox.cif.g09.slc.cpg/sg65_8_cif.got.tgz:14282.got - 2010.04.10 20:52:16.
