data_PCOD8271079
_publ_section_title
;
Structure prediction by ZEFSAII (Michael W. Deem and Ramdas Pophale) SiO2 
 PCOD8271079
Probable space group: C M M M
;
_chemical_formula_sum "Si O2"
_cell_formula_units_Z 104
_cell_length_a 24.015351
_cell_length_b 9.963493
_cell_length_c 25.159880
_cell_angle_alpha 90.000000
_cell_angle_beta 90.000000
_cell_angle_gamma 90.000000
_cell_volume 6020.175111
_symmetry_space_group_name_H-M "C M M M"
_symmetry_group_IT_number 65
_symmetry_cell_setting 'orthorhombic'
loop_
_space_group_symop_operation_xyz
x,y,z
-x,-y,z
x,-y,-z
-x,y,-z
-x,-y,-z
x,y,-z
-x,y,z
x,-y,z
1/2+x,1/2+y,z
1/2-x,1/2-y,z
1/2+x,1/2-y,-z
1/2-x,1/2+y,-z
1/2-x,1/2-y,-z
1/2+x,1/2+y,-z
1/2-x,1/2+y,z
1/2+x,1/2-y,z
loop_
_atom_site_type_symbol
_atom_site_label
_atom_site_fract_x
_atom_site_fract_y
_atom_site_fract_z
Si Si1 0.566220 0.849706 0.059677
Si Si2 0.750000 0.250000 0.377906
Si Si3 0.437937 0.211861 0.438275
Si Si4 0.935041 0.655301 0.245779
Si Si5 0.639014 0.850796 0.655840
Si Si6 0.405638 0.500000 0.561827
Si Si7 0.933826 0.153605 0.849896
Si Si8 0.217939 0.000000 0.437442
O O1 0.500000 0.848952 0.062233
O O2 0.589830 0.733897 0.098660
O O3 0.586818 0.000000 0.076241
O O4 0.586690 0.816238 0.000000
O O5 0.693435 0.244890 0.343067
O O6 0.747687 0.125035 0.416807
O O7 0.420285 0.191030 0.500000
O O8 0.500000 0.152801 0.428950
O O9 0.392590 0.142199 0.400974
O O10 0.439936 0.368697 0.422015
O O11 0.922819 0.500000 0.229338
O O12 0.903181 0.699580 0.299022
O O13 0.914519 0.758447 0.200581
O O14 0.000000 0.673960 0.257486
O O15 0.659573 0.000000 0.669513
O O16 0.394875 0.500000 0.500000
O O17 0.344177 0.500000 0.587871
O O18 0.000000 0.147697 0.852206
O O19 0.910220 0.000000 0.847961
O O20 0.217516 0.000000 0.500000
#
# Coordination Sequence:
#
# PCOD8271079 Si02
#       8
#    16   8  16  16  16   8  16   8
#     4   8  13  21  35  57  87 127 171 206 238 281
#     4  12  23  40  56  78 100 124 157 198 242 294
#     4  10  20  34  52  74  99 124 151 188 236 291
#     4   9  18  34  53  68  89 126 166 203 244 292
#     4  11  23  38  54  73  95 123 160 199 243 296
#     4   9  17  32  51  72  96 123 152 178 221 287
#     4   9  16  26  40  63  93 122 161 208 249 287
#     4  11  22  37  58  79  99 126 157 189 233 296
#
# _framework density 17.275245000000002
#
# number of rings (size 3 to 8) (size 9 to 14) (size 15 to 20)
#    0.000    2.308    2.308    1.846    0.000    4.923 
#    2.769    2.308    0.000    0.000    0.000    0.000 
#    0.000    0.000    0.000    0.692    0.000    6.923 
#
# Total GULP energy -644429.097295 kJ/mol
# GULP energy per Si atom -12392.867256 kJ/mol
# Density = 1.723593 g / cm^3
# Si number density = 17.275245 Si / 1000 Ang^3
#
#
#
# Elastic Constant Matrix: (Units=GPa)
#
#
# Indices 1 2 3 4 5 6 
#
# 1 59.7667 23.3663 36.0621 0.0000 0.0000 0.0000
# 2 23.3663 116.4867 57.3790 0.0000 0.0000 0.0000
# 3 36.0621 57.3790 111.4129 0.0000 0.0000 0.0000
# 4 0.0000 0.0000 0.0000 22.8897 0.0000 0.0000
# 5 0.0000 0.0000 0.0000 0.0000 6.0893 0.0000
# 6 0.0000 0.0000 0.0000 0.0000 0.0000 12.0750
#
#
#
# Elastic Compliance Matrix: (Units=1/GPa)
#
#
# Indices 1 2 3 4 5 6 
#
# 1 0.020907 -0.001153 -0.006174 0.000000 0.000000 0.000000
# 2 -0.001153 0.011566 -0.005584 0.000000 0.000000 0.000000
# 3 -0.006174 -0.005584 0.013850 0.000000 0.000000 0.000000
# 4 0.000000 0.000000 0.000000 0.043688 0.000000 0.000000
# 5 0.000000 0.000000 0.000000 0.000000 0.164222 0.000000
# 6 0.000000 0.000000 0.000000 0.000000 0.000000 0.082816
#
#
# Mechanical properties :
#
#
# Convention : Reuss Voigt Hill
#
# Bulk Modulus (GPa) = 48.77304 57.92010 53.34657
# Shear Modulus (GPa) = 13.52437 19.60139 16.56288
#
# Velocity S-wave (km/s) = 2.80103 3.37211 3.09975
# Velocity P-wave (km/s) = 6.22537 6.98299 6.61503
#
# Compressibility (1/GPa) = 0.02050313
#
# Stress axis : x y z
#
# Youngs Moduli (GPa) = 47.82976 86.45799 72.20470
#
# Poissons Ratio (x) = 0.09968 0.44576
# Poissons Ratio (y) = 0.05514 0.40316
# Poissons Ratio (z) = 0.29528 0.48275
#
# Static dielectric constant tensor:
#      x y z
#    x 2.902860 0.000000 0.000000 
#    y 0.000000 3.574730 0.000000 
#    z 0.000000 0.000000 3.202560 
# 
# 
# High freq. dielectric constant tensor:
#      x y z
#    x 1.618200 0.000000 0.000000 
#    y 0.000000 1.678440 0.000000 
#    z 0.000000 0.000000 1.647940 
# 
# From -- ./inp_files/75838.got.cif
#   From: 2010.03.12/outbox.cif.g09.slc.cpg/sg65_38_cif.got.tgz:75838.got - 2010.04.10 20:52:16.
