data_PCOD8271763
_publ_section_title
;
Structure prediction by ZEFSAII (Michael W. Deem and Ramdas Pophale) SiO2 
 PCOD8271763
Probable space group: C M M M
;
_chemical_formula_sum "Si O2"
_cell_formula_units_Z 80
_cell_length_a 16.754300
_cell_length_b 27.242831
_cell_length_c 9.503876
_cell_angle_alpha 90.000000
_cell_angle_beta 90.000000
_cell_angle_gamma 90.000000
_cell_volume 4337.897493
_symmetry_space_group_name_H-M "C M M M"
_symmetry_group_IT_number 65
_symmetry_cell_setting 'orthorhombic'
loop_
_space_group_symop_operation_xyz
x,y,z
-x,-y,z
x,-y,-z
-x,y,-z
-x,-y,-z
x,y,-z
-x,y,z
x,-y,z
1/2+x,1/2+y,z
1/2-x,1/2-y,z
1/2+x,1/2-y,-z
1/2-x,1/2+y,-z
1/2-x,1/2-y,-z
1/2+x,1/2+y,-z
1/2-x,1/2+y,z
1/2+x,1/2-y,z
loop_
_atom_site_type_symbol
_atom_site_label
_atom_site_fract_x
_atom_site_fract_y
_atom_site_fract_z
Si Si1 0.410755 0.500000 0.833246
Si Si2 0.907999 0.717187 0.338218
Si Si3 0.811899 0.905935 0.166256
Si Si4 0.000000 0.555223 0.332918
Si Si5 0.155676 0.387793 0.665381
Si Si6 0.591894 0.690305 0.836640
O O1 0.500000 0.500000 0.768565
O O2 0.364638 0.548338 0.781651
O O3 0.416802 0.500000 0.000000
O O4 0.898277 0.732114 0.500000
O O5 0.855521 0.669729 0.301543
O O6 0.875707 0.762450 0.246645
O O7 0.000000 0.705035 0.303044
O O8 0.729181 0.908814 0.247896
O O9 0.857878 0.856690 0.210196
O O10 0.795708 0.908091 0.000000
O O11 0.078438 0.583113 0.278786
O O12 0.000000 0.500000 0.273020
O O13 0.000000 0.555732 0.500000
O O14 0.169707 0.396649 0.500000
O O15 0.500000 0.679639 0.798569
O O16 0.602672 0.701762 0.000000
#
# Coordination Sequence:
#
# PCOD8271763 Si02
#       6
#     8  16  16   8  16  16
#     4   9  18  36  61  80 101 140 180 211 255 313
#     4   9  17  32  53  75 102 138 178 217 255 304
#     4  10  21  35  53  80 109 134 170 220 264 309
#     4   9  18  34  57  79 101 139 183 216 251 306
#     4  10  20  35  55  79 107 138 176 216 258 310
#     4   9  18  33  53  76 103 137 177 216 258 310
#
# _framework density 18.442114
#
# number of rings (size 3 to 8) (size 9 to 14) (size 15 to 20)
#    0.000    2.600    1.000    0.600    1.400    4.800 
#    0.000    4.500    0.000    3.000    0.000    0.000 
#    0.000    0.000    0.000    0.000    0.000    0.000 
#
# Total GULP energy -496074.316910 kJ/mol
# GULP energy per Si atom -12401.857923 kJ/mol
# Density = 1.840014 g / cm^3
# Si number density = 18.442114 Si / 1000 Ang^3
#
#
#
# Elastic Constant Matrix: (Units=GPa)
#
#
# Indices 1 2 3 4 5 6 
#
# 1 140.8079 83.1869 45.8442 0.0000 0.0000 0.0000
# 2 83.1869 151.0982 47.6976 0.0000 0.0000 0.0000
# 3 45.8442 47.6976 39.0148 0.0000 0.0000 0.0000
# 4 0.0000 0.0000 0.0000 21.1138 0.0000 0.0000
# 5 0.0000 0.0000 0.0000 0.0000 30.7054 0.0000
# 6 0.0000 0.0000 0.0000 0.0000 0.0000 27.4847
#
#
#
# Elastic Compliance Matrix: (Units=1/GPa)
#
#
# Indices 1 2 3 4 5 6 
#
# 1 0.012658 -0.003703 -0.010347 0.000000 0.000000 0.000000
# 2 -0.003703 0.011861 -0.010149 0.000000 0.000000 0.000000
# 3 -0.010347 -0.010149 0.050198 0.000000 0.000000 0.000000
# 4 0.000000 0.000000 0.000000 0.047362 0.000000 0.000000
# 5 0.000000 0.000000 0.000000 0.000000 0.032568 0.000000
# 6 0.000000 0.000000 0.000000 0.000000 0.000000 0.036384
#
#
# Mechanical properties :
#
#
# Convention : Reuss Voigt Hill
#
# Bulk Modulus (GPa) = 37.99664 76.04204 57.01934
# Shear Modulus (GPa) = 20.14486 26.14026 23.14256
#
# Velocity S-wave (km/s) = 3.30863 3.76895 3.54627
# Velocity P-wave (km/s) = 5.93666 7.76288 6.91036
#
# Compressibility (1/GPa) = 0.02631812
#
# Stress axis : x y z
#
# Youngs Moduli (GPa) = 79.00025 84.31313 19.92103
#
# Poissons Ratio (x) = 0.31217 0.20613
# Poissons Ratio (y) = 0.29250 0.20219
# Poissons Ratio (z) = 0.81745 0.85573
#
# Static dielectric constant tensor:
#      x y z
#    x 3.363520 0.000000 0.000000 
#    y 0.000000 3.583700 0.000000 
#    z 0.000000 0.000000 3.087130 
# 
# 
# High freq. dielectric constant tensor:
#      x y z
#    x 1.716150 0.000000 0.000000 
#    y 0.000000 1.728450 0.000000 
#    z 0.000000 0.000000 1.683820 
# 
# From -- ./inp_files/9684.got.cif
#   From: 2010.03.12/outbox.cif.g09.slc.cpg/sg65_5_cif.got.tgz:9684.got - 2010.04.10 20:52:16.
