data_PCOD8271248
_publ_section_title
;
Structure prediction by ZEFSAII (Michael W. Deem and Ramdas Pophale) SiO2 
 PCOD8271248
Probable space group: C M M M
;
_chemical_formula_sum "Si O2"
_cell_formula_units_Z 64
_cell_length_a 18.677965
_cell_length_b 9.102610
_cell_length_c 20.166013
_cell_angle_alpha 90.000000
_cell_angle_beta 90.000000
_cell_angle_gamma 90.000000
_cell_volume 3428.589856
_symmetry_space_group_name_H-M "C M M M"
_symmetry_group_IT_number 65
_symmetry_cell_setting 'orthorhombic'
loop_
_space_group_symop_operation_xyz
x,y,z
-x,-y,z
x,-y,-z
-x,y,-z
-x,-y,-z
x,y,-z
-x,y,z
x,-y,z
1/2+x,1/2+y,z
1/2-x,1/2-y,z
1/2+x,1/2-y,-z
1/2-x,1/2+y,-z
1/2-x,1/2-y,-z
1/2+x,1/2+y,-z
1/2-x,1/2+y,z
1/2+x,1/2-y,z
loop_
_atom_site_type_symbol
_atom_site_label
_atom_site_fract_x
_atom_site_fract_y
_atom_site_fract_z
Si Si1 0.177894 0.328606 0.883421
Si Si2 0.582997 0.671507 0.372426
Si Si3 0.078662 0.325347 0.000000
Si Si4 0.326230 0.672373 0.500000
Si Si5 0.675994 0.172656 0.732014
O O1 0.191064 0.500000 0.892537
O O2 0.250000 0.250000 0.904816
O O3 0.156486 0.290786 0.808060
O O4 0.117102 0.269991 0.933069
O O5 0.500000 0.708634 0.385202
O O6 0.593611 0.500000 0.357204
O O7 0.628139 0.720872 0.436315
O O8 0.610497 0.764636 0.310223
O O9 0.074765 0.500000 0.000000
O O10 0.000000 0.255207 0.000000
O O11 0.312236 0.500000 0.500000
O O12 0.250000 0.750000 0.500000
O O13 0.750000 0.250000 0.710642
O O14 0.684763 0.000000 0.719402
#
# Coordination Sequence:
#
# PCOD8271248 Si02
#       5
#    16  16   8   8  16
#     4   9  18  32  52  75  99 131 169 210 252 297
#     4  10  21  37  56  78 106 139 172 209 256 307
#     4   9  17  30  49  73 100 131 168 208 252 301
#     4  10  21  37  57  79 103 134 173 214 254 300
#     4  10  20  34  53  78 106 136 173 215 257 304
#
# _framework density 18.666567000000001
#
# number of rings (size 3 to 8) (size 9 to 14) (size 15 to 20)
#    0.000    2.375    0.000    2.250    0.000    7.000 
#    0.000    2.500    0.000    3.750    0.000    0.000 
#    0.000    0.000    0.000    0.000    0.000    0.000 
#
# Total GULP energy -396867.094932 kJ/mol
# GULP energy per Si atom -12402.096717 kJ/mol
# Density = 1.862408 g / cm^3
# Si number density = 18.666567 Si / 1000 Ang^3
#
#
#
# Elastic Constant Matrix: (Units=GPa)
#
#
# Indices 1 2 3 4 5 6 
#
# 1 171.7633 51.6163 94.4905 0.0000 0.0000 0.0000
# 2 51.6163 47.9008 42.6283 0.0000 0.0000 0.0000
# 3 94.4905 42.6283 127.9961 0.0000 0.0000 0.0000
# 4 0.0000 0.0000 0.0000 14.5224 0.0000 0.0000
# 5 0.0000 0.0000 0.0000 0.0000 30.2760 0.0000
# 6 0.0000 0.0000 0.0000 0.0000 0.0000 30.7689
#
#
#
# Elastic Compliance Matrix: (Units=1/GPa)
#
#
# Indices 1 2 3 4 5 6 
#
# 1 0.011115 -0.006644 -0.005993 0.000000 0.000000 0.000000
# 2 -0.006644 0.033642 -0.006299 0.000000 0.000000 0.000000
# 3 -0.005993 -0.006299 0.014335 0.000000 0.000000 0.000000
# 4 0.000000 0.000000 0.000000 0.068859 0.000000 0.000000
# 5 0.000000 0.000000 0.000000 0.000000 0.033029 0.000000
# 6 0.000000 0.000000 0.000000 0.000000 0.000000 0.032500
#
#
# Mechanical properties :
#
#
# Convention : Reuss Voigt Hill
#
# Bulk Modulus (GPa) = 47.12673 80.57005 63.84839
# Shear Modulus (GPa) = 20.97073 25.70847 23.33960
#
# Velocity S-wave (km/s) = 3.35541 3.71515 3.53985
# Velocity P-wave (km/s) = 6.34926 7.85236 7.14047
#
# Compressibility (1/GPa) = 0.02121938
#
# Stress axis : x y z
#
# Youngs Moduli (GPa) = 89.96456 29.72461 69.76039
#
# Poissons Ratio (x) = 0.19750 0.41807
# Poissons Ratio (y) = 0.59776 0.43943
# Poissons Ratio (z) = 0.53915 0.18724
#
# Static dielectric constant tensor:
#      x y z
#    x 3.532580 0.000000 0.000000 
#    y 0.000000 3.266460 0.000000 
#    z 0.000000 0.000000 3.622210 
# 
# 
# High freq. dielectric constant tensor:
#      x y z
#    x 1.726250 0.000000 0.000000 
#    y 0.000000 1.708000 0.000000 
#    z 0.000000 0.000000 1.738420 
# 
# From -- ./inp_files/58879.got.cif
#   From: 2010.03.12/outbox.cif.g09.slc.cpg/sg65_30_cif.got.tgz:58879.got - 2010.04.10 20:52:16.
