data_PCOD8271134
_publ_section_title
;
Structure prediction by ZEFSAII (Michael W. Deem and Ramdas Pophale) SiO2 
 PCOD8271134
Probable space group: C M M M
;
_chemical_formula_sum "Si O2"
_cell_formula_units_Z 112
_cell_length_a 14.941824
_cell_length_b 26.188792
_cell_length_c 14.139992
_cell_angle_alpha 90.000000
_cell_angle_beta 90.000000
_cell_angle_gamma 90.000000
_cell_volume 5533.096526
_symmetry_space_group_name_H-M "C M M M"
_symmetry_group_IT_number 65
_symmetry_cell_setting 'orthorhombic'
loop_
_space_group_symop_operation_xyz
x,y,z
-x,-y,z
x,-y,-z
-x,y,-z
-x,-y,-z
x,y,-z
-x,y,z
x,-y,z
1/2+x,1/2+y,z
1/2-x,1/2-y,z
1/2+x,1/2-y,-z
1/2-x,1/2+y,-z
1/2-x,1/2-y,-z
1/2+x,1/2+y,-z
1/2-x,1/2+y,z
1/2+x,1/2-y,z
loop_
_atom_site_type_symbol
_atom_site_label
_atom_site_fract_x
_atom_site_fract_y
_atom_site_fract_z
Si Si1 0.101914 0.558801 0.270876
Si Si2 0.153211 0.372883 0.893585
Si Si3 0.398746 0.230508 0.391944
Si Si4 0.402159 0.661482 0.692886
Si Si5 0.649741 0.342515 0.104808
Si Si6 0.401268 0.234370 0.891778
Si Si7 0.218292 0.633569 0.609968
O O1 0.130149 0.500000 0.267538
O O2 0.111791 0.581245 0.165695
O O3 0.168262 0.586897 0.341650
O O4 0.000000 0.565332 0.305843
O O5 0.260433 0.375109 0.892479
O O6 0.127673 0.318783 0.842508
O O7 0.116934 0.379480 0.000000
O O8 0.379551 0.249077 0.500000
O O9 0.500000 0.208900 0.384528
O O10 0.385286 0.277496 0.319469
O O11 0.328876 0.186857 0.361989
O O12 0.500000 0.648030 0.648309
O O13 0.407949 0.643170 0.802875
O O14 0.322115 0.632359 0.640693
O O15 0.667879 0.281481 0.118178
O O16 0.603329 0.350899 0.000000
O O17 0.500000 0.251675 0.854421
O O18 0.406610 0.217824 0.000000
O O19 0.211598 0.623721 0.500000
#
# Coordination Sequence:
#
# PCOD8271134 Si02
#       7
#    16  16  16  16  16  16  16
#     4  11  25  43  64  91 118 146 190 246 301 359
#     4  10  20  36  58  84 118 161 200 237 285 344
#     4   9  19  35  56  86 122 159 199 241 286 344
#     4  11  22  35  57  90 125 161 199 239 282 339
#     4  10  20  34  52  81 122 164 201 234 274 333
#     4   9  17  28  45  76 118 160 199 234 270 323
#     4  11  23  41  63  86 117 156 197 245 301 355
#
# _framework density 20.24183
#
# number of rings (size 3 to 8) (size 9 to 14) (size 15 to 20)
#    0.000    1.857    1.429    2.571    2.000    8.000 
#    0.000    1.429    0.000    0.429    0.000    1.000 
#    0.000    2.286    0.000    0.000    0.000    0.000 
#
# Total GULP energy -693910.589002 kJ/mol
# GULP energy per Si atom -12391.260518 kJ/mol
# Density = 2.019576 g / cm^3
# Si number density = 20.241830 Si / 1000 Ang^3
#
#
#
# Elastic Constant Matrix: (Units=GPa)
#
#
# Indices 1 2 3 4 5 6 
#
# 1 109.2317 46.3886 27.6908 0.0000 0.0000 0.0000
# 2 46.3886 82.6996 23.5980 0.0000 0.0000 0.0000
# 3 27.6908 23.5980 85.9188 0.0000 0.0000 0.0000
# 4 0.0000 0.0000 0.0000 -74.8823 0.0000 0.0000
# 5 0.0000 0.0000 0.0000 0.0000 20.5502 0.0000
# 6 0.0000 0.0000 0.0000 0.0000 0.0000 25.3117
#
#
#
# Elastic Compliance Matrix: (Units=1/GPa)
#
#
# Indices 1 2 3 4 5 6 
#
# 1 0.012411 -0.006315 -0.002265 0.000000 0.000000 0.000000
# 2 -0.006315 0.016334 -0.002451 0.000000 0.000000 0.000000
# 3 -0.002265 -0.002451 0.013042 0.000000 0.000000 0.000000
# 4 0.000000 0.000000 0.000000 -0.013354 0.000000 0.000000
# 5 0.000000 0.000000 0.000000 0.000000 0.048661 0.000000
# 6 0.000000 0.000000 0.000000 0.000000 0.000000 0.039507
#
#
# Mechanical properties :
#
#
# Convention : Reuss Voigt Hill
#
# Bulk Modulus (GPa) = 50.69987 52.57831 51.63909
# Shear Modulus (GPa) = 34.42592 6.20742 20.31667
#
# Velocity S-wave (km/s) = 4.12847 1.75308 3.17156
# Velocity P-wave (km/s) = 6.91571 5.48901 6.24325
#
# Compressibility (1/GPa) = 0.01972391
#
# Stress axis : x y z
#
# Youngs Moduli (GPa) = 80.57264 61.22297 76.67449
#
# Poissons Ratio (x) = 0.38664 0.17370
# Poissons Ratio (y) = 0.50884 0.18791
# Poissons Ratio (z) = 0.18253 0.15004
#
# Static dielectric constant tensor:
#      x y z
#    x 3.771970 0.000000 0.000000 
#    y 0.000000 3.197640 0.000000 
#    z 0.000000 0.000000 3.837940 
# 
# 
# High freq. dielectric constant tensor:
#      x y z
#    x 1.794770 0.000000 0.000000 
#    y 0.000000 1.727470 0.000000 
#    z 0.000000 0.000000 1.803710 
# 
# From -- ./inp_files/40842.got.cif
#   From: 2010.03.12/outbox.cif.g09.slc.cpg/sg65_21_cif.got.tgz:40842.got - 2010.04.10 20:52:16.
