data_PCOD8271441
_publ_section_title
;
Structure prediction by ZEFSAII (Michael W. Deem and Ramdas Pophale) SiO2 
 PCOD8271441
Probable space group: C M M M
;
_chemical_formula_sum "Si O2"
_cell_formula_units_Z 88
_cell_length_a 24.774267
_cell_length_b 8.835055
_cell_length_c 21.499054
_cell_angle_alpha 90.000000
_cell_angle_beta 90.000000
_cell_angle_gamma 90.000000
_cell_volume 4705.756186
_symmetry_space_group_name_H-M "C M M M"
_symmetry_group_IT_number 65
_symmetry_cell_setting 'orthorhombic'
loop_
_space_group_symop_operation_xyz
x,y,z
-x,-y,z
x,-y,-z
-x,y,-z
-x,-y,-z
x,y,-z
-x,y,z
x,-y,z
1/2+x,1/2+y,z
1/2-x,1/2-y,z
1/2+x,1/2-y,-z
1/2-x,1/2+y,-z
1/2-x,1/2-y,-z
1/2+x,1/2+y,-z
1/2-x,1/2+y,z
1/2+x,1/2-y,z
loop_
_atom_site_type_symbol
_atom_site_label
_atom_site_fract_x
_atom_site_fract_y
_atom_site_fract_z
Si Si1 0.500000 0.326466 0.739776
Si Si2 0.806071 0.678221 0.801069
Si Si3 0.694859 0.822658 0.657619
Si Si4 0.000000 0.325240 0.926782
Si Si5 0.108299 0.826039 0.429729
Si Si6 0.000000 0.321454 0.391392
Si Si7 0.086264 0.177156 0.843152
O O1 0.500000 0.500000 0.716933
O O2 0.500000 0.215515 0.681648
O O3 0.446630 0.291490 0.779820
O O4 0.803628 0.500000 0.811660
O O5 0.750000 0.750000 0.824959
O O6 0.815328 0.721268 0.729121
O O7 0.855120 0.746899 0.840324
O O8 0.750000 0.750000 0.633039
O O9 0.646646 0.758905 0.617516
O O10 0.698784 0.000000 0.647864
O O11 0.946083 0.247440 0.900695
O O12 0.000000 0.500000 0.906791
O O13 0.000000 0.303578 0.000000
O O14 0.130498 0.811667 0.500000
O O15 0.050606 0.748633 0.426271
O O16 0.103578 0.000000 0.409137
O O17 0.000000 0.500000 0.399914
O O18 0.092996 0.000000 0.855122
#
# Coordination Sequence:
#
# PCOD8271441 Si02
#       7
#     8  16  16   8  16   8  16
#     4   9  19  34  53  78 108 140 172 213 266 322
#     4  10  20  34  54  81 112 144 178 218 266 320
#     4  10  21  37  58  82 107 137 173 217 268 320
#     4  10  21  37  58  84 115 152 190 227 265 305
#     4  11  24  40  56  73  97 133 175 219 268 324
#     4  12  24  36  54  78 103 133 170 216 271 328
#     4  10  20  34  55  83 113 146 183 222 265 312
#
# _framework density 18.700500999999999
#
# number of rings (size 3 to 8) (size 9 to 14) (size 15 to 20)
#    0.000    1.727    0.000    5.182    0.000   10.909 
#    0.000    0.000    0.000    0.545    0.000    0.000 
#    0.000    0.000    0.000    0.000    0.000    0.000 
#
# Total GULP energy -545824.333004 kJ/mol
# GULP energy per Si atom -12405.098477 kJ/mol
# Density = 1.865794 g / cm^3
# Si number density = 18.700501 Si / 1000 Ang^3
#
#
#
# Elastic Constant Matrix: (Units=GPa)
#
#
# Indices 1 2 3 4 5 6 
#
# 1 153.7379 51.6398 37.5374 0.0000 0.0000 0.0000
# 2 51.6398 93.0817 33.6095 0.0000 0.0000 0.0000
# 3 37.5374 33.6095 61.7284 0.0000 0.0000 0.0000
# 4 0.0000 0.0000 0.0000 27.8012 0.0000 0.0000
# 5 0.0000 0.0000 0.0000 0.0000 -193.8376 0.0000
# 6 0.0000 0.0000 0.0000 0.0000 0.0000 41.0887
#
#
#
# Elastic Compliance Matrix: (Units=1/GPa)
#
#
# Indices 1 2 3 4 5 6 
#
# 1 0.008482 -0.003539 -0.003231 0.000000 0.000000 0.000000
# 2 -0.003539 0.014849 -0.005933 0.000000 0.000000 0.000000
# 3 -0.003231 -0.005933 0.021395 0.000000 0.000000 0.000000
# 4 0.000000 0.000000 0.000000 0.035970 0.000000 0.000000
# 5 0.000000 0.000000 0.000000 0.000000 -0.005159 0.000000
# 6 0.000000 0.000000 0.000000 0.000000 0.000000 0.024338
#
#
# Mechanical properties :
#
#
# Convention : Reuss Voigt Hill
#
# Bulk Modulus (GPa) = 51.75900 61.56905 56.66403
# Shear Modulus (GPa) = 37.95922 -12.60543 12.67689
#
# Velocity S-wave (km/s) = 4.51027 -2.59910 2.60646
# Velocity P-wave (km/s) = 7.40685 4.89777 6.27891
#
# Compressibility (1/GPa) = 0.01932031
#
# Stress axis : x y z
#
# Youngs Moduli (GPa) = 117.89278 67.34550 46.73974
#
# Poissons Ratio (x) = 0.23834 0.15102
# Poissons Ratio (y) = 0.41723 0.27729
# Poissons Ratio (z) = 0.38093 0.39954
#
# Static dielectric constant tensor:
#      x y z
#    x 3.590460 0.000000 0.000000 
#    y 0.000000 3.566790 0.000000 
#    z 0.000000 0.000000 3.194010 
# 
# 
# High freq. dielectric constant tensor:
#      x y z
#    x 1.735360 0.000000 0.000000 
#    y 0.000000 1.744390 0.000000 
#    z 0.000000 0.000000 1.703280 
# 
# From -- ./inp_files/59877.got.cif
#   From: 2010.03.12/outbox.cif.g09.slc.cpg/sg65_30_cif.got.tgz:59877.got - 2010.04.10 20:52:16.
