data_PCOD8271679
_publ_section_title
;
Structure prediction by ZEFSAII (Michael W. Deem and Ramdas Pophale) SiO2 
 PCOD8271679
Probable space group: C M M M
;
_chemical_formula_sum "Si O2"
_cell_formula_units_Z 88
_cell_length_a 25.550043
_cell_length_b 20.574873
_cell_length_c 8.935843
_cell_angle_alpha 90.000000
_cell_angle_beta 90.000000
_cell_angle_gamma 90.000000
_cell_volume 4697.473387
_symmetry_space_group_name_H-M "C M M M"
_symmetry_group_IT_number 65
_symmetry_cell_setting 'orthorhombic'
loop_
_space_group_symop_operation_xyz
x,y,z
-x,-y,z
x,-y,-z
-x,y,-z
-x,-y,-z
x,y,-z
-x,y,z
x,-y,z
1/2+x,1/2+y,z
1/2-x,1/2-y,z
1/2+x,1/2-y,-z
1/2-x,1/2+y,-z
1/2-x,1/2-y,-z
1/2+x,1/2+y,-z
1/2-x,1/2+y,z
1/2+x,1/2-y,z
loop_
_atom_site_type_symbol
_atom_site_label
_atom_site_fract_x
_atom_site_fract_y
_atom_site_fract_z
Si Si1 0.396277 0.575003 0.675359
Si Si2 0.693582 0.329602 0.676474
Si Si3 0.500000 0.628671 0.821703
Si Si4 0.810151 0.317675 0.322783
Si Si5 0.500000 0.776268 0.822414
Si Si6 0.439782 0.000000 0.336616
Si Si7 0.590578 0.129905 0.176898
O O1 0.405340 0.588398 0.500000
O O2 0.381775 0.500000 0.704661
O O3 0.348455 0.618825 0.741272
O O4 0.449017 0.592165 0.762046
O O5 0.691834 0.333800 0.500000
O O6 0.753090 0.344185 0.727772
O O7 0.680176 0.256686 0.728058
O O8 0.500000 0.702777 0.760604
O O9 0.500000 0.626039 0.000000
O O10 0.817774 0.324839 0.500000
O O11 0.851061 0.360188 0.233736
O O12 0.551691 0.813552 0.763026
O O13 0.500000 0.775419 0.000000
O O14 0.426595 0.938322 0.239014
O O15 0.500000 0.000000 0.370984
O O16 0.410923 0.000000 0.500000
O O17 0.589178 0.127415 0.000000
#
# Coordination Sequence:
#
# PCOD8271679 Si02
#       7
#    16  16   8  16   8   8  16
#     4  10  20  35  54  76 104 140 181 218 262 324
#     4   8  16  33  56  79 107 143 180 225 276 317
#     4  11  22  36  54  79 108 138 175 218 267 318
#     4   9  17  33  56  81 108 138 181 231 272 315
#     4   9  20  35  53  77 107 142 175 212 263 325
#     4  11  23  39  57  79 107 141 185 226 265 318
#     4  11  21  36  56  79 110 146 178 216 272 330
#
# _framework density 18.733476
#
# number of rings (size 3 to 8) (size 9 to 14) (size 15 to 20)
#    0.000    2.273    0.909    3.545    0.000    1.818 
#    1.636    5.455    0.000    0.000    0.000    0.000 
#    0.000    0.000    0.000    0.000    0.000    0.000 
#
# Total GULP energy -545474.560312 kJ/mol
# GULP energy per Si atom -12397.149098 kJ/mol
# Density = 1.869084 g / cm^3
# Si number density = 18.733476 Si / 1000 Ang^3
#
#
#
# Elastic Constant Matrix: (Units=GPa)
#
#
# Indices 1 2 3 4 5 6 
#
# 1 142.5300 63.6857 37.3441 0.0000 0.0000 0.0000
# 2 63.6857 113.4455 32.3215 0.0000 0.0000 0.0000
# 3 37.3441 32.3215 55.5524 0.0000 0.0000 0.0000
# 4 0.0000 0.0000 0.0000 25.2524 0.0000 0.0000
# 5 0.0000 0.0000 0.0000 0.0000 8.2378 0.0000
# 6 0.0000 0.0000 0.0000 0.0000 0.0000 30.3227
#
#
#
# Elastic Compliance Matrix: (Units=1/GPa)
#
#
# Indices 1 2 3 4 5 6 
#
# 1 0.010119 -0.004486 -0.004192 0.000000 0.000000 0.000000
# 2 -0.004486 0.012555 -0.004289 0.000000 0.000000 0.000000
# 3 -0.004192 -0.004289 0.023315 0.000000 0.000000 0.000000
# 4 0.000000 0.000000 0.000000 0.039600 0.000000 0.000000
# 5 0.000000 0.000000 0.000000 0.000000 0.121392 0.000000
# 6 0.000000 0.000000 0.000000 0.000000 0.000000 0.032979
#
#
# Mechanical properties :
#
#
# Convention : Reuss Voigt Hill
#
# Bulk Modulus (GPa) = 49.86557 64.24782 57.05669
# Shear Modulus (GPa) = 18.34331 24.64101 21.49216
#
# Velocity S-wave (km/s) = 3.13257 3.63071 3.39080
# Velocity P-wave (km/s) = 6.30557 7.20737 6.77150
#
# Compressibility (1/GPa) = 0.02005392
#
# Stress axis : x y z
#
# Youngs Moduli (GPa) = 98.82418 79.64789 42.89151
#
# Poissons Ratio (x) = 0.35732 0.17981
# Poissons Ratio (y) = 0.44334 0.18397
# Poissons Ratio (z) = 0.41429 0.34162
#
# Static dielectric constant tensor:
#      x y z
#    x 3.825140 0.000000 0.000000 
#    y 0.000000 3.565140 0.000000 
#    z 0.000000 0.000000 3.174630 
# 
# 
# High freq. dielectric constant tensor:
#      x y z
#    x 1.737600 0.000000 0.000000 
#    y 0.000000 1.730760 0.000000 
#    z 0.000000 0.000000 1.702020 
# 
# From -- ./inp_files/14079.got.cif
#   From: 2010.03.12/outbox.cif.g09.slc.cpg/sg65_8_cif.got.tgz:14079.got - 2010.04.10 20:52:16.
