data_PCOD8271760
_publ_section_title
;
Structure prediction by ZEFSAII (Michael W. Deem and Ramdas Pophale) SiO2 
 PCOD8271760
Probable space group: C M M M
;
_chemical_formula_sum "Si O2"
_cell_formula_units_Z 88
_cell_length_a 9.954653
_cell_length_b 21.248892
_cell_length_c 23.229837
_cell_angle_alpha 90.000000
_cell_angle_beta 90.000000
_cell_angle_gamma 90.000000
_cell_volume 4913.699320
_symmetry_space_group_name_H-M "C M M M"
_symmetry_group_IT_number 65
_symmetry_cell_setting 'orthorhombic'
loop_
_space_group_symop_operation_xyz
x,y,z
-x,-y,z
x,-y,-z
-x,y,-z
-x,-y,-z
x,y,-z
-x,y,z
x,-y,z
1/2+x,1/2+y,z
1/2-x,1/2-y,z
1/2+x,1/2-y,-z
1/2-x,1/2+y,-z
1/2-x,1/2-y,-z
1/2+x,1/2+y,-z
1/2-x,1/2+y,z
1/2+x,1/2-y,z
loop_
_atom_site_type_symbol
_atom_site_label
_atom_site_fract_x
_atom_site_fract_y
_atom_site_fract_z
Si Si1 0.655724 0.808139 0.269735
Si Si2 0.000000 0.155368 0.435547
Si Si3 0.653106 0.000000 0.563025
Si Si4 0.656979 0.190243 0.136517
Si Si5 0.159285 0.430198 0.065108
Si Si6 0.772721 0.374291 0.623011
Si Si7 0.000000 0.697778 0.436969
O O1 0.500000 0.791520 0.283190
O O2 0.750000 0.750000 0.286945
O O3 0.674459 0.826183 0.203405
O O4 0.707614 0.867054 0.308028
O O5 0.877388 0.133472 0.397338
O O6 0.000000 0.228756 0.443906
O O7 0.000000 0.124694 0.500000
O O8 0.683319 0.057891 0.603520
O O9 0.500000 0.000000 0.546995
O O10 0.728810 0.000000 0.500000
O O11 0.500000 0.205236 0.121957
O O12 0.750000 0.250000 0.119146
O O13 0.711888 0.128035 0.103661
O O14 0.209606 0.500000 0.086332
O O15 0.000000 0.429947 0.067234
O O16 0.209967 0.419002 0.000000
O O17 0.864970 0.320820 0.595193
O O18 0.000000 0.665200 0.500000
#
# Coordination Sequence:
#
# PCOD8271760 Si02
#       7
#    16   8   8  16  16  16   8
#     4  10  20  35  55  79 106 137 175 219 267 316
#     4  11  24  37  55  83 107 128 164 219 270 316
#     4  11  22  39  59  75 101 137 170 208 257 322
#     4   9  18  32  51  79 109 142 180 224 270 313
#     4   8  14  27  49  78 111 148 185 223 264 306
#     4  12  23  37  56  79 103 137 172 209 263 320
#     4  11  20  35  57  79 103 130 168 211 260 316
#
# _framework density 17.909113999999999
#
# number of rings (size 3 to 8) (size 9 to 14) (size 15 to 20)
#    0.000    1.909    1.818    3.818    1.273    2.182 
#    1.636    0.909    0.000    0.545    0.000    1.273 
#    0.000    0.000    0.000    0.000    0.000    0.000 
#
# Total GULP energy -545332.384692 kJ/mol
# GULP energy per Si atom -12393.917834 kJ/mol
# Density = 1.786835 g / cm^3
# Si number density = 17.909114 Si / 1000 Ang^3
#
#
#
# Elastic Constant Matrix: (Units=GPa)
#
#
# Indices 1 2 3 4 5 6 
#
# 1 94.1793 35.7716 35.1276 0.0000 0.0000 0.0000
# 2 35.7716 134.0647 73.8677 0.0000 0.0000 0.0000
# 3 35.1276 73.8677 102.5972 0.0000 0.0000 0.0000
# 4 0.0000 0.0000 0.0000 27.8545 0.0000 0.0000
# 5 0.0000 0.0000 0.0000 0.0000 12.8923 0.0000
# 6 0.0000 0.0000 0.0000 0.0000 0.0000 22.0816
#
#
#
# Elastic Compliance Matrix: (Units=1/GPa)
#
#
# Indices 1 2 3 4 5 6 
#
# 1 0.012377 -0.001604 -0.003083 0.000000 0.000000 0.000000
# 2 -0.001604 0.012572 -0.008502 0.000000 0.000000 0.000000
# 3 -0.003083 -0.008502 0.016924 0.000000 0.000000 0.000000
# 4 0.000000 0.000000 0.000000 0.035901 0.000000 0.000000
# 5 0.000000 0.000000 0.000000 0.000000 0.077566 0.000000
# 6 0.000000 0.000000 0.000000 0.000000 0.000000 0.045286
#
#
# Mechanical properties :
#
#
# Convention : Reuss Voigt Hill
#
# Bulk Modulus (GPa) = 64.53879 68.93055 66.73467
# Shear Modulus (GPa) = 21.53609 24.97063 23.25336
#
# Velocity S-wave (km/s) = 3.47150 3.73808 3.60725
# Velocity P-wave (km/s) = 7.22381 7.56331 7.39551
#
# Compressibility (1/GPa) = 0.01549456
#
# Stress axis : x y z
#
# Youngs Moduli (GPa) = 80.79415 79.54452 59.08849
#
# Poissons Ratio (x) = 0.12757 0.18217
# Poissons Ratio (y) = 0.12958 0.50238
# Poissons Ratio (z) = 0.24909 0.67630
#
# Static dielectric constant tensor:
#      x y z
#    x 3.141340 0.000000 0.000000 
#    y 0.000000 3.479990 0.000000 
#    z 0.000000 0.000000 3.499410 
# 
# 
# High freq. dielectric constant tensor:
#      x y z
#    x 1.677000 0.000000 0.000000 
#    y 0.000000 1.687140 0.000000 
#    z 0.000000 0.000000 1.696480 
# 
# From -- ./inp_files/67682.got.cif
#   From: 2010.03.12/outbox.cif.g09.slc.cpg/sg65_34_cif.got.tgz:67682.got - 2010.04.10 20:52:16.
