data_PCOD8271330
_publ_section_title
;
Structure prediction by ZEFSAII (Michael W. Deem and Ramdas Pophale) SiO2 
 PCOD8271330
Probable space group: C M M M
;
_chemical_formula_sum "Si O2"
_cell_formula_units_Z 72
_cell_length_a 19.721325
_cell_length_b 8.084083
_cell_length_c 24.385748
_cell_angle_alpha 90.000000
_cell_angle_beta 90.000000
_cell_angle_gamma 90.000000
_cell_volume 3887.791228
_symmetry_space_group_name_H-M "C M M M"
_symmetry_group_IT_number 65
_symmetry_cell_setting 'orthorhombic'
loop_
_space_group_symop_operation_xyz
x,y,z
-x,-y,z
x,-y,-z
-x,y,-z
-x,-y,-z
x,y,-z
-x,y,z
x,-y,z
1/2+x,1/2+y,z
1/2-x,1/2-y,z
1/2+x,1/2-y,-z
1/2-x,1/2+y,-z
1/2-x,1/2-y,-z
1/2+x,1/2+y,-z
1/2-x,1/2+y,z
1/2+x,1/2-y,z
loop_
_atom_site_type_symbol
_atom_site_label
_atom_site_fract_x
_atom_site_fract_y
_atom_site_fract_z
Si Si1 0.079408 0.193600 0.864252
Si Si2 0.677520 0.812724 0.651074
Si Si3 0.325384 0.310671 0.231740
Si Si4 0.077926 0.192054 0.562343
Si Si5 0.580026 0.000000 0.939053
O O1 0.119083 0.259920 0.810341
O O2 0.102467 0.326542 0.910412
O O3 0.000000 0.209810 0.851267
O O4 0.095912 0.000000 0.880646
O O5 0.750000 0.750000 0.629479
O O6 0.652239 0.720105 0.705529
O O7 0.623686 0.798537 0.602582
O O8 0.686415 0.000000 0.669118
O O9 0.324694 0.500000 0.219695
O O10 0.250000 0.250000 0.219448
O O11 0.095441 0.241532 0.500000
O O12 0.000000 0.232872 0.575044
O O13 0.093147 0.000000 0.572135
O O14 0.500000 0.000000 0.942682
O O15 0.612166 0.000000 0.000000
#
# Coordination Sequence:
#
# PCOD8271330 Si02
#       5
#    16  16  16  16   8
#     4   9  19  34  53  80 109 140 180 222 265 318
#     4  11  22  35  53  77 106 137 175 220 263 315
#     4  10  20  34  54  78 104 140 176 214 266 317
#     4   9  19  37  58  77 101 136 174 214 266 322
#     4   9  18  32  54  82 110 142 176 220 270 311
#
# _framework density 18.519514999999998
#
# number of rings (size 3 to 8) (size 9 to 14) (size 15 to 20)
#    0.000    2.333    0.000    4.667    3.111    2.667 
#    0.000    5.556    0.000    0.667    0.000    0.000 
#    0.000    0.000    0.000    0.000    0.000    0.000 
#
# Total GULP energy -446182.305105 kJ/mol
# GULP energy per Si atom -12393.952920 kJ/mol
# Density = 1.847736 g / cm^3
# Si number density = 18.519515 Si / 1000 Ang^3
#
#
#
# Elastic Constant Matrix: (Units=GPa)
#
#
# Indices 1 2 3 4 5 6 
#
# 1 68.8832 27.7085 65.4314 0.0000 0.0000 0.0000
# 2 27.7085 64.2507 39.5453 0.0000 0.0000 0.0000
# 3 65.4314 39.5453 128.2369 0.0000 0.0000 0.0000
# 4 0.0000 0.0000 0.0000 30.4827 0.0000 0.0000
# 5 0.0000 0.0000 0.0000 0.0000 21.1302 0.0000
# 6 0.0000 0.0000 0.0000 0.0000 0.0000 24.8679
#
#
#
# Elastic Compliance Matrix: (Units=1/GPa)
#
#
# Indices 1 2 3 4 5 6 
#
# 1 0.029063 -0.004205 -0.013532 0.000000 0.000000 0.000000
# 2 -0.004205 0.019818 -0.003966 0.000000 0.000000 0.000000
# 3 -0.013532 -0.003966 0.015926 0.000000 0.000000 0.000000
# 4 0.000000 0.000000 0.000000 0.032805 0.000000 0.000000
# 5 0.000000 0.000000 0.000000 0.000000 0.047326 0.000000
# 6 0.000000 0.000000 0.000000 0.000000 0.000000 0.040212
#
#
# Mechanical properties :
#
#
# Convention : Reuss Voigt Hill
#
# Bulk Modulus (GPa) = 46.72708 58.52680 52.62694
# Shear Modulus (GPa) = 21.21422 23.87521 22.54472
#
# Velocity S-wave (km/s) = 3.38820 3.59443 3.49284
# Velocity P-wave (km/s) = 6.37123 6.99271 6.68919
#
# Compressibility (1/GPa) = 0.02140087
#
# Stress axis : x y z
#
# Youngs Moduli (GPa) = 34.40805 50.45815 62.79055
#
# Poissons Ratio (x) = 0.21215 0.84971
# Poissons Ratio (y) = 0.14467 0.24904
# Poissons Ratio (z) = 0.46563 0.20013
#
# Static dielectric constant tensor:
#      x y z
#    x 2.803020 0.000000 0.000000 
#    y 0.000000 3.537500 0.000000 
#    z 0.000000 0.000000 3.462950 
# 
# 
# High freq. dielectric constant tensor:
#      x y z
#    x 1.703580 0.000000 0.000000 
#    y 0.000000 1.730510 0.000000 
#    z 0.000000 0.000000 1.713500 
# 
# From -- ./inp_files/74996.got.cif
#   From: 2010.03.12/outbox.cif.g09.slc.cpg/sg65_38_cif.got.tgz:74996.got - 2010.04.10 20:52:16.
