data_PCOD8271712
_publ_section_title
;
Structure prediction by ZEFSAII (Michael W. Deem and Ramdas Pophale) SiO2 
 PCOD8271712
Probable space group: C M M M
;
_chemical_formula_sum "Si O2"
_cell_formula_units_Z 56
_cell_length_a 8.710193
_cell_length_b 19.661444
_cell_length_c 17.656621
_cell_angle_alpha 90.000000
_cell_angle_beta 90.000000
_cell_angle_gamma 90.000000
_cell_volume 3023.784133
_symmetry_space_group_name_H-M "C M M M"
_symmetry_group_IT_number 65
_symmetry_cell_setting 'orthorhombic'
loop_
_space_group_symop_operation_xyz
x,y,z
-x,-y,z
x,-y,-z
-x,y,-z
-x,-y,-z
x,y,-z
-x,y,z
x,-y,z
1/2+x,1/2+y,z
1/2-x,1/2-y,z
1/2+x,1/2-y,-z
1/2-x,1/2+y,-z
1/2-x,1/2-y,-z
1/2+x,1/2+y,-z
1/2-x,1/2+y,z
1/2+x,1/2-y,z
loop_
_atom_site_type_symbol
_atom_site_label
_atom_site_fract_x
_atom_site_fract_y
_atom_site_fract_z
Si Si1 0.181742 0.420801 0.500000
Si Si2 0.681645 0.677594 0.378819
Si Si3 0.818924 0.820686 0.206239
Si Si4 0.682482 0.575717 0.083703
O O1 0.231757 0.500000 0.500000
O O2 0.249191 0.384425 0.426015
O O3 0.000000 0.413412 0.500000
O O4 0.500000 0.680330 0.390607
O O5 0.750000 0.750000 0.405848
O O6 0.729522 0.662650 0.292226
O O7 0.750000 0.750000 0.179030
O O8 0.748716 0.876938 0.149661
O O9 0.000000 0.816385 0.199161
O O10 0.500000 0.574705 0.088923
O O11 0.747156 0.500000 0.097086
O O12 0.732725 0.601769 0.000000
#
# Coordination Sequence:
#
# PCOD8271712 Si02
#       4
#     8  16  16  16
#     4  11  24  39  54  75 103 131 162 203 250 299
#     4  10  20  35  55  76 101 133 168 206 248 297
#     4   9  18  31  49  74 100 127 161 201 243 287
#     4   8  14  26  45  69  97 129 165 203 241 282
#
# _framework density 18.519841
#
# number of rings (size 3 to 8) (size 9 to 14) (size 15 to 20)
#    0.000    2.714    0.000    2.571    0.000    4.000 
#    0.000    2.857    0.000    0.857    0.000    2.000 
#    0.000    0.000    0.000    0.000    0.000    0.000 
#
# Total GULP energy -347125.011769 kJ/mol
# GULP energy per Si atom -12397.321849 kJ/mol
# Density = 1.847769 g / cm^3
# Si number density = 18.519841 Si / 1000 Ang^3
#
#
#
# Elastic Constant Matrix: (Units=GPa)
#
#
# Indices 1 2 3 4 5 6 
#
# 1 41.0329 38.6264 27.1274 0.0000 0.0000 0.0000
# 2 38.6264 161.6772 104.0916 0.0000 0.0000 0.0000
# 3 27.1274 104.0916 139.0731 0.0000 0.0000 0.0000
# 4 0.0000 0.0000 0.0000 41.0897 0.0000 0.0000
# 5 0.0000 0.0000 0.0000 0.0000 12.0428 0.0000
# 6 0.0000 0.0000 0.0000 0.0000 0.0000 26.6919
#
#
#
# Elastic Compliance Matrix: (Units=1/GPa)
#
#
# Indices 1 2 3 4 5 6 
#
# 1 0.031512 -0.006893 -0.000988 0.000000 0.000000 0.000000
# 2 -0.006893 0.013445 -0.008719 0.000000 0.000000 0.000000
# 3 -0.000988 -0.008719 0.013909 0.000000 0.000000 0.000000
# 4 0.000000 0.000000 0.000000 0.024337 0.000000 0.000000
# 5 0.000000 0.000000 0.000000 0.000000 0.083037 0.000000
# 6 0.000000 0.000000 0.000000 0.000000 0.000000 0.037464
#
#
# Mechanical properties :
#
#
# Convention : Reuss Voigt Hill
#
# Bulk Modulus (GPa) = 38.95944 75.71932 57.33938
# Shear Modulus (GPa) = 20.36996 27.42741 23.89869
#
# Velocity S-wave (km/s) = 3.32007 3.85252 3.59616
# Velocity P-wave (km/s) = 5.98159 7.79509 6.94777
#
# Compressibility (1/GPa) = 0.02566772
#
# Stress axis : x y z
#
# Youngs Moduli (GPa) = 31.73384 74.37529 71.89598
#
# Poissons Ratio (x) = 0.51264 0.07102
# Poissons Ratio (y) = 0.21873 0.62686
# Poissons Ratio (z) = 0.03135 0.64847
#
# Static dielectric constant tensor:
#      x y z
#    x 3.124210 0.000000 0.000000 
#    y 0.000000 3.636730 0.000000 
#    z 0.000000 0.000000 3.729210 
# 
# 
# High freq. dielectric constant tensor:
#      x y z
#    x 1.692470 0.000000 0.000000 
#    y 0.000000 1.717900 0.000000 
#    z 0.000000 0.000000 1.731220 
# 
# From -- ./inp_files/44977.got.cif
#   From: 2010.03.12/outbox.cif.g09.slc.cpg/sg65_23_cif.got.tgz:44977.got - 2010.04.10 20:52:16.
