data_PCOD8271406
_publ_section_title
;
Structure prediction by ZEFSAII (Michael W. Deem and Ramdas Pophale) SiO2 
 PCOD8271406
Probable space group: C M M M
;
_chemical_formula_sum "Si O2"
_cell_formula_units_Z 104
_cell_length_a 8.880805
_cell_length_b 31.624360
_cell_length_c 19.284373
_cell_angle_alpha 90.000000
_cell_angle_beta 90.000000
_cell_angle_gamma 90.000000
_cell_volume 5416.011807
_symmetry_space_group_name_H-M "C M M M"
_symmetry_group_IT_number 65
_symmetry_cell_setting 'orthorhombic'
loop_
_space_group_symop_operation_xyz
x,y,z
-x,-y,z
x,-y,-z
-x,y,-z
-x,-y,-z
x,y,-z
-x,y,z
x,-y,z
1/2+x,1/2+y,z
1/2-x,1/2-y,z
1/2+x,1/2-y,-z
1/2-x,1/2+y,-z
1/2-x,1/2-y,-z
1/2+x,1/2+y,-z
1/2-x,1/2+y,z
1/2+x,1/2-y,z
loop_
_atom_site_type_symbol
_atom_site_label
_atom_site_fract_x
_atom_site_fract_y
_atom_site_fract_z
Si Si1 0.177746 0.207526 0.287822
Si Si2 0.176833 0.045981 0.285504
Si Si3 0.678920 0.373912 0.798636
Si Si4 0.171840 0.912243 0.576821
Si Si5 0.177384 0.414075 0.920296
Si Si6 0.169125 0.000000 0.917831
Si Si7 0.324637 0.824318 0.578311
O O1 0.250000 0.250000 0.255817
O O2 0.233189 0.168020 0.241348
O O3 0.230973 0.203279 0.367280
O O4 0.000000 0.211487 0.286360
O O5 0.243848 0.085197 0.242400
O O6 0.213674 0.052253 0.367009
O O7 0.000000 0.045475 0.273289
O O8 0.243869 0.000000 0.262790
O O9 0.500000 0.374379 0.805804
O O10 0.753760 0.375720 0.874994
O O11 0.190589 0.931954 0.500000
O O12 0.282240 0.873117 0.587402
O O13 0.000000 0.896099 0.588714
O O14 0.246800 0.458044 0.891613
O O15 0.000000 0.416429 0.911558
O O16 0.223318 0.405989 0.000000
O O17 0.000000 0.000000 0.887097
O O18 0.167529 0.000000 0.000000
O O19 0.285352 0.809239 0.500000
O O20 0.500000 0.818725 0.594417
#
# Coordination Sequence:
#
# PCOD8271406 Si02
#       7
#    16  16  16  16  16   8  16
#     4  11  23  40  61  85 112 143 183 229 281 337
#     4   9  17  30  49  77 111 144 183 229 272 321
#     4  10  21  37  57  82 112 147 185 226 275 334
#     4   9  16  29  50  74 104 144 188 234 278 319
#     4  10  21  36  55  82 116 151 187 230 278 328
#     4   9  17  31  53  81 113 151 192 229 268 319
#     4  10  20  34  54  80 109 144 185 229 280 336
#
# _framework density 19.202321999999999
#
# number of rings (size 3 to 8) (size 9 to 14) (size 15 to 20)
#    0.000    2.231    1.538    1.615    1.077    4.615 
#    0.000    1.538    0.000    1.846    0.000    2.154 
#    0.000    0.000    0.000    0.000    0.000    0.000 
#
# Total GULP energy -644689.456389 kJ/mol
# GULP energy per Si atom -12397.874161 kJ/mol
# Density = 1.915862 g / cm^3
# Si number density = 19.202322 Si / 1000 Ang^3
#
#
#
# Elastic Constant Matrix: (Units=GPa)
#
#
# Indices 1 2 3 4 5 6 
#
# 1 57.2569 37.5221 36.1103 0.0000 0.0000 0.0000
# 2 37.5221 133.1384 63.4837 0.0000 0.0000 0.0000
# 3 36.1103 63.4837 100.0769 0.0000 0.0000 0.0000
# 4 0.0000 0.0000 0.0000 22.8785 0.0000 0.0000
# 5 0.0000 0.0000 0.0000 0.0000 25.2440 0.0000
# 6 0.0000 0.0000 0.0000 0.0000 0.0000 26.9799
#
#
#
# Elastic Compliance Matrix: (Units=1/GPa)
#
#
# Indices 1 2 3 4 5 6 
#
# 1 0.023851 -0.003754 -0.006225 0.000000 0.000000 0.000000
# 2 -0.003754 0.011359 -0.005851 0.000000 0.000000 0.000000
# 3 -0.006225 -0.005851 0.015950 0.000000 0.000000 0.000000
# 4 0.000000 0.000000 0.000000 0.043709 0.000000 0.000000
# 5 0.000000 0.000000 0.000000 0.000000 0.039613 0.000000
# 6 0.000000 0.000000 0.000000 0.000000 0.000000 0.037065
#
#
# Mechanical properties :
#
#
# Convention : Reuss Voigt Hill
#
# Bulk Modulus (GPa) = 51.28059 62.74492 57.01275
# Shear Modulus (GPa) = 23.84290 25.24423 24.54356
#
# Velocity S-wave (km/s) = 3.52755 3.62974 3.57901
# Velocity P-wave (km/s) = 6.58444 7.09319 6.84354
#
# Compressibility (1/GPa) = 0.01950056
#
# Stress axis : x y z
#
# Youngs Moduli (GPa) = 41.92720 88.03758 62.69597
#
# Poissons Ratio (x) = 0.33046 0.39027
# Poissons Ratio (y) = 0.15738 0.36684
# Poissons Ratio (z) = 0.26099 0.51511
#
# Static dielectric constant tensor:
#      x y z
#    x 3.318080 0.000000 0.000000 
#    y 0.000000 3.534580 0.000000 
#    z 0.000000 0.000000 3.648660 
# 
# 
# High freq. dielectric constant tensor:
#      x y z
#    x 1.728850 0.000000 0.000000 
#    y 0.000000 1.728270 0.000000 
#    z 0.000000 0.000000 1.749910 
# 
# From -- ./inp_files/60379.got.cif
#   From: 2010.03.12/outbox.cif.g09.slc.cpg/sg65_31_cif.got.tgz:60379.got - 2010.04.10 20:52:16.
