data_PCOD8271872
_publ_section_title
;
Structure prediction by ZEFSAII (Michael W. Deem and Ramdas Pophale) SiO2 
 PCOD8271872
Probable space group: C M M M
;
_chemical_formula_sum "Si O2"
_cell_formula_units_Z 72
_cell_length_a 8.779280
_cell_length_b 18.491616
_cell_length_c 23.191344
_cell_angle_alpha 90.000000
_cell_angle_beta 90.000000
_cell_angle_gamma 90.000000
_cell_volume 3764.954087
_symmetry_space_group_name_H-M "C M M M"
_symmetry_group_IT_number 65
_symmetry_cell_setting 'orthorhombic'
loop_
_space_group_symop_operation_xyz
x,y,z
-x,-y,z
x,-y,-z
-x,y,-z
-x,-y,-z
x,y,-z
-x,y,z
x,-y,z
1/2+x,1/2+y,z
1/2-x,1/2-y,z
1/2+x,1/2-y,-z
1/2-x,1/2+y,-z
1/2-x,1/2-y,-z
1/2+x,1/2+y,-z
1/2-x,1/2+y,z
1/2+x,1/2-y,z
loop_
_atom_site_type_symbol
_atom_site_label
_atom_site_fract_x
_atom_site_fract_y
_atom_site_fract_z
Si Si1 0.180217 0.328932 0.278890
Si Si2 0.676721 0.585149 0.382400
Si Si3 0.171544 0.585794 0.500000
Si Si4 0.179803 0.325998 0.064586
Si Si5 0.681179 0.080718 0.170034
O O1 0.250000 0.250000 0.280687
O O2 0.228334 0.374096 0.334239
O O3 0.242632 0.370432 0.222403
O O4 0.000000 0.322053 0.277641
O O5 0.500000 0.605373 0.377439
O O6 0.704246 0.500000 0.374843
O O7 0.738174 0.613122 0.443881
O O8 0.166589 0.500000 0.500000
O O9 0.000000 0.617420 0.500000
O O10 0.250000 0.250000 0.083246
O O11 0.238376 0.386296 0.109322
O O12 0.000000 0.317617 0.067872
O O13 0.232161 0.348254 0.000000
O O14 0.500000 0.077821 0.171690
O O15 0.749131 0.000000 0.175838
#
# Coordination Sequence:
#
# PCOD8271872 Si02
#       5
#    16  16   8  16  16
#     4  11  22  36  54  75 103 139 178 220 268 320
#     4  10  20  35  56  82 111 141 176 218 262 310
#     4   9  17  31  54  83 112 143 178 213 255 309
#     4   9  17  30  50  75 103 136 172 211 257 310
#     4   9  18  32  51  76 103 132 171 219 266 312
#
# _framework density 19.123737999999999
#
# number of rings (size 3 to 8) (size 9 to 14) (size 15 to 20)
#    0.000    2.333    0.000    3.000    0.000    4.000 
#    0.000    3.889    0.000    3.333    0.000    3.111 
#    0.000    0.000    0.000    0.000    0.000    0.000 
#
# Total GULP energy -446426.274049 kJ/mol
# GULP energy per Si atom -12400.729835 kJ/mol
# Density = 1.908021 g / cm^3
# Si number density = 19.123738 Si / 1000 Ang^3
#
#
#
# Elastic Constant Matrix: (Units=GPa)
#
#
# Indices 1 2 3 4 5 6 
#
# 1 53.6806 30.1255 28.6730 0.0000 0.0000 0.0000
# 2 30.1255 87.0623 61.6529 0.0000 0.0000 0.0000
# 3 28.6730 61.6529 149.4941 0.0000 0.0000 0.0000
# 4 0.0000 0.0000 0.0000 5.3306 0.0000 0.0000
# 5 0.0000 0.0000 0.0000 0.0000 18.8929 0.0000
# 6 0.0000 0.0000 0.0000 0.0000 0.0000 23.8088
#
#
#
# Elastic Compliance Matrix: (Units=1/GPa)
#
#
# Indices 1 2 3 4 5 6 
#
# 1 0.023393 -0.006946 -0.001622 0.000000 0.000000 0.000000
# 2 -0.006946 0.018287 -0.006209 0.000000 0.000000 0.000000
# 3 -0.001622 -0.006209 0.009561 0.000000 0.000000 0.000000
# 4 0.000000 0.000000 0.000000 0.187595 0.000000 0.000000
# 5 0.000000 0.000000 0.000000 0.000000 0.052930 0.000000
# 6 0.000000 0.000000 0.000000 0.000000 0.000000 0.042001
#
#
# Mechanical properties :
#
#
# Convention : Reuss Voigt Hill
#
# Bulk Modulus (GPa) = 46.11246 59.01550 52.56398
# Shear Modulus (GPa) = 13.49345 20.92552 17.20948
#
# Velocity S-wave (km/s) = 2.65917 3.31148 3.00309
# Velocity P-wave (km/s) = 5.79597 6.74893 6.29052
#
# Compressibility (1/GPa) = 0.02168611
#
# Stress axis : x y z
#
# Youngs Moduli (GPa) = 42.74748 54.68504 104.58937
#
# Poissons Ratio (x) = 0.37983 0.16968
# Poissons Ratio (y) = 0.29691 0.64943
# Poissons Ratio (z) = 0.06935 0.33956
#
# Static dielectric constant tensor:
#      x y z
#    x 3.343580 0.000000 0.000000 
#    y 0.000000 3.865550 0.000000 
#    z 0.000000 0.000000 3.817630 
# 
# 
# High freq. dielectric constant tensor:
#      x y z
#    x 1.727240 0.000000 0.000000 
#    y 0.000000 1.731860 0.000000 
#    z 0.000000 0.000000 1.762810 
# 
# From -- ./inp_files/59223.got.cif
#   From: 2010.03.12/outbox.cif.g09.slc.cpg/sg65_30_cif.got.tgz:59223.got - 2010.04.10 20:52:16.
