data_PCOD8271262
_publ_section_title
;
Structure prediction by ZEFSAII (Michael W. Deem and Ramdas Pophale) SiO2 
 PCOD8271262
Probable space group: C M M M
;
_chemical_formula_sum "Si O2"
_cell_formula_units_Z 104
_cell_length_a 28.302046
_cell_length_b 9.765175
_cell_length_c 20.045676
_cell_angle_alpha 90.000000
_cell_angle_beta 90.000000
_cell_angle_gamma 90.000000
_cell_volume 5540.112320
_symmetry_space_group_name_H-M "C M M M"
_symmetry_group_IT_number 65
_symmetry_cell_setting 'orthorhombic'
loop_
_space_group_symop_operation_xyz
x,y,z
-x,-y,z
x,-y,-z
-x,y,-z
-x,-y,-z
x,y,-z
-x,y,z
x,-y,z
1/2+x,1/2+y,z
1/2-x,1/2-y,z
1/2+x,1/2-y,-z
1/2-x,1/2+y,-z
1/2-x,1/2-y,-z
1/2+x,1/2+y,-z
1/2-x,1/2+y,z
1/2+x,1/2-y,z
loop_
_atom_site_type_symbol
_atom_site_label
_atom_site_fract_x
_atom_site_fract_y
_atom_site_fract_z
Si Si1 0.791625 0.344198 0.114945
Si Si2 0.945230 0.845833 0.180010
Si Si3 0.797426 0.339358 0.500000
Si Si4 0.291866 0.843953 0.267936
Si Si5 0.394483 0.842765 0.925774
Si Si6 0.945817 0.159571 0.667147
Si Si7 0.634812 0.157405 0.378475
O O1 0.774495 0.500000 0.108040
O O2 0.750000 0.250000 0.086066
O O3 0.802900 0.306673 0.191637
O O4 0.838474 0.316333 0.072870
O O5 0.918545 0.748606 0.129493
O O6 0.937130 0.798062 0.255979
O O7 0.000000 0.839536 0.162007
O O8 0.926105 0.000000 0.170587
O O9 0.783631 0.500000 0.500000
O O10 0.750000 0.250000 0.500000
O O11 0.828717 0.300347 0.436028
O O12 0.250000 0.750000 0.296643
O O13 0.339727 0.816579 0.308037
O O14 0.275049 0.000000 0.276915
O O15 0.405129 0.000000 0.907165
O O16 0.413729 0.808181 0.000000
O O17 0.911932 0.248694 0.619472
O O18 0.000000 0.190162 0.647186
O O19 0.934353 0.000000 0.656675
O O20 0.618934 0.000000 0.387116
#
# Coordination Sequence:
#
# PCOD8271262 Si02
#       7
#    16  16   8  16  16  16  16
#     4   9  18  32  48  68  95 126 163 209 257 302
#     4   9  19  36  56  78 104 132 165 211 264 314
#     4  10  22  38  55  80 115 151 186 219 253 302
#     4   9  17  29  47  71  97 126 164 209 255 303
#     4  10  21  35  50  71 101 136 173 212 255 308
#     4   9  19  36  57  81 106 132 169 217 265 313
#     4  10  20  34  53  78 108 142 178 214 254 303
#
# _framework density 18.772182000000001
#
# number of rings (size 3 to 8) (size 9 to 14) (size 15 to 20)
#    0.000    2.615    0.000    2.308    0.000    5.231 
#    0.000    6.538    0.000    2.308    0.000    0.000 
#    0.000    0.000    0.000    0.000    0.000    0.000 
#
# Total GULP energy -644809.717482 kJ/mol
# GULP energy per Si atom -12400.186875 kJ/mol
# Density = 1.872946 g / cm^3
# Si number density = 18.772182 Si / 1000 Ang^3
#
#
#
# Elastic Constant Matrix: (Units=GPa)
#
#
# Indices 1 2 3 4 5 6 
#
# 1 101.1602 68.6148 42.6773 0.0000 0.0000 0.0000
# 2 68.6148 88.1107 41.7896 0.0000 0.0000 0.0000
# 3 42.6773 41.7896 61.7498 0.0000 0.0000 0.0000
# 4 0.0000 0.0000 0.0000 24.2358 0.0000 0.0000
# 5 0.0000 0.0000 0.0000 0.0000 21.6069 0.0000
# 6 0.0000 0.0000 0.0000 0.0000 0.0000 42.3763
#
#
#
# Elastic Compliance Matrix: (Units=1/GPa)
#
#
# Indices 1 2 3 4 5 6 
#
# 1 0.022086 -0.014667 -0.005338 0.000000 0.000000 0.000000
# 2 -0.014667 0.026455 -0.007766 0.000000 0.000000 0.000000
# 3 -0.005338 -0.007766 0.025140 0.000000 0.000000 0.000000
# 4 0.000000 0.000000 0.000000 0.041261 0.000000 0.000000
# 5 0.000000 0.000000 0.000000 0.000000 0.046282 0.000000
# 6 0.000000 0.000000 0.000000 0.000000 0.000000 0.023598
#
#
# Mechanical properties :
#
#
# Convention : Reuss Voigt Hill
#
# Bulk Modulus (GPa) = 55.13660 61.90936 58.52298
# Shear Modulus (GPa) = 20.29136 24.17303 22.23219
#
# Velocity S-wave (km/s) = 3.29131 3.59235 3.44512
# Velocity P-wave (km/s) = 6.62411 7.08926 6.86063
#
# Compressibility (1/GPa) = 0.01813677
#
# Stress axis : x y z
#
# Youngs Moduli (GPa) = 45.27800 37.80044 39.77767
#
# Poissons Ratio (x) = 0.55443 0.21234
# Poissons Ratio (y) = 0.66410 0.30893
# Poissons Ratio (z) = 0.24170 0.29358
#
# Static dielectric constant tensor:
#      x y z
#    x 3.328570 0.000000 0.000000 
#    y 0.000000 3.410640 0.000000 
#    z 0.000000 0.000000 3.380990 
# 
# 
# High freq. dielectric constant tensor:
#      x y z
#    x 1.723510 0.000000 0.000000 
#    y 0.000000 1.725820 0.000000 
#    z 0.000000 0.000000 1.723380 
# 
# From -- ./inp_files/60835.got.cif
#   From: 2010.03.12/outbox.cif.g09.slc.cpg/sg65_31_cif.got.tgz:60835.got - 2010.04.10 20:52:16.
