data_PCOD8271908
_publ_section_title
;
Structure prediction by ZEFSAII (Michael W. Deem and Ramdas Pophale) SiO2 
 PCOD8271908
Probable space group: C M M M
;
_chemical_formula_sum "Si O2"
_cell_formula_units_Z 112
_cell_length_a 18.075514
_cell_length_b 22.125956
_cell_length_c 14.448633
_cell_angle_alpha 90.000000
_cell_angle_beta 90.000000
_cell_angle_gamma 90.000000
_cell_volume 5778.557781
_symmetry_space_group_name_H-M "C M M M"
_symmetry_group_IT_number 65
_symmetry_cell_setting 'orthorhombic'
loop_
_space_group_symop_operation_xyz
x,y,z
-x,-y,z
x,-y,-z
-x,y,-z
-x,-y,-z
x,y,-z
-x,y,z
x,-y,z
1/2+x,1/2+y,z
1/2-x,1/2-y,z
1/2+x,1/2-y,-z
1/2-x,1/2+y,-z
1/2-x,1/2-y,-z
1/2+x,1/2+y,-z
1/2-x,1/2+y,z
1/2+x,1/2-y,z
loop_
_atom_site_type_symbol
_atom_site_label
_atom_site_fract_x
_atom_site_fract_y
_atom_site_fract_z
Si Si1 0.815853 0.070104 0.604498
Si Si2 0.349660 0.897542 0.395662
Si Si3 0.084946 0.841720 0.285405
Si Si4 0.152546 0.195433 0.894228
Si Si5 0.333199 0.242276 0.394975
Si Si6 0.584432 0.068444 0.786202
Si Si7 0.179159 0.666450 0.105496
O O1 0.828341 0.094214 0.500000
O O2 0.732591 0.084185 0.635048
O O3 0.871159 0.101925 0.674217
O O4 0.832728 0.000000 0.611229
O O5 0.366269 0.920540 0.500000
O O6 0.359652 0.826022 0.389352
O O7 0.406316 0.928674 0.325014
O O8 0.096436 0.837981 0.174744
O O9 0.111660 0.779863 0.331825
O O10 0.000000 0.852088 0.308309
O O11 0.147233 0.267058 0.874681
O O12 0.233732 0.168795 0.873896
O O13 0.129516 0.181846 0.000000
O O14 0.335870 0.266954 0.500000
O O15 0.250000 0.250000 0.355948
O O16 0.500000 0.084949 0.811992
O O17 0.640089 0.116327 0.831583
O O18 0.602370 0.000000 0.819573
O O19 0.164138 0.647852 0.000000
#
# Coordination Sequence:
#
# PCOD8271908 Si02
#       7
#    16  16  16  16  16  16  16
#     4  10  21  38  60  84 110 147 196 243 284 331
#     4  10  20  36  59  81 108 149 196 239 281 334
#     4  12  24  35  56  88 119 152 187 229 285 348
#     4   9  20  38  61  88 113 142 183 234 291 347
#     4  10  20  35  56  83 115 151 187 230 287 343
#     4  11  24  38  53  80 119 158 194 235 282 331
#     4   9  19  38  63  85 107 142 188 236 286 340
#
# _framework density 19.381999
#
# number of rings (size 3 to 8) (size 9 to 14) (size 15 to 20)
#    0.000    1.857    1.429    3.429    2.000    5.714 
#    0.000    5.000    0.000    1.286    0.000    1.000 
#    0.000    0.000    0.000    0.000    0.000    0.000 
#
# Total GULP energy -694476.430665 kJ/mol
# GULP energy per Si atom -12401.364833 kJ/mol
# Density = 1.933788 g / cm^3
# Si number density = 19.381999 Si / 1000 Ang^3
#
#
#
# Elastic Constant Matrix: (Units=GPa)
#
#
# Indices 1 2 3 4 5 6 
#
# 1 59.5548 29.5547 33.4881 0.0000 0.0000 0.0000
# 2 29.5547 84.3051 38.0469 0.0000 0.0000 0.0000
# 3 33.4881 38.0469 93.4468 0.0000 0.0000 0.0000
# 4 0.0000 0.0000 0.0000 22.6881 0.0000 0.0000
# 5 0.0000 0.0000 0.0000 0.0000 13.2372 0.0000
# 6 0.0000 0.0000 0.0000 0.0000 0.0000 21.8253
#
#
#
# Elastic Compliance Matrix: (Units=1/GPa)
#
#
# Indices 1 2 3 4 5 6 
#
# 1 0.022794 -0.005273 -0.006022 0.000000 0.000000 0.000000
# 2 -0.005273 0.015752 -0.004524 0.000000 0.000000 0.000000
# 3 -0.006022 -0.004524 0.014701 0.000000 0.000000 0.000000
# 4 0.000000 0.000000 0.000000 0.044076 0.000000 0.000000
# 5 0.000000 0.000000 0.000000 0.000000 0.075545 0.000000
# 6 0.000000 0.000000 0.000000 0.000000 0.000000 0.045818
#
#
# Mechanical properties :
#
#
# Convention : Reuss Voigt Hill
#
# Bulk Modulus (GPa) = 46.27502 48.83180 47.55341
# Shear Modulus (GPa) = 19.41547 20.63125 20.02336
#
# Velocity S-wave (km/s) = 3.16844 3.26614 3.21766
# Velocity P-wave (km/s) = 6.10839 6.28272 6.19617
#
# Compressibility (1/GPa) = 0.02160993
#
# Stress axis : x y z
#
# Youngs Moduli (GPa) = 43.87074 63.48463 68.02264
#
# Poissons Ratio (x) = 0.33478 0.40961
# Poissons Ratio (y) = 0.23135 0.30770
# Poissons Ratio (z) = 0.26417 0.28718
#
# Static dielectric constant tensor:
#      x y z
#    x 3.301340 0.000000 0.000000 
#    y 0.000000 3.415340 0.000000 
#    z 0.000000 0.000000 3.666360 
# 
# 
# High freq. dielectric constant tensor:
#      x y z
#    x 1.735240 0.000000 0.000000 
#    y 0.000000 1.751230 0.000000 
#    z 0.000000 0.000000 1.761250 
# 
# From -- ./inp_files/40762.got.cif
#   From: 2010.03.12/outbox.cif.g09.slc.cpg/sg65_21_cif.got.tgz:40762.got - 2010.04.10 20:52:16.
