data_PCOD8271131
_publ_section_title
;
Structure prediction by ZEFSAII (Michael W. Deem and Ramdas Pophale) SiO2 
 PCOD8271131
Probable space group: C M M M
;
_chemical_formula_sum "Si O2"
_cell_formula_units_Z 88
_cell_length_a 16.478460
_cell_length_b 30.597386
_cell_length_c 9.213137
_cell_angle_alpha 90.000000
_cell_angle_beta 90.000000
_cell_angle_gamma 90.000000
_cell_volume 4645.243419
_symmetry_space_group_name_H-M "C M M M"
_symmetry_group_IT_number 65
_symmetry_cell_setting 'orthorhombic'
loop_
_space_group_symop_operation_xyz
x,y,z
-x,-y,z
x,-y,-z
-x,y,-z
-x,-y,-z
x,y,-z
-x,y,z
x,-y,z
1/2+x,1/2+y,z
1/2-x,1/2-y,z
1/2+x,1/2-y,-z
1/2-x,1/2+y,-z
1/2-x,1/2-y,-z
1/2+x,1/2+y,-z
1/2-x,1/2+y,z
1/2+x,1/2-y,z
loop_
_atom_site_type_symbol
_atom_site_label
_atom_site_fract_x
_atom_site_fract_y
_atom_site_fract_z
Si Si1 0.000000 0.856582 0.828624
Si Si2 0.090614 0.000000 0.670864
Si Si3 0.500000 0.741297 0.172011
Si Si4 0.189214 0.630005 0.335776
Si Si5 0.827174 0.720216 0.827425
Si Si6 0.907735 0.452184 0.327703
Si Si7 0.133394 0.906497 0.662729
O O1 0.000000 0.807623 0.767398
O O2 0.079653 0.880111 0.774064
O O3 0.000000 0.856824 0.000000
O O4 0.138912 0.043432 0.720015
O O5 0.083735 0.000000 0.500000
O O6 0.000000 0.000000 0.739353
O O7 0.415340 0.762614 0.228287
O O8 0.500000 0.742738 0.000000
O O9 0.158970 0.640368 0.500000
O O10 0.180463 0.672091 0.236505
O O11 0.140765 0.589216 0.263950
O O12 0.281170 0.616064 0.338509
O O13 0.750000 0.750000 0.774959
O O14 0.825344 0.717198 0.000000
O O15 0.899401 0.451168 0.500000
O O16 0.875319 0.500000 0.273109
O O17 0.000000 0.446692 0.277603
O O18 0.095578 0.905470 0.500000
#
# Coordination Sequence:
#
# PCOD8271131 Si02
#       7
#     8   8   8  16  16  16  16
#     4  11  21  36  58  79 102 135 181 224 267 318
#     4   9  16  30  52  74 103 145 184 213 252 318
#     4   9  20  37  58  80 100 137 186 223 269 338
#     4  10  21  33  54  85 112 139 178 225 271 316
#     4  10  21  39  59  77 105 144 185 227 276 335
#     4   8  15  29  49  76 111 144 173 211 261 316
#     4  10  20  34  52  78 111 144 178 217 263 315
#
# _framework density 18.944109999999998
#
# number of rings (size 3 to 8) (size 9 to 14) (size 15 to 20)
#    0.000    2.455    0.909    1.909    2.545    2.545 
#    0.000    2.727    0.000    0.545    0.000    1.273 
#    0.000    0.000    0.000    0.000    0.000    0.000 
#
# Total GULP energy -545250.326859 kJ/mol
# GULP energy per Si atom -12392.052883 kJ/mol
# Density = 1.890099 g / cm^3
# Si number density = 18.944110 Si / 1000 Ang^3
#
#
#
# Elastic Constant Matrix: (Units=GPa)
#
#
# Indices 1 2 3 4 5 6 
#
# 1 105.7347 68.5793 20.9996 0.0000 0.0000 0.0000
# 2 68.5793 186.2594 35.3671 0.0000 0.0000 0.0000
# 3 20.9996 35.3671 28.6591 0.0000 0.0000 0.0000
# 4 0.0000 0.0000 0.0000 13.1181 0.0000 0.0000
# 5 0.0000 0.0000 0.0000 0.0000 17.8055 0.0000
# 6 0.0000 0.0000 0.0000 0.0000 0.0000 53.9684
#
#
#
# Elastic Compliance Matrix: (Units=1/GPa)
#
#
# Indices 1 2 3 4 5 6 
#
# 1 0.012889 -0.003856 -0.004686 0.000000 0.000000 0.000000
# 2 -0.003856 0.008165 -0.007251 0.000000 0.000000 0.000000
# 3 -0.004686 -0.007251 0.047275 0.000000 0.000000 0.000000
# 4 0.000000 0.000000 0.000000 0.076231 0.000000 0.000000
# 5 0.000000 0.000000 0.000000 0.000000 0.056162 0.000000
# 6 0.000000 0.000000 0.000000 0.000000 0.000000 0.018529
#
#
# Mechanical properties :
#
#
# Convention : Reuss Voigt Hill
#
# Bulk Modulus (GPa) = 27.21581 63.39391 45.30486
# Shear Modulus (GPa) = 19.00517 30.02553 24.51535
#
# Velocity S-wave (km/s) = 3.17081 3.98547 3.60125
# Velocity P-wave (km/s) = 5.27285 7.39695 6.42331
#
# Compressibility (1/GPa) = 0.03674335
#
# Stress axis : x y z
#
# Youngs Moduli (GPa) = 77.58399 122.46688 21.15283
#
# Poissons Ratio (x) = 0.47223 0.09912
# Poissons Ratio (y) = 0.29916 0.15339
# Poissons Ratio (z) = 0.36355 0.88804
#
# Static dielectric constant tensor:
#      x y z
#    x 3.643350 0.000000 0.000000 
#    y 0.000000 3.953530 0.000000 
#    z 0.000000 0.000000 3.097470 
# 
# 
# High freq. dielectric constant tensor:
#      x y z
#    x 1.744040 0.000000 0.000000 
#    y 0.000000 1.757380 0.000000 
#    z 0.000000 0.000000 1.684260 
# 
# From -- ./inp_files/10222.got.cif
#   From: 2010.03.12/outbox.cif.g09.slc.cpg/sg65_6_cif.got.tgz:10222.got - 2010.04.10 20:52:16.
