data_PCOD8271443
_publ_section_title
;
Structure prediction by ZEFSAII (Michael W. Deem and Ramdas Pophale) SiO2 
 PCOD8271443
Probable space group: C M M M
;
_chemical_formula_sum "Si O2"
_cell_formula_units_Z 96
_cell_length_a 28.790899
_cell_length_b 8.797128
_cell_length_c 20.506531
_cell_angle_alpha 90.000000
_cell_angle_beta 90.000000
_cell_angle_gamma 90.000000
_cell_volume 5193.837240
_symmetry_space_group_name_H-M "C M M M"
_symmetry_group_IT_number 65
_symmetry_cell_setting 'orthorhombic'
loop_
_space_group_symop_operation_xyz
x,y,z
-x,-y,z
x,-y,-z
-x,y,-z
-x,-y,-z
x,y,-z
-x,y,z
x,-y,z
1/2+x,1/2+y,z
1/2-x,1/2-y,z
1/2+x,1/2-y,-z
1/2-x,1/2+y,-z
1/2-x,1/2-y,-z
1/2+x,1/2+y,-z
1/2-x,1/2+y,z
1/2+x,1/2-y,z
loop_
_atom_site_type_symbol
_atom_site_label
_atom_site_fract_x
_atom_site_fract_y
_atom_site_fract_z
Si Si1 0.202094 0.675960 0.732578
Si Si2 0.391077 0.325872 0.925936
Si Si3 0.051986 0.180567 0.571912
Si Si4 0.109217 0.180324 0.693811
Si Si5 0.701775 0.176652 0.114762
Si Si6 0.554241 0.177521 0.812535
O O1 0.203353 0.500000 0.714881
O O2 0.250000 0.750000 0.709217
O O3 0.160981 0.755419 0.693375
O O4 0.193699 0.703796 0.808832
O O5 0.389841 0.500000 0.901960
O O6 0.339447 0.258472 0.923081
O O7 0.426720 0.231404 0.882102
O O8 0.408993 0.314018 0.000000
O O9 0.069191 0.233899 0.500000
O O10 0.085517 0.244870 0.627970
O O11 0.000000 0.242831 0.584632
O O12 0.051231 0.000000 0.574970
O O13 0.080175 0.234604 0.755596
O O14 0.111136 0.000000 0.695073
O O15 0.750000 0.250000 0.091549
O O16 0.702381 0.000000 0.096685
O O17 0.500000 0.214878 0.808644
O O18 0.564824 0.000000 0.804832
#
# Coordination Sequence:
#
# PCOD8271443 Si02
#       6
#    16  16  16  16  16  16
#     4  10  20  34  54  81 112 144 180 223 272 324
#     4  11  24  40  58  80 107 140 180 227 277 329
#     4   8  15  29  50  80 117 152 186 223 265 317
#     4  11  20  32  57  87 114 145 182 226 274 321
#     4  10  20  35  57  81 109 143 178 220 272 327
#     4  11  24  40  57  79 108 143 183 227 274 325
#
# _framework density 18.483443999999999
#
# number of rings (size 3 to 8) (size 9 to 14) (size 15 to 20)
#    0.000    1.833    1.667    3.500    0.000    5.333 
#    0.000    1.667    0.000    2.500    0.000    5.833 
#    0.000    0.000    0.000    0.000    0.000    0.000 
#
# Total GULP energy -595337.554522 kJ/mol
# GULP energy per Si atom -12402.865719 kJ/mol
# Density = 1.844138 g / cm^3
# Si number density = 18.483444 Si / 1000 Ang^3
#
#
#
# Elastic Constant Matrix: (Units=GPa)
#
#
# Indices 1 2 3 4 5 6 
#
# 1 124.4950 48.7442 59.8514 0.0000 0.0000 0.0000
# 2 48.7442 77.4863 31.4897 0.0000 0.0000 0.0000
# 3 59.8514 31.4897 102.3084 0.0000 0.0000 0.0000
# 4 0.0000 0.0000 0.0000 9.8449 0.0000 0.0000
# 5 0.0000 0.0000 0.0000 0.0000 31.9094 0.0000
# 6 0.0000 0.0000 0.0000 0.0000 0.0000 33.6606
#
#
#
# Elastic Compliance Matrix: (Units=1/GPa)
#
#
# Indices 1 2 3 4 5 6 
#
# 1 0.013172 -0.005891 -0.005892 0.000000 0.000000 0.000000
# 2 -0.005891 0.017386 -0.001905 0.000000 0.000000 0.000000
# 3 -0.005892 -0.001905 0.013808 0.000000 0.000000 0.000000
# 4 0.000000 0.000000 0.000000 0.101575 0.000000 0.000000
# 5 0.000000 0.000000 0.000000 0.000000 0.031339 0.000000
# 6 0.000000 0.000000 0.000000 0.000000 0.000000 0.029708
#
#
# Mechanical properties :
#
#
# Convention : Reuss Voigt Hill
#
# Bulk Modulus (GPa) = 58.86362 64.94004 61.90183
# Shear Modulus (GPa) = 20.83096 26.02993 23.43044
#
# Velocity S-wave (km/s) = 3.36073 3.75678 3.56426
# Velocity P-wave (km/s) = 6.85384 7.35040 7.10646
#
# Compressibility (1/GPa) = 0.01698842
#
# Stress axis : x y z
#
# Youngs Moduli (GPa) = 75.91895 57.51870 72.42337
#
# Poissons Ratio (x) = 0.33887 0.42675
# Poissons Ratio (y) = 0.44727 0.13794
# Poissons Ratio (z) = 0.44734 0.10955
#
# Static dielectric constant tensor:
#      x y z
#    x 3.485550 0.000000 0.000000 
#    y 0.000000 3.383820 0.000000 
#    z 0.000000 0.000000 3.440200 
# 
# 
# High freq. dielectric constant tensor:
#      x y z
#    x 1.723130 0.000000 0.000000 
#    y 0.000000 1.717370 0.000000 
#    z 0.000000 0.000000 1.704010 
# 
# From -- ./inp_files/60192.got.cif
#   From: 2010.03.12/outbox.cif.g09.slc.cpg/sg65_31_cif.got.tgz:60192.got - 2010.04.10 20:52:16.
