data_PCOD8271438
_publ_section_title
;
Structure prediction by ZEFSAII (Michael W. Deem and Ramdas Pophale) SiO2 
 PCOD8271438
Probable space group: C M M M
;
_chemical_formula_sum "Si O2"
_cell_formula_units_Z 96
_cell_length_a 8.846538
_cell_length_b 18.701548
_cell_length_c 30.704646
_cell_angle_alpha 90.000000
_cell_angle_beta 90.000000
_cell_angle_gamma 90.000000
_cell_volume 5079.898072
_symmetry_space_group_name_H-M "C M M M"
_symmetry_group_IT_number 65
_symmetry_cell_setting 'orthorhombic'
loop_
_space_group_symop_operation_xyz
x,y,z
-x,-y,z
x,-y,-z
-x,y,-z
-x,-y,-z
x,y,-z
-x,y,z
x,-y,z
1/2+x,1/2+y,z
1/2-x,1/2-y,z
1/2+x,1/2-y,-z
1/2-x,1/2+y,-z
1/2-x,1/2-y,-z
1/2+x,1/2+y,-z
1/2-x,1/2+y,z
1/2+x,1/2-y,z
loop_
_atom_site_type_symbol
_atom_site_label
_atom_site_fract_x
_atom_site_fract_y
_atom_site_fract_z
Si Si1 0.171637 0.415202 0.120927
Si Si2 0.820839 0.827400 0.627983
Si Si3 0.174897 0.584210 0.703871
Si Si4 0.320428 0.579971 0.548325
Si Si5 0.170154 0.915046 0.792169
Si Si6 0.177531 0.176046 0.049930
O O1 0.178873 0.500000 0.120079
O O2 0.252398 0.384593 0.164195
O O3 0.257220 0.388175 0.078298
O O4 0.000000 0.387569 0.120829
O O5 0.750000 0.750000 0.632521
O O6 0.773759 0.876093 0.668187
O O7 0.757399 0.864394 0.583845
O O8 0.000000 0.820386 0.627176
O O9 0.200688 0.500000 0.697999
O O10 0.232407 0.610625 0.750915
O O11 0.000000 0.605142 0.699032
O O12 0.265882 0.603691 0.500000
O O13 0.500000 0.578599 0.550130
O O14 0.259402 0.500000 0.558673
O O15 0.000000 0.884642 0.788607
O O16 0.167707 0.000000 0.794008
O O17 0.250000 0.250000 0.065959
O O18 0.000000 0.181026 0.056535
O O19 0.221561 0.160330 0.000000
#
# Coordination Sequence:
#
# PCOD8271438 Si02
#       6
#    16  16  16  16  16  16
#     4  10  20  34  54  81 112 143 176 217 265 315
#     4  11  22  35  52  76 108 144 180 218 264 315
#     4  10  20  35  56  80 106 137 175 218 263 313
#     4   8  15  30  53  79 104 133 174 221 264 310
#     4   9  17  31  53  80 108 138 174 215 260 312
#     4  10  21  37  56  77 104 140 181 223 267 317
#
# _framework density 18.898015999999998
#
# number of rings (size 3 to 8) (size 9 to 14) (size 15 to 20)
#    0.000    2.333    0.000    3.500    0.000    6.333 
#    0.000    2.500    0.000    1.500    0.000    5.833 
#    0.000    0.000    0.000    0.000    0.000    0.000 
#
# Total GULP energy -595244.795463 kJ/mol
# GULP energy per Si atom -12400.933239 kJ/mol
# Density = 1.885500 g / cm^3
# Si number density = 18.898016 Si / 1000 Ang^3
#
#
#
# Elastic Constant Matrix: (Units=GPa)
#
#
# Indices 1 2 3 4 5 6 
#
# 1 88.9779 30.4960 45.9036 0.0000 0.0000 0.0000
# 2 30.4960 47.1216 44.1100 0.0000 0.0000 0.0000
# 3 45.9036 44.1100 133.1048 0.0000 0.0000 0.0000
# 4 0.0000 0.0000 0.0000 5.3229 0.0000 0.0000
# 5 0.0000 0.0000 0.0000 0.0000 22.8767 0.0000
# 6 0.0000 0.0000 0.0000 0.0000 0.0000 23.4152
#
#
#
# Elastic Compliance Matrix: (Units=1/GPa)
#
#
# Indices 1 2 3 4 5 6 
#
# 1 0.015161 -0.007129 -0.002866 0.000000 0.000000 0.000000
# 2 -0.007129 0.034118 -0.008848 0.000000 0.000000 0.000000
# 3 -0.002866 -0.008848 0.011433 0.000000 0.000000 0.000000
# 4 0.000000 0.000000 0.000000 0.187867 0.000000 0.000000
# 5 0.000000 0.000000 0.000000 0.000000 0.043713 0.000000
# 6 0.000000 0.000000 0.000000 0.000000 0.000000 0.042707
#
#
# Mechanical properties :
#
#
# Convention : Reuss Voigt Hill
#
# Bulk Modulus (GPa) = 43.42844 56.69151 50.05997
# Shear Modulus (GPa) = 13.14546 20.23594 16.69070
#
# Velocity S-wave (km/s) = 2.64028 3.27585 2.97509
# Velocity P-wave (km/s) = 5.68552 6.66124 6.19262
#
# Compressibility (1/GPa) = 0.02302639
#
# Stress axis : x y z
#
# Youngs Moduli (GPa) = 65.96048 29.31036 87.46313
#
# Poissons Ratio (x) = 0.20895 0.25067
# Poissons Ratio (y) = 0.47022 0.77386
# Poissons Ratio (z) = 0.18904 0.25933
#
# Static dielectric constant tensor:
#      x y z
#    x 3.477500 0.000000 0.000000 
#    y 0.000000 3.241400 0.000000 
#    z 0.000000 0.000000 3.719580 
# 
# 
# High freq. dielectric constant tensor:
#      x y z
#    x 1.733880 0.000000 0.000000 
#    y 0.000000 1.708170 0.000000 
#    z 0.000000 0.000000 1.749430 
# 
# From -- ./inp_files/73140.got.cif
#   From: 2010.03.12/outbox.cif.g09.slc.cpg/sg65_37_cif.got.tgz:73140.got - 2010.04.10 20:52:16.
