data_PCOD8271923
_publ_section_title
;
Structure prediction by ZEFSAII (Michael W. Deem and Ramdas Pophale) SiO2 
 PCOD8271923
Probable space group: C M M M
;
_chemical_formula_sum "Si O2"
_cell_formula_units_Z 88
_cell_length_a 14.908878
_cell_length_b 21.420717
_cell_length_c 13.241757
_cell_angle_alpha 90.000000
_cell_angle_beta 90.000000
_cell_angle_gamma 90.000000
_cell_volume 4228.872373
_symmetry_space_group_name_H-M "C M M M"
_symmetry_group_IT_number 65
_symmetry_cell_setting 'orthorhombic'
loop_
_space_group_symop_operation_xyz
x,y,z
-x,-y,z
x,-y,-z
-x,y,-z
-x,-y,-z
x,y,-z
-x,y,z
x,-y,z
1/2+x,1/2+y,z
1/2-x,1/2-y,z
1/2+x,1/2-y,-z
1/2-x,1/2+y,-z
1/2-x,1/2-y,-z
1/2+x,1/2+y,-z
1/2-x,1/2+y,z
1/2+x,1/2-y,z
loop_
_atom_site_type_symbol
_atom_site_label
_atom_site_fract_x
_atom_site_fract_y
_atom_site_fract_z
Si Si1 0.395278 0.171837 0.385962
Si Si2 0.099622 0.096395 0.382231
Si Si3 0.204499 0.875103 0.882174
Si Si4 0.899028 0.214753 0.253369
Si Si5 0.284168 0.930896 0.707619
Si Si6 0.404194 0.500000 0.117018
O O1 0.377814 0.196150 0.500000
O O2 0.500000 0.159186 0.368709
O O3 0.359955 0.221536 0.302103
O O4 0.342190 0.107009 0.373347
O O5 0.118138 0.093788 0.500000
O O6 0.102821 0.167719 0.346912
O O7 0.180458 0.060242 0.327643
O O8 0.000000 0.068185 0.357798
O O9 0.158351 0.811286 0.841857
O O10 0.291305 0.891846 0.813946
O O11 0.144091 0.935476 0.856096
O O12 0.228624 0.867568 0.000000
O O13 0.000000 0.224836 0.212896
O O14 0.325161 0.000000 0.721463
O O15 0.500000 0.500000 0.173459
O O16 0.420294 0.500000 0.000000
#
# Coordination Sequence:
#
# PCOD8271923 Si02
#       6
#    16  16  16  16  16   8
#     4  10  22  41  64  86 110 146 196 256 315 361
#     4   9  18  32  51  78 114 153 186 222 279 356
#     4  10  20  35  56  84 118 158 193 229 283 342
#     4   9  18  34  56  84 115 147 190 242 292 346
#     4  11  23  38  56  84 116 153 198 247 297 349
#     4   9  16  28  50  80 112 151 194 226 262 323
#
# _framework density 20.809329000000002
#
# number of rings (size 3 to 8) (size 9 to 14) (size 15 to 20)
#    0.000    2.273    0.909    1.636    0.000    9.091 
#    0.000    8.182    0.000    1.636    0.000    1.273 
#    0.000    0.000    0.000    0.000    0.000    0.000 
#
# Total GULP energy -545078.705380 kJ/mol
# GULP energy per Si atom -12388.152395 kJ/mol
# Density = 2.076197 g / cm^3
# Si number density = 20.809329 Si / 1000 Ang^3
#
#
#
# Elastic Constant Matrix: (Units=GPa)
#
#
# Indices 1 2 3 4 5 6 
#
# 1 37.6067 28.9370 21.2361 0.0000 0.0000 0.0000
# 2 28.9370 106.3266 37.1830 0.0000 0.0000 0.0000
# 3 21.2361 37.1830 128.6336 0.0000 0.0000 0.0000
# 4 0.0000 0.0000 0.0000 26.4441 0.0000 0.0000
# 5 0.0000 0.0000 0.0000 0.0000 20.0575 0.0000
# 6 0.0000 0.0000 0.0000 0.0000 0.0000 14.4233
#
#
#
# Elastic Compliance Matrix: (Units=1/GPa)
#
#
# Indices 1 2 3 4 5 6 
#
# 1 0.034889 -0.008322 -0.003354 0.000000 0.000000 0.000000
# 2 -0.008322 0.012448 -0.002224 0.000000 0.000000 0.000000
# 3 -0.003354 -0.002224 0.008971 0.000000 0.000000 0.000000
# 4 0.000000 0.000000 0.000000 0.037816 0.000000 0.000000
# 5 0.000000 0.000000 0.000000 0.000000 0.049857 0.000000
# 6 0.000000 0.000000 0.000000 0.000000 0.000000 0.069332
#
#
# Mechanical properties :
#
#
# Convention : Reuss Voigt Hill
#
# Bulk Modulus (GPa) = 35.08027 49.69768 42.38898
# Shear Modulus (GPa) = 19.95097 24.53237 22.24167
#
# Velocity S-wave (km/s) = 3.09973 3.43725 3.27285
# Velocity P-wave (km/s) = 5.45029 6.29978 5.89037
#
# Compressibility (1/GPa) = 0.02850605
#
# Stress axis : x y z
#
# Youngs Moduli (GPa) = 28.66262 80.33626 111.47389
#
# Poissons Ratio (x) = 0.66856 0.37391
# Poissons Ratio (y) = 0.23853 0.24795
# Poissons Ratio (z) = 0.09614 0.17869
#
# Static dielectric constant tensor:
#      x y z
#    x 3.821100 0.000000 0.000000 
#    y 0.000000 3.524280 0.000000 
#    z 0.000000 0.000000 3.779940 
# 
# 
# High freq. dielectric constant tensor:
#      x y z
#    x 1.783030 0.000000 0.000000 
#    y 0.000000 1.809680 0.000000 
#    z 0.000000 0.000000 1.818430 
# 
# From -- ./inp_files/40157.got.cif
#   From: 2010.03.12/outbox.cif.g09.slc.cpg/sg65_21_cif.got.tgz:40157.got - 2010.04.10 20:52:16.
