data_PCOD8271356
_publ_section_title
;
Structure prediction by ZEFSAII (Michael W. Deem and Ramdas Pophale) SiO2 
 PCOD8271356
Probable space group: C M M M
;
_chemical_formula_sum "Si O2"
_cell_formula_units_Z 104
_cell_length_a 21.634229
_cell_length_b 27.096131
_cell_length_c 9.434099
_cell_angle_alpha 90.000000
_cell_angle_beta 90.000000
_cell_angle_gamma 90.000000
_cell_volume 5530.305656
_symmetry_space_group_name_H-M "C M M M"
_symmetry_group_IT_number 65
_symmetry_cell_setting 'orthorhombic'
loop_
_space_group_symop_operation_xyz
x,y,z
-x,-y,z
x,-y,-z
-x,y,-z
-x,-y,-z
x,y,-z
-x,y,z
x,-y,z
1/2+x,1/2+y,z
1/2-x,1/2-y,z
1/2+x,1/2-y,-z
1/2-x,1/2+y,-z
1/2-x,1/2-y,-z
1/2+x,1/2+y,-z
1/2-x,1/2+y,z
1/2+x,1/2-y,z
loop_
_atom_site_type_symbol
_atom_site_label
_atom_site_fract_x
_atom_site_fract_y
_atom_site_fract_z
Si Si1 0.071424 0.775279 0.166581
Si Si2 0.427685 0.372568 0.340926
Si Si3 0.500000 0.940915 0.343559
Si Si4 0.772113 0.610364 0.167341
Si Si5 0.850167 0.942499 0.833051
Si Si6 0.306830 0.782845 0.831886
Si Si7 0.391073 0.057855 0.156443
O O1 0.090380 0.824155 0.251690
O O2 0.123835 0.735194 0.212808
O O3 0.000000 0.758281 0.201626
O O4 0.077089 0.787179 0.000000
O O5 0.399001 0.369685 0.500000
O O6 0.500000 0.376922 0.353710
O O7 0.406908 0.421635 0.257289
O O8 0.500000 0.918524 0.500000
O O9 0.559382 0.919341 0.263329
O O10 0.500000 0.000000 0.347298
O O11 0.707649 0.589598 0.225185
O O12 0.793077 0.662897 0.231699
O O13 0.823338 0.570507 0.212628
O O14 0.766097 0.614387 0.000000
O O15 0.839731 0.000000 0.799101
O O16 0.862071 0.934828 0.000000
O O17 0.250000 0.750000 0.772777
O O18 0.304073 0.783915 0.000000
O O19 0.399430 0.000000 0.147709
O O20 0.402060 0.081079 0.000000
#
# Coordination Sequence:
#
# PCOD8271356 Si02
#       7
#    16  16   8  16  16  16  16
#     4   9  17  31  52  77 102 130 170 218 260 304
#     4  10  21  36  54  76 103 137 173 209 256 313
#     4   9  17  29  45  65  91 125 163 201 241 285
#     4   9  17  30  49  76 104 131 165 208 256 302
#     4  10  20  34  54  79 106 137 173 213 255 302
#     4   9  16  27  47  75 103 130 163 206 257 306
#     4   9  16  28  47  70  96 127 164 203 244 292
#
# _framework density 18.805471000000001
#
# number of rings (size 3 to 8) (size 9 to 14) (size 15 to 20)
#    0.000    2.692    0.000    2.077    0.000    6.769 
#    1.385    2.308    0.000    6.923    0.000    0.000 
#    0.000    0.000    0.000    0.000    0.000    0.000 
#
# Total GULP energy -644403.323170 kJ/mol
# GULP energy per Si atom -12392.371599 kJ/mol
# Density = 1.876267 g / cm^3
# Si number density = 18.805471 Si / 1000 Ang^3
#
#
#
# Elastic Constant Matrix: (Units=GPa)
#
#
# Indices 1 2 3 4 5 6 
#
# 1 62.0231 32.4624 21.5766 0.0000 0.0000 0.0000
# 2 32.4624 87.4720 30.4043 0.0000 0.0000 0.0000
# 3 21.5766 30.4043 61.0527 0.0000 0.0000 0.0000
# 4 0.0000 0.0000 0.0000 9.5205 0.0000 0.0000
# 5 0.0000 0.0000 0.0000 0.0000 6.8389 0.0000
# 6 0.0000 0.0000 0.0000 0.0000 0.0000 35.1219
#
#
#
# Elastic Compliance Matrix: (Units=1/GPa)
#
#
# Indices 1 2 3 4 5 6 
#
# 1 0.020887 -0.006271 -0.004259 0.000000 0.000000 0.000000
# 2 -0.006271 0.015708 -0.005606 0.000000 0.000000 0.000000
# 3 -0.004259 -0.005606 0.020676 0.000000 0.000000 0.000000
# 4 0.000000 0.000000 0.000000 0.105036 0.000000 0.000000
# 5 0.000000 0.000000 0.000000 0.000000 0.146222 0.000000
# 6 0.000000 0.000000 0.000000 0.000000 0.000000 0.028472
#
#
# Mechanical properties :
#
#
# Convention : Reuss Voigt Hill
#
# Bulk Modulus (GPa) = 40.00155 42.15939 41.08047
# Shear Modulus (GPa) = 13.24124 18.70321 15.97223
#
# Velocity S-wave (km/s) = 2.65640 3.15709 2.91750
# Velocity P-wave (km/s) = 5.54310 5.97971 5.76554
#
# Compressibility (1/GPa) = 0.02499903
#
# Stress axis : x y z
#
# Youngs Moduli (GPa) = 47.87711 63.66040 48.36448
#
# Poissons Ratio (x) = 0.39923 0.20596
# Poissons Ratio (y) = 0.30025 0.27115
# Poissons Ratio (z) = 0.20389 0.35691
#
# Static dielectric constant tensor:
#      x y z
#    x 3.668650 0.000000 0.000000 
#    y 0.000000 3.393770 0.000000 
#    z 0.000000 0.000000 3.305330 
# 
# 
# High freq. dielectric constant tensor:
#      x y z
#    x 1.742780 0.000000 0.000000 
#    y 0.000000 1.716400 0.000000 
#    z 0.000000 0.000000 1.690070 
# 
# From -- ./inp_files/14781.got.cif
#   From: 2010.03.12/outbox.cif.g09.slc.cpg/sg65_8_cif.got.tgz:14781.got - 2010.04.10 20:52:16.
