data_PCOD8271635
_publ_section_title
;
Structure prediction by ZEFSAII (Michael W. Deem and Ramdas Pophale) SiO2 
 PCOD8271635
Probable space group: C M M M
;
_chemical_formula_sum "Si O2"
_cell_formula_units_Z 64
_cell_length_a 8.952384
_cell_length_b 24.092483
_cell_length_c 15.584493
_cell_angle_alpha 90.000000
_cell_angle_beta 90.000000
_cell_angle_gamma 90.000000
_cell_volume 3361.343856
_symmetry_space_group_name_H-M "C M M M"
_symmetry_group_IT_number 65
_symmetry_cell_setting 'orthorhombic'
loop_
_space_group_symop_operation_xyz
x,y,z
-x,-y,z
x,-y,-z
-x,y,-z
-x,-y,-z
x,y,-z
-x,y,z
x,-y,z
1/2+x,1/2+y,z
1/2-x,1/2-y,z
1/2+x,1/2-y,-z
1/2-x,1/2+y,-z
1/2-x,1/2-y,-z
1/2+x,1/2+y,-z
1/2-x,1/2+y,z
1/2+x,1/2-y,z
loop_
_atom_site_type_symbol
_atom_site_label
_atom_site_fract_x
_atom_site_fract_y
_atom_site_fract_z
Si Si1 0.677649 0.000000 0.097446
Si Si2 0.824760 0.383347 0.844175
Si Si3 0.676509 0.500000 0.598369
Si Si4 0.176223 0.690333 0.500000
Si Si5 0.674999 0.888072 0.346665
Si Si6 0.321927 0.809527 0.000000
O O1 0.743458 0.945039 0.143061
O O2 0.500000 0.000000 0.103339
O O3 0.732369 0.000000 0.000000
O O4 0.788504 0.363038 0.747555
O O5 0.760591 0.341066 0.915067
O O6 0.000000 0.387113 0.860270
O O7 0.500000 0.500000 0.606922
O O8 0.729238 0.500000 0.500000
O O9 0.739973 0.445732 0.643920
O O10 0.250000 0.750000 0.500000
O O11 0.230597 0.656616 0.583728
O O12 0.000000 0.698565 0.500000
O O13 0.500000 0.900363 0.358108
O O14 0.250000 0.750000 0.000000
O O15 0.500000 0.804286 0.000000
#
# Coordination Sequence:
#
# PCOD8271635 Si02
#       6
#     8  16   8   8  16   8
#     4   9  13  22  44  75 103 126 156 204 258 298
#     4   9  17  30  52  79 106 134 172 219 263 309
#     4  11  22  35  55  84 115 144 171 213 275 333
#     4  10  22  37  54  75 103 138 182 226 267 312
#     4  10  20  36  57  81 107 142 183 222 264 319
#     4  10  20  35  53  77 107 140 181 224 264 312
#
# _framework density 19.040002999999999
#
# number of rings (size 3 to 8) (size 9 to 14) (size 15 to 20)
#    0.000    2.250    2.500    1.125    0.000    4.500 
#    0.000    1.250    0.000    0.000    0.000    1.750 
#    0.000    0.000    0.000    0.000    0.000    0.000 
#
# Total GULP energy -396737.030321 kJ/mol
# GULP energy per Si atom -12398.032198 kJ/mol
# Density = 1.899667 g / cm^3
# Si number density = 19.040003 Si / 1000 Ang^3
#
#
#
# Elastic Constant Matrix: (Units=GPa)
#
#
# Indices 1 2 3 4 5 6 
#
# 1 25.2421 27.0291 26.1638 0.0000 0.0000 0.0000
# 2 27.0291 170.0771 89.7879 0.0000 0.0000 0.0000
# 3 26.1638 89.7879 176.0726 0.0000 0.0000 0.0000
# 4 0.0000 0.0000 0.0000 17.5098 0.0000 0.0000
# 5 0.0000 0.0000 0.0000 0.0000 11.5038 0.0000
# 6 0.0000 0.0000 0.0000 0.0000 0.0000 32.1851
#
#
#
# Elastic Compliance Matrix: (Units=1/GPa)
#
#
# Indices 1 2 3 4 5 6 
#
# 1 0.050385 -0.005548 -0.004658 0.000000 0.000000 0.000000
# 2 -0.005548 0.008657 -0.003590 0.000000 0.000000 0.000000
# 3 -0.004658 -0.003590 0.008202 0.000000 0.000000 0.000000
# 4 0.000000 0.000000 0.000000 0.057111 0.000000 0.000000
# 5 0.000000 0.000000 0.000000 0.000000 0.086928 0.000000
# 6 0.000000 0.000000 0.000000 0.000000 0.000000 0.031070
#
#
# Mechanical properties :
#
#
# Convention : Reuss Voigt Hill
#
# Bulk Modulus (GPa) = 25.21938 73.03926 49.12932
# Shear Modulus (GPa) = 17.65768 27.46715 22.56241
#
# Velocity S-wave (km/s) = 3.04863 3.80228 3.44612
# Velocity P-wave (km/s) = 5.06620 7.59741 6.45705
#
# Compressibility (1/GPa) = 0.03965205
#
# Stress axis : x y z
#
# Youngs Moduli (GPa) = 19.84709 115.51739 121.91718
#
# Poissons Ratio (x) = 0.64094 0.56785
# Poissons Ratio (y) = 0.11012 0.43768
# Poissons Ratio (z) = 0.09244 0.41471
#
# Static dielectric constant tensor:
#      x y z
#    x 2.988150 0.000000 0.000000 
#    y 0.000000 3.518180 0.000000 
#    z 0.000000 0.000000 3.819460 
# 
# 
# High freq. dielectric constant tensor:
#      x y z
#    x 1.687730 0.000000 0.000000 
#    y 0.000000 1.739860 0.000000 
#    z 0.000000 0.000000 1.760930 
# 
# From -- ./inp_files/36123.got.cif
#   From: 2010.03.12/outbox.cif.g09.slc.cpg/sg65_19_cif.got.tgz:36123.got - 2010.04.10 20:52:16.
