data_PCOD8271951
_publ_section_title
;
Structure prediction by ZEFSAII (Michael W. Deem and Ramdas Pophale) SiO2 
 PCOD8271951
Probable space group: C M M M
;
_chemical_formula_sum "Si O2"
_cell_formula_units_Z 64
_cell_length_a 9.040529
_cell_length_b 29.979875
_cell_length_c 12.531958
_cell_angle_alpha 90.000000
_cell_angle_beta 90.000000
_cell_angle_gamma 90.000000
_cell_volume 3396.585819
_symmetry_space_group_name_H-M "C M M M"
_symmetry_group_IT_number 65
_symmetry_cell_setting 'orthorhombic'
loop_
_space_group_symop_operation_xyz
x,y,z
-x,-y,z
x,-y,-z
-x,y,-z
-x,-y,-z
x,y,-z
-x,y,z
x,-y,z
1/2+x,1/2+y,z
1/2-x,1/2-y,z
1/2+x,1/2-y,-z
1/2-x,1/2+y,-z
1/2-x,1/2-y,-z
1/2+x,1/2+y,-z
1/2-x,1/2+y,z
1/2+x,1/2-y,z
loop_
_atom_site_type_symbol
_atom_site_label
_atom_site_fract_x
_atom_site_fract_y
_atom_site_fract_z
Si Si1 0.330620 0.586199 0.117957
Si Si2 0.662108 0.209216 0.620965
Si Si3 0.172868 0.880854 0.659306
Si Si4 0.676177 0.946896 0.500000
Si Si5 0.838814 0.500000 0.874068
O O1 0.500000 0.572249 0.107462
O O2 0.306316 0.621842 0.211694
O O3 0.246144 0.543505 0.162969
O O4 0.273791 0.602616 0.000000
O O5 0.634181 0.223733 0.500000
O O6 0.500000 0.202337 0.675796
O O7 0.750000 0.250000 0.678886
O O8 0.757072 0.164469 0.618708
O O9 0.254031 0.923207 0.604826
O O10 0.000000 0.883072 0.628685
O O11 0.500000 0.939288 0.500000
O O12 0.713821 0.000000 0.500000
O O13 0.000000 0.500000 0.819344
O O14 0.852709 0.500000 0.000000
#
# Coordination Sequence:
#
# PCOD8271951 Si02
#       5
#    16  16  16   8   8
#     4   9  19  35  53  75 105 142 182 224 271 320
#     4  10  20  35  57  83 112 142 175 222 275 325
#     4  11  22  36  58  83 110 145 185 227 270 326
#     4  11  25  41  54  75 112 155 189 225 273 325
#     4   9  17  29  47  72  99 132 179 229 269 307
#
# _framework density 18.842449999999999
#
# number of rings (size 3 to 8) (size 9 to 14) (size 15 to 20)
#    0.000    2.000    1.250    2.250    1.750    5.500 
#    0.000    0.000    0.000    0.750    0.000    0.000 
#    0.000    0.000    0.000    0.000    0.000    0.000 
#
# Total GULP energy -396474.220349 kJ/mol
# GULP energy per Si atom -12389.819386 kJ/mol
# Density = 1.879956 g / cm^3
# Si number density = 18.842450 Si / 1000 Ang^3
#
#
#
# Elastic Constant Matrix: (Units=GPa)
#
#
# Indices 1 2 3 4 5 6 
#
# 1 118.1846 54.7470 32.2389 0.0000 0.0000 0.0000
# 2 54.7470 114.5896 24.1733 0.0000 0.0000 0.0000
# 3 32.2389 24.1733 88.6688 0.0000 0.0000 0.0000
# 4 0.0000 0.0000 0.0000 10.8634 0.0000 0.0000
# 5 0.0000 0.0000 0.0000 0.0000 14.3474 0.0000
# 6 0.0000 0.0000 0.0000 0.0000 0.0000 74.3248
#
#
#
# Elastic Compliance Matrix: (Units=1/GPa)
#
#
# Indices 1 2 3 4 5 6 
#
# 1 0.011507 -0.004897 -0.002849 0.000000 0.000000 0.000000
# 2 -0.004897 0.011343 -0.001312 0.000000 0.000000 0.000000
# 3 -0.002849 -0.001312 0.012671 0.000000 0.000000 0.000000
# 4 0.000000 0.000000 0.000000 0.092052 0.000000 0.000000
# 5 0.000000 0.000000 0.000000 0.000000 0.069699 0.000000
# 6 0.000000 0.000000 0.000000 0.000000 0.000000 0.013454
#
#
# Mechanical properties :
#
#
# Convention : Reuss Voigt Hill
#
# Bulk Modulus (GPa) = 57.45034 60.41792 58.93413
# Shear Modulus (GPa) = 21.30892 33.92604 27.61748
#
# Velocity S-wave (km/s) = 3.36653 4.24785 3.83261
# Velocity P-wave (km/s) = 6.75777 7.49622 7.13655
#
# Compressibility (1/GPa) = 0.01740634
#
# Stress axis : x y z
#
# Youngs Moduli (GPa) = 86.90610 88.16026 78.91792
#
# Poissons Ratio (x) = 0.43168 0.22482
# Poissons Ratio (y) = 0.42554 0.10354
# Poissons Ratio (z) = 0.24758 0.11567
#
# Static dielectric constant tensor:
#      x y z
#    x 3.880430 0.000000 0.000000 
#    y 0.000000 3.243860 0.000000 
#    z 0.000000 0.000000 3.424810 
# 
# 
# High freq. dielectric constant tensor:
#      x y z
#    x 1.750580 0.000000 0.000000 
#    y 0.000000 1.712080 0.000000 
#    z 0.000000 0.000000 1.711450 
# 
# From -- ./inp_files/36879.got.cif
#   From: 2010.03.12/outbox.cif.g09.slc.cpg/sg65_19_cif.got.tgz:36879.got - 2010.04.10 20:52:16.
