data_PCOD8271381
_publ_section_title
;
Structure prediction by ZEFSAII (Michael W. Deem and Ramdas Pophale) SiO2 
 PCOD8271381
Probable space group: C M M M
;
_chemical_formula_sum "Si O2"
_cell_formula_units_Z 80
_cell_length_a 9.003166
_cell_length_b 19.365049
_cell_length_c 25.264681
_cell_angle_alpha 90.000000
_cell_angle_beta 90.000000
_cell_angle_gamma 90.000000
_cell_volume 4404.815041
_symmetry_space_group_name_H-M "C M M M"
_symmetry_group_IT_number 65
_symmetry_cell_setting 'orthorhombic'
loop_
_space_group_symop_operation_xyz
x,y,z
-x,-y,z
x,-y,-z
-x,y,-z
-x,-y,-z
x,y,-z
-x,y,z
x,-y,z
1/2+x,1/2+y,z
1/2-x,1/2-y,z
1/2+x,1/2-y,-z
1/2-x,1/2+y,-z
1/2-x,1/2-y,-z
1/2+x,1/2+y,-z
1/2-x,1/2+y,z
1/2+x,1/2-y,z
loop_
_atom_site_type_symbol
_atom_site_label
_atom_site_fract_x
_atom_site_fract_y
_atom_site_fract_z
Si Si1 0.325339 0.679284 0.814158
Si Si2 0.171880 0.581554 0.894323
Si Si3 0.170222 0.417918 0.614257
Si Si4 0.824346 0.575453 0.500000
Si Si5 0.167914 0.917930 0.000000
Si Si6 0.827332 0.819591 0.308089
O O1 0.500000 0.683527 0.825035
O O2 0.250000 0.750000 0.833873
O O3 0.255333 0.615470 0.845176
O O4 0.288005 0.666086 0.752876
O O5 0.191875 0.500000 0.888458
O O6 0.000000 0.602987 0.894634
O O7 0.245897 0.609239 0.948384
O O8 0.191967 0.500000 0.615746
O O9 0.219543 0.388121 0.555794
O O10 0.272928 0.384707 0.658558
O O11 0.000000 0.398229 0.626243
O O12 0.749208 0.500000 0.500000
O O13 0.000000 0.565663 0.500000
O O14 0.000000 0.888729 0.000000
O O15 0.166818 0.000000 0.000000
O O16 0.750000 0.750000 0.328573
O O17 0.000000 0.809530 0.316874
#
# Coordination Sequence:
#
# PCOD8271381 Si02
#       6
#    16  16  16   8   8  16
#     4  10  21  37  55  74 100 135 172 211 257 306
#     4  10  20  34  54  80 108 137 171 210 250 297
#     4   9  17  31  53  78 103 132 167 207 251 301
#     4   7  12  26  48  73 100 131 165 201 246 299
#     4   9  17  31  52  77 106 139 172 207 251 299
#     4  10  21  36  53  73 100 134 171 211 255 304
#
# _framework density 18.161943000000001
#
# number of rings (size 3 to 8) (size 9 to 14) (size 15 to 20)
#    0.000    2.600    0.000    3.300    0.000    6.000 
#    0.000    5.500    0.000    1.800    0.000    0.000 
#    0.000    0.000    0.000    0.000    0.000    0.000 
#
# Total GULP energy -495885.032838 kJ/mol
# GULP energy per Si atom -12397.125821 kJ/mol
# Density = 1.812061 g / cm^3
# Si number density = 18.161943 Si / 1000 Ang^3
#
#
#
# Elastic Constant Matrix: (Units=GPa)
#
#
# Indices 1 2 3 4 5 6 
#
# 1 102.5571 37.5641 61.8963 0.0000 0.0000 0.0000
# 2 37.5641 49.5701 47.7404 0.0000 0.0000 0.0000
# 3 61.8963 47.7404 111.3734 0.0000 0.0000 0.0000
# 4 0.0000 0.0000 0.0000 10.0481 0.0000 0.0000
# 5 0.0000 0.0000 0.0000 0.0000 30.6734 0.0000
# 6 0.0000 0.0000 0.0000 0.0000 0.0000 31.7925
#
#
#
# Elastic Compliance Matrix: (Units=1/GPa)
#
#
# Indices 1 2 3 4 5 6 
#
# 1 0.015631 -0.005925 -0.006147 0.000000 0.000000 0.000000
# 2 -0.005925 0.036603 -0.012397 0.000000 0.000000 0.000000
# 3 -0.006147 -0.012397 0.017709 0.000000 0.000000 0.000000
# 4 0.000000 0.000000 0.000000 0.099522 0.000000 0.000000
# 5 0.000000 0.000000 0.000000 0.000000 0.032602 0.000000
# 6 0.000000 0.000000 0.000000 0.000000 0.000000 0.031454
#
#
# Mechanical properties :
#
#
# Convention : Reuss Voigt Hill
#
# Bulk Modulus (GPa) = 47.60864 61.98915 54.79889
# Shear Modulus (GPa) = 17.27357 22.25610 19.76484
#
# Velocity S-wave (km/s) = 3.08731 3.50441 3.30245
# Velocity P-wave (km/s) = 6.24332 7.11196 6.69175
#
# Compressibility (1/GPa) = 0.02100459
#
# Stress axis : x y z
#
# Youngs Moduli (GPa) = 63.97636 27.32044 56.46757
#
# Poissons Ratio (x) = 0.16186 0.34712
# Poissons Ratio (y) = 0.37903 0.70004
# Poissons Ratio (z) = 0.39328 0.33870
#
# Static dielectric constant tensor:
#      x y z
#    x 3.359500 0.000000 0.000000 
#    y 0.000000 3.052170 0.000000 
#    z 0.000000 0.000000 3.576400 
# 
# 
# High freq. dielectric constant tensor:
#      x y z
#    x 1.705450 0.000000 0.000000 
#    y 0.000000 1.675370 0.000000 
#    z 0.000000 0.000000 1.715640 
# 
# From -- ./inp_files/67348.got.cif
#   From: 2010.03.12/outbox.cif.g09.slc.cpg/sg65_34_cif.got.tgz:67348.got - 2010.04.10 20:52:16.
