data_PCOD8271163
_publ_section_title
;
Structure prediction by ZEFSAII (Michael W. Deem and Ramdas Pophale) SiO2 
 PCOD8271163
Probable space group: C M M M
;
_chemical_formula_sum "Si O2"
_cell_formula_units_Z 104
_cell_length_a 8.972433
_cell_length_b 19.113840
_cell_length_c 33.005429
_cell_angle_alpha 90.000000
_cell_angle_beta 90.000000
_cell_angle_gamma 90.000000
_cell_volume 5660.353470
_symmetry_space_group_name_H-M "C M M M"
_symmetry_group_IT_number 65
_symmetry_cell_setting 'orthorhombic'
loop_
_space_group_symop_operation_xyz
x,y,z
-x,-y,z
x,-y,-z
-x,y,-z
-x,-y,-z
x,y,-z
-x,y,z
x,-y,z
1/2+x,1/2+y,z
1/2-x,1/2-y,z
1/2+x,1/2-y,-z
1/2-x,1/2+y,-z
1/2-x,1/2-y,-z
1/2+x,1/2+y,-z
1/2-x,1/2+y,z
1/2+x,1/2-y,z
loop_
_atom_site_type_symbol
_atom_site_label
_atom_site_fract_x
_atom_site_fract_y
_atom_site_fract_z
Si Si1 0.826234 0.920129 0.840463
Si Si2 0.826996 0.419510 0.392104
Si Si3 0.832087 0.083484 0.000000
Si Si4 0.176038 0.323025 0.316975
Si Si5 0.677075 0.323214 0.233679
Si Si6 0.174026 0.178897 0.546802
Si Si7 0.331998 0.916646 0.920591
O O1 0.778771 0.878143 0.800725
O O2 0.743334 0.888221 0.879553
O O3 0.000000 0.913601 0.849516
O O4 0.778531 0.000000 0.832792
O O5 0.780626 0.500000 0.387070
O O6 0.787514 0.380781 0.350468
O O7 0.733750 0.387396 0.428829
O O8 0.000000 0.411218 0.402833
O O9 0.751926 0.113419 0.040034
O O10 0.000000 0.111368 0.000000
O O11 0.826577 0.000000 0.000000
O O12 0.250000 0.250000 0.330593
O O13 0.251020 0.350006 0.275550
O O14 0.000000 0.312097 0.310672
O O15 0.500000 0.315191 0.238767
O O16 0.750000 0.250000 0.221154
O O17 0.213610 0.165879 0.500000
O O18 0.250000 0.250000 0.562773
O O19 0.000000 0.187193 0.554225
O O20 0.500000 0.889009 0.922056
O O21 0.324050 0.000000 0.920979
#
# Coordination Sequence:
#
# PCOD8271163 Si02
#       7
#    16  16   8  16  16  16  16
#     4   9  18  32  48  68  96 128 161 198 243 295
#     4  10  22  38  55  79 111 144 176 213 261 313
#     4   9  15  23  37  57  86 125 162 197 240 289
#     4  10  20  35  55  76 100 131 169 211 252 299
#     4  10  20  34  53  75  99 129 166 207 250 298
#     4  10  21  37  58  83 109 140 180 222 262 307
#     4   9  16  25  39  62  91 122 158 200 244 289
#
# _framework density 18.373411999999998
#
# number of rings (size 3 to 8) (size 9 to 14) (size 15 to 20)
#    0.000    2.385    0.000    3.462    0.000    8.615 
#    0.000    1.538    0.000    0.000    0.000    0.538 
#    0.000    0.000    0.000    0.000    0.000    0.000 
#
# Total GULP energy -644895.652322 kJ/mol
# GULP energy per Si atom -12401.839468 kJ/mol
# Density = 1.833159 g / cm^3
# Si number density = 18.373412 Si / 1000 Ang^3
#
#
#
# Elastic Constant Matrix: (Units=GPa)
#
#
# Indices 1 2 3 4 5 6 
#
# 1 108.3662 48.8988 76.5521 0.0000 0.0000 0.0000
# 2 48.8988 89.6017 77.6457 0.0000 0.0000 0.0000
# 3 76.5521 77.6457 145.9437 0.0000 0.0000 0.0000
# 4 0.0000 0.0000 0.0000 14.0621 0.0000 0.0000
# 5 0.0000 0.0000 0.0000 0.0000 36.4848 0.0000
# 6 0.0000 0.0000 0.0000 0.0000 0.0000 22.3239
#
#
#
# Elastic Compliance Matrix: (Units=1/GPa)
#
#
# Indices 1 2 3 4 5 6 
#
# 1 0.014963 -0.002532 -0.006502 0.000000 0.000000 0.000000
# 2 -0.002532 0.021136 -0.009917 0.000000 0.000000 0.000000
# 3 -0.006502 -0.009917 0.015538 0.000000 0.000000 0.000000
# 4 0.000000 0.000000 0.000000 0.071113 0.000000 0.000000
# 5 0.000000 0.000000 0.000000 0.000000 0.027409 0.000000
# 6 0.000000 0.000000 0.000000 0.000000 0.000000 0.044795
#
#
# Mechanical properties :
#
#
# Convention : Reuss Voigt Hill
#
# Bulk Modulus (GPa) = 72.79742 83.34500 78.07121
# Shear Modulus (GPa) = 21.05849 23.96181 22.51015
#
# Velocity S-wave (km/s) = 3.38914 3.61523 3.50401
# Velocity P-wave (km/s) = 7.41769 7.93012 7.67818
#
# Compressibility (1/GPa) = 0.01373675
#
# Stress axis : x y z
#
# Youngs Moduli (GPa) = 66.82962 47.31334 64.35720
#
# Poissons Ratio (x) = 0.11979 0.41844
# Poissons Ratio (y) = 0.16920 0.63821
# Poissons Ratio (z) = 0.43451 0.46919
#
# Static dielectric constant tensor:
#      x y z
#    x 3.473510 0.000000 0.000000 
#    y 0.000000 3.112770 0.000000 
#    z 0.000000 0.000000 3.525440 
# 
# 
# High freq. dielectric constant tensor:
#      x y z
#    x 1.723460 0.000000 0.000000 
#    y 0.000000 1.677500 0.000000 
#    z 0.000000 0.000000 1.726510 
# 
# From -- ./inp_files/76900.got.cif
#   From: 2010.03.12/outbox.cif.g09.slc.cpg/sg65_39_cif.got.tgz:76900.got - 2010.04.10 20:52:16.
