data_PCOD8271472
_publ_section_title
;
Structure prediction by ZEFSAII (Michael W. Deem and Ramdas Pophale) SiO2 
 PCOD8271472
Probable space group: C M M M
;
_chemical_formula_sum "Si O2"
_cell_formula_units_Z 80
_cell_length_a 17.460038
_cell_length_b 15.472776
_cell_length_c 14.661941
_cell_angle_alpha 90.000000
_cell_angle_beta 90.000000
_cell_angle_gamma 90.000000
_cell_volume 3961.000438
_symmetry_space_group_name_H-M "C M M M"
_symmetry_group_IT_number 65
_symmetry_cell_setting 'orthorhombic'
loop_
_space_group_symop_operation_xyz
x,y,z
-x,-y,z
x,-y,-z
-x,y,-z
-x,-y,-z
x,y,-z
-x,y,z
x,-y,z
1/2+x,1/2+y,z
1/2-x,1/2-y,z
1/2+x,1/2-y,-z
1/2-x,1/2+y,-z
1/2-x,1/2-y,-z
1/2+x,1/2+y,-z
1/2-x,1/2+y,z
1/2+x,1/2-y,z
loop_
_atom_site_type_symbol
_atom_site_label
_atom_site_fract_x
_atom_site_fract_y
_atom_site_fract_z
Si Si1 0.244565 0.652825 0.600919
Si Si2 0.917349 0.401986 0.355316
Si Si3 0.412030 0.721336 0.101320
Si Si4 0.636931 0.903731 0.152399
Si Si5 0.806939 0.904332 0.786263
O O1 0.280445 0.635980 0.500000
O O2 0.250000 0.750000 0.633784
O O3 0.153785 0.637700 0.591791
O O4 0.290135 0.598760 0.677144
O O5 0.921712 0.500000 0.386707
O O6 0.904771 0.394648 0.248097
O O7 0.000000 0.357526 0.379131
O O8 0.500000 0.709295 0.129132
O O9 0.392660 0.823523 0.093159
O O10 0.363617 0.670034 0.177715
O O11 0.396611 0.682792 0.000000
O O12 0.727853 0.893041 0.160719
O O13 0.618691 0.000000 0.110796
O O14 0.841617 0.000000 0.805292
#
# Coordination Sequence:
#
# PCOD8271472 Si02
#       5
#    16  16  16  16  16
#     4  10  20  34  54  82 115 149 186 229 279 335
#     4   9  17  30  51  79 111 147 182 217 261 316
#     4  11  24  39  57  83 113 146 187 238 292 345
#     4   9  18  34  57  84 114 149 186 224 275 342
#     4  10  21  38  60  82 109 151 195 234 278 327
#
# _framework density 20.196916999999999
#
# number of rings (size 3 to 8) (size 9 to 14) (size 15 to 20)
#    0.000    2.200    0.000    5.400    0.000    6.000 
#    0.000    5.000    0.000    1.800    0.000    1.400 
#    0.000    0.000    0.000    0.000    0.000    0.000 
#
# Total GULP energy -495576.853472 kJ/mol
# GULP energy per Si atom -12389.421337 kJ/mol
# Density = 2.015095 g / cm^3
# Si number density = 20.196917 Si / 1000 Ang^3
#
#
#
# Elastic Constant Matrix: (Units=GPa)
#
#
# Indices 1 2 3 4 5 6 
#
# 1 105.0950 51.1050 37.1598 0.0000 0.0000 0.0000
# 2 51.1050 107.4097 27.1365 0.0000 0.0000 0.0000
# 3 37.1598 27.1365 79.6282 0.0000 0.0000 0.0000
# 4 0.0000 0.0000 0.0000 31.2297 0.0000 0.0000
# 5 0.0000 0.0000 0.0000 0.0000 16.8710 0.0000
# 6 0.0000 0.0000 0.0000 0.0000 0.0000 29.1202
#
#
#
# Elastic Compliance Matrix: (Units=1/GPa)
#
#
# Indices 1 2 3 4 5 6 
#
# 1 0.013755 -0.005387 -0.004583 0.000000 0.000000 0.000000
# 2 -0.005387 0.012297 -0.001677 0.000000 0.000000 0.000000
# 3 -0.004583 -0.001677 0.015269 0.000000 0.000000 0.000000
# 4 0.000000 0.000000 0.000000 0.032021 0.000000 0.000000
# 5 0.000000 0.000000 0.000000 0.000000 0.059273 0.000000
# 6 0.000000 0.000000 0.000000 0.000000 0.000000 0.034340
#
#
# Mechanical properties :
#
#
# Convention : Reuss Voigt Hill
#
# Bulk Modulus (GPa) = 55.47262 58.10394 56.78828
# Shear Modulus (GPa) = 25.47670 27.22631 26.35150
#
# Velocity S-wave (km/s) = 3.55549 3.67555 3.61602
# Velocity P-wave (km/s) = 6.66190 6.84427 6.75370
#
# Compressibility (1/GPa) = 0.01802691
#
# Stress axis : x y z
#
# Youngs Moduli (GPa) = 72.69972 81.32231 65.49346
#
# Poissons Ratio (x) = 0.43806 0.30018
# Poissons Ratio (y) = 0.39161 0.10982
# Poissons Ratio (z) = 0.33321 0.13636
#
# Static dielectric constant tensor:
#      x y z
#    x 3.437240 0.000000 0.000000 
#    y 0.000000 3.715500 0.000000 
#    z 0.000000 0.000000 3.455020 
# 
# 
# High freq. dielectric constant tensor:
#      x y z
#    x 1.777520 0.000000 0.000000 
#    y 0.000000 1.783710 0.000000 
#    z 0.000000 0.000000 1.782360 
# 
# From -- ./inp_files/43905.got.cif
#   From: 2010.03.12/outbox.cif.g09.slc.cpg/sg65_22_cif.got.tgz:43905.got - 2010.04.10 20:52:16.
