data_PCOD8271343
_publ_section_title
;
Structure prediction by ZEFSAII (Michael W. Deem and Ramdas Pophale) SiO2 
 PCOD8271343
Probable space group: C M M M
;
_chemical_formula_sum "Si O2"
_cell_formula_units_Z 128
_cell_length_a 19.063231
_cell_length_b 19.833828
_cell_length_c 19.781430
_cell_angle_alpha 90.000000
_cell_angle_beta 90.000000
_cell_angle_gamma 90.000000
_cell_volume 7479.296268
_symmetry_space_group_name_H-M "C M M M"
_symmetry_group_IT_number 65
_symmetry_cell_setting 'orthorhombic'
loop_
_space_group_symop_operation_xyz
x,y,z
-x,-y,z
x,-y,-z
-x,y,-z
-x,-y,-z
x,y,-z
-x,y,z
x,-y,z
1/2+x,1/2+y,z
1/2-x,1/2-y,z
1/2+x,1/2-y,-z
1/2-x,1/2+y,-z
1/2-x,1/2-y,-z
1/2+x,1/2+y,-z
1/2-x,1/2+y,z
1/2+x,1/2-y,z
loop_
_atom_site_type_symbol
_atom_site_label
_atom_site_fract_x
_atom_site_fract_y
_atom_site_fract_z
Si Si1 0.078422 0.776866 0.346439
Si Si2 0.682898 0.923723 0.077825
Si Si3 0.581134 0.681402 0.194413
Si Si4 0.774842 0.576216 0.322803
Si Si5 0.922092 0.371804 0.300968
Si Si6 0.079065 0.326547 0.148343
Si Si7 0.710558 0.317680 0.421039
Si Si8 0.199870 0.922255 0.814624
O O1 0.093392 0.808288 0.273633
O O2 0.088921 0.696720 0.342811
O O3 0.129406 0.810285 0.401050
O O4 0.000000 0.794237 0.370442
O O5 0.624391 0.868916 0.095743
O O6 0.752027 0.909225 0.120748
O O7 0.655190 0.000000 0.092544
O O8 0.703523 0.915099 0.000000
O O9 0.500000 0.664137 0.179376
O O10 0.604107 0.748716 0.153706
O O11 0.629414 0.619626 0.171968
O O12 0.751680 0.500000 0.336544
O O13 0.859760 0.578079 0.321470
O O14 0.745531 0.619833 0.383785
O O15 0.742290 0.602275 0.251927
O O16 0.916618 0.359649 0.221569
O O17 0.000000 0.401676 0.317541
O O18 0.000000 0.328537 0.120950
O O19 0.717054 0.331636 0.500000
O O20 0.750000 0.250000 0.398543
O O21 0.178164 0.000000 0.807454
#
# Coordination Sequence:
#
# PCOD8271343 Si02
#       8
#    16  16  16  16  16  16  16  16
#     4   9  17  32  54  79 106 136 173 216 265 316
#     4  10  21  36  52  75 111 147 176 212 259 312
#     4   9  18  33  55  81 104 131 171 222 272 309
#     4  11  21  34  54  79 107 141 179 220 264 311
#     4   9  17  31  52  78 108 138 173 218 262 307
#     4   9  18  32  51  77 106 138 176 214 257 310
#     4  11  22  35  54  80 106 139 181 220 264 319
#     4  10  20  34  54  79 103 137 182 221 261 315
#
# _framework density 17.113910000000001
#
# number of rings (size 3 to 8) (size 9 to 14) (size 15 to 20)
#    0.000    2.250    3.750    1.500    0.000    2.000 
#    0.000    3.125    0.000    1.875    0.000    3.500 
#    0.000    0.000    0.000    0.000    0.000    0.000 
#
# Total GULP energy -793529.036886 kJ/mol
# GULP energy per Si atom -12398.891201 kJ/mol
# Density = 1.707496 g / cm^3
# Si number density = 17.113910 Si / 1000 Ang^3
#
#
#
# Elastic Constant Matrix: (Units=GPa)
#
#
# Indices 1 2 3 4 5 6 
#
# 1 112.5710 60.1002 45.4660 0.0000 0.0000 0.0000
# 2 60.1002 86.8592 45.8910 0.0000 0.0000 0.0000
# 3 45.4660 45.8910 78.4334 0.0000 0.0000 0.0000
# 4 0.0000 0.0000 0.0000 24.4351 0.0000 0.0000
# 5 0.0000 0.0000 0.0000 0.0000 21.9241 0.0000
# 6 0.0000 0.0000 0.0000 0.0000 0.0000 31.6884
#
#
#
# Elastic Compliance Matrix: (Units=1/GPa)
#
#
# Indices 1 2 3 4 5 6 
#
# 1 0.014811 -0.008268 -0.003748 0.000000 0.000000 0.000000
# 2 -0.008268 0.021280 -0.007658 0.000000 0.000000 0.000000
# 3 -0.003748 -0.007658 0.019403 0.000000 0.000000 0.000000
# 4 0.000000 0.000000 0.000000 0.040925 0.000000 0.000000
# 5 0.000000 0.000000 0.000000 0.000000 0.045612 0.000000
# 6 0.000000 0.000000 0.000000 0.000000 0.000000 0.031557
#
#
# Mechanical properties :
#
#
# Convention : Reuss Voigt Hill
#
# Bulk Modulus (GPa) = 61.93548 64.53089 63.23318
# Shear Modulus (GPa) = 22.90237 24.03661 23.46949
#
# Velocity S-wave (km/s) = 3.66215 3.75174 3.70722
# Velocity P-wave (km/s) = 7.35870 7.52037 7.43998
#
# Compressibility (1/GPa) = 0.01614584
#
# Stress axis : x y z
#
# Youngs Moduli (GPa) = 67.51587 46.99323 51.53848
#
# Poissons Ratio (x) = 0.38854 0.19318
# Poissons Ratio (y) = 0.55822 0.39467
# Poissons Ratio (z) = 0.25306 0.35987
#
# Static dielectric constant tensor:
#      x y z
#    x 3.294130 0.000000 0.000000 
#    y 0.000000 3.108650 0.000000 
#    z 0.000000 0.000000 2.960700 
# 
# 
# High freq. dielectric constant tensor:
#      x y z
#    x 1.665860 0.000000 0.000000 
#    y 0.000000 1.652430 0.000000 
#    z 0.000000 0.000000 1.638780 
# 
# From -- ./inp_files/64100.got.cif
#   From: 2010.03.12/outbox.cif.g09.slc.cpg/sg65_33_cif.got.tgz:64100.got - 2010.04.10 20:52:16.
