data_PCOD8271040
_publ_section_title
;
Structure prediction by ZEFSAII (Michael W. Deem and Ramdas Pophale) SiO2 
 PCOD8271040
Probable space group: C M M M
;
_chemical_formula_sum "Si O2"
_cell_formula_units_Z 88
_cell_length_a 18.914854
_cell_length_b 9.028844
_cell_length_c 28.569908
_cell_angle_alpha 90.000000
_cell_angle_beta 90.000000
_cell_angle_gamma 90.000000
_cell_volume 4879.147919
_symmetry_space_group_name_H-M "C M M M"
_symmetry_group_IT_number 65
_symmetry_cell_setting 'orthorhombic'
loop_
_space_group_symop_operation_xyz
x,y,z
-x,-y,z
x,-y,-z
-x,y,-z
-x,-y,-z
x,y,-z
-x,y,z
x,-y,z
1/2+x,1/2+y,z
1/2-x,1/2-y,z
1/2+x,1/2-y,-z
1/2-x,1/2+y,-z
1/2-x,1/2-y,-z
1/2+x,1/2+y,-z
1/2-x,1/2+y,z
1/2+x,1/2-y,z
loop_
_atom_site_type_symbol
_atom_site_label
_atom_site_fract_x
_atom_site_fract_y
_atom_site_fract_z
Si Si1 0.323830 0.674278 0.163161
Si Si2 0.678318 0.326565 0.269760
Si Si3 0.921296 0.822599 0.649342
Si Si4 0.326214 0.825996 0.000000
Si Si5 0.918001 0.326234 0.910785
Si Si6 0.084157 0.166624 0.549545
O O1 0.315625 0.500000 0.154640
O O2 0.250000 0.750000 0.148156
O O3 0.343352 0.712889 0.216718
O O4 0.388807 0.737076 0.133507
O O5 0.688293 0.500000 0.275659
O O6 0.750000 0.250000 0.284171
O O7 0.621554 0.262334 0.306232
O O8 0.889410 0.762300 0.599076
O O9 0.000000 0.761294 0.656585
O O10 0.921210 0.000000 0.647849
O O11 0.250000 0.750000 0.000000
O O12 0.371926 0.776525 0.955320
O O13 0.313015 0.000000 0.000000
O O14 0.909929 0.500000 0.901148
O O15 0.000000 0.284332 0.919238
O O16 0.107304 0.247094 0.500000
O O17 0.000000 0.164065 0.552772
O O18 0.113162 0.000000 0.546724
#
# Coordination Sequence:
#
# PCOD8271040 Si02
#       6
#    16  16  16   8  16  16
#     4  10  20  34  52  73  97 127 165 204 240 284
#     4   9  18  31  47  66  90 122 155 188 228 275
#     4   8  13  22  38  60  84 111 146 187 229 271
#     4  10  21  37  57  79 103 134 169 200 232 276
#     4  10  21  37  56  78 105 134 162 196 240 285
#     4   7   9  14  27  50  79 107 136 176 225 270
#
# _framework density 18.035936
#
# number of rings (size 3 to 8) (size 9 to 14) (size 15 to 20)
#    0.000    3.091    0.000    3.000    0.000    5.091 
#    0.000    1.818    0.000    2.727    0.000    0.000 
#    0.000    0.000    0.000    4.545    0.000    3.636 
#
# Total GULP energy -545074.980640 kJ/mol
# GULP energy per Si atom -12388.067742 kJ/mol
# Density = 1.799489 g / cm^3
# Si number density = 18.035936 Si / 1000 Ang^3
#
#
#
# Elastic Constant Matrix: (Units=GPa)
#
#
# Indices 1 2 3 4 5 6 
#
# 1 116.1708 31.9590 87.5717 0.0000 0.0000 0.0000
# 2 31.9590 26.5018 33.0463 0.0000 0.0000 0.0000
# 3 87.5717 33.0463 156.7197 0.0000 0.0000 0.0000
# 4 0.0000 0.0000 0.0000 10.6107 0.0000 0.0000
# 5 0.0000 0.0000 0.0000 0.0000 7.5294 0.0000
# 6 0.0000 0.0000 0.0000 0.0000 0.0000 22.6884
#
#
#
# Elastic Compliance Matrix: (Units=1/GPa)
#
#
# Indices 1 2 3 4 5 6 
#
# 1 0.017266 -0.011927 -0.007133 0.000000 0.000000 0.000000
# 2 -0.011927 0.059433 -0.005867 0.000000 0.000000 0.000000
# 3 -0.007133 -0.005867 0.011604 0.000000 0.000000 0.000000
# 4 0.000000 0.000000 0.000000 0.094244 0.000000 0.000000
# 5 0.000000 0.000000 0.000000 0.000000 0.132812 0.000000
# 6 0.000000 0.000000 0.000000 0.000000 0.000000 0.044075
#
#
# Mechanical properties :
#
#
# Convention : Reuss Voigt Hill
#
# Bulk Modulus (GPa) = 26.00945 67.17183 46.59064
# Shear Modulus (GPa) = 11.84536 17.95340 14.89938
#
# Velocity S-wave (km/s) = 2.56552 3.15846 2.87730
# Velocity P-wave (km/s) = 4.81955 7.11515 6.07673
#
# Compressibility (1/GPa) = 0.03844756
#
# Stress axis : x y z
#
# Youngs Moduli (GPa) = 57.91650 16.82570 86.17841
#
# Poissons Ratio (x) = 0.20068 0.61471
# Poissons Ratio (y) = 0.69078 0.50565
# Poissons Ratio (z) = 0.41312 0.09872
#
# Static dielectric constant tensor:
#      x y z
#    x 3.302590 0.000000 0.000000 
#    y 0.000000 2.921590 0.000000 
#    z 0.000000 0.000000 3.896490 
# 
# 
# High freq. dielectric constant tensor:
#      x y z
#    x 1.674090 0.000000 0.000000 
#    y 0.000000 1.652570 0.000000 
#    z 0.000000 0.000000 1.726860 
# 
# From -- ./inp_files/77813.got.cif
#   From: 2010.03.12/outbox.cif.g09.slc.cpg/sg65_39_cif.got.tgz:77813.got - 2010.04.10 20:52:16.
