data_PCOD8271934
_publ_section_title
;
Structure prediction by ZEFSAII (Michael W. Deem and Ramdas Pophale) SiO2 
 PCOD8271934
Probable space group: C M M M
;
_chemical_formula_sum "Si O2"
_cell_formula_units_Z 96
_cell_length_a 22.401008
_cell_length_b 26.502326
_cell_length_c 8.678460
_cell_angle_alpha 90.000000
_cell_angle_beta 90.000000
_cell_angle_gamma 90.000000
_cell_volume 5152.217864
_symmetry_space_group_name_H-M "C M M M"
_symmetry_group_IT_number 65
_symmetry_cell_setting 'orthorhombic'
loop_
_space_group_symop_operation_xyz
x,y,z
-x,-y,z
x,-y,-z
-x,y,-z
-x,-y,-z
x,y,-z
-x,y,z
x,-y,z
1/2+x,1/2+y,z
1/2-x,1/2-y,z
1/2+x,1/2-y,-z
1/2-x,1/2+y,-z
1/2-x,1/2-y,-z
1/2+x,1/2+y,-z
1/2-x,1/2+y,z
1/2+x,1/2-y,z
loop_
_atom_site_type_symbol
_atom_site_label
_atom_site_fract_x
_atom_site_fract_y
_atom_site_fract_z
Si Si1 0.198652 0.861101 0.318676
Si Si2 0.768269 0.441266 0.824329
Si Si3 0.605247 0.942365 0.318175
Si Si4 0.000000 0.623744 0.817815
Si Si5 0.114118 0.220837 0.821406
Si Si6 0.800245 0.709320 0.333436
Si Si7 0.500000 0.764799 0.320398
O O1 0.185191 0.860806 0.500000
O O2 0.207940 0.916951 0.250579
O O3 0.146305 0.830229 0.235220
O O4 0.264784 0.839613 0.276558
O O5 0.755926 0.500000 0.811968
O O6 0.828530 0.426769 0.733152
O O7 0.775690 0.423507 0.000000
O O8 0.600126 0.936755 0.500000
O O9 0.558857 0.904097 0.242389
O O10 0.590768 0.000000 0.266818
O O11 0.000000 0.682140 0.768342
O O12 0.000000 0.621697 0.000000
O O13 0.154370 0.270849 0.795305
O O14 0.055126 0.229218 0.723469
O O15 0.098710 0.215753 0.000000
O O16 0.832915 0.700020 0.500000
O O17 0.750000 0.750000 0.365389
O O18 0.500000 0.776796 0.500000
#
# Coordination Sequence:
#
# PCOD8271934 Si02
#       7
#    16  16  16   8  16  16   8
#     4  10  20  35  57  81 109 146 185 221 271 335
#     4  10  21  36  55  83 116 146 182 233 284 326
#     4  10  21  38  58  79 107 146 190 233 281 337
#     4  12  25  39  56  79 106 143 191 240 285 326
#     4  11  22  37  56  81 110 140 181 228 277 327
#     4   8  16  31  50  74 104 138 177 217 261 318
#     4  12  26  43  59  76 109 148 188 232 277 330
#
# _framework density 18.632753000000001
#
# number of rings (size 3 to 8) (size 9 to 14) (size 15 to 20)
#    0.000    1.833    0.000    5.750    2.333    6.667 
#    0.000    0.000    0.000    0.000    0.000    0.583 
#    0.000    4.667    0.000    0.000    0.000    0.000 
#
# Total GULP energy -594985.934480 kJ/mol
# GULP energy per Si atom -12395.540302 kJ/mol
# Density = 1.859034 g / cm^3
# Si number density = 18.632753 Si / 1000 Ang^3
#
#
#
# Elastic Constant Matrix: (Units=GPa)
#
#
# Indices 1 2 3 4 5 6 
#
# 1 81.5198 46.4298 30.5936 0.0000 0.0000 0.0000
# 2 46.4298 72.4910 30.2241 0.0000 0.0000 0.0000
# 3 30.5936 30.2241 100.2968 0.0000 0.0000 0.0000
# 4 0.0000 0.0000 0.0000 29.8864 0.0000 0.0000
# 5 0.0000 0.0000 0.0000 0.0000 29.3423 0.0000
# 6 0.0000 0.0000 0.0000 0.0000 0.0000 31.0541
#
#
#
# Elastic Compliance Matrix: (Units=1/GPa)
#
#
# Indices 1 2 3 4 5 6 
#
# 1 0.019864 -0.011662 -0.002545 0.000000 0.000000 0.000000
# 2 -0.011662 0.022623 -0.003260 0.000000 0.000000 0.000000
# 3 -0.002545 -0.003260 0.011729 0.000000 0.000000 0.000000
# 4 0.000000 0.000000 0.000000 0.033460 0.000000 0.000000
# 5 0.000000 0.000000 0.000000 0.000000 0.034081 0.000000
# 6 0.000000 0.000000 0.000000 0.000000 0.000000 0.032202
#
#
# Mechanical properties :
#
#
# Convention : Reuss Voigt Hill
#
# Bulk Modulus (GPa) = 51.85986 52.08920 51.97453
# Shear Modulus (GPa) = 25.59901 27.86056 26.72978
#
# Velocity S-wave (km/s) = 3.71060 3.87104 3.79167
# Velocity P-wave (km/s) = 6.80082 6.92794 6.86467
#
# Compressibility (1/GPa) = 0.01928274
#
# Stress axis : x y z
#
# Youngs Moduli (GPa) = 50.34251 44.20222 85.25753
#
# Poissons Ratio (x) = 0.51547 0.21697
# Poissons Ratio (y) = 0.58707 0.27797
# Poissons Ratio (z) = 0.12812 0.14411
#
# Static dielectric constant tensor:
#      x y z
#    x -5.106830 0.000000 0.000000 
#    y 0.000000 5.629580 0.000000 
#    z 0.000000 0.000000 3.498670 
# 
# 
# High freq. dielectric constant tensor:
#      x y z
#    x 1.700270 0.000000 0.000000 
#    y 0.000000 1.719010 0.000000 
#    z 0.000000 0.000000 1.737150 
# 
# From -- ./inp_files/14664.got.cif
#   From: 2010.03.12/outbox.cif.g09.slc.cpg/sg65_8_cif.got.tgz:14664.got - 2010.04.10 20:52:16.
