data_PCOD8271146
_publ_section_title
;
Structure prediction by ZEFSAII (Michael W. Deem and Ramdas Pophale) SiO2 
 PCOD8271146
Probable space group: C M M M
;
_chemical_formula_sum "Si O2"
_cell_formula_units_Z 80
_cell_length_a 27.050957
_cell_length_b 8.885048
_cell_length_c 18.419088
_cell_angle_alpha 90.000000
_cell_angle_beta 90.000000
_cell_angle_gamma 90.000000
_cell_volume 4427.010328
_symmetry_space_group_name_H-M "C M M M"
_symmetry_group_IT_number 65
_symmetry_cell_setting 'orthorhombic'
loop_
_space_group_symop_operation_xyz
x,y,z
-x,-y,z
x,-y,-z
-x,y,-z
-x,-y,-z
x,y,-z
-x,y,z
x,-y,z
1/2+x,1/2+y,z
1/2-x,1/2-y,z
1/2+x,1/2-y,-z
1/2-x,1/2+y,-z
1/2-x,1/2-y,-z
1/2+x,1/2+y,-z
1/2-x,1/2+y,z
1/2+x,1/2-y,z
loop_
_atom_site_type_symbol
_atom_site_label
_atom_site_fract_x
_atom_site_fract_y
_atom_site_fract_z
Si Si1 0.392099 0.675491 0.644825
Si Si2 0.802150 0.675609 0.285901
Si Si3 0.056608 0.825381 0.206254
Si Si4 0.444667 0.679235 0.500000
Si Si5 0.645889 0.824176 0.136229
Si Si6 0.196257 0.177992 0.000000
O O1 0.379902 0.500000 0.638986
O O2 0.340877 0.761966 0.655857
O O3 0.429918 0.708670 0.710304
O O4 0.416590 0.738071 0.571396
O O5 0.796932 0.500000 0.297538
O O6 0.750000 0.750000 0.301147
O O7 0.819950 0.715356 0.204891
O O8 0.089722 0.725148 0.152509
O O9 0.000000 0.779333 0.193324
O O10 0.065815 0.000000 0.188140
O O11 0.447012 0.500000 0.500000
O O12 0.500000 0.745785 0.500000
O O13 0.666113 0.728127 0.070085
O O14 0.647085 0.000000 0.116889
O O15 0.250000 0.250000 0.000000
O O16 0.202419 0.000000 0.000000
#
# Coordination Sequence:
#
# PCOD8271146 Si02
#       6
#    16  16  16   8  16   8
#     4   9  17  30  50  76 105 135 170 211 253 301
#     4  10  20  34  53  75 100 132 170 211 254 301
#     4   9  17  31  52  77 105 138 174 212 255 302
#     4   9  16  28  50  79 106 133 168 209 252 299
#     4  10  21  36  54  78 106 135 170 211 254 302
#     4  12  24  38  57  80 107 136 166 205 253 305
#
# _framework density 18.070886000000002
#
# number of rings (size 3 to 8) (size 9 to 14) (size 15 to 20)
#    0.000    2.300    0.000    3.300    0.000    6.800 
#    0.000    1.500    0.000    5.400    0.000    0.000 
#    0.000    0.000    0.000    0.000    0.000    0.000 
#
# Total GULP energy -496129.946778 kJ/mol
# GULP energy per Si atom -12403.248669 kJ/mol
# Density = 1.802976 g / cm^3
# Si number density = 18.070886 Si / 1000 Ang^3
#
#
#
# Elastic Constant Matrix: (Units=GPa)
#
#
# Indices 1 2 3 4 5 6 
#
# 1 162.2738 59.5154 74.3704 0.0000 0.0000 0.0000
# 2 59.5154 78.4338 54.1722 0.0000 0.0000 0.0000
# 3 74.3704 54.1722 120.4295 0.0000 0.0000 0.0000
# 4 0.0000 0.0000 0.0000 21.0271 0.0000 0.0000
# 5 0.0000 0.0000 0.0000 0.0000 -12.8656 0.0000
# 6 0.0000 0.0000 0.0000 0.0000 0.0000 31.8392
#
#
#
# Elastic Compliance Matrix: (Units=1/GPa)
#
#
# Indices 1 2 3 4 5 6 
#
# 1 0.009635 -0.004645 -0.003861 0.000000 0.000000 0.000000
# 2 -0.004645 0.020735 -0.006459 0.000000 0.000000 0.000000
# 3 -0.003861 -0.006459 0.013593 0.000000 0.000000 0.000000
# 4 0.000000 0.000000 0.000000 0.047558 0.000000 0.000000
# 5 0.000000 0.000000 0.000000 0.000000 -0.077727 0.000000
# 6 0.000000 0.000000 0.000000 0.000000 0.000000 0.031408
#
#
# Mechanical properties :
#
#
# Convention : Reuss Voigt Hill
#
# Bulk Modulus (GPa) = 71.25208 81.91702 76.58455
# Shear Modulus (GPa) = 62.64928 19.53875 41.09402
#
# Velocity S-wave (km/s) = 5.89439 3.29177 4.77387
# Velocity P-wave (km/s) = 9.26499 7.73802 8.53572
#
# Compressibility (1/GPa) = 0.01403468
#
# Stress axis : x y z
#
# Youngs Moduli (GPa) = 103.78406 48.22793 73.56573
#
# Poissons Ratio (x) = 0.22400 0.28404
# Poissons Ratio (y) = 0.48204 0.47515
# Poissons Ratio (z) = 0.40071 0.31149
#
# Static dielectric constant tensor:
#      x y z
#    x 3.470800 0.000000 0.000000 
#    y 0.000000 3.259230 0.000000 
#    z 0.000000 0.000000 3.363820 
# 
# 
# High freq. dielectric constant tensor:
#      x y z
#    x 1.708680 0.000000 0.000000 
#    y 0.000000 1.693380 0.000000 
#    z 0.000000 0.000000 1.690930 
# 
# From -- ./inp_files/49897.got.cif
#   From: 2010.03.12/outbox.cif.g09.slc.cpg/sg65_25_cif.got.tgz:49897.got - 2010.04.10 20:52:16.
