data_PCOD8271877
_publ_section_title
;
Structure prediction by ZEFSAII (Michael W. Deem and Ramdas Pophale) SiO2 
 PCOD8271877
Probable space group: C M M M
;
_chemical_formula_sum "Si O2"
_cell_formula_units_Z 104
_cell_length_a 8.677626
_cell_length_b 19.634030
_cell_length_c 32.782555
_cell_angle_alpha 90.000000
_cell_angle_beta 90.000000
_cell_angle_gamma 90.000000
_cell_volume 5585.385807
_symmetry_space_group_name_H-M "C M M M"
_symmetry_group_IT_number 65
_symmetry_cell_setting 'orthorhombic'
loop_
_space_group_symop_operation_xyz
x,y,z
-x,-y,z
x,-y,-z
-x,y,-z
-x,-y,-z
x,y,-z
-x,y,z
x,-y,z
1/2+x,1/2+y,z
1/2-x,1/2-y,z
1/2+x,1/2-y,-z
1/2-x,1/2+y,-z
1/2-x,1/2-y,-z
1/2+x,1/2+y,-z
1/2-x,1/2+y,z
1/2+x,1/2-y,z
loop_
_atom_site_type_symbol
_atom_site_label
_atom_site_fract_x
_atom_site_fract_y
_atom_site_fract_z
Si Si1 0.178929 0.580020 0.583771
Si Si2 0.318765 0.821359 0.263814
Si Si3 0.320750 0.921794 0.884832
Si Si4 0.682151 0.821192 0.045690
Si Si5 0.173335 0.919202 0.500000
Si Si6 0.318232 0.678149 0.648805
Si Si7 0.178086 0.920574 0.799954
O O1 0.210607 0.500000 0.588968
O O2 0.236474 0.606677 0.539851
O O3 0.274661 0.618289 0.618154
O O4 0.000000 0.597624 0.588204
O O5 0.500000 0.813467 0.269010
O O6 0.250000 0.750000 0.247914
O O7 0.247087 0.841755 0.307111
O O8 0.281656 0.880197 0.231906
O O9 0.500000 0.908302 0.875742
O O10 0.260335 0.879407 0.923565
O O11 0.224807 0.898428 0.845467
O O12 0.289036 0.000000 0.895577
O O13 0.500000 0.815951 0.046033
O O14 0.750000 0.750000 0.061091
O O15 0.741986 0.838441 0.000000
O O16 0.000000 0.889414 0.500000
O O17 0.169263 0.000000 0.500000
O O18 0.500000 0.685096 0.651746
O O19 0.250000 0.750000 0.633459
O O20 0.000000 0.902976 0.792795
O O21 0.213020 0.000000 0.793382
#
# Coordination Sequence:
#
# PCOD8271877 Si02
#       7
#    16  16  16  16   8  16  16
#     4  10  20  35  56  82 111 144 183 224 267 317
#     4  11  22  38  59  81 107 139 177 218 263 316
#     4   9  18  33  52  74 101 134 172 213 258 308
#     4   9  18  32  50  73 101 133 169 211 258 307
#     4   9  17  31  52  79 110 143 180 223 271 319
#     4  11  22  38  58  80 110 144 179 220 268 319
#     4  10  21  37  56  79 108 140 175 217 264 313
#
# _framework density 18.620021999999999
#
# number of rings (size 3 to 8) (size 9 to 14) (size 15 to 20)
#    0.000    2.077    0.000    4.846    0.000    4.923 
#    0.000    3.462    0.000    0.000    0.000    4.308 
#    0.000    0.000    0.000    0.000    0.000    0.000 
#
# Total GULP energy -644970.853370 kJ/mol
# GULP energy per Si atom -12403.285642 kJ/mol
# Density = 1.857764 g / cm^3
# Si number density = 18.620022 Si / 1000 Ang^3
#
#
#
# Elastic Constant Matrix: (Units=GPa)
#
#
# Indices 1 2 3 4 5 6 
#
# 1 116.7301 42.9205 51.6871 0.0000 0.0000 0.0000
# 2 42.9205 78.9071 71.5250 0.0000 0.0000 0.0000
# 3 51.6871 71.5250 122.5155 0.0000 0.0000 0.0000
# 4 0.0000 0.0000 0.0000 -3.1490 0.0000 0.0000
# 5 0.0000 0.0000 0.0000 0.0000 32.5666 0.0000
# 6 0.0000 0.0000 0.0000 0.0000 0.0000 29.9755
#
#
#
# Elastic Compliance Matrix: (Units=1/GPa)
#
#
# Indices 1 2 3 4 5 6 
#
# 1 0.011043 -0.003789 -0.002447 0.000000 0.000000 0.000000
# 2 -0.003789 0.028217 -0.014875 0.000000 0.000000 0.000000
# 3 -0.002447 -0.014875 0.017879 0.000000 0.000000 0.000000
# 4 0.000000 0.000000 0.000000 -0.317565 0.000000 0.000000
# 5 0.000000 0.000000 0.000000 0.000000 0.030706 0.000000
# 6 0.000000 0.000000 0.000000 0.000000 0.000000 0.033361
#
#
# Mechanical properties :
#
#
# Convention : Reuss Voigt Hill
#
# Bulk Modulus (GPa) = 67.03426 72.26865 69.65146
# Shear Modulus (GPa) = -33.52002 22.01330 -5.75336
#
# Velocity S-wave (km/s) = -4.24750 3.44210 -1.75971
# Velocity P-wave (km/s) = 3.46762 7.39554 5.77574
#
# Compressibility (1/GPa) = 0.01491775
#
# Stress axis : x y z
#
# Youngs Moduli (GPa) = 90.55162 35.43927 55.93242
#
# Poissons Ratio (x) = 0.13427 0.13688
# Poissons Ratio (y) = 0.34307 0.83199
# Poissons Ratio (z) = 0.22159 0.52716
#
# Static dielectric constant tensor:
#      x y z
#    x 3.486340 0.000000 0.000000 
#    y 0.000000 3.311600 0.000000 
#    z 0.000000 0.000000 3.561290 
# 
# 
# High freq. dielectric constant tensor:
#      x y z
#    x 1.733010 0.000000 0.000000 
#    y 0.000000 1.711780 0.000000 
#    z 0.000000 0.000000 1.729680 
# 
# From -- ./inp_files/73303.got.cif
#   From: 2010.03.12/outbox.cif.g09.slc.cpg/sg65_37_cif.got.tgz:73303.got - 2010.04.10 20:52:16.
