data_PCOD8271544
_publ_section_title
;
Structure prediction by ZEFSAII (Michael W. Deem and Ramdas Pophale) SiO2 
 PCOD8271544
Probable space group: C M M M
;
_chemical_formula_sum "Si O2"
_cell_formula_units_Z 88
_cell_length_a 27.002976
_cell_length_b 18.898348
_cell_length_c 8.898318
_cell_angle_alpha 90.000000
_cell_angle_beta 90.000000
_cell_angle_gamma 90.000000
_cell_volume 4540.915229
_symmetry_space_group_name_H-M "C M M M"
_symmetry_group_IT_number 65
_symmetry_cell_setting 'orthorhombic'
loop_
_space_group_symop_operation_xyz
x,y,z
-x,-y,z
x,-y,-z
-x,y,-z
-x,-y,-z
x,y,-z
-x,y,z
x,-y,z
1/2+x,1/2+y,z
1/2-x,1/2-y,z
1/2+x,1/2-y,-z
1/2-x,1/2+y,-z
1/2-x,1/2-y,-z
1/2+x,1/2+y,-z
1/2-x,1/2+y,z
1/2+x,1/2-y,z
loop_
_atom_site_type_symbol
_atom_site_label
_atom_site_fract_x
_atom_site_fract_y
_atom_site_fract_z
Si Si1 0.000000 0.083699 0.170461
Si Si2 0.720876 0.916190 0.334101
Si Si3 0.388937 0.080958 0.677068
Si Si4 0.091645 0.842634 0.322685
Si Si5 0.681741 0.416713 0.827248
Si Si6 0.442349 0.204781 0.825765
O O1 0.048803 0.110275 0.251526
O O2 0.000000 0.000000 0.173089
O O3 0.000000 0.112873 0.000000
O O4 0.732805 0.885063 0.500000
O O5 0.666404 0.891543 0.280120
O O6 0.762902 0.891567 0.217313
O O7 0.719216 0.000000 0.346112
O O8 0.397706 0.088826 0.500000
O O9 0.428608 0.127240 0.766527
O O10 0.396813 0.000000 0.727774
O O11 0.085761 0.843827 0.500000
O O12 0.144061 0.875128 0.277604
O O13 0.089070 0.762457 0.265121
O O14 0.674995 0.500000 0.798703
O O15 0.672139 0.397172 0.000000
O O16 0.500000 0.219065 0.796353
O O17 0.428994 0.210592 0.000000
#
# Coordination Sequence:
#
# PCOD8271544 Si02
#       6
#     8  16  16  16  16  16
#     4  11  23  39  59  83 114 149 188 237 287 335
#     4   8  15  31  55  83 115 149 185 229 281 335
#     4   9  19  37  62  90 118 148 186 234 285 341
#     4  12  24  38  58  82 111 151 196 239 283 337
#     4  10  20  34  55  84 118 154 190 233 284 336
#     4  11  24  41  60  81 113 153 190 237 294 346
#
# _framework density 19.379353999999999
#
# number of rings (size 3 to 8) (size 9 to 14) (size 15 to 20)
#    0.000    1.909    0.909    4.636    0.000    6.545 
#    0.000    4.545    0.000    5.455    0.000    0.000 
#    0.000    0.000    0.000    0.000    0.000    0.000 
#
# Total GULP energy -545687.467403 kJ/mol
# GULP energy per Si atom -12401.987896 kJ/mol
# Density = 1.933525 g / cm^3
# Si number density = 19.379354 Si / 1000 Ang^3
#
#
#
# Elastic Constant Matrix: (Units=GPa)
#
#
# Indices 1 2 3 4 5 6 
#
# 1 48.9612 23.7787 37.7711 0.0000 0.0000 0.0000
# 2 23.7787 74.7280 47.2713 0.0000 0.0000 0.0000
# 3 37.7711 47.2713 125.5654 0.0000 0.0000 0.0000
# 4 0.0000 0.0000 0.0000 30.4407 0.0000 0.0000
# 5 0.0000 0.0000 0.0000 0.0000 36.0464 0.0000
# 6 0.0000 0.0000 0.0000 0.0000 0.0000 -23.7936
#
#
#
# Elastic Compliance Matrix: (Units=1/GPa)
#
#
# Indices 1 2 3 4 5 6 
#
# 1 0.027782 -0.004665 -0.006601 0.000000 0.000000 0.000000
# 2 -0.004665 0.018348 -0.005504 0.000000 0.000000 0.000000
# 3 -0.006601 -0.005504 0.012022 0.000000 0.000000 0.000000
# 4 0.000000 0.000000 0.000000 0.032851 0.000000 0.000000
# 5 0.000000 0.000000 0.000000 0.000000 0.027742 0.000000
# 6 0.000000 0.000000 0.000000 0.000000 0.000000 -0.042028
#
#
# Mechanical properties :
#
#
# Convention : Reuss Voigt Hill
#
# Bulk Modulus (GPa) = 40.63053 51.87743 46.25398
# Shear Modulus (GPa) = 42.20814 17.90095 30.05455
#
# Velocity S-wave (km/s) = 4.67196 3.04256 3.94236
# Velocity P-wave (km/s) = 7.07915 6.25863 6.68150
#
# Compressibility (1/GPa) = 0.02461204
#
# Stress axis : x y z
#
# Youngs Moduli (GPa) = 35.99435 54.50167 83.18238
#
# Poissons Ratio (x) = 0.25424 0.54908
# Poissons Ratio (y) = 0.16790 0.45786
# Poissons Ratio (z) = 0.23760 0.29999
#
# Static dielectric constant tensor:
#      x y z
#    x 3.755360 0.000000 0.000000 
#    y 0.000000 3.368320 0.000000 
#    z 0.000000 0.000000 3.579130 
# 
# 
# High freq. dielectric constant tensor:
#      x y z
#    x 1.761430 0.000000 0.000000 
#    y 0.000000 1.736920 0.000000 
#    z 0.000000 0.000000 1.759380 
# 
# From -- ./inp_files/18291.got.cif
#   From: 2010.03.12/outbox.cif.g09.slc.cpg/sg65_10_cif.got.tgz:18291.got - 2010.04.10 20:52:16.
