data_PCOD8271545
_publ_section_title
;
Structure prediction by ZEFSAII (Michael W. Deem and Ramdas Pophale) SiO2 
 PCOD8271545
Probable space group: C M M M
;
_chemical_formula_sum "Si O2"
_cell_formula_units_Z 80
_cell_length_a 28.706731
_cell_length_b 15.606274
_cell_length_c 8.957431
_cell_angle_alpha 90.000000
_cell_angle_beta 90.000000
_cell_angle_gamma 90.000000
_cell_volume 4012.974857
_symmetry_space_group_name_H-M "C M M M"
_symmetry_group_IT_number 65
_symmetry_cell_setting 'orthorhombic'
loop_
_space_group_symop_operation_xyz
x,y,z
-x,-y,z
x,-y,-z
-x,y,-z
-x,-y,-z
x,y,-z
-x,y,z
x,-y,z
1/2+x,1/2+y,z
1/2-x,1/2-y,z
1/2+x,1/2-y,-z
1/2-x,1/2+y,-z
1/2-x,1/2-y,-z
1/2+x,1/2+y,-z
1/2-x,1/2+y,z
1/2+x,1/2-y,z
loop_
_atom_site_type_symbol
_atom_site_label
_atom_site_fract_x
_atom_site_fract_y
_atom_site_fract_z
Si Si1 0.859415 0.404224 0.171590
Si Si2 0.052353 0.833298 0.827834
Si Si3 0.135862 0.094883 0.327975
Si Si4 0.447418 0.153574 0.674785
Si Si5 0.697295 0.754334 0.676580
O O1 0.838545 0.500000 0.188867
O O2 0.911349 0.406829 0.239900
O O3 0.826789 0.337575 0.255764
O O4 0.862611 0.376594 0.000000
O O5 0.088807 0.903340 0.769956
O O6 0.060781 0.749888 0.728502
O O7 0.000000 0.869089 0.806292
O O8 0.061783 0.810465 0.000000
O O9 0.122779 0.111185 0.500000
O O10 0.171999 0.166861 0.271319
O O11 0.158039 0.000000 0.306979
O O12 0.436924 0.149481 0.500000
O O13 0.500000 0.122877 0.710842
O O14 0.695843 0.764459 0.500000
O O15 0.750000 0.750000 0.736028
#
# Coordination Sequence:
#
# PCOD8271545 Si02
#       5
#    16  16  16  16  16
#     4  11  24  40  60  89 124 160 198 242 295 354
#     4  10  20  34  55  84 118 156 196 238 288 346
#     4  10  21  37  58  86 119 154 194 240 293 351
#     4  10  20  35  58  87 119 157 200 244 293 349
#     4  10  22  41  65  90 116 151 197 249 301 352
#
# _framework density 19.935336
#
# number of rings (size 3 to 8) (size 9 to 14) (size 15 to 20)
#    0.000    1.800    2.000    1.800    0.000    6.400 
#    0.000    6.000    0.000    0.000    0.000    0.000 
#    0.000    0.000    0.000    0.000    0.000    0.000 
#
# Total GULP energy -496039.374046 kJ/mol
# GULP energy per Si atom -12400.984351 kJ/mol
# Density = 1.988996 g / cm^3
# Si number density = 19.935336 Si / 1000 Ang^3
#
#
#
# Elastic Constant Matrix: (Units=GPa)
#
#
# Indices 1 2 3 4 5 6 
#
# 1 133.8003 61.7834 38.6236 0.0000 0.0000 0.0000
# 2 61.7834 117.0325 27.0147 0.0000 0.0000 0.0000
# 3 38.6236 27.0147 44.2168 0.0000 0.0000 0.0000
# 4 0.0000 0.0000 0.0000 26.6450 0.0000 0.0000
# 5 0.0000 0.0000 0.0000 0.0000 20.5552 0.0000
# 6 0.0000 0.0000 0.0000 0.0000 0.0000 13.1945
#
#
#
# Elastic Compliance Matrix: (Units=1/GPa)
#
#
# Indices 1 2 3 4 5 6 
#
# 1 0.011688 -0.004440 -0.007497 0.000000 0.000000 0.000000
# 2 -0.004440 0.011634 -0.003230 0.000000 0.000000 0.000000
# 3 -0.007497 -0.003230 0.031138 0.000000 0.000000 0.000000
# 4 0.000000 0.000000 0.000000 0.037530 0.000000 0.000000
# 5 0.000000 0.000000 0.000000 0.000000 0.048650 0.000000
# 6 0.000000 0.000000 0.000000 0.000000 0.000000 0.075789
#
#
# Mechanical properties :
#
#
# Convention : Reuss Voigt Hill
#
# Bulk Modulus (GPa) = 41.44786 61.09922 51.27354
# Shear Modulus (GPa) = 19.62292 23.25415 21.43853
#
# Velocity S-wave (km/s) = 3.14080 3.41908 3.28289
# Velocity P-wave (km/s) = 5.83002 6.80456 6.33606
#
# Compressibility (1/GPa) = 0.02412670
#
# Stress axis : x y z
#
# Youngs Moduli (GPa) = 85.55735 85.95506 32.11531
#
# Poissons Ratio (x) = 0.38162 0.24077
# Poissons Ratio (y) = 0.37985 0.10372
# Poissons Ratio (z) = 0.64143 0.27761
#
# Static dielectric constant tensor:
#      x y z
#    x 3.760750 0.000000 0.000000 
#    y 0.000000 3.501620 0.000000 
#    z 0.000000 0.000000 3.598200 
# 
# 
# High freq. dielectric constant tensor:
#      x y z
#    x 1.773500 0.000000 0.000000 
#    y 0.000000 1.774490 0.000000 
#    z 0.000000 0.000000 1.779060 
# 
# From -- ./inp_files/16041.got.cif
#   From: 2010.03.12/outbox.cif.g09.slc.cpg/sg65_9_cif.got.tgz:16041.got - 2010.04.10 20:52:16.
