data_PCOD8271052
_publ_section_title
;
Structure prediction by ZEFSAII (Michael W. Deem and Ramdas Pophale) SiO2 
 PCOD8271052
Probable space group: C M M M
;
_chemical_formula_sum "Si O2"
_cell_formula_units_Z 80
_cell_length_a 9.005986
_cell_length_b 26.041918
_cell_length_c 18.195050
_cell_angle_alpha 90.000000
_cell_angle_beta 90.000000
_cell_angle_gamma 90.000000
_cell_volume 4267.342371
_symmetry_space_group_name_H-M "C M M M"
_symmetry_group_IT_number 65
_symmetry_cell_setting 'orthorhombic'
loop_
_space_group_symop_operation_xyz
x,y,z
-x,-y,z
x,-y,-z
-x,y,-z
-x,-y,-z
x,y,-z
-x,y,z
x,-y,z
1/2+x,1/2+y,z
1/2-x,1/2-y,z
1/2+x,1/2-y,-z
1/2-x,1/2+y,-z
1/2-x,1/2-y,-z
1/2+x,1/2+y,-z
1/2-x,1/2+y,z
1/2+x,1/2-y,z
loop_
_atom_site_type_symbol
_atom_site_label
_atom_site_fract_x
_atom_site_fract_y
_atom_site_fract_z
Si Si1 0.674419 0.098032 0.415172
Si Si2 0.823562 0.500000 0.159903
Si Si3 0.831925 0.699404 0.912500
Si Si4 0.333076 0.700188 0.587559
Si Si5 0.675904 0.000000 0.672002
Si Si6 0.829266 0.096658 0.087089
O O1 0.714423 0.087848 0.500000
O O2 0.500000 0.105530 0.404466
O O3 0.752067 0.149062 0.384207
O O4 0.738238 0.050489 0.368513
O O5 0.771437 0.500000 0.244213
O O6 0.759893 0.449864 0.121760
O O7 0.000000 0.500000 0.151893
O O8 0.750000 0.750000 0.881468
O O9 0.743425 0.649514 0.884412
O O10 0.000000 0.697773 0.882024
O O11 0.832919 0.700842 0.000000
O O12 0.329639 0.701796 0.500000
O O13 0.500000 0.700383 0.617860
O O14 0.250000 0.750000 0.619896
O O15 0.500000 0.000000 0.664868
O O16 0.000000 0.095070 0.112483
O O17 0.816217 0.091977 0.000000
#
# Coordination Sequence:
#
# PCOD8271052 Si02
#       6
#    16   8  16  16   8  16
#     4   9  16  29  51  75  98 127 163 200 238 284
#     4  11  22  35  51  71  98 131 166 206 252 299
#     4   9  16  27  46  74 105 133 161 196 241 291
#     4   9  16  26  42  68 100 129 158 195 240 287
#     4   9  19  34  51  72  98 129 164 202 244 291
#     4  10  20  34  52  74 100 130 166 207 247 290
#
# _framework density 18.747031
#
# number of rings (size 3 to 8) (size 9 to 14) (size 15 to 20)
#    0.000    2.600    0.000    2.700    0.000    8.400 
#    0.000    2.500    0.000    3.600    0.000    5.600 
#    0.000    0.000    0.000    0.000    0.000    0.000 
#
# Total GULP energy -496017.871801 kJ/mol
# GULP energy per Si atom -12400.446795 kJ/mol
# Density = 1.870436 g / cm^3
# Si number density = 18.747031 Si / 1000 Ang^3
#
#
#
# Elastic Constant Matrix: (Units=GPa)
#
#
# Indices 1 2 3 4 5 6 
#
# 1 121.1810 80.3155 29.2257 0.0000 0.0000 0.0000
# 2 80.3155 203.3131 39.5098 0.0000 0.0000 0.0000
# 3 29.2257 39.5098 29.7038 0.0000 0.0000 0.0000
# 4 0.0000 0.0000 0.0000 16.8334 0.0000 0.0000
# 5 0.0000 0.0000 0.0000 0.0000 11.1949 0.0000
# 6 0.0000 0.0000 0.0000 0.0000 0.0000 39.4529
#
#
#
# Elastic Compliance Matrix: (Units=1/GPa)
#
#
# Indices 1 2 3 4 5 6 
#
# 1 0.012340 -0.003392 -0.007630 0.000000 0.000000 0.000000
# 2 -0.003392 0.007566 -0.006725 0.000000 0.000000 0.000000
# 3 -0.007630 -0.006725 0.050118 0.000000 0.000000 0.000000
# 4 0.000000 0.000000 0.000000 0.059406 0.000000 0.000000
# 5 0.000000 0.000000 0.000000 0.000000 0.089327 0.000000
# 6 0.000000 0.000000 0.000000 0.000000 0.000000 0.025347
#
#
# Mechanical properties :
#
#
# Convention : Reuss Voigt Hill
#
# Bulk Modulus (GPa) = 28.96080 72.47779 50.71929
# Shear Modulus (GPa) = 17.17574 27.17268 22.17421
#
# Velocity S-wave (km/s) = 3.03014 3.81128 3.44293
# Velocity P-wave (km/s) = 5.26536 7.62317 6.55121
#
# Compressibility (1/GPa) = 0.03452943
#
# Stress axis : x y z
#
# Youngs Moduli (GPa) = 81.03405 132.17859 19.95276
#
# Poissons Ratio (x) = 0.44838 0.15224
# Poissons Ratio (y) = 0.27488 0.13419
# Poissons Ratio (z) = 0.61827 0.88896
#
# Static dielectric constant tensor:
#      x y z
#    x 3.505080 0.000000 0.000000 
#    y 0.000000 3.156810 0.000000 
#    z 0.000000 0.000000 2.993150 
# 
# 
# High freq. dielectric constant tensor:
#      x y z
#    x 1.729610 0.000000 0.000000 
#    y 0.000000 1.749950 0.000000 
#    z 0.000000 0.000000 1.672610 
# 
# From -- ./inp_files/59690.got.cif
#   From: 2010.03.12/outbox.cif.g09.slc.cpg/sg65_30_cif.got.tgz:59690.got - 2010.04.10 20:52:16.
