data_PCOD8271658
_publ_section_title
;
Structure prediction by ZEFSAII (Michael W. Deem and Ramdas Pophale) SiO2 
 PCOD8271658
Probable space group: C M M M
;
_chemical_formula_sum "Si O2"
_cell_formula_units_Z 88
_cell_length_a 19.546677
_cell_length_b 8.721122
_cell_length_c 28.671515
_cell_angle_alpha 90.000000
_cell_angle_beta 90.000000
_cell_angle_gamma 90.000000
_cell_volume 4887.603195
_symmetry_space_group_name_H-M "C M M M"
_symmetry_group_IT_number 65
_symmetry_cell_setting 'orthorhombic'
loop_
_space_group_symop_operation_xyz
x,y,z
-x,-y,z
x,-y,-z
-x,y,-z
-x,-y,-z
x,y,-z
-x,y,z
x,-y,z
1/2+x,1/2+y,z
1/2-x,1/2-y,z
1/2+x,1/2-y,-z
1/2-x,1/2+y,-z
1/2-x,1/2-y,-z
1/2+x,1/2+y,-z
1/2-x,1/2+y,z
1/2+x,1/2-y,z
loop_
_atom_site_type_symbol
_atom_site_label
_atom_site_fract_x
_atom_site_fract_y
_atom_site_fract_z
Si Si1 0.918839 0.672292 0.549255
Si Si2 0.677380 0.319014 0.274443
Si Si3 0.420098 0.818915 0.650304
Si Si4 0.322844 0.817739 0.175781
Si Si5 0.081263 0.173069 0.000000
Si Si6 0.577340 0.819113 0.905617
O O1 0.895106 0.755063 0.500000
O O2 0.890410 0.500000 0.547527
O O3 0.895347 0.743958 0.598847
O O4 0.000000 0.667888 0.550693
O O5 0.684776 0.500000 0.269205
O O6 0.750000 0.250000 0.290089
O O7 0.620824 0.278250 0.312287
O O8 0.653429 0.248090 0.225410
O O9 0.500000 0.786272 0.658253
O O10 0.404913 0.000000 0.655110
O O11 0.250000 0.750000 0.160881
O O12 0.377748 0.762299 0.137776
O O13 0.317996 0.000000 0.179119
O O14 0.109660 0.253273 0.046658
O O15 0.000000 0.187178 0.000000
O O16 0.107411 0.000000 0.000000
O O17 0.500000 0.758727 0.897759
O O18 0.578461 0.000000 0.909890
#
# Coordination Sequence:
#
# PCOD8271658 Si02
#       6
#    16  16  16  16   8  16
#     4   7  10  19  39  68  98 126 157 193 235 285
#     4  11  22  36  53  71  96 131 169 207 249 299
#     4   9  17  30  50  76 104 131 161 201 246 292
#     4  10  20  35  54  74  97 127 163 202 247 296
#     4   9  17  29  48  75 104 131 159 195 238 281
#     4   9  18  33  53  75  99 129 163 197 235 283
#
# _framework density 18.004735
#
# number of rings (size 3 to 8) (size 9 to 14) (size 15 to 20)
#    0.000    2.818    0.000    5.182    0.000    3.636 
#    0.000    2.273    0.000    1.091    0.000    2.545 
#    0.000    0.000    0.000    0.000    0.000    0.000 
#
# Total GULP energy -545163.821537 kJ/mol
# GULP energy per Si atom -12390.086853 kJ/mol
# Density = 1.796376 g / cm^3
# Si number density = 18.004735 Si / 1000 Ang^3
#
#
#
# Elastic Constant Matrix: (Units=GPa)
#
#
# Indices 1 2 3 4 5 6 
#
# 1 60.6460 27.5311 73.5577 0.0000 0.0000 0.0000
# 2 27.5311 60.8638 47.2243 0.0000 0.0000 0.0000
# 3 73.5577 47.2243 175.8541 0.0000 0.0000 0.0000
# 4 0.0000 0.0000 0.0000 20.2477 0.0000 0.0000
# 5 0.0000 0.0000 0.0000 0.0000 0.2992 0.0000
# 6 0.0000 0.0000 0.0000 0.0000 0.0000 23.1485
#
#
#
# Elastic Compliance Matrix: (Units=1/GPa)
#
#
# Indices 1 2 3 4 5 6 
#
# 1 0.034938 -0.005640 -0.013100 0.000000 0.000000 0.000000
# 2 -0.005640 0.021665 -0.003459 0.000000 0.000000 0.000000
# 3 -0.013100 -0.003459 0.012095 0.000000 0.000000 0.000000
# 4 0.000000 0.000000 0.000000 0.049388 0.000000 0.000000
# 5 0.000000 0.000000 0.000000 0.000000 3.342681 0.000000
# 6 0.000000 0.000000 0.000000 0.000000 0.000000 0.043199
#
#
# Mechanical properties :
#
#
# Convention : Reuss Voigt Hill
#
# Bulk Modulus (GPa) = 41.15041 65.99890 53.57466
# Shear Modulus (GPa) = 1.40589 18.67579 10.04084
#
# Velocity S-wave (km/s) = 0.88461 3.22416 2.36408
# Velocity P-wave (km/s) = 4.89370 7.11311 6.10511
#
# Compressibility (1/GPa) = 0.02430109
#
# Stress axis : x y z
#
# Youngs Moduli (GPa) = 28.62220 46.15735 82.68022
#
# Poissons Ratio (x) = 0.26032 1.08308
# Poissons Ratio (y) = 0.16142 0.28598
# Poissons Ratio (z) = 0.37494 0.15965
#
# Static dielectric constant tensor:
#      x y z
#    x 3.076610 0.000000 0.000000 
#    y 0.000000 3.124890 0.000000 
#    z 0.000000 0.000000 3.832580 
# 
# 
# High freq. dielectric constant tensor:
#      x y z
#    x 1.659570 0.000000 0.000000 
#    y 0.000000 1.678030 0.000000 
#    z 0.000000 0.000000 1.722080 
# 
# From -- ./inp_files/75374.got.cif
#   From: 2010.03.12/outbox.cif.g09.slc.cpg/sg65_38_cif.got.tgz:75374.got - 2010.04.10 20:52:16.
