data_PCOD8271119
_publ_section_title
;
Structure prediction by ZEFSAII (Michael W. Deem and Ramdas Pophale) SiO2 
 PCOD8271119
Probable space group: C M M M
;
_chemical_formula_sum "Si O2"
_cell_formula_units_Z 104
_cell_length_a 9.622727
_cell_length_b 18.210726
_cell_length_c 31.227390
_cell_angle_alpha 90.000000
_cell_angle_beta 90.000000
_cell_angle_gamma 90.000000
_cell_volume 5472.189294
_symmetry_space_group_name_H-M "C M M M"
_symmetry_group_IT_number 65
_symmetry_cell_setting 'orthorhombic'
loop_
_space_group_symop_operation_xyz
x,y,z
-x,-y,z
x,-y,-z
-x,y,-z
-x,-y,-z
x,y,-z
-x,y,z
x,-y,z
1/2+x,1/2+y,z
1/2-x,1/2-y,z
1/2+x,1/2-y,-z
1/2-x,1/2+y,-z
1/2-x,1/2-y,-z
1/2+x,1/2+y,-z
1/2-x,1/2+y,z
1/2+x,1/2-y,z
loop_
_atom_site_type_symbol
_atom_site_label
_atom_site_fract_x
_atom_site_fract_y
_atom_site_fract_z
Si Si1 0.500000 0.412409 0.547116
Si Si2 0.838533 0.678962 0.756138
Si Si3 0.753714 0.087419 0.396565
Si Si4 0.840631 0.914597 0.916034
Si Si5 0.341105 0.587077 0.304300
Si Si6 0.838839 0.678810 0.856716
Si Si7 0.000000 0.587710 0.548963
Si Si8 0.660220 0.677137 0.000000
O O1 0.500000 0.500000 0.544312
O O2 0.500000 0.377776 0.500000
O O3 0.372289 0.381896 0.573255
O O4 0.750000 0.750000 0.742682
O O5 0.761959 0.611203 0.733501
O O6 0.830019 0.664717 0.806437
O O7 0.000000 0.686404 0.741689
O O8 0.775648 0.118281 0.348601
O O9 0.622764 0.118405 0.421774
O O10 0.751918 0.000000 0.394051
O O11 0.733273 0.890618 0.879161
O O12 0.000000 0.899293 0.901617
O O13 0.817980 0.000000 0.925394
O O14 0.802580 0.870959 0.958806
O O15 0.500000 0.616025 0.298115
O O16 0.343585 0.500000 0.304838
O O17 0.750000 0.750000 0.870477
O O18 0.000000 0.688184 0.871182
O O19 0.000000 0.500000 0.545879
O O20 0.000000 0.618789 0.500000
O O21 0.750000 0.750000 0.000000
O O22 0.500000 0.700632 0.000000
#
# Coordination Sequence:
#
# PCOD8271119 Si02
#       8
#     8  16  16  16  16  16   8   8
#     4   9  14  22  38  58  87 129 171 207 249 306
#     4  10  22  39  59  81 107 140 180 227 275 326
#     4   9  16  26  39  61  94 131 169 209 257 312
#     4  10  21  37  58  84 117 155 192 233 282 333
#     4  10  20  34  52  76 108 143 177 218 268 324
#     4  10  21  38  59  83 110 142 182 229 279 332
#     4   9  16  24  36  58  91 131 171 211 257 310
#     4  10  21  37  57  83 115 154 201 244 282 330
#
# _framework density 19.005192000000001
#
# number of rings (size 3 to 8) (size 9 to 14) (size 15 to 20)
#    0.000    2.308    0.769    2.077    1.077    7.692 
#    0.000    3.077    0.000    1.385    0.000    0.000 
#    0.000    3.692    0.000    0.000    0.000    0.000 
#
# Total GULP energy -644514.138997 kJ/mol
# GULP energy per Si atom -12394.502673 kJ/mol
# Density = 1.896194 g / cm^3
# Si number density = 19.005192 Si / 1000 Ang^3
#
#
#
# Elastic Constant Matrix: (Units=GPa)
#
#
# Indices 1 2 3 4 5 6 
#
# 1 171.4477 46.9629 64.9452 0.0000 0.0000 0.0000
# 2 46.9629 62.6418 37.6745 0.0000 0.0000 0.0000
# 3 64.9452 37.6745 82.3197 0.0000 0.0000 0.0000
# 4 0.0000 0.0000 0.0000 7.7976 0.0000 0.0000
# 5 0.0000 0.0000 0.0000 0.0000 32.9998 0.0000
# 6 0.0000 0.0000 0.0000 0.0000 0.0000 27.7727
#
#
#
# Elastic Compliance Matrix: (Units=1/GPa)
#
#
# Indices 1 2 3 4 5 6 
#
# 1 0.008798 -0.003341 -0.005412 0.000000 0.000000 0.000000
# 2 -0.003341 0.023295 -0.008026 0.000000 0.000000 0.000000
# 3 -0.005412 -0.008026 0.020090 0.000000 0.000000 0.000000
# 4 0.000000 0.000000 0.000000 0.128245 0.000000 0.000000
# 5 0.000000 0.000000 0.000000 0.000000 0.030303 0.000000
# 6 0.000000 0.000000 0.000000 0.000000 0.000000 0.036007
#
#
# Mechanical properties :
#
#
# Convention : Reuss Voigt Hill
#
# Bulk Modulus (GPa) = 53.68633 68.39714 61.04173
# Shear Modulus (GPa) = 17.45176 24.83581 21.14379
#
# Velocity S-wave (km/s) = 3.03357 3.61888 3.33907
# Velocity P-wave (km/s) = 6.37022 7.31632 6.85960
#
# Compressibility (1/GPa) = 0.01862672
#
# Stress axis : x y z
#
# Youngs Moduli (GPa) = 113.66329 42.92724 49.77482
#
# Poissons Ratio (x) = 0.14342 0.26938
# Poissons Ratio (y) = 0.37974 0.39947
# Poissons Ratio (z) = 0.61515 0.34451
#
# Static dielectric constant tensor:
#      x y z
#    x 3.729950 0.000000 0.000000 
#    y 0.000000 3.038960 0.000000 
#    z 0.000000 0.000000 3.592250 
# 
# 
# High freq. dielectric constant tensor:
#      x y z
#    x 1.753970 0.000000 0.000000 
#    y 0.000000 1.694770 0.000000 
#    z 0.000000 0.000000 1.749880 
# 
# From -- ./inp_files/76971.got.cif
#   From: 2010.03.12/outbox.cif.g09.slc.cpg/sg65_39_cif.got.tgz:76971.got - 2010.04.10 20:52:16.
