data_PCOD8271252
_publ_section_title
;
Structure prediction by ZEFSAII (Michael W. Deem and Ramdas Pophale) SiO2 
 PCOD8271252
Probable space group: C M M M
;
_chemical_formula_sum "Si O2"
_cell_formula_units_Z 104
_cell_length_a 8.998964
_cell_length_b 19.829833
_cell_length_c 32.623921
_cell_angle_alpha 90.000000
_cell_angle_beta 90.000000
_cell_angle_gamma 90.000000
_cell_volume 5821.671931
_symmetry_space_group_name_H-M "C M M M"
_symmetry_group_IT_number 65
_symmetry_cell_setting 'orthorhombic'
loop_
_space_group_symop_operation_xyz
x,y,z
-x,-y,z
x,-y,-z
-x,y,-z
-x,-y,-z
x,y,-z
-x,y,z
x,-y,z
1/2+x,1/2+y,z
1/2-x,1/2-y,z
1/2+x,1/2-y,-z
1/2-x,1/2+y,-z
1/2-x,1/2-y,-z
1/2+x,1/2+y,-z
1/2-x,1/2+y,z
1/2+x,1/2-y,z
loop_
_atom_site_type_symbol
_atom_site_label
_atom_site_fract_x
_atom_site_fract_y
_atom_site_fract_z
Si Si1 0.173759 0.579270 0.582366
Si Si2 0.826381 0.817914 0.262993
Si Si3 0.325059 0.923375 0.886242
Si Si4 0.674941 0.818768 0.046386
Si Si5 0.167688 0.920029 0.500000
Si Si6 0.324279 0.680210 0.642900
Si Si7 0.175106 0.923568 0.803402
O O1 0.202045 0.500000 0.588745
O O2 0.244406 0.605507 0.539886
O O3 0.255071 0.617703 0.618877
O O4 0.000000 0.596437 0.581979
O O5 0.750000 0.750000 0.247283
O O6 0.783816 0.833680 0.309824
O O7 0.769411 0.879289 0.234927
O O8 0.000000 0.806973 0.258155
O O9 0.500000 0.917734 0.880322
O O10 0.269478 0.878870 0.924414
O O11 0.249617 0.896057 0.844858
O O12 0.275375 0.000000 0.895227
O O13 0.500000 0.808852 0.049469
O O14 0.750000 0.750000 0.061430
O O15 0.723743 0.836665 0.000000
O O16 0.000000 0.890563 0.500000
O O17 0.163124 0.000000 0.500000
O O18 0.500000 0.684121 0.635242
O O19 0.250000 0.750000 0.628007
O O20 0.000000 0.918556 0.809119
O O21 0.226325 0.000000 0.794535
#
# Coordination Sequence:
#
# PCOD8271252 Si02
#       7
#    16  16  16  16   8  16  16
#     4  10  20  34  53  78 107 137 170 209 253 300
#     4   9  19  34  52  73  97 128 164 202 243 290
#     4   9  18  32  49  70  95 123 157 196 238 284
#     4   9  18  32  49  69  94 124 157 195 238 283
#     4   9  17  31  52  77 104 135 172 211 251 297
#     4  10  20  35  54  75 102 135 170 209 253 300
#     4   9  18  33  51  71  97 128 161 198 241 287
#
# _framework density 17.864284000000001
#
# number of rings (size 3 to 8) (size 9 to 14) (size 15 to 20)
#    0.000    2.692    0.000    1.154    0.000    5.231 
#    0.000    6.538    0.000    1.846    0.000    4.308 
#    0.000    0.000    0.000    0.000    0.000    0.000 
#
# Total GULP energy -644872.904066 kJ/mol
# GULP energy per Si atom -12401.402001 kJ/mol
# Density = 1.782362 g / cm^3
# Si number density = 17.864284 Si / 1000 Ang^3
#
#
#
# Elastic Constant Matrix: (Units=GPa)
#
#
# Indices 1 2 3 4 5 6 
#
# 1 62.6656 42.6887 46.6875 0.0000 0.0000 0.0000
# 2 42.6887 97.6347 79.1192 0.0000 0.0000 0.0000
# 3 46.6875 79.1192 124.1084 0.0000 0.0000 0.0000
# 4 0.0000 0.0000 0.0000 23.2063 0.0000 0.0000
# 5 0.0000 0.0000 0.0000 0.0000 31.3473 0.0000
# 6 0.0000 0.0000 0.0000 0.0000 0.0000 29.7389
#
#
#
# Elastic Compliance Matrix: (Units=1/GPa)
#
#
# Indices 1 2 3 4 5 6 
#
# 1 0.024060 -0.006589 -0.004850 0.000000 0.000000 0.000000
# 2 -0.006589 0.022993 -0.012179 0.000000 0.000000 0.000000
# 3 -0.004850 -0.012179 0.017646 0.000000 0.000000 0.000000
# 4 0.000000 0.000000 0.000000 0.043092 0.000000 0.000000
# 5 0.000000 0.000000 0.000000 0.000000 0.031901 0.000000
# 6 0.000000 0.000000 0.000000 0.000000 0.000000 0.033626
#
#
# Mechanical properties :
#
#
# Convention : Reuss Voigt Hill
#
# Bulk Modulus (GPa) = 57.26832 69.04438 63.15635
# Shear Modulus (GPa) = 22.08722 24.58606 23.33664
#
# Velocity S-wave (km/s) = 3.52005 3.71383 3.61824
# Velocity P-wave (km/s) = 6.97481 7.55800 7.27226
#
# Compressibility (1/GPa) = 0.01746166
#
# Stress axis : x y z
#
# Youngs Moduli (GPa) = 41.56280 43.49203 56.66916
#
# Poissons Ratio (x) = 0.28658 0.27486
# Poissons Ratio (y) = 0.27387 0.69018
# Poissons Ratio (z) = 0.20159 0.52969
#
# Static dielectric constant tensor:
#      x y z
#    x 3.298730 0.000000 0.000000 
#    y 0.000000 3.333820 0.000000 
#    z 0.000000 0.000000 3.482010 
# 
# 
# High freq. dielectric constant tensor:
#      x y z
#    x 1.692360 0.000000 0.000000 
#    y 0.000000 1.682320 0.000000 
#    z 0.000000 0.000000 1.695860 
# 
# From -- ./inp_files/73302.got.cif
#   From: 2010.03.12/outbox.cif.g09.slc.cpg/sg65_37_cif.got.tgz:73302.got - 2010.04.10 20:52:16.
