data_PCOD8271841
_publ_section_title
;
Structure prediction by ZEFSAII (Michael W. Deem and Ramdas Pophale) SiO2 
 PCOD8271841
Probable space group: C M M M
;
_chemical_formula_sum "Si O2"
_cell_formula_units_Z 88
_cell_length_a 14.576709
_cell_length_b 14.924661
_cell_length_c 19.695932
_cell_angle_alpha 90.000000
_cell_angle_beta 90.000000
_cell_angle_gamma 90.000000
_cell_volume 4284.898071
_symmetry_space_group_name_H-M "C M M M"
_symmetry_group_IT_number 65
_symmetry_cell_setting 'orthorhombic'
loop_
_space_group_symop_operation_xyz
x,y,z
-x,-y,z
x,-y,-z
-x,y,-z
-x,-y,-z
x,y,-z
-x,y,z
x,-y,z
1/2+x,1/2+y,z
1/2-x,1/2-y,z
1/2+x,1/2-y,-z
1/2-x,1/2+y,-z
1/2-x,1/2-y,-z
1/2+x,1/2+y,-z
1/2-x,1/2+y,z
1/2+x,1/2-y,z
loop_
_atom_site_type_symbol
_atom_site_label
_atom_site_fract_x
_atom_site_fract_y
_atom_site_fract_z
Si Si1 0.726466 0.152400 0.800809
Si Si2 0.102471 0.097735 0.128183
Si Si3 0.399671 0.097675 0.681443
Si Si4 0.500000 0.398788 0.579841
Si Si5 0.105335 0.710707 0.075957
Si Si6 0.857768 0.250015 0.421599
O O1 0.750000 0.250000 0.772608
O O2 0.821448 0.099568 0.812509
O O3 0.672006 0.104064 0.742144
O O4 0.668818 0.158297 0.870970
O O5 0.121243 0.181463 0.078411
O O6 0.000000 0.107996 0.160073
O O7 0.109562 0.000000 0.091139
O O8 0.500000 0.105951 0.715346
O O9 0.395724 0.169102 0.621990
O O10 0.385460 0.000000 0.647715
O O11 0.500000 0.500000 0.612489
O O12 0.500000 0.411276 0.500000
O O13 0.408207 0.342733 0.601448
O O14 0.000000 0.687121 0.092160
O O15 0.131813 0.679565 0.000000
O O16 0.881271 0.268780 0.500000
O O17 0.750000 0.250000 0.408511
#
# Coordination Sequence:
#
# PCOD8271841 Si02
#       6
#    16  16  16   8  16  16
#     4  10  20  35  56  80 109 149 191 242 292 355
#     4   9  18  32  51  77 108 140 179 235 298 355
#     4  11  23  38  59  86 116 155 199 243 295 356
#     4   9  18  36  63  93 125 161 201 246 300 362
#     4   9  18  33  54  79 105 140 187 236 294 356
#     4  10  21  39  63  93 125 159 199 248 301 360
#
# _framework density 20.537244000000001
#
# number of rings (size 3 to 8) (size 9 to 14) (size 15 to 20)
#    0.000    2.273    0.909    1.636    0.000    5.455 
#    0.000    4.545    0.000    2.727    0.000    6.364 
#    0.000    0.000    0.000    0.000    0.000    0.000 
#
# Total GULP energy -545193.500622 kJ/mol
# GULP energy per Si atom -12390.761378 kJ/mol
# Density = 2.049050 g / cm^3
# Si number density = 20.537244 Si / 1000 Ang^3
#
#
#
# Elastic Constant Matrix: (Units=GPa)
#
#
# Indices 1 2 3 4 5 6 
#
# 1 138.4834 50.3364 40.7831 0.0000 0.0000 0.0000
# 2 50.3364 121.6484 43.1804 0.0000 0.0000 0.0000
# 3 40.7831 43.1804 69.1071 0.0000 0.0000 0.0000
# 4 0.0000 0.0000 0.0000 3.8124 0.0000 0.0000
# 5 0.0000 0.0000 0.0000 0.0000 -40.4328 0.0000
# 6 0.0000 0.0000 0.0000 0.0000 0.0000 21.2447
#
#
#
# Elastic Compliance Matrix: (Units=1/GPa)
#
#
# Indices 1 2 3 4 5 6 
#
# 1 0.009269 -0.002433 -0.003949 0.000000 0.000000 0.000000
# 2 -0.002433 0.011202 -0.005563 0.000000 0.000000 0.000000
# 3 -0.003949 -0.005563 0.020277 0.000000 0.000000 0.000000
# 4 0.000000 0.000000 0.000000 0.262300 0.000000 0.000000
# 5 0.000000 0.000000 0.000000 0.000000 -0.024732 0.000000
# 6 0.000000 0.000000 0.000000 0.000000 0.000000 0.047071
#
#
# Mechanical properties :
#
#
# Convention : Reuss Voigt Hill
#
# Bulk Modulus (GPa) = 59.32734 66.42651 62.87692
# Shear Modulus (GPa) = 14.08857 9.92080 12.00469
#
# Velocity S-wave (km/s) = 2.62200 2.20026 2.42033
# Velocity P-wave (km/s) = 6.17389 6.23454 6.20429
#
# Compressibility (1/GPa) = 0.01685564
#
# Stress axis : x y z
#
# Youngs Moduli (GPa) = 107.89048 89.26903 49.31642
#
# Poissons Ratio (x) = 0.21722 0.19477
# Poissons Ratio (y) = 0.26254 0.27437
# Poissons Ratio (z) = 0.42610 0.49664
#
# Static dielectric constant tensor:
#      x y z
#    x 5.116710 0.000000 0.000000 
#    y 0.000000 3.810090 0.000000 
#    z 0.000000 0.000000 3.335320 
# 
# 
# High freq. dielectric constant tensor:
#      x y z
#    x 1.827420 0.000000 0.000000 
#    y 0.000000 1.800390 0.000000 
#    z 0.000000 0.000000 1.767130 
# 
# From -- ./inp_files/62458.got.cif
#   From: 2010.03.12/outbox.cif.g09.slc.cpg/sg65_32_cif.got.tgz:62458.got - 2010.04.10 20:52:16.
