data_PCOD8271364
_publ_section_title
;
Structure prediction by ZEFSAII (Michael W. Deem and Ramdas Pophale) SiO2 
 PCOD8271364
Probable space group: C M M M
;
_chemical_formula_sum "Si O2"
_cell_formula_units_Z 72
_cell_length_a 8.649354
_cell_length_b 15.297959
_cell_length_c 26.681696
_cell_angle_alpha 90.000000
_cell_angle_beta 90.000000
_cell_angle_gamma 90.000000
_cell_volume 3530.454320
_symmetry_space_group_name_H-M "C M M M"
_symmetry_group_IT_number 65
_symmetry_cell_setting 'orthorhombic'
loop_
_space_group_symop_operation_xyz
x,y,z
-x,-y,z
x,-y,-z
-x,y,-z
-x,-y,-z
x,y,-z
-x,y,z
x,-y,z
1/2+x,1/2+y,z
1/2-x,1/2-y,z
1/2+x,1/2-y,-z
1/2-x,1/2+y,-z
1/2-x,1/2-y,-z
1/2+x,1/2+y,-z
1/2-x,1/2+y,z
1/2+x,1/2-y,z
loop_
_atom_site_type_symbol
_atom_site_label
_atom_site_fract_x
_atom_site_fract_y
_atom_site_fract_z
Si Si1 0.180194 0.162272 0.756237
Si Si2 0.183713 0.500000 0.069641
Si Si3 0.817062 0.345212 0.553976
Si Si4 0.313838 0.648311 0.000000
Si Si5 0.184191 0.000000 0.178688
Si Si6 0.675490 0.098347 0.659683
O O1 0.250000 0.250000 0.779667
O O2 0.241572 0.082871 0.789560
O O3 0.225305 0.155663 0.697745
O O4 0.000000 0.167565 0.759952
O O5 0.255452 0.590331 0.047315
O O6 0.221560 0.500000 0.127752
O O7 0.000000 0.500000 0.059999
O O8 0.763624 0.386566 0.500000
O O9 0.750000 0.250000 0.559325
O O10 0.758595 0.398375 0.602612
O O11 0.000000 0.340781 0.554568
O O12 0.250000 0.750000 0.000000
O O13 0.500000 0.653379 0.000000
O O14 0.000000 0.000000 0.169047
O O15 0.500000 0.133222 0.661227
O O16 0.686503 0.000000 0.678802
#
# Coordination Sequence:
#
# PCOD8271364 Si02
#       6
#    16   8  16   8   8  16
#     4  11  23  40  61  85 115 154 198 247 302 361
#     4  11  23  40  65  98 134 173 215 263 316 366
#     4   9  18  32  49  71 100 135 176 225 283 348
#     4  11  22  41  68  98 136 179 222 265 308 362
#     4  10  23  43  62  86 124 165 206 254 308 361
#     4  10  20  34  54  79 107 141 185 237 291 354
#
# _framework density 20.393975000000001
#
# number of rings (size 3 to 8) (size 9 to 14) (size 15 to 20)
#    0.000    1.778    1.111    4.000    0.000    5.778 
#    0.000    4.444    0.000    0.000    0.000    4.667 
#    0.000    0.000    0.000    0.000    0.000    0.000 
#
# Total GULP energy -446092.575875 kJ/mol
# GULP energy per Si atom -12391.460441 kJ/mol
# Density = 2.034756 g / cm^3
# Si number density = 20.393975 Si / 1000 Ang^3
#
#
#
# Elastic Constant Matrix: (Units=GPa)
#
#
# Indices 1 2 3 4 5 6 
#
# 1 68.7839 46.5119 44.3446 0.0000 0.0000 0.0000
# 2 46.5119 146.3052 65.9793 0.0000 0.0000 0.0000
# 3 44.3446 65.9793 150.4852 0.0000 0.0000 0.0000
# 4 0.0000 0.0000 0.0000 18.5727 0.0000 0.0000
# 5 0.0000 0.0000 0.0000 0.0000 29.6724 0.0000
# 6 0.0000 0.0000 0.0000 0.0000 0.0000 31.0931
#
#
#
# Elastic Compliance Matrix: (Units=1/GPa)
#
#
# Indices 1 2 3 4 5 6 
#
# 1 0.020213 -0.004661 -0.003912 0.000000 0.000000 0.000000
# 2 -0.004661 0.009595 -0.002833 0.000000 0.000000 0.000000
# 3 -0.003912 -0.002833 0.009040 0.000000 0.000000 0.000000
# 4 0.000000 0.000000 0.000000 0.053842 0.000000 0.000000
# 5 0.000000 0.000000 0.000000 0.000000 0.033701 0.000000
# 6 0.000000 0.000000 0.000000 0.000000 0.000000 0.032161
#
#
# Mechanical properties :
#
#
# Convention : Reuss Voigt Hill
#
# Bulk Modulus (GPa) = 62.36896 75.47176 68.92036
# Shear Modulus (GPa) = 26.77934 29.78355 28.28145
#
# Velocity S-wave (km/s) = 3.62760 3.82568 3.72796
# Velocity P-wave (km/s) = 6.94222 7.52341 7.23865
#
# Compressibility (1/GPa) = 0.01603362
#
# Stress axis : x y z
#
# Youngs Moduli (GPa) = 49.47386 104.22572 110.61672
#
# Poissons Ratio (x) = 0.48584 0.43278
# Poissons Ratio (y) = 0.23062 0.31338
# Poissons Ratio (z) = 0.19356 0.29528
#
# Static dielectric constant tensor:
#      x y z
#    x 4.831010 0.000000 0.000000 
#    y 0.000000 3.804650 0.000000 
#    z 0.000000 0.000000 3.984570 
# 
# 
# High freq. dielectric constant tensor:
#      x y z
#    x 1.788130 0.000000 0.000000 
#    y 0.000000 1.798430 0.000000 
#    z 0.000000 0.000000 1.805190 
# 
# From -- ./inp_files/76375.got.cif
#   From: 2010.03.12/outbox.cif.g09.slc.cpg/sg65_39_cif.got.tgz:76375.got - 2010.04.10 20:52:16.
