data_PCOD8271225
_publ_section_title
;
Structure prediction by ZEFSAII (Michael W. Deem and Ramdas Pophale) SiO2 
 PCOD8271225
Probable space group: C M M M
;
_chemical_formula_sum "Si O2"
_cell_formula_units_Z 72
_cell_length_a 17.824312
_cell_length_b 10.266825
_cell_length_c 21.977865
_cell_angle_alpha 90.000000
_cell_angle_beta 90.000000
_cell_angle_gamma 90.000000
_cell_volume 4021.929340
_symmetry_space_group_name_H-M "C M M M"
_symmetry_group_IT_number 65
_symmetry_cell_setting 'orthorhombic'
loop_
_space_group_symop_operation_xyz
x,y,z
-x,-y,z
x,-y,-z
-x,y,-z
-x,-y,-z
x,y,-z
-x,y,z
x,-y,z
1/2+x,1/2+y,z
1/2-x,1/2-y,z
1/2+x,1/2-y,-z
1/2-x,1/2+y,-z
1/2-x,1/2-y,-z
1/2+x,1/2+y,-z
1/2-x,1/2+y,z
1/2+x,1/2-y,z
loop_
_atom_site_type_symbol
_atom_site_label
_atom_site_fract_x
_atom_site_fract_y
_atom_site_fract_z
Si Si1 0.410350 0.000000 0.568276
Si Si2 0.914543 0.650197 0.233940
Si Si3 0.083057 0.653223 0.000000
Si Si4 0.089612 0.000000 0.430556
Si Si5 0.089184 0.252083 0.638549
Si Si6 0.180677 0.346996 0.885116
O O1 0.377488 0.126257 0.601799
O O2 0.500000 0.000000 0.569337
O O3 0.379504 0.000000 0.500000
O O4 0.909182 0.500000 0.254396
O O5 0.886895 0.738822 0.290565
O O6 0.862407 0.680583 0.177150
O O7 0.000000 0.683850 0.215605
O O8 0.127315 0.696986 0.059914
O O9 0.073596 0.500000 0.000000
O O10 0.000000 0.717644 0.000000
O O11 0.121387 0.876576 0.393567
O O12 0.119687 0.000000 0.500000
O O13 0.000000 0.000000 0.431330
O O14 0.000000 0.254563 0.634705
O O15 0.204295 0.500000 0.890554
O O16 0.250000 0.250000 0.887324
#
# Coordination Sequence:
#
# PCOD8271225 Si02
#       6
#     8  16   8   8  16  16
#     4   9  14  20  34  56  83 116 151 192 243 297
#     4   9  16  29  49  70  94 128 171 213 249 289
#     4   9  17  32  57  85 106 133 174 210 242 285
#     4   9  16  24  34  54  89 128 157 188 243 309
#     4   9  15  24  37  57  86 120 158 198 244 296
#     4  10  20  34  53  77 106 136 169 208 249 293
#
# _framework density 17.901855999999999
#
# number of rings (size 3 to 8) (size 9 to 14) (size 15 to 20)
#    0.000    2.778    1.111    1.667    0.000    5.333 
#    2.000    0.000    0.000    2.667    0.000    0.000 
#    0.000    5.333    0.000    0.000    0.000    0.000 
#
# Total GULP energy -446250.591767 kJ/mol
# GULP energy per Si atom -12395.849771 kJ/mol
# Density = 1.786111 g / cm^3
# Si number density = 17.901856 Si / 1000 Ang^3
#
#
#
# Elastic Constant Matrix: (Units=GPa)
#
#
# Indices 1 2 3 4 5 6 
#
# 1 73.0859 42.1427 56.6447 0.0000 0.0000 0.0000
# 2 42.1427 116.5661 78.1265 0.0000 0.0000 0.0000
# 3 56.6447 78.1265 170.8088 0.0000 0.0000 0.0000
# 4 0.0000 0.0000 0.0000 27.1949 0.0000 0.0000
# 5 0.0000 0.0000 0.0000 0.0000 59.7257 0.0000
# 6 0.0000 0.0000 0.0000 0.0000 0.0000 17.7789
#
#
#
# Elastic Compliance Matrix: (Units=1/GPa)
#
#
# Indices 1 2 3 4 5 6 
#
# 1 0.019592 -0.003935 -0.004698 0.000000 0.000000 0.000000
# 2 -0.003935 0.013162 -0.004715 0.000000 0.000000 0.000000
# 3 -0.004698 -0.004715 0.009569 0.000000 0.000000 0.000000
# 4 0.000000 0.000000 0.000000 0.036772 0.000000 0.000000
# 5 0.000000 0.000000 0.000000 0.000000 0.016743 0.000000
# 6 0.000000 0.000000 0.000000 0.000000 0.000000 0.056246
#
#
# Mechanical properties :
#
#
# Convention : Reuss Voigt Hill
#
# Bulk Modulus (GPa) = 63.98829 79.36539 71.67684
# Shear Modulus (GPa) = 27.17564 33.17637 30.17600
#
# Velocity S-wave (km/s) = 3.90042 4.30959 4.11010
# Velocity P-wave (km/s) = 7.49039 8.31825 7.91515
#
# Compressibility (1/GPa) = 0.01562786
#
# Stress axis : x y z
#
# Youngs Moduli (GPa) = 51.04068 75.97837 104.50421
#
# Poissons Ratio (x) = 0.29896 0.49091
# Poissons Ratio (y) = 0.20084 0.49275
# Poissons Ratio (z) = 0.23977 0.35825
#
# Static dielectric constant tensor:
#      x y z
#    x 2.875990 0.000000 0.000000 
#    y 0.000000 3.305030 0.000000 
#    z 0.000000 0.000000 3.550440 
# 
# 
# High freq. dielectric constant tensor:
#      x y z
#    x 1.641050 0.000000 0.000000 
#    y 0.000000 1.676550 0.000000 
#    z 0.000000 0.000000 1.714870 
# 
# From -- ./inp_files/59431.got.cif
#   From: 2010.03.12/outbox.cif.g09.slc.cpg/sg65_30_cif.got.tgz:59431.got - 2010.04.10 20:52:16.
