data_PCOD8271024
_publ_section_title
;
Structure prediction by ZEFSAII (Michael W. Deem and Ramdas Pophale) SiO2 
 PCOD8271024
Probable space group: C M M M
;
_chemical_formula_sum "Si O2"
_cell_formula_units_Z 88
_cell_length_a 27.941151
_cell_length_b 19.053842
_cell_length_c 8.832940
_cell_angle_alpha 90.000000
_cell_angle_beta 90.000000
_cell_angle_gamma 90.000000
_cell_volume 4702.536037
_symmetry_space_group_name_H-M "C M M M"
_symmetry_group_IT_number 65
_symmetry_cell_setting 'orthorhombic'
loop_
_space_group_symop_operation_xyz
x,y,z
-x,-y,z
x,-y,-z
-x,y,-z
-x,-y,-z
x,y,-z
-x,y,z
x,-y,z
1/2+x,1/2+y,z
1/2-x,1/2-y,z
1/2+x,1/2-y,-z
1/2-x,1/2+y,-z
1/2-x,1/2-y,-z
1/2+x,1/2+y,-z
1/2-x,1/2+y,z
1/2+x,1/2-y,z
loop_
_atom_site_type_symbol
_atom_site_label
_atom_site_fract_x
_atom_site_fract_y
_atom_site_fract_z
Si Si1 0.948046 0.782282 0.325902
Si Si2 0.554648 0.000000 0.834962
Si Si3 0.312733 0.178115 0.822193
Si Si4 0.907257 0.367373 0.326214
Si Si5 0.234528 0.080111 0.324410
Si Si6 0.845579 0.183536 0.675901
O O1 0.951471 0.804043 0.500000
O O2 0.941734 0.699123 0.306505
O O3 0.900186 0.819681 0.255731
O O4 0.000000 0.802953 0.249979
O O5 0.564922 0.066257 0.732061
O O6 0.500000 0.000000 0.874593
O O7 0.581595 0.000000 0.000000
O O8 0.360589 0.138313 0.776630
O O9 0.268887 0.130865 0.767505
O O10 0.312962 0.256214 0.751846
O O11 0.308680 0.186832 0.000000
O O12 0.891542 0.377116 0.500000
O O13 0.249075 0.083056 0.500000
O O14 0.180223 0.108750 0.301773
O O15 0.236792 0.000000 0.264017
O O16 0.849812 0.205105 0.500000
#
# Coordination Sequence:
#
# PCOD8271024 Si02
#       6
#    16   8  16  16  16  16
#     4   8  14  27  50  77  99 123 164 213 255 299
#     4  11  23  35  47  69 105 143 177 221 272 313
#     4  11  22  35  53  77 105 135 171 220 274 321
#     4  10  20  34  52  72  98 136 181 221 259 313
#     4  10  21  36  54  75 103 140 180 217 258 315
#     4   9  18  34  55  78 104 137 176 215 257 314
#
# _framework density 18.713307
#
# number of rings (size 3 to 8) (size 9 to 14) (size 15 to 20)
#    0.000    2.273    0.000    4.636    1.273    4.727 
#    0.000    0.000    0.000    5.455    0.000    3.818 
#    0.000    0.000    0.000    8.182    0.000    9.091 
#
# Total GULP energy -545241.660348 kJ/mol
# GULP energy per Si atom -12391.855917 kJ/mol
# Density = 1.867071 g / cm^3
# Si number density = 18.713307 Si / 1000 Ang^3
#
#
#
# Elastic Constant Matrix: (Units=GPa)
#
#
# Indices 1 2 3 4 5 6 
#
# 1 118.6727 50.0864 29.8178 0.0000 0.0000 0.0000
# 2 50.0864 65.5576 27.7008 0.0000 0.0000 0.0000
# 3 29.8178 27.7008 64.7734 0.0000 0.0000 0.0000
# 4 0.0000 0.0000 0.0000 9.1255 0.0000 0.0000
# 5 0.0000 0.0000 0.0000 0.0000 12.1844 0.0000
# 6 0.0000 0.0000 0.0000 0.0000 0.0000 9.2588
#
#
#
# Elastic Compliance Matrix: (Units=1/GPa)
#
#
# Indices 1 2 3 4 5 6 
#
# 1 0.012659 -0.008799 -0.002064 0.000000 0.000000 0.000000
# 2 -0.008799 0.024734 -0.006527 0.000000 0.000000 0.000000
# 3 -0.002064 -0.006527 0.019180 0.000000 0.000000 0.000000
# 4 0.000000 0.000000 0.000000 0.109583 0.000000 0.000000
# 5 0.000000 0.000000 0.000000 0.000000 0.082072 0.000000
# 6 0.000000 0.000000 0.000000 0.000000 0.000000 0.108006
#
#
# Mechanical properties :
#
#
# Convention : Reuss Voigt Hill
#
# Bulk Modulus (GPa) = 45.88857 51.57928 48.73393
# Shear Modulus (GPa) = 12.55397 15.54032 14.04714
#
# Velocity S-wave (km/s) = 2.59290 2.88487 2.74277
# Velocity P-wave (km/s) = 5.79131 6.22249 6.01077
#
# Compressibility (1/GPa) = 0.02179192
#
# Stress axis : x y z
#
# Youngs Moduli (GPa) = 78.99515 40.42949 52.13728
#
# Poissons Ratio (x) = 0.35575 0.10763
# Poissons Ratio (y) = 0.69510 0.34031
# Poissons Ratio (z) = 0.16308 0.26389
#
# Static dielectric constant tensor:
#      x y z
#    x 3.753180 0.000000 0.000000 
#    y 0.000000 3.304830 0.000000 
#    z 0.000000 0.000000 3.262460 
# 
# 
# High freq. dielectric constant tensor:
#      x y z
#    x 1.738380 0.000000 0.000000 
#    y 0.000000 1.702770 0.000000 
#    z 0.000000 0.000000 1.705770 
# 
# From -- ./inp_files/10139.got.cif
#   From: 2010.03.12/outbox.cif.g09.slc.cpg/sg65_6_cif.got.tgz:10139.got - 2010.04.10 20:52:16.
