data_PCOD8271803
_publ_section_title
;
Structure prediction by ZEFSAII (Michael W. Deem and Ramdas Pophale) SiO2 
 PCOD8271803
Probable space group: C M M M
;
_chemical_formula_sum "Si O2"
_cell_formula_units_Z 88
_cell_length_a 21.257477
_cell_length_b 8.018586
_cell_length_c 26.952409
_cell_angle_alpha 90.000000
_cell_angle_beta 90.000000
_cell_angle_gamma 90.000000
_cell_volume 4594.170382
_symmetry_space_group_name_H-M "C M M M"
_symmetry_group_IT_number 65
_symmetry_cell_setting 'orthorhombic'
loop_
_space_group_symop_operation_xyz
x,y,z
-x,-y,z
x,-y,-z
-x,y,-z
-x,-y,-z
x,y,-z
-x,y,z
x,-y,z
1/2+x,1/2+y,z
1/2-x,1/2-y,z
1/2+x,1/2-y,-z
1/2-x,1/2+y,-z
1/2-x,1/2-y,-z
1/2+x,1/2+y,-z
1/2-x,1/2+y,z
1/2+x,1/2-y,z
loop_
_atom_site_type_symbol
_atom_site_label
_atom_site_fract_x
_atom_site_fract_y
_atom_site_fract_z
Si Si1 0.125996 0.304671 0.901002
Si Si2 0.928759 0.193212 0.277257
Si Si3 0.319110 0.803704 0.000000
Si Si4 0.000000 0.196309 0.942332
Si Si5 0.821333 0.697281 0.201988
Si Si6 0.074015 0.683078 0.384370
Si Si7 0.575118 0.500000 0.443466
O O1 0.138382 0.500000 0.900267
O O2 0.153267 0.220023 0.950685
O O3 0.053524 0.262620 0.905873
O O4 0.160130 0.230087 0.852334
O O5 0.874394 0.228277 0.237713
O O6 0.910323 0.293248 0.326544
O O7 0.000000 0.243897 0.258838
O O8 0.928881 0.000000 0.291256
O O9 0.250000 0.750000 0.000000
O O10 0.331493 0.000000 0.000000
O O11 0.000000 0.000000 0.946346
O O12 0.000000 0.268718 0.000000
O O13 0.826488 0.500000 0.204314
O O14 0.750000 0.750000 0.216079
O O15 0.100635 0.500000 0.400483
O O16 0.000000 0.685782 0.392672
O O17 0.103231 0.833225 0.417243
O O18 0.500000 0.500000 0.439529
O O19 0.598228 0.500000 0.500000
#
# Coordination Sequence:
#
# PCOD8271803 Si02
#       7
#    16  16   8   8  16  16   8
#     4  10  22  39  58  78 107 142 176 217 275 338
#     4  10  20  36  58  82 111 151 194 240 292 348
#     4  10  20  35  56  77  99 134 174 214 265 336
#     4  11  23  37  57  85 109 135 175 225 271 326
#     4  11  24  40  58  83 113 147 185 236 290 345
#     4   9  16  28  47  72 106 149 196 243 289 344
#     4   9  16  26  42  70 112 156 196 239 290 348
#
# _framework density 19.154710000000001
#
# number of rings (size 3 to 8) (size 9 to 14) (size 15 to 20)
#    0.000    2.000    1.818    1.909    1.273    4.000 
#    0.000    1.818    0.000    0.000    0.000    0.000 
#    0.000    0.727    0.364    0.000    0.000    0.000 
#
# Total GULP energy -545137.062865 kJ/mol
# GULP energy per Si atom -12389.478701 kJ/mol
# Density = 1.911111 g / cm^3
# Si number density = 19.154710 Si / 1000 Ang^3
#
#
#
# Elastic Constant Matrix: (Units=GPa)
#
#
# Indices 1 2 3 4 5 6 
#
# 1 103.2372 11.2245 47.1524 0.0000 0.0000 0.0000
# 2 11.2245 85.6450 51.8827 0.0000 0.0000 0.0000
# 3 47.1524 51.8827 119.9617 0.0000 0.0000 0.0000
# 4 0.0000 0.0000 0.0000 23.5272 0.0000 0.0000
# 5 0.0000 0.0000 0.0000 0.0000 6.1862 0.0000
# 6 0.0000 0.0000 0.0000 0.0000 0.0000 21.2897
#
#
#
# Elastic Compliance Matrix: (Units=1/GPa)
#
#
# Indices 1 2 3 4 5 6 
#
# 1 0.011994 0.001740 -0.005467 0.000000 0.000000 0.000000
# 2 0.001740 0.016074 -0.007636 0.000000 0.000000 0.000000
# 3 -0.005467 -0.007636 0.013787 0.000000 0.000000 0.000000
# 4 0.000000 0.000000 0.000000 0.042504 0.000000 0.000000
# 5 0.000000 0.000000 0.000000 0.000000 0.161651 0.000000
# 6 0.000000 0.000000 0.000000 0.000000 0.000000 0.046971
#
#
# Mechanical properties :
#
#
# Convention : Reuss Voigt Hill
#
# Bulk Modulus (GPa) = 52.27487 58.81813 55.54650
# Shear Modulus (GPa) = 15.52394 23.43957 19.48175
#
# Velocity S-wave (km/s) = 2.84993 3.50193 3.19262
# Velocity P-wave (km/s) = 6.17896 6.86476 6.53087
#
# Compressibility (1/GPa) = 0.01912965
#
# Stress axis : x y z
#
# Youngs Moduli (GPa) = 83.37335 62.21362 72.53092
#
# Poissons Ratio (x) = -0.10824 0.39652
# Poissons Ratio (y) = -0.14506 0.55382
# Poissons Ratio (z) = 0.45580 0.47504
#
# Static dielectric constant tensor:
#      x y z
#    x 3.379990 0.000000 0.000000 
#    y 0.000000 3.537840 0.000000 
#    z 0.000000 0.000000 3.623050 
# 
# 
# High freq. dielectric constant tensor:
#      x y z
#    x 1.711510 0.000000 0.000000 
#    y 0.000000 1.751950 0.000000 
#    z 0.000000 0.000000 1.740530 
# 
# From -- ./inp_files/71088.got.cif
#   From: 2010.03.12/outbox.cif.g09.slc.cpg/sg65_36_cif.got.tgz:71088.got - 2010.04.10 20:52:16.
