data_PCOD8271034
_publ_section_title
;
Structure prediction by ZEFSAII (Michael W. Deem and Ramdas Pophale) SiO2 
 PCOD8271034
Probable space group: C M M M
;
_chemical_formula_sum "Si O2"
_cell_formula_units_Z 104
_cell_length_a 8.771820
_cell_length_b 29.491547
_cell_length_c 23.214534
_cell_angle_alpha 90.000000
_cell_angle_beta 90.000000
_cell_angle_gamma 90.000000
_cell_volume 6005.473236
_symmetry_space_group_name_H-M "C M M M"
_symmetry_group_IT_number 65
_symmetry_cell_setting 'orthorhombic'
loop_
_space_group_symop_operation_xyz
x,y,z
-x,-y,z
x,-y,-z
-x,y,-z
-x,-y,-z
x,y,-z
-x,y,z
x,-y,z
1/2+x,1/2+y,z
1/2-x,1/2-y,z
1/2+x,1/2-y,-z
1/2-x,1/2+y,-z
1/2-x,1/2-y,-z
1/2+x,1/2+y,-z
1/2-x,1/2+y,z
1/2+x,1/2-y,z
loop_
_atom_site_type_symbol
_atom_site_label
_atom_site_fract_x
_atom_site_fract_y
_atom_site_fract_z
Si Si1 0.181497 0.390407 0.103566
Si Si2 0.818831 0.550662 0.337228
Si Si3 0.821445 0.202389 0.932723
Si Si4 0.331285 0.706342 0.431922
Si Si5 0.180156 0.053232 0.000000
Si Si6 0.680522 0.114272 0.564231
Si Si7 0.319148 0.949196 0.789995
O O1 0.245333 0.339368 0.100969
O O2 0.248891 0.422950 0.055216
O O3 0.237326 0.412340 0.163791
O O4 0.000000 0.388806 0.097413
O O5 0.761382 0.500000 0.348428
O O6 0.747590 0.580450 0.388644
O O7 0.763113 0.566495 0.273681
O O8 0.000000 0.553370 0.339867
O O9 0.750000 0.250000 0.911457
O O10 0.000000 0.203289 0.919603
O O11 0.786988 0.195156 0.000000
O O12 0.342774 0.712219 0.500000
O O13 0.500000 0.701057 0.405390
O O14 0.250000 0.750000 0.404150
O O15 0.228953 0.663763 0.415245
O O16 0.000000 0.061225 0.000000
O O17 0.222120 0.000000 0.000000
O O18 0.744606 0.103011 0.500000
O O19 0.500000 0.111545 0.563153
O O20 0.500000 0.951756 0.790850
O O21 0.256030 0.000000 0.804037
#
# Coordination Sequence:
#
# PCOD8271034 Si02
#       7
#    16  16  16  16   8  16  16
#     4  11  20  31  51  75  98 125 161 201 241 283
#     4   8  14  26  44  66  94 126 159 196 235 275
#     4  10  20  34  52  73 101 131 161 196 238 286
#     4   9  16  26  41  61  87 118 149 183 226 276
#     4  11  23  35  46  67 102 135 159 191 239 287
#     4   9  16  25  41  68  97 122 152 192 237 283
#     4   8  15  28  46  69  95 125 162 199 234 277
#
# _framework density 17.317536
#
# number of rings (size 3 to 8) (size 9 to 14) (size 15 to 20)
#    0.000    2.692    0.769    3.000    0.000    4.000 
#    0.000    1.538    0.000    3.231    0.000    6.462 
#    0.000    0.000    0.000    0.000    0.000    0.000 
#
# Total GULP energy -644508.322962 kJ/mol
# GULP energy per Si atom -12394.390826 kJ/mol
# Density = 1.727812 g / cm^3
# Si number density = 17.317536 Si / 1000 Ang^3
#
#
#
# Elastic Constant Matrix: (Units=GPa)
#
#
# Indices 1 2 3 4 5 6 
#
# 1 44.5769 34.8991 28.3638 0.0000 0.0000 0.0000
# 2 34.8991 154.5755 90.8837 0.0000 0.0000 0.0000
# 3 28.3638 90.8837 117.8290 0.0000 0.0000 0.0000
# 4 0.0000 0.0000 0.0000 13.0509 0.0000 0.0000
# 5 0.0000 0.0000 0.0000 0.0000 5.3295 0.0000
# 6 0.0000 0.0000 0.0000 0.0000 0.0000 25.2976
#
#
#
# Elastic Compliance Matrix: (Units=1/GPa)
#
#
# Indices 1 2 3 4 5 6 
#
# 1 0.027978 -0.004313 -0.003408 0.000000 0.000000 0.000000
# 2 -0.004313 0.012503 -0.008605 0.000000 0.000000 0.000000
# 3 -0.003408 -0.008605 0.015945 0.000000 0.000000 0.000000
# 4 0.000000 0.000000 0.000000 0.076623 0.000000 0.000000
# 5 0.000000 0.000000 0.000000 0.000000 0.187634 0.000000
# 6 0.000000 0.000000 0.000000 0.000000 0.000000 0.039529
#
#
# Mechanical properties :
#
#
# Convention : Reuss Voigt Hill
#
# Bulk Modulus (GPa) = 42.06505 69.47497 55.77001
# Shear Modulus (GPa) = 12.47536 19.59125 16.03331
#
# Velocity S-wave (km/s) = 2.68692 3.36712 3.04607
# Velocity P-wave (km/s) = 5.82831 7.43788 6.68174
#
# Compressibility (1/GPa) = 0.02377270
#
# Stress axis : x y z
#
# Youngs Moduli (GPa) = 35.74191 79.98343 62.71641
#
# Poissons Ratio (x) = 0.34495 0.21377
# Poissons Ratio (y) = 0.15415 0.53969
# Poissons Ratio (z) = 0.12182 0.68828
#
# Static dielectric constant tensor:
#      x y z
#    x 3.034890 0.000000 0.000000 
#    y 0.000000 3.411450 0.000000 
#    z 0.000000 0.000000 3.503020 
# 
# 
# High freq. dielectric constant tensor:
#      x y z
#    x 1.648510 0.000000 0.000000 
#    y 0.000000 1.675920 0.000000 
#    z 0.000000 0.000000 1.644120 
# 
# From -- ./inp_files/60859.got.cif
#   From: 2010.03.12/outbox.cif.g09.slc.cpg/sg65_31_cif.got.tgz:60859.got - 2010.04.10 20:52:16.
