data_PCOD8271190
_publ_section_title
;
Structure prediction by ZEFSAII (Michael W. Deem and Ramdas Pophale) SiO2 
 PCOD8271190
Probable space group: C M M M
;
_chemical_formula_sum "Si O2"
_cell_formula_units_Z 88
_cell_length_a 18.586754
_cell_length_b 8.837929
_cell_length_c 28.199143
_cell_angle_alpha 90.000000
_cell_angle_beta 90.000000
_cell_angle_gamma 90.000000
_cell_volume 4632.228446
_symmetry_space_group_name_H-M "C M M M"
_symmetry_group_IT_number 65
_symmetry_cell_setting 'orthorhombic'
loop_
_space_group_symop_operation_xyz
x,y,z
-x,-y,z
x,-y,-z
-x,y,-z
-x,-y,-z
x,y,-z
-x,y,z
x,-y,z
1/2+x,1/2+y,z
1/2-x,1/2-y,z
1/2+x,1/2-y,-z
1/2-x,1/2+y,-z
1/2-x,1/2-y,-z
1/2+x,1/2+y,-z
1/2-x,1/2+y,z
1/2+x,1/2-y,z
loop_
_atom_site_type_symbol
_atom_site_label
_atom_site_fract_x
_atom_site_fract_y
_atom_site_fract_z
Si Si1 0.324799 0.321502 0.364282
Si Si2 0.826022 0.822293 0.257452
Si Si3 0.829033 0.320967 0.085684
Si Si4 0.584303 0.678819 0.000000
Si Si5 0.919957 0.820376 0.551534
Si Si6 0.582419 0.176373 0.178786
O O1 0.318697 0.500000 0.368608
O O2 0.250000 0.250000 0.377682
O O3 0.348034 0.275473 0.311003
O O4 0.378211 0.251806 0.403506
O O5 0.750000 0.750000 0.242393
O O6 0.890346 0.766202 0.224465
O O7 0.816833 0.000000 0.251836
O O8 0.822991 0.500000 0.077867
O O9 0.750000 0.250000 0.084382
O O10 0.867252 0.278935 0.134864
O O11 0.878787 0.250286 0.045622
O O12 0.596672 0.500000 0.000000
O O13 0.500000 0.720531 0.000000
O O14 0.886206 0.774413 0.500000
O O15 0.000000 0.754378 0.554435
O O16 0.921587 0.000000 0.555749
O O17 0.500000 0.223214 0.167902
O O18 0.588075 0.000000 0.189978
#
# Coordination Sequence:
#
# PCOD8271190 Si02
#       6
#    16  16  16   8  16  16
#     4   9  18  31  48  72 100 129 165 209 256 307
#     4  10  20  34  53  76 104 139 176 217 265 316
#     4  11  23  40  62  86 114 148 185 223 266 316
#     4  11  24  41  62  89 119 149 184 227 270 313
#     4   8  14  26  45  68  94 126 165 208 252 300
#     4  10  22  39  58  82 111 142 178 221 268 317
#
# _framework density 18.997337000000002
#
# number of rings (size 3 to 8) (size 9 to 14) (size 15 to 20)
#    0.000    2.273    0.000    3.273    0.000    6.545 
#    0.000    1.818    0.000    0.545    0.000    1.273 
#    0.000    0.000    0.000    0.000    0.000    0.000 
#
# Total GULP energy -545506.606060 kJ/mol
# GULP energy per Si atom -12397.877410 kJ/mol
# Density = 1.895410 g / cm^3
# Si number density = 18.997337 Si / 1000 Ang^3
#
#
#
# Elastic Constant Matrix: (Units=GPa)
#
#
# Indices 1 2 3 4 5 6 
#
# 1 142.7816 48.0487 91.0782 0.0000 0.0000 0.0000
# 2 48.0487 49.3046 45.3720 0.0000 0.0000 0.0000
# 3 91.0782 45.3720 149.0116 0.0000 0.0000 0.0000
# 4 0.0000 0.0000 0.0000 18.5907 0.0000 0.0000
# 5 0.0000 0.0000 0.0000 0.0000 40.0297 0.0000
# 6 0.0000 0.0000 0.0000 0.0000 0.0000 27.2007
#
#
#
# Elastic Compliance Matrix: (Units=1/GPa)
#
#
# Indices 1 2 3 4 5 6 
#
# 1 0.013248 -0.007584 -0.005788 0.000000 0.000000 0.000000
# 2 -0.007584 0.032519 -0.005266 0.000000 0.000000 0.000000
# 3 -0.005788 -0.005266 0.011852 0.000000 0.000000 0.000000
# 4 0.000000 0.000000 0.000000 0.053790 0.000000 0.000000
# 5 0.000000 0.000000 0.000000 0.000000 0.024981 0.000000
# 6 0.000000 0.000000 0.000000 0.000000 0.000000 0.036764
#
#
# Mechanical properties :
#
#
# Convention : Reuss Voigt Hill
#
# Bulk Modulus (GPa) = 49.15804 78.89952 64.02878
# Shear Modulus (GPa) = 23.01893 27.60415 25.31154
#
# Velocity S-wave (km/s) = 3.48471 3.81603 3.65413
# Velocity P-wave (km/s) = 6.49026 7.81269 7.18198
#
# Compressibility (1/GPa) = 0.02034255
#
# Stress axis : x y z
#
# Youngs Moduli (GPa) = 75.48254 30.75117 84.37286
#
# Poissons Ratio (x) = 0.23322 0.48836
# Poissons Ratio (y) = 0.57247 0.44431
# Poissons Ratio (z) = 0.43691 0.16194
#
# Static dielectric constant tensor:
#      x y z
#    x 3.576000 0.000000 0.000000 
#    y 0.000000 3.322490 0.000000 
#    z 0.000000 0.000000 3.862230 
# 
# 
# High freq. dielectric constant tensor:
#      x y z
#    x 1.740190 0.000000 0.000000 
#    y 0.000000 1.721960 0.000000 
#    z 0.000000 0.000000 1.756960 
# 
# From -- ./inp_files/77838.got.cif
#   From: 2010.03.12/outbox.cif.g09.slc.cpg/sg65_39_cif.got.tgz:77838.got - 2010.04.10 20:52:16.
