data_PCOD8271110
_publ_section_title
;
Structure prediction by ZEFSAII (Michael W. Deem and Ramdas Pophale) SiO2 
 PCOD8271110
Probable space group: C M M M
;
_chemical_formula_sum "Si O2"
_cell_formula_units_Z 96
_cell_length_a 9.182802
_cell_length_b 23.607987
_cell_length_c 24.880783
_cell_angle_alpha 90.000000
_cell_angle_beta 90.000000
_cell_angle_gamma 90.000000
_cell_volume 5393.842004
_symmetry_space_group_name_H-M "C M M M"
_symmetry_group_IT_number 65
_symmetry_cell_setting 'orthorhombic'
loop_
_space_group_symop_operation_xyz
x,y,z
-x,-y,z
x,-y,-z
-x,y,-z
-x,-y,-z
x,y,-z
-x,y,z
x,-y,z
1/2+x,1/2+y,z
1/2-x,1/2-y,z
1/2+x,1/2-y,-z
1/2-x,1/2+y,-z
1/2-x,1/2-y,-z
1/2+x,1/2+y,-z
1/2-x,1/2+y,z
1/2+x,1/2-y,z
loop_
_atom_site_type_symbol
_atom_site_label
_atom_site_fract_x
_atom_site_fract_y
_atom_site_fract_z
Si Si1 0.668864 0.193074 0.062537
Si Si2 0.832153 0.500000 0.301272
Si Si3 0.831419 0.119294 0.856193
Si Si4 0.831253 0.378493 0.339930
Si Si5 0.669094 0.806122 0.439736
Si Si6 0.329699 0.309232 0.249722
Si Si7 0.670195 0.500000 0.810723
O O1 0.500000 0.200639 0.076537
O O2 0.750000 0.250000 0.081143
O O3 0.733901 0.140113 0.094431
O O4 0.694801 0.180953 0.000000
O O5 0.792917 0.444962 0.336674
O O6 0.744635 0.500000 0.246575
O O7 0.000000 0.500000 0.284720
O O8 0.797231 0.156138 0.803975
O O9 0.000000 0.123565 0.872726
O O10 0.784289 0.054835 0.844851
O O11 0.794887 0.358303 0.400368
O O12 0.730961 0.344132 0.299502
O O13 0.000000 0.367079 0.325402
O O14 0.720356 0.822809 0.500000
O O15 0.500000 0.791295 0.438776
O O16 0.750000 0.750000 0.418996
O O17 0.500000 0.298881 0.258750
O O18 0.250000 0.250000 0.244655
O O19 0.500000 0.500000 0.798252
#
# Coordination Sequence:
#
# PCOD8271110 Si02
#       7
#    16   8  16  16  16  16   8
#     4  10  21  37  58  83 111 143 179 220 267 317
#     4  10  20  34  53  77 105 140 178 218 264 315
#     4  10  21  36  56  80 107 140 179 220 263 315
#     4  10  20  34  52  76 105 137 177 218 263 318
#     4   9  18  33  52  74 102 136 174 218 266 316
#     4  11  22  34  51  77 108 138 171 216 268 318
#     4  10  20  38  57  78 107 142 182 219 260 313
#
# _framework density 17.798075000000001
#
# number of rings (size 3 to 8) (size 9 to 14) (size 15 to 20)
#    0.000    2.000    1.667    2.000    0.000    6.333 
#    0.000    0.833    0.000    5.000    0.000    0.000 
#    0.000    4.667    0.000    0.000    0.000    0.000 
#
# Total GULP energy -595350.407941 kJ/mol
# GULP energy per Si atom -12403.133499 kJ/mol
# Density = 1.775757 g / cm^3
# Si number density = 17.798075 Si / 1000 Ang^3
#
#
#
# Elastic Constant Matrix: (Units=GPa)
#
#
# Indices 1 2 3 4 5 6 
#
# 1 76.9731 66.6323 55.7856 0.0000 0.0000 0.0000
# 2 66.6323 169.8024 76.2169 0.0000 0.0000 0.0000
# 3 55.7856 76.2169 100.4779 0.0000 0.0000 0.0000
# 4 0.0000 0.0000 0.0000 44.4076 0.0000 0.0000
# 5 0.0000 0.0000 0.0000 0.0000 28.7064 0.0000
# 6 0.0000 0.0000 0.0000 0.0000 0.0000 55.3591
#
#
#
# Elastic Compliance Matrix: (Units=1/GPa)
#
#
# Indices 1 2 3 4 5 6 
#
# 1 0.024557 -0.005332 -0.009590 0.000000 0.000000 0.000000
# 2 -0.005332 0.010087 -0.004691 0.000000 0.000000 0.000000
# 3 -0.009590 -0.004691 0.018835 0.000000 0.000000 0.000000
# 4 0.000000 0.000000 0.000000 0.022519 0.000000 0.000000
# 5 0.000000 0.000000 0.000000 0.000000 0.034835 0.000000
# 6 0.000000 0.000000 0.000000 0.000000 0.000000 0.018064
#
#
# Mechanical properties :
#
#
# Convention : Reuss Voigt Hill
#
# Bulk Modulus (GPa) = 70.15703 82.72477 76.44090
# Shear Modulus (GPa) = 28.92259 35.60252 32.26256
#
# Velocity S-wave (km/s) = 4.03555 4.47739 4.26220
# Velocity P-wave (km/s) = 7.82420 8.56212 8.20146
#
# Compressibility (1/GPa) = 0.01425374
#
# Stress axis : x y z
#
# Youngs Moduli (GPa) = 40.72081 99.13462 53.09235
#
# Poissons Ratio (x) = 0.52861 0.50914
# Poissons Ratio (y) = 0.21713 0.24907
# Poissons Ratio (z) = 0.39050 0.46506
#
# Static dielectric constant tensor:
#      x y z
#    x 3.348770 0.000000 0.000000 
#    y 0.000000 3.521640 0.000000 
#    z 0.000000 0.000000 3.334310 
# 
# 
# High freq. dielectric constant tensor:
#      x y z
#    x 1.691960 0.000000 0.000000 
#    y 0.000000 1.691950 0.000000 
#    z 0.000000 0.000000 1.686530 
# 
# From -- ./inp_files/67879.got.cif
#   From: 2010.03.12/outbox.cif.g09.slc.cpg/sg65_34_cif.got.tgz:67879.got - 2010.04.10 20:52:16.
