data_PCOD8271685
_publ_section_title
;
Structure prediction by ZEFSAII (Michael W. Deem and Ramdas Pophale) SiO2 
 PCOD8271685
Probable space group: C M M M
;
_chemical_formula_sum "Si O2"
_cell_formula_units_Z 72
_cell_length_a 8.907459
_cell_length_b 14.467039
_cell_length_c 30.805492
_cell_angle_alpha 90.000000
_cell_angle_beta 90.000000
_cell_angle_gamma 90.000000
_cell_volume 3969.736072
_symmetry_space_group_name_H-M "C M M M"
_symmetry_group_IT_number 65
_symmetry_cell_setting 'orthorhombic'
loop_
_space_group_symop_operation_xyz
x,y,z
-x,-y,z
x,-y,-z
-x,y,-z
-x,-y,-z
x,y,-z
-x,y,z
x,-y,z
1/2+x,1/2+y,z
1/2-x,1/2-y,z
1/2+x,1/2-y,-z
1/2-x,1/2+y,-z
1/2-x,1/2-y,-z
1/2+x,1/2+y,-z
1/2-x,1/2+y,z
1/2+x,1/2-y,z
loop_
_atom_site_type_symbol
_atom_site_label
_atom_site_fract_x
_atom_site_fract_y
_atom_site_fract_z
Si Si1 0.320677 0.500000 0.789355
Si Si2 0.322283 0.650005 0.500000
Si Si3 0.676923 0.850594 0.270277
Si Si4 0.176676 0.153786 0.951624
Si Si5 0.671100 0.000000 0.341705
Si Si6 0.323122 0.500000 0.432989
Si Si7 0.821678 0.000000 0.888167
O O1 0.500000 0.500000 0.784400
O O2 0.254148 0.593287 0.768674
O O3 0.264841 0.500000 0.838959
O O4 0.500000 0.662361 0.500000
O O5 0.250000 0.750000 0.500000
O O6 0.266978 0.592551 0.457673
O O7 0.500000 0.841610 0.260839
O O8 0.750000 0.750000 0.274868
O O9 0.706626 0.907800 0.314279
O O10 0.250000 0.250000 0.941289
O O11 0.000000 0.164128 0.947841
O O12 0.241351 0.087376 0.914486
O O13 0.219798 0.117955 0.000000
O O14 0.500000 0.000000 0.357086
O O15 0.773328 0.000000 0.383640
O O16 0.500000 0.500000 0.434706
O O17 0.000000 0.000000 0.889270
#
# Coordination Sequence:
#
# PCOD8271685 Si02
#       7
#     8   8  16  16   8   8   8
#     4  10  20  35  54  77 105 135 170 213 259 309
#     4   9  19  35  52  74 104 141 179 213 252 300
#     4  10  21  38  57  78 105 137 173 214 261 314
#     4   9  17  31  50  71  97 129 164 202 244 292
#     4   9  20  36  54  79 107 132 169 217 260 307
#     4   9  19  35  53  74 106 141 173 211 256 305
#     4   9  18  32  51  74  98 129 167 202 244 300
#
# _framework density 18.137225000000001
#
# number of rings (size 3 to 8) (size 9 to 14) (size 15 to 20)
#    0.000    2.667    0.000    2.667    0.000    6.667 
#    0.000   10.556    0.000    2.667    0.000    0.000 
#    0.000    0.000    0.000    0.000    0.000    0.000 
#
# Total GULP energy -446263.736677 kJ/mol
# GULP energy per Si atom -12396.214908 kJ/mol
# Density = 1.809594 g / cm^3
# Si number density = 18.137225 Si / 1000 Ang^3
#
#
#
# Elastic Constant Matrix: (Units=GPa)
#
#
# Indices 1 2 3 4 5 6 
#
# 1 54.0304 52.4433 42.9111 0.0000 0.0000 0.0000
# 2 52.4433 164.7443 81.0188 0.0000 0.0000 0.0000
# 3 42.9111 81.0188 144.9781 0.0000 0.0000 0.0000
# 4 0.0000 0.0000 0.0000 18.5916 0.0000 0.0000
# 5 0.0000 0.0000 0.0000 0.0000 25.0177 0.0000
# 6 0.0000 0.0000 0.0000 0.0000 0.0000 32.8170
#
#
#
# Elastic Compliance Matrix: (Units=1/GPa)
#
#
# Indices 1 2 3 4 5 6 
#
# 1 0.028945 -0.006896 -0.004713 0.000000 0.000000 0.000000
# 2 -0.006896 0.010013 -0.003555 0.000000 0.000000 0.000000
# 3 -0.004713 -0.003555 0.010279 0.000000 0.000000 0.000000
# 4 0.000000 0.000000 0.000000 0.053788 0.000000 0.000000
# 5 0.000000 0.000000 0.000000 0.000000 0.039972 0.000000
# 6 0.000000 0.000000 0.000000 0.000000 0.000000 0.030472
#
#
# Mechanical properties :
#
#
# Convention : Reuss Voigt Hill
#
# Bulk Modulus (GPa) = 52.88455 79.61102 66.24778
# Shear Modulus (GPa) = 23.79808 27.77723 25.78766
#
# Velocity S-wave (km/s) = 3.62624 3.91769 3.77478
# Velocity P-wave (km/s) = 6.83770 8.02829 7.45679
#
# Compressibility (1/GPa) = 0.01890912
#
# Stress axis : x y z
#
# Youngs Moduli (GPa) = 34.54809 99.86596 97.28381
#
# Poissons Ratio (x) = 0.68869 0.45855
# Poissons Ratio (y) = 0.23825 0.34581
# Poissons Ratio (z) = 0.16284 0.35499
#
# Static dielectric constant tensor:
#      x y z
#    x 3.208380 0.000000 0.000000 
#    y 0.000000 3.478030 0.000000 
#    z 0.000000 0.000000 3.514100 
# 
# 
# High freq. dielectric constant tensor:
#      x y z
#    x 1.692330 0.000000 0.000000 
#    y 0.000000 1.710920 0.000000 
#    z 0.000000 0.000000 1.706040 
# 
# From -- ./inp_files/76396.got.cif
#   From: 2010.03.12/outbox.cif.g09.slc.cpg/sg65_39_cif.got.tgz:76396.got - 2010.04.10 20:52:16.
