data_PCOD8271347
_publ_section_title
;
Structure prediction by ZEFSAII (Michael W. Deem and Ramdas Pophale) SiO2 
 PCOD8271347
Probable space group: C M M M
;
_chemical_formula_sum "Si O2"
_cell_formula_units_Z 112
_cell_length_a 14.665811
_cell_length_b 17.314609
_cell_length_c 23.357369
_cell_angle_alpha 90.000000
_cell_angle_beta 90.000000
_cell_angle_gamma 90.000000
_cell_volume 5931.201717
_symmetry_space_group_name_H-M "C M M M"
_symmetry_group_IT_number 65
_symmetry_cell_setting 'orthorhombic'
loop_
_space_group_symop_operation_xyz
x,y,z
-x,-y,z
x,-y,-z
-x,y,-z
-x,-y,-z
x,y,-z
-x,y,z
x,-y,z
1/2+x,1/2+y,z
1/2-x,1/2-y,z
1/2+x,1/2-y,-z
1/2-x,1/2+y,-z
1/2-x,1/2-y,-z
1/2+x,1/2+y,-z
1/2-x,1/2+y,z
1/2+x,1/2-y,z
loop_
_atom_site_type_symbol
_atom_site_label
_atom_site_fract_x
_atom_site_fract_y
_atom_site_fract_z
Si Si1 0.604973 0.172960 0.661242
Si Si2 0.237669 0.340914 0.563128
Si Si3 0.397016 0.586867 0.242234
Si Si4 0.266066 0.339467 0.157958
Si Si5 0.398479 0.348682 0.638280
Si Si6 0.397361 0.590913 0.065516
Si Si7 0.394684 0.909441 0.221701
O O1 0.500000 0.153828 0.650583
O O2 0.658035 0.136046 0.607319
O O3 0.625227 0.264213 0.664048
O O4 0.637319 0.134772 0.720711
O O5 0.217168 0.375873 0.500000
O O6 0.250000 0.250000 0.557882
O O7 0.332443 0.374804 0.587232
O O8 0.500000 0.607813 0.223922
O O9 0.372336 0.500000 0.222483
O O10 0.330193 0.647197 0.212679
O O11 0.387096 0.591066 0.310409
O O12 0.250000 0.250000 0.148806
O O13 0.317499 0.370517 0.102104
O O14 0.168883 0.381680 0.169000
O O15 0.500000 0.349269 0.612608
O O16 0.500000 0.617142 0.084320
O O17 0.389404 0.500000 0.073525
O O18 0.380716 0.614939 0.000000
O O19 0.500000 0.890031 0.206680
O O20 0.380996 0.000000 0.232176
#
# Coordination Sequence:
#
# PCOD8271347 Si02
#       7
#    16  16  16  16  16  16  16
#     4   9  17  30  48  68  92 124 164 212 261 303
#     4   9  17  28  43  65  91 120 159 205 253 308
#     4  10  20  34  54  79 105 134 172 219 268 317
#     4  12  23  33  53  82 114 145 174 213 260 309
#     4   9  17  29  46  69  96 124 157 202 258 316
#     4   9  19  38  63  87 111 142 181 223 263 302
#     4  10  21  36  53  74 103 140 179 215 254 307
#
# _framework density 18.883189000000002
#
# number of rings (size 3 to 8) (size 9 to 14) (size 15 to 20)
#    0.000    2.286    0.000    3.857    0.000    5.429 
#    0.000    2.857    0.000    2.143    0.000    6.000 
#    0.000    0.000    0.000    0.000    0.000    0.000 
#
# Total GULP energy -694274.154488 kJ/mol
# GULP energy per Si atom -12397.752759 kJ/mol
# Density = 1.884021 g / cm^3
# Si number density = 18.883189 Si / 1000 Ang^3
#
#
#
# Elastic Constant Matrix: (Units=GPa)
#
#
# Indices 1 2 3 4 5 6 
#
# 1 122.2712 37.4085 70.6566 0.0000 0.0000 0.0000
# 2 37.4085 50.8772 30.5383 0.0000 0.0000 0.0000
# 3 70.6566 30.5383 112.3376 0.0000 0.0000 0.0000
# 4 0.0000 0.0000 0.0000 14.0677 0.0000 0.0000
# 5 0.0000 0.0000 0.0000 0.0000 33.0140 0.0000
# 6 0.0000 0.0000 0.0000 0.0000 0.0000 23.2597
#
#
#
# Elastic Compliance Matrix: (Units=1/GPa)
#
#
# Indices 1 2 3 4 5 6 
#
# 1 0.014276 -0.006103 -0.007320 0.000000 0.000000 0.000000
# 2 -0.006103 0.026097 -0.003256 0.000000 0.000000 0.000000
# 3 -0.007320 -0.003256 0.014391 0.000000 0.000000 0.000000
# 4 0.000000 0.000000 0.000000 0.071085 0.000000 0.000000
# 5 0.000000 0.000000 0.000000 0.000000 0.030290 0.000000
# 6 0.000000 0.000000 0.000000 0.000000 0.000000 0.042993
#
#
# Mechanical properties :
#
#
# Convention : Reuss Voigt Hill
#
# Bulk Modulus (GPa) = 46.71563 62.52144 54.61853
# Shear Modulus (GPa) = 20.86610 23.86043 22.36326
#
# Velocity S-wave (km/s) = 3.32777 3.55854 3.44509
# Velocity P-wave (km/s) = 6.28955 7.07572 6.69418
#
# Compressibility (1/GPa) = 0.02140611
#
# Stress axis : x y z
#
# Youngs Moduli (GPa) = 70.04970 38.31922 69.48907
#
# Poissons Ratio (x) = 0.23385 0.50865
# Poissons Ratio (y) = 0.42750 0.22624
# Poissons Ratio (z) = 0.51275 0.12476
#
# Static dielectric constant tensor:
#      x y z
#    x 3.742380 0.000000 0.000000 
#    y 0.000000 3.265340 0.000000 
#    z 0.000000 0.000000 3.481990 
# 
# 
# High freq. dielectric constant tensor:
#      x y z
#    x 1.746550 0.000000 0.000000 
#    y 0.000000 1.709940 0.000000 
#    z 0.000000 0.000000 1.719740 
# 
# From -- ./inp_files/70028.got.cif
#   From: 2010.03.12/outbox.cif.g09.slc.cpg/sg65_36_cif.got.tgz:70028.got - 2010.04.10 20:52:16.
