data_PCOD8271632
_publ_section_title
;
Structure prediction by ZEFSAII (Michael W. Deem and Ramdas Pophale) SiO2 
 PCOD8271632
Probable space group: C M M M
;
_chemical_formula_sum "Si O2"
_cell_formula_units_Z 64
_cell_length_a 8.508531
_cell_length_b 15.065743
_cell_length_c 26.067011
_cell_angle_alpha 90.000000
_cell_angle_beta 90.000000
_cell_angle_gamma 90.000000
_cell_volume 3341.460837
_symmetry_space_group_name_H-M "C M M M"
_symmetry_group_IT_number 65
_symmetry_cell_setting 'orthorhombic'
loop_
_space_group_symop_operation_xyz
x,y,z
-x,-y,z
x,-y,-z
-x,y,-z
-x,-y,-z
x,y,-z
-x,y,z
x,-y,z
1/2+x,1/2+y,z
1/2-x,1/2-y,z
1/2+x,1/2-y,-z
1/2-x,1/2+y,-z
1/2-x,1/2-y,-z
1/2+x,1/2+y,-z
1/2-x,1/2+y,z
1/2+x,1/2-y,z
loop_
_atom_site_type_symbol
_atom_site_label
_atom_site_fract_x
_atom_site_fract_y
_atom_site_fract_z
Si Si1 0.686866 0.647989 0.500000
Si Si2 0.686312 0.343328 0.127875
Si Si3 0.686489 0.500000 0.684618
Si Si4 0.312447 0.500000 0.057592
Si Si5 0.315340 0.000000 0.427539
Si Si6 0.185494 0.156982 0.757159
O O1 0.500000 0.653548 0.500000
O O2 0.750000 0.750000 0.500000
O O3 0.743321 0.591020 0.450766
O O4 0.500000 0.343230 0.127881
O O5 0.750000 0.250000 0.108047
O O6 0.752595 0.415082 0.088104
O O7 0.749411 0.363887 0.185453
O O8 0.500000 0.500000 0.674334
O O9 0.781005 0.500000 0.632259
O O10 0.743673 0.584174 0.717153
O O11 0.500000 0.500000 0.056472
O O12 0.243923 0.500000 0.000000
O O13 0.500000 0.000000 0.438593
O O14 0.250000 0.250000 0.736812
O O15 0.000000 0.159625 0.758855
#
# Coordination Sequence:
#
# PCOD8271632 Si02
#       6
#     8  16   8   8   8  16
#     4  11  22  41  66  88 112 147 188 229 270 314
#     4   9  17  31  50  71  95 127 167 209 254 306
#     4  10  20  35  53  75 106 142 175 214 263 311
#     4   9  17  29  47  70  95 126 165 205 250 310
#     4  11  23  39  58  86 118 148 184 224 268 319
#     4   9  18  32  51  73  99 132 171 212 256 309
#
# _framework density 19.153300000000002
#
# number of rings (size 3 to 8) (size 9 to 14) (size 15 to 20)
#    0.000    2.375    0.000    3.750    0.000    5.500 
#    0.000    3.125    0.000    6.750    0.000    0.000 
#    0.000    0.000    0.000    0.000    0.000    0.000 
#
# Total GULP energy -396712.455117 kJ/mol
# GULP energy per Si atom -12397.264222 kJ/mol
# Density = 1.910971 g / cm^3
# Si number density = 19.153300 Si / 1000 Ang^3
#
#
#
# Elastic Constant Matrix: (Units=GPa)
#
#
# Indices 1 2 3 4 5 6 
#
# 1 56.5505 38.5650 28.5520 0.0000 0.0000 0.0000
# 2 38.5650 189.4718 105.0533 0.0000 0.0000 0.0000
# 3 28.5520 105.0533 152.9919 0.0000 0.0000 0.0000
# 4 0.0000 0.0000 0.0000 16.9786 0.0000 0.0000
# 5 0.0000 0.0000 0.0000 0.0000 19.2499 0.0000
# 6 0.0000 0.0000 0.0000 0.0000 0.0000 32.1094
#
#
#
# Elastic Compliance Matrix: (Units=1/GPa)
#
#
# Indices 1 2 3 4 5 6 
#
# 1 0.020765 -0.003355 -0.001571 0.000000 0.000000 0.000000
# 2 -0.003355 0.009065 -0.005598 0.000000 0.000000 0.000000
# 3 -0.001571 -0.005598 0.010674 0.000000 0.000000 0.000000
# 4 0.000000 0.000000 0.000000 0.058898 0.000000 0.000000
# 5 0.000000 0.000000 0.000000 0.000000 0.051948 0.000000
# 6 0.000000 0.000000 0.000000 0.000000 0.000000 0.031143
#
#
# Mechanical properties :
#
#
# Convention : Reuss Voigt Hill
#
# Bulk Modulus (GPa) = 51.40441 82.59499 66.99970
# Shear Modulus (GPa) = 23.80652 28.79051 26.29852
#
# Velocity S-wave (km/s) = 3.52937 3.88127 3.70949
# Velocity P-wave (km/s) = 6.59585 7.95628 7.30779
#
# Compressibility (1/GPa) = 0.01945358
#
# Stress axis : x y z
#
# Youngs Moduli (GPa) = 48.15851 110.31818 93.68922
#
# Poissons Ratio (x) = 0.37014 0.14721
# Poissons Ratio (y) = 0.16158 0.52449
# Poissons Ratio (z) = 0.07567 0.61758
#
# Static dielectric constant tensor:
#      x y z
#    x 3.246950 0.000000 0.000000 
#    y 0.000000 3.680670 0.000000 
#    z 0.000000 0.000000 3.677580 
# 
# 
# High freq. dielectric constant tensor:
#      x y z
#    x 1.724770 0.000000 0.000000 
#    y 0.000000 1.755400 0.000000 
#    z 0.000000 0.000000 1.746740 
# 
# From -- ./inp_files/66868.got.cif
#   From: 2010.03.12/outbox.cif.g09.slc.cpg/sg65_34_cif.got.tgz:66868.got - 2010.04.10 20:52:16.
