data_PCOD8271595
_publ_section_title
;
Structure prediction by ZEFSAII (Michael W. Deem and Ramdas Pophale) SiO2 
 PCOD8271595
Probable space group: C M M M
;
_chemical_formula_sum "Si O2"
_cell_formula_units_Z 96
_cell_length_a 14.082825
_cell_length_b 13.861389
_cell_length_c 22.432492
_cell_angle_alpha 90.000000
_cell_angle_beta 90.000000
_cell_angle_gamma 90.000000
_cell_volume 4378.991031
_symmetry_space_group_name_H-M "C M M M"
_symmetry_group_IT_number 65
_symmetry_cell_setting 'orthorhombic'
loop_
_space_group_symop_operation_xyz
x,y,z
-x,-y,z
x,-y,-z
-x,y,-z
-x,-y,-z
x,y,-z
-x,y,z
x,-y,z
1/2+x,1/2+y,z
1/2-x,1/2-y,z
1/2+x,1/2-y,-z
1/2-x,1/2+y,-z
1/2-x,1/2-y,-z
1/2+x,1/2+y,-z
1/2-x,1/2+y,z
1/2+x,1/2-y,z
loop_
_atom_site_type_symbol
_atom_site_label
_atom_site_fract_x
_atom_site_fract_y
_atom_site_fract_z
Si Si1 0.855345 0.500000 0.562629
Si Si2 0.389101 0.800272 0.742370
Si Si3 0.800882 0.156697 0.433975
Si Si4 0.390247 0.220889 0.119087
Si Si5 0.389973 0.606448 0.316343
Si Si6 0.603594 0.000000 0.306174
Si Si7 0.278496 0.390444 0.069342
O O1 0.916152 0.500000 0.500000
O O2 0.788555 0.590086 0.561924
O O3 0.916115 0.500000 0.622874
O O4 0.500000 0.798434 0.725026
O O5 0.372169 0.804198 0.812458
O O6 0.343027 0.699144 0.717894
O O7 0.343797 0.899584 0.714011
O O8 0.847862 0.169976 0.500000
O O9 0.750000 0.250000 0.408138
O O10 0.879673 0.120428 0.387521
O O11 0.500000 0.210129 0.101079
O O12 0.355400 0.329785 0.106706
O O13 0.328562 0.147171 0.079810
O O14 0.500000 0.602478 0.299845
O O15 0.345114 0.500000 0.299203
O O16 0.500000 0.000000 0.274640
O O17 0.286322 0.500000 0.091291
O O18 0.302750 0.380317 0.000000
#
# Coordination Sequence:
#
# PCOD8271595 Si02
#       7
#     8  16  16  16  16   8  16
#     4  10  20  35  51  74 106 142 190 241 297 358
#     4   9  20  37  57  84 117 153 196 248 300 355
#     4  10  20  35  52  73 106 142 180 233 291 351
#     4  10  21  40  65  90 125 171 210 255 316 374
#     4  10  20  36  57  81 111 146 188 239 294 353
#     4  10  20  37  58  81 114 152 198 256 304 353
#     4  10  23  42  62  94 134 164 208 267 308 364
#
# _framework density 21.922858000000002
#
# number of rings (size 3 to 8) (size 9 to 14) (size 15 to 20)
#    0.000    2.167    0.833    2.000    1.167    3.167 
#    9.000    4.167    0.000    6.000    0.000    0.000 
#    0.000    0.000    0.000    0.000    0.000    0.000 
#
# Total GULP energy -594699.011453 kJ/mol
# GULP energy per Si atom -12389.562739 kJ/mol
# Density = 2.187296 g / cm^3
# Si number density = 21.922858 Si / 1000 Ang^3
#
#
#
# Elastic Constant Matrix: (Units=GPa)
#
#
# Indices 1 2 3 4 5 6 
#
# 1 30.7153 13.1217 14.6440 0.0000 0.0000 0.0000
# 2 13.1217 199.4080 49.1831 0.0000 0.0000 0.0000
# 3 14.6440 49.1831 84.3817 0.0000 0.0000 0.0000
# 4 0.0000 0.0000 0.0000 26.0112 0.0000 0.0000
# 5 0.0000 0.0000 0.0000 0.0000 25.8005 0.0000
# 6 0.0000 0.0000 0.0000 0.0000 0.0000 20.3323
#
#
#
# Elastic Compliance Matrix: (Units=1/GPa)
#
#
# Indices 1 2 3 4 5 6 
#
# 1 0.035650 -0.000958 -0.005629 0.000000 0.000000 0.000000
# 2 -0.000958 0.005883 -0.003263 0.000000 0.000000 0.000000
# 3 -0.005629 -0.003263 0.014729 0.000000 0.000000 0.000000
# 4 0.000000 0.000000 0.000000 0.038445 0.000000 0.000000
# 5 0.000000 0.000000 0.000000 0.000000 0.038759 0.000000
# 6 0.000000 0.000000 0.000000 0.000000 0.000000 0.049183
#
#
# Mechanical properties :
#
#
# Convention : Reuss Voigt Hill
#
# Bulk Modulus (GPa) = 27.34931 52.04472 39.69702
# Shear Modulus (GPa) = 23.30636 30.26589 26.78612
#
# Velocity S-wave (km/s) = 3.26407 3.71962 3.49927
# Velocity P-wave (km/s) = 5.16797 6.49915 5.87141
#
# Compressibility (1/GPa) = 0.03656399
#
# Stress axis : x y z
#
# Youngs Moduli (GPa) = 28.05076 169.99435 67.89170
#
# Poissons Ratio (x) = 0.16278 0.38214
# Poissons Ratio (y) = 0.02686 0.22150
# Poissons Ratio (z) = 0.15789 0.55461
#
# Static dielectric constant tensor:
#      x y z
#    x 3.552060 0.000000 0.000000 
#    y 0.000000 4.465340 0.000000 
#    z 0.000000 0.000000 4.049960 
# 
# 
# High freq. dielectric constant tensor:
#      x y z
#    x 1.835900 0.000000 0.000000 
#    y 0.000000 1.886350 0.000000 
#    z 0.000000 0.000000 1.858680 
# 
# From -- ./inp_files/69915.got.cif
#   From: 2010.03.12/outbox.cif.g09.slc.cpg/sg65_35_cif.got.tgz:69915.got - 2010.04.10 20:52:16.
