data_PCOD8271674
_publ_section_title
;
Structure prediction by ZEFSAII (Michael W. Deem and Ramdas Pophale) SiO2 
 PCOD8271674
Probable space group: C M M M
;
_chemical_formula_sum "Si O2"
_cell_formula_units_Z 104
_cell_length_a 10.195756
_cell_length_b 18.440813
_cell_length_c 30.841377
_cell_angle_alpha 90.000000
_cell_angle_beta 90.000000
_cell_angle_gamma 90.000000
_cell_volume 5798.734940
_symmetry_space_group_name_H-M "C M M M"
_symmetry_group_IT_number 65
_symmetry_cell_setting 'orthorhombic'
loop_
_space_group_symop_operation_xyz
x,y,z
-x,-y,z
x,-y,-z
-x,y,-z
-x,-y,-z
x,y,-z
-x,y,z
x,-y,z
1/2+x,1/2+y,z
1/2-x,1/2-y,z
1/2+x,1/2-y,-z
1/2-x,1/2+y,-z
1/2-x,1/2-y,-z
1/2+x,1/2+y,-z
1/2-x,1/2+y,z
1/2+x,1/2-y,z
loop_
_atom_site_type_symbol
_atom_site_label
_atom_site_fract_x
_atom_site_fract_y
_atom_site_fract_z
Si Si1 0.000000 0.580926 0.948897
Si Si2 0.256882 0.664840 0.050372
Si Si3 0.341768 0.680061 0.202690
Si Si4 0.845019 0.080904 0.281699
Si Si5 0.146580 0.920109 0.125670
Si Si6 0.844557 0.919988 0.622646
Si Si7 0.650546 0.684560 0.451854
O O1 0.876980 0.627663 0.933779
O O2 0.000000 0.500000 0.928282
O O3 0.000000 0.573702 0.000000
O O4 0.250000 0.750000 0.060129
O O5 0.361747 0.624062 0.080161
O O6 0.290482 0.650895 0.000000
O O7 0.500000 0.697317 0.200831
O O8 0.250000 0.750000 0.200062
O O9 0.298493 0.638856 0.246407
O O10 0.291268 0.629707 0.163040
O O11 0.799293 0.107769 0.329610
O O12 0.000000 0.075126 0.280234
O O13 0.788073 0.000000 0.271962
O O14 0.000000 0.935148 0.140686
O O15 0.215861 0.000000 0.121061
O O16 0.792490 0.870180 0.583952
O O17 0.000000 0.922933 0.620638
O O18 0.786273 0.000000 0.615112
O O19 0.655587 0.649151 0.500000
O O20 0.500000 0.708600 0.441553
O O21 0.750000 0.750000 0.449785
#
# Coordination Sequence:
#
# PCOD8271674 Si02
#       7
#     8  16  16  16  16  16  16
#     4   9  18  34  54  74 101 137 171 199 238 298
#     4  10  21  35  54  78 105 133 164 203 245 288
#     4  10  20  35  54  76 102 129 160 199 244 292
#     4   8  14  27  49  73  96 125 160 198 241 289
#     4  10  21  36  54  75  99 128 163 201 241 288
#     4   8  14  25  43  69  95 119 157 205 244 283
#     4   9  17  28  42  62  91 126 160 198 245 292
#
# _framework density 17.934946
#
# number of rings (size 3 to 8) (size 9 to 14) (size 15 to 20)
#    0.000    2.846    0.000    2.308    1.077    4.000 
#    1.385    2.308    0.000    1.846    0.000    4.308 
#    0.000    0.000    0.000    0.000    0.000    0.000 
#
# Total GULP energy -644183.952483 kJ/mol
# GULP energy per Si atom -12388.152932 kJ/mol
# Density = 1.789412 g / cm^3
# Si number density = 17.934946 Si / 1000 Ang^3
#
#
#
# Elastic Constant Matrix: (Units=GPa)
#
#
# Indices 1 2 3 4 5 6 
#
# 1 39.4042 32.3460 21.2391 0.0000 0.0000 0.0000
# 2 32.3460 144.8069 86.6613 0.0000 0.0000 0.0000
# 3 21.2391 86.6613 142.0112 0.0000 0.0000 0.0000
# 4 0.0000 0.0000 0.0000 -40.3052 0.0000 0.0000
# 5 0.0000 0.0000 0.0000 0.0000 15.0214 0.0000
# 6 0.0000 0.0000 0.0000 0.0000 0.0000 22.9894
#
#
#
# Elastic Compliance Matrix: (Units=1/GPa)
#
#
# Indices 1 2 3 4 5 6 
#
# 1 0.031114 -0.006561 -0.000649 0.000000 0.000000 0.000000
# 2 -0.006561 0.012262 -0.006502 0.000000 0.000000 0.000000
# 3 -0.000649 -0.006502 0.011106 0.000000 0.000000 0.000000
# 4 0.000000 0.000000 0.000000 -0.024811 0.000000 0.000000
# 5 0.000000 0.000000 0.000000 0.000000 0.066572 0.000000
# 6 0.000000 0.000000 0.000000 0.000000 0.000000 0.043498
#
#
# Mechanical properties :
#
#
# Convention : Reuss Voigt Hill
#
# Bulk Modulus (GPa) = 36.95770 67.41280 52.18525
# Shear Modulus (GPa) = 28.37896 11.93950 20.15923
#
# Velocity S-wave (km/s) = 3.98216 2.58294 3.35628
# Velocity P-wave (km/s) = 6.46489 6.82381 6.64677
#
# Compressibility (1/GPa) = 0.02705796
#
# Stress axis : x y z
#
# Youngs Moduli (GPa) = 32.13975 81.54972 90.03775
#
# Poissons Ratio (x) = 0.53509 0.05846
# Poissons Ratio (y) = 0.21088 0.58540
# Poissons Ratio (z) = 0.02087 0.53022
#
# Static dielectric constant tensor:
#      x y z
#    x 2.994020 0.000000 0.000000 
#    y 0.000000 3.525160 0.000000 
#    z 0.000000 0.000000 3.656880 
# 
# 
# High freq. dielectric constant tensor:
#      x y z
#    x 1.647310 0.000000 0.000000 
#    y 0.000000 1.697630 0.000000 
#    z 0.000000 0.000000 1.704250 
# 
# From -- ./inp_files/77504.got.cif
#   From: 2010.03.12/outbox.cif.g09.slc.cpg/sg65_39_cif.got.tgz:77504.got - 2010.04.10 20:52:16.
