data_PCOD8271878
_publ_section_title
;
Structure prediction by ZEFSAII (Michael W. Deem and Ramdas Pophale) SiO2 
 PCOD8271878
Probable space group: C M M M
;
_chemical_formula_sum "Si O2"
_cell_formula_units_Z 64
_cell_length_a 7.973678
_cell_length_b 18.453043
_cell_length_c 21.967147
_cell_angle_alpha 90.000000
_cell_angle_beta 90.000000
_cell_angle_gamma 90.000000
_cell_volume 3232.215761
_symmetry_space_group_name_H-M "C M M M"
_symmetry_group_IT_number 65
_symmetry_cell_setting 'orthorhombic'
loop_
_space_group_symop_operation_xyz
x,y,z
-x,-y,z
x,-y,-z
-x,y,-z
-x,-y,-z
x,y,-z
-x,y,z
x,-y,z
1/2+x,1/2+y,z
1/2-x,1/2-y,z
1/2+x,1/2-y,-z
1/2-x,1/2+y,-z
1/2-x,1/2-y,-z
1/2+x,1/2+y,-z
1/2-x,1/2+y,z
1/2+x,1/2-y,z
loop_
_atom_site_type_symbol
_atom_site_label
_atom_site_fract_x
_atom_site_fract_y
_atom_site_fract_z
Si Si1 0.188028 0.583958 0.352049
Si Si2 0.188823 0.914046 0.000000
Si Si3 0.307404 0.083279 0.871022
Si Si4 0.689828 0.331237 0.240406
Si Si5 0.000000 0.086024 0.568013
O O1 0.221698 0.500000 0.336777
O O2 0.195926 0.627846 0.289405
O O3 0.329816 0.613073 0.398693
O O4 0.000000 0.594482 0.379698
O O5 0.280860 0.885641 0.939228
O O6 0.000000 0.884660 0.000000
O O7 0.196061 0.000000 0.000000
O O8 0.500000 0.091186 0.852562
O O9 0.198032 0.129647 0.824566
O O10 0.247382 0.000000 0.867226
O O11 0.500000 0.333132 0.264118
O O12 0.750000 0.250000 0.232137
O O13 0.000000 0.118965 0.500000
O O14 0.000000 0.000000 0.564895
#
# Coordination Sequence:
#
# PCOD8271878 Si02
#       5
#    16   8  16  16   8
#     4  10  20  36  59  88 119 152 191 234 283 337
#     4   9  17  31  52  79 108 143 184 229 281 335
#     4  10  20  35  56  82 112 145 186 233 283 340
#     4  12  24  38  56  81 112 150 191 238 287 341
#     4   9  18  34  58  90 122 151 188 232 279 333
#
# _framework density 19.800660000000001
#
# number of rings (size 3 to 8) (size 9 to 14) (size 15 to 20)
#    0.000    1.750    1.250    4.125    0.000    6.500 
#    0.000    3.125    0.000    0.750    0.000    0.000 
#    0.000    0.000    0.000    0.000    0.000    0.000 
#
# Total GULP energy -396840.982422 kJ/mol
# GULP energy per Si atom -12401.280701 kJ/mol
# Density = 1.975559 g / cm^3
# Si number density = 19.800660 Si / 1000 Ang^3
#
#
#
# Elastic Constant Matrix: (Units=GPa)
#
#
# Indices 1 2 3 4 5 6 
#
# 1 125.5461 29.0002 45.3192 0.0000 0.0000 0.0000
# 2 29.0002 65.6200 42.7359 0.0000 0.0000 0.0000
# 3 45.3192 42.7359 137.7582 0.0000 0.0000 0.0000
# 4 0.0000 0.0000 0.0000 1.1560 0.0000 0.0000
# 5 0.0000 0.0000 0.0000 0.0000 29.5555 0.0000
# 6 0.0000 0.0000 0.0000 0.0000 0.0000 18.8161
#
#
#
# Elastic Compliance Matrix: (Units=1/GPa)
#
#
# Indices 1 2 3 4 5 6 
#
# 1 0.009401 -0.002682 -0.002260 0.000000 0.000000 0.000000
# 2 -0.002682 0.019863 -0.005280 0.000000 0.000000 0.000000
# 3 -0.002260 -0.005280 0.009641 0.000000 0.000000 0.000000
# 4 0.000000 0.000000 0.000000 0.865036 0.000000 0.000000
# 5 0.000000 0.000000 0.000000 0.000000 0.033835 0.000000
# 6 0.000000 0.000000 0.000000 0.000000 0.000000 0.053146
#
#
# Mechanical properties :
#
#
# Convention : Reuss Voigt Hill
#
# Bulk Modulus (GPa) = 54.17246 62.55942 58.36594
# Shear Modulus (GPa) = 4.91391 24.03015 14.47203
#
# Velocity S-wave (km/s) = 1.57705 3.48746 2.70642
# Velocity P-wave (km/s) = 5.54386 6.91952 6.26953
#
# Compressibility (1/GPa) = 0.01845956
#
# Stress axis : x y z
#
# Youngs Moduli (GPa) = 106.37391 50.34453 103.72813
#
# Poissons Ratio (x) = 0.13505 0.23448
# Poissons Ratio (y) = 0.28534 0.54764
# Poissons Ratio (z) = 0.24046 0.26580
#
# Static dielectric constant tensor:
#      x y z
#    x 3.753650 0.000000 0.000000 
#    y 0.000000 3.246140 0.000000 
#    z 0.000000 0.000000 3.673590 
# 
# 
# High freq. dielectric constant tensor:
#      x y z
#    x 1.788910 0.000000 0.000000 
#    y 0.000000 1.730950 0.000000 
#    z 0.000000 0.000000 1.770890 
# 
# From -- ./inp_files/58772.got.cif
#   From: 2010.03.12/outbox.cif.g09.slc.cpg/sg65_30_cif.got.tgz:58772.got - 2010.04.10 20:52:16.
