data_PCOD8271291
_publ_section_title
;
Structure prediction by ZEFSAII (Michael W. Deem and Ramdas Pophale) SiO2 
 PCOD8271291
Probable space group: C M M M
;
_chemical_formula_sum "Si O2"
_cell_formula_units_Z 96
_cell_length_a 15.270637
_cell_length_b 21.270757
_cell_length_c 15.342844
_cell_angle_alpha 90.000000
_cell_angle_beta 90.000000
_cell_angle_gamma 90.000000
_cell_volume 4983.632038
_symmetry_space_group_name_H-M "C M M M"
_symmetry_group_IT_number 65
_symmetry_cell_setting 'orthorhombic'
loop_
_space_group_symop_operation_xyz
x,y,z
-x,-y,z
x,-y,-z
-x,y,-z
-x,-y,-z
x,y,-z
-x,y,z
x,-y,z
1/2+x,1/2+y,z
1/2-x,1/2-y,z
1/2+x,1/2-y,-z
1/2-x,1/2+y,-z
1/2-x,1/2-y,-z
1/2+x,1/2+y,-z
1/2-x,1/2+y,z
1/2+x,1/2-y,z
loop_
_atom_site_type_symbol
_atom_site_label
_atom_site_fract_x
_atom_site_fract_y
_atom_site_fract_z
Si Si1 0.740038 0.072662 0.400408
Si Si2 0.903160 0.845139 0.599580
Si Si3 0.098807 0.610968 0.259844
Si Si4 0.354013 0.747712 0.739322
Si Si5 0.301333 0.929584 0.097647
Si Si6 0.315640 0.309136 0.905109
O O1 0.716228 0.090544 0.500000
O O2 0.828430 0.106990 0.368356
O O3 0.659272 0.090972 0.340094
O O4 0.761223 0.000000 0.391062
O O5 0.886876 0.825777 0.500000
O O6 0.898544 0.781273 0.654429
O O7 0.000000 0.875651 0.610857
O O8 0.105473 0.684780 0.244170
O O9 0.123354 0.576292 0.169946
O O10 0.000000 0.591693 0.283654
O O11 0.250000 0.750000 0.724688
O O12 0.379874 0.704832 0.824073
O O13 0.229561 0.875928 0.115136
O O14 0.259953 0.000000 0.105458
O O15 0.340735 0.920163 0.000000
O O16 0.250000 0.250000 0.906177
O O17 0.362956 0.312637 0.000000
#
# Coordination Sequence:
#
# PCOD8271291 Si02
#       6
#    16  16  16  16  16  16
#     4  10  22  40  60  82 110 147 191 234 280 343
#     4  10  21  37  59  86 113 141 179 236 300 350
#     4  12  24  37  55  82 116 155 195 234 281 337
#     4  11  19  35  58  82 110 149 189 234 285 342
#     4  10  20  34  53  81 115 150 192 240 286 337
#     4   9  16  31  57  81 107 149 194 236 287 341
#
# _framework density 19.263058999999998
#
# number of rings (size 3 to 8) (size 9 to 14) (size 15 to 20)
#    0.000    1.667    5.000    1.000    0.000    3.333 
#    0.000    3.333    0.000    1.500    0.000    0.000 
#    0.000    0.000    0.000   33.333    0.000    0.500 
#
# Total GULP energy -594922.134649 kJ/mol
# GULP energy per Si atom -12394.211139 kJ/mol
# Density = 1.921922 g / cm^3
# Si number density = 19.263059 Si / 1000 Ang^3
#
#
#
# Elastic Constant Matrix: (Units=GPa)
#
#
# Indices 1 2 3 4 5 6 
#
# 1 67.2283 19.9499 41.7709 0.0000 0.0000 0.0000
# 2 19.9499 118.9485 40.5500 0.0000 0.0000 0.0000
# 3 41.7709 40.5500 118.1824 0.0000 0.0000 0.0000
# 4 0.0000 0.0000 0.0000 30.6831 0.0000 0.0000
# 5 0.0000 0.0000 0.0000 0.0000 16.4169 0.0000
# 6 0.0000 0.0000 0.0000 0.0000 0.0000 10.9327
#
#
#
# Elastic Compliance Matrix: (Units=1/GPa)
#
#
# Indices 1 2 3 4 5 6 
#
# 1 0.019170 -0.001025 -0.006424 0.000000 0.000000 0.000000
# 2 -0.001025 0.009575 -0.002923 0.000000 0.000000 0.000000
# 3 -0.006424 -0.002923 0.011735 0.000000 0.000000 0.000000
# 4 0.000000 0.000000 0.000000 0.032591 0.000000 0.000000
# 5 0.000000 0.000000 0.000000 0.000000 0.060913 0.000000
# 6 0.000000 0.000000 0.000000 0.000000 0.000000 0.091469
#
#
# Mechanical properties :
#
#
# Convention : Reuss Voigt Hill
#
# Bulk Modulus (GPa) = 50.66832 56.54452 53.60642
# Shear Modulus (GPa) = 19.78029 25.07910 22.42969
#
# Velocity S-wave (km/s) = 3.20793 3.61214 3.41602
# Velocity P-wave (km/s) = 6.33100 6.84210 6.59150
#
# Compressibility (1/GPa) = 0.01973620
#
# Stress axis : x y z
#
# Youngs Moduli (GPa) = 52.16416 104.43374 85.21584
#
# Poissons Ratio (x) = 0.10708 0.54741
# Poissons Ratio (y) = 0.05348 0.24909
# Poissons Ratio (z) = 0.33509 0.30527
#
# Static dielectric constant tensor:
#      x y z
#    x 3.277650 0.000000 0.000000 
#    y 0.000000 3.645260 0.000000 
#    z 0.000000 0.000000 4.095930 
# 
# 
# High freq. dielectric constant tensor:
#      x y z
#    x 1.708510 0.000000 0.000000 
#    y 0.000000 1.756110 0.000000 
#    z 0.000000 0.000000 1.772590 
# 
# From -- ./inp_files/40331.got.cif
#   From: 2010.03.12/outbox.cif.g09.slc.cpg/sg65_21_cif.got.tgz:40331.got - 2010.04.10 20:52:16.
