data_PCOD8271941
_publ_section_title
;
Structure prediction by ZEFSAII (Michael W. Deem and Ramdas Pophale) SiO2 
 PCOD8271941
Probable space group: C M M M
;
_chemical_formula_sum "Si O2"
_cell_formula_units_Z 64
_cell_length_a 16.477111
_cell_length_b 8.905479
_cell_length_c 21.786748
_cell_angle_alpha 90.000000
_cell_angle_beta 90.000000
_cell_angle_gamma 90.000000
_cell_volume 3196.912586
_symmetry_space_group_name_H-M "C M M M"
_symmetry_group_IT_number 65
_symmetry_cell_setting 'orthorhombic'
loop_
_space_group_symop_operation_xyz
x,y,z
-x,-y,z
x,-y,-z
-x,y,-z
-x,-y,-z
x,y,-z
-x,y,z
x,-y,z
1/2+x,1/2+y,z
1/2-x,1/2-y,z
1/2+x,1/2-y,-z
1/2-x,1/2+y,-z
1/2-x,1/2-y,-z
1/2+x,1/2+y,-z
1/2-x,1/2+y,z
1/2+x,1/2-y,z
loop_
_atom_site_type_symbol
_atom_site_label
_atom_site_fract_x
_atom_site_fract_y
_atom_site_fract_z
Si Si1 0.835805 0.823237 0.000000
Si Si2 0.500000 0.322002 0.429804
Si Si3 0.166559 0.176570 0.223267
Si Si4 0.335306 0.676393 0.364809
Si Si5 0.592308 0.164466 0.115300
O O1 0.750000 0.750000 0.000000
O O2 0.878690 0.772352 0.938200
O O3 0.830083 0.000000 0.000000
O O4 0.500000 0.500000 0.422553
O O5 0.500000 0.269342 0.500000
O O6 0.584185 0.260552 0.399649
O O7 0.250000 0.250000 0.201120
O O8 0.149026 0.216065 0.293916
O O9 0.099196 0.252779 0.180892
O O10 0.168676 0.000000 0.212362
O O11 0.325509 0.500000 0.376113
O O12 0.250000 0.750000 0.387734
O O13 0.500000 0.133238 0.102587
O O14 0.636599 0.000000 0.115100
#
# Coordination Sequence:
#
# PCOD8271941 Si02
#       5
#     8   8  16  16  16
#     4  12  25  42  63  83 109 147 189 232 279 336
#     4   9  18  34  57  85 117 156 199 240 289 351
#     4  10  20  35  57  82 112 146 189 236 284 342
#     4   9  19  35  57  84 116 154 196 245 294 348
#     4  11  24  40  58  83 115 147 183 231 286 338
#
# _framework density 20.019316
#
# number of rings (size 3 to 8) (size 9 to 14) (size 15 to 20)
#    0.000    1.875    0.000    3.750    1.750    5.000 
#    0.000    0.625    0.000    0.750    0.000    0.000 
#    0.000    0.000    0.000    0.000    0.000    0.000 
#
# Total GULP energy -396675.215754 kJ/mol
# GULP energy per Si atom -12396.100492 kJ/mol
# Density = 1.997375 g / cm^3
# Si number density = 20.019316 Si / 1000 Ang^3
#
#
#
# Elastic Constant Matrix: (Units=GPa)
#
#
# Indices 1 2 3 4 5 6 
#
# 1 138.6229 45.4704 65.7503 0.0000 0.0000 0.0000
# 2 45.4704 115.0912 50.2486 0.0000 0.0000 0.0000
# 3 65.7503 50.2486 116.0815 0.0000 0.0000 0.0000
# 4 0.0000 0.0000 0.0000 23.2767 0.0000 0.0000
# 5 0.0000 0.0000 0.0000 0.0000 31.1108 0.0000
# 6 0.0000 0.0000 0.0000 0.0000 0.0000 28.3118
#
#
#
# Elastic Compliance Matrix: (Units=1/GPa)
#
#
# Indices 1 2 3 4 5 6 
#
# 1 0.010175 -0.001854 -0.004961 0.000000 0.000000 0.000000
# 2 -0.001854 0.011051 -0.003734 0.000000 0.000000 0.000000
# 3 -0.004961 -0.003734 0.013041 0.000000 0.000000 0.000000
# 4 0.000000 0.000000 0.000000 0.042961 0.000000 0.000000
# 5 0.000000 0.000000 0.000000 0.000000 0.032143 0.000000
# 6 0.000000 0.000000 0.000000 0.000000 0.000000 0.035321
#
#
# Mechanical properties :
#
#
# Convention : Reuss Voigt Hill
#
# Bulk Modulus (GPa) = 75.92947 76.97046 76.44996
# Shear Modulus (GPa) = 29.38081 30.42829 29.90455
#
# Velocity S-wave (km/s) = 3.83511 3.90288 3.86914
# Velocity P-wave (km/s) = 7.59087 7.67082 7.63095
#
# Compressibility (1/GPa) = 0.01317012
#
# Stress axis : x y z
#
# Youngs Moduli (GPa) = 98.28154 90.48626 76.68354
#
# Poissons Ratio (x) = 0.16777 0.38040
# Poissons Ratio (y) = 0.18222 0.28631
# Poissons Ratio (z) = 0.48754 0.33785
#
# Static dielectric constant tensor:
#      x y z
#    x 3.786690 0.000000 0.000000 
#    y 0.000000 3.399090 0.000000 
#    z 0.000000 0.000000 3.649590 
# 
# 
# High freq. dielectric constant tensor:
#      x y z
#    x 1.785900 0.000000 0.000000 
#    y 0.000000 1.776470 0.000000 
#    z 0.000000 0.000000 1.783060 
# 
# From -- ./inp_files/66765.got.cif
#   From: 2010.03.12/outbox.cif.g09.slc.cpg/sg65_34_cif.got.tgz:66765.got - 2010.04.10 20:52:16.
