data_PCOD8271820
_publ_section_title
;
Structure prediction by ZEFSAII (Michael W. Deem and Ramdas Pophale) SiO2 
 PCOD8271820
Probable space group: C M M M
;
_chemical_formula_sum "Si O2"
_cell_formula_units_Z 88
_cell_length_a 24.315639
_cell_length_b 19.705353
_cell_length_c 9.563559
_cell_angle_alpha 90.000000
_cell_angle_beta 90.000000
_cell_angle_gamma 90.000000
_cell_volume 4582.362558
_symmetry_space_group_name_H-M "C M M M"
_symmetry_group_IT_number 65
_symmetry_cell_setting 'orthorhombic'
loop_
_space_group_symop_operation_xyz
x,y,z
-x,-y,z
x,-y,-z
-x,y,-z
-x,-y,-z
x,y,-z
-x,y,z
x,-y,z
1/2+x,1/2+y,z
1/2-x,1/2-y,z
1/2+x,1/2-y,-z
1/2-x,1/2+y,-z
1/2-x,1/2-y,-z
1/2+x,1/2+y,-z
1/2-x,1/2+y,z
1/2+x,1/2-y,z
loop_
_atom_site_type_symbol
_atom_site_label
_atom_site_fract_x
_atom_site_fract_y
_atom_site_fract_z
Si Si1 0.584697 0.828363 0.335448
Si Si2 0.000000 0.418574 0.832421
Si Si3 0.254790 0.575070 0.848089
Si Si4 0.711439 0.188902 0.335488
Si Si5 0.115697 0.926448 0.844858
Si Si6 0.560490 0.679281 0.654592
O O1 0.580452 0.849268 0.500000
O O2 0.554846 0.886062 0.240608
O O3 0.647539 0.811458 0.289985
O O4 0.554254 0.757852 0.303554
O O5 0.000000 0.500000 0.806432
O O6 0.000000 0.403481 0.000000
O O7 0.230355 0.500000 0.824924
O O8 0.235110 0.619223 0.720210
O O9 0.319621 0.572017 0.849164
O O10 0.234557 0.603024 0.000000
O O11 0.716745 0.189224 0.500000
O O12 0.750000 0.250000 0.274379
O O13 0.099336 0.862812 0.753563
O O14 0.094714 0.000000 0.786784
O O15 0.091477 0.915655 0.000000
O O16 0.586698 0.674633 0.500000
O O17 0.500000 0.646536 0.658928
#
# Coordination Sequence:
#
# PCOD8271820 Si02
#       6
#    16   8  16  16  16  16
#     4  10  21  40  62  84 115 153 191 234 291 355
#     4  11  25  43  63  89 118 151 198 253 303 352
#     4   9  19  36  55  76 108 148 185 223 272 330
#     4  10  21  36  58  88 118 149 189 237 288 346
#     4   9  19  35  53  76 109 149 188 224 269 326
#     4  10  20  35  56  79 105 140 183 229 276 328
#
# _framework density 19.204066999999998
#
# number of rings (size 3 to 8) (size 9 to 14) (size 15 to 20)
#    0.000    2.273    0.909    2.455    0.000    6.909 
#    0.000    7.273    0.000    0.000    0.000    0.000 
#    0.000    0.000    0.000    0.000    0.000    0.000 
#
# Total GULP energy -545147.325691 kJ/mol
# GULP energy per Si atom -12389.711948 kJ/mol
# Density = 1.916036 g / cm^3
# Si number density = 19.204067 Si / 1000 Ang^3
#
#
#
# Elastic Constant Matrix: (Units=GPa)
#
#
# Indices 1 2 3 4 5 6 
#
# 1 88.3525 47.8179 38.3873 0.0000 0.0000 0.0000
# 2 47.8179 106.3066 56.9978 0.0000 0.0000 0.0000
# 3 38.3873 56.9978 62.1727 0.0000 0.0000 0.0000
# 4 0.0000 0.0000 0.0000 29.7884 0.0000 0.0000
# 5 0.0000 0.0000 0.0000 0.0000 28.4584 0.0000
# 6 0.0000 0.0000 0.0000 0.0000 0.0000 35.6952
#
#
#
# Elastic Compliance Matrix: (Units=1/GPa)
#
#
# Indices 1 2 3 4 5 6 
#
# 1 0.016207 -0.003786 -0.006536 0.000000 0.000000 0.000000
# 2 -0.003786 0.019385 -0.015434 0.000000 0.000000 0.000000
# 3 -0.006536 -0.015434 0.034269 0.000000 0.000000 0.000000
# 4 0.000000 0.000000 0.000000 0.033570 0.000000 0.000000
# 5 0.000000 0.000000 0.000000 0.000000 0.035139 0.000000
# 6 0.000000 0.000000 0.000000 0.000000 0.000000 0.028015
#
#
# Mechanical properties :
#
#
# Convention : Reuss Voigt Hill
#
# Bulk Modulus (GPa) = 54.49746 60.35977 57.42862
# Shear Modulus (GPa) = 22.30030 26.36364 24.33197
#
# Velocity S-wave (km/s) = 3.41138 3.70917 3.56339
# Velocity P-wave (km/s) = 6.62996 7.05995 6.84833
#
# Compressibility (1/GPa) = 0.01834948
#
# Stress axis : x y z
#
# Youngs Moduli (GPa) = 61.70187 51.58731 29.18090
#
# Poissons Ratio (x) = 0.19529 0.19073
# Poissons Ratio (y) = 0.23358 0.45037
# Poissons Ratio (z) = 0.40329 0.79619
#
# Static dielectric constant tensor:
#      x y z
#    x 3.632090 0.000000 0.000000 
#    y 0.000000 4.427560 0.000000 
#    z 0.000000 0.000000 3.759730 
# 
# 
# High freq. dielectric constant tensor:
#      x y z
#    x 1.746450 0.000000 0.000000 
#    y 0.000000 1.749430 0.000000 
#    z 0.000000 0.000000 1.738900 
# 
# From -- ./inp_files/11795.got.cif
#   From: 2010.03.12/outbox.cif.g09.slc.cpg/sg65_6_cif.got.tgz:11795.got - 2010.04.10 20:52:16.
