data_PCOD8271112
_publ_section_title
;
Structure prediction by ZEFSAII (Michael W. Deem and Ramdas Pophale) SiO2 
 PCOD8271112
Probable space group: C M M M
;
_chemical_formula_sum "Si O2"
_cell_formula_units_Z 104
_cell_length_a 17.963546
_cell_length_b 33.794747
_cell_length_c 9.432154
_cell_angle_alpha 90.000000
_cell_angle_beta 90.000000
_cell_angle_gamma 90.000000
_cell_volume 5726.010669
_symmetry_space_group_name_H-M "C M M M"
_symmetry_group_IT_number 65
_symmetry_cell_setting 'orthorhombic'
loop_
_space_group_symop_operation_xyz
x,y,z
-x,-y,z
x,-y,-z
-x,y,-z
-x,-y,-z
x,y,-z
-x,y,z
x,-y,z
1/2+x,1/2+y,z
1/2-x,1/2-y,z
1/2+x,1/2-y,-z
1/2-x,1/2+y,-z
1/2-x,1/2-y,-z
1/2+x,1/2+y,-z
1/2-x,1/2+y,z
1/2+x,1/2-y,z
loop_
_atom_site_type_symbol
_atom_site_label
_atom_site_fract_x
_atom_site_fract_y
_atom_site_fract_z
Si Si1 0.335973 0.247922 0.666253
Si Si2 0.415683 0.595964 0.165902
Si Si3 0.912756 0.322346 0.166277
Si Si4 0.586370 0.327812 0.338010
Si Si5 0.140191 0.592698 0.831466
Si Si6 0.280116 0.455801 0.168078
Si Si7 0.500000 0.044453 0.169239
O O1 0.348308 0.240364 0.500000
O O2 0.250000 0.250000 0.707757
O O3 0.377419 0.213651 0.749681
O O4 0.370046 0.289489 0.715313
O O5 0.500000 0.584377 0.209964
O O6 0.388114 0.635342 0.243857
O O7 0.361475 0.560335 0.211778
O O8 0.409909 0.604711 0.000000
O O9 0.870284 0.362044 0.218292
O O10 0.000000 0.326399 0.201801
O O11 0.900759 0.315121 0.000000
O O12 0.605901 0.337953 0.500000
O O13 0.500000 0.318643 0.317270
O O14 0.216782 0.573804 0.771650
O O15 0.072631 0.566502 0.771106
O O16 0.138924 0.591399 0.000000
O O17 0.270623 0.500000 0.231794
O O18 0.272706 0.457894 0.000000
O O19 0.500000 0.000000 0.228353
O O20 0.500000 0.044794 0.000000
#
# Coordination Sequence:
#
# PCOD8271112 Si02
#       7
#    16  16  16  16  16  16   8
#     4  10  22  37  53  76 103 132 171 214 254 305
#     4   9  18  31  49  74 100 126 161 205 249 297
#     4  10  20  34  52  76 106 138 171 210 258 306
#     4   9  18  34  53  70  93 128 164 200 245 294
#     4   9  16  27  42  66 100 134 167 203 246 296
#     4   9  17  28  44  68  98 132 166 200 244 298
#     4   9  14  22  40  64  95 135 171 203 241 289
#
# _framework density 18.162731999999998
#
# number of rings (size 3 to 8) (size 9 to 14) (size 15 to 20)
#    0.000    2.692    0.769    0.923    2.154    4.000 
#    0.000    3.077    0.000    0.462    0.000    2.154 
#    0.000    2.462    0.000    0.000    0.000    0.000 
#
# Total GULP energy -644736.930115 kJ/mol
# GULP energy per Si atom -12398.787118 kJ/mol
# Density = 1.812139 g / cm^3
# Si number density = 18.162732 Si / 1000 Ang^3
#
#
#
# Elastic Constant Matrix: (Units=GPa)
#
#
# Indices 1 2 3 4 5 6 
#
# 1 118.7881 80.5484 27.4145 0.0000 0.0000 0.0000
# 2 80.5484 138.7642 35.4217 0.0000 0.0000 0.0000
# 3 27.4145 35.4217 25.0773 0.0000 0.0000 0.0000
# 4 0.0000 0.0000 0.0000 4.3629 0.0000 0.0000
# 5 0.0000 0.0000 0.0000 0.0000 15.9485 0.0000
# 6 0.0000 0.0000 0.0000 0.0000 0.0000 39.0671
#
#
#
# Elastic Compliance Matrix: (Units=1/GPa)
#
#
# Indices 1 2 3 4 5 6 
#
# 1 0.014471 -0.006821 -0.006185 0.000000 0.000000 0.000000
# 2 -0.006821 0.014485 -0.013004 0.000000 0.000000 0.000000
# 3 -0.006185 -0.013004 0.065006 0.000000 0.000000 0.000000
# 4 0.000000 0.000000 0.000000 0.229205 0.000000 0.000000
# 5 0.000000 0.000000 0.000000 0.000000 0.062702 0.000000
# 6 0.000000 0.000000 0.000000 0.000000 0.000000 0.025597
#
#
# Mechanical properties :
#
#
# Convention : Reuss Voigt Hill
#
# Bulk Modulus (GPa) = 23.84199 63.26654 43.55427
# Shear Modulus (GPa) = 10.47194 21.15869 15.81532
#
# Velocity S-wave (km/s) = 2.40378 3.41684 2.95406
# Velocity P-wave (km/s) = 4.56723 7.10459 5.97222
#
# Compressibility (1/GPa) = 0.04194281
#
# Stress axis : x y z
#
# Youngs Moduli (GPa) = 69.10314 69.03498 15.38326
#
# Poissons Ratio (x) = 0.47091 0.09514
# Poissons Ratio (y) = 0.47137 0.20004
# Poissons Ratio (z) = 0.42739 0.89771
#
# Static dielectric constant tensor:
#      x y z
#    x 3.550290 0.000000 0.000000 
#    y 0.000000 3.521240 0.000000 
#    z 0.000000 0.000000 2.907330 
# 
# 
# High freq. dielectric constant tensor:
#      x y z
#    x 1.716580 0.000000 0.000000 
#    y 0.000000 1.714630 0.000000 
#    z 0.000000 0.000000 1.649430 
# 
# From -- ./inp_files/27738.got.cif
#   From: 2010.03.12/outbox.cif.g09.slc.cpg/sg65_14_cif.got.tgz:27738.got - 2010.04.10 20:52:16.
