data_PCOD8271053
_publ_section_title
;
Structure prediction by ZEFSAII (Michael W. Deem and Ramdas Pophale) SiO2 
 PCOD8271053
Probable space group: C M M M
;
_chemical_formula_sum "Si O2"
_cell_formula_units_Z 88
_cell_length_a 8.972017
_cell_length_b 19.274814
_cell_length_c 27.776229
_cell_angle_alpha 90.000000
_cell_angle_beta 90.000000
_cell_angle_gamma 90.000000
_cell_volume 4803.453244
_symmetry_space_group_name_H-M "C M M M"
_symmetry_group_IT_number 65
_symmetry_cell_setting 'orthorhombic'
loop_
_space_group_symop_operation_xyz
x,y,z
-x,-y,z
x,-y,-z
-x,y,-z
-x,-y,-z
x,y,-z
-x,y,z
x,-y,z
1/2+x,1/2+y,z
1/2-x,1/2-y,z
1/2+x,1/2-y,-z
1/2-x,1/2+y,-z
1/2-x,1/2-y,-z
1/2+x,1/2+y,-z
1/2-x,1/2+y,z
1/2+x,1/2-y,z
loop_
_atom_site_type_symbol
_atom_site_label
_atom_site_fract_x
_atom_site_fract_y
_atom_site_fract_z
Si Si1 0.675369 0.678429 0.445514
Si Si2 0.168450 0.917526 0.000000
Si Si3 0.672091 0.081993 0.096262
Si Si4 0.177127 0.922712 0.636976
Si Si5 0.325537 0.679249 0.281337
Si Si6 0.675723 0.678129 0.828844
O O1 0.720808 0.658367 0.500000
O O2 0.500000 0.688772 0.440399
O O3 0.750000 0.750000 0.429361
O O4 0.733365 0.617565 0.410571
O O5 0.254578 0.890065 0.953021
O O6 0.000000 0.888272 0.000000
O O7 0.167733 0.000000 0.000000
O O8 0.500000 0.104141 0.096465
O O9 0.757317 0.115411 0.140855
O O10 0.691228 0.000000 0.101108
O O11 0.232560 0.883097 0.684950
O O12 0.000000 0.927223 0.636746
O O13 0.246405 0.000000 0.636894
O O14 0.500000 0.690328 0.287624
O O15 0.250000 0.750000 0.298680
O O16 0.283404 0.661624 0.226440
O O17 0.500000 0.683197 0.837263
O O18 0.750000 0.750000 0.845505
#
# Coordination Sequence:
#
# PCOD8271053 Si02
#       6
#    16   8  16  16  16  16
#     4   9  17  29  47  70  94 124 162 201 241 288
#     4   9  17  31  52  77 104 135 172 209 245 291
#     4  10  20  34  53  77 105 136 169 206 249 296
#     4   9  17  29  46  70  98 125 157 200 246 289
#     4   9  18  32  51  71  92 124 162 200 242 291
#     4  10  20  34  52  74 100 130 166 207 252 301
#
# _framework density 18.320153000000001
#
# number of rings (size 3 to 8) (size 9 to 14) (size 15 to 20)
#    0.000    2.636    0.000    1.909    0.000    4.000 
#    0.000    4.091    0.000    2.182    0.000    2.545 
#    0.000    0.000    0.000    0.000    0.000    0.000 
#
# Total GULP energy -545629.742385 kJ/mol
# GULP energy per Si atom -12400.675963 kJ/mol
# Density = 1.827846 g / cm^3
# Si number density = 18.320153 Si / 1000 Ang^3
#
#
#
# Elastic Constant Matrix: (Units=GPa)
#
#
# Indices 1 2 3 4 5 6 
#
# 1 66.5988 37.9027 41.2781 0.0000 0.0000 0.0000
# 2 37.9027 118.2679 78.9021 0.0000 0.0000 0.0000
# 3 41.2781 78.9021 127.9320 0.0000 0.0000 0.0000
# 4 0.0000 0.0000 0.0000 30.0460 0.0000 0.0000
# 5 0.0000 0.0000 0.0000 0.0000 20.6172 0.0000
# 6 0.0000 0.0000 0.0000 0.0000 0.0000 27.2789
#
#
#
# Elastic Compliance Matrix: (Units=1/GPa)
#
#
# Indices 1 2 3 4 5 6 
#
# 1 0.019587 -0.003502 -0.004160 0.000000 0.000000 0.000000
# 2 -0.003502 0.014993 -0.008117 0.000000 0.000000 0.000000
# 3 -0.004160 -0.008117 0.014165 0.000000 0.000000 0.000000
# 4 0.000000 0.000000 0.000000 0.033282 0.000000 0.000000
# 5 0.000000 0.000000 0.000000 0.000000 0.048503 0.000000
# 6 0.000000 0.000000 0.000000 0.000000 0.000000 0.036658
#
#
# Mechanical properties :
#
#
# Convention : Reuss Voigt Hill
#
# Bulk Modulus (GPa) = 58.18367 69.88492 64.03430
# Shear Modulus (GPa) = 24.45288 25.90282 25.17785
#
# Velocity S-wave (km/s) = 3.65739 3.76426 3.71121
# Velocity P-wave (km/s) = 7.04725 7.55792 7.30705
#
# Compressibility (1/GPa) = 0.01718695
#
# Stress axis : x y z
#
# Youngs Moduli (GPa) = 51.05529 66.69844 70.59639
#
# Poissons Ratio (x) = 0.23357 0.29368
# Poissons Ratio (y) = 0.17879 0.57303
# Poissons Ratio (z) = 0.21239 0.54139
#
# Static dielectric constant tensor:
#      x y z
#    x 3.266190 0.000000 0.000000 
#    y 0.000000 3.403780 0.000000 
#    z 0.000000 0.000000 3.586290 
# 
# 
# High freq. dielectric constant tensor:
#      x y z
#    x 1.696070 0.000000 0.000000 
#    y 0.000000 1.696630 0.000000 
#    z 0.000000 0.000000 1.722870 
# 
# From -- ./inp_files/76542.got.cif
#   From: 2010.03.12/outbox.cif.g09.slc.cpg/sg65_39_cif.got.tgz:76542.got - 2010.04.10 20:52:16.
