data_PCOD8271897
_publ_section_title
;
Structure prediction by ZEFSAII (Michael W. Deem and Ramdas Pophale) SiO2 
 PCOD8271897
Probable space group: C M M M
;
_chemical_formula_sum "Si O2"
_cell_formula_units_Z 88
_cell_length_a 8.890576
_cell_length_b 18.623066
_cell_length_c 28.221664
_cell_angle_alpha 90.000000
_cell_angle_beta 90.000000
_cell_angle_gamma 90.000000
_cell_volume 4672.654802
_symmetry_space_group_name_H-M "C M M M"
_symmetry_group_IT_number 65
_symmetry_cell_setting 'orthorhombic'
loop_
_space_group_symop_operation_xyz
x,y,z
-x,-y,z
x,-y,-z
-x,y,-z
-x,-y,-z
x,y,-z
-x,y,z
x,-y,z
1/2+x,1/2+y,z
1/2-x,1/2-y,z
1/2+x,1/2-y,-z
1/2-x,1/2+y,-z
1/2-x,1/2-y,-z
1/2+x,1/2+y,-z
1/2-x,1/2+y,z
1/2+x,1/2-y,z
loop_
_atom_site_type_symbol
_atom_site_label
_atom_site_fract_x
_atom_site_fract_y
_atom_site_fract_z
Si Si1 0.820941 0.919951 0.220072
Si Si2 0.166949 0.914820 0.676476
Si Si3 0.326053 0.915721 0.582532
Si Si4 0.322849 0.673010 0.866828
Si Si5 0.822371 0.828024 0.500000
Si Si6 0.172343 0.583089 0.945563
O O1 0.772730 0.888991 0.271919
O O2 0.757351 0.868314 0.179193
O O3 0.000000 0.923800 0.218125
O O4 0.754553 0.000000 0.211836
O O5 0.280766 0.890171 0.635346
O O6 0.000000 0.883534 0.665913
O O7 0.156490 0.000000 0.678652
O O8 0.500000 0.897883 0.574020
O O9 0.226616 0.871671 0.546092
O O10 0.293288 0.000000 0.575277
O O11 0.500000 0.681588 0.863457
O O12 0.250000 0.750000 0.869129
O O13 0.283493 0.629722 0.914025
O O14 0.750000 0.750000 0.500000
O O15 0.000000 0.819403 0.500000
O O16 0.208326 0.500000 0.936481
O O17 0.000000 0.600280 0.932287
O O18 0.203164 0.603160 0.000000
#
# Coordination Sequence:
#
# PCOD8271897 Si02
#       6
#    16  16  16  16   8  16
#     4   8  15  30  53  78 102 132 174 222 266 309
#     4   8  14  28  52  79 104 133 173 218 263 311
#     4  10  20  35  56  83 113 141 174 218 263 308
#     4  11  22  35  52  76 108 144 181 219 261 310
#     4  12  25  40  57  77 105 141 181 220 265 320
#     4   9  19  37  59  81 105 133 168 214 267 320
#
# _framework density 18.832975999999999
#
# number of rings (size 3 to 8) (size 9 to 14) (size 15 to 20)
#    0.000    2.545    0.000    4.364    0.000    4.000 
#    0.000    3.636    0.000    6.545    0.000    0.000 
#    0.000    0.000    0.000    0.000    0.000    0.000 
#
# Total GULP energy -545520.941649 kJ/mol
# GULP energy per Si atom -12398.203219 kJ/mol
# Density = 1.879011 g / cm^3
# Si number density = 18.832976 Si / 1000 Ang^3
#
#
#
# Elastic Constant Matrix: (Units=GPa)
#
#
# Indices 1 2 3 4 5 6 
#
# 1 84.0866 42.0896 49.8147 0.0000 0.0000 0.0000
# 2 42.0896 79.6662 64.4929 0.0000 0.0000 0.0000
# 3 49.8147 64.4929 146.4574 0.0000 0.0000 0.0000
# 4 0.0000 0.0000 0.0000 -0.9244 0.0000 0.0000
# 5 0.0000 0.0000 0.0000 0.0000 24.2018 0.0000
# 6 0.0000 0.0000 0.0000 0.0000 0.0000 8.9092
#
#
#
# Elastic Compliance Matrix: (Units=1/GPa)
#
#
# Indices 1 2 3 4 5 6 
#
# 1 0.016886 -0.006638 -0.002820 0.000000 0.000000 0.000000
# 2 -0.006638 0.022115 -0.007481 0.000000 0.000000 0.000000
# 3 -0.002820 -0.007481 0.011081 0.000000 0.000000 0.000000
# 4 0.000000 0.000000 0.000000 -1.081773 0.000000 0.000000
# 5 0.000000 0.000000 0.000000 0.000000 0.041319 0.000000
# 6 0.000000 0.000000 0.000000 0.000000 0.000000 0.112243
#
#
# Mechanical properties :
#
#
# Convention : Reuss Voigt Hill
#
# Bulk Modulus (GPa) = 61.71166 69.22274 65.46720
# Shear Modulus (GPa) = -5.96056 16.69151 5.36548
#
# Velocity S-wave (km/s) = -1.78096 2.98029 1.68972
# Velocity P-wave (km/s) = 5.34882 6.97702 6.21646
#
# Compressibility (1/GPa) = 0.01620439
#
# Stress axis : x y z
#
# Youngs Moduli (GPa) = 59.22039 45.21726 90.24142
#
# Poissons Ratio (x) = 0.30016 0.25451
# Poissons Ratio (y) = 0.39311 0.67507
# Poissons Ratio (z) = 0.16702 0.33826
#
# Static dielectric constant tensor:
#      x y z
#    x 3.287570 0.000000 0.000000 
#    y 0.000000 3.296840 0.000000 
#    z 0.000000 0.000000 3.863870 
# 
# 
# High freq. dielectric constant tensor:
#      x y z
#    x 1.715840 0.000000 0.000000 
#    y 0.000000 1.706710 0.000000 
#    z 0.000000 0.000000 1.750510 
# 
# From -- ./inp_files/73064.got.cif
#   From: 2010.03.12/outbox.cif.g09.slc.cpg/sg65_37_cif.got.tgz:73064.got - 2010.04.10 20:52:16.
