data_PCOD8271085
_publ_section_title
;
Structure prediction by ZEFSAII (Michael W. Deem and Ramdas Pophale) SiO2 
 PCOD8271085
Probable space group: C M M M
;
_chemical_formula_sum "Si O2"
_cell_formula_units_Z 80
_cell_length_a 17.849921
_cell_length_b 8.927301
_cell_length_c 26.034268
_cell_angle_alpha 90.000000
_cell_angle_beta 90.000000
_cell_angle_gamma 90.000000
_cell_volume 4148.602719
_symmetry_space_group_name_H-M "C M M M"
_symmetry_group_IT_number 65
_symmetry_cell_setting 'orthorhombic'
loop_
_space_group_symop_operation_xyz
x,y,z
-x,-y,z
x,-y,-z
-x,y,-z
-x,-y,-z
x,y,-z
-x,y,z
x,-y,z
1/2+x,1/2+y,z
1/2-x,1/2-y,z
1/2+x,1/2-y,-z
1/2-x,1/2+y,-z
1/2-x,1/2-y,-z
1/2+x,1/2+y,-z
1/2-x,1/2+y,z
1/2+x,1/2-y,z
loop_
_atom_site_type_symbol
_atom_site_label
_atom_site_fract_x
_atom_site_fract_y
_atom_site_fract_z
Si Si1 0.589202 0.831173 0.296753
Si Si2 0.411132 0.670678 0.805741
Si Si3 0.084097 0.322075 0.000000
Si Si4 0.410630 0.669036 0.601732
Si Si5 0.169261 0.322403 0.101052
Si Si6 0.589337 0.831046 0.500000
O O1 0.500000 0.831938 0.297986
O O2 0.618104 0.735152 0.248430
O O3 0.620768 0.756517 0.348686
O O4 0.620322 0.000000 0.292562
O O5 0.500000 0.680132 0.809029
O O6 0.382991 0.500000 0.811201
O O7 0.378281 0.772938 0.850215
O O8 0.127278 0.263353 0.949817
O O9 0.080651 0.500000 0.000000
O O10 0.000000 0.255434 0.000000
O O11 0.500000 0.670772 0.601840
O O12 0.380216 0.500000 0.603277
O O13 0.379540 0.748057 0.550487
O O14 0.177127 0.500000 0.101039
O O15 0.250000 0.250000 0.103047
O O16 0.500000 0.829072 0.500000
O O17 0.619817 0.000000 0.500000
#
# Coordination Sequence:
#
# PCOD8271085 Si02
#       6
#    16  16   8  16  16   8
#     4   9  16  26  41  61  85 116 156 201 249 301
#     4  10  20  34  52  75 102 132 170 215 260 308
#     4   9  19  36  59  85 110 139 176 215 254 300
#     4   9  15  22  32  48  73 107 148 195 246 298
#     4  11  22  37  57  80 109 142 175 212 256 306
#     4   9  15  21  29  43  67 103 148 195 242 297
#
# _framework density 19.283601999999998
#
# number of rings (size 3 to 8) (size 9 to 14) (size 15 to 20)
#    0.000    2.400    0.000    3.600    0.000    8.000 
#    0.000    1.500    0.000    3.600    0.000    0.000 
#    0.000    0.000    0.000    0.900    0.000   13.600 
#
# Total GULP energy -496038.278742 kJ/mol
# GULP energy per Si atom -12400.956969 kJ/mol
# Density = 1.923971 g / cm^3
# Si number density = 19.283602 Si / 1000 Ang^3
#
#
#
# Elastic Constant Matrix: (Units=GPa)
#
#
# Indices 1 2 3 4 5 6 
#
# 1 15.6604 22.0887 24.4812 0.0000 0.0000 0.0000
# 2 22.0887 129.4743 63.3692 0.0000 0.0000 0.0000
# 3 24.4812 63.3692 183.0293 0.0000 0.0000 0.0000
# 4 0.0000 0.0000 0.0000 30.2411 0.0000 0.0000
# 5 0.0000 0.0000 0.0000 0.0000 -1.3630 0.0000
# 6 0.0000 0.0000 0.0000 0.0000 0.0000 12.2487
#
#
#
# Elastic Compliance Matrix: (Units=1/GPa)
#
#
# Indices 1 2 3 4 5 6 
#
# 1 0.093785 -0.011872 -0.008434 0.000000 0.000000 0.000000
# 2 -0.011872 0.010802 -0.002152 0.000000 0.000000 0.000000
# 3 -0.008434 -0.002152 0.007337 0.000000 0.000000 0.000000
# 4 0.000000 0.000000 0.000000 0.033068 0.000000 0.000000
# 5 0.000000 0.000000 0.000000 0.000000 -0.733691 0.000000
# 6 0.000000 0.000000 0.000000 0.000000 0.000000 0.081641
#
#
# Mechanical properties :
#
#
# Convention : Reuss Voigt Hill
#
# Bulk Modulus (GPa) = 14.92360 60.89357 37.90858
# Shear Modulus (GPa) = -11.36866 22.77369 5.70251
#
# Velocity S-wave (km/s) = -2.43070 3.44028 1.72151
# Velocity P-wave (km/s) = 0.34919 6.88674 4.86339
#
# Compressibility (1/GPa) = 0.06700797
#
# Stress axis : x y z
#
# Youngs Moduli (GPa) = 10.66268 92.57335 136.29974
#
# Poissons Ratio (x) = 1.09905 1.14953
# Poissons Ratio (y) = 0.12659 0.29332
# Poissons Ratio (z) = 0.08993 0.19922
#
# Static dielectric constant tensor:
#      x y z
#    x 2.972770 0.000000 0.000000 
#    y 0.000000 3.655190 0.000000 
#    z 0.000000 0.000000 3.855000 
# 
# 
# High freq. dielectric constant tensor:
#      x y z
#    x 1.687580 0.000000 0.000000 
#    y 0.000000 1.759130 0.000000 
#    z 0.000000 0.000000 1.772210 
# 
# From -- ./inp_files/70776.got.cif
#   From: 2010.03.12/outbox.cif.g09.slc.cpg/sg65_36_cif.got.tgz:70776.got - 2010.04.10 20:52:16.
