data_PCOD8271644
_publ_section_title
;
Structure prediction by ZEFSAII (Michael W. Deem and Ramdas Pophale) SiO2 
 PCOD8271644
Probable space group: C M M M
;
_chemical_formula_sum "Si O2"
_cell_formula_units_Z 104
_cell_length_a 24.282034
_cell_length_b 28.368915
_cell_length_c 8.827662
_cell_angle_alpha 90.000000
_cell_angle_beta 90.000000
_cell_angle_gamma 90.000000
_cell_volume 6080.978741
_symmetry_space_group_name_H-M "C M M M"
_symmetry_group_IT_number 65
_symmetry_cell_setting 'orthorhombic'
loop_
_space_group_symop_operation_xyz
x,y,z
-x,-y,z
x,-y,-z
-x,y,-z
-x,-y,-z
x,y,-z
-x,y,z
x,-y,z
1/2+x,1/2+y,z
1/2-x,1/2-y,z
1/2+x,1/2-y,-z
1/2-x,1/2+y,-z
1/2-x,1/2-y,-z
1/2+x,1/2+y,-z
1/2-x,1/2+y,z
1/2+x,1/2-y,z
loop_
_atom_site_type_symbol
_atom_site_label
_atom_site_fract_x
_atom_site_fract_y
_atom_site_fract_z
Si Si1 0.065023 0.276252 0.165080
Si Si2 0.063534 0.621865 0.179834
Si Si3 0.063020 0.174225 0.819287
Si Si4 0.438120 0.500000 0.319777
Si Si5 0.849524 0.554440 0.676366
Si Si6 0.128873 0.090055 0.679571
Si Si7 0.736112 0.554320 0.178108
O O1 0.081607 0.325911 0.244287
O O2 0.080288 0.226484 0.245407
O O3 0.000000 0.277018 0.142431
O O4 0.093232 0.275816 0.000000
O O5 0.098256 0.583050 0.266351
O O6 0.000000 0.611699 0.218047
O O7 0.073643 0.619239 0.000000
O O8 0.103040 0.137998 0.739087
O O9 0.000000 0.162513 0.774531
O O10 0.070038 0.172381 0.000000
O O11 0.500000 0.500000 0.254004
O O12 0.439096 0.500000 0.500000
O O13 0.407032 0.546214 0.258304
O O14 0.839773 0.563315 0.500000
O O15 0.861606 0.500000 0.712271
O O16 0.795413 0.571812 0.764963
O O17 0.130170 0.090554 0.500000
O O18 0.190510 0.086230 0.741584
O O19 0.726792 0.500000 0.225546
O O20 0.732238 0.561573 0.000000
#
# Coordination Sequence:
#
# PCOD8271644 Si02
#       7
#    16  16  16   8  16  16  16
#     4   7  12  26  48  71  96 128 164 201 241 287
#     4   9  17  31  53  79 104 132 166 200 238 286
#     4   9  17  30  48  71  99 130 166 207 248 290
#     4   9  18  30  43  63  95 133 164 193 238 295
#     4  10  21  35  51  73 103 135 164 196 241 294
#     4  11  20  31  48  69  98 132 166 204 249 299
#     4  10  20  35  54  72  92 122 168 214 248 288
#
# _framework density 17.102509999999999
#
# number of rings (size 3 to 8) (size 9 to 14) (size 15 to 20)
#    0.000    2.692    0.769    3.692    0.000    3.077 
#    0.000    2.308    0.000    5.538    0.000    6.462 
#    0.000    0.000    0.000    0.000    0.000    0.000 
#
# Total GULP energy -644448.108969 kJ/mol
# GULP energy per Si atom -12393.232865 kJ/mol
# Density = 1.706358 g / cm^3
# Si number density = 17.102510 Si / 1000 Ang^3
#
#
#
# Elastic Constant Matrix: (Units=GPa)
#
#
# Indices 1 2 3 4 5 6 
#
# 1 91.1031 65.5287 28.9667 0.0000 0.0000 0.0000
# 2 65.5287 121.4022 36.8319 0.0000 0.0000 0.0000
# 3 28.9667 36.8319 44.4008 0.0000 0.0000 0.0000
# 4 0.0000 0.0000 0.0000 16.4583 0.0000 0.0000
# 5 0.0000 0.0000 0.0000 0.0000 24.6530 0.0000
# 6 0.0000 0.0000 0.0000 0.0000 0.0000 11.8270
#
#
#
# Elastic Compliance Matrix: (Units=1/GPa)
#
#
# Indices 1 2 3 4 5 6 
#
# 1 0.018780 -0.008579 -0.005136 0.000000 0.000000 0.000000
# 2 -0.008579 0.014926 -0.006785 0.000000 0.000000 0.000000
# 3 -0.005136 -0.006785 0.031501 0.000000 0.000000 0.000000
# 4 0.000000 0.000000 0.000000 0.060760 0.000000 0.000000
# 5 0.000000 0.000000 0.000000 0.000000 0.040563 0.000000
# 6 0.000000 0.000000 0.000000 0.000000 0.000000 0.084552
#
#
# Mechanical properties :
#
#
# Convention : Reuss Voigt Hill
#
# Bulk Modulus (GPa) = 41.30799 57.72896 49.51848
# Shear Modulus (GPa) = 16.65836 18.95959 17.80897
#
# Velocity S-wave (km/s) = 3.12433 3.33315 3.23043
# Velocity P-wave (km/s) = 6.10089 6.97432 6.55218
#
# Compressibility (1/GPa) = 0.02420839
#
# Stress axis : x y z
#
# Youngs Moduli (GPa) = 53.24823 66.99703 31.74513
#
# Poissons Ratio (x) = 0.57475 0.16303
# Poissons Ratio (y) = 0.45680 0.21539
# Poissons Ratio (z) = 0.27346 0.45457
#
# Static dielectric constant tensor:
#      x y z
#    x 3.046770 0.000000 0.000000 
#    y 0.000000 3.505540 0.000000 
#    z 0.000000 0.000000 2.954310 
# 
# 
# High freq. dielectric constant tensor:
#      x y z
#    x 1.641450 0.000000 0.000000 
#    y 0.000000 1.664020 0.000000 
#    z 0.000000 0.000000 1.641270 
# 
# From -- ./inp_files/14749.got.cif
#   From: 2010.03.12/outbox.cif.g09.slc.cpg/sg65_8_cif.got.tgz:14749.got - 2010.04.10 20:52:16.
