data_PCOD8271452
_publ_section_title
;
Structure prediction by ZEFSAII (Michael W. Deem and Ramdas Pophale) SiO2 
 PCOD8271452
Probable space group: C M M M
;
_chemical_formula_sum "Si O2"
_cell_formula_units_Z 112
_cell_length_a 25.346373
_cell_length_b 14.380759
_cell_length_c 15.624477
_cell_angle_alpha 90.000000
_cell_angle_beta 90.000000
_cell_angle_gamma 90.000000
_cell_volume 5695.123142
_symmetry_space_group_name_H-M "C M M M"
_symmetry_group_IT_number 65
_symmetry_cell_setting 'orthorhombic'
loop_
_space_group_symop_operation_xyz
x,y,z
-x,-y,z
x,-y,-z
-x,y,-z
-x,-y,-z
x,y,-z
-x,y,z
x,-y,z
1/2+x,1/2+y,z
1/2-x,1/2-y,z
1/2+x,1/2-y,-z
1/2-x,1/2+y,-z
1/2-x,1/2-y,-z
1/2+x,1/2+y,-z
1/2-x,1/2+y,z
1/2+x,1/2-y,z
loop_
_atom_site_type_symbol
_atom_site_label
_atom_site_fract_x
_atom_site_fract_y
_atom_site_fract_z
Si Si1 0.938708 0.603593 0.261174
Si Si2 0.940215 0.250683 0.402053
Si Si3 0.129696 0.270500 0.846575
Si Si4 0.723186 0.894101 0.095658
Si Si5 0.147378 0.896410 0.595967
Si Si6 0.441913 0.397762 0.900992
Si Si7 0.210657 0.825827 0.257288
O O1 0.915651 0.500000 0.272298
O O2 0.925874 0.658277 0.347958
O O3 0.912056 0.651599 0.179694
O O4 0.000000 0.600719 0.240567
O O5 0.933322 0.280344 0.500000
O O6 0.901468 0.167584 0.376243
O O7 0.000000 0.217367 0.382694
O O8 0.174535 0.321543 0.903302
O O9 0.100499 0.183885 0.890118
O O10 0.156941 0.227750 0.763446
O O11 0.765747 0.873326 0.170786
O O12 0.703162 0.000000 0.109003
O O13 0.748893 0.884026 0.000000
O O14 0.167691 0.870389 0.500000
O O15 0.196036 0.893077 0.663779
O O16 0.124652 0.000000 0.596688
O O17 0.500000 0.372396 0.861037
O O18 0.423118 0.500000 0.864051
O O19 0.449915 0.410821 0.000000
O O20 0.250000 0.750000 0.295723
#
# Coordination Sequence:
#
# PCOD8271452 Si02
#       7
#    16  16  16  16  16  16  16
#     4  10  20  34  54  81 113 149 187 229 280 334
#     4   9  18  34  56  84 117 150 188 231 275 330
#     4  11  20  35  56  81 110 146 188 232 281 340
#     4  10  22  39  59  84 114 146 187 241 295 345
#     4  10  20  36  59  86 117 152 189 230 280 343
#     4   9  19  35  54  79 112 148 185 228 278 332
#     4  10  22  37  57  81 109 148 188 240 293 339
#
# _framework density 19.665948
#
# number of rings (size 3 to 8) (size 9 to 14) (size 15 to 20)
#    0.000    2.143    1.429    2.143    0.000    5.143 
#    0.000    4.286    0.000    0.000    0.000    6.000 
#    0.000    0.000    0.000    0.000    0.000    0.000 
#
# Total GULP energy -693802.371207 kJ/mol
# GULP energy per Si atom -12389.328057 kJ/mol
# Density = 1.962119 g / cm^3
# Si number density = 19.665948 Si / 1000 Ang^3
#
#
#
# Elastic Constant Matrix: (Units=GPa)
#
#
# Indices 1 2 3 4 5 6 
#
# 1 77.2430 58.5059 45.7110 0.0000 0.0000 0.0000
# 2 58.5059 147.7481 48.4864 0.0000 0.0000 0.0000
# 3 45.7110 48.4864 96.6746 0.0000 0.0000 0.0000
# 4 0.0000 0.0000 0.0000 37.8506 0.0000 0.0000
# 5 0.0000 0.0000 0.0000 0.0000 600.0980 0.0000
# 6 0.0000 0.0000 0.0000 0.0000 0.0000 21.2975
#
#
#
# Elastic Compliance Matrix: (Units=1/GPa)
#
#
# Indices 1 2 3 4 5 6 
#
# 1 0.022039 -0.006353 -0.007235 0.000000 0.000000 0.000000
# 2 -0.006353 0.009933 -0.001978 0.000000 0.000000 0.000000
# 3 -0.007235 -0.001978 0.014757 0.000000 0.000000 0.000000
# 4 0.000000 0.000000 0.000000 0.026420 0.000000 0.000000
# 5 0.000000 0.000000 0.000000 0.000000 0.001666 0.000000
# 6 0.000000 0.000000 0.000000 0.000000 0.000000 0.046954
#
#
# Mechanical properties :
#
#
# Convention : Reuss Voigt Hill
#
# Bulk Modulus (GPa) = 64.11070 69.67470 66.89270
# Shear Modulus (GPa) = 31.62556 143.11339 87.36947
#
# Velocity S-wave (km/s) = 4.01451 8.53992 6.67257
# Velocity P-wave (km/s) = 7.35928 11.52156 9.66709
#
# Compressibility (1/GPa) = 0.01559802
#
# Stress axis : x y z
#
# Youngs Moduli (GPa) = 45.37312 100.67365 67.76547
#
# Poissons Ratio (x) = 0.63959 0.49026
# Poissons Ratio (y) = 0.28826 0.13403
# Poissons Ratio (z) = 0.32826 0.19912
#
# Static dielectric constant tensor:
#      x y z
#    x 3.977850 0.000000 0.000000 
#    y 0.000000 4.095990 0.000000 
#    z 0.000000 0.000000 3.474450 
# 
# 
# High freq. dielectric constant tensor:
#      x y z
#    x 1.757700 0.000000 0.000000 
#    y 0.000000 1.775770 0.000000 
#    z 0.000000 0.000000 1.758570 
# 
# From -- ./inp_files/40805.got.cif
#   From: 2010.03.12/outbox.cif.g09.slc.cpg/sg65_21_cif.got.tgz:40805.got - 2010.04.10 20:52:16.
