data_PCOD8271696
_publ_section_title
;
Structure prediction by ZEFSAII (Michael W. Deem and Ramdas Pophale) SiO2 
 PCOD8271696
Probable space group: C M M M
;
_chemical_formula_sum "Si O2"
_cell_formula_units_Z 104
_cell_length_a 22.614970
_cell_length_b 27.364145
_cell_length_c 9.073589
_cell_angle_alpha 90.000000
_cell_angle_beta 90.000000
_cell_angle_gamma 90.000000
_cell_volume 5615.093631
_symmetry_space_group_name_H-M "C M M M"
_symmetry_group_IT_number 65
_symmetry_cell_setting 'orthorhombic'
loop_
_space_group_symop_operation_xyz
x,y,z
-x,-y,z
x,-y,-z
-x,y,-z
-x,-y,-z
x,y,-z
-x,y,z
x,-y,z
1/2+x,1/2+y,z
1/2-x,1/2-y,z
1/2+x,1/2-y,-z
1/2-x,1/2+y,-z
1/2-x,1/2-y,-z
1/2+x,1/2+y,-z
1/2-x,1/2+y,z
1/2+x,1/2-y,z
loop_
_atom_site_type_symbol
_atom_site_label
_atom_site_fract_x
_atom_site_fract_y
_atom_site_fract_z
Si Si1 0.751281 0.193004 0.173224
Si Si2 0.929404 0.000000 0.333696
Si Si3 0.869086 0.359582 0.168899
Si Si4 0.569800 0.405717 0.834948
Si Si5 0.131211 0.820365 0.674340
Si Si6 0.566768 0.055423 0.326262
Si Si7 0.432427 0.762828 0.168848
O O1 0.750000 0.250000 0.216604
O O2 0.691823 0.165299 0.223427
O O3 0.803971 0.167723 0.263401
O O4 0.762590 0.187035 0.000000
O O5 0.904199 0.952895 0.248543
O O6 0.904520 0.000000 0.500000
O O7 0.000000 0.000000 0.335663
O O8 0.885063 0.408185 0.257835
O O9 0.921215 0.320226 0.191883
O O10 0.863128 0.375179 0.000000
O O11 0.500000 0.409809 0.844926
O O12 0.585015 0.358149 0.741945
O O13 0.596676 0.402955 0.000000
O O14 0.131133 0.824379 0.500000
O O15 0.110547 0.766633 0.723530
O O16 0.569595 0.061423 0.500000
O O17 0.500000 0.067340 0.270924
O O18 0.583393 0.000000 0.280501
O O19 0.500000 0.751122 0.207648
O O20 0.417412 0.748057 0.000000
#
# Coordination Sequence:
#
# PCOD8271696 Si02
#       7
#    16   8  16  16  16  16  16
#     4  10  20  39  61  77 103 144 186 226 272 328
#     4   9  17  31  53  81 111 139 171 217 270 321
#     4  10  20  35  59  85 107 140 187 236 276 321
#     4  10  20  35  56  80 108 145 185 222 269 329
#     4  12  24  35  52  79 111 143 182 230 276 325
#     4   9  19  36  57  83 118 156 186 219 276 344
#     4  10  20  35  54  78 111 147 181 219 271 333
#
# _framework density 18.521508000000001
#
# number of rings (size 3 to 8) (size 9 to 14) (size 15 to 20)
#    0.000    1.923    1.538    3.462    0.000    6.769 
#    0.000    0.769    1.692    0.000    0.000    0.000 
#    0.000    0.000    0.000    0.000    0.000    0.000 
#
# Total GULP energy -644872.047781 kJ/mol
# GULP energy per Si atom -12401.385534 kJ/mol
# Density = 1.847935 g / cm^3
# Si number density = 18.521508 Si / 1000 Ang^3
#
#
#
# Elastic Constant Matrix: (Units=GPa)
#
#
# Indices 1 2 3 4 5 6 
#
# 1 78.8936 42.7973 42.8455 0.0000 0.0000 0.0000
# 2 42.7973 110.7293 46.9153 0.0000 0.0000 0.0000
# 3 42.8455 46.9153 98.6645 0.0000 0.0000 0.0000
# 4 0.0000 0.0000 0.0000 29.0339 0.0000 0.0000
# 5 0.0000 0.0000 0.0000 0.0000 26.2944 0.0000
# 6 0.0000 0.0000 0.0000 0.0000 0.0000 24.6054
#
#
#
# Elastic Compliance Matrix: (Units=1/GPa)
#
#
# Indices 1 2 3 4 5 6 
#
# 1 0.018315 -0.004645 -0.005745 0.000000 0.000000 0.000000
# 2 -0.004645 0.012487 -0.003921 0.000000 0.000000 0.000000
# 3 -0.005745 -0.003921 0.014494 0.000000 0.000000 0.000000
# 4 0.000000 0.000000 0.000000 0.034442 0.000000 0.000000
# 5 0.000000 0.000000 0.000000 0.000000 0.038031 0.000000
# 6 0.000000 0.000000 0.000000 0.000000 0.000000 0.040641
#
#
# Mechanical properties :
#
#
# Convention : Reuss Voigt Hill
#
# Bulk Modulus (GPa) = 59.96607 61.48930 60.72769
# Shear Modulus (GPa) = 25.96181 26.36871 26.16526
#
# Velocity S-wave (km/s) = 3.74801 3.77726 3.76266
# Velocity P-wave (km/s) = 7.15380 7.23150 7.19275
#
# Compressibility (1/GPa) = 0.01667610
#
# Stress axis : x y z
#
# Youngs Moduli (GPa) = 54.60087 80.08022 68.99225
#
# Poissons Ratio (x) = 0.37195 0.39634
# Poissons Ratio (y) = 0.25361 0.27051
# Poissons Ratio (z) = 0.31366 0.31398
#
# Static dielectric constant tensor:
#      x y z
#    x 3.326170 0.000000 0.000000 
#    y 0.000000 3.397860 0.000000 
#    z 0.000000 0.000000 3.375890 
# 
# 
# High freq. dielectric constant tensor:
#      x y z
#    x 1.702130 0.000000 0.000000 
#    y 0.000000 1.717870 0.000000 
#    z 0.000000 0.000000 1.714810 
# 
# From -- ./inp_files/12410.got.cif
#   From: 2010.03.12/outbox.cif.g09.slc.cpg/sg65_7_cif.got.tgz:12410.got - 2010.04.10 20:52:16.
