data_PCOD8271962
_publ_section_title
;
Structure prediction by ZEFSAII (Michael W. Deem and Ramdas Pophale) SiO2 
 PCOD8271962
Probable space group: C M M M
;
_chemical_formula_sum "Si O2"
_cell_formula_units_Z 80
_cell_length_a 8.985572
_cell_length_b 17.752340
_cell_length_c 27.436790
_cell_angle_alpha 90.000000
_cell_angle_beta 90.000000
_cell_angle_gamma 90.000000
_cell_volume 4376.577615
_symmetry_space_group_name_H-M "C M M M"
_symmetry_group_IT_number 65
_symmetry_cell_setting 'orthorhombic'
loop_
_space_group_symop_operation_xyz
x,y,z
-x,-y,z
x,-y,-z
-x,y,-z
-x,-y,-z
x,y,-z
-x,y,z
x,-y,z
1/2+x,1/2+y,z
1/2-x,1/2-y,z
1/2+x,1/2-y,-z
1/2-x,1/2+y,-z
1/2-x,1/2-y,-z
1/2+x,1/2+y,-z
1/2-x,1/2+y,z
1/2+x,1/2-y,z
loop_
_atom_site_type_symbol
_atom_site_label
_atom_site_fract_x
_atom_site_fract_y
_atom_site_fract_z
Si Si1 0.325450 0.830134 0.313124
Si Si2 0.828629 0.411631 0.412148
Si Si3 0.676525 0.914302 0.216574
Si Si4 0.175538 0.830801 0.500000
Si Si5 0.000000 0.089013 0.943972
Si Si6 0.665000 0.674202 0.131422
O O1 0.500000 0.817247 0.309774
O O2 0.250000 0.750000 0.316951
O O3 0.282077 0.879030 0.359988
O O4 0.266904 0.874168 0.265709
O O5 0.801120 0.500000 0.410887
O O6 0.722946 0.376035 0.452341
O O7 0.000000 0.392654 0.424689
O O8 0.500000 0.911475 0.212596
O O9 0.744139 0.871977 0.170829
O O10 0.734242 0.000000 0.217165
O O11 0.250000 0.750000 0.500000
O O12 0.000000 0.820340 0.500000
O O13 0.146954 0.123512 0.917568
O O14 0.000000 0.000000 0.937718
O O15 0.000000 0.113672 0.000000
O O16 0.500000 0.693884 0.152404
O O17 0.750000 0.750000 0.117261
#
# Coordination Sequence:
#
# PCOD8271962 Si02
#       6
#    16  16  16   8   8  16
#     4  10  21  36  55  81 112 148 188 231 281 337
#     4  10  21  39  61  83 110 144 184 227 279 338
#     4  10  20  35  57  83 116 154 193 237 288 344
#     4  12  25  40  59  83 111 143 183 230 279 334
#     4   9  20  38  60  84 115 155 197 242 293 345
#     4  10  21  35  57  84 116 150 194 239 287 343
#
# _framework density 18.279122000000001
#
# number of rings (size 3 to 8) (size 9 to 14) (size 15 to 20)
#    0.600    1.300    0.000    4.200    0.000    9.200 
#    0.000    0.000    0.000    3.600    0.000    4.200 
#    0.000    0.000    0.000    0.000    0.000    0.000 
#
# Total GULP energy -496012.400524 kJ/mol
# GULP energy per Si atom -12400.310013 kJ/mol
# Density = 1.823752 g / cm^3
# Si number density = 18.279122 Si / 1000 Ang^3
#
#
#
# Elastic Constant Matrix: (Units=GPa)
#
#
# Indices 1 2 3 4 5 6 
#
# 1 53.4726 50.4480 45.6350 0.0000 0.0000 0.0000
# 2 50.4480 148.5016 77.1563 0.0000 0.0000 0.0000
# 3 45.6350 77.1563 158.2394 0.0000 0.0000 0.0000
# 4 0.0000 0.0000 0.0000 29.8634 0.0000 0.0000
# 5 0.0000 0.0000 0.0000 0.0000 29.3795 0.0000
# 6 0.0000 0.0000 0.0000 0.0000 0.0000 29.5232
#
#
#
# Elastic Compliance Matrix: (Units=1/GPa)
#
#
# Indices 1 2 3 4 5 6 
#
# 1 0.030174 -0.007673 -0.004961 0.000000 0.000000 0.000000
# 2 -0.007673 0.010970 -0.003136 0.000000 0.000000 0.000000
# 3 -0.004961 -0.003136 0.009279 0.000000 0.000000 0.000000
# 4 0.000000 0.000000 0.000000 0.033486 0.000000 0.000000
# 5 0.000000 0.000000 0.000000 0.000000 0.034037 0.000000
# 6 0.000000 0.000000 0.000000 0.000000 0.000000 0.033872
#
#
# Mechanical properties :
#
#
# Convention : Reuss Voigt Hill
#
# Bulk Modulus (GPa) = 52.95592 78.52136 65.73864
# Shear Modulus (GPa) = 26.36415 30.21818 28.29117
#
# Velocity S-wave (km/s) = 3.80190 4.07031 3.93839
# Velocity P-wave (km/s) = 6.95026 8.07094 7.53147
#
# Compressibility (1/GPa) = 0.01888363
#
# Stress axis : x y z
#
# Youngs Moduli (GPa) = 33.14139 91.15813 107.76792
#
# Poissons Ratio (x) = 0.69947 0.53459
# Poissons Ratio (y) = 0.25430 0.33796
# Poissons Ratio (z) = 0.16440 0.28587
#
# Static dielectric constant tensor:
#      x y z
#    x 3.271170 0.000000 0.000000 
#    y 0.000000 3.714410 0.000000 
#    z 0.000000 0.000000 3.427970 
# 
# 
# High freq. dielectric constant tensor:
#      x y z
#    x 1.696150 0.000000 0.000000 
#    y 0.000000 1.727990 0.000000 
#    z 0.000000 0.000000 1.714240 
# 
# From -- ./inp_files/72966.got.cif
#   From: 2010.03.12/outbox.cif.g09.slc.cpg/sg65_37_cif.got.tgz:72966.got - 2010.04.10 20:52:16.
