data_PCOD8271667
_publ_section_title
;
Structure prediction by ZEFSAII (Michael W. Deem and Ramdas Pophale) SiO2 
 PCOD8271667
Probable space group: C M M M
;
_chemical_formula_sum "Si O2"
_cell_formula_units_Z 72
_cell_length_a 19.641228
_cell_length_b 8.775101
_cell_length_c 22.755327
_cell_angle_alpha 90.000000
_cell_angle_beta 90.000000
_cell_angle_gamma 90.000000
_cell_volume 3921.966156
_symmetry_space_group_name_H-M "C M M M"
_symmetry_group_IT_number 65
_symmetry_cell_setting 'orthorhombic'
loop_
_space_group_symop_operation_xyz
x,y,z
-x,-y,z
x,-y,-z
-x,y,-z
-x,-y,-z
x,y,-z
-x,y,z
x,-y,z
1/2+x,1/2+y,z
1/2-x,1/2-y,z
1/2+x,1/2-y,-z
1/2-x,1/2+y,-z
1/2-x,1/2-y,-z
1/2+x,1/2+y,-z
1/2-x,1/2+y,z
1/2+x,1/2-y,z
loop_
_atom_site_type_symbol
_atom_site_label
_atom_site_fract_x
_atom_site_fract_y
_atom_site_fract_z
Si Si1 0.677594 0.681130 0.720615
Si Si2 0.419108 0.828251 0.500000
Si Si3 0.078705 0.174388 0.932177
Si Si4 0.321625 0.179089 0.844021
Si Si5 0.422862 0.679628 0.618548
O O1 0.683183 0.500000 0.724501
O O2 0.750000 0.750000 0.702105
O O3 0.653623 0.746060 0.783204
O O4 0.622387 0.735129 0.673032
O O5 0.500000 0.816359 0.500000
O O6 0.391208 0.747759 0.558710
O O7 0.392462 0.000000 0.500000
O O8 0.122860 0.288892 0.893630
O O9 0.000000 0.206731 0.918665
O O10 0.096908 0.000000 0.916484
O O11 0.095032 0.207333 0.000000
O O12 0.250000 0.250000 0.864227
O O13 0.312602 0.000000 0.835035
O O14 0.500000 0.737836 0.629271
O O15 0.421195 0.500000 0.611985
#
# Coordination Sequence:
#
# PCOD8271667 Si02
#       5
#    16   8  16  16  16
#     4  10  20  35  54  75 102 136 172 212 259 307
#     4   9  17  29  48  75 104 131 161 205 256 299
#     4   9  19  37  59  81 107 139 173 212 260 311
#     4  11  22  36  55  78 106 140 177 217 260 308
#     4   9  18  33  53  75  99 131 170 208 249 302
#
# _framework density 18.358139999999999
#
# number of rings (size 3 to 8) (size 9 to 14) (size 15 to 20)
#    0.000    2.333    0.000    5.000    0.000    5.333 
#    0.000    3.889    0.000    0.000    0.000    0.000 
#    0.000    0.000    0.000    0.000    0.000    0.000 
#
# Total GULP energy -446460.224362 kJ/mol
# GULP energy per Si atom -12401.672899 kJ/mol
# Density = 1.831636 g / cm^3
# Si number density = 18.358140 Si / 1000 Ang^3
#
#
#
# Elastic Constant Matrix: (Units=GPa)
#
#
# Indices 1 2 3 4 5 6 
#
# 1 82.8763 37.7773 76.9874 0.0000 0.0000 0.0000
# 2 37.7773 79.0185 48.7058 0.0000 0.0000 0.0000
# 3 76.9874 48.7058 129.6821 0.0000 0.0000 0.0000
# 4 0.0000 0.0000 0.0000 32.2424 0.0000 0.0000
# 5 0.0000 0.0000 0.0000 0.0000 5.7567 0.0000
# 6 0.0000 0.0000 0.0000 0.0000 0.0000 28.2888
#
#
#
# Elastic Compliance Matrix: (Units=1/GPa)
#
#
# Indices 1 2 3 4 5 6 
#
# 1 0.027872 -0.004068 -0.015019 0.000000 0.000000 0.000000
# 2 -0.004068 0.017061 -0.003993 0.000000 0.000000 0.000000
# 3 -0.015019 -0.003993 0.018127 0.000000 0.000000 0.000000
# 4 0.000000 0.000000 0.000000 0.031015 0.000000 0.000000
# 5 0.000000 0.000000 0.000000 0.000000 0.173712 0.000000
# 6 0.000000 0.000000 0.000000 0.000000 0.000000 0.035350
#
#
# Mechanical properties :
#
#
# Convention : Reuss Voigt Hill
#
# Bulk Modulus (GPa) = 59.16768 68.72423 63.94596
# Shear Modulus (GPa) = 14.08731 21.79801 17.94266
#
# Velocity S-wave (km/s) = 2.77313 3.44957 3.12968
# Velocity P-wave (km/s) = 6.52329 7.30634 6.92589
#
# Compressibility (1/GPa) = 0.01690112
#
# Stress axis : x y z
#
# Youngs Moduli (GPa) = 35.87841 58.61264 55.16660
#
# Poissons Ratio (x) = 0.23842 0.82853
# Poissons Ratio (y) = 0.14594 0.22028
# Poissons Ratio (z) = 0.53885 0.23404
#
# Static dielectric constant tensor:
#      x y z
#    x 3.294700 0.000000 0.000000 
#    y 0.000000 3.346080 0.000000 
#    z 0.000000 0.000000 3.471570 
# 
# 
# High freq. dielectric constant tensor:
#      x y z
#    x 1.696650 0.000000 0.000000 
#    y 0.000000 1.715320 0.000000 
#    z 0.000000 0.000000 1.720250 
# 
# From -- ./inp_files/59220.got.cif
#   From: 2010.03.12/outbox.cif.g09.slc.cpg/sg65_30_cif.got.tgz:59220.got - 2010.04.10 20:52:16.
