data_PCOD8271982
_publ_section_title
;
Structure prediction by ZEFSAII (Michael W. Deem and Ramdas Pophale) SiO2 
 PCOD8271982
Probable space group: C M M M
;
_chemical_formula_sum "Si O2"
_cell_formula_units_Z 120
_cell_length_a 25.099828
_cell_length_b 24.765346
_cell_length_c 9.560696
_cell_angle_alpha 90.000000
_cell_angle_beta 90.000000
_cell_angle_gamma 90.000000
_cell_volume 5942.985280
_symmetry_space_group_name_H-M "C M M M"
_symmetry_group_IT_number 65
_symmetry_cell_setting 'orthorhombic'
loop_
_space_group_symop_operation_xyz
x,y,z
-x,-y,z
x,-y,-z
-x,y,-z
-x,-y,-z
x,y,-z
-x,y,z
x,-y,z
1/2+x,1/2+y,z
1/2-x,1/2-y,z
1/2+x,1/2-y,-z
1/2-x,1/2+y,-z
1/2-x,1/2-y,-z
1/2+x,1/2+y,-z
1/2-x,1/2+y,z
1/2+x,1/2-y,z
loop_
_atom_site_type_symbol
_atom_site_label
_atom_site_fract_x
_atom_site_fract_y
_atom_site_fract_z
Si Si1 0.746903 0.437313 0.343418
Si Si2 0.916466 0.743177 0.658117
Si Si3 0.559232 0.141469 0.840333
Si Si4 0.940090 0.136907 0.247929
Si Si5 0.437940 0.559969 0.500000
Si Si6 0.170992 0.119886 0.155642
Si Si7 0.696977 0.718264 0.657097
Si Si8 0.153290 0.437049 0.163226
O O1 0.744833 0.411064 0.500000
O O2 0.754326 0.500000 0.361080
O O3 0.692367 0.427753 0.256056
O O4 0.797359 0.414772 0.255455
O O5 0.934711 0.731644 0.500000
O O6 0.939756 0.696744 0.754346
O O7 0.939400 0.801522 0.701017
O O8 0.852746 0.741590 0.673063
O O9 0.500000 0.116304 0.824922
O O10 0.601452 0.096830 0.788589
O O11 0.571323 0.157357 0.000000
O O12 0.921945 0.095692 0.368148
O O13 0.893305 0.124956 0.137316
O O14 0.000000 0.124162 0.190803
O O15 0.410154 0.500000 0.500000
O O16 0.500000 0.550101 0.500000
O O17 0.194826 0.173017 0.225874
O O18 0.194243 0.112276 0.000000
O O19 0.696787 0.693257 0.500000
O O20 0.750000 0.750000 0.688430
O O21 0.141505 0.500000 0.192753
O O22 0.166582 0.427923 0.000000
#
# Coordination Sequence:
#
# PCOD8271982 Si02
#       8
#    16  16  16  16   8  16  16  16
#     4  10  22  40  63  88 115 151 196 246 298 357
#     4  10  20  35  57  84 116 157 200 243 293 349
#     4  10  22  37  55  86 124 160 201 246 292 352
#     4  10  21  38  60  85 118 158 200 244 294 355
#     4   9  18  34  60  90 113 142 193 253 299 342
#     4  11  24  38  57  87 120 154 193 240 296 359
#     4   9  20  38  58  82 113 153 198 245 295 351
#     4   9  19  38  62  86 116 156 200 249 306 359
#
# _framework density 20.191872
#
# number of rings (size 3 to 8) (size 9 to 14) (size 15 to 20)
#    0.000    2.200    0.667    1.200    3.733    5.600 
#    0.000    1.333    0.000    0.000    0.000    5.600 
#    0.000    0.000    0.000    0.000    0.000    0.000 
#
# Total GULP energy -743591.216874 kJ/mol
# GULP energy per Si atom -12393.186948 kJ/mol
# Density = 2.014591 g / cm^3
# Si number density = 20.191872 Si / 1000 Ang^3
#
#
#
# Elastic Constant Matrix: (Units=GPa)
#
#
# Indices 1 2 3 4 5 6 
#
# 1 127.7625 31.0206 40.1149 0.0000 0.0000 0.0000
# 2 31.0206 78.7693 34.4329 0.0000 0.0000 0.0000
# 3 40.1149 34.4329 116.8810 0.0000 0.0000 0.0000
# 4 0.0000 0.0000 0.0000 25.0733 0.0000 0.0000
# 5 0.0000 0.0000 0.0000 0.0000 -24.6825 0.0000
# 6 0.0000 0.0000 0.0000 0.0000 0.0000 26.3498
#
#
#
# Elastic Compliance Matrix: (Units=1/GPa)
#
#
# Indices 1 2 3 4 5 6 
#
# 1 0.009206 -0.002576 -0.002401 0.000000 0.000000 0.000000
# 2 -0.002576 0.015293 -0.003621 0.000000 0.000000 0.000000
# 3 -0.002401 -0.003621 0.010446 0.000000 0.000000 0.000000
# 4 0.000000 0.000000 0.000000 0.039883 0.000000 0.000000
# 5 0.000000 0.000000 0.000000 0.000000 -0.040515 0.000000
# 6 0.000000 0.000000 0.000000 0.000000 0.000000 0.037951
#
#
# Mechanical properties :
#
#
# Convention : Reuss Voigt Hill
#
# Bulk Modulus (GPa) = 56.33948 59.39440 57.86694
# Shear Modulus (GPa) = 52.42337 19.87109 36.14723
#
# Velocity S-wave (km/s) = 5.10088 3.14046 4.23565
# Velocity P-wave (km/s) = 7.91547 6.52908 7.25546
#
# Compressibility (1/GPa) = 0.01774954
#
# Stress axis : x y z
#
# Youngs Moduli (GPa) = 108.62129 65.39068 95.72639
#
# Poissons Ratio (x) = 0.16845 0.22982
# Poissons Ratio (y) = 0.27982 0.34663
# Poissons Ratio (z) = 0.26078 0.23678
#
# Static dielectric constant tensor:
#      x y z
#    x 3.894800 0.000000 0.000000 
#    y 0.000000 3.567220 0.000000 
#    z 0.000000 0.000000 3.647360 
# 
# 
# High freq. dielectric constant tensor:
#      x y z
#    x 1.800830 0.000000 0.000000 
#    y 0.000000 1.775140 0.000000 
#    z 0.000000 0.000000 1.781290 
# 
# From -- ./inp_files/17054.got.cif
#   From: 2010.03.12/outbox.cif.g09.slc.cpg/sg65_9_cif.got.tgz:17054.got - 2010.04.10 20:52:16.
