data_PCOD8271432
_publ_section_title
;
Structure prediction by ZEFSAII (Michael W. Deem and Ramdas Pophale) SiO2 
 PCOD8271432
Probable space group: C M M M
;
_chemical_formula_sum "Si O2"
_cell_formula_units_Z 80
_cell_length_a 9.084174
_cell_length_b 18.160424
_cell_length_c 26.075774
_cell_angle_alpha 90.000000
_cell_angle_beta 90.000000
_cell_angle_gamma 90.000000
_cell_volume 4301.784362
_symmetry_space_group_name_H-M "C M M M"
_symmetry_group_IT_number 65
_symmetry_cell_setting 'orthorhombic'
loop_
_space_group_symop_operation_xyz
x,y,z
-x,-y,z
x,-y,-z
-x,y,-z
-x,-y,-z
x,y,-z
-x,y,z
x,-y,z
1/2+x,1/2+y,z
1/2-x,1/2-y,z
1/2+x,1/2-y,-z
1/2-x,1/2+y,-z
1/2-x,1/2-y,-z
1/2+x,1/2+y,-z
1/2-x,1/2+y,z
1/2+x,1/2-y,z
loop_
_atom_site_type_symbol
_atom_site_label
_atom_site_fract_x
_atom_site_fract_y
_atom_site_fract_z
Si Si1 0.167466 0.913007 0.302298
Si Si2 0.826632 0.416252 0.401067
Si Si3 0.834884 0.912488 0.189984
Si Si4 0.325217 0.827930 0.500000
Si Si5 0.175717 0.829259 0.000000
Si Si6 0.830724 0.587236 0.090366
O O1 0.263298 0.879725 0.348794
O O2 0.217675 0.883032 0.246078
O O3 0.000000 0.890089 0.312194
O O4 0.187692 0.000000 0.302332
O O5 0.771079 0.500000 0.407858
O O6 0.769511 0.371258 0.449913
O O7 0.000000 0.413191 0.396987
O O8 0.721386 0.885558 0.146560
O O9 0.000000 0.883477 0.177793
O O10 0.838779 0.000000 0.191472
O O11 0.500000 0.819402 0.500000
O O12 0.250000 0.750000 0.500000
O O13 0.250000 0.750000 0.000000
O O14 0.226883 0.873671 0.950329
O O15 0.000000 0.821719 0.000000
O O16 0.811935 0.500000 0.083932
O O17 0.000000 0.610849 0.082328
#
# Coordination Sequence:
#
# PCOD8271432 Si02
#       6
#    16  16  16   8   8  16
#     4   8  14  25  43  70 102 130 158 197 243 289
#     4   9  17  30  49  71  95 124 159 199 243 292
#     4   8  14  26  45  71 103 135 164 197 243 296
#     4  10  21  35  49  67  93 126 162 200 244 292
#     4  12  25  40  57  75 101 137 175 214 259 308
#     4  10  20  34  54  81 110 137 170 212 252 295
#
# _framework density 18.596934999999998
#
# number of rings (size 3 to 8) (size 9 to 14) (size 15 to 20)
#    0.000    2.800    0.000    3.300    0.000    5.200 
#    0.000    4.000    0.000    4.200    0.000    2.800 
#    0.000    0.000    0.000    0.000    0.000    0.000 
#
# Total GULP energy -495780.375995 kJ/mol
# GULP energy per Si atom -12394.509400 kJ/mol
# Density = 1.855461 g / cm^3
# Si number density = 18.596935 Si / 1000 Ang^3
#
#
#
# Elastic Constant Matrix: (Units=GPa)
#
#
# Indices 1 2 3 4 5 6 
#
# 1 87.5687 33.3843 69.0410 0.0000 0.0000 0.0000
# 2 33.3843 47.3800 47.8375 0.0000 0.0000 0.0000
# 3 69.0410 47.8375 184.8788 0.0000 0.0000 0.0000
# 4 0.0000 0.0000 0.0000 -1.4117 0.0000 0.0000
# 5 0.0000 0.0000 0.0000 0.0000 39.2529 0.0000
# 6 0.0000 0.0000 0.0000 0.0000 0.0000 21.5337
#
#
#
# Elastic Compliance Matrix: (Units=1/GPa)
#
#
# Indices 1 2 3 4 5 6 
#
# 1 0.018213 -0.008076 -0.004712 0.000000 0.000000 0.000000
# 2 -0.008076 0.032151 -0.005303 0.000000 0.000000 0.000000
# 3 -0.004712 -0.005303 0.008541 0.000000 0.000000 0.000000
# 4 0.000000 0.000000 0.000000 -0.708382 0.000000 0.000000
# 5 0.000000 0.000000 0.000000 0.000000 0.025476 0.000000
# 6 0.000000 0.000000 0.000000 0.000000 0.000000 0.046439
#
#
# Mechanical properties :
#
#
# Convention : Reuss Voigt Hill
#
# Bulk Modulus (GPa) = 44.00849 68.92811 56.46830
# Shear Modulus (GPa) = -9.36669 23.17931 6.90631
#
# Velocity S-wave (km/s) = -2.24669 3.53428 1.92918
# Velocity P-wave (km/s) = 4.12136 7.33481 5.94916
#
# Compressibility (1/GPa) = 0.02272289
#
# Stress axis : x y z
#
# Youngs Moduli (GPa) = 54.90454 31.10356 117.08533
#
# Poissons Ratio (x) = 0.25119 0.55170
# Poissons Ratio (y) = 0.44340 0.62092
# Poissons Ratio (z) = 0.25871 0.16495
#
# Static dielectric constant tensor:
#      x y z
#    x 3.414110 0.000000 0.000000 
#    y 0.000000 2.995120 0.000000 
#    z 0.000000 0.000000 4.373530 
# 
# 
# High freq. dielectric constant tensor:
#      x y z
#    x 1.716660 0.000000 0.000000 
#    y 0.000000 1.667680 0.000000 
#    z 0.000000 0.000000 1.746540 
# 
# From -- ./inp_files/72969.got.cif
#   From: 2010.03.12/outbox.cif.g09.slc.cpg/sg65_37_cif.got.tgz:72969.got - 2010.04.10 20:52:16.
