data_PCOD8271911
_publ_section_title
;
Structure prediction by ZEFSAII (Michael W. Deem and Ramdas Pophale) SiO2 
 PCOD8271911
Probable space group: C M M M
;
_chemical_formula_sum "Si O2"
_cell_formula_units_Z 88
_cell_length_a 28.057188
_cell_length_b 18.085623
_cell_length_c 9.105054
_cell_angle_alpha 90.000000
_cell_angle_beta 90.000000
_cell_angle_gamma 90.000000
_cell_volume 4620.193254
_symmetry_space_group_name_H-M "C M M M"
_symmetry_group_IT_number 65
_symmetry_cell_setting 'orthorhombic'
loop_
_space_group_symop_operation_xyz
x,y,z
-x,-y,z
x,-y,-z
-x,y,-z
-x,-y,-z
x,y,-z
-x,y,z
x,-y,z
1/2+x,1/2+y,z
1/2-x,1/2-y,z
1/2+x,1/2-y,-z
1/2-x,1/2+y,-z
1/2-x,1/2-y,-z
1/2+x,1/2+y,-z
1/2-x,1/2+y,z
1/2+x,1/2-y,z
loop_
_atom_site_type_symbol
_atom_site_label
_atom_site_fract_x
_atom_site_fract_y
_atom_site_fract_z
Si Si1 0.388161 0.130987 0.671742
Si Si2 0.943789 0.082904 0.166157
Si Si3 0.702432 0.084785 0.831862
Si Si4 0.285510 0.686669 0.168735
Si Si5 0.884097 0.797876 0.329226
Si Si6 0.444096 0.000000 0.826979
O O1 0.391090 0.111530 0.500000
O O2 0.333618 0.127351 0.725318
O O3 0.404117 0.215366 0.704028
O O4 0.421402 0.073963 0.759226
O O5 0.921872 0.143275 0.272655
O O6 0.000000 0.090026 0.177293
O O7 0.927894 0.000000 0.212989
O O8 0.926609 0.098355 0.000000
O O9 0.756895 0.110187 0.808236
O O10 0.699299 0.000000 0.789600
O O11 0.686832 0.099795 0.000000
O O12 0.250000 0.750000 0.225499
O O13 0.333233 0.685419 0.259961
O O14 0.299485 0.700575 0.000000
O O15 0.877387 0.809363 0.500000
O O16 0.500000 0.000000 0.791757
O O17 0.433630 0.000000 0.000000
#
# Coordination Sequence:
#
# PCOD8271911 Si02
#       6
#    16  16  16  16  16   8
#     4  11  23  38  58  85 118 157 196 239 297 358
#     4   9  20  41  67  91 116 151 197 249 301 353
#     4  10  20  35  57  83 111 150 202 249 288 341
#     4  10  20  35  56  83 115 155 199 243 290 338
#     4  11  24  38  58  91 128 161 195 241 296 358
#     4  11  25  43  63  87 115 151 201 257 304 351
#
# _framework density 19.046821999999999
#
# number of rings (size 3 to 8) (size 9 to 14) (size 15 to 20)
#    0.000    1.727    2.727    1.909    0.000    6.182 
#    0.000    6.364    0.000    0.000    0.000    0.000 
#    0.000    0.000    0.000    0.000    0.000    0.000 
#
# Total GULP energy -545615.412265 kJ/mol
# GULP energy per Si atom -12400.350279 kJ/mol
# Density = 1.900347 g / cm^3
# Si number density = 19.046822 Si / 1000 Ang^3
#
#
#
# Elastic Constant Matrix: (Units=GPa)
#
#
# Indices 1 2 3 4 5 6 
#
# 1 74.0039 44.8769 37.6101 0.0000 0.0000 0.0000
# 2 44.8769 121.1941 56.7881 0.0000 0.0000 0.0000
# 3 37.6101 56.7881 72.9313 0.0000 0.0000 0.0000
# 4 0.0000 0.0000 0.0000 32.4196 0.0000 0.0000
# 5 0.0000 0.0000 0.0000 0.0000 -176.2381 0.0000
# 6 0.0000 0.0000 0.0000 0.0000 0.0000 33.8864
#
#
#
# Elastic Compliance Matrix: (Units=1/GPa)
#
#
# Indices 1 2 3 4 5 6 
#
# 1 0.019436 -0.003937 -0.006958 0.000000 0.000000 0.000000
# 2 -0.003937 0.013788 -0.008706 0.000000 0.000000 0.000000
# 3 -0.006958 -0.008706 0.024079 0.000000 0.000000 0.000000
# 4 0.000000 0.000000 0.000000 0.030846 0.000000 0.000000
# 5 0.000000 0.000000 0.000000 0.000000 -0.005674 0.000000
# 6 0.000000 0.000000 0.000000 0.000000 0.000000 0.029510
#
#
# Mechanical properties :
#
#
# Convention : Reuss Voigt Hill
#
# Bulk Modulus (GPa) = 55.24293 60.74215 57.99254
# Shear Modulus (GPa) = 31.80247 -13.39614 9.20317
#
# Velocity S-wave (km/s) = 4.09063 -2.65491 2.20053
# Velocity P-wave (km/s) = 7.16782 4.74996 6.08029
#
# Compressibility (1/GPa) = 0.01810186
#
# Stress axis : x y z
#
# Youngs Moduli (GPa) = 51.45046 72.52428 41.53055
#
# Poissons Ratio (x) = 0.28552 0.28896
# Poissons Ratio (y) = 0.20255 0.36157
# Poissons Ratio (z) = 0.35797 0.63141
#
# Static dielectric constant tensor:
#      x y z
#    x 3.453840 0.000000 0.000000 
#    y 0.000000 3.750100 0.000000 
#    z 0.000000 0.000000 3.518160 
# 
# 
# High freq. dielectric constant tensor:
#      x y z
#    x 1.734880 0.000000 0.000000 
#    y 0.000000 1.755210 0.000000 
#    z 0.000000 0.000000 1.739450 
# 
# From -- ./inp_files/18326.got.cif
#   From: 2010.03.12/outbox.cif.g09.slc.cpg/sg65_10_cif.got.tgz:18326.got - 2010.04.10 20:52:16.
