data_PCOD8271445
_publ_section_title
;
Structure prediction by ZEFSAII (Michael W. Deem and Ramdas Pophale) SiO2 
 PCOD8271445
Probable space group: C M M M
;
_chemical_formula_sum "Si O2"
_cell_formula_units_Z 88
_cell_length_a 27.483002
_cell_length_b 19.032646
_cell_length_c 8.962306
_cell_angle_alpha 90.000000
_cell_angle_beta 90.000000
_cell_angle_gamma 90.000000
_cell_volume 4687.951472
_symmetry_space_group_name_H-M "C M M M"
_symmetry_group_IT_number 65
_symmetry_cell_setting 'orthorhombic'
loop_
_space_group_symop_operation_xyz
x,y,z
-x,-y,z
x,-y,-z
-x,y,-z
-x,-y,-z
x,y,-z
-x,y,z
x,-y,z
1/2+x,1/2+y,z
1/2-x,1/2-y,z
1/2+x,1/2-y,-z
1/2-x,1/2+y,-z
1/2-x,1/2-y,-z
1/2+x,1/2+y,-z
1/2-x,1/2+y,z
1/2+x,1/2-y,z
loop_
_atom_site_type_symbol
_atom_site_label
_atom_site_fract_x
_atom_site_fract_y
_atom_site_fract_z
Si Si1 0.000000 0.578378 0.322726
Si Si2 0.720887 0.416614 0.667430
Si Si3 0.681548 0.081642 0.175322
Si Si4 0.093684 0.337908 0.677116
Si Si5 0.555696 0.296271 0.173712
Si Si6 0.875167 0.920469 0.827413
O O1 0.952436 0.618029 0.263350
O O2 0.000000 0.500000 0.255889
O O3 0.000000 0.576470 0.500000
O O4 0.726194 0.386837 0.500000
O O5 0.719241 0.500000 0.668045
O O6 0.766479 0.391127 0.765417
O O7 0.670713 0.388661 0.737960
O O8 0.641510 0.128368 0.254983
O O9 0.673009 0.000000 0.216642
O O10 0.679287 0.094127 0.000000
O O11 0.097718 0.339326 0.500000
O O12 0.087457 0.258556 0.732475
O O13 0.500000 0.296444 0.229352
O O14 0.577584 0.373317 0.204925
O O15 0.559078 0.276497 0.000000
O O16 0.887835 0.000000 0.777095
O O17 0.860355 0.918635 0.000000
#
# Coordination Sequence:
#
# PCOD8271445 Si02
#       6
#     8  16  16  16  16  16
#     4   9  18  32  51  75 102 135 178 224 265 307
#     4   9  17  31  53  81 111 142 176 219 271 323
#     4  10  20  34  54  81 112 145 181 223 270 320
#     4  11  21  35  54  77 108 146 185 225 269 321
#     4  10  21  37  56  78 109 146 181 223 274 326
#     4   9  18  34  57  83 109 140 179 222 270 325
#
# _framework density 18.771525
#
# number of rings (size 3 to 8) (size 9 to 14) (size 15 to 20)
#    0.000    2.273    0.909    2.182    0.000    5.091 
#    0.000    2.727    0.000    7.636    0.000    3.818 
#    0.000    0.000    0.000    0.000    0.000    0.000 
#
# Total GULP energy -545681.159474 kJ/mol
# GULP energy per Si atom -12401.844533 kJ/mol
# Density = 1.872880 g / cm^3
# Si number density = 18.771525 Si / 1000 Ang^3
#
#
#
# Elastic Constant Matrix: (Units=GPa)
#
#
# Indices 1 2 3 4 5 6 
#
# 1 118.6806 51.1871 49.2982 0.0000 0.0000 0.0000
# 2 51.1871 88.9320 38.7595 0.0000 0.0000 0.0000
# 3 49.2982 38.7595 81.8124 0.0000 0.0000 0.0000
# 4 0.0000 0.0000 0.0000 22.5987 0.0000 0.0000
# 5 0.0000 0.0000 0.0000 0.0000 29.7604 0.0000
# 6 0.0000 0.0000 0.0000 0.0000 0.0000 8.7994
#
#
#
# Elastic Compliance Matrix: (Units=1/GPa)
#
#
# Indices 1 2 3 4 5 6 
#
# 1 0.012821 -0.005056 -0.005330 0.000000 0.000000 0.000000
# 2 -0.005056 0.016165 -0.004611 0.000000 0.000000 0.000000
# 3 -0.005330 -0.004611 0.017619 0.000000 0.000000 0.000000
# 4 0.000000 0.000000 0.000000 0.044250 0.000000 0.000000
# 5 0.000000 0.000000 0.000000 0.000000 0.033602 0.000000
# 6 0.000000 0.000000 0.000000 0.000000 0.000000 0.113645
#
#
# Mechanical properties :
#
#
# Convention : Reuss Voigt Hill
#
# Bulk Modulus (GPa) = 60.20637 63.10162 61.65400
# Shear Modulus (GPa) = 18.27262 22.24371 20.25816
#
# Velocity S-wave (km/s) = 3.12336 3.44607 3.28868
# Velocity P-wave (km/s) = 6.71938 7.03722 6.88013
#
# Compressibility (1/GPa) = 0.01660954
#
# Stress axis : x y z
#
# Youngs Moduli (GPa) = 77.99830 61.86349 56.75540
#
# Poissons Ratio (x) = 0.31280 0.30251
# Poissons Ratio (y) = 0.39439 0.26172
# Poissons Ratio (z) = 0.41573 0.28527
#
# Static dielectric constant tensor:
#      x y z
#    x 3.566510 0.000000 0.000000 
#    y 0.000000 3.329610 0.000000 
#    z 0.000000 0.000000 3.429570 
# 
# 
# High freq. dielectric constant tensor:
#      x y z
#    x 1.737700 0.000000 0.000000 
#    y 0.000000 1.709120 0.000000 
#    z 0.000000 0.000000 1.725660 
# 
# From -- ./inp_files/11833.got.cif
#   From: 2010.03.12/outbox.cif.g09.slc.cpg/sg65_6_cif.got.tgz:11833.got - 2010.04.10 20:52:16.
