data_PCOD8271304
_publ_section_title
;
Structure prediction by ZEFSAII (Michael W. Deem and Ramdas Pophale) SiO2 
 PCOD8271304
Probable space group: C M M M
;
_chemical_formula_sum "Si O2"
_cell_formula_units_Z 72
_cell_length_a 9.022164
_cell_length_b 27.088039
_cell_length_c 15.733398
_cell_angle_alpha 90.000000
_cell_angle_beta 90.000000
_cell_angle_gamma 90.000000
_cell_volume 3845.128094
_symmetry_space_group_name_H-M "C M M M"
_symmetry_group_IT_number 65
_symmetry_cell_setting 'orthorhombic'
loop_
_space_group_symop_operation_xyz
x,y,z
-x,-y,z
x,-y,-z
-x,y,-z
-x,-y,-z
x,y,-z
-x,y,z
x,-y,z
1/2+x,1/2+y,z
1/2-x,1/2-y,z
1/2+x,1/2-y,-z
1/2-x,1/2+y,-z
1/2-x,1/2-y,-z
1/2+x,1/2+y,-z
1/2-x,1/2+y,z
1/2+x,1/2-y,z
loop_
_atom_site_type_symbol
_atom_site_label
_atom_site_fract_x
_atom_site_fract_y
_atom_site_fract_z
Si Si1 0.170443 0.106583 0.903586
Si Si2 0.670912 0.199181 0.166463
Si Si3 0.330686 0.850469 0.655785
Si Si4 0.670842 0.944495 0.757797
Si Si5 0.174647 0.803106 0.500000
O O1 0.258214 0.157337 0.891979
O O2 0.233428 0.064152 0.842255
O O3 0.000000 0.116163 0.880392
O O4 0.189257 0.087992 0.000000
O O5 0.500000 0.203906 0.141883
O O6 0.750000 0.250000 0.145230
O O7 0.691348 0.186217 0.265374
O O8 0.500000 0.848646 0.622742
O O9 0.285705 0.906127 0.683460
O O10 0.220431 0.834050 0.582330
O O11 0.500000 0.935322 0.782950
O O12 0.698339 0.000000 0.724298
O O13 0.250000 0.750000 0.500000
O O14 0.000000 0.795124 0.500000
#
# Coordination Sequence:
#
# PCOD8271304 Si02
#       5
#    16  16  16  16   8
#     4  10  21  35  51  75 107 141 178 220 265 314
#     4  10  20  34  54  77 103 139 179 219 266 318
#     4   9  19  36  56  79 107 137 173 216 259 308
#     4   9  19  37  60  82 104 136 177 219 266 316
#     4  12  24  36  55  82 111 143 176 211 255 306
#
# _framework density 18.724993000000001
#
# number of rings (size 3 to 8) (size 9 to 14) (size 15 to 20)
#    0.000    2.222    0.000    4.333    0.000    9.333 
#    0.000    2.778    0.000    3.333    0.000    0.000 
#    0.000    0.000    0.000    0.000    0.000    0.000 
#
# Total GULP energy -446500.511444 kJ/mol
# GULP energy per Si atom -12402.791985 kJ/mol
# Density = 1.868237 g / cm^3
# Si number density = 18.724993 Si / 1000 Ang^3
#
#
#
# Elastic Constant Matrix: (Units=GPa)
#
#
# Indices 1 2 3 4 5 6 
#
# 1 126.7545 49.3354 54.6508 0.0000 0.0000 0.0000
# 2 49.3354 124.4949 37.0381 0.0000 0.0000 0.0000
# 3 54.6508 37.0381 87.3434 0.0000 0.0000 0.0000
# 4 0.0000 0.0000 0.0000 15.2163 0.0000 0.0000
# 5 0.0000 0.0000 0.0000 0.0000 32.5295 0.0000
# 6 0.0000 0.0000 0.0000 0.0000 0.0000 30.3210
#
#
#
# Elastic Compliance Matrix: (Units=1/GPa)
#
#
# Indices 1 2 3 4 5 6 
#
# 1 0.011592 -0.002787 -0.006071 0.000000 0.000000 0.000000
# 2 -0.002787 0.009862 -0.002438 0.000000 0.000000 0.000000
# 3 -0.006071 -0.002438 0.016281 0.000000 0.000000 0.000000
# 4 0.000000 0.000000 0.000000 0.065719 0.000000 0.000000
# 5 0.000000 0.000000 0.000000 0.000000 0.030741 0.000000
# 6 0.000000 0.000000 0.000000 0.000000 0.000000 0.032980
#
#
# Mechanical properties :
#
#
# Convention : Reuss Voigt Hill
#
# Bulk Modulus (GPa) = 66.03815 68.96015 67.49915
# Shear Modulus (GPa) = 25.66512 28.78458 27.22485
#
# Velocity S-wave (km/s) = 3.70622 3.92500 3.81718
# Velocity P-wave (km/s) = 7.32521 7.57949 7.45344
#
# Compressibility (1/GPa) = 0.01514276
#
# Stress axis : x y z
#
# Youngs Moduli (GPa) = 86.26865 101.39495 61.41943
#
# Poissons Ratio (x) = 0.28264 0.37287
# Poissons Ratio (y) = 0.24047 0.14974
# Poissons Ratio (z) = 0.52373 0.24721
#
# Static dielectric constant tensor:
#      x y z
#    x 3.519790 0.000000 0.000000 
#    y 0.000000 3.495270 0.000000 
#    z 0.000000 0.000000 3.284830 
# 
# 
# High freq. dielectric constant tensor:
#      x y z
#    x 1.734060 0.000000 0.000000 
#    y 0.000000 1.729440 0.000000 
#    z 0.000000 0.000000 1.713520 
# 
# From -- ./inp_files/36511.got.cif
#   From: 2010.03.12/outbox.cif.g09.slc.cpg/sg65_19_cif.got.tgz:36511.got - 2010.04.10 20:52:16.
