data_PCOD8271653
_publ_section_title
;
Structure prediction by ZEFSAII (Michael W. Deem and Ramdas Pophale) SiO2 
 PCOD8271653
Probable space group: C M M M
;
_chemical_formula_sum "Si O2"
_cell_formula_units_Z 104
_cell_length_a 17.394021
_cell_length_b 14.485920
_cell_length_c 23.402503
_cell_angle_alpha 90.000000
_cell_angle_beta 90.000000
_cell_angle_gamma 90.000000
_cell_volume 5896.691159
_symmetry_space_group_name_H-M "C M M M"
_symmetry_group_IT_number 65
_symmetry_cell_setting 'orthorhombic'
loop_
_space_group_symop_operation_xyz
x,y,z
-x,-y,z
x,-y,-z
-x,y,-z
-x,-y,-z
x,y,-z
-x,y,z
x,-y,z
1/2+x,1/2+y,z
1/2-x,1/2-y,z
1/2+x,1/2-y,-z
1/2-x,1/2+y,-z
1/2-x,1/2-y,-z
1/2+x,1/2+y,-z
1/2-x,1/2+y,z
1/2+x,1/2-y,z
loop_
_atom_site_type_symbol
_atom_site_label
_atom_site_fract_x
_atom_site_fract_y
_atom_site_fract_z
Si Si1 0.409234 0.392148 0.875954
Si Si2 0.091334 0.211561 0.437434
Si Si3 0.409545 0.899956 0.741330
Si Si4 0.162167 0.222049 0.776534
Si Si5 0.916174 0.891122 0.000000
Si Si6 0.909580 0.892408 0.325435
Si Si7 0.908502 0.600960 0.612822
O O1 0.500000 0.368818 0.869245
O O2 0.396386 0.500000 0.863895
O O3 0.356873 0.336163 0.832493
O O4 0.376997 0.363683 0.939521
O O5 0.122030 0.179859 0.500000
O O6 0.117856 0.140318 0.388402
O O7 0.123758 0.315066 0.425412
O O8 0.000000 0.214664 0.438062
O O9 0.500000 0.900669 0.739989
O O10 0.382519 0.818522 0.782293
O O11 0.378129 0.883131 0.677196
O O12 0.379416 0.000000 0.763598
O O13 0.250000 0.250000 0.772724
O O14 0.137702 0.164106 0.721146
O O15 0.000000 0.844515 0.000000
O O16 0.927163 0.000000 0.000000
O O17 0.000000 0.872585 0.316015
O O18 0.890713 0.000000 0.319030
O O19 0.880314 0.500000 0.590152
O O20 0.000000 0.602840 0.612714
#
# Coordination Sequence:
#
# PCOD8271653 Si02
#       7
#    16  16  16  16   8  16  16
#     4   9  17  32  56  83 109 137 170 209 250 294
#     4   9  16  26  44  72 100 121 151 205 266 316
#     4   9  17  31  50  67  88 124 167 208 247 290
#     4  12  23  32  47  74 106 135 167 206 253 300
#     4   7  12  26  51  82 109 133 167 209 248 285
#     4  10  20  35  54  73  97 130 168 210 256 310
#     4   8  13  23  41  64  89 118 153 196 245 292
#
# _framework density 17.63701
#
# number of rings (size 3 to 8) (size 9 to 14) (size 15 to 20)
#    0.000    2.692    1.538    3.692    0.000    3.077 
#    0.000    3.462    0.000    0.462    0.000    0.538 
#    0.000    3.077    0.000    0.000    0.000    0.462 
#
# Total GULP energy -644204.418618 kJ/mol
# GULP energy per Si atom -12388.546512 kJ/mol
# Density = 1.759687 g / cm^3
# Si number density = 17.637010 Si / 1000 Ang^3
#
#
#
# Elastic Constant Matrix: (Units=GPa)
#
#
# Indices 1 2 3 4 5 6 
#
# 1 41.7452 37.5538 40.1149 0.0000 0.0000 0.0000
# 2 37.5538 118.1752 68.9868 0.0000 0.0000 0.0000
# 3 40.1149 68.9868 137.0938 0.0000 0.0000 0.0000
# 4 0.0000 0.0000 0.0000 24.2094 0.0000 0.0000
# 5 0.0000 0.0000 0.0000 0.0000 7.3306 0.0000
# 6 0.0000 0.0000 0.0000 0.0000 0.0000 11.5795
#
#
#
# Elastic Compliance Matrix: (Units=1/GPa)
#
#
# Indices 1 2 3 4 5 6 
#
# 1 0.037889 -0.007884 -0.007119 0.000000 0.000000 0.000000
# 2 -0.007884 0.013622 -0.004548 0.000000 0.000000 0.000000
# 3 -0.007119 -0.004548 0.011666 0.000000 0.000000 0.000000
# 4 0.000000 0.000000 0.000000 0.041306 0.000000 0.000000
# 5 0.000000 0.000000 0.000000 0.000000 0.136414 0.000000
# 6 0.000000 0.000000 0.000000 0.000000 0.000000 0.086359
#
#
# Mechanical properties :
#
#
# Convention : Reuss Voigt Hill
#
# Bulk Modulus (GPa) = 41.53809 65.59170 53.56490
# Shear Modulus (GPa) = 13.35528 18.64782 16.00155
#
# Velocity S-wave (km/s) = 2.75477 3.25516 3.01536
# Velocity P-wave (km/s) = 5.80699 7.16928 6.52379
#
# Compressibility (1/GPa) = 0.02407429
#
# Stress axis : x y z
#
# Youngs Moduli (GPa) = 26.39314 73.40833 85.71994
#
# Poissons Ratio (x) = 0.57878 0.61024
# Poissons Ratio (y) = 0.20809 0.38984
# Poissons Ratio (z) = 0.18789 0.33385
#
# Static dielectric constant tensor:
#      x y z
#    x 2.741400 0.000000 0.000000 
#    y 0.000000 3.328860 0.000000 
#    z 0.000000 0.000000 3.498840 
# 
# 
# High freq. dielectric constant tensor:
#      x y z
#    x 1.625440 0.000000 0.000000 
#    y 0.000000 1.687930 0.000000 
#    z 0.000000 0.000000 1.674250 
# 
# From -- ./inp_files/70551.got.cif
#   From: 2010.03.12/outbox.cif.g09.slc.cpg/sg65_36_cif.got.tgz:70551.got - 2010.04.10 20:52:16.
