data_PCOD8271442
_publ_section_title
;
Structure prediction by ZEFSAII (Michael W. Deem and Ramdas Pophale) SiO2 
 PCOD8271442
Probable space group: C M M M
;
_chemical_formula_sum "Si O2"
_cell_formula_units_Z 72
_cell_length_a 18.531798
_cell_length_b 8.848059
_cell_length_c 22.979228
_cell_angle_alpha 90.000000
_cell_angle_beta 90.000000
_cell_angle_gamma 90.000000
_cell_volume 3767.914174
_symmetry_space_group_name_H-M "C M M M"
_symmetry_group_IT_number 65
_symmetry_cell_setting 'orthorhombic'
loop_
_space_group_symop_operation_xyz
x,y,z
-x,-y,z
x,-y,-z
-x,y,-z
-x,-y,-z
x,y,-z
-x,y,z
x,-y,z
1/2+x,1/2+y,z
1/2-x,1/2-y,z
1/2+x,1/2-y,-z
1/2-x,1/2+y,-z
1/2-x,1/2-y,-z
1/2+x,1/2+y,-z
1/2-x,1/2+y,z
1/2+x,1/2-y,z
loop_
_atom_site_type_symbol
_atom_site_label
_atom_site_fract_x
_atom_site_fract_y
_atom_site_fract_z
Si Si1 0.675293 0.822442 0.433389
Si Si2 0.584664 0.324075 0.103449
Si Si3 0.914322 0.669920 0.221806
Si Si4 0.914421 0.170965 0.662482
Si Si5 0.171387 0.678749 0.000000
O O1 0.658841 0.777899 0.500000
O O2 0.750000 0.750000 0.412242
O O3 0.610917 0.757690 0.394852
O O4 0.680465 0.000000 0.424924
O O5 0.500000 0.293751 0.094053
O O6 0.603126 0.500000 0.096894
O O7 0.610619 0.268260 0.166667
O O8 0.628102 0.229607 0.056550
O O9 0.883372 0.500000 0.216664
O O10 0.883133 0.747293 0.280014
O O11 0.000000 0.666272 0.224950
O O12 0.000000 0.174711 0.662741
O O13 0.885352 0.000000 0.661857
O O14 0.250000 0.750000 0.000000
O O15 0.178795 0.500000 0.000000
#
# Coordination Sequence:
#
# PCOD8271442 Si02
#       5
#    16  16  16  16   8
#     4  10  21  37  56  77 104 140 181 224 270 321
#     4  10  20  36  59  85 112 143 181 222 265 317
#     4   9  17  31  53  81 111 142 178 220 265 314
#     4  10  20  34  54  81 112 144 178 219 268 319
#     4  12  25  40  57  79 111 147 183 224 273 322
#
# _framework density 19.108716000000001
#
# number of rings (size 3 to 8) (size 9 to 14) (size 15 to 20)
#    0.000    2.000    0.000    4.000    0.000    8.444 
#    0.000    3.333    0.000    0.000    0.000    0.000 
#    0.000    0.000    0.000    0.000    0.000    0.000 
#
# Total GULP energy -446516.848101 kJ/mol
# GULP energy per Si atom -12403.245781 kJ/mol
# Density = 1.906522 g / cm^3
# Si number density = 19.108716 Si / 1000 Ang^3
#
#
#
# Elastic Constant Matrix: (Units=GPa)
#
#
# Indices 1 2 3 4 5 6 
#
# 1 40.6576 40.2719 41.4552 0.0000 0.0000 0.0000
# 2 40.2719 146.8028 66.8600 0.0000 0.0000 0.0000
# 3 41.4552 66.8600 136.3133 0.0000 0.0000 0.0000
# 4 0.0000 0.0000 0.0000 41.5294 0.0000 0.0000
# 5 0.0000 0.0000 0.0000 0.0000 -8.2394 0.0000
# 6 0.0000 0.0000 0.0000 0.0000 0.0000 29.9690
#
#
#
# Elastic Compliance Matrix: (Units=1/GPa)
#
#
# Indices 1 2 3 4 5 6 
#
# 1 0.040711 -0.007120 -0.008889 0.000000 0.000000 0.000000
# 2 -0.007120 0.010016 -0.002748 0.000000 0.000000 0.000000
# 3 -0.008889 -0.002748 0.011387 0.000000 0.000000 0.000000
# 4 0.000000 0.000000 0.000000 0.024079 0.000000 0.000000
# 5 0.000000 0.000000 0.000000 0.000000 -0.121368 0.000000
# 6 0.000000 0.000000 0.000000 0.000000 0.000000 0.033368
#
#
# Mechanical properties :
#
#
# Convention : Reuss Voigt Hill
#
# Bulk Modulus (GPa) = 40.64714 68.99420 54.82067
# Shear Modulus (GPa) = 113.87846 24.33092 69.10469
#
# Velocity S-wave (km/s) = 7.72816 3.57219 6.02017
# Velocity P-wave (km/s) = 10.04740 7.29373 8.77920
#
# Compressibility (1/GPa) = 0.02460198
#
# Stress axis : x y z
#
# Youngs Moduli (GPa) = 24.56333 99.83603 87.81986
#
# Poissons Ratio (x) = 0.71082 0.78061
# Poissons Ratio (y) = 0.17489 0.24130
# Poissons Ratio (z) = 0.21834 0.27432
#
# Static dielectric constant tensor:
#      x y z
#    x 3.215970 0.000000 0.000000 
#    y 0.000000 3.751870 0.000000 
#    z 0.000000 0.000000 3.708600 
# 
# 
# High freq. dielectric constant tensor:
#      x y z
#    x 1.708400 0.000000 0.000000 
#    y 0.000000 1.764300 0.000000 
#    z 0.000000 0.000000 1.758030 
# 
# From -- ./inp_files/64348.got.cif
#   From: 2010.03.12/outbox.cif.g09.slc.cpg/sg65_33_cif.got.tgz:64348.got - 2010.04.10 20:52:16.
