data_PCOD8271243
_publ_section_title
;
Structure prediction by ZEFSAII (Michael W. Deem and Ramdas Pophale) SiO2 
 PCOD8271243
Probable space group: C M M M
;
_chemical_formula_sum "Si O2"
_cell_formula_units_Z 104
_cell_length_a 28.313651
_cell_length_b 8.760263
_cell_length_c 23.272584
_cell_angle_alpha 90.000000
_cell_angle_beta 90.000000
_cell_angle_gamma 90.000000
_cell_volume 5772.416053
_symmetry_space_group_name_H-M "C M M M"
_symmetry_group_IT_number 65
_symmetry_cell_setting 'orthorhombic'
loop_
_space_group_symop_operation_xyz
x,y,z
-x,-y,z
x,-y,-z
-x,y,-z
-x,-y,-z
x,y,-z
-x,y,z
x,-y,z
1/2+x,1/2+y,z
1/2-x,1/2-y,z
1/2+x,1/2-y,-z
1/2-x,1/2+y,-z
1/2-x,1/2-y,-z
1/2+x,1/2+y,-z
1/2-x,1/2+y,z
1/2+x,1/2-y,z
loop_
_atom_site_type_symbol
_atom_site_label
_atom_site_fract_x
_atom_site_fract_y
_atom_site_fract_z
Si Si1 0.299313 0.321615 0.649659
Si Si2 0.107552 0.681416 0.173583
Si Si3 0.393252 0.819105 0.612954
Si Si4 0.799355 0.821191 0.782882
Si Si5 0.447202 0.818834 0.063333
Si Si6 0.555824 0.675054 0.279517
Si Si7 0.553141 0.818577 0.500000
O O1 0.297194 0.500000 0.638074
O O2 0.250000 0.250000 0.629525
O O3 0.340631 0.248211 0.611984
O O4 0.309395 0.283790 0.716281
O O5 0.107442 0.500000 0.179058
O O6 0.160362 0.743181 0.179419
O O7 0.088645 0.740331 0.111932
O O8 0.073001 0.749417 0.221103
O O9 0.422325 0.763629 0.667387
O O10 0.419679 0.758734 0.556197
O O11 0.389916 0.000000 0.614509
O O12 0.750000 0.750000 0.802772
O O13 0.798373 0.000000 0.794720
O O14 0.500000 0.756174 0.075918
O O15 0.448611 0.000000 0.064662
O O16 0.430387 0.762641 0.000000
O O17 0.500000 0.688419 0.283006
O O18 0.573211 0.500000 0.281406
O O19 0.500000 0.751586 0.500000
O O20 0.551326 0.000000 0.500000
#
# Coordination Sequence:
#
# PCOD8271243 Si02
#       7
#    16  16  16  16  16  16   8
#     4  10  20  35  56  81 111 142 176 218 268 322
#     4  11  20  31  53  82 109 139 179 221 269 324
#     4  11  21  36  59  82 107 140 180 223 269 322
#     4  10  20  34  53  77 110 143 175 218 268 321
#     4   8  15  29  49  75 108 144 182 223 263 308
#     4  11  23  36  50  74 110 145 177 220 271 317
#     4   9  20  38  58  81 108 141 182 225 266 313
#
# _framework density 18.016718999999998
#
# number of rings (size 3 to 8) (size 9 to 14) (size 15 to 20)
#    0.000    1.923    1.538    3.692    0.000    3.692 
#    0.000    1.923    0.000    5.077    0.000    5.385 
#    0.000    0.000    0.000    0.000    0.000    0.000 
#
# Total GULP energy -644911.604908 kJ/mol
# GULP energy per Si atom -12402.146248 kJ/mol
# Density = 1.797571 g / cm^3
# Si number density = 18.016719 Si / 1000 Ang^3
#
#
#
# Elastic Constant Matrix: (Units=GPa)
#
#
# Indices 1 2 3 4 5 6 
#
# 1 151.0825 48.4334 76.9651 0.0000 0.0000 0.0000
# 2 48.4334 63.9942 29.0620 0.0000 0.0000 0.0000
# 3 76.9651 29.0620 120.1331 0.0000 0.0000 0.0000
# 4 0.0000 0.0000 0.0000 -0.3045 0.0000 0.0000
# 5 0.0000 0.0000 0.0000 0.0000 34.0296 0.0000
# 6 0.0000 0.0000 0.0000 0.0000 0.0000 33.5842
#
#
#
# Elastic Compliance Matrix: (Units=1/GPa)
#
#
# Indices 1 2 3 4 5 6 
#
# 1 0.011605 -0.006074 -0.005966 0.000000 0.000000 0.000000
# 2 -0.006074 0.020734 -0.001124 0.000000 0.000000 0.000000
# 3 -0.005966 -0.001124 0.012418 0.000000 0.000000 0.000000
# 4 0.000000 0.000000 0.000000 -3.284482 0.000000 0.000000
# 5 0.000000 0.000000 0.000000 0.000000 0.029386 0.000000
# 6 0.000000 0.000000 0.000000 0.000000 0.000000 0.029776
#
#
# Mechanical properties :
#
#
# Convention : Reuss Voigt Hill
#
# Bulk Modulus (GPa) = 54.26190 71.57009 62.91600
# Shear Modulus (GPa) = -1.58826 25.51182 11.96178
#
# Velocity S-wave (km/s) = -0.93993 3.76707 2.57947
# Velocity P-wave (km/s) = 5.38563 7.66365 6.62331
#
# Compressibility (1/GPa) = 0.01842914
#
# Stress axis : x y z
#
# Youngs Moduli (GPa) = 86.16899 48.22963 80.52775
#
# Poissons Ratio (x) = 0.29295 0.48040
# Poissons Ratio (y) = 0.52339 0.09055
# Poissons Ratio (z) = 0.51405 0.05423
#
# Static dielectric constant tensor:
#      x y z
#    x 3.496990 0.000000 0.000000 
#    y 0.000000 3.271160 0.000000 
#    z 0.000000 0.000000 3.482720 
# 
# 
# High freq. dielectric constant tensor:
#      x y z
#    x 1.709820 0.000000 0.000000 
#    y 0.000000 1.692580 0.000000 
#    z 0.000000 0.000000 1.683450 
# 
# From -- ./inp_files/65941.got.cif
#   From: 2010.03.12/outbox.cif.g09.slc.cpg/sg65_33_cif.got.tgz:65941.got - 2010.04.10 20:52:16.
