data_PCOD8271926
_publ_section_title
;
Structure prediction by ZEFSAII (Michael W. Deem and Ramdas Pophale) SiO2 
 PCOD8271926
Probable space group: C M M M
;
_chemical_formula_sum "Si O2"
_cell_formula_units_Z 64
_cell_length_a 16.141201
_cell_length_b 16.057272
_cell_length_c 12.588203
_cell_angle_alpha 90.000000
_cell_angle_beta 90.000000
_cell_angle_gamma 90.000000
_cell_volume 3262.656462
_symmetry_space_group_name_H-M "C M M M"
_symmetry_group_IT_number 65
_symmetry_cell_setting 'orthorhombic'
loop_
_space_group_symop_operation_xyz
x,y,z
-x,-y,z
x,-y,-z
-x,y,-z
-x,-y,-z
x,y,-z
-x,y,z
x,-y,z
1/2+x,1/2+y,z
1/2-x,1/2-y,z
1/2+x,1/2-y,-z
1/2-x,1/2+y,-z
1/2-x,1/2-y,-z
1/2+x,1/2+y,-z
1/2-x,1/2+y,z
1/2+x,1/2-y,z
loop_
_atom_site_type_symbol
_atom_site_label
_atom_site_fract_x
_atom_site_fract_y
_atom_site_fract_z
Si Si1 0.093568 0.854628 0.269654
Si Si2 0.597086 0.901812 0.000000
Si Si3 0.402227 0.500000 0.883285
Si Si4 0.329933 0.803226 0.195261
Si Si5 0.750470 0.902711 0.619961
O O1 0.096892 0.761209 0.224031
O O2 0.155878 0.867283 0.367961
O O3 0.000000 0.875571 0.305812
O O4 0.126177 0.917302 0.178109
O O5 0.640037 0.863782 0.896673
O O6 0.500000 0.880412 0.000000
O O7 0.612728 0.000000 0.000000
O O8 0.500000 0.500000 0.895650
O O9 0.360201 0.500000 0.000000
O O10 0.250000 0.750000 0.158927
O O11 0.311404 0.856912 0.300171
O O12 0.721452 0.883875 0.500000
O O13 0.748845 0.000000 0.644856
#
# Coordination Sequence:
#
# PCOD8271926 Si02
#       5
#    16   8   8  16  16
#     4  10  20  35  56  86 117 147 188 233 280 333
#     4  11  23  40  62  85 115 149 186 236 285 331
#     4   9  18  32  51  79 117 155 182 216 273 336
#     4  10  22  38  58  86 115 150 189 229 279 338
#     4  10  21  39  60  81 111 151 191 234 280 334
#
# _framework density 19.615918000000001
#
# number of rings (size 3 to 8) (size 9 to 14) (size 15 to 20)
#    0.000    2.000    1.250    1.875    1.750    5.000 
#    2.250    1.250    0.000    2.250    0.000    8.750 
#    0.000    0.000    0.000    0.000    0.000    0.000 
#
# Total GULP energy -396802.325719 kJ/mol
# GULP energy per Si atom -12400.072679 kJ/mol
# Density = 1.957127 g / cm^3
# Si number density = 19.615918 Si / 1000 Ang^3
#
#
#
# Elastic Constant Matrix: (Units=GPa)
#
#
# Indices 1 2 3 4 5 6 
#
# 1 68.3566 40.8770 48.3301 0.0000 0.0000 0.0000
# 2 40.8770 135.9574 73.0661 0.0000 0.0000 0.0000
# 3 48.3301 73.0661 134.7557 0.0000 0.0000 0.0000
# 4 0.0000 0.0000 0.0000 32.6956 0.0000 0.0000
# 5 0.0000 0.0000 0.0000 0.0000 14.9370 0.0000
# 6 0.0000 0.0000 0.0000 0.0000 0.0000 26.2313
#
#
#
# Elastic Compliance Matrix: (Units=1/GPa)
#
#
# Indices 1 2 3 4 5 6 
#
# 1 0.020497 -0.003121 -0.005659 0.000000 0.000000 0.000000
# 2 -0.003121 0.010855 -0.004766 0.000000 0.000000 0.000000
# 3 -0.005659 -0.004766 0.012035 0.000000 0.000000 0.000000
# 4 0.000000 0.000000 0.000000 0.030585 0.000000 0.000000
# 5 0.000000 0.000000 0.000000 0.000000 0.066948 0.000000
# 6 0.000000 0.000000 0.000000 0.000000 0.000000 0.038122
#
#
# Mechanical properties :
#
#
# Convention : Reuss Voigt Hill
#
# Bulk Modulus (GPa) = 61.37344 73.73512 67.55428
# Shear Modulus (GPa) = 23.63332 26.55923 25.09628
#
# Velocity S-wave (km/s) = 3.47479 3.68362 3.58073
# Velocity P-wave (km/s) = 6.88872 7.46747 7.18392
#
# Compressibility (1/GPa) = 0.01629369
#
# Stress axis : x y z
#
# Youngs Moduli (GPa) = 48.78866 92.12120 83.09341
#
# Poissons Ratio (x) = 0.28755 0.47019
# Poissons Ratio (y) = 0.15229 0.39605
# Poissons Ratio (z) = 0.27607 0.43908
#
# Static dielectric constant tensor:
#      x y z
#    x 3.411910 0.000000 0.000000 
#    y 0.000000 3.771780 0.000000 
#    z 0.000000 0.000000 3.547090 
# 
# 
# High freq. dielectric constant tensor:
#      x y z
#    x 1.748360 0.000000 0.000000 
#    y 0.000000 1.783340 0.000000 
#    z 0.000000 0.000000 1.757410 
# 
# From -- ./inp_files/23970.got.cif
#   From: 2010.03.12/outbox.cif.g09.slc.cpg/sg65_12_cif.got.tgz:23970.got - 2010.04.10 20:52:16.
