data_PCOD8271866
_publ_section_title
;
Structure prediction by ZEFSAII (Michael W. Deem and Ramdas Pophale) SiO2 
 PCOD8271866
Probable space group: C M M M
;
_chemical_formula_sum "Si O2"
_cell_formula_units_Z 72
_cell_length_a 14.862041
_cell_length_b 30.249318
_cell_length_c 7.973616
_cell_angle_alpha 90.000000
_cell_angle_beta 90.000000
_cell_angle_gamma 90.000000
_cell_volume 3584.671469
_symmetry_space_group_name_H-M "C M M M"
_symmetry_group_IT_number 65
_symmetry_cell_setting 'orthorhombic'
loop_
_space_group_symop_operation_xyz
x,y,z
-x,-y,z
x,-y,-z
-x,y,-z
-x,-y,-z
x,y,-z
-x,y,z
x,-y,z
1/2+x,1/2+y,z
1/2-x,1/2-y,z
1/2+x,1/2-y,-z
1/2-x,1/2+y,-z
1/2-x,1/2-y,-z
1/2+x,1/2+y,-z
1/2-x,1/2+y,z
1/2+x,1/2-y,z
loop_
_atom_site_type_symbol
_atom_site_label
_atom_site_fract_x
_atom_site_fract_y
_atom_site_fract_z
Si Si1 0.716644 0.550469 0.187971
Si Si2 0.318396 0.128558 0.305660
Si Si3 0.500000 0.831325 0.692030
Si Si4 0.500000 0.265940 0.804885
Si Si5 0.401715 0.447818 0.500000
Si Si6 0.697287 0.293803 0.196804
O O1 0.747457 0.500000 0.222799
O O2 0.801146 0.583275 0.203677
O O3 0.646709 0.567320 0.328809
O O4 0.674860 0.554235 0.000000
O O5 0.328989 0.116572 0.500000
O O6 0.409605 0.148772 0.225514
O O7 0.237413 0.163473 0.287265
O O8 0.500000 0.845180 0.500000
O O9 0.500000 0.778976 0.702747
O O10 0.409062 0.292359 0.757376
O O11 0.500000 0.253483 0.000000
O O12 0.410005 0.500000 0.500000
O O13 0.500000 0.425738 0.500000
O O14 0.750000 0.250000 0.260648
O O15 0.712152 0.299385 0.000000
#
# Coordination Sequence:
#
# PCOD8271866 Si02
#       6
#    16  16   8   8   8  16
#     4  10  21  39  63  89 122 163 203 250 306 360
#     4  11  22  38  59  85 117 156 201 253 308 364
#     4  10  22  36  57  85 114 150 200 251 306 366
#     4  10  20  36  56  81 114 153 194 245 301 355
#     4   9  18  36  62  89 118 153 199 249 299 357
#     4  10  20  35  56  81 113 151 194 242 298 359
#
# _framework density 20.085522999999998
#
# number of rings (size 3 to 8) (size 9 to 14) (size 15 to 20)
#    0.000    1.889    3.333    0.667    0.000    2.667 
#    2.000    2.778    0.000    3.333    0.000    0.000 
#    0.000    0.000    0.000    0.000    0.000    0.000 
#
# Total GULP energy -446308.741653 kJ/mol
# GULP energy per Si atom -12397.465046 kJ/mol
# Density = 2.003981 g / cm^3
# Si number density = 20.085523 Si / 1000 Ang^3
#
#
#
# Elastic Constant Matrix: (Units=GPa)
#
#
# Indices 1 2 3 4 5 6 
#
# 1 152.2162 54.0149 34.2826 0.0000 0.0000 0.0000
# 2 54.0149 104.7207 28.3236 0.0000 0.0000 0.0000
# 3 34.2826 28.3236 86.7257 0.0000 0.0000 0.0000
# 4 0.0000 0.0000 0.0000 29.8328 0.0000 0.0000
# 5 0.0000 0.0000 0.0000 0.0000 16.7500 0.0000
# 6 0.0000 0.0000 0.0000 0.0000 0.0000 19.8519
#
#
#
# Elastic Compliance Matrix: (Units=1/GPa)
#
#
# Indices 1 2 3 4 5 6 
#
# 1 0.008371 -0.003754 -0.002083 0.000000 0.000000 0.000000
# 2 -0.003754 0.012158 -0.002487 0.000000 0.000000 0.000000
# 3 -0.002083 -0.002487 0.013166 0.000000 0.000000 0.000000
# 4 0.000000 0.000000 0.000000 0.033520 0.000000 0.000000
# 5 0.000000 0.000000 0.000000 0.000000 0.059701 0.000000
# 6 0.000000 0.000000 0.000000 0.000000 0.000000 0.050373
#
#
# Mechanical properties :
#
#
# Convention : Reuss Voigt Hill
#
# Bulk Modulus (GPa) = 58.65972 64.10054 61.38013
# Shear Modulus (GPa) = 25.04756 28.42306 26.73531
#
# Velocity S-wave (km/s) = 3.53518 3.76586 3.65235
# Velocity P-wave (km/s) = 6.77730 7.13387 6.95787
#
# Compressibility (1/GPa) = 0.01704747
#
# Stress axis : x y z
#
# Youngs Moduli (GPa) = 119.46018 82.24850 75.95269
#
# Poissons Ratio (x) = 0.30879 0.15820
# Poissons Ratio (y) = 0.44850 0.18887
# Poissons Ratio (z) = 0.24882 0.20452
#
# Static dielectric constant tensor:
#      x y z
#    x 3.979720 0.000000 0.000000 
#    y 0.000000 3.503060 0.000000 
#    z 0.000000 0.000000 3.588170 
# 
# 
# High freq. dielectric constant tensor:
#      x y z
#    x 1.776930 0.000000 0.000000 
#    y 0.000000 1.774140 0.000000 
#    z 0.000000 0.000000 1.783480 
# 
# From -- ./inp_files/7437.got.cif
#   From: 2010.03.12/outbox.cif.g09.slc.cpg/sg65_4_cif.got.tgz:7437.got - 2010.04.10 20:52:16.
