data_PCOD8271625
_publ_section_title
;
Structure prediction by ZEFSAII (Michael W. Deem and Ramdas Pophale) SiO2 
 PCOD8271625
Probable space group: C M M M
;
_chemical_formula_sum "Si O2"
_cell_formula_units_Z 56
_cell_length_a 14.639452
_cell_length_b 8.644272
_cell_length_c 23.898002
_cell_angle_alpha 90.000000
_cell_angle_beta 90.000000
_cell_angle_gamma 90.000000
_cell_volume 3024.230138
_symmetry_space_group_name_H-M "C M M M"
_symmetry_group_IT_number 65
_symmetry_cell_setting 'orthorhombic'
loop_
_space_group_symop_operation_xyz
x,y,z
-x,-y,z
x,-y,-z
-x,y,-z
-x,-y,-z
x,y,-z
-x,y,z
x,-y,z
1/2+x,1/2+y,z
1/2-x,1/2-y,z
1/2+x,1/2-y,-z
1/2-x,1/2+y,-z
1/2-x,1/2-y,-z
1/2+x,1/2+y,-z
1/2-x,1/2+y,z
1/2+x,1/2-y,z
loop_
_atom_site_type_symbol
_atom_site_label
_atom_site_fract_x
_atom_site_fract_y
_atom_site_fract_z
Si Si1 0.500000 0.815819 0.729820
Si Si2 0.351874 0.316297 0.650019
Si Si3 0.000000 0.182851 0.437961
Si Si4 0.846209 0.316877 0.937555
Si Si5 0.000000 0.683998 0.143351
O O1 0.592801 0.750440 0.702696
O O2 0.500000 0.754865 0.793427
O O3 0.500000 0.000000 0.725056
O O4 0.347115 0.500000 0.655536
O O5 0.250000 0.250000 0.647155
O O6 0.408281 0.264438 0.594637
O O7 0.000000 0.258042 0.500000
O O8 0.000000 0.000000 0.442542
O O9 0.843045 0.500000 0.936225
O O10 0.750000 0.250000 0.920094
O O11 0.913669 0.250941 0.890605
O O12 0.875197 0.261273 0.000000
O O13 0.000000 0.500000 0.143337
#
# Coordination Sequence:
#
# PCOD8271625 Si02
#       5
#     8  16   8  16   8
#     4  10  20  35  53  74 102 133 172 217 256 299
#     4  10  20  35  55  77 104 138 173 208 251 300
#     4   8  16  32  53  78 107 135 166 207 250 295
#     4   9  17  31  50  71  96 125 158 197 243 296
#     4   9  18  32  51  73  95 126 164 201 246 298
#
# _framework density 18.517109000000001
#
# number of rings (size 3 to 8) (size 9 to 14) (size 15 to 20)
#    0.000    2.714    0.000    2.571    0.000    3.429 
#    0.000    6.429    0.000   18.000    0.000    0.000 
#    0.000    0.000    0.000    0.000    0.000    0.000 
#
# Total GULP energy -347064.194102 kJ/mol
# GULP energy per Si atom -12395.149789 kJ/mol
# Density = 1.847496 g / cm^3
# Si number density = 18.517109 Si / 1000 Ang^3
#
#
#
# Elastic Constant Matrix: (Units=GPa)
#
#
# Indices 1 2 3 4 5 6 
#
# 1 185.8764 38.4233 111.5508 0.0000 0.0000 0.0000
# 2 38.4233 45.9271 33.2676 0.0000 0.0000 0.0000
# 3 111.5508 33.2676 189.3505 0.0000 0.0000 0.0000
# 4 0.0000 0.0000 0.0000 20.6224 0.0000 0.0000
# 5 0.0000 0.0000 0.0000 0.0000 17.8491 0.0000
# 6 0.0000 0.0000 0.0000 0.0000 0.0000 30.6898
#
#
#
# Elastic Compliance Matrix: (Units=1/GPa)
#
#
# Indices 1 2 3 4 5 6 
#
# 1 0.008983 -0.004219 -0.004551 0.000000 0.000000 0.000000
# 2 -0.004219 0.026930 -0.002246 0.000000 0.000000 0.000000
# 3 -0.004551 -0.002246 0.008357 0.000000 0.000000 0.000000
# 4 0.000000 0.000000 0.000000 0.048491 0.000000 0.000000
# 5 0.000000 0.000000 0.000000 0.000000 0.056025 0.000000
# 6 0.000000 0.000000 0.000000 0.000000 0.000000 0.032584
#
#
# Mechanical properties :
#
#
# Convention : Reuss Voigt Hill
#
# Bulk Modulus (GPa) = 44.96708 87.51526 66.24117
# Shear Modulus (GPa) = 23.71744 29.69307 26.70525
#
# Velocity S-wave (km/s) = 3.58276 4.00878 3.80174
# Velocity P-wave (km/s) = 6.43830 8.29406 7.42439
#
# Compressibility (1/GPa) = 0.02223849
#
# Stress axis : x y z
#
# Youngs Moduli (GPa) = 111.31818 37.13305 119.66148
#
# Poissons Ratio (x) = 0.15666 0.54458
# Poissons Ratio (y) = 0.46965 0.26875
# Poissons Ratio (z) = 0.50661 0.08340
#
# Static dielectric constant tensor:
#      x y z
#    x 3.695510 0.000000 0.000000 
#    y 0.000000 3.160290 0.000000 
#    z 0.000000 0.000000 3.792830 
# 
# 
# High freq. dielectric constant tensor:
#      x y z
#    x 1.725940 0.000000 0.000000 
#    y 0.000000 1.696700 0.000000 
#    z 0.000000 0.000000 1.723820 
# 
# From -- ./inp_files/69447.got.cif
#   From: 2010.03.12/outbox.cif.g09.slc.cpg/sg65_35_cif.got.tgz:69447.got - 2010.04.10 20:52:16.
