data_PCOD8271984
_publ_section_title
;
Structure prediction by ZEFSAII (Michael W. Deem and Ramdas Pophale) SiO2 
 PCOD8271984
Probable space group: C M M M
;
_chemical_formula_sum "Si O2"
_cell_formula_units_Z 96
_cell_length_a 28.592076
_cell_length_b 19.993707
_cell_length_c 8.719261
_cell_angle_alpha 90.000000
_cell_angle_beta 90.000000
_cell_angle_gamma 90.000000
_cell_volume 4984.466607
_symmetry_space_group_name_H-M "C M M M"
_symmetry_group_IT_number 65
_symmetry_cell_setting 'orthorhombic'
loop_
_space_group_symop_operation_xyz
x,y,z
-x,-y,z
x,-y,-z
-x,y,-z
-x,-y,-z
x,y,-z
-x,y,z
x,-y,z
1/2+x,1/2+y,z
1/2-x,1/2-y,z
1/2+x,1/2-y,-z
1/2-x,1/2+y,-z
1/2-x,1/2-y,-z
1/2+x,1/2+y,-z
1/2-x,1/2+y,z
1/2+x,1/2-y,z
loop_
_atom_site_type_symbol
_atom_site_label
_atom_site_fract_x
_atom_site_fract_y
_atom_site_fract_z
Si Si1 0.445479 0.572606 0.831930
Si Si2 0.696244 0.700742 0.677679
Si Si3 0.553977 0.828592 0.180039
Si Si4 0.368835 0.077861 0.321015
Si Si5 0.909188 0.803860 0.326232
Si Si6 0.215184 0.657153 0.181141
O O1 0.500000 0.564810 0.848228
O O2 0.424561 0.500000 0.782143
O O3 0.436395 0.628205 0.704850
O O4 0.424960 0.593140 0.000000
O O5 0.707563 0.714337 0.500000
O O6 0.644211 0.674736 0.702726
O O7 0.733113 0.646473 0.745026
O O8 0.698691 0.769633 0.770385
O O9 0.500000 0.835327 0.233713
O O10 0.584985 0.884228 0.263592
O O11 0.573176 0.754966 0.216725
O O12 0.558535 0.840271 0.000000
O O13 0.363053 0.092169 0.500000
O O14 0.321649 0.102533 0.239384
O O15 0.375638 0.000000 0.284177
O O16 0.917658 0.779867 0.500000
O O17 0.218798 0.651305 0.000000
#
# Coordination Sequence:
#
# PCOD8271984 Si02
#       6
#    16  16  16  16  16  16
#     4   9  19  36  56  78 109 151 194 236 287 345
#     4  10  20  35  57  84 118 152 187 233 285 342
#     4  11  24  40  60  87 119 155 198 250 301 352
#     4  11  24  42  63  86 117 158 200 246 303 362
#     4  11  22  35  57  88 119 154 193 239 291 347
#     4  11  21  35  59  88 114 146 190 237 285 343
#
# _framework density 19.259834999999999
#
# number of rings (size 3 to 8) (size 9 to 14) (size 15 to 20)
#    0.000    1.500    1.667    5.500    0.000    7.667 
#    0.000    3.333    0.000    1.000    0.000    0.000 
#    0.000    0.000    0.000    0.000    0.000    0.000 
#
# Total GULP energy -595091.119913 kJ/mol
# GULP energy per Si atom -12397.731665 kJ/mol
# Density = 1.921600 g / cm^3
# Si number density = 19.259835 Si / 1000 Ang^3
#
#
#
# Elastic Constant Matrix: (Units=GPa)
#
#
# Indices 1 2 3 4 5 6 
#
# 1 111.8748 50.6182 46.1912 0.0000 0.0000 0.0000
# 2 50.6182 106.0882 38.3255 0.0000 0.0000 0.0000
# 3 46.1912 38.3255 90.1772 0.0000 0.0000 0.0000
# 4 0.0000 0.0000 0.0000 -91.4097 0.0000 0.0000
# 5 0.0000 0.0000 0.0000 0.0000 36.6457 0.0000
# 6 0.0000 0.0000 0.0000 0.0000 0.0000 28.4038
#
#
#
# Elastic Compliance Matrix: (Units=1/GPa)
#
#
# Indices 1 2 3 4 5 6 
#
# 1 0.012900 -0.004451 -0.004716 0.000000 0.000000 0.000000
# 2 -0.004451 0.012672 -0.003106 0.000000 0.000000 0.000000
# 3 -0.004716 -0.003106 0.014825 0.000000 0.000000 0.000000
# 4 0.000000 0.000000 0.000000 -0.010940 0.000000 0.000000
# 5 0.000000 0.000000 0.000000 0.000000 0.027288 0.000000
# 6 0.000000 0.000000 0.000000 0.000000 0.000000 0.035207
#
#
# Mechanical properties :
#
#
# Convention : Reuss Voigt Hill
#
# Bulk Modulus (GPa) = 63.08700 64.26779 63.67739
# Shear Modulus (GPa) = 41.05770 6.26165 23.65967
#
# Velocity S-wave (km/s) = 4.62213 1.80505 3.50872
# Velocity P-wave (km/s) = 7.83021 6.14699 7.03910
#
# Compressibility (1/GPa) = 0.01585113
#
# Stress axis : x y z
#
# Youngs Moduli (GPa) = 77.52199 78.91511 67.45520
#
# Poissons Ratio (x) = 0.35127 0.31810
# Poissons Ratio (y) = 0.34507 0.20948
# Poissons Ratio (z) = 0.36557 0.24507
#
# Static dielectric constant tensor:
#      x y z
#    x 3.870910 0.000000 0.000000 
#    y 0.000000 3.405720 0.000000 
#    z 0.000000 0.000000 3.624030 
# 
# 
# High freq. dielectric constant tensor:
#      x y z
#    x 1.757910 0.000000 0.000000 
#    y 0.000000 1.732280 0.000000 
#    z 0.000000 0.000000 1.761600 
# 
# From -- ./inp_files/16321.got.cif
#   From: 2010.03.12/outbox.cif.g09.slc.cpg/sg65_9_cif.got.tgz:16321.got - 2010.04.10 20:52:16.
