data_PCOD8271935
_publ_section_title
;
Structure prediction by ZEFSAII (Michael W. Deem and Ramdas Pophale) SiO2 
 PCOD8271935
Probable space group: C M M M
;
_chemical_formula_sum "Si O2"
_cell_formula_units_Z 72
_cell_length_a 15.498710
_cell_length_b 26.799185
_cell_length_c 8.942018
_cell_angle_alpha 90.000000
_cell_angle_beta 90.000000
_cell_angle_gamma 90.000000
_cell_volume 3714.092183
_symmetry_space_group_name_H-M "C M M M"
_symmetry_group_IT_number 65
_symmetry_cell_setting 'orthorhombic'
loop_
_space_group_symop_operation_xyz
x,y,z
-x,-y,z
x,-y,-z
-x,y,-z
-x,-y,-z
x,y,-z
-x,y,z
x,-y,z
1/2+x,1/2+y,z
1/2-x,1/2-y,z
1/2+x,1/2-y,-z
1/2-x,1/2+y,-z
1/2-x,1/2-y,-z
1/2+x,1/2+y,-z
1/2-x,1/2+y,z
1/2+x,1/2-y,z
loop_
_atom_site_type_symbol
_atom_site_label
_atom_site_fract_x
_atom_site_fract_y
_atom_site_fract_z
Si Si1 0.157265 0.272480 0.324839
Si Si2 0.666063 0.442038 0.326668
Si Si3 0.165421 0.385714 0.677731
Si Si4 0.000000 0.784003 0.822869
Si Si5 0.000000 0.898021 0.176535
Si Si6 0.500000 0.056151 0.321406
O O1 0.135814 0.269504 0.500000
O O2 0.250000 0.250000 0.287615
O O3 0.157548 0.329120 0.266095
O O4 0.085389 0.242077 0.237628
O O5 0.648806 0.429871 0.500000
O O6 0.687288 0.500000 0.303264
O O7 0.746603 0.410482 0.262767
O O8 0.582870 0.426988 0.234571
O O9 0.165619 0.387973 0.500000
O O10 0.084278 0.416139 0.742216
O O11 0.000000 0.841054 0.766150
O O12 0.000000 0.780589 0.000000
O O13 0.000000 0.900108 0.000000
O O14 0.500000 0.056885 0.500000
O O15 0.500000 0.000000 0.260031
#
# Coordination Sequence:
#
# PCOD8271935 Si02
#       6
#    16  16  16   8   8   8
#     4  10  20  35  57  82 107 139 179 224 274 326
#     4  10  20  35  57  84 111 140 177 221 267 317
#     4   9  17  30  50  78 109 137 169 212 261 313
#     4  11  24  39  55  78 110 147 186 230 277 325
#     4  11  24  39  54  75 106 145 184 223 272 323
#     4   9  15  24  42  70 104 137 164 197 247 305
#
# _framework density 19.385625000000001
#
# number of rings (size 3 to 8) (size 9 to 14) (size 15 to 20)
#    0.000    2.111    0.000    3.667    0.000   10.222 
#    0.000    1.111    0.000    0.000    0.000    0.000 
#    0.000    5.333    0.000    0.000    0.000    0.000 
#
# Total GULP energy -446506.284616 kJ/mol
# GULP energy per Si atom -12402.952350 kJ/mol
# Density = 1.934150 g / cm^3
# Si number density = 19.385625 Si / 1000 Ang^3
#
#
#
# Elastic Constant Matrix: (Units=GPa)
#
#
# Indices 1 2 3 4 5 6 
#
# 1 120.0864 31.6441 25.5822 0.0000 0.0000 0.0000
# 2 31.6441 111.0849 22.7674 0.0000 0.0000 0.0000
# 3 25.5822 22.7674 35.8728 0.0000 0.0000 0.0000
# 4 0.0000 0.0000 0.0000 20.0366 0.0000 0.0000
# 5 0.0000 0.0000 0.0000 0.0000 -0.8502 0.0000
# 6 0.0000 0.0000 0.0000 0.0000 0.0000 47.5265
#
#
#
# Elastic Compliance Matrix: (Units=1/GPa)
#
#
# Indices 1 2 3 4 5 6 
#
# 1 0.010062 -0.001604 -0.006157 0.000000 0.000000 0.000000
# 2 -0.001604 0.010604 -0.005586 0.000000 0.000000 0.000000
# 3 -0.006157 -0.005586 0.035812 0.000000 0.000000 0.000000
# 4 0.000000 0.000000 0.000000 0.049909 0.000000 0.000000
# 5 0.000000 0.000000 0.000000 0.000000 -1.176167 0.000000
# 6 0.000000 0.000000 0.000000 0.000000 0.000000 0.021041
#
#
# Mechanical properties :
#
#
# Convention : Reuss Voigt Hill
#
# Bulk Modulus (GPa) = 33.57589 47.44796 40.51192
# Shear Modulus (GPa) = -4.94015 25.81260 10.43623
#
# Velocity S-wave (km/s) = -1.59809 3.65298 2.32275
# Velocity P-wave (km/s) = 3.73529 6.50548 5.30442
#
# Compressibility (1/GPa) = 0.02978328
#
# Stress axis : x y z
#
# Youngs Moduli (GPa) = 99.38610 94.30403 27.92323
#
# Poissons Ratio (x) = 0.15129 0.17193
# Poissons Ratio (y) = 0.15944 0.15598
# Poissons Ratio (z) = 0.61194 0.52678
#
# Static dielectric constant tensor:
#      x y z
#    x 3.706140 0.000000 0.000000 
#    y 0.000000 3.846880 0.000000 
#    z 0.000000 0.000000 3.133170 
# 
# 
# High freq. dielectric constant tensor:
#      x y z
#    x 1.774600 0.000000 0.000000 
#    y 0.000000 1.776490 0.000000 
#    z 0.000000 0.000000 1.706020 
# 
# From -- ./inp_files/7376.got.cif
#   From: 2010.03.12/outbox.cif.g09.slc.cpg/sg65_4_cif.got.tgz:7376.got - 2010.04.10 20:52:16.
