data_PCOD8271331
_publ_section_title
;
Structure prediction by ZEFSAII (Michael W. Deem and Ramdas Pophale) SiO2 
 PCOD8271331
Probable space group: C M M M
;
_chemical_formula_sum "Si O2"
_cell_formula_units_Z 104
_cell_length_a 9.015523
_cell_length_b 28.227390
_cell_length_c 21.618700
_cell_angle_alpha 90.000000
_cell_angle_beta 90.000000
_cell_angle_gamma 90.000000
_cell_volume 5501.628033
_symmetry_space_group_name_H-M "C M M M"
_symmetry_group_IT_number 65
_symmetry_cell_setting 'orthorhombic'
loop_
_space_group_symop_operation_xyz
x,y,z
-x,-y,z
x,-y,-z
-x,y,-z
-x,-y,-z
x,y,-z
-x,y,z
x,-y,z
1/2+x,1/2+y,z
1/2-x,1/2-y,z
1/2+x,1/2-y,-z
1/2-x,1/2+y,-z
1/2-x,1/2-y,-z
1/2+x,1/2+y,-z
1/2-x,1/2+y,z
1/2+x,1/2-y,z
loop_
_atom_site_type_symbol
_atom_site_label
_atom_site_fract_x
_atom_site_fract_y
_atom_site_fract_z
Si Si1 0.675156 0.447719 0.636871
Si Si2 0.176233 0.552859 0.000000
Si Si3 0.827859 0.201698 0.071628
Si Si4 0.672761 0.392587 0.758259
Si Si5 0.325861 0.700704 0.315070
Si Si6 0.175718 0.611552 0.882099
Si Si7 0.176905 0.856891 0.568678
O O1 0.500000 0.450808 0.629521
O O2 0.745354 0.500000 0.625279
O O3 0.714550 0.430214 0.705574
O O4 0.737337 0.409154 0.587861
O O5 0.233834 0.578809 0.938218
O O6 0.242262 0.500000 0.000000
O O7 0.000000 0.551727 0.000000
O O8 0.750000 0.250000 0.090484
O O9 0.751252 0.162389 0.112931
O O10 0.000000 0.205175 0.088176
O O11 0.800896 0.189685 0.000000
O O12 0.500000 0.395401 0.775750
O O13 0.713084 0.339345 0.735675
O O14 0.770812 0.408953 0.816654
O O15 0.500000 0.709516 0.317428
O O16 0.250000 0.750000 0.296814
O O17 0.267731 0.682597 0.382404
O O18 0.000000 0.616723 0.884089
O O19 0.235918 0.844306 0.500000
O O20 0.000000 0.858372 0.570798
#
# Coordination Sequence:
#
# PCOD8271331 Si02
#       7
#    16   8  16  16  16  16  16
#     4   8  14  26  45  68  95 129 166 206 254 304
#     4   9  20  38  56  75 102 133 164 205 256 307
#     4  10  20  34  54  78 105 133 162 197 243 300
#     4   9  19  34  49  69 100 132 164 207 257 302
#     4   9  18  32  49  69  98 135 169 204 245 288
#     4  11  21  35  56  78 102 133 171 212 257 306
#     4   8  14  25  42  68 101 132 163 202 249 298
#
# _framework density 18.903496000000001
#
# number of rings (size 3 to 8) (size 9 to 14) (size 15 to 20)
#    0.000    2.846    0.769    2.769    0.000    3.077 
#    0.000    3.077    0.000    3.231    0.000    0.000 
#    0.000    0.000    0.000    6.769    0.000    6.769 
#
# Total GULP energy -644600.445967 kJ/mol
# GULP energy per Si atom -12396.162422 kJ/mol
# Density = 1.886047 g / cm^3
# Si number density = 18.903496 Si / 1000 Ang^3
#
#
#
# Elastic Constant Matrix: (Units=GPa)
#
#
# Indices 1 2 3 4 5 6 
#
# 1 39.3404 16.4576 20.0786 0.0000 0.0000 0.0000
# 2 16.4576 83.8943 18.8741 0.0000 0.0000 0.0000
# 3 20.0786 18.8741 97.3264 0.0000 0.0000 0.0000
# 4 0.0000 0.0000 0.0000 16.0301 0.0000 0.0000
# 5 0.0000 0.0000 0.0000 0.0000 18.8281 0.0000
# 6 0.0000 0.0000 0.0000 0.0000 0.0000 16.4532
#
#
#
# Elastic Compliance Matrix: (Units=1/GPa)
#
#
# Indices 1 2 3 4 5 6 
#
# 1 0.030093 -0.004712 -0.005294 0.000000 0.000000 0.000000
# 2 -0.004712 0.013201 -0.001588 0.000000 0.000000 0.000000
# 3 -0.005294 -0.001588 0.011675 0.000000 0.000000 0.000000
# 4 0.000000 0.000000 0.000000 0.062383 0.000000 0.000000
# 5 0.000000 0.000000 0.000000 0.000000 0.053112 0.000000
# 6 0.000000 0.000000 0.000000 0.000000 0.000000 0.060778
#
#
# Mechanical properties :
#
#
# Convention : Reuss Voigt Hill
#
# Bulk Modulus (GPa) = 31.46641 36.82016 34.14329
# Shear Modulus (GPa) = 18.86620 21.27234 20.06927
#
# Velocity S-wave (km/s) = 3.16258 3.35821 3.26186
# Velocity P-wave (km/s) = 5.47886 5.87852 5.68220
#
# Compressibility (1/GPa) = 0.03177992
#
# Stress axis : x y z
#
# Youngs Moduli (GPa) = 33.23076 75.74952 85.65395
#
# Poissons Ratio (x) = 0.35695 0.45348
# Poissons Ratio (y) = 0.15659 0.13601
# Poissons Ratio (z) = 0.17594 0.12029
#
# Static dielectric constant tensor:
#      x y z
#    x 3.003680 0.000000 0.000000 
#    y 0.000000 3.602640 0.000000 
#    z 0.000000 0.000000 3.584970 
# 
# 
# High freq. dielectric constant tensor:
#      x y z
#    x 1.689350 0.000000 0.000000 
#    y 0.000000 1.736330 0.000000 
#    z 0.000000 0.000000 1.738070 
# 
# From -- ./inp_files/60784.got.cif
#   From: 2010.03.12/outbox.cif.g09.slc.cpg/sg65_31_cif.got.tgz:60784.got - 2010.04.10 20:52:16.
