data_PCOD8271107
_publ_section_title
;
Structure prediction by ZEFSAII (Michael W. Deem and Ramdas Pophale) SiO2 
 PCOD8271107
Probable space group: C M M M
;
_chemical_formula_sum "Si O2"
_cell_formula_units_Z 120
_cell_length_a 9.448286
_cell_length_b 26.234740
_cell_length_c 27.411473
_cell_angle_alpha 90.000000
_cell_angle_beta 90.000000
_cell_angle_gamma 90.000000
_cell_volume 6794.573001
_symmetry_space_group_name_H-M "C M M M"
_symmetry_group_IT_number 65
_symmetry_cell_setting 'orthorhombic'
loop_
_space_group_symop_operation_xyz
x,y,z
-x,-y,z
x,-y,-z
-x,y,-z
-x,-y,-z
x,y,-z
-x,y,z
x,-y,z
1/2+x,1/2+y,z
1/2-x,1/2-y,z
1/2+x,1/2-y,-z
1/2-x,1/2+y,-z
1/2-x,1/2-y,-z
1/2+x,1/2+y,-z
1/2-x,1/2+y,z
1/2+x,1/2-y,z
loop_
_atom_site_type_symbol
_atom_site_label
_atom_site_fract_x
_atom_site_fract_y
_atom_site_fract_z
Si Si1 0.668467 0.055398 0.898247
Si Si2 0.662947 0.558201 0.291272
Si Si3 0.668702 0.155201 0.053369
Si Si4 0.661953 0.000000 0.442383
Si Si5 0.337767 0.098240 0.202346
Si Si6 0.661566 0.796296 0.151677
Si Si7 0.835513 0.907063 0.398650
Si Si8 0.164181 0.200647 0.556741
O O1 0.500000 0.058619 0.896781
O O2 0.725433 0.097879 0.935760
O O3 0.721615 0.065366 0.843069
O O4 0.722146 0.000000 0.915736
O O5 0.500000 0.559160 0.275937
O O6 0.715527 0.500000 0.297762
O O7 0.749054 0.586870 0.249961
O O8 0.688374 0.588854 0.340960
O O9 0.500000 0.154677 0.053524
O O10 0.721922 0.191126 0.097199
O O11 0.726398 0.172605 0.000000
O O12 0.740958 0.949244 0.424886
O O13 0.500000 0.000000 0.422811
O O14 0.663719 0.000000 0.500000
O O15 0.500000 0.084476 0.213469
O O16 0.321069 0.157301 0.188668
O O17 0.500000 0.779324 0.147483
O O18 0.750000 0.750000 0.173801
O O19 0.787661 0.850442 0.414921
O O20 0.000000 0.916873 0.412454
O O21 0.196681 0.191234 0.500000
O O22 0.250000 0.250000 0.576104
O O23 0.000000 0.212082 0.566184
#
# Coordination Sequence:
#
# PCOD8271107 Si02
#       8
#    16  16  16   8  16  16  16  16
#     4   8  13  22  38  61  88 118 154 192 232 285
#     4  10  20  34  52  76 104 132 164 205 247 291
#     4   8  14  24  38  60  91 122 152 191 239 291
#     4  11  23  35  51  81 115 143 175 219 264 303
#     4   9  18  32  49  69  93 125 162 201 246 297
#     4   9  18  32  49  69  93 122 160 204 250 300
#     4  10  20  37  56  76 106 144 180 212 256 317
#     4   9  18  33  55  79 101 133 175 213 252 298
#
# _framework density 17.661154
#
# number of rings (size 3 to 8) (size 9 to 14) (size 15 to 20)
#    0.000    2.867    0.667    2.600    0.000    4.000 
#    0.000    3.333    0.000    3.200    0.000    0.000 
#    0.000    0.000    0.000   14.133    0.000   10.667 
#
# Total GULP energy -743707.648596 kJ/mol
# GULP energy per Si atom -12395.127477 kJ/mol
# Density = 1.762096 g / cm^3
# Si number density = 17.661154 Si / 1000 Ang^3
#
#
#
# Elastic Constant Matrix: (Units=GPa)
#
#
# Indices 1 2 3 4 5 6 
#
# 1 53.5847 46.6625 35.4697 0.0000 0.0000 0.0000
# 2 46.6625 114.8825 37.4548 0.0000 0.0000 0.0000
# 3 35.4697 37.4548 84.7039 0.0000 0.0000 0.0000
# 4 0.0000 0.0000 0.0000 13.8399 0.0000 0.0000
# 5 0.0000 0.0000 0.0000 0.0000 21.0945 0.0000
# 6 0.0000 0.0000 0.0000 0.0000 0.0000 27.9248
#
#
#
# Elastic Compliance Matrix: (Units=1/GPa)
#
#
# Indices 1 2 3 4 5 6 
#
# 1 0.034517 -0.010875 -0.009645 0.000000 0.000000 0.000000
# 2 -0.010875 0.013597 -0.001458 0.000000 0.000000 0.000000
# 3 -0.009645 -0.001458 0.016490 0.000000 0.000000 0.000000
# 4 0.000000 0.000000 0.000000 0.072255 0.000000 0.000000
# 5 0.000000 0.000000 0.000000 0.000000 0.047406 0.000000
# 6 0.000000 0.000000 0.000000 0.000000 0.000000 0.035810
#
#
# Mechanical properties :
#
#
# Convention : Reuss Voigt Hill
#
# Bulk Modulus (GPa) = 48.43530 54.70502 51.57016
# Shear Modulus (GPa) = 18.45597 21.47743 19.96670
#
# Velocity S-wave (km/s) = 3.23616 3.49102 3.36600
# Velocity P-wave (km/s) = 6.43801 6.87689 6.66107
#
# Compressibility (1/GPa) = 0.02064610
#
# Stress axis : x y z
#
# Youngs Moduli (GPa) = 28.97128 73.54346 60.64434
#
# Poissons Ratio (x) = 0.79982 0.58491
# Poissons Ratio (y) = 0.31508 0.08845
# Poissons Ratio (z) = 0.27943 0.10726
#
# Static dielectric constant tensor:
#      x y z
#    x 3.009920 0.000000 0.000000 
#    y 0.000000 3.365580 0.000000 
#    z 0.000000 0.000000 3.270250 
# 
# 
# High freq. dielectric constant tensor:
#      x y z
#    x 1.649110 0.000000 0.000000 
#    y 0.000000 1.689050 0.000000 
#    z 0.000000 0.000000 1.677880 
# 
# From -- ./inp_files/73964.got.cif
#   From: 2010.03.12/outbox.cif.g09.slc.cpg/sg65_37_cif.got.tgz:73964.got - 2010.04.10 20:52:16.
