data_PCOD8271647
_publ_section_title
;
Structure prediction by ZEFSAII (Michael W. Deem and Ramdas Pophale) SiO2 
 PCOD8271647
Probable space group: C M M M
;
_chemical_formula_sum "Si O2"
_cell_formula_units_Z 88
_cell_length_a 27.224187
_cell_length_b 9.009545
_cell_length_c 21.381199
_cell_angle_alpha 90.000000
_cell_angle_beta 90.000000
_cell_angle_gamma 90.000000
_cell_volume 5244.327847
_symmetry_space_group_name_H-M "C M M M"
_symmetry_group_IT_number 65
_symmetry_cell_setting 'orthorhombic'
loop_
_space_group_symop_operation_xyz
x,y,z
-x,-y,z
x,-y,-z
-x,y,-z
-x,-y,-z
x,y,-z
-x,y,z
x,-y,z
1/2+x,1/2+y,z
1/2-x,1/2-y,z
1/2+x,1/2-y,-z
1/2-x,1/2+y,-z
1/2-x,1/2-y,-z
1/2+x,1/2+y,-z
1/2-x,1/2+y,z
1/2+x,1/2-y,z
loop_
_atom_site_type_symbol
_atom_site_label
_atom_site_fract_x
_atom_site_fract_y
_atom_site_fract_z
Si Si1 0.603036 0.326338 0.750418
Si Si2 0.055988 0.174701 0.623975
Si Si3 0.442819 0.326116 0.876139
Si Si4 0.145612 0.328871 0.428818
Si Si5 0.699838 0.325060 0.318855
Si Si6 0.558414 0.167344 0.000000
O O1 0.595092 0.500000 0.756916
O O2 0.567973 0.269993 0.694377
O O3 0.586548 0.257100 0.816701
O O4 0.659364 0.286826 0.734035
O O5 0.090731 0.262495 0.576301
O O6 0.000000 0.212251 0.607288
O O7 0.067196 0.000000 0.617613
O O8 0.500000 0.290655 0.865731
O O9 0.433759 0.500000 0.884712
O O10 0.421522 0.247748 0.937976
O O11 0.163524 0.312034 0.500000
O O12 0.144998 0.500000 0.407829
O O13 0.183474 0.239235 0.385718
O O14 0.707083 0.500000 0.326587
O O15 0.750000 0.250000 0.296349
O O16 0.500000 0.175888 0.000000
O O17 0.577955 0.000000 0.000000
#
# Coordination Sequence:
#
# PCOD8271647 Si02
#       6
#    16  16  16  16  16   8
#     4   8  15  28  47  70  92 116 150 190 227 267
#     4   9  17  30  48  69  94 124 156 190 229 273
#     4   9  15  25  44  67  91 122 158 188 214 252
#     4  10  21  35  49  67  92 121 154 191 230 274
#     4  10  20  35  54  73  93 116 145 186 236 285
#     4   9  17  27  37  57  94 131 158 185 218 255
#
# _framework density 16.780033
#
# number of rings (size 3 to 8) (size 9 to 14) (size 15 to 20)
#    0.000    2.818    0.000    3.000    0.000    5.818 
#    0.000    6.364    0.000    4.364    0.000    0.636 
#    0.000    0.000    0.000    0.000    0.000    0.000 
#
# Total GULP energy -545500.943797 kJ/mol
# GULP energy per Si atom -12397.748723 kJ/mol
# Density = 1.674184 g / cm^3
# Si number density = 16.780033 Si / 1000 Ang^3
#
#
#
# Elastic Constant Matrix: (Units=GPa)
#
#
# Indices 1 2 3 4 5 6 
#
# 1 73.6046 37.0137 29.8023 0.0000 0.0000 0.0000
# 2 37.0137 70.3269 40.0129 0.0000 0.0000 0.0000
# 3 29.8023 40.0129 106.9689 0.0000 0.0000 0.0000
# 4 0.0000 0.0000 0.0000 14.8418 0.0000 0.0000
# 5 0.0000 0.0000 0.0000 0.0000 18.2036 0.0000
# 6 0.0000 0.0000 0.0000 0.0000 0.0000 24.8918
#
#
#
# Elastic Compliance Matrix: (Units=1/GPa)
#
#
# Indices 1 2 3 4 5 6 
#
# 1 0.018791 -0.008780 -0.001951 0.000000 0.000000 0.000000
# 2 -0.008780 0.022166 -0.005845 0.000000 0.000000 0.000000
# 3 -0.001951 -0.005845 0.012079 0.000000 0.000000 0.000000
# 4 0.000000 0.000000 0.000000 0.067377 0.000000 0.000000
# 5 0.000000 0.000000 0.000000 0.000000 0.054934 0.000000
# 6 0.000000 0.000000 0.000000 0.000000 0.000000 0.040174
#
#
# Mechanical properties :
#
#
# Convention : Reuss Voigt Hill
#
# Bulk Modulus (GPa) = 50.29381 51.61758 50.95570
# Shear Modulus (GPa) = 19.58467 21.19221 20.38844
#
# Velocity S-wave (km/s) = 3.42005 3.55764 3.48953
# Velocity P-wave (km/s) = 6.75523 6.90680 6.83144
#
# Compressibility (1/GPa) = 0.01988316
#
# Stress axis : x y z
#
# Youngs Moduli (GPa) = 53.21608 45.11419 82.79094
#
# Poissons Ratio (x) = 0.39610 0.16154
# Poissons Ratio (y) = 0.46723 0.48394
# Poissons Ratio (z) = 0.10383 0.26371
#
# Static dielectric constant tensor:
#      x y z
#    x 3.039510 0.000000 0.000000 
#    y 0.000000 3.056780 0.000000 
#    z 0.000000 0.000000 3.269990 
# 
# 
# High freq. dielectric constant tensor:
#      x y z
#    x 1.623650 0.000000 0.000000 
#    y 0.000000 1.636410 0.000000 
#    z 0.000000 0.000000 1.642780 
# 
# From -- ./inp_files/60688.got.cif
#   From: 2010.03.12/outbox.cif.g09.slc.cpg/sg65_31_cif.got.tgz:60688.got - 2010.04.10 20:52:16.
