data_PCOD8271963
_publ_section_title
;
Structure prediction by ZEFSAII (Michael W. Deem and Ramdas Pophale) SiO2 
 PCOD8271963
Probable space group: C M M M
;
_chemical_formula_sum "Si O2"
_cell_formula_units_Z 72
_cell_length_a 28.758265
_cell_length_b 8.735245
_cell_length_c 14.420013
_cell_angle_alpha 90.000000
_cell_angle_beta 90.000000
_cell_angle_gamma 90.000000
_cell_volume 3622.458539
_symmetry_space_group_name_H-M "C M M M"
_symmetry_group_IT_number 65
_symmetry_cell_setting 'orthorhombic'
loop_
_space_group_symop_operation_xyz
x,y,z
-x,-y,z
x,-y,-z
-x,y,-z
-x,-y,-z
x,y,-z
-x,y,z
x,-y,z
1/2+x,1/2+y,z
1/2-x,1/2-y,z
1/2+x,1/2-y,-z
1/2-x,1/2+y,-z
1/2-x,1/2-y,-z
1/2+x,1/2+y,-z
1/2-x,1/2+y,z
1/2+x,1/2-y,z
loop_
_atom_site_type_symbol
_atom_site_label
_atom_site_fract_x
_atom_site_fract_y
_atom_site_fract_z
Si Si1 0.946743 0.819580 0.500000
Si Si2 0.884845 0.180036 0.843935
Si Si3 0.293570 0.167456 0.894656
Si Si4 0.055053 0.323959 0.000000
Si Si5 0.301208 0.179481 0.500000
Si Si6 0.379187 0.180747 0.358155
O O1 0.923319 0.752922 0.408428
O O2 0.000000 0.768027 0.500000
O O3 0.941040 0.000000 0.500000
O O4 0.837034 0.219152 0.894599
O O5 0.881560 0.261486 0.745710
O O6 0.891347 0.000000 0.831558
O O7 0.926782 0.243410 0.906571
O O8 0.250000 0.250000 0.843368
O O9 0.303634 0.000000 0.847748
O O10 0.279427 0.136689 0.000000
O O11 0.071974 0.500000 0.000000
O O12 0.000000 0.310581 0.000000
O O13 0.250000 0.250000 0.500000
O O14 0.330900 0.230531 0.408930
O O15 0.293940 0.000000 0.500000
O O16 0.384395 0.000000 0.362157
#
# Coordination Sequence:
#
# PCOD8271963 Si02
#       6
#     8  16  16   8   8  16
#     4  10  21  39  63  91 120 148 188 246 308 365
#     4  12  24  39  62  90 123 160 202 253 308 361
#     4  10  20  35  57  83 116 155 198 243 290 345
#     4  11  25  45  66  87 116 159 207 255 311 373
#     4   9  20  38  62  90 121 160 200 244 293 350
#     4  10  22  40  61  88 122 160 204 246 295 363
#
# _framework density 19.876002
#
# number of rings (size 3 to 8) (size 9 to 14) (size 15 to 20)
#    0.000    1.556    1.111    4.667    0.000    7.111 
#    0.000    2.222    0.000    0.000    0.000    0.000 
#    0.000    0.000    0.000    0.000    0.000    0.000 
#
# Total GULP energy -446334.533205 kJ/mol
# GULP energy per Si atom -12398.181478 kJ/mol
# Density = 1.983076 g / cm^3
# Si number density = 19.876002 Si / 1000 Ang^3
#
#
#
# Elastic Constant Matrix: (Units=GPa)
#
#
# Indices 1 2 3 4 5 6 
#
# 1 142.1383 57.1885 48.2350 0.0000 0.0000 0.0000
# 2 57.1885 62.7239 12.1523 0.0000 0.0000 0.0000
# 3 48.2350 12.1523 106.4358 0.0000 0.0000 0.0000
# 4 0.0000 0.0000 0.0000 32.8727 0.0000 0.0000
# 5 0.0000 0.0000 0.0000 0.0000 -7.6439 0.0000
# 6 0.0000 0.0000 0.0000 0.0000 0.0000 34.5224
#
#
#
# Elastic Compliance Matrix: (Units=1/GPa)
#
#
# Indices 1 2 3 4 5 6 
#
# 1 0.013032 -0.010981 -0.004652 0.000000 0.000000 0.000000
# 2 -0.010981 0.025556 0.002058 0.000000 0.000000 0.000000
# 3 -0.004652 0.002058 0.011269 0.000000 0.000000 0.000000
# 4 0.000000 0.000000 0.000000 0.030420 0.000000 0.000000
# 5 0.000000 0.000000 0.000000 0.000000 -0.130823 0.000000
# 6 0.000000 0.000000 0.000000 0.000000 0.000000 0.028967
#
#
# Mechanical properties :
#
#
# Convention : Reuss Voigt Hill
#
# Bulk Modulus (GPa) = 44.03828 60.71662 52.37745
# Shear Modulus (GPa) = 380.56142 24.86506 202.71324
#
# Velocity S-wave (km/s) = 13.85220 3.54080 10.10991
# Velocity P-wave (km/s) = 16.67481 6.87971 12.75499
#
# Compressibility (1/GPa) = 0.02270752
#
# Stress axis : x y z
#
# Youngs Moduli (GPa) = 76.73307 39.13013 88.74189
#
# Poissons Ratio (x) = 0.42968 0.41285
# Poissons Ratio (y) = 0.84259 -0.18267
# Poissons Ratio (z) = 0.35698 -0.08055
#
# Static dielectric constant tensor:
#      x y z
#    x 3.681640 0.000000 0.000000 
#    y 0.000000 3.921160 0.000000 
#    z 0.000000 0.000000 3.502170 
# 
# 
# High freq. dielectric constant tensor:
#      x y z
#    x 1.778700 0.000000 0.000000 
#    y 0.000000 1.792270 0.000000 
#    z 0.000000 0.000000 1.768190 
# 
# From -- ./inp_files/36689.got.cif
#   From: 2010.03.12/outbox.cif.g09.slc.cpg/sg65_19_cif.got.tgz:36689.got - 2010.04.10 20:52:16.
