data_PCOD8271891
_publ_section_title
;
Structure prediction by ZEFSAII (Michael W. Deem and Ramdas Pophale) SiO2 
 PCOD8271891
Probable space group: C M M M
;
_chemical_formula_sum "Si O2"
_cell_formula_units_Z 88
_cell_length_a 18.854963
_cell_length_b 19.812636
_cell_length_c 13.030296
_cell_angle_alpha 90.000000
_cell_angle_beta 90.000000
_cell_angle_gamma 90.000000
_cell_volume 4867.682315
_symmetry_space_group_name_H-M "C M M M"
_symmetry_group_IT_number 65
_symmetry_cell_setting 'orthorhombic'
loop_
_space_group_symop_operation_xyz
x,y,z
-x,-y,z
x,-y,-z
-x,y,-z
-x,-y,-z
x,y,-z
-x,y,z
x,-y,z
1/2+x,1/2+y,z
1/2-x,1/2-y,z
1/2+x,1/2-y,-z
1/2-x,1/2+y,-z
1/2-x,1/2-y,-z
1/2+x,1/2+y,-z
1/2-x,1/2+y,z
1/2+x,1/2-y,z
loop_
_atom_site_type_symbol
_atom_site_label
_atom_site_fract_x
_atom_site_fract_y
_atom_site_fract_z
Si Si1 0.685564 0.300368 0.880746
Si Si2 0.079635 0.108567 0.383476
Si Si3 0.921998 0.500000 0.621799
Si Si4 0.835336 0.627849 0.621838
Si Si5 0.207678 0.923793 0.746187
Si Si6 0.418831 0.251253 0.715727
O O1 0.750000 0.250000 0.855565
O O2 0.705393 0.376887 0.847206
O O3 0.614998 0.275039 0.823154
O O4 0.667294 0.301362 0.000000
O O5 0.102134 0.092899 0.500000
O O6 0.130867 0.069338 0.306152
O O7 0.083505 0.188707 0.366075
O O8 0.000000 0.082474 0.362166
O O9 0.925425 0.500000 0.500000
O O10 0.882460 0.565930 0.661233
O O11 0.000000 0.500000 0.670454
O O12 0.831242 0.633901 0.500000
O O13 0.756959 0.614832 0.664203
O O14 0.870404 0.693618 0.668329
O O15 0.233356 0.000000 0.774274
O O16 0.500000 0.227140 0.734467
#
# Coordination Sequence:
#
# PCOD8271891 Si02
#       6
#    16  16   8  16  16  16
#     4  10  21  40  62  81 103 136 182 235 288 337
#     4   9  19  34  52  77 110 148 187 227 272 323
#     4   9  18  30  44  68 106 152 192 221 254 306
#     4  11  20  31  50  79 115 154 190 222 263 322
#     4  11  22  36  55  82 113 147 187 230 277 330
#     4  10  20  35  56  83 110 141 183 231 283 333
#
# _framework density 18.078417999999999
#
# number of rings (size 3 to 8) (size 9 to 14) (size 15 to 20)
#    0.000    1.909    2.727    1.636    0.000    4.000 
#    0.000    3.636    0.000    0.000    0.000    5.091 
#    0.000    5.818    0.000    0.000    0.000    0.000 
#
# Total GULP energy -545565.185618 kJ/mol
# GULP energy per Si atom -12399.208764 kJ/mol
# Density = 1.803727 g / cm^3
# Si number density = 18.078418 Si / 1000 Ang^3
#
#
#
# Elastic Constant Matrix: (Units=GPa)
#
#
# Indices 1 2 3 4 5 6 
#
# 1 85.2094 19.8616 26.4521 0.0000 0.0000 0.0000
# 2 19.8616 93.2901 24.6017 0.0000 0.0000 0.0000
# 3 26.4521 24.6017 75.1046 0.0000 0.0000 0.0000
# 4 0.0000 0.0000 0.0000 17.4714 0.0000 0.0000
# 5 0.0000 0.0000 0.0000 0.0000 21.2061 0.0000
# 6 0.0000 0.0000 0.0000 0.0000 0.0000 -112.0020
#
#
#
# Elastic Compliance Matrix: (Units=1/GPa)
#
#
# Indices 1 2 3 4 5 6 
#
# 1 0.013437 -0.001765 -0.004154 0.000000 0.000000 0.000000
# 2 -0.001765 0.011965 -0.003298 0.000000 0.000000 0.000000
# 3 -0.004154 -0.003298 0.015858 0.000000 0.000000 0.000000
# 4 0.000000 0.000000 0.000000 0.057236 0.000000 0.000000
# 5 0.000000 0.000000 0.000000 0.000000 0.047156 0.000000
# 6 0.000000 0.000000 0.000000 0.000000 0.000000 -0.008928
#
#
# Mechanical properties :
#
#
# Convention : Reuss Voigt Hill
#
# Bulk Modulus (GPa) = 43.81044 43.93722 43.87383
# Shear Modulus (GPa) = 30.71887 -2.48565 14.11661
#
# Velocity S-wave (km/s) = 4.12661 -1.17385 2.79741
# Velocity P-wave (km/s) = 6.85502 4.74544 5.89536
#
# Compressibility (1/GPa) = 0.02282561
#
# Stress axis : x y z
#
# Youngs Moduli (GPa) = 74.42198 83.57949 63.05937
#
# Poissons Ratio (x) = 0.14753 0.26197
# Poissons Ratio (y) = 0.13137 0.20794
# Poissons Ratio (z) = 0.30917 0.27560
#
# Static dielectric constant tensor:
#      x y z
#    x 3.535520 0.000000 0.000000 
#    y 0.000000 3.428630 0.000000 
#    z 0.000000 0.000000 3.043540 
# 
# 
# High freq. dielectric constant tensor:
#      x y z
#    x 1.712320 0.000000 0.000000 
#    y 0.000000 1.710170 0.000000 
#    z 0.000000 0.000000 1.670620 
# 
# From -- ./inp_files/26792.got.cif
#   From: 2010.03.12/outbox.cif.g09.slc.cpg/sg65_14_cif.got.tgz:26792.got - 2010.04.10 20:52:16.
