data_PCOD8271856
_publ_section_title
;
Structure prediction by ZEFSAII (Michael W. Deem and Ramdas Pophale) SiO2 
 PCOD8271856
Probable space group: C M M M
;
_chemical_formula_sum "Si O2"
_cell_formula_units_Z 88
_cell_length_a 28.252468
_cell_length_b 13.524284
_cell_length_c 12.461626
_cell_angle_alpha 90.000000
_cell_angle_beta 90.000000
_cell_angle_gamma 90.000000
_cell_volume 4761.517521
_symmetry_space_group_name_H-M "C M M M"
_symmetry_group_IT_number 65
_symmetry_cell_setting 'orthorhombic'
loop_
_space_group_symop_operation_xyz
x,y,z
-x,-y,z
x,-y,-z
-x,y,-z
-x,-y,-z
x,y,-z
-x,y,z
x,-y,z
1/2+x,1/2+y,z
1/2-x,1/2-y,z
1/2+x,1/2-y,-z
1/2-x,1/2+y,-z
1/2-x,1/2-y,-z
1/2+x,1/2+y,-z
1/2-x,1/2+y,z
1/2+x,1/2-y,z
loop_
_atom_site_type_symbol
_atom_site_label
_atom_site_fract_x
_atom_site_fract_y
_atom_site_fract_z
Si Si1 0.188619 0.821462 0.377492
Si Si2 0.209249 0.613712 0.315035
Si Si3 0.947689 0.117855 0.500000
Si Si4 0.053682 0.740144 0.874462
Si Si5 0.404354 0.384995 0.284352
Si Si6 0.857268 0.386370 0.119454
O O1 0.182501 0.862805 0.500000
O O2 0.187132 0.701377 0.387840
O O3 0.234997 0.866892 0.321348
O O4 0.150949 0.860139 0.290714
O O5 0.197817 0.500000 0.353135
O O6 0.187928 0.632109 0.195995
O O7 0.923486 0.161956 0.605187
O O8 0.000000 0.158983 0.500000
O O9 0.944843 0.000000 0.500000
O O10 0.067435 0.841252 0.815692
O O11 0.093714 0.661855 0.838180
O O12 0.000000 0.706010 0.843206
O O13 0.056346 0.761215 0.000000
O O14 0.413915 0.500000 0.276574
O O15 0.870251 0.500000 0.114876
O O16 0.843951 0.346960 0.000000
#
# Coordination Sequence:
#
# PCOD8271856 Si02
#       6
#    16  16   8  16  16  16
#     4  11  22  36  55  82 111 143 184 223 266 320
#     4  10  20  35  56  81 110 143 179 221 269 321
#     4   9  18  32  52  75  99 139 187 225 267 319
#     4  10  21  37  57  81 109 142 182 227 276 329
#     4  11  21  35  54  78 110 145 183 227 273 322
#     4   9  18  35  58  82 109 140 177 223 271 321
#
# _framework density 18.481503
#
# number of rings (size 3 to 8) (size 9 to 14) (size 15 to 20)
#    0.000    1.909    2.727    2.182    0.000    4.000 
#    0.000    5.455    0.000    2.182    0.000    0.000 
#    0.000    5.818    0.000    0.000    0.000    0.000 
#
# Total GULP energy -545080.535381 kJ/mol
# GULP energy per Si atom -12388.193986 kJ/mol
# Density = 1.843944 g / cm^3
# Si number density = 18.481503 Si / 1000 Ang^3
#
#
#
# Elastic Constant Matrix: (Units=GPa)
#
#
# Indices 1 2 3 4 5 6 
#
# 1 98.6835 17.6577 44.8856 0.0000 0.0000 0.0000
# 2 17.6577 67.1649 25.9588 0.0000 0.0000 0.0000
# 3 44.8856 25.9588 63.9054 0.0000 0.0000 0.0000
# 4 0.0000 0.0000 0.0000 29.2246 0.0000 0.0000
# 5 0.0000 0.0000 0.0000 0.0000 33.3092 0.0000
# 6 0.0000 0.0000 0.0000 0.0000 0.0000 20.5056
#
#
#
# Elastic Compliance Matrix: (Units=1/GPa)
#
#
# Indices 1 2 3 4 5 6 
#
# 1 0.014892 0.000151 -0.010521 0.000000 0.000000 0.000000
# 2 0.000151 0.017663 -0.007281 0.000000 0.000000 0.000000
# 3 -0.010521 -0.007281 0.025995 0.000000 0.000000 0.000000
# 4 0.000000 0.000000 0.000000 0.034218 0.000000 0.000000
# 5 0.000000 0.000000 0.000000 0.000000 0.030022 0.000000
# 6 0.000000 0.000000 0.000000 0.000000 0.000000 0.048767
#
#
# Mechanical properties :
#
#
# Convention : Reuss Voigt Hill
#
# Bulk Modulus (GPa) = 43.01345 45.19533 44.10439
# Shear Modulus (GPa) = 23.29827 26.02467 24.66147
#
# Velocity S-wave (km/s) = 3.55438 3.75660 3.65689
# Velocity P-wave (km/s) = 6.33791 6.58206 6.46114
#
# Compressibility (1/GPa) = 0.02324854
#
# Stress axis : x y z
#
# Youngs Moduli (GPa) = 67.15114 56.61542 38.46826
#
# Poissons Ratio (x) = -0.00856 0.40473
# Poissons Ratio (y) = -0.01016 0.28009
# Poissons Ratio (z) = 0.70650 0.41222
#
# Static dielectric constant tensor:
#      x y z
#    x 3.585170 0.000000 0.000000 
#    y 0.000000 3.390870 0.000000 
#    z 0.000000 0.000000 3.509720 
# 
# 
# High freq. dielectric constant tensor:
#      x y z
#    x 1.724810 0.000000 0.000000 
#    y 0.000000 1.706170 0.000000 
#    z 0.000000 0.000000 1.709750 
# 
# From -- ./inp_files/32227.got.cif
#   From: 2010.03.12/outbox.cif.g09.slc.cpg/sg65_17_cif.got.tgz:32227.got - 2010.04.10 20:52:16.
