data_PCOD8271587
_publ_section_title
;
Structure prediction by ZEFSAII (Michael W. Deem and Ramdas Pophale) SiO2 
 PCOD8271587
Probable space group: C M M M
;
_chemical_formula_sum "Si O2"
_cell_formula_units_Z 88
_cell_length_a 19.923846
_cell_length_b 23.937548
_cell_length_c 8.832777
_cell_angle_alpha 90.000000
_cell_angle_beta 90.000000
_cell_angle_gamma 90.000000
_cell_volume 4212.598845
_symmetry_space_group_name_H-M "C M M M"
_symmetry_group_IT_number 65
_symmetry_cell_setting 'orthorhombic'
loop_
_space_group_symop_operation_xyz
x,y,z
-x,-y,z
x,-y,-z
-x,y,-z
-x,-y,-z
x,y,-z
-x,y,z
x,-y,z
1/2+x,1/2+y,z
1/2-x,1/2-y,z
1/2+x,1/2-y,-z
1/2-x,1/2+y,-z
1/2-x,1/2-y,-z
1/2+x,1/2+y,-z
1/2-x,1/2+y,z
1/2+x,1/2-y,z
loop_
_atom_site_type_symbol
_atom_site_label
_atom_site_fract_x
_atom_site_fract_y
_atom_site_fract_z
Si Si1 0.500000 0.563806 0.180351
Si Si2 0.247110 0.562765 0.829399
Si Si3 0.873194 0.134396 0.178307
Si Si4 0.074223 0.670898 0.825738
Si Si5 0.390436 0.937025 0.675593
Si Si6 0.673042 0.745982 0.678534
O O1 0.500000 0.500000 0.244141
O O2 0.435454 0.598008 0.240391
O O3 0.500000 0.561059 0.000000
O O4 0.275544 0.500000 0.826385
O O5 0.305950 0.602733 0.775222
O O6 0.187984 0.570827 0.710533
O O7 0.222619 0.577740 0.000000
O O8 0.869226 0.194921 0.253224
O O9 0.880383 0.142826 0.000000
O O10 0.067949 0.606213 0.776372
O O11 0.131939 0.699081 0.725349
O O12 0.000000 0.697725 0.801545
O O13 0.095736 0.675404 0.000000
O O14 0.403297 0.924666 0.500000
O O15 0.413360 0.000000 0.717489
O O16 0.673978 0.740140 0.500000
O O17 0.750000 0.750000 0.740065
#
# Coordination Sequence:
#
# PCOD8271587 Si02
#       6
#     8  16  16  16  16  16
#     4   9  18  34  57  87 123 161 202 249 302 363
#     4   9  17  31  54  84 117 155 200 249 298 346
#     4  10  20  34  57  86 118 156 202 253 301 356
#     4  11  25  43  64  89 118 153 197 248 299 353
#     4  10  21  37  59  88 121 156 193 236 292 357
#     4  11  25  43  63  88 120 159 203 251 306 369
#
# _framework density 20.889718999999999
#
# number of rings (size 3 to 8) (size 9 to 14) (size 15 to 20)
#    0.000    1.909    0.000    3.273    1.273   10.182 
#    0.000    1.818    0.000    2.182    0.000    0.000 
#    0.000    0.000    0.000    0.000    0.000    0.000 
#
# Total GULP energy -545616.838371 kJ/mol
# GULP energy per Si atom -12400.382690 kJ/mol
# Density = 2.084217 g / cm^3
# Si number density = 20.889719 Si / 1000 Ang^3
#
#
#
# Elastic Constant Matrix: (Units=GPa)
#
#
# Indices 1 2 3 4 5 6 
#
# 1 102.1974 45.1141 25.3894 0.0000 0.0000 0.0000
# 2 45.1141 110.3942 19.6213 0.0000 0.0000 0.0000
# 3 25.3894 19.6213 38.7789 0.0000 0.0000 0.0000
# 4 0.0000 0.0000 0.0000 31.5936 0.0000 0.0000
# 5 0.0000 0.0000 0.0000 0.0000 14.1886 0.0000
# 6 0.0000 0.0000 0.0000 0.0000 0.0000 38.2326
#
#
#
# Elastic Compliance Matrix: (Units=1/GPa)
#
#
# Indices 1 2 3 4 5 6 
#
# 1 0.013296 -0.004270 -0.006544 0.000000 0.000000 0.000000
# 2 -0.004270 0.011325 -0.002934 0.000000 0.000000 0.000000
# 3 -0.006544 -0.002934 0.031557 0.000000 0.000000 0.000000
# 4 0.000000 0.000000 0.000000 0.031652 0.000000 0.000000
# 5 0.000000 0.000000 0.000000 0.000000 0.070479 0.000000
# 6 0.000000 0.000000 0.000000 0.000000 0.000000 0.026156
#
#
# Mechanical properties :
#
#
# Convention : Reuss Voigt Hill
#
# Bulk Modulus (GPa) = 34.86815 47.95780 41.41298
# Shear Modulus (GPa) = 22.57101 27.55265 25.06183
#
# Velocity S-wave (km/s) = 3.29064 3.63569 3.46746
# Velocity P-wave (km/s) = 5.58261 6.37430 5.99155
#
# Compressibility (1/GPa) = 0.02867946
#
# Stress axis : x y z
#
# Youngs Moduli (GPa) = 75.21078 88.29910 31.68894
#
# Poissons Ratio (x) = 0.37707 0.20739
# Poissons Ratio (y) = 0.32118 0.09299
# Poissons Ratio (z) = 0.49221 0.25910
#
# Static dielectric constant tensor:
#      x y z
#    x 3.806730 0.000000 0.000000 
#    y 0.000000 3.906230 0.000000 
#    z 0.000000 0.000000 3.492760 
# 
# 
# High freq. dielectric constant tensor:
#      x y z
#    x 1.823010 0.000000 0.000000 
#    y 0.000000 1.828710 0.000000 
#    z 0.000000 0.000000 1.797070 
# 
# From -- ./inp_files/11814.got.cif
#   From: 2010.03.12/outbox.cif.g09.slc.cpg/sg65_6_cif.got.tgz:11814.got - 2010.04.10 20:52:16.
