data_PCOD8271954
_publ_section_title
;
Structure prediction by ZEFSAII (Michael W. Deem and Ramdas Pophale) SiO2 
 PCOD8271954
Probable space group: C M M M
;
_chemical_formula_sum "Si O2"
_cell_formula_units_Z 64
_cell_length_a 8.912639
_cell_length_b 34.710123
_cell_length_c 10.640043
_cell_angle_alpha 90.000000
_cell_angle_beta 90.000000
_cell_angle_gamma 90.000000
_cell_volume 3291.590891
_symmetry_space_group_name_H-M "C M M M"
_symmetry_group_IT_number 65
_symmetry_cell_setting 'orthorhombic'
loop_
_space_group_symop_operation_xyz
x,y,z
-x,-y,z
x,-y,-z
-x,y,-z
-x,-y,-z
x,y,-z
-x,y,z
x,-y,z
1/2+x,1/2+y,z
1/2-x,1/2-y,z
1/2+x,1/2-y,-z
1/2-x,1/2+y,-z
1/2-x,1/2-y,-z
1/2+x,1/2+y,-z
1/2-x,1/2+y,z
1/2+x,1/2-y,z
loop_
_atom_site_type_symbol
_atom_site_label
_atom_site_fract_x
_atom_site_fract_y
_atom_site_fract_z
Si Si1 0.824275 0.656295 0.854883
Si Si2 0.323213 0.708796 0.357547
Si Si3 0.824573 0.575772 0.266444
Si Si4 0.822154 0.500000 0.866096
Si Si5 0.824096 0.044675 0.500000
O O1 0.737328 0.681533 0.752547
O O2 0.788139 0.612209 0.820768
O O3 0.000000 0.665190 0.841919
O O4 0.772681 0.664152 0.000000
O O5 0.284433 0.693725 0.500000
O O6 0.500000 0.712829 0.340963
O O7 0.250000 0.750000 0.336317
O O8 0.763998 0.538136 0.198130
O O9 0.728606 0.573401 0.391251
O O10 0.000000 0.574088 0.299868
O O11 0.000000 0.500000 0.874654
O O12 0.744910 0.500000 0.000000
O O13 0.000000 0.040419 0.500000
O O14 0.756417 0.000000 0.500000
#
# Coordination Sequence:
#
# PCOD8271954 Si02
#       5
#    16  16  16   8   8
#     4  10  22  39  60  90 124 156 194 242 296 353
#     4  10  22  41  65  92 121 156 197 240 289 347
#     4  10  20  35  57  83 112 148 194 242 288 343
#     4   9  16  29  53  80 106 141 188 241 288 331
#     4  11  23  37  53  77 112 151 194 245 299 351
#
# _framework density 19.443484000000002
#
# number of rings (size 3 to 8) (size 9 to 14) (size 15 to 20)
#    0.000    2.000    1.250    1.875    1.750    7.000 
#    0.000    0.000    0.000    3.000    0.000    0.000 
#    0.000    0.000    0.000    0.000    0.000    0.000 
#
# Total GULP energy -396460.208197 kJ/mol
# GULP energy per Si atom -12389.381506 kJ/mol
# Density = 1.939923 g / cm^3
# Si number density = 19.443484 Si / 1000 Ang^3
#
#
#
# Elastic Constant Matrix: (Units=GPa)
#
#
# Indices 1 2 3 4 5 6 
#
# 1 66.9123 50.1792 61.7978 0.0000 0.0000 0.0000
# 2 50.1792 118.9215 78.1051 0.0000 0.0000 0.0000
# 3 61.7978 78.1051 181.6033 0.0000 0.0000 0.0000
# 4 0.0000 0.0000 0.0000 12.7339 0.0000 0.0000
# 5 0.0000 0.0000 0.0000 0.0000 10.7077 0.0000
# 6 0.0000 0.0000 0.0000 0.0000 0.0000 29.7833
#
#
#
# Elastic Compliance Matrix: (Units=1/GPa)
#
#
# Indices 1 2 3 4 5 6 
#
# 1 0.025409 -0.007028 -0.005624 0.000000 0.000000 0.000000
# 2 -0.007028 0.013663 -0.003485 0.000000 0.000000 0.000000
# 3 -0.005624 -0.003485 0.008919 0.000000 0.000000 0.000000
# 4 0.000000 0.000000 0.000000 0.078531 0.000000 0.000000
# 5 0.000000 0.000000 0.000000 0.000000 0.093390 0.000000
# 6 0.000000 0.000000 0.000000 0.000000 0.000000 0.033576
#
#
# Mechanical properties :
#
#
# Convention : Reuss Voigt Hill
#
# Bulk Modulus (GPa) = 63.62018 83.06682 73.34350
# Shear Modulus (GPa) = 17.18206 22.46864 19.82535
#
# Velocity S-wave (km/s) = 2.97592 3.40308 3.19664
# Velocity P-wave (km/s) = 6.67830 7.63258 7.17133
#
# Compressibility (1/GPa) = 0.01571828
#
# Stress axis : x y z
#
# Youngs Moduli (GPa) = 39.35546 73.19001 112.11945
#
# Poissons Ratio (x) = 0.51437 0.63056
# Poissons Ratio (y) = 0.27658 0.39071
# Poissons Ratio (z) = 0.22133 0.25505
#
# Static dielectric constant tensor:
#      x y z
#    x 3.323850 0.000000 0.000000 
#    y 0.000000 3.671300 0.000000 
#    z 0.000000 0.000000 6.087320 
# 
# 
# High freq. dielectric constant tensor:
#      x y z
#    x 1.736110 0.000000 0.000000 
#    y 0.000000 1.758400 0.000000 
#    z 0.000000 0.000000 1.775970 
# 
# From -- ./inp_files/21027.got.cif
#   From: 2010.03.12/outbox.cif.g09.slc.cpg/sg65_11_cif.got.tgz:21027.got - 2010.04.10 20:52:16.
