data_PCOD8271713
_publ_section_title
;
Structure prediction by ZEFSAII (Michael W. Deem and Ramdas Pophale) SiO2 
 PCOD8271713
Probable space group: C M M M
;
_chemical_formula_sum "Si O2"
_cell_formula_units_Z 80
_cell_length_a 17.961774
_cell_length_b 8.999960
_cell_length_c 25.647664
_cell_angle_alpha 90.000000
_cell_angle_beta 90.000000
_cell_angle_gamma 90.000000
_cell_volume 4146.079472
_symmetry_space_group_name_H-M "C M M M"
_symmetry_group_IT_number 65
_symmetry_cell_setting 'orthorhombic'
loop_
_space_group_symop_operation_xyz
x,y,z
-x,-y,z
x,-y,-z
-x,y,-z
-x,-y,-z
x,y,-z
-x,y,z
x,-y,z
1/2+x,1/2+y,z
1/2-x,1/2-y,z
1/2+x,1/2-y,-z
1/2-x,1/2+y,-z
1/2-x,1/2-y,-z
1/2+x,1/2+y,-z
1/2-x,1/2+y,z
1/2+x,1/2-y,z
loop_
_atom_site_type_symbol
_atom_site_label
_atom_site_fract_x
_atom_site_fract_y
_atom_site_fract_z
Si Si1 0.911458 0.832841 0.557260
Si Si2 0.671059 0.824243 0.148878
Si Si3 0.588800 0.833543 0.342489
Si Si4 0.088366 0.167900 0.240280
Si Si5 0.085610 0.829409 0.060283
O O1 0.885688 0.774440 0.500000
O O2 0.878628 0.729727 0.603054
O O3 0.000000 0.832078 0.559958
O O4 0.882211 0.000000 0.566003
O O5 0.750000 0.750000 0.158711
O O6 0.615348 0.770489 0.193453
O O7 0.638872 0.777331 0.092884
O O8 0.679378 0.000000 0.150736
O O9 0.500000 0.831779 0.343584
O O10 0.618449 0.733586 0.294835
O O11 0.619188 0.000000 0.335195
O O12 0.000000 0.169603 0.239261
O O13 0.118679 0.000000 0.234151
O O14 0.000000 0.786627 0.070827
O O15 0.099426 0.000000 0.076900
O O16 0.105696 0.806301 0.000000
#
# Coordination Sequence:
#
# PCOD8271713 Si02
#       5
#    16  16  16  16  16
#     4   8  13  21  33  51  80 120 162 202 249 306
#     4  12  25  39  56  79 109 142 177 218 263 311
#     4   9  16  25  39  62  91 123 163 209 255 305
#     4  10  20  35  55  76 101 135 174 216 263 315
#     4   9  19  38  63  88 114 144 177 213 255 305
#
# _framework density 19.295337
#
# number of rings (size 3 to 8) (size 9 to 14) (size 15 to 20)
#    0.000    2.400    0.000    4.800    0.000    7.600 
#    0.000    3.000    0.000    0.000    0.000    0.000 
#    0.000    0.800    0.000    3.000    0.000    7.000 
#
# Total GULP energy -495965.930184 kJ/mol
# GULP energy per Si atom -12399.148255 kJ/mol
# Density = 1.925142 g / cm^3
# Si number density = 19.295337 Si / 1000 Ang^3
#
#
#
# Elastic Constant Matrix: (Units=GPa)
#
#
# Indices 1 2 3 4 5 6 
#
# 1 20.1631 24.5327 18.4667 0.0000 0.0000 0.0000
# 2 24.5327 147.3600 63.2997 0.0000 0.0000 0.0000
# 3 18.4667 63.2997 125.1026 0.0000 0.0000 0.0000
# 4 0.0000 0.0000 0.0000 28.8505 0.0000 0.0000
# 5 0.0000 0.0000 0.0000 0.0000 0.3880 0.0000
# 6 0.0000 0.0000 0.0000 0.0000 0.0000 19.8532
#
#
#
# Elastic Compliance Matrix: (Units=1/GPa)
#
#
# Indices 1 2 3 4 5 6 
#
# 1 0.064780 -0.008531 -0.005246 0.000000 0.000000 0.000000
# 2 -0.008531 0.009794 -0.003696 0.000000 0.000000 0.000000
# 3 -0.005246 -0.003696 0.010638 0.000000 0.000000 0.000000
# 4 0.000000 0.000000 0.000000 0.034661 0.000000 0.000000
# 5 0.000000 0.000000 0.000000 0.000000 2.577510 0.000000
# 6 0.000000 0.000000 0.000000 0.000000 0.000000 0.050370
#
#
# Mechanical properties :
#
#
# Convention : Reuss Voigt Hill
#
# Bulk Modulus (GPa) = 19.89427 56.13598 38.01513
# Shear Modulus (GPa) = 1.78606 22.24010 12.01308
#
# Velocity S-wave (km/s) = 0.96315 3.39870 2.49788
# Velocity P-wave (km/s) = 3.40142 6.67516 5.29752
#
# Compressibility (1/GPa) = 0.05026572
#
# Stress axis : x y z
#
# Youngs Moduli (GPa) = 15.43682 102.10105 94.00208
#
# Poissons Ratio (x) = 0.87106 0.49310
# Poissons Ratio (y) = 0.13170 0.34747
# Poissons Ratio (z) = 0.08098 0.37740
#
# Static dielectric constant tensor:
#      x y z
#    x 3.007820 0.000000 0.000000 
#    y 0.000000 3.675690 0.000000 
#    z 0.000000 0.000000 3.800430 
# 
# 
# High freq. dielectric constant tensor:
#      x y z
#    x 1.694010 0.000000 0.000000 
#    y 0.000000 1.755550 0.000000 
#    z 0.000000 0.000000 1.770550 
# 
# From -- ./inp_files/72844.got.cif
#   From: 2010.03.12/outbox.cif.g09.slc.cpg/sg65_37_cif.got.tgz:72844.got - 2010.04.10 20:52:16.
