data_PCOD8271603
_publ_section_title
;
Structure prediction by ZEFSAII (Michael W. Deem and Ramdas Pophale) SiO2 
 PCOD8271603
Probable space group: C M M M
;
_chemical_formula_sum "Si O2"
_cell_formula_units_Z 72
_cell_length_a 28.666877
_cell_length_b 8.995220
_cell_length_c 15.503694
_cell_angle_alpha 90.000000
_cell_angle_beta 90.000000
_cell_angle_gamma 90.000000
_cell_volume 3997.857965
_symmetry_space_group_name_H-M "C M M M"
_symmetry_group_IT_number 65
_symmetry_cell_setting 'orthorhombic'
loop_
_space_group_symop_operation_xyz
x,y,z
-x,-y,z
x,-y,-z
-x,y,-z
-x,-y,-z
x,y,-z
-x,y,z
x,-y,z
1/2+x,1/2+y,z
1/2-x,1/2-y,z
1/2+x,1/2-y,-z
1/2-x,1/2+y,-z
1/2-x,1/2-y,-z
1/2+x,1/2+y,-z
1/2-x,1/2+y,z
1/2+x,1/2-y,z
loop_
_atom_site_type_symbol
_atom_site_label
_atom_site_fract_x
_atom_site_fract_y
_atom_site_fract_z
Si Si1 0.300319 0.174235 0.687123
Si Si2 0.945329 0.329164 0.598701
Si Si3 0.447893 0.323534 0.095219
Si Si4 0.202367 0.668232 0.500000
Si Si5 0.888246 0.823795 0.254346
O O1 0.250000 0.250000 0.697626
O O2 0.323151 0.202930 0.590813
O O3 0.337063 0.250414 0.750733
O O4 0.295337 0.000000 0.707636
O O5 0.931122 0.293429 0.500000
O O6 0.932725 0.500000 0.619917
O O7 0.917077 0.221894 0.661385
O O8 0.000000 0.300140 0.612133
O O9 0.500000 0.261278 0.111717
O O10 0.449148 0.500000 0.100030
O O11 0.414043 0.261493 0.169139
O O12 0.430439 0.272675 0.000000
O O13 0.218045 0.500000 0.500000
O O14 0.250000 0.750000 0.500000
O O15 0.882747 0.000000 0.253880
#
# Coordination Sequence:
#
# PCOD8271603 Si02
#       5
#    16  16  16   8  16
#     4  10  20  35  52  72 100 136 175 216 259 305
#     4   9  19  35  51  68  98 141 180 210 247 300
#     4   8  15  30  52  77 105 135 167 207 256 308
#     4   8  16  30  48  66  87 122 165 206 246 289
#     4  11  21  31  50  80 106 132 169 214 260 309
#
# _framework density 18.009644000000002
#
# number of rings (size 3 to 8) (size 9 to 14) (size 15 to 20)
#    0.000    2.667    0.000    3.333    1.556    2.667 
#    0.000    1.111    0.000    3.333    0.000    7.778 
#    0.000    0.000    0.000    0.000    0.000    0.000 
#
# Total GULP energy -446109.681449 kJ/mol
# GULP energy per Si atom -12391.935596 kJ/mol
# Density = 1.796865 g / cm^3
# Si number density = 18.009644 Si / 1000 Ang^3
#
#
#
# Elastic Constant Matrix: (Units=GPa)
#
#
# Indices 1 2 3 4 5 6 
#
# 1 102.2054 44.4942 76.4186 0.0000 0.0000 0.0000
# 2 44.4942 68.3361 40.6364 0.0000 0.0000 0.0000
# 3 76.4186 40.6364 117.4737 0.0000 0.0000 0.0000
# 4 0.0000 0.0000 0.0000 12.2542 0.0000 0.0000
# 5 0.0000 0.0000 0.0000 0.0000 24.7577 0.0000
# 6 0.0000 0.0000 0.0000 0.0000 0.0000 31.5740
#
#
#
# Elastic Compliance Matrix: (Units=1/GPa)
#
#
# Indices 1 2 3 4 5 6 
#
# 1 0.021512 -0.007157 -0.011518 0.000000 0.000000 0.000000
# 2 -0.007157 0.020805 -0.002541 0.000000 0.000000 0.000000
# 3 -0.011518 -0.002541 0.016884 0.000000 0.000000 0.000000
# 4 0.000000 0.000000 0.000000 0.081604 0.000000 0.000000
# 5 0.000000 0.000000 0.000000 0.000000 0.040392 0.000000
# 6 0.000000 0.000000 0.000000 0.000000 0.000000 0.031672
#
#
# Mechanical properties :
#
#
# Convention : Reuss Voigt Hill
#
# Bulk Modulus (GPa) = 59.63580 67.90151 63.76865
# Shear Modulus (GPa) = 19.16511 22.14825 20.65668
#
# Velocity S-wave (km/s) = 3.26568 3.51065 3.39038
# Velocity P-wave (km/s) = 6.88511 7.36326 7.12820
#
# Compressibility (1/GPa) = 0.01676845
#
# Stress axis : x y z
#
# Youngs Moduli (GPa) = 46.48519 48.06620 59.22704
#
# Poissons Ratio (x) = 0.34403 0.68219
# Poissons Ratio (y) = 0.33272 0.15048
# Poissons Ratio (z) = 0.53542 0.12212
#
# Static dielectric constant tensor:
#      x y z
#    x 3.267730 0.000000 0.000000 
#    y 0.000000 3.123610 0.000000 
#    z 0.000000 0.000000 3.550390 
# 
# 
# High freq. dielectric constant tensor:
#      x y z
#    x 1.695240 0.000000 0.000000 
#    y 0.000000 1.681520 0.000000 
#    z 0.000000 0.000000 1.685560 
# 
# From -- ./inp_files/36959.got.cif
#   From: 2010.03.12/outbox.cif.g09.slc.cpg/sg65_19_cif.got.tgz:36959.got - 2010.04.10 20:52:16.
