data_PCOD8271698
_publ_section_title
;
Structure prediction by ZEFSAII (Michael W. Deem and Ramdas Pophale) SiO2 
 PCOD8271698
Probable space group: C M M M
;
_chemical_formula_sum "Si O2"
_cell_formula_units_Z 88
_cell_length_a 10.188446
_cell_length_b 18.601129
_cell_length_c 25.085262
_cell_angle_alpha 90.000000
_cell_angle_beta 90.000000
_cell_angle_gamma 90.000000
_cell_volume 4754.073523
_symmetry_space_group_name_H-M "C M M M"
_symmetry_group_IT_number 65
_symmetry_cell_setting 'orthorhombic'
loop_
_space_group_symop_operation_xyz
x,y,z
-x,-y,z
x,-y,-z
-x,y,-z
-x,-y,-z
x,y,-z
-x,y,z
x,-y,z
1/2+x,1/2+y,z
1/2-x,1/2-y,z
1/2+x,1/2-y,-z
1/2-x,1/2+y,-z
1/2-x,1/2-y,-z
1/2+x,1/2+y,-z
1/2-x,1/2+y,z
1/2+x,1/2-y,z
loop_
_atom_site_type_symbol
_atom_site_label
_atom_site_fract_x
_atom_site_fract_y
_atom_site_fract_z
Si Si1 0.500000 0.837931 0.227071
Si Si2 0.500000 0.084297 0.340520
Si Si3 0.254338 0.165075 0.842192
Si Si4 0.500000 0.420509 0.322701
Si Si5 0.736811 0.582221 0.401629
Si Si6 0.500000 0.668300 0.219285
Si Si7 0.848994 0.583295 0.939706
Si Si8 0.657606 0.319823 0.500000
O O1 0.500000 0.871227 0.285844
O O2 0.373049 0.863487 0.194364
O O3 0.500000 0.752601 0.229744
O O4 0.375018 0.105728 0.376145
O O5 0.500000 0.000000 0.325913
O O6 0.250000 0.250000 0.850152
O O7 0.123663 0.139319 0.813186
O O8 0.259879 0.129890 0.900399
O O9 0.500000 0.500000 0.297566
O O10 0.370773 0.408556 0.356682
O O11 0.500000 0.362307 0.277643
O O12 0.742818 0.500000 0.422607
O O13 0.696866 0.634048 0.449053
O O14 0.831750 0.500000 0.925607
O O15 0.000000 0.606576 0.933020
O O16 0.802062 0.598605 0.000000
O O17 0.500000 0.302139 0.500000
O O18 0.750000 0.250000 0.500000
#
# Coordination Sequence:
#
# PCOD8271698 Si02
#       8
#     8   8  16   8  16   8  16   8
#     4  10  20  36  56  78 116 157 191 227 278 335
#     4  10  22  37  59  93 120 146 192 246 288 331
#     4  10  20  35  54  80 113 151 189 229 278 343
#     4  10  20  37  59  83 110 150 196 230 272 339
#     4  10  22  41  65  88 117 155 194 236 286 341
#     4  10  22  34  52  82 116 151 187 229 286 337
#     4   9  18  34  57  82 106 139 188 240 286 336
#     4  12  27  43  64  92 120 153 196 241 287 347
#
# _framework density 18.510441
#
# number of rings (size 3 to 8) (size 9 to 14) (size 15 to 20)
#    0.000    2.000    1.818    1.909    1.273    3.636 
#    0.000    1.818    0.000    1.091    0.000    0.000 
#    0.000    0.000    0.000    0.000    0.000    0.000 
#
# Total GULP energy -545620.859090 kJ/mol
# GULP energy per Si atom -12400.474070 kJ/mol
# Density = 1.846831 g / cm^3
# Si number density = 18.510441 Si / 1000 Ang^3
#
#
#
# Elastic Constant Matrix: (Units=GPa)
#
#
# Indices 1 2 3 4 5 6 
#
# 1 153.6937 42.2984 60.1002 0.0000 0.0000 0.0000
# 2 42.2984 57.1922 53.9447 0.0000 0.0000 0.0000
# 3 60.1002 53.9447 114.6917 0.0000 0.0000 0.0000
# 4 0.0000 0.0000 0.0000 42.6647 0.0000 0.0000
# 5 0.0000 0.0000 0.0000 0.0000 -59.2719 0.0000
# 6 0.0000 0.0000 0.0000 0.0000 0.0000 5.7417
#
#
#
# Elastic Compliance Matrix: (Units=1/GPa)
#
#
# Indices 1 2 3 4 5 6 
#
# 1 0.008620 -0.003801 -0.002729 0.000000 0.000000 0.000000
# 2 -0.003801 0.033103 -0.013578 0.000000 0.000000 0.000000
# 3 -0.002729 -0.013578 0.016536 0.000000 0.000000 0.000000
# 4 0.000000 0.000000 0.000000 0.023439 0.000000 0.000000
# 5 0.000000 0.000000 0.000000 0.000000 -0.016871 0.000000
# 6 0.000000 0.000000 0.000000 0.000000 0.000000 0.174164
#
#
# Mechanical properties :
#
#
# Convention : Reuss Voigt Hill
#
# Bulk Modulus (GPa) = 55.42607 70.91826 63.17217
# Shear Modulus (GPa) = 17.53032 9.10918 13.31975
#
# Velocity S-wave (km/s) = 3.08076 2.22076 2.68541
# Velocity P-wave (km/s) = 6.53168 6.70608 6.61945
#
# Compressibility (1/GPa) = 0.01804205
#
# Stress axis : x y z
#
# Youngs Moduli (GPa) = 116.01363 30.20867 60.47560
#
# Poissons Ratio (x) = 0.11482 0.16505
# Poissons Ratio (y) = 0.44094 0.82115
# Poissons Ratio (z) = 0.31662 0.41018
#
# Static dielectric constant tensor:
#      x y z
#    x 3.613280 0.000000 0.000000 
#    y 0.000000 3.328940 0.000000 
#    z 0.000000 0.000000 3.364640 
# 
# 
# High freq. dielectric constant tensor:
#      x y z
#    x 1.727480 0.000000 0.000000 
#    y 0.000000 1.711000 0.000000 
#    z 0.000000 0.000000 1.726130 
# 
# From -- ./inp_files/67731.got.cif
#   From: 2010.03.12/outbox.cif.g09.slc.cpg/sg65_34_cif.got.tgz:67731.got - 2010.04.10 20:52:16.
