data_PCOD8271161
_publ_section_title
;
Structure prediction by ZEFSAII (Michael W. Deem and Ramdas Pophale) SiO2 
 PCOD8271161
Probable space group: C M M M
;
_chemical_formula_sum "Si O2"
_cell_formula_units_Z 96
_cell_length_a 32.719564
_cell_length_b 18.093621
_cell_length_c 9.219626
_cell_angle_alpha 90.000000
_cell_angle_beta 90.000000
_cell_angle_gamma 90.000000
_cell_volume 5458.160485
_symmetry_space_group_name_H-M "C M M M"
_symmetry_group_IT_number 65
_symmetry_cell_setting 'orthorhombic'
loop_
_space_group_symop_operation_xyz
x,y,z
-x,-y,z
x,-y,-z
-x,y,-z
-x,-y,-z
x,y,-z
-x,y,z
x,-y,z
1/2+x,1/2+y,z
1/2-x,1/2-y,z
1/2+x,1/2-y,-z
1/2-x,1/2+y,-z
1/2-x,1/2-y,-z
1/2+x,1/2+y,-z
1/2-x,1/2+y,z
1/2+x,1/2-y,z
loop_
_atom_site_type_symbol
_atom_site_label
_atom_site_fract_x
_atom_site_fract_y
_atom_site_fract_z
Si Si1 0.752702 0.914363 0.666889
Si Si2 0.328376 0.913378 0.167522
Si Si3 0.618800 0.199716 0.329670
Si Si4 0.590567 0.581584 0.167583
Si Si5 0.453289 0.272100 0.169535
Si Si6 0.162220 0.850186 0.668187
O O1 0.740763 0.898981 0.500000
O O2 0.714992 0.889523 0.765705
O O3 0.791186 0.864817 0.715913
O O4 0.763898 0.000000 0.690664
O O5 0.364723 0.873438 0.252716
O O6 0.335752 0.000000 0.188141
O O7 0.329048 0.889869 0.000000
O O8 0.614059 0.185503 0.500000
O O9 0.574406 0.217357 0.263792
O O10 0.650343 0.265989 0.295138
O O11 0.573065 0.500000 0.205010
O O12 0.556976 0.642830 0.210870
O O13 0.632853 0.593259 0.250471
O O14 0.601595 0.588388 0.000000
O O15 0.500000 0.256783 0.211423
O O16 0.445191 0.257325 0.000000
O O17 0.156801 0.867745 0.500000
#
# Coordination Sequence:
#
# PCOD8271161 Si02
#       6
#    16  16  16  16  16  16
#     4   9  17  30  48  69  96 132 171 206 238 275
#     4  10  21  36  53  73  97 125 158 197 243 295
#     4  10  20  34  53  75  99 127 160 200 244 291
#     4   9  17  28  44  69 100 134 172 210 243 276
#     4   9  18  33  52  73  99 131 164 199 242 291
#     4   9  18  31  47  69  98 134 172 206 241 281
#
# _framework density 17.588342999999998
#
# number of rings (size 3 to 8) (size 9 to 14) (size 15 to 20)
#    0.000    2.667    0.000    1.500    0.000    4.667 
#    0.000    6.667    0.000    0.500    0.000    8.167 
#    0.000    0.000    0.000    0.000    0.000    0.000 
#
# Total GULP energy -595260.538696 kJ/mol
# GULP energy per Si atom -12401.261223 kJ/mol
# Density = 1.754831 g / cm^3
# Si number density = 17.588343 Si / 1000 Ang^3
#
#
#
# Elastic Constant Matrix: (Units=GPa)
#
#
# Indices 1 2 3 4 5 6 
#
# 1 133.4320 58.6872 67.7380 0.0000 0.0000 0.0000
# 2 58.6872 57.2823 41.4418 0.0000 0.0000 0.0000
# 3 67.7380 41.4418 83.3672 0.0000 0.0000 0.0000
# 4 0.0000 0.0000 0.0000 24.0808 0.0000 0.0000
# 5 0.0000 0.0000 0.0000 0.0000 30.7352 0.0000
# 6 0.0000 0.0000 0.0000 0.0000 0.0000 19.9365
#
#
#
# Elastic Compliance Matrix: (Units=1/GPa)
#
#
# Indices 1 2 3 4 5 6 
#
# 1 0.016304 -0.011118 -0.007720 0.000000 0.000000 0.000000
# 2 -0.011118 0.034844 -0.008287 0.000000 0.000000 0.000000
# 3 -0.007720 -0.008287 0.022388 0.000000 0.000000 0.000000
# 4 0.000000 0.000000 0.000000 0.041527 0.000000 0.000000
# 5 0.000000 0.000000 0.000000 0.000000 0.032536 0.000000
# 6 0.000000 0.000000 0.000000 0.000000 0.000000 0.050159
#
#
# Mechanical properties :
#
#
# Convention : Reuss Voigt Hill
#
# Bulk Modulus (GPa) = 51.85661 67.75727 59.80694
# Shear Modulus (GPa) = 19.34710 22.03147 20.68928
#
# Velocity S-wave (km/s) = 3.32022 3.54307 3.43345
# Velocity P-wave (km/s) = 6.65176 7.43945 7.05661
#
# Compressibility (1/GPa) = 0.01928395
#
# Stress axis : x y z
#
# Youngs Moduli (GPa) = 61.33459 28.69962 44.66764
#
# Poissons Ratio (x) = 0.31909 0.34486
# Poissons Ratio (y) = 0.68194 0.37015
# Poissons Ratio (z) = 0.47353 0.23783
#
# Static dielectric constant tensor:
#      x y z
#    x 3.173560 0.000000 0.000000 
#    y 0.000000 3.216940 0.000000 
#    z 0.000000 0.000000 3.290100 
# 
# 
# High freq. dielectric constant tensor:
#      x y z
#    x 1.669450 0.000000 0.000000 
#    y 0.000000 1.669050 0.000000 
#    z 0.000000 0.000000 1.682100 
# 
# From -- ./inp_files/16304.got.cif
#   From: 2010.03.12/outbox.cif.g09.slc.cpg/sg65_9_cif.got.tgz:16304.got - 2010.04.10 20:52:16.
