data_PCOD8271947
_publ_section_title
;
Structure prediction by ZEFSAII (Michael W. Deem and Ramdas Pophale) SiO2 
 PCOD8271947
Probable space group: C M M M
;
_chemical_formula_sum "Si O2"
_cell_formula_units_Z 64
_cell_length_a 20.814127
_cell_length_b 18.026192
_cell_length_c 8.978132
_cell_angle_alpha 90.000000
_cell_angle_beta 90.000000
_cell_angle_gamma 90.000000
_cell_volume 3368.590185
_symmetry_space_group_name_H-M "C M M M"
_symmetry_group_IT_number 65
_symmetry_cell_setting 'orthorhombic'
loop_
_space_group_symop_operation_xyz
x,y,z
-x,-y,z
x,-y,-z
-x,y,-z
-x,-y,-z
x,y,-z
-x,y,z
x,-y,z
1/2+x,1/2+y,z
1/2-x,1/2-y,z
1/2+x,1/2-y,-z
1/2-x,1/2+y,-z
1/2-x,1/2-y,-z
1/2+x,1/2+y,-z
1/2-x,1/2+y,z
1/2+x,1/2-y,z
loop_
_atom_site_type_symbol
_atom_site_label
_atom_site_fract_x
_atom_site_fract_y
_atom_site_fract_z
Si Si1 0.861109 0.911409 0.670345
Si Si2 0.245132 0.663295 0.171789
Si Si3 0.500000 0.088196 0.832003
Si Si4 0.872100 0.414427 0.325251
Si Si5 0.000000 0.919315 0.675618
O O1 0.844624 0.889133 0.500000
O O2 0.811426 0.874714 0.782066
O O3 0.932309 0.879723 0.717665
O O4 0.859247 0.000000 0.686750
O O5 0.250000 0.750000 0.201548
O O6 0.188061 0.632195 0.271204
O O7 0.231231 0.644943 0.000000
O O8 0.436397 0.118043 0.750338
O O9 0.500000 0.000000 0.825471
O O10 0.500000 0.118301 0.000000
O O11 0.880261 0.404820 0.500000
O O12 0.860694 0.500000 0.281154
O O13 0.000000 0.931123 0.500000
O O14 0.000000 0.000000 0.753155
#
# Coordination Sequence:
#
# PCOD8271947 Si02
#       5
#    16  16   8  16   8
#     4   9  17  32  56  82 104 130 167 210 257 311
#     4  11  24  38  50  70 104 144 181 217 262 313
#     4   9  17  31  54  83 112 139 167 207 262 317
#     4  10  20  35  57  83 107 134 174 221 264 311
#     4   7  12  26  50  79 106 127 153 197 252 307
#
# _framework density 18.999044999999999
#
# number of rings (size 3 to 8) (size 9 to 14) (size 15 to 20)
#    0.000    2.500    0.000    4.125    0.000    8.500 
#    0.000    1.875    0.000    8.250    0.000    0.000 
#    0.000    0.000    0.000    0.000    0.000    0.000 
#
# Total GULP energy -396658.239437 kJ/mol
# GULP energy per Si atom -12395.569982 kJ/mol
# Density = 1.895580 g / cm^3
# Si number density = 18.999045 Si / 1000 Ang^3
#
#
#
# Elastic Constant Matrix: (Units=GPa)
#
#
# Indices 1 2 3 4 5 6 
#
# 1 161.6564 36.2068 47.0735 0.0000 0.0000 0.0000
# 2 36.2068 44.4374 31.5887 0.0000 0.0000 0.0000
# 3 47.0735 31.5887 76.2332 0.0000 0.0000 0.0000
# 4 0.0000 0.0000 0.0000 23.5502 0.0000 0.0000
# 5 0.0000 0.0000 0.0000 0.0000 23.0031 0.0000
# 6 0.0000 0.0000 0.0000 0.0000 0.0000 -13.3101
#
#
#
# Elastic Compliance Matrix: (Units=1/GPa)
#
#
# Indices 1 2 3 4 5 6 
#
# 1 0.008085 -0.004307 -0.003207 0.000000 0.000000 0.000000
# 2 -0.004307 0.034195 -0.011510 0.000000 0.000000 0.000000
# 3 -0.003207 -0.011510 0.019867 0.000000 0.000000 0.000000
# 4 0.000000 0.000000 0.000000 0.042463 0.000000 0.000000
# 5 0.000000 0.000000 0.000000 0.000000 0.043472 0.000000
# 6 0.000000 0.000000 0.000000 0.000000 0.000000 -0.075131
#
#
# Mechanical properties :
#
#
# Convention : Reuss Voigt Hill
#
# Bulk Modulus (GPa) = 41.49664 56.89612 49.19638
# Shear Modulus (GPa) = 42.00558 17.81250 29.90904
#
# Velocity S-wave (km/s) = 4.70716 3.06526 3.97197
# Velocity P-wave (km/s) = 7.17161 6.52224 6.85462
#
# Compressibility (1/GPa) = 0.02409834
#
# Stress axis : x y z
#
# Youngs Moduli (GPa) = 123.69122 29.24438 50.33366
#
# Poissons Ratio (x) = 0.12596 0.16144
# Poissons Ratio (y) = 0.53276 0.57932
# Poissons Ratio (z) = 0.39673 0.33659
#
# Static dielectric constant tensor:
#      x y z
#    x 3.925110 0.000000 0.000000 
#    y 0.000000 3.131270 0.000000 
#    z 0.000000 0.000000 3.413210 
# 
# 
# High freq. dielectric constant tensor:
#      x y z
#    x 1.764220 0.000000 0.000000 
#    y 0.000000 1.697840 0.000000 
#    z 0.000000 0.000000 1.731950 
# 
# From -- ./inp_files/10850.got.cif
#   From: 2010.03.12/outbox.cif.g09.slc.cpg/sg65_6_cif.got.tgz:10850.got - 2010.04.10 20:52:16.
