data_PCOD8271189
_publ_section_title
;
Structure prediction by ZEFSAII (Michael W. Deem and Ramdas Pophale) SiO2 
 PCOD8271189
Probable space group: C M M M
;
_chemical_formula_sum "Si O2"
_cell_formula_units_Z 104
_cell_length_a 27.338348
_cell_length_b 23.643086
_cell_length_c 8.142462
_cell_angle_alpha 90.000000
_cell_angle_beta 90.000000
_cell_angle_gamma 90.000000
_cell_volume 5262.985456
_symmetry_space_group_name_H-M "C M M M"
_symmetry_group_IT_number 65
_symmetry_cell_setting 'orthorhombic'
loop_
_space_group_symop_operation_xyz
x,y,z
-x,-y,z
x,-y,-z
-x,y,-z
-x,-y,-z
x,y,-z
-x,y,z
x,-y,z
1/2+x,1/2+y,z
1/2-x,1/2-y,z
1/2+x,1/2-y,-z
1/2-x,1/2+y,-z
1/2-x,1/2-y,-z
1/2+x,1/2+y,-z
1/2-x,1/2+y,z
1/2+x,1/2-y,z
loop_
_atom_site_type_symbol
_atom_site_label
_atom_site_fract_x
_atom_site_fract_y
_atom_site_fract_z
Si Si1 0.889228 0.065619 0.818210
Si Si2 0.554988 0.840536 0.193471
Si Si3 0.124977 0.563557 0.307980
Si Si4 0.316672 0.645509 0.311951
Si Si5 0.795267 0.348004 0.691479
Si Si6 0.446159 0.432653 0.500000
Si Si7 0.363612 0.243894 0.187963
O O1 0.837447 0.096675 0.805302
O O2 0.922137 0.089870 0.669039
O O3 0.879465 0.000000 0.792462
O O4 0.912568 0.076835 0.000000
O O5 0.500000 0.838083 0.269057
O O6 0.580363 0.900143 0.234977
O O7 0.587616 0.787500 0.259519
O O8 0.552207 0.835229 0.000000
O O9 0.115984 0.560295 0.500000
O O10 0.124923 0.500000 0.232449
O O11 0.177620 0.592501 0.270169
O O12 0.318922 0.625368 0.500000
O O13 0.260988 0.652011 0.254977
O O14 0.349541 0.701677 0.294262
O O15 0.800947 0.331935 0.500000
O O16 0.819182 0.299932 0.802358
O O17 0.446732 0.500000 0.500000
O O18 0.500000 0.407055 0.500000
O O19 0.371238 0.262786 0.000000
#
# Coordination Sequence:
#
# PCOD8271189 Si02
#       7
#    16  16  16  16  16   8  16
#     4  10  21  37  57  84 116 147 183 228 277 332
#     4   9  19  36  55  74 101 140 181 223 277 333
#     4   9  18  33  52  77 108 139 178 225 270 325
#     4  11  21  34  55  79 109 147 185 227 277 336
#     4   9  19  34  52  75 104 143 185 225 275 332
#     4   9  18  36  60  82 107 140 178 220 267 322
#     4  10  20  34  53  76 104 137 181 236 283 332
#
# _framework density 19.760646999999999
#
# number of rings (size 3 to 8) (size 9 to 14) (size 15 to 20)
#    0.000    2.385    0.769    1.385    0.000    5.538 
#    0.000    5.385    0.000    1.846    0.000    0.000 
#    0.000    0.000    0.000    0.000    0.000    0.000 
#
# Total GULP energy -644548.505332 kJ/mol
# GULP energy per Si atom -12395.163564 kJ/mol
# Density = 1.971567 g / cm^3
# Si number density = 19.760647 Si / 1000 Ang^3
#
#
#
# Elastic Constant Matrix: (Units=GPa)
#
#
# Indices 1 2 3 4 5 6 
#
# 1 141.2145 63.2428 35.3955 0.0000 0.0000 0.0000
# 2 63.2428 75.6711 22.7845 0.0000 0.0000 0.0000
# 3 35.3955 22.7845 69.5530 0.0000 0.0000 0.0000
# 4 0.0000 0.0000 0.0000 26.6011 0.0000 0.0000
# 5 0.0000 0.0000 0.0000 0.0000 21.6967 0.0000
# 6 0.0000 0.0000 0.0000 0.0000 0.0000 19.0527
#
#
#
# Elastic Compliance Matrix: (Units=1/GPa)
#
#
# Indices 1 2 3 4 5 6 
#
# 1 0.011892 -0.009005 -0.003102 0.000000 0.000000 0.000000
# 2 -0.009005 0.021480 -0.002454 0.000000 0.000000 0.000000
# 3 -0.003102 -0.002454 0.016760 0.000000 0.000000 0.000000
# 4 0.000000 0.000000 0.000000 0.037592 0.000000 0.000000
# 5 0.000000 0.000000 0.000000 0.000000 0.046090 0.000000
# 6 0.000000 0.000000 0.000000 0.000000 0.000000 0.052486
#
#
# Mechanical properties :
#
#
# Convention : Reuss Voigt Hill
#
# Bulk Modulus (GPa) = 47.59559 58.80936 53.20247
# Shear Modulus (GPa) = 22.47961 24.47115 23.47538
#
# Velocity S-wave (km/s) = 3.37648 3.52288 3.45046
# Velocity P-wave (km/s) = 6.27210 6.80977 6.54646
#
# Compressibility (1/GPa) = 0.02101035
#
# Stress axis : x y z
#
# Youngs Moduli (GPa) = 84.09316 46.55582 59.66599
#
# Poissons Ratio (x) = 0.41921 0.18508
# Poissons Ratio (y) = 0.75722 0.14642
# Poissons Ratio (z) = 0.26085 0.11425
#
# Static dielectric constant tensor:
#      x y z
#    x 3.814270 0.000000 0.000000 
#    y 0.000000 3.626690 0.000000 
#    z 0.000000 0.000000 3.572030 
# 
# 
# High freq. dielectric constant tensor:
#      x y z
#    x 1.764780 0.000000 0.000000 
#    y 0.000000 1.760590 0.000000 
#    z 0.000000 0.000000 1.767710 
# 
# From -- ./inp_files/16789.got.cif
#   From: 2010.03.12/outbox.cif.g09.slc.cpg/sg65_9_cif.got.tgz:16789.got - 2010.04.10 20:52:16.
