data_PCOD8271239
_publ_section_title
;
Structure prediction by ZEFSAII (Michael W. Deem and Ramdas Pophale) SiO2 
 PCOD8271239
Probable space group: C M M M
;
_chemical_formula_sum "Si O2"
_cell_formula_units_Z 96
_cell_length_a 18.425248
_cell_length_b 18.763186
_cell_length_c 15.425100
_cell_angle_alpha 90.000000
_cell_angle_beta 90.000000
_cell_angle_gamma 90.000000
_cell_volume 5332.709352
_symmetry_space_group_name_H-M "C M M M"
_symmetry_group_IT_number 65
_symmetry_cell_setting 'orthorhombic'
loop_
_space_group_symop_operation_xyz
x,y,z
-x,-y,z
x,-y,-z
-x,y,-z
-x,-y,-z
x,y,-z
-x,y,z
x,-y,z
1/2+x,1/2+y,z
1/2-x,1/2-y,z
1/2+x,1/2-y,-z
1/2-x,1/2+y,-z
1/2-x,1/2-y,-z
1/2+x,1/2+y,-z
1/2-x,1/2+y,z
1/2+x,1/2-y,z
loop_
_atom_site_type_symbol
_atom_site_label
_atom_site_fract_x
_atom_site_fract_y
_atom_site_fract_z
Si Si1 0.314587 0.422493 0.351639
Si Si2 0.584381 0.812464 0.693178
Si Si3 0.703741 0.321100 0.500000
Si Si4 0.188646 0.578115 0.214542
Si Si5 0.583705 0.779153 0.500000
Si Si6 0.084609 0.844579 0.764089
Si Si7 0.313696 0.416466 0.100184
O O1 0.326773 0.500000 0.394952
O O2 0.278064 0.367885 0.417378
O O3 0.257987 0.427346 0.275329
O O4 0.391704 0.395737 0.314865
O O5 0.500000 0.830843 0.704309
O O6 0.628893 0.867692 0.751155
O O7 0.605453 0.819714 0.590003
O O8 0.602648 0.735261 0.731861
O O9 0.750000 0.250000 0.500000
O O10 0.619711 0.298664 0.500000
O O11 0.151301 0.500000 0.206796
O O12 0.228763 0.600715 0.124744
O O13 0.500000 0.761625 0.500000
O O14 0.129897 0.864904 0.849780
O O15 0.000000 0.854847 0.783874
O O16 0.330810 0.500000 0.119956
O O17 0.323862 0.398482 0.000000
#
# Coordination Sequence:
#
# PCOD8271239 Si02
#       7
#    16  16   8  16   8  16  16
#     4  10  21  33  48  74 106 137 174 222 267 313
#     4  10  20  35  55  78 105 141 185 226 264 315
#     4  12  21  31  52  74  98 139 183 221 264 313
#     4   9  19  36  55  77 106 136 173 224 276 323
#     4  10  20  35  51  73 105 142 185 224 258 304
#     4  10  20  34  53  77 108 143 178 215 260 318
#     4   9  19  36  58  82 107 138 174 213 263 324
#
# _framework density 18.002106000000001
#
# number of rings (size 3 to 8) (size 9 to 14) (size 15 to 20)
#    0.000    2.167    1.667    2.750    0.000    4.000 
#    0.000    3.750    0.000    4.500    0.000    2.333 
#    0.000    0.000    0.000    0.000    0.000    0.000 
#
# Total GULP energy -594762.261221 kJ/mol
# GULP energy per Si atom -12390.880442 kJ/mol
# Density = 1.796113 g / cm^3
# Si number density = 18.002106 Si / 1000 Ang^3
#
#
#
# Elastic Constant Matrix: (Units=GPa)
#
#
# Indices 1 2 3 4 5 6 
#
# 1 81.9940 61.1782 43.7314 0.0000 0.0000 0.0000
# 2 61.1782 121.9826 53.5044 0.0000 0.0000 0.0000
# 3 43.7314 53.5044 113.8045 0.0000 0.0000 0.0000
# 4 0.0000 0.0000 0.0000 36.0190 0.0000 0.0000
# 5 0.0000 0.0000 0.0000 0.0000 23.5914 0.0000
# 6 0.0000 0.0000 0.0000 0.0000 0.0000 30.3548
#
#
#
# Elastic Compliance Matrix: (Units=1/GPa)
#
#
# Indices 1 2 3 4 5 6 
#
# 1 0.020768 -0.008712 -0.003885 0.000000 0.000000 0.000000
# 2 -0.008712 0.013982 -0.003226 0.000000 0.000000 0.000000
# 3 -0.003885 -0.003226 0.011796 0.000000 0.000000 0.000000
# 4 0.000000 0.000000 0.000000 0.027763 0.000000 0.000000
# 5 0.000000 0.000000 0.000000 0.000000 0.042388 0.000000
# 6 0.000000 0.000000 0.000000 0.000000 0.000000 0.032944
#
#
# Mechanical properties :
#
#
# Convention : Reuss Voigt Hill
#
# Bulk Modulus (GPa) = 67.10666 70.51211 68.80939
# Shear Modulus (GPa) = 26.84502 28.61751 27.73126
#
# Velocity S-wave (km/s) = 3.86582 3.99140 3.92911
# Velocity P-wave (km/s) = 7.56862 7.77789 7.67397
#
# Compressibility (1/GPa) = 0.01490165
#
# Stress axis : x y z
#
# Youngs Moduli (GPa) = 48.15061 71.51953 84.77184
#
# Poissons Ratio (x) = 0.62308 0.32931
# Poissons Ratio (y) = 0.41949 0.27346
# Poissons Ratio (z) = 0.18705 0.23071
#
# Static dielectric constant tensor:
#      x y z
#    x 3.288900 0.000000 0.000000 
#    y 0.000000 3.399840 0.000000 
#    z 0.000000 0.000000 3.482060 
# 
# 
# High freq. dielectric constant tensor:
#      x y z
#    x 1.689100 0.000000 0.000000 
#    y 0.000000 1.692560 0.000000 
#    z 0.000000 0.000000 1.694800 
# 
# From -- ./inp_files/44149.got.cif
#   From: 2010.03.12/outbox.cif.g09.slc.cpg/sg65_23_cif.got.tgz:44149.got - 2010.04.10 20:52:16.
