data_PCOD8271287
_publ_section_title
;
Structure prediction by ZEFSAII (Michael W. Deem and Ramdas Pophale) SiO2 
 PCOD8271287
Probable space group: C M M M
;
_chemical_formula_sum "Si O2"
_cell_formula_units_Z 104
_cell_length_a 27.604840
_cell_length_b 23.017422
_cell_length_c 8.743295
_cell_angle_alpha 90.000000
_cell_angle_beta 90.000000
_cell_angle_gamma 90.000000
_cell_volume 5555.421896
_symmetry_space_group_name_H-M "C M M M"
_symmetry_group_IT_number 65
_symmetry_cell_setting 'orthorhombic'
loop_
_space_group_symop_operation_xyz
x,y,z
-x,-y,z
x,-y,-z
-x,y,-z
-x,-y,-z
x,y,-z
-x,y,z
x,-y,z
1/2+x,1/2+y,z
1/2-x,1/2-y,z
1/2+x,1/2-y,-z
1/2-x,1/2+y,-z
1/2-x,1/2-y,-z
1/2+x,1/2+y,-z
1/2-x,1/2+y,z
1/2+x,1/2-y,z
loop_
_atom_site_type_symbol
_atom_site_label
_atom_site_fract_x
_atom_site_fract_y
_atom_site_fract_z
Si Si1 0.000000 0.569124 0.327837
Si Si2 0.444517 0.565907 0.180168
Si Si3 0.358547 0.365399 0.320865
Si Si4 0.732730 0.436402 0.319998
Si Si5 0.402905 0.068867 0.173003
Si Si6 0.805405 0.244649 0.820065
Si Si7 0.179167 0.362071 0.320747
O O1 0.953878 0.592501 0.235352
O O2 0.000000 0.500000 0.333586
O O3 0.000000 0.594478 0.500000
O O4 0.500000 0.580452 0.225098
O O5 0.431990 0.500000 0.235329
O O6 0.410459 0.614517 0.256962
O O7 0.437414 0.570094 0.000000
O O8 0.363569 0.354972 0.500000
O O9 0.321344 0.416775 0.279733
O O10 0.337274 0.306681 0.250285
O O11 0.740855 0.440406 0.500000
O O12 0.741102 0.500000 0.245720
O O13 0.771037 0.389948 0.255101
O O14 0.362693 0.092139 0.287982
O O15 0.401082 0.000000 0.179049
O O16 0.395045 0.091354 0.000000
O O17 0.750000 0.250000 0.756503
O O18 0.832150 0.303732 0.772186
O O19 0.805064 0.235964 0.000000
O O20 0.182268 0.348159 0.500000
#
# Coordination Sequence:
#
# PCOD8271287 Si02
#       7
#     8  16  16  16  16  16  16
#     4   9  17  31  53  79 105 139 183 223 264 319
#     4   9  19  37  60  87 121 158 193 233 288 351
#     4  11  21  35  58  85 115 149 192 239 283 335
#     4   9  18  31  49  78 114 146 176 219 275 329
#     4  10  20  34  53  80 114 147 180 223 278 334
#     4  11  23  39  58  79 109 148 191 232 277 334
#     4  11  21  35  56  79 109 146 188 232 276 330
#
# _framework density 18.720451000000001
#
# number of rings (size 3 to 8) (size 9 to 14) (size 15 to 20)
#    0.000    1.923    1.538    3.462    0.000    4.308 
#    0.000    0.769    1.692    3.692    0.000    0.000 
#    0.000    0.000    0.000    0.000    0.000    0.000 
#
# Total GULP energy -644755.701678 kJ/mol
# GULP energy per Si atom -12399.148109 kJ/mol
# Density = 1.867784 g / cm^3
# Si number density = 18.720451 Si / 1000 Ang^3
#
#
#
# Elastic Constant Matrix: (Units=GPa)
#
#
# Indices 1 2 3 4 5 6 
#
# 1 125.0247 50.4623 43.4138 0.0000 0.0000 0.0000
# 2 50.4623 106.7069 41.1058 0.0000 0.0000 0.0000
# 3 43.4138 41.1058 66.2599 0.0000 0.0000 0.0000
# 4 0.0000 0.0000 0.0000 27.0025 0.0000 0.0000
# 5 0.0000 0.0000 0.0000 0.0000 30.6001 0.0000
# 6 0.0000 0.0000 0.0000 0.0000 0.0000 22.8224
#
#
#
# Elastic Compliance Matrix: (Units=1/GPa)
#
#
# Indices 1 2 3 4 5 6 
#
# 1 0.011141 -0.003228 -0.005297 0.000000 0.000000 0.000000
# 2 -0.003228 0.013250 -0.006105 0.000000 0.000000 0.000000
# 3 -0.005297 -0.006105 0.022350 0.000000 0.000000 0.000000
# 4 0.000000 0.000000 0.000000 0.037034 0.000000 0.000000
# 5 0.000000 0.000000 0.000000 0.000000 0.032680 0.000000
# 6 0.000000 0.000000 0.000000 0.000000 0.000000 0.043817
#
#
# Mechanical properties :
#
#
# Convention : Reuss Voigt Hill
#
# Bulk Modulus (GPa) = 57.20505 63.10615 60.15560
# Shear Modulus (GPa) = 25.59431 26.95230 26.27330
#
# Velocity S-wave (km/s) = 3.70156 3.79849 3.75034
# Velocity P-wave (km/s) = 6.99232 7.28155 7.13840
#
# Compressibility (1/GPa) = 0.01748097
#
# Stress axis : x y z
#
# Youngs Moduli (GPa) = 89.76199 75.47346 44.74312
#
# Poissons Ratio (x) = 0.24363 0.23700
# Poissons Ratio (y) = 0.28975 0.27315
# Poissons Ratio (z) = 0.47545 0.46075
#
# Static dielectric constant tensor:
#      x y z
#    x 3.524690 0.000000 0.000000 
#    y 0.000000 3.379850 0.000000 
#    z 0.000000 0.000000 3.351790 
# 
# 
# High freq. dielectric constant tensor:
#      x y z
#    x 1.728400 0.000000 0.000000 
#    y 0.000000 1.714470 0.000000 
#    z 0.000000 0.000000 1.721880 
# 
# From -- ./inp_files/16450.got.cif
#   From: 2010.03.12/outbox.cif.g09.slc.cpg/sg65_9_cif.got.tgz:16450.got - 2010.04.10 20:52:16.
