data_PCOD8271001
_publ_section_title
;
Structure prediction by ZEFSAII (Michael W. Deem and Ramdas Pophale) SiO2 
 PCOD8271001
Probable space group: C M M M
;
_chemical_formula_sum "Si O2"
_cell_formula_units_Z 104
_cell_length_a 9.108863
_cell_length_b 28.023462
_cell_length_c 28.597983
_cell_angle_alpha 90.000000
_cell_angle_beta 90.000000
_cell_angle_gamma 90.000000
_cell_volume 7299.974795
_symmetry_space_group_name_H-M "C M M M"
_symmetry_group_IT_number 65
_symmetry_cell_setting 'orthorhombic'
loop_
_space_group_symop_operation_xyz
x,y,z
-x,-y,z
x,-y,-z
-x,y,-z
-x,-y,-z
x,y,-z
-x,y,z
x,-y,z
1/2+x,1/2+y,z
1/2-x,1/2-y,z
1/2+x,1/2-y,-z
1/2-x,1/2+y,-z
1/2-x,1/2-y,-z
1/2+x,1/2+y,-z
1/2-x,1/2+y,z
1/2+x,1/2-y,z
loop_
_atom_site_type_symbol
_atom_site_label
_atom_site_fract_x
_atom_site_fract_y
_atom_site_fract_z
Si Si1 0.169827 0.945634 0.178209
Si Si2 0.165227 0.443172 0.730590
Si Si3 0.835263 0.056980 0.359574
Si Si4 0.834947 0.443270 0.448616
Si Si5 0.668399 0.056509 0.000000
Si Si6 0.673260 0.608380 0.916581
Si Si7 0.670295 0.799033 0.945392
O O1 0.258139 0.924504 0.222230
O O2 0.206726 0.913664 0.133733
O O3 0.000000 0.943354 0.191702
O O4 0.216905 0.000000 0.166962
O O5 0.170807 0.500000 0.729753
O O6 0.247115 0.422772 0.684942
O O7 0.000000 0.423793 0.729651
O O8 0.766380 0.077789 0.407510
O O9 0.000000 0.076268 0.356050
O O10 0.830862 0.000000 0.359905
O O11 0.777244 0.426877 0.500000
O O12 0.834320 0.500000 0.446104
O O13 0.000000 0.424421 0.440807
O O14 0.751474 0.074678 0.045564
O O15 0.500000 0.075365 0.000000
O O16 0.673039 0.000000 0.000000
O O17 0.500000 0.611982 0.927055
O O18 0.746433 0.660296 0.916625
O O19 0.500000 0.795977 0.930736
O O20 0.750000 0.750000 0.932683
O O21 0.686676 0.811202 0.000000
#
# Coordination Sequence:
#
# PCOD8271001 Si02
#       7
#    16  16  16  16   8  16  16
#     4   9  18  31  44  59  80 105 132 161 193 231
#     4   9  16  25  37  51  66  88 119 153 188 225
#     4   9  15  21  30  43  59  80 107 142 182 224
#     4   8  13  20  28  38  54  76 102 135 177 224
#     4  11  23  35  46  63  88 115 141 167 193 227
#     4  11  21  33  50  68  87 110 135 162 197 238
#     4  10  20  34  52  71  91 110 132 161 194 231
#
# _framework density 14.246625
#
# number of rings (size 3 to 8) (size 9 to 14) (size 15 to 20)
#    0.000    2.538    0.769    3.000    0.000    7.077 
#    0.000    3.077    0.000    0.000    0.000    0.000 
#    0.000    0.000    0.000    0.000    0.000    0.000 
#
# Total GULP energy -644712.249430 kJ/mol
# GULP energy per Si atom -12398.312489 kJ/mol
# Density = 1.421420 g / cm^3
# Si number density = 14.246625 Si / 1000 Ang^3
#
#
#
# Elastic Constant Matrix: (Units=GPa)
#
#
# Indices 1 2 3 4 5 6 
#
# 1 120.8894 32.2498 78.8344 0.0000 0.0000 0.0000
# 2 32.2498 44.3008 32.2930 0.0000 0.0000 0.0000
# 3 78.8344 32.2930 128.8798 0.0000 0.0000 0.0000
# 4 0.0000 0.0000 0.0000 0.8366 0.0000 0.0000
# 5 0.0000 0.0000 0.0000 0.0000 29.0412 0.0000
# 6 0.0000 0.0000 0.0000 0.0000 0.0000 15.7354
#
#
#
# Elastic Compliance Matrix: (Units=1/GPa)
#
#
# Indices 1 2 3 4 5 6 
#
# 1 0.014630 -0.005049 -0.007684 0.000000 0.000000 0.000000
# 2 -0.005049 0.029360 -0.004268 0.000000 0.000000 0.000000
# 3 -0.007684 -0.004268 0.013529 0.000000 0.000000 0.000000
# 4 0.000000 0.000000 0.000000 1.195252 0.000000 0.000000
# 5 0.000000 0.000000 0.000000 0.000000 0.034434 0.000000
# 6 0.000000 0.000000 0.000000 0.000000 0.000000 0.063551
#
#
# Mechanical properties :
#
#
# Convention : Reuss Voigt Hill
#
# Bulk Modulus (GPa) = 42.52359 64.53605 53.52982
# Shear Modulus (GPa) = 3.59042 19.16884 11.37963
#
# Velocity S-wave (km/s) = 1.58923 3.67209 2.82930
# Velocity P-wave (km/s) = 5.76893 7.96093 6.95187
#
# Compressibility (1/GPa) = 0.02351636
#
# Stress axis : x y z
#
# Youngs Moduli (GPa) = 68.35441 34.06026 73.91718
#
# Poissons Ratio (x) = 0.17197 0.56796
# Poissons Ratio (y) = 0.34512 0.31549
# Poissons Ratio (z) = 0.52521 0.14537
#
# Static dielectric constant tensor:
#      x y z
#    x 3.000530 0.000000 0.000000 
#    y 0.000000 2.312320 0.000000 
#    z 0.000000 0.000000 2.933510 
# 
# 
# High freq. dielectric constant tensor:
#      x y z
#    x 1.562010 0.000000 0.000000 
#    y 0.000000 1.472830 0.000000 
#    z 0.000000 0.000000 1.547910 
# 
# From -- ./inp_files/74052.got.cif
#   From: 2010.03.12/outbox.cif.g09.slc.cpg/sg65_38_cif.got.tgz:74052.got - 2010.04.10 20:52:16.
