data_PCOD8271235
_publ_section_title
;
Structure prediction by ZEFSAII (Michael W. Deem and Ramdas Pophale) SiO2 
 PCOD8271235
Probable space group: C M M M
;
_chemical_formula_sum "Si O2"
_cell_formula_units_Z 104
_cell_length_a 31.309686
_cell_length_b 8.932670
_cell_length_c 19.227555
_cell_angle_alpha 90.000000
_cell_angle_beta 90.000000
_cell_angle_gamma 90.000000
_cell_volume 5377.545140
_symmetry_space_group_name_H-M "C M M M"
_symmetry_group_IT_number 65
_symmetry_cell_setting 'orthorhombic'
loop_
_space_group_symop_operation_xyz
x,y,z
-x,-y,z
x,-y,-z
-x,y,-z
-x,-y,-z
x,y,-z
-x,y,z
x,-y,z
1/2+x,1/2+y,z
1/2-x,1/2-y,z
1/2+x,1/2-y,-z
1/2-x,1/2+y,-z
1/2-x,1/2-y,-z
1/2+x,1/2+y,-z
1/2-x,1/2+y,z
1/2+x,1/2-y,z
loop_
_atom_site_type_symbol
_atom_site_label
_atom_site_fract_x
_atom_site_fract_y
_atom_site_fract_z
Si Si1 0.292557 0.176898 0.788219
Si Si2 0.452863 0.327836 0.199555
Si Si3 0.586465 0.828630 0.921631
Si Si4 0.824459 0.175261 0.078844
Si Si5 0.370522 0.672982 0.287055
Si Si6 0.915089 0.173913 0.577797
Si Si7 0.500000 0.166583 0.417364
O O1 0.250000 0.250000 0.754959
O O2 0.295267 0.233270 0.867840
O O3 0.333320 0.224544 0.743062
O O4 0.288424 0.000000 0.786923
O O5 0.500000 0.298945 0.232560
O O6 0.447990 0.500000 0.177274
O O7 0.450022 0.225720 0.130633
O O8 0.415877 0.282534 0.253243
O O9 0.626985 0.723057 0.908560
O O10 0.599695 0.000000 0.906404
O O11 0.569121 0.811287 0.000000
O O12 0.820338 0.000000 0.094914
O O13 0.810086 0.213466 0.000000
O O14 0.359039 0.500000 0.272417
O O15 0.375633 0.704876 0.369768
O O16 0.902610 0.230367 0.500000
O O17 0.957197 0.252520 0.608392
O O18 0.926370 0.000000 0.576677
O O19 0.500000 0.167464 0.500000
O O20 0.500000 0.000000 0.386551
#
# Coordination Sequence:
#
# PCOD8271235 Si02
#       7
#    16  16  16  16  16  16   8
#     4  12  25  41  63  88 116 148 188 233 286 345
#     4  10  21  35  53  78 110 152 197 236 281 338
#     4  10  20  34  53  77 107 146 192 242 290 333
#     4  10  20  36  59  85 114 148 186 231 284 341
#     4  10  21  38  60  84 116 151 189 236 285 338
#     4   9  18  33  56  84 114 153 196 235 280 338
#     4   9  17  29  47  77 117 155 192 235 278 325
#
# _framework density 19.339680000000001
#
# number of rings (size 3 to 8) (size 9 to 14) (size 15 to 20)
#    0.000    1.923    1.538    2.538    1.077    4.308 
#    0.000    1.538    0.000    0.462    0.000    0.000 
#    0.000    0.000    0.000    0.000    0.000    0.000 
#
# Total GULP energy -644773.102282 kJ/mol
# GULP energy per Si atom -12399.482736 kJ/mol
# Density = 1.929566 g / cm^3
# Si number density = 19.339680 Si / 1000 Ang^3
#
#
#
# Elastic Constant Matrix: (Units=GPa)
#
#
# Indices 1 2 3 4 5 6 
#
# 1 112.8539 54.1707 49.5167 0.0000 0.0000 0.0000
# 2 54.1707 106.0877 44.5280 0.0000 0.0000 0.0000
# 3 49.5167 44.5280 92.2270 0.0000 0.0000 0.0000
# 4 0.0000 0.0000 0.0000 20.1240 0.0000 0.0000
# 5 0.0000 0.0000 0.0000 0.0000 15.8158 0.0000
# 6 0.0000 0.0000 0.0000 0.0000 0.0000 28.0132
#
#
#
# Elastic Compliance Matrix: (Units=1/GPa)
#
#
# Indices 1 2 3 4 5 6 
#
# 1 0.013255 -0.004742 -0.004827 0.000000 0.000000 0.000000
# 2 -0.004742 0.013519 -0.003981 0.000000 0.000000 0.000000
# 3 -0.004827 -0.003981 0.015356 0.000000 0.000000 0.000000
# 4 0.000000 0.000000 0.000000 0.049692 0.000000 0.000000
# 5 0.000000 0.000000 0.000000 0.000000 0.063228 0.000000
# 6 0.000000 0.000000 0.000000 0.000000 0.000000 0.035697
#
#
# Mechanical properties :
#
#
# Convention : Reuss Voigt Hill
#
# Bulk Modulus (GPa) = 66.53405 67.51104 67.02254
# Shear Modulus (GPa) = 22.43578 23.65414 23.04496
#
# Velocity S-wave (km/s) = 3.40971 3.50106 3.45569
# Velocity P-wave (km/s) = 7.06958 7.16429 7.11709
#
# Compressibility (1/GPa) = 0.01502990
#
# Stress axis : x y z
#
# Youngs Moduli (GPa) = 75.44099 73.97250 65.11937
#
# Poissons Ratio (x) = 0.35081 0.31434
# Poissons Ratio (y) = 0.35777 0.25922
# Poissons Ratio (z) = 0.36417 0.29446
#
# Static dielectric constant tensor:
#      x y z
#    x 3.382740 0.000000 0.000000 
#    y 0.000000 3.515000 0.000000 
#    z 0.000000 0.000000 3.649170 
# 
# 
# High freq. dielectric constant tensor:
#      x y z
#    x 1.734200 0.000000 0.000000 
#    y 0.000000 1.753480 0.000000 
#    z 0.000000 0.000000 1.745810 
# 
# From -- ./inp_files/66319.got.cif
#   From: 2010.03.12/outbox.cif.g09.slc.cpg/sg65_34_cif.got.tgz:66319.got - 2010.04.10 20:52:16.
