data_PCOD8271410
_publ_section_title
;
Structure prediction by ZEFSAII (Michael W. Deem and Ramdas Pophale) SiO2 
 PCOD8271410
Probable space group: C M M M
;
_chemical_formula_sum "Si O2"
_cell_formula_units_Z 64
_cell_length_a 8.911250
_cell_length_b 19.037131
_cell_length_c 20.003046
_cell_angle_alpha 90.000000
_cell_angle_beta 90.000000
_cell_angle_gamma 90.000000
_cell_volume 3393.409410
_symmetry_space_group_name_H-M "C M M M"
_symmetry_group_IT_number 65
_symmetry_cell_setting 'orthorhombic'
loop_
_space_group_symop_operation_xyz
x,y,z
-x,-y,z
x,-y,-z
-x,y,-z
-x,-y,-z
x,y,-z
-x,y,z
x,-y,z
1/2+x,1/2+y,z
1/2-x,1/2-y,z
1/2+x,1/2-y,-z
1/2-x,1/2+y,-z
1/2-x,1/2-y,-z
1/2+x,1/2+y,-z
1/2-x,1/2+y,z
1/2+x,1/2-y,z
loop_
_atom_site_type_symbol
_atom_site_label
_atom_site_fract_x
_atom_site_fract_y
_atom_site_fract_z
Si Si1 0.671869 0.916909 0.133564
Si Si2 0.175452 0.417636 0.500000
Si Si3 0.830566 0.916384 0.000000
Si Si4 0.824120 0.822825 0.393241
Si Si5 0.175059 0.822279 0.761519
O O1 0.500000 0.892713 0.134124
O O2 0.756381 0.886206 0.197333
O O3 0.687733 0.000000 0.138078
O O4 0.746328 0.887745 0.065596
O O5 0.207070 0.500000 0.500000
O O6 0.250707 0.386141 0.433818
O O7 0.000000 0.400158 0.500000
O O8 0.000000 0.887480 0.000000
O O9 0.828028 0.000000 0.000000
O O10 0.750000 0.750000 0.416669
O O11 0.790076 0.837437 0.315801
O O12 0.000000 0.818770 0.408535
O O13 0.250000 0.750000 0.785174
O O14 0.000000 0.816832 0.775876
#
# Coordination Sequence:
#
# PCOD8271410 Si02
#       5
#    16   8   8  16  16
#     4  10  20  34  54  80 110 144 181 222 269 321
#     4  11  24  39  56  81 113 145 178 221 270 317
#     4   9  17  31  52  77 106 141 182 225 267 317
#     4  10  21  38  60  82 107 142 182 222 265 320
#     4  10  21  37  57  81 109 142 180 222 269 320
#
# _framework density 18.860087
#
# number of rings (size 3 to 8) (size 9 to 14) (size 15 to 20)
#    0.000    2.000    0.000    3.375    0.000    8.000 
#    0.000    5.625    0.000    0.000    0.000    0.000 
#    0.000    0.000    0.000    0.000    0.000    0.000 
#
# Total GULP energy -396956.836386 kJ/mol
# GULP energy per Si atom -12404.901137 kJ/mol
# Density = 1.881716 g / cm^3
# Si number density = 18.860087 Si / 1000 Ang^3
#
#
#
# Elastic Constant Matrix: (Units=GPa)
#
#
# Indices 1 2 3 4 5 6 
#
# 1 147.8488 55.5688 70.9933 0.0000 0.0000 0.0000
# 2 55.5688 69.0605 52.8424 0.0000 0.0000 0.0000
# 3 70.9933 52.8424 113.2398 0.0000 0.0000 0.0000
# 4 0.0000 0.0000 0.0000 21.4320 0.0000 0.0000
# 5 0.0000 0.0000 0.0000 0.0000 38.0518 0.0000
# 6 0.0000 0.0000 0.0000 0.0000 0.0000 34.2314
#
#
#
# Elastic Compliance Matrix: (Units=1/GPa)
#
#
# Indices 1 2 3 4 5 6 
#
# 1 0.010870 -0.005493 -0.004251 0.000000 0.000000 0.000000
# 2 -0.005493 0.025298 -0.008361 0.000000 0.000000 0.000000
# 3 -0.004251 -0.008361 0.015398 0.000000 0.000000 0.000000
# 4 0.000000 0.000000 0.000000 0.046659 0.000000 0.000000
# 5 0.000000 0.000000 0.000000 0.000000 0.026280 0.000000
# 6 0.000000 0.000000 0.000000 0.000000 0.000000 0.029213
#
#
# Mechanical properties :
#
#
# Convention : Reuss Voigt Hill
#
# Bulk Modulus (GPa) = 65.12960 76.55090 70.84025
# Shear Modulus (GPa) = 25.63501 28.79270 27.21385
#
# Velocity S-wave (km/s) = 3.69076 3.91147 3.80272
# Velocity P-wave (km/s) = 7.26432 7.81514 7.54476
#
# Compressibility (1/GPa) = 0.01535400
#
# Stress axis : x y z
#
# Youngs Moduli (GPa) = 91.99991 39.52915 64.94555
#
# Poissons Ratio (x) = 0.21715 0.27608
# Poissons Ratio (y) = 0.50539 0.54301
# Poissons Ratio (z) = 0.39109 0.33051
#
# Static dielectric constant tensor:
#      x y z
#    x 3.681010 0.000000 0.000000 
#    y 0.000000 3.221460 0.000000 
#    z 0.000000 0.000000 3.539980 
# 
# 
# High freq. dielectric constant tensor:
#      x y z
#    x 1.754060 0.000000 0.000000 
#    y 0.000000 1.712630 0.000000 
#    z 0.000000 0.000000 1.743730 
# 
# From -- ./inp_files/58786.got.cif
#   From: 2010.03.12/outbox.cif.g09.slc.cpg/sg65_30_cif.got.tgz:58786.got - 2010.04.10 20:52:16.
