data_PCOD8271316
_publ_section_title
;
Structure prediction by ZEFSAII (Michael W. Deem and Ramdas Pophale) SiO2 
 PCOD8271316
Probable space group: C M M M
;
_chemical_formula_sum "Si O2"
_cell_formula_units_Z 88
_cell_length_a 9.025909
_cell_length_b 18.041610
_cell_length_c 28.844518
_cell_angle_alpha 90.000000
_cell_angle_beta 90.000000
_cell_angle_gamma 90.000000
_cell_volume 4697.096983
_symmetry_space_group_name_H-M "C M M M"
_symmetry_group_IT_number 65
_symmetry_cell_setting 'orthorhombic'
loop_
_space_group_symop_operation_xyz
x,y,z
-x,-y,z
x,-y,-z
-x,y,-z
-x,-y,-z
x,y,-z
-x,y,z
x,-y,z
1/2+x,1/2+y,z
1/2-x,1/2-y,z
1/2+x,1/2-y,-z
1/2-x,1/2+y,-z
1/2-x,1/2-y,-z
1/2+x,1/2+y,-z
1/2-x,1/2+y,z
1/2+x,1/2-y,z
loop_
_atom_site_type_symbol
_atom_site_label
_atom_site_fract_x
_atom_site_fract_y
_atom_site_fract_z
Si Si1 0.176494 0.582832 0.262618
Si Si2 0.672722 0.828174 0.548955
Si Si3 0.674675 0.170767 0.649025
Si Si4 0.675166 0.329550 0.000000
Si Si5 0.672584 0.172410 0.174539
Si Si6 0.329445 0.913459 0.918487
O O1 0.241253 0.500000 0.257566
O O2 0.234199 0.616034 0.311289
O O3 0.236927 0.633537 0.220732
O O4 0.000000 0.579989 0.260961
O O5 0.713927 0.871249 0.500000
O O6 0.500000 0.812197 0.549479
O O7 0.750000 0.750000 0.547900
O O8 0.714562 0.866472 0.598327
O O9 0.500000 0.182687 0.654507
O O10 0.750000 0.250000 0.655118
O O11 0.750000 0.250000 0.000000
O O12 0.722537 0.374131 0.045353
O O13 0.500000 0.319100 0.000000
O O14 0.500000 0.188374 0.180134
O O15 0.750000 0.250000 0.165347
O O16 0.705547 0.117777 0.132159
O O17 0.500000 0.898711 0.932539
O O18 0.293283 0.000000 0.918226
#
# Coordination Sequence:
#
# PCOD8271316 Si02
#       6
#    16  16  16   8  16  16
#     4   9  17  30  48  69  93 123 160 197 235 286
#     4   8  13  21  34  55  83 112 144 184 229 276
#     4   9  16  26  43  65  88 117 152 192 236 280
#     4  12  25  40  59  83 111 143 179 216 253 292
#     4  10  20  34  54  78 102 130 164 203 245 290
#     4  10  21  38  59  82 109 140 172 207 251 301
#
# _framework density 18.734974999999999
#
# number of rings (size 3 to 8) (size 9 to 14) (size 15 to 20)
#    0.000    2.545    0.000    2.727    0.000    5.818 
#    0.000    0.000    0.000    3.818    0.000    3.818 
#    0.000    0.000    0.000   29.455    0.000   13.818 
#
# Total GULP energy -545186.732695 kJ/mol
# GULP energy per Si atom -12390.607561 kJ/mol
# Density = 1.869233 g / cm^3
# Si number density = 18.734975 Si / 1000 Ang^3
#
#
#
# Elastic Constant Matrix: (Units=GPa)
#
#
# Indices 1 2 3 4 5 6 
#
# 1 44.9948 37.7433 45.7576 0.0000 0.0000 0.0000
# 2 37.7433 116.2622 62.1131 0.0000 0.0000 0.0000
# 3 45.7576 62.1131 165.5094 0.0000 0.0000 0.0000
# 4 0.0000 0.0000 0.0000 148.8976 0.0000 0.0000
# 5 0.0000 0.0000 0.0000 0.0000 8.0150 0.0000
# 6 0.0000 0.0000 0.0000 0.0000 0.0000 20.6329
#
#
#
# Elastic Compliance Matrix: (Units=1/GPa)
#
#
# Indices 1 2 3 4 5 6 
#
# 1 0.035982 -0.007963 -0.006959 0.000000 0.000000 0.000000
# 2 -0.007963 0.012521 -0.002497 0.000000 0.000000 0.000000
# 3 -0.006959 -0.002497 0.008903 0.000000 0.000000 0.000000
# 4 0.000000 0.000000 0.000000 0.006716 0.000000 0.000000
# 5 0.000000 0.000000 0.000000 0.000000 0.124765 0.000000
# 6 0.000000 0.000000 0.000000 0.000000 0.000000 0.048466
#
#
# Mechanical properties :
#
#
# Convention : Reuss Voigt Hill
#
# Bulk Modulus (GPa) = 44.31409 68.66604 56.49007
# Shear Modulus (GPa) = 17.87538 47.58595 32.73066
#
# Velocity S-wave (km/s) = 3.09223 5.04526 4.18429
# Velocity P-wave (km/s) = 6.03769 8.40657 7.31861
#
# Compressibility (1/GPa) = 0.02256618
#
# Stress axis : x y z
#
# Youngs Moduli (GPa) = 27.79185 79.86885 112.32001
#
# Poissons Ratio (x) = 0.63600 0.78167
# Poissons Ratio (y) = 0.22131 0.28049
# Poissons Ratio (z) = 0.19341 0.19945
#
# Static dielectric constant tensor:
#      x y z
#    x 3.206430 0.000000 0.000000 
#    y 0.000000 3.285040 0.000000 
#    z 0.000000 0.000000 4.189070 
# 
# 
# High freq. dielectric constant tensor:
#      x y z
#    x 1.697920 0.000000 0.000000 
#    y 0.000000 1.703890 0.000000 
#    z 0.000000 0.000000 1.761490 
# 
# From -- ./inp_files/76453.got.cif
#   From: 2010.03.12/outbox.cif.g09.slc.cpg/sg65_39_cif.got.tgz:76453.got - 2010.04.10 20:52:16.
