data_PCOD8271744
_publ_section_title
;
Structure prediction by ZEFSAII (Michael W. Deem and Ramdas Pophale) SiO2 
 PCOD8271744
Probable space group: C M M M
;
_chemical_formula_sum "Si O2"
_cell_formula_units_Z 80
_cell_length_a 9.229506
_cell_length_b 18.669542
_cell_length_c 25.304554
_cell_angle_alpha 90.000000
_cell_angle_beta 90.000000
_cell_angle_gamma 90.000000
_cell_volume 4360.244145
_symmetry_space_group_name_H-M "C M M M"
_symmetry_group_IT_number 65
_symmetry_cell_setting 'orthorhombic'
loop_
_space_group_symop_operation_xyz
x,y,z
-x,-y,z
x,-y,-z
-x,y,-z
-x,-y,-z
x,y,-z
-x,y,z
x,-y,z
1/2+x,1/2+y,z
1/2-x,1/2-y,z
1/2+x,1/2-y,-z
1/2-x,1/2+y,-z
1/2-x,1/2-y,-z
1/2+x,1/2+y,-z
1/2-x,1/2+y,z
1/2+x,1/2-y,z
loop_
_atom_site_type_symbol
_atom_site_label
_atom_site_fract_x
_atom_site_fract_y
_atom_site_fract_z
Si Si1 0.667907 0.917497 0.601085
Si Si2 0.667703 0.179782 0.303733
Si Si3 0.668594 0.416731 0.101929
Si Si4 0.328993 0.823443 0.816736
Si Si5 0.169184 0.825283 0.000000
Si Si6 0.835736 0.914596 0.500000
O O1 0.500000 0.904847 0.588296
O O2 0.714955 0.882564 0.656409
O O3 0.757687 0.884014 0.552356
O O4 0.705923 0.000000 0.608047
O O5 0.500000 0.197529 0.308280
O O6 0.750000 0.250000 0.322036
O O7 0.707268 0.157615 0.243998
O O8 0.500000 0.405486 0.115666
O O9 0.702769 0.500000 0.091544
O O10 0.766041 0.389394 0.150209
O O11 0.714215 0.371816 0.050588
O O12 0.500000 0.814825 0.826969
O O13 0.250000 0.750000 0.833959
O O14 0.250000 0.750000 0.000000
O O15 0.000000 0.808406 0.000000
O O16 0.000000 0.887378 0.500000
O O17 0.823979 0.000000 0.500000
#
# Coordination Sequence:
#
# PCOD8271744 Si02
#       6
#    16  16  16  16   8   8
#     4   9  17  31  51  72  95 127 166 204 245 297
#     4   9  19  34  52  74 101 133 167 206 251 299
#     4  10  21  37  56  79 108 140 174 215 262 308
#     4  10  20  35  55  78 105 138 175 214 257 308
#     4  10  21  37  57  79 105 140 179 216 256 306
#     4   9  17  29  46  71 100 127 159 203 252 297
#
# _framework density 18.347597
#
# number of rings (size 3 to 8) (size 9 to 14) (size 15 to 20)
#    0.000    2.500    0.000    1.800    0.000    7.600 
#    0.000    2.500    0.000    4.200    0.000    0.000 
#    0.000    0.000    0.000    0.000    0.000    0.000 
#
# Total GULP energy -496056.061472 kJ/mol
# GULP energy per Si atom -12401.401537 kJ/mol
# Density = 1.830584 g / cm^3
# Si number density = 18.347597 Si / 1000 Ang^3
#
#
#
# Elastic Constant Matrix: (Units=GPa)
#
#
# Indices 1 2 3 4 5 6 
#
# 1 73.3717 53.9557 60.9170 0.0000 0.0000 0.0000
# 2 53.9557 108.9788 73.1802 0.0000 0.0000 0.0000
# 3 60.9170 73.1802 130.7774 0.0000 0.0000 0.0000
# 4 0.0000 0.0000 0.0000 26.3445 0.0000 0.0000
# 5 0.0000 0.0000 0.0000 0.0000 27.8240 0.0000
# 6 0.0000 0.0000 0.0000 0.0000 0.0000 29.6558
#
#
#
# Elastic Compliance Matrix: (Units=1/GPa)
#
#
# Indices 1 2 3 4 5 6 
#
# 1 0.025514 -0.007451 -0.007715 0.000000 0.000000 0.000000
# 2 -0.007451 0.016876 -0.005972 0.000000 0.000000 0.000000
# 3 -0.007715 -0.005972 0.014582 0.000000 0.000000 0.000000
# 4 0.000000 0.000000 0.000000 0.037959 0.000000 0.000000
# 5 0.000000 0.000000 0.000000 0.000000 0.035940 0.000000
# 6 0.000000 0.000000 0.000000 0.000000 0.000000 0.033720
#
#
# Mechanical properties :
#
#
# Convention : Reuss Voigt Hill
#
# Bulk Modulus (GPa) = 68.05212 76.58152 72.31682
# Shear Modulus (GPa) = 23.61078 25.10320 24.35699
#
# Velocity S-wave (km/s) = 3.59117 3.70293 3.64748
# Velocity P-wave (km/s) = 7.37336 7.75320 7.56566
#
# Compressibility (1/GPa) = 0.01469462
#
# Stress axis : x y z
#
# Youngs Moduli (GPa) = 39.19366 59.25620 68.57599
#
# Poissons Ratio (x) = 0.44155 0.52907
# Poissons Ratio (y) = 0.29205 0.40957
# Poissons Ratio (z) = 0.30238 0.35390
#
# Static dielectric constant tensor:
#      x y z
#    x 3.371490 0.000000 0.000000 
#    y 0.000000 3.275920 0.000000 
#    z 0.000000 0.000000 3.623010 
# 
# 
# High freq. dielectric constant tensor:
#      x y z
#    x 1.710090 0.000000 0.000000 
#    y 0.000000 1.696350 0.000000 
#    z 0.000000 0.000000 1.723830 
# 
# From -- ./inp_files/72963.got.cif
#   From: 2010.03.12/outbox.cif.g09.slc.cpg/sg65_37_cif.got.tgz:72963.got - 2010.04.10 20:52:16.
