data_PCOD8271771
_publ_section_title
;
Structure prediction by ZEFSAII (Michael W. Deem and Ramdas Pophale) SiO2 
 PCOD8271771
Probable space group: C M M M
;
_chemical_formula_sum "Si O2"
_cell_formula_units_Z 88
_cell_length_a 17.398208
_cell_length_b 9.686751
_cell_length_c 26.900181
_cell_angle_alpha 90.000000
_cell_angle_beta 90.000000
_cell_angle_gamma 90.000000
_cell_volume 4533.544229
_symmetry_space_group_name_H-M "C M M M"
_symmetry_group_IT_number 65
_symmetry_cell_setting 'orthorhombic'
loop_
_space_group_symop_operation_xyz
x,y,z
-x,-y,z
x,-y,-z
-x,y,-z
-x,-y,-z
x,y,-z
-x,y,z
x,-y,z
1/2+x,1/2+y,z
1/2-x,1/2-y,z
1/2+x,1/2-y,-z
1/2-x,1/2+y,-z
1/2-x,1/2-y,-z
1/2+x,1/2+y,-z
1/2-x,1/2+y,z
1/2+x,1/2-y,z
loop_
_atom_site_type_symbol
_atom_site_label
_atom_site_fract_x
_atom_site_fract_y
_atom_site_fract_z
Si Si1 0.591656 0.000000 0.445375
Si Si2 0.091353 0.343194 0.000000
Si Si3 0.911265 0.843005 0.909552
Si Si4 0.408492 0.246106 0.380469
Si Si5 0.327423 0.336735 0.193502
Si Si6 0.908975 0.657575 0.726354
Si Si7 0.408177 0.500000 0.443058
O O1 0.623393 0.872146 0.415441
O O2 0.500000 0.000000 0.448465
O O3 0.627991 0.000000 0.500000
O O4 0.120522 0.261791 0.951344
O O5 0.123849 0.500000 0.000000
O O6 0.000000 0.343759 0.000000
O O7 0.860583 0.818103 0.861309
O O8 0.000000 0.811528 0.896587
O O9 0.902697 0.000000 0.929096
O O10 0.500000 0.249264 0.377514
O O11 0.375737 0.222135 0.324959
O O12 0.376041 0.377201 0.409310
O O13 0.316221 0.500000 0.206065
O O14 0.250000 0.250000 0.197795
O O15 0.386371 0.264717 0.230927
O O16 0.877573 0.500000 0.734593
O O17 0.000000 0.650387 0.724196
O O18 0.500000 0.500000 0.446428
O O19 0.375964 0.500000 0.500000
#
# Coordination Sequence:
#
# PCOD8271771 Si02
#       7
#     8   8  16  16  16  16   8
#     4   9  14  22  38  60  93 135 171 204 251 316
#     4   9  17  29  52  87 120 147 179 221 266 313
#     4   9  18  35  58  84 113 147 185 223 267 320
#     4   9  16  26  40  64  97 134 173 212 259 318
#     4  11  24  40  58  80 109 145 187 233 282 333
#     4  10  20  35  55  79 108 142 182 229 278 327
#     4   9  16  24  36  60  97 137 171 208 259 316
#
# _framework density 19.410862000000002
#
# number of rings (size 3 to 8) (size 9 to 14) (size 15 to 20)
#    0.000    2.455    0.909    1.909    1.273    5.818 
#    0.000    2.273    0.000    0.000    0.000    0.000 
#    0.000    4.364    0.000    0.000    0.000    0.000 
#
# Total GULP energy -545232.539422 kJ/mol
# GULP energy per Si atom -12391.648623 kJ/mol
# Density = 1.936668 g / cm^3
# Si number density = 19.410862 Si / 1000 Ang^3
#
#
#
# Elastic Constant Matrix: (Units=GPa)
#
#
# Indices 1 2 3 4 5 6 
#
# 1 17.4178 15.7941 8.7667 0.0000 0.0000 0.0000
# 2 15.7941 181.4960 84.7968 0.0000 0.0000 0.0000
# 3 8.7667 84.7968 136.1353 0.0000 0.0000 0.0000
# 4 0.0000 0.0000 0.0000 40.9402 0.0000 0.0000
# 5 0.0000 0.0000 0.0000 0.0000 -2.2415 0.0000
# 6 0.0000 0.0000 0.0000 0.0000 0.0000 19.9845
#
#
#
# Elastic Compliance Matrix: (Units=1/GPa)
#
#
# Indices 1 2 3 4 5 6 
#
# 1 0.062409 -0.005012 -0.000897 0.000000 0.000000 0.000000
# 2 -0.005012 0.008174 -0.004769 0.000000 0.000000 0.000000
# 3 -0.000897 -0.004769 0.010374 0.000000 0.000000 0.000000
# 4 0.000000 0.000000 0.000000 0.024426 0.000000 0.000000
# 5 0.000000 0.000000 0.000000 0.000000 -0.446130 0.000000
# 6 0.000000 0.000000 0.000000 0.000000 0.000000 0.050039
#
#
# Mechanical properties :
#
#
# Convention : Reuss Voigt Hill
#
# Bulk Modulus (GPa) = 16.77818 61.52936 39.15377
# Shear Modulus (GPa) = -20.04112 26.78275 3.37082
#
# Velocity S-wave (km/s) = -3.21669 3.71857 1.31922
# Velocity P-wave (km/s) = 2.26576 7.08550 4.74714
#
# Compressibility (1/GPa) = 0.05960123
#
# Stress axis : x y z
#
# Youngs Moduli (GPa) = 16.02339 122.34136 96.39742
#
# Poissons Ratio (x) = 0.61315 0.08648
# Poissons Ratio (y) = 0.08031 0.45968
# Poissons Ratio (z) = 0.01438 0.58340
#
# Static dielectric constant tensor:
#      x y z
#    x 2.927860 0.000000 0.000000 
#    y 0.000000 3.841180 0.000000 
#    z 0.000000 0.000000 3.727130 
# 
# 
# High freq. dielectric constant tensor:
#      x y z
#    x 1.695090 0.000000 0.000000 
#    y 0.000000 1.772820 0.000000 
#    z 0.000000 0.000000 1.771540 
# 
# From -- ./inp_files/78020.got.cif
#   From: 2010.03.12/outbox.cif.g09.slc.cpg/sg65_40_cif.got.tgz:78020.got - 2010.04.10 20:52:16.
