data_PCOD8271072
_publ_section_title
;
Structure prediction by ZEFSAII (Michael W. Deem and Ramdas Pophale) SiO2 
 PCOD8271072
Probable space group: C M M M
;
_chemical_formula_sum "Si O2"
_cell_formula_units_Z 88
_cell_length_a 8.676221
_cell_length_b 31.157658
_cell_length_c 17.297043
_cell_angle_alpha 90.000000
_cell_angle_beta 90.000000
_cell_angle_gamma 90.000000
_cell_volume 4675.922203
_symmetry_space_group_name_H-M "C M M M"
_symmetry_group_IT_number 65
_symmetry_cell_setting 'orthorhombic'
loop_
_space_group_symop_operation_xyz
x,y,z
-x,-y,z
x,-y,-z
-x,y,-z
-x,-y,-z
x,y,-z
-x,y,z
x,-y,z
1/2+x,1/2+y,z
1/2-x,1/2-y,z
1/2+x,1/2-y,-z
1/2-x,1/2+y,-z
1/2-x,1/2-y,-z
1/2+x,1/2+y,-z
1/2-x,1/2+y,z
1/2+x,1/2-y,z
loop_
_atom_site_type_symbol
_atom_site_label
_atom_site_fract_x
_atom_site_fract_y
_atom_site_fract_z
Si Si1 0.681948 0.048312 0.337256
Si Si2 0.318388 0.374790 0.756788
Si Si3 0.317428 0.919406 0.500000
Si Si4 0.683483 0.705931 0.660413
Si Si5 0.666229 0.500000 0.090628
Si Si6 0.683442 0.821601 0.500000
Si Si7 0.683916 0.407917 0.914728
O O1 0.500000 0.055164 0.335608
O O2 0.757151 0.081446 0.279098
O O3 0.745901 0.056830 0.423848
O O4 0.727411 0.000000 0.312350
O O5 0.500000 0.374789 0.747905
O O6 0.251676 0.332909 0.713734
O O7 0.268825 0.374035 0.847842
O O8 0.500000 0.920692 0.500000
O O9 0.258760 0.870555 0.500000
O O10 0.500000 0.707130 0.659079
O O11 0.750000 0.750000 0.696102
O O12 0.748421 0.701583 0.574480
O O13 0.500000 0.500000 0.133571
O O14 0.753969 0.544968 0.109764
O O15 0.637435 0.500000 0.000000
O O16 0.500000 0.817505 0.500000
O O17 0.500000 0.412812 0.918407
O O18 0.745050 0.393202 0.000000
#
# Coordination Sequence:
#
# PCOD8271072 Si02
#       7
#    16  16   8  16   8   8  16
#     4  10  20  34  52  74 103 142 182 213 246 298
#     4  10  21  34  52  79 106 131 168 220 264 301
#     4   9  17  32  53  72  97 137 181 211 239 289
#     4  11  23  38  55  78 106 134 168 212 265 316
#     4   7  10  18  36  64  95 126 159 192 232 287
#     4  11  20  35  59  80 101 136 174 211 259 305
#     4   8  14  26  45  71 102 134 167 205 251 299
#
# _framework density 18.819815999999999
#
# number of rings (size 3 to 8) (size 9 to 14) (size 15 to 20)
#    0.000    2.455    1.818    2.455    1.273    2.182 
#    0.000    0.455    0.000    2.182    0.000    1.273 
#    0.000    0.000    0.000    0.000    0.000    0.182 
#
# Total GULP energy -545217.079136 kJ/mol
# GULP energy per Si atom -12391.297253 kJ/mol
# Density = 1.877698 g / cm^3
# Si number density = 18.819816 Si / 1000 Ang^3
#
#
#
# Elastic Constant Matrix: (Units=GPa)
#
#
# Indices 1 2 3 4 5 6 
#
# 1 24.6606 18.4525 17.4038 0.0000 0.0000 0.0000
# 2 18.4525 128.0424 68.4667 0.0000 0.0000 0.0000
# 3 17.4038 68.4667 136.8180 0.0000 0.0000 0.0000
# 4 0.0000 0.0000 0.0000 15.6907 0.0000 0.0000
# 5 0.0000 0.0000 0.0000 0.0000 8.6207 0.0000
# 6 0.0000 0.0000 0.0000 0.0000 0.0000 22.7751
#
#
#
# Elastic Compliance Matrix: (Units=1/GPa)
#
#
# Indices 1 2 3 4 5 6 
#
# 1 0.046654 -0.004847 -0.003509 0.000000 0.000000 0.000000
# 2 -0.004847 0.011167 -0.004972 0.000000 0.000000 0.000000
# 3 -0.003509 -0.004972 0.010243 0.000000 0.000000 0.000000
# 4 0.000000 0.000000 0.000000 0.063732 0.000000 0.000000
# 5 0.000000 0.000000 0.000000 0.000000 0.116000 0.000000
# 6 0.000000 0.000000 0.000000 0.000000 0.000000 0.043908
#
#
# Mechanical properties :
#
#
# Convention : Reuss Voigt Hill
#
# Bulk Modulus (GPa) = 24.14954 55.35192 39.75073
# Shear Modulus (GPa) = 15.05292 21.76382 18.40837
#
# Velocity S-wave (km/s) = 2.83122 3.40432 3.13091
# Velocity P-wave (km/s) = 4.85258 6.70283 5.85130
#
# Compressibility (1/GPa) = 0.04140866
#
# Stress axis : x y z
#
# Youngs Moduli (GPa) = 21.43445 89.55103 97.62565
#
# Poissons Ratio (x) = 0.43406 0.34257
# Poissons Ratio (y) = 0.10389 0.48535
# Poissons Ratio (z) = 0.07521 0.44521
#
# Static dielectric constant tensor:
#      x y z
#    x 3.033530 0.000000 0.000000 
#    y 0.000000 3.735020 0.000000 
#    z 0.000000 0.000000 3.728860 
# 
# 
# High freq. dielectric constant tensor:
#      x y z
#    x 1.689160 0.000000 0.000000 
#    y 0.000000 1.726730 0.000000 
#    z 0.000000 0.000000 1.730980 
# 
# From -- ./inp_files/50513.got.cif
#   From: 2010.03.12/outbox.cif.g09.slc.cpg/sg65_26_cif.got.tgz:50513.got - 2010.04.10 20:52:16.
