data_PCOD8271946
_publ_section_title
;
Structure prediction by ZEFSAII (Michael W. Deem and Ramdas Pophale) SiO2 
 PCOD8271946
Probable space group: C M M M
;
_chemical_formula_sum "Si O2"
_cell_formula_units_Z 88
_cell_length_a 24.402747
_cell_length_b 19.895403
_cell_length_c 8.670226
_cell_angle_alpha 90.000000
_cell_angle_beta 90.000000
_cell_angle_gamma 90.000000
_cell_volume 4209.416276
_symmetry_space_group_name_H-M "C M M M"
_symmetry_group_IT_number 65
_symmetry_cell_setting 'orthorhombic'
loop_
_space_group_symop_operation_xyz
x,y,z
-x,-y,z
x,-y,-z
-x,y,-z
-x,-y,-z
x,y,-z
-x,y,z
x,-y,z
1/2+x,1/2+y,z
1/2-x,1/2-y,z
1/2+x,1/2-y,-z
1/2-x,1/2+y,-z
1/2-x,1/2-y,-z
1/2+x,1/2+y,-z
1/2-x,1/2+y,z
1/2+x,1/2-y,z
loop_
_atom_site_type_symbol
_atom_site_label
_atom_site_fract_x
_atom_site_fract_y
_atom_site_fract_z
Si Si1 0.601777 0.837443 0.821639
Si Si2 0.000000 0.421015 0.682603
Si Si3 0.286274 0.424907 0.826200
Si Si4 0.718375 0.183389 0.322262
Si Si5 0.100262 0.072248 0.675944
Si Si6 0.561200 0.713006 0.330854
O O1 0.556146 0.885094 0.741028
O O2 0.663771 0.843715 0.762172
O O3 0.590418 0.758350 0.796161
O O4 0.599605 0.855867 0.000000
O O5 0.000000 0.500000 0.733528
O O6 0.000000 0.415008 0.500000
O O7 0.262409 0.500000 0.807411
O O8 0.259830 0.377684 0.698379
O O9 0.350610 0.424620 0.795896
O O10 0.275457 0.398407 0.000000
O O11 0.704007 0.195703 0.500000
O O12 0.750000 0.250000 0.255838
O O13 0.121942 0.078186 0.500000
O O14 0.060807 0.134516 0.715810
O O15 0.069556 0.000000 0.696635
O O16 0.589187 0.723272 0.500000
O O17 0.500000 0.739312 0.340893
#
# Coordination Sequence:
#
# PCOD8271946 Si02
#       6
#    16   8  16  16  16  16
#     4  12  25  41  64  93 126 162 202 254 315 377
#     4  11  25  47  73  97 124 163 212 265 321 384
#     4  10  21  37  57  83 116 153 193 240 298 359
#     4  11  24  41  63  91 123 162 209 258 309 370
#     4   9  18  33  54  82 116 157 204 248 292 345
#     4  10  20  35  57  82 115 158 200 246 294 347
#
# _framework density 20.905512000000002
#
# number of rings (size 3 to 8) (size 9 to 14) (size 15 to 20)
#    0.000    1.545    0.909    4.091    0.000    9.455 
#    0.000    1.818    0.000    0.000    0.000    3.818 
#    0.000    0.000    0.000    0.000    0.000    0.000 
#
# Total GULP energy -545160.013390 kJ/mol
# GULP energy per Si atom -12390.000304 kJ/mol
# Density = 2.085793 g / cm^3
# Si number density = 20.905512 Si / 1000 Ang^3
#
#
#
# Elastic Constant Matrix: (Units=GPa)
#
#
# Indices 1 2 3 4 5 6 
#
# 1 71.6612 26.4734 25.5328 0.0000 0.0000 0.0000
# 2 26.4734 109.5621 33.2400 0.0000 0.0000 0.0000
# 3 25.5328 33.2400 80.7127 0.0000 0.0000 0.0000
# 4 0.0000 0.0000 0.0000 21.7997 0.0000 0.0000
# 5 0.0000 0.0000 0.0000 0.0000 20.4006 0.0000
# 6 0.0000 0.0000 0.0000 0.0000 0.0000 35.5749
#
#
#
# Elastic Compliance Matrix: (Units=1/GPa)
#
#
# Indices 1 2 3 4 5 6 
#
# 1 0.016413 -0.002732 -0.004067 0.000000 0.000000 0.000000
# 2 -0.002732 0.010885 -0.003619 0.000000 0.000000 0.000000
# 3 -0.004067 -0.003619 0.015166 0.000000 0.000000 0.000000
# 4 0.000000 0.000000 0.000000 0.045872 0.000000 0.000000
# 5 0.000000 0.000000 0.000000 0.000000 0.049018 0.000000
# 6 0.000000 0.000000 0.000000 0.000000 0.000000 0.028110
#
#
# Mechanical properties :
#
#
# Convention : Reuss Voigt Hill
#
# Bulk Modulus (GPa) = 46.23336 48.04759 47.14047
# Shear Modulus (GPa) = 25.83852 27.33436 26.58644
#
# Velocity S-wave (km/s) = 3.51945 3.61989 3.57002
# Velocity P-wave (km/s) = 6.21922 6.36432 6.29219
#
# Compressibility (1/GPa) = 0.02162940
#
# Stress axis : x y z
#
# Youngs Moduli (GPa) = 60.92787 91.86766 65.93503
#
# Poissons Ratio (x) = 0.25098 0.26816
# Poissons Ratio (y) = 0.16645 0.23860
# Poissons Ratio (z) = 0.24779 0.33244
#
# Static dielectric constant tensor:
#      x y z
#    x 3.675040 0.000000 0.000000 
#    y 0.000000 4.086320 0.000000 
#    z 0.000000 0.000000 3.665420 
# 
# 
# High freq. dielectric constant tensor:
#      x y z
#    x 1.809210 0.000000 0.000000 
#    y 0.000000 1.832210 0.000000 
#    z 0.000000 0.000000 1.809770 
# 
# From -- ./inp_files/14008.got.cif
#   From: 2010.03.12/outbox.cif.g09.slc.cpg/sg65_8_cif.got.tgz:14008.got - 2010.04.10 20:52:16.
