data_PCOD8271777
_publ_section_title
;
Structure prediction by ZEFSAII (Michael W. Deem and Ramdas Pophale) SiO2 
 PCOD8271777
Probable space group: C M M M
;
_chemical_formula_sum "Si O2"
_cell_formula_units_Z 88
_cell_length_a 8.674367
_cell_length_b 21.901912
_cell_length_c 23.944197
_cell_angle_alpha 90.000000
_cell_angle_beta 90.000000
_cell_angle_gamma 90.000000
_cell_volume 4549.043599
_symmetry_space_group_name_H-M "C M M M"
_symmetry_group_IT_number 65
_symmetry_cell_setting 'orthorhombic'
loop_
_space_group_symop_operation_xyz
x,y,z
-x,-y,z
x,-y,-z
-x,y,-z
-x,-y,-z
x,y,-z
-x,y,z
x,-y,z
1/2+x,1/2+y,z
1/2-x,1/2-y,z
1/2+x,1/2-y,-z
1/2-x,1/2+y,-z
1/2-x,1/2-y,-z
1/2+x,1/2+y,-z
1/2-x,1/2+y,z
1/2+x,1/2-y,z
loop_
_atom_site_type_symbol
_atom_site_label
_atom_site_fract_x
_atom_site_fract_y
_atom_site_fract_z
Si Si1 0.678845 0.105484 0.856632
Si Si2 0.177743 0.813387 0.940250
Si Si3 0.324772 0.570295 0.254983
Si Si4 0.179435 0.814035 0.565222
Si Si5 0.683854 0.000000 0.062978
Si Si6 0.181088 0.430049 0.627942
O O1 0.500000 0.095176 0.843635
O O2 0.714680 0.167040 0.888805
O O3 0.767420 0.107772 0.798121
O O4 0.745179 0.056634 0.900938
O O5 0.250000 0.750000 0.955545
O O6 0.000000 0.810981 0.920907
O O7 0.191322 0.850489 0.000000
O O8 0.500000 0.588105 0.269467
O O9 0.308453 0.500000 0.238363
O O10 0.220682 0.585793 0.308262
O O11 0.216092 0.817715 0.500000
O O12 0.250000 0.750000 0.589166
O O13 0.245792 0.876850 0.590462
O O14 0.000000 0.812041 0.578788
O O15 0.500000 0.000000 0.059541
O O16 0.752816 0.000000 0.000000
O O17 0.239999 0.500000 0.613400
O O18 0.000000 0.427510 0.619018
#
# Coordination Sequence:
#
# PCOD8271777 Si02
#       6
#    16  16  16  16   8  16
#     4  11  20  33  54  78 107 140 177 220 269 328
#     4  10  21  37  55  75 100 133 174 220 272 330
#     4  10  20  35  55  79 111 148 187 230 279 332
#     4  10  21  38  61  89 123 162 201 242 293 350
#     4   9  18  30  47  75 107 137 170 211 262 321
#     4  10  21  37  59  87 119 156 201 247 292 345
#
# _framework density 19.344726999999999
#
# number of rings (size 3 to 8) (size 9 to 14) (size 15 to 20)
#    0.000    1.909    0.909    3.273    0.000    5.091 
#    0.000    2.727    0.000    2.182    0.000    0.000 
#    0.000    0.000    0.000    0.000    0.000    0.000 
#
# Total GULP energy -545170.532030 kJ/mol
# GULP energy per Si atom -12390.239364 kJ/mol
# Density = 1.930070 g / cm^3
# Si number density = 19.344727 Si / 1000 Ang^3
#
#
#
# Elastic Constant Matrix: (Units=GPa)
#
#
# Indices 1 2 3 4 5 6 
#
# 1 65.2238 38.1276 39.6923 0.0000 0.0000 0.0000
# 2 38.1276 103.5395 54.7510 0.0000 0.0000 0.0000
# 3 39.6923 54.7510 89.8843 0.0000 0.0000 0.0000
# 4 0.0000 0.0000 0.0000 24.0522 0.0000 0.0000
# 5 0.0000 0.0000 0.0000 0.0000 33.0855 0.0000
# 6 0.0000 0.0000 0.0000 0.0000 0.0000 30.1043
#
#
#
# Elastic Compliance Matrix: (Units=1/GPa)
#
#
# Indices 1 2 3 4 5 6 
#
# 1 0.022260 -0.004424 -0.007135 0.000000 0.000000 0.000000
# 2 -0.004424 0.015126 -0.007260 0.000000 0.000000 0.000000
# 3 -0.007135 -0.007260 0.018699 0.000000 0.000000 0.000000
# 4 0.000000 0.000000 0.000000 0.041576 0.000000 0.000000
# 5 0.000000 0.000000 0.000000 0.000000 0.030225 0.000000
# 6 0.000000 0.000000 0.000000 0.000000 0.000000 0.033218
#
#
# Mechanical properties :
#
#
# Convention : Reuss Voigt Hill
#
# Bulk Modulus (GPa) = 54.21147 58.19883 56.20515
# Shear Modulus (GPa) = 24.40313 25.85352 25.12833
#
# Velocity S-wave (km/s) = 3.55560 3.65973 3.60804
# Velocity P-wave (km/s) = 6.70381 6.92883 6.81725
#
# Compressibility (1/GPa) = 0.01844628
#
# Stress axis : x y z
#
# Youngs Moduli (GPa) = 44.92342 66.10916 53.47977
#
# Poissons Ratio (x) = 0.29248 0.38158
# Poissons Ratio (y) = 0.19875 0.38828
# Poissons Ratio (z) = 0.32053 0.47997
#
# Static dielectric constant tensor:
#      x y z
#    x 3.503590 0.000000 0.000000 
#    y 0.000000 3.560190 0.000000 
#    z 0.000000 0.000000 3.466020 
# 
# 
# High freq. dielectric constant tensor:
#      x y z
#    x 1.754760 0.000000 0.000000 
#    y 0.000000 1.741120 0.000000 
#    z 0.000000 0.000000 1.753290 
# 
# From -- ./inp_files/67552.got.cif
#   From: 2010.03.12/outbox.cif.g09.slc.cpg/sg65_34_cif.got.tgz:67552.got - 2010.04.10 20:52:16.
