data_PCOD8271369
_publ_section_title
;
Structure prediction by ZEFSAII (Michael W. Deem and Ramdas Pophale) SiO2 
 PCOD8271369
Probable space group: C M M M
;
_chemical_formula_sum "Si O2"
_cell_formula_units_Z 104
_cell_length_a 28.048559
_cell_length_b 9.024506
_cell_length_c 21.360800
_cell_angle_alpha 90.000000
_cell_angle_beta 90.000000
_cell_angle_gamma 90.000000
_cell_volume 5406.939448
_symmetry_space_group_name_H-M "C M M M"
_symmetry_group_IT_number 65
_symmetry_cell_setting 'orthorhombic'
loop_
_space_group_symop_operation_xyz
x,y,z
-x,-y,z
x,-y,-z
-x,y,-z
-x,-y,-z
x,y,-z
-x,y,z
x,-y,z
1/2+x,1/2+y,z
1/2-x,1/2-y,z
1/2+x,1/2-y,-z
1/2-x,1/2+y,-z
1/2-x,1/2-y,-z
1/2+x,1/2+y,-z
1/2-x,1/2+y,z
1/2+x,1/2-y,z
loop_
_atom_site_type_symbol
_atom_site_label
_atom_site_fract_x
_atom_site_fract_y
_atom_site_fract_z
Si Si1 0.446391 0.825712 0.865897
Si Si2 0.702284 0.331377 0.426125
Si Si3 0.884382 0.329614 0.749572
Si Si4 0.608811 0.828533 0.609184
Si Si5 0.136692 0.828170 0.070175
Si Si6 0.943832 0.832986 0.500000
Si Si7 0.800925 0.175076 0.813679
O O1 0.500000 0.761791 0.871254
O O2 0.425661 0.782758 0.797819
O O3 0.413099 0.755682 0.919075
O O4 0.446664 0.000000 0.876169
O O5 0.694691 0.325547 0.500000
O O6 0.703319 0.500000 0.401875
O O7 0.750000 0.250000 0.404998
O O8 0.660755 0.240664 0.394137
O O9 0.869004 0.500000 0.759263
O O10 0.907297 0.306020 0.680931
O O11 0.837149 0.230674 0.759910
O O12 0.572711 0.747509 0.562888
O O13 0.610851 0.000000 0.589766
O O14 0.177543 0.776544 0.118724
O O15 0.125804 0.000000 0.080048
O O16 0.154911 0.793416 0.000000
O O17 0.000000 0.834044 0.500000
O O18 0.922936 0.000000 0.500000
O O19 0.750000 0.250000 0.804505
O O20 0.794678 0.000000 0.807851
#
# Coordination Sequence:
#
# PCOD8271369 Si02
#       7
#    16  16  16  16  16   8  16
#     4   9  18  34  55  78 106 139 177 223 272 321
#     4  10  20  34  54  79 109 142 174 212 261 318
#     4   9  20  37  56  80 108 141 180 224 271 320
#     4  11  22  37  60  85 110 141 181 227 276 328
#     4   9  19  35  53  77 110 145 182 223 267 318
#     4  11  25  43  60  81 112 147 181 221 273 331
#     4  10  20  35  56  80 109 147 186 225 268 316
#
# _framework density 19.234542000000001
#
# number of rings (size 3 to 8) (size 9 to 14) (size 15 to 20)
#    0.000    2.231    0.769    1.615    0.000    5.538 
#    0.000    3.077    0.000    0.000    0.000    0.000 
#    0.000    0.000    0.000    0.000    0.000    0.000 
#
# Total GULP energy -644873.633007 kJ/mol
# GULP energy per Si atom -12401.416019 kJ/mol
# Density = 1.919076 g / cm^3
# Si number density = 19.234542 Si / 1000 Ang^3
#
#
#
# Elastic Constant Matrix: (Units=GPa)
#
#
# Indices 1 2 3 4 5 6 
#
# 1 66.1275 25.2472 18.7854 0.0000 0.0000 0.0000
# 2 25.2472 90.6484 33.6293 0.0000 0.0000 0.0000
# 3 18.7854 33.6293 87.1196 0.0000 0.0000 0.0000
# 4 0.0000 0.0000 0.0000 26.1431 0.0000 0.0000
# 5 0.0000 0.0000 0.0000 0.0000 16.2228 0.0000
# 6 0.0000 0.0000 0.0000 0.0000 0.0000 28.0918
#
#
#
# Elastic Compliance Matrix: (Units=1/GPa)
#
#
# Indices 1 2 3 4 5 6 
#
# 1 0.017269 -0.004001 -0.002179 0.000000 0.000000 0.000000
# 2 -0.004001 0.013803 -0.004465 0.000000 0.000000 0.000000
# 3 -0.002179 -0.004465 0.013672 0.000000 0.000000 0.000000
# 4 0.000000 0.000000 0.000000 0.038251 0.000000 0.000000
# 5 0.000000 0.000000 0.000000 0.000000 0.061642 0.000000
# 6 0.000000 0.000000 0.000000 0.000000 0.000000 0.035598
#
#
# Mechanical properties :
#
#
# Convention : Reuss Voigt Hill
#
# Bulk Modulus (GPa) = 42.63964 44.35770 43.49867
# Shear Modulus (GPa) = 23.88429 25.17377 24.52903
#
# Velocity S-wave (km/s) = 3.52766 3.62163 3.57495
# Velocity P-wave (km/s) = 6.22968 6.37180 6.30114
#
# Compressibility (1/GPa) = 0.02345236
#
# Stress axis : x y z
#
# Youngs Moduli (GPa) = 57.90711 72.45016 73.14231
#
# Poissons Ratio (x) = 0.28989 0.15939
# Poissons Ratio (y) = 0.23170 0.32659
# Poissons Ratio (z) = 0.12619 0.32350
#
# Static dielectric constant tensor:
#      x y z
#    x 3.565100 0.000000 0.000000 
#    y 0.000000 3.615670 0.000000 
#    z 0.000000 0.000000 3.608150 
# 
# 
# High freq. dielectric constant tensor:
#      x y z
#    x 1.743230 0.000000 0.000000 
#    y 0.000000 1.753460 0.000000 
#    z 0.000000 0.000000 1.748200 
# 
# From -- ./inp_files/65847.got.cif
#   From: 2010.03.12/outbox.cif.g09.slc.cpg/sg65_33_cif.got.tgz:65847.got - 2010.04.10 20:52:16.
