data_PCOD8271318
_publ_section_title
;
Structure prediction by ZEFSAII (Michael W. Deem and Ramdas Pophale) SiO2 
 PCOD8271318
Probable space group: C M M M
;
_chemical_formula_sum "Si O2"
_cell_formula_units_Z 80
_cell_length_a 18.039590
_cell_length_b 27.783497
_cell_length_c 8.847169
_cell_angle_alpha 90.000000
_cell_angle_beta 90.000000
_cell_angle_gamma 90.000000
_cell_volume 4434.226712
_symmetry_space_group_name_H-M "C M M M"
_symmetry_group_IT_number 65
_symmetry_cell_setting 'orthorhombic'
loop_
_space_group_symop_operation_xyz
x,y,z
-x,-y,z
x,-y,-z
-x,y,-z
-x,-y,-z
x,y,-z
-x,y,z
x,-y,z
1/2+x,1/2+y,z
1/2-x,1/2-y,z
1/2+x,1/2-y,-z
1/2-x,1/2+y,-z
1/2-x,1/2-y,-z
1/2+x,1/2+y,-z
1/2-x,1/2+y,z
1/2+x,1/2-y,z
loop_
_atom_site_type_symbol
_atom_site_label
_atom_site_fract_x
_atom_site_fract_y
_atom_site_fract_z
Si Si1 0.580286 0.403576 0.176335
Si Si2 0.730721 0.554250 0.821412
Si Si3 0.202666 0.354964 0.321618
Si Si4 0.340530 0.693018 0.175898
Si Si5 0.914797 0.291999 0.178448
O O1 0.500000 0.415591 0.252068
O O2 0.646716 0.436849 0.240176
O O3 0.598568 0.347849 0.207953
O O4 0.573359 0.413425 0.000000
O O5 0.754875 0.500000 0.781499
O O6 0.786138 0.591129 0.741499
O O7 0.733387 0.564305 0.000000
O O8 0.202844 0.357187 0.500000
O O9 0.265696 0.318057 0.266349
O O10 0.123536 0.336662 0.262167
O O11 0.375092 0.742937 0.231612
O O12 0.318782 0.694669 0.000000
O O13 0.000000 0.290279 0.229173
O O14 0.907457 0.298868 0.000000
#
# Coordination Sequence:
#
# PCOD8271318 Si02
#       5
#    16  16  16  16  16
#     4   8  13  23  43  73 104 128 156 199 245 285
#     4   9  18  33  53  74  95 125 168 215 258 298
#     4  11  22  34  50  73 103 137 168 201 245 298
#     4   9  17  31  51  74 101 135 173 206 236 279
#     4  10  20  34  54  78 102 130 166 209 253 293
#
# _framework density 18.041477
#
# number of rings (size 3 to 8) (size 9 to 14) (size 15 to 20)
#    0.000    2.600    0.000    4.200    0.000    6.800 
#    0.000    2.000    0.000   15.000    0.000    9.800 
#    0.000    0.000    0.000    0.000    0.000    0.000 
#
# Total GULP energy -495896.056751 kJ/mol
# GULP energy per Si atom -12397.401419 kJ/mol
# Density = 1.800041 g / cm^3
# Si number density = 18.041477 Si / 1000 Ang^3
#
#
#
# Elastic Constant Matrix: (Units=GPa)
#
#
# Indices 1 2 3 4 5 6 
#
# 1 91.3164 67.7978 40.7331 0.0000 0.0000 0.0000
# 2 67.7978 129.6813 45.8271 0.0000 0.0000 0.0000
# 3 40.7331 45.8271 59.1127 0.0000 0.0000 0.0000
# 4 0.0000 0.0000 0.0000 12.3894 0.0000 0.0000
# 5 0.0000 0.0000 0.0000 0.0000 2.9881 0.0000
# 6 0.0000 0.0000 0.0000 0.0000 0.0000 15.1590
#
#
#
# Elastic Compliance Matrix: (Units=1/GPa)
#
#
# Indices 1 2 3 4 5 6 
#
# 1 0.020278 -0.007801 -0.007926 0.000000 0.000000 0.000000
# 2 -0.007801 0.013622 -0.005185 0.000000 0.000000 0.000000
# 3 -0.007926 -0.005185 0.026398 0.000000 0.000000 0.000000
# 4 0.000000 0.000000 0.000000 0.080714 0.000000 0.000000
# 5 0.000000 0.000000 0.000000 0.000000 0.334666 0.000000
# 6 0.000000 0.000000 0.000000 0.000000 0.000000 0.065967
#
#
# Mechanical properties :
#
#
# Convention : Reuss Voigt Hill
#
# Bulk Modulus (GPa) = 54.12710 65.42514 59.77612
# Shear Modulus (GPa) = 8.47996 14.49078 11.48537
#
# Velocity S-wave (km/s) = 2.17036 2.83714 2.52585
# Velocity P-wave (km/s) = 6.02887 6.86112 6.45841
#
# Compressibility (1/GPa) = 0.01847503
#
# Stress axis : x y z
#
# Youngs Moduli (GPa) = 49.31514 73.41267 37.88185
#
# Poissons Ratio (x) = 0.57266 0.30024
# Poissons Ratio (y) = 0.38468 0.19642
# Poissons Ratio (z) = 0.39085 0.38065
#
# Static dielectric constant tensor:
#      x y z
#    x 3.409850 0.000000 0.000000 
#    y 0.000000 3.343790 0.000000 
#    z 0.000000 0.000000 2.972340 
# 
# 
# High freq. dielectric constant tensor:
#      x y z
#    x 1.691700 0.000000 0.000000 
#    y 0.000000 1.694890 0.000000 
#    z 0.000000 0.000000 1.662590 
# 
# From -- ./inp_files/9570.got.cif
#   From: 2010.03.12/outbox.cif.g09.slc.cpg/sg65_5_cif.got.tgz:9570.got - 2010.04.10 20:52:16.
