data_PCOD8271137
_publ_section_title
;
Structure prediction by ZEFSAII (Michael W. Deem and Ramdas Pophale) SiO2 
 PCOD8271137
Probable space group: C M M M
;
_chemical_formula_sum "Si O2"
_cell_formula_units_Z 120
_cell_length_a 23.034461
_cell_length_b 19.277990
_cell_length_c 14.928229
_cell_angle_alpha 90.000000
_cell_angle_beta 90.000000
_cell_angle_gamma 90.000000
_cell_volume 6629.001138
_symmetry_space_group_name_H-M "C M M M"
_symmetry_group_IT_number 65
_symmetry_cell_setting 'orthorhombic'
loop_
_space_group_symop_operation_xyz
x,y,z
-x,-y,z
x,-y,-z
-x,y,-z
-x,-y,-z
x,y,-z
-x,y,z
x,-y,z
1/2+x,1/2+y,z
1/2-x,1/2-y,z
1/2+x,1/2-y,-z
1/2-x,1/2+y,-z
1/2-x,1/2-y,-z
1/2+x,1/2+y,-z
1/2-x,1/2+y,z
1/2+x,1/2-y,z
loop_
_atom_site_type_symbol
_atom_site_label
_atom_site_fract_x
_atom_site_fract_y
_atom_site_fract_z
Si Si1 0.743985 0.581685 0.267239
Si Si2 0.933869 0.581368 0.500000
Si Si3 0.646482 0.578137 0.398401
Si Si4 0.932192 0.703285 0.241407
Si Si5 0.872168 0.581892 0.314113
Si Si6 0.330245 0.418947 0.897884
Si Si7 0.433875 0.317680 0.896435
Si Si8 0.432393 0.296131 0.400304
O O1 0.746825 0.500000 0.272547
O O2 0.697818 0.609733 0.338582
O O3 0.806573 0.609020 0.298615
O O4 0.722762 0.604588 0.167343
O O5 0.942157 0.500000 0.500000
O O6 0.897111 0.602884 0.412088
O O7 0.000000 0.614548 0.500000
O O8 0.669048 0.578827 0.500000
O O9 0.629244 0.500000 0.368834
O O10 0.591172 0.626608 0.384736
O O11 0.907039 0.625285 0.238923
O O12 0.914744 0.747580 0.154333
O O13 0.906227 0.742515 0.328819
O O14 0.000000 0.694792 0.249121
O O15 0.879555 0.500000 0.295659
O O16 0.344024 0.500000 0.885196
O O17 0.389777 0.379563 0.871668
O O18 0.311379 0.402219 0.000000
O O19 0.500000 0.339804 0.869721
O O20 0.430179 0.298918 0.000000
O O21 0.417337 0.268300 0.500000
O O22 0.500000 0.304019 0.384703
#
# Coordination Sequence:
#
# PCOD8271137 Si02
#       8
#    16   8  16  16  16  16  16  16
#     4   9  18  32  49  71 101 134 170 209 254 306
#     4   9  18  32  52  80 105 122 154 210 267 314
#     4   9  17  29  47  68  94 132 173 208 239 284
#     4  10  20  34  53  73  99 133 163 203 261 316
#     4  10  21  35  54  77 101 130 166 211 260 313
#     4   9  17  31  53  79 107 139 175 217 258 296
#     4   9  18  33  53  78 107 138 173 213 261 312
#     4   9  18  31  46  68  98 130 165 204 249 300
#
# _framework density 18.102274999999999
#
# number of rings (size 3 to 8) (size 9 to 14) (size 15 to 20)
#    0.000    2.733    0.000    1.200    1.867    1.333 
#    0.000    6.000    0.000    9.200    0.000    1.867 
#    0.000    0.000    0.000    0.000    0.000    0.000 
#
# Total GULP energy -743582.046680 kJ/mol
# GULP energy per Si atom -12393.034111 kJ/mol
# Density = 1.806107 g / cm^3
# Si number density = 18.102275 Si / 1000 Ang^3
#
#
#
# Elastic Constant Matrix: (Units=GPa)
#
#
# Indices 1 2 3 4 5 6 
#
# 1 82.5057 35.0438 52.9942 0.0000 0.0000 0.0000
# 2 35.0438 65.6967 33.2283 0.0000 0.0000 0.0000
# 3 52.9942 33.2283 85.5838 0.0000 0.0000 0.0000
# 4 0.0000 0.0000 0.0000 23.9545 0.0000 0.0000
# 5 0.0000 0.0000 0.0000 0.0000 29.1681 0.0000
# 6 0.0000 0.0000 0.0000 0.0000 0.0000 20.6819
#
#
#
# Elastic Compliance Matrix: (Units=1/GPa)
#
#
# Indices 1 2 3 4 5 6 
#
# 1 0.021869 -0.005993 -0.011215 0.000000 0.000000 0.000000
# 2 -0.005993 0.020583 -0.004281 0.000000 0.000000 0.000000
# 3 -0.011215 -0.004281 0.020291 0.000000 0.000000 0.000000
# 4 0.000000 0.000000 0.000000 0.041746 0.000000 0.000000
# 5 0.000000 0.000000 0.000000 0.000000 0.034284 0.000000
# 6 0.000000 0.000000 0.000000 0.000000 0.000000 0.048351
#
#
# Mechanical properties :
#
#
# Convention : Reuss Voigt Hill
#
# Bulk Modulus (GPa) = 50.59117 52.92432 51.75774
# Shear Modulus (GPa) = 21.12465 22.26224 21.69345
#
# Velocity S-wave (km/s) = 3.41979 3.51066 3.46552
# Velocity P-wave (km/s) = 6.60313 6.76260 6.68334
#
# Compressibility (1/GPa) = 0.01976630
#
# Stress axis : x y z
#
# Youngs Moduli (GPa) = 45.72621 48.58287 49.28384
#
# Poissons Ratio (x) = 0.29117 0.55270
# Poissons Ratio (y) = 0.27405 0.21096
# Poissons Ratio (z) = 0.51281 0.20796
#
# Static dielectric constant tensor:
#      x y z
#    x 3.458190 0.000000 0.000000 
#    y 0.000000 3.258720 0.000000 
#    z 0.000000 0.000000 3.547570 
# 
# 
# High freq. dielectric constant tensor:
#      x y z
#    x 1.689950 0.000000 0.000000 
#    y 0.000000 1.686180 0.000000 
#    z 0.000000 0.000000 1.702840 
# 
# From -- ./inp_files/44715.got.cif
#   From: 2010.03.12/outbox.cif.g09.slc.cpg/sg65_23_cif.got.tgz:44715.got - 2010.04.10 20:52:16.
