data_PCOD8271359
_publ_section_title
;
Structure prediction by ZEFSAII (Michael W. Deem and Ramdas Pophale) SiO2 
 PCOD8271359
Probable space group: C M M M
;
_chemical_formula_sum "Si O2"
_cell_formula_units_Z 96
_cell_length_a 24.105497
_cell_length_b 23.789778
_cell_length_c 8.857168
_cell_angle_alpha 90.000000
_cell_angle_beta 90.000000
_cell_angle_gamma 90.000000
_cell_volume 5079.270730
_symmetry_space_group_name_H-M "C M M M"
_symmetry_group_IT_number 65
_symmetry_cell_setting 'orthorhombic'
loop_
_space_group_symop_operation_xyz
x,y,z
-x,-y,z
x,-y,-z
-x,y,-z
-x,-y,-z
x,y,-z
-x,y,z
x,-y,z
1/2+x,1/2+y,z
1/2-x,1/2-y,z
1/2+x,1/2-y,-z
1/2-x,1/2+y,-z
1/2-x,1/2-y,-z
1/2+x,1/2+y,-z
1/2-x,1/2+y,z
1/2+x,1/2-y,z
loop_
_atom_site_type_symbol
_atom_site_label
_atom_site_fract_x
_atom_site_fract_y
_atom_site_fract_z
Si Si1 0.343305 0.140501 0.177804
Si Si2 0.869024 0.061245 0.676538
Si Si3 0.341369 0.269780 0.823344
Si Si4 0.563113 0.335950 0.675417
Si Si5 0.563788 0.064459 0.676655
Si Si6 0.270387 0.638925 0.320948
O O1 0.346703 0.205359 0.226981
O O2 0.396896 0.106620 0.233035
O O3 0.287785 0.117131 0.255619
O O4 0.338636 0.133081 0.000000
O O5 0.861666 0.052719 0.500000
O O6 0.923323 0.098742 0.711121
O O7 0.814934 0.093460 0.737959
O O8 0.875038 0.000000 0.754968
O O9 0.399964 0.296465 0.778969
O O10 0.289470 0.299975 0.741133
O O11 0.330790 0.275840 0.000000
O O12 0.576276 0.323049 0.500000
O O13 0.500000 0.323762 0.716981
O O14 0.573575 0.073805 0.500000
O O15 0.500000 0.078070 0.719073
O O16 0.577657 0.000000 0.720538
O O17 0.267296 0.642699 0.500000
#
# Coordination Sequence:
#
# PCOD8271359 Si02
#       6
#    16  16  16  16  16  16
#     4  11  23  36  54  81 108 138 176 213 258 320
#     4   8  15  29  49  74 103 133 167 210 257 301
#     4  10  21  36  52  73 106 143 176 215 265 318
#     4   9  18  32  51  76 103 134 176 220 260 307
#     4   9  20  40  62  82 106 137 174 217 263 310
#     4  10  20  34  54  79 106 138 177 220 265 311
#
# _framework density 18.90035
#
# number of rings (size 3 to 8) (size 9 to 14) (size 15 to 20)
#    0.000    2.500    0.000    3.500    0.000    7.333 
#    0.000    7.500    0.000   12.000    0.000    4.667 
#    0.000    0.000    0.000    0.000    0.000    0.000 
#
# Total GULP energy -595104.704892 kJ/mol
# GULP energy per Si atom -12398.014685 kJ/mol
# Density = 1.885733 g / cm^3
# Si number density = 18.900350 Si / 1000 Ang^3
#
#
#
# Elastic Constant Matrix: (Units=GPa)
#
#
# Indices 1 2 3 4 5 6 
#
# 1 92.2468 15.7063 23.1721 0.0000 0.0000 0.0000
# 2 15.7063 63.3302 19.3669 0.0000 0.0000 0.0000
# 3 23.1721 19.3669 50.2363 0.0000 0.0000 0.0000
# 4 0.0000 0.0000 0.0000 2.2615 0.0000 0.0000
# 5 0.0000 0.0000 0.0000 0.0000 26.2110 0.0000
# 6 0.0000 0.0000 0.0000 0.0000 0.0000 24.3615
#
#
#
# Elastic Compliance Matrix: (Units=1/GPa)
#
#
# Indices 1 2 3 4 5 6 
#
# 1 0.012386 -0.001502 -0.005134 0.000000 0.000000 0.000000
# 2 -0.001502 0.018083 -0.006279 0.000000 0.000000 0.000000
# 3 -0.005134 -0.006279 0.024695 0.000000 0.000000 0.000000
# 4 0.000000 0.000000 0.000000 0.442177 0.000000 0.000000
# 5 0.000000 0.000000 0.000000 0.000000 0.038152 0.000000
# 6 0.000000 0.000000 0.000000 0.000000 0.000000 0.041048
#
#
# Mechanical properties :
#
#
# Convention : Reuss Voigt Hill
#
# Bulk Modulus (GPa) = 34.08970 35.81155 34.95062
# Shear Modulus (GPa) = 8.16796 20.40467 14.28632
#
# Velocity S-wave (km/s) = 2.08110 3.28928 2.75230
# Velocity P-wave (km/s) = 4.88368 5.78053 5.35093
#
# Compressibility (1/GPa) = 0.02933438
#
# Stress axis : x y z
#
# Youngs Moduli (GPa) = 80.73719 55.30143 40.49462
#
# Poissons Ratio (x) = 0.08305 0.20791
# Poissons Ratio (y) = 0.12124 0.25425
# Poissons Ratio (z) = 0.41452 0.34721
#
# Static dielectric constant tensor:
#      x y z
#    x 3.496100 0.000000 0.000000 
#    y 0.000000 3.698450 0.000000 
#    z 0.000000 0.000000 3.246040 
# 
# 
# High freq. dielectric constant tensor:
#      x y z
#    x 1.740690 0.000000 0.000000 
#    y 0.000000 1.735160 0.000000 
#    z 0.000000 0.000000 1.717730 
# 
# From -- ./inp_files/14279.got.cif
#   From: 2010.03.12/outbox.cif.g09.slc.cpg/sg65_8_cif.got.tgz:14279.got - 2010.04.10 20:52:16.
