data_PCOD8271928
_publ_section_title
;
Structure prediction by ZEFSAII (Michael W. Deem and Ramdas Pophale) SiO2 
 PCOD8271928
Probable space group: C M M M
;
_chemical_formula_sum "Si O2"
_cell_formula_units_Z 96
_cell_length_a 17.992602
_cell_length_b 11.324312
_cell_length_c 25.807071
_cell_angle_alpha 90.000000
_cell_angle_beta 90.000000
_cell_angle_gamma 90.000000
_cell_volume 5258.289783
_symmetry_space_group_name_H-M "C M M M"
_symmetry_group_IT_number 65
_symmetry_cell_setting 'orthorhombic'
loop_
_space_group_symop_operation_xyz
x,y,z
-x,-y,z
x,-y,-z
-x,y,-z
-x,-y,-z
x,y,-z
-x,y,z
x,-y,z
1/2+x,1/2+y,z
1/2-x,1/2-y,z
1/2+x,1/2-y,-z
1/2-x,1/2+y,-z
1/2-x,1/2-y,-z
1/2+x,1/2+y,-z
1/2-x,1/2+y,z
1/2+x,1/2-y,z
loop_
_atom_site_type_symbol
_atom_site_label
_atom_site_fract_x
_atom_site_fract_y
_atom_site_fract_z
Si Si1 0.582231 0.637324 0.351364
Si Si2 0.910284 0.500000 0.405911
Si Si3 0.088654 0.254368 0.248666
Si Si4 0.162522 0.740916 0.441507
Si Si5 0.912281 0.500000 0.286744
Si Si6 0.916732 0.864988 0.146728
Si Si7 0.700164 0.365119 0.059573
O O1 0.500000 0.694885 0.357549
O O2 0.575735 0.500000 0.344615
O O3 0.620397 0.686633 0.299077
O O4 0.628142 0.665379 0.402364
O O5 0.872360 0.387545 0.432231
O O6 0.885272 0.500000 0.345972
O O7 0.000000 0.500000 0.413576
O O8 0.116837 0.388062 0.254779
O O9 0.121200 0.205204 0.194665
O O10 0.000000 0.239790 0.247133
O O11 0.142893 0.779404 0.500000
O O12 0.250000 0.750000 0.432387
O O13 0.000000 0.500000 0.288177
O O14 0.872341 0.846466 0.094016
O O15 0.000000 0.818619 0.135755
O O16 0.917859 0.000000 0.164402
O O17 0.733959 0.500000 0.069988
O O18 0.750000 0.250000 0.072940
O O19 0.675545 0.357809 0.000000
#
# Coordination Sequence:
#
# PCOD8271928 Si02
#       7
#    16   8  16  16   8  16  16
#     4  10  20  35  57  80 103 136 177 218 263 324
#     4  11  21  40  67  88 105 139 194 238 266 326
#     4   9  16  30  51  78 108 137 172 219 272 321
#     4  11  25  40  56  79 111 143 174 221 283 336
#     4   9  16  29  54  81 105 133 175 227 269 310
#     4   9  17  30  52  81 110 139 176 224 273 323
#     4   9  18  34  55  77 106 146 188 227 270 320
#
# _framework density 18.256886000000002
#
# number of rings (size 3 to 8) (size 9 to 14) (size 15 to 20)
#    0.000    2.333    1.667    1.250    1.167    4.333 
#    1.500    3.333    0.000    0.000    0.000    2.333 
#    0.000    0.000    0.000    0.000    0.000    0.000 
#
# Total GULP energy -594814.579187 kJ/mol
# GULP energy per Si atom -12391.970400 kJ/mol
# Density = 1.821533 g / cm^3
# Si number density = 18.256886 Si / 1000 Ang^3
#
#
#
# Elastic Constant Matrix: (Units=GPa)
#
#
# Indices 1 2 3 4 5 6 
#
# 1 60.9013 39.3430 47.5449 0.0000 0.0000 0.0000
# 2 39.3430 106.9004 54.7862 0.0000 0.0000 0.0000
# 3 47.5449 54.7862 123.8703 0.0000 0.0000 0.0000
# 4 0.0000 0.0000 0.0000 36.2558 0.0000 0.0000
# 5 0.0000 0.0000 0.0000 0.0000 5.3836 0.0000
# 6 0.0000 0.0000 0.0000 0.0000 0.0000 22.1935
#
#
#
# Elastic Compliance Matrix: (Units=1/GPa)
#
#
# Indices 1 2 3 4 5 6 
#
# 1 0.025910 -0.005740 -0.007406 0.000000 0.000000 0.000000
# 2 -0.005740 0.013368 -0.003709 0.000000 0.000000 0.000000
# 3 -0.007406 -0.003709 0.012556 0.000000 0.000000 0.000000
# 4 0.000000 0.000000 0.000000 0.027582 0.000000 0.000000
# 5 0.000000 0.000000 0.000000 0.000000 0.185749 0.000000
# 6 0.000000 0.000000 0.000000 0.000000 0.000000 0.045058
#
#
# Mechanical properties :
#
#
# Convention : Reuss Voigt Hill
#
# Bulk Modulus (GPa) = 55.17812 63.89113 59.53462
# Shear Modulus (GPa) = 14.28671 22.76644 18.52658
#
# Velocity S-wave (km/s) = 2.80042 3.53513 3.18900
# Velocity P-wave (km/s) = 6.38320 7.19267 6.79999
#
# Compressibility (1/GPa) = 0.01812313
#
# Stress axis : x y z
#
# Youngs Moduli (GPa) = 38.59481 74.80510 79.64154
#
# Poissons Ratio (x) = 0.42939 0.58985
# Poissons Ratio (y) = 0.22154 0.29541
# Poissons Ratio (z) = 0.28584 0.27747
#
# Static dielectric constant tensor:
#      x y z
#    x 3.116630 0.000000 0.000000 
#    y 0.000000 3.691410 0.000000 
#    z 0.000000 0.000000 3.481520 
# 
# 
# High freq. dielectric constant tensor:
#      x y z
#    x 1.668080 0.000000 0.000000 
#    y 0.000000 1.718250 0.000000 
#    z 0.000000 0.000000 1.718890 
# 
# From -- ./inp_files/70505.got.cif
#   From: 2010.03.12/outbox.cif.g09.slc.cpg/sg65_36_cif.got.tgz:70505.got - 2010.04.10 20:52:16.
