data_PCOD8271143
_publ_section_title
;
Structure prediction by ZEFSAII (Michael W. Deem and Ramdas Pophale) SiO2 
 PCOD8271143
Probable space group: C M M M
;
_chemical_formula_sum "Si O2"
_cell_formula_units_Z 80
_cell_length_a 25.345832
_cell_length_b 18.430121
_cell_length_c 9.471917
_cell_angle_alpha 90.000000
_cell_angle_beta 90.000000
_cell_angle_gamma 90.000000
_cell_volume 4424.585810
_symmetry_space_group_name_H-M "C M M M"
_symmetry_group_IT_number 65
_symmetry_cell_setting 'orthorhombic'
loop_
_space_group_symop_operation_xyz
x,y,z
-x,-y,z
x,-y,-z
-x,y,-z
-x,-y,-z
x,y,-z
-x,y,z
x,-y,z
1/2+x,1/2+y,z
1/2-x,1/2-y,z
1/2+x,1/2-y,-z
1/2-x,1/2+y,-z
1/2-x,1/2-y,-z
1/2+x,1/2+y,-z
1/2-x,1/2+y,z
1/2+x,1/2-y,z
loop_
_atom_site_type_symbol
_atom_site_label
_atom_site_fract_x
_atom_site_fract_y
_atom_site_fract_z
Si Si1 0.658487 0.917220 0.336329
Si Si2 0.560081 0.314894 0.835017
Si Si3 0.745755 0.834080 0.833872
Si Si4 0.848773 0.081039 0.832499
Si Si5 0.559316 0.825819 0.338445
O O1 0.673897 0.908921 0.500000
O O2 0.695918 0.866977 0.244531
O O3 0.598230 0.892789 0.309609
O O4 0.663851 0.000000 0.285820
O O5 0.500000 0.337524 0.800341
O O6 0.597886 0.379353 0.781164
O O7 0.576684 0.241719 0.756707
O O8 0.568405 0.300085 0.000000
O O9 0.750000 0.750000 0.793900
O O10 0.798131 0.874539 0.778595
O O11 0.737538 0.845107 0.000000
O O12 0.847603 0.000000 0.767592
O O13 0.847966 0.076901 0.000000
O O14 0.562738 0.799843 0.500000
O O15 0.500000 0.851532 0.300258
#
# Coordination Sequence:
#
# PCOD8271143 Si02
#       5
#    16  16  16  16  16
#     4  10  21  35  51  74 102 129 161 203 247 290
#     4   9  17  30  50  74  97 123 159 202 241 279
#     4  10  20  34  53  74  97 130 169 204 242 292
#     4   9  17  29  46  70  99 128 159 196 239 288
#     4   9  18  33  52  72  96 128 162 196 239 291
#
# _framework density 18.08079
#
# number of rings (size 3 to 8) (size 9 to 14) (size 15 to 20)
#    0.000    2.600    0.000    1.800    0.000    4.800 
#    0.000    5.000    0.000    1.800    0.000    7.000 
#    0.000    0.000    0.000    0.000    0.000    0.000 
#
# Total GULP energy -496031.825934 kJ/mol
# GULP energy per Si atom -12400.795648 kJ/mol
# Density = 1.803964 g / cm^3
# Si number density = 18.080790 Si / 1000 Ang^3
#
#
#
# Elastic Constant Matrix: (Units=GPa)
#
#
# Indices 1 2 3 4 5 6 
#
# 1 117.5482 76.6345 36.9026 0.0000 0.0000 0.0000
# 2 76.6345 148.7954 45.0097 0.0000 0.0000 0.0000
# 3 36.9026 45.0097 36.6567 0.0000 0.0000 0.0000
# 4 0.0000 0.0000 0.0000 19.1816 0.0000 0.0000
# 5 0.0000 0.0000 0.0000 0.0000 25.0328 0.0000
# 6 0.0000 0.0000 0.0000 0.0000 0.0000 32.4168
#
#
#
# Elastic Compliance Matrix: (Units=1/GPa)
#
#
# Indices 1 2 3 4 5 6 
#
# 1 0.014304 -0.004791 -0.008518 0.000000 0.000000 0.000000
# 2 -0.004791 0.012296 -0.010275 0.000000 0.000000 0.000000
# 3 -0.008518 -0.010275 0.048472 0.000000 0.000000 0.000000
# 4 0.000000 0.000000 0.000000 0.052133 0.000000 0.000000
# 5 0.000000 0.000000 0.000000 0.000000 0.039948 0.000000
# 6 0.000000 0.000000 0.000000 0.000000 0.000000 0.030848
#
#
# Mechanical properties :
#
#
# Convention : Reuss Voigt Hill
#
# Bulk Modulus (GPa) = 35.83639 68.89934 52.36786
# Shear Modulus (GPa) = 19.64851 24.95647 22.30249
#
# Velocity S-wave (km/s) = 3.30010 3.71924 3.51592
# Velocity P-wave (km/s) = 5.86379 7.52547 6.74599
#
# Compressibility (1/GPa) = 0.02790459
#
# Stress axis : x y z
#
# Youngs Moduli (GPa) = 69.90812 81.32590 20.63029
#
# Poissons Ratio (x) = 0.38960 0.17573
# Poissons Ratio (y) = 0.33490 0.21199
# Poissons Ratio (z) = 0.59549 0.83566
#
# Static dielectric constant tensor:
#      x y z
#    x 3.504730 0.000000 0.000000 
#    y 0.000000 3.470360 0.000000 
#    z 0.000000 0.000000 3.101170 
# 
# 
# High freq. dielectric constant tensor:
#      x y z
#    x 1.714650 0.000000 0.000000 
#    y 0.000000 1.702020 0.000000 
#    z 0.000000 0.000000 1.672180 
# 
# From -- ./inp_files/9598.got.cif
#   From: 2010.03.12/outbox.cif.g09.slc.cpg/sg65_5_cif.got.tgz:9598.got - 2010.04.10 20:52:16.
