data_PCOD8271474
_publ_section_title
;
Structure prediction by ZEFSAII (Michael W. Deem and Ramdas Pophale) SiO2 
 PCOD8271474
Probable space group: C M M M
;
_chemical_formula_sum "Si O2"
_cell_formula_units_Z 88
_cell_length_a 17.537855
_cell_length_b 8.707941
_cell_length_c 28.123489
_cell_angle_alpha 90.000000
_cell_angle_beta 90.000000
_cell_angle_gamma 90.000000
_cell_volume 4294.980053
_symmetry_space_group_name_H-M "C M M M"
_symmetry_group_IT_number 65
_symmetry_cell_setting 'orthorhombic'
loop_
_space_group_symop_operation_xyz
x,y,z
-x,-y,z
x,-y,-z
-x,y,-z
-x,-y,-z
x,y,-z
-x,y,z
x,-y,z
1/2+x,1/2+y,z
1/2-x,1/2-y,z
1/2+x,1/2-y,-z
1/2-x,1/2+y,-z
1/2-x,1/2-y,-z
1/2+x,1/2+y,-z
1/2-x,1/2+y,z
1/2+x,1/2-y,z
loop_
_atom_site_type_symbol
_atom_site_label
_atom_site_fract_x
_atom_site_fract_y
_atom_site_fract_z
Si Si1 0.411812 0.320656 0.176917
Si Si2 0.589333 0.671096 0.000000
Si Si3 0.668245 0.818714 0.912467
Si Si4 0.089305 0.822911 0.647214
Si Si5 0.667160 0.819094 0.735134
Si Si6 0.409567 0.827516 0.448059
O O1 0.500000 0.288691 0.165761
O O2 0.392904 0.500000 0.175359
O O3 0.360142 0.235694 0.138640
O O4 0.392737 0.255144 0.228596
O O5 0.611543 0.762954 0.046920
O O6 0.626237 0.500000 0.000000
O O7 0.500000 0.654682 0.000000
O O8 0.750000 0.750000 0.924081
O O9 0.673209 0.000000 0.912728
O O10 0.138113 0.718552 0.682476
O O11 0.118475 0.784833 0.593859
O O12 0.000000 0.784154 0.653118
O O13 0.106054 0.000000 0.658210
O O14 0.750000 0.750000 0.744587
O O15 0.670641 0.000000 0.742719
O O16 0.379127 0.771227 0.500000
O O17 0.500000 0.827236 0.449308
O O18 0.380051 0.000000 0.437829
#
# Coordination Sequence:
#
# PCOD8271474 Si02
#       6
#    16   8  16  16  16  16
#     4  11  24  43  66  92 123 156 193 240 293 348
#     4  11  24  43  66  93 127 165 206 253 304 353
#     4  12  25  42  65  93 127 164 205 249 296 352
#     4  10  20  34  54  82 115 149 188 235 286 341
#     4  12  25  41  61  84 114 151 193 239 289 347
#     4   8  14  26  46  74 108 145 186 232 281 334
#
# _framework density 20.489035999999999
#
# number of rings (size 3 to 8) (size 9 to 14) (size 15 to 20)
#    0.000    1.364    0.000    7.091    0.000    8.000 
#    0.000    1.818    0.000    0.545    0.000    0.000 
#    0.000    0.000    0.000    0.000    0.000    0.000 
#
# Total GULP energy -545757.715405 kJ/mol
# GULP energy per Si atom -12403.584441 kJ/mol
# Density = 2.044240 g / cm^3
# Si number density = 20.489036 Si / 1000 Ang^3
#
#
#
# Elastic Constant Matrix: (Units=GPa)
#
#
# Indices 1 2 3 4 5 6 
#
# 1 60.2068 44.9928 21.2427 0.0000 0.0000 0.0000
# 2 44.9928 143.4969 37.1978 0.0000 0.0000 0.0000
# 3 21.2427 37.1978 114.8206 0.0000 0.0000 0.0000
# 4 0.0000 0.0000 0.0000 46.0029 0.0000 0.0000
# 5 0.0000 0.0000 0.0000 0.0000 13.8575 0.0000
# 6 0.0000 0.0000 0.0000 0.0000 0.0000 28.5210
#
#
#
# Elastic Compliance Matrix: (Units=1/GPa)
#
#
# Indices 1 2 3 4 5 6 
#
# 1 0.022111 -0.006411 -0.002014 0.000000 0.000000 0.000000
# 2 -0.006411 0.009466 -0.001881 0.000000 0.000000 0.000000
# 3 -0.002014 -0.001881 0.009691 0.000000 0.000000 0.000000
# 4 0.000000 0.000000 0.000000 0.021738 0.000000 0.000000
# 5 0.000000 0.000000 0.000000 0.000000 0.072163 0.000000
# 6 0.000000 0.000000 0.000000 0.000000 0.000000 0.035062
#
#
# Mechanical properties :
#
#
# Convention : Reuss Voigt Hill
#
# Bulk Modulus (GPa) = 48.40817 58.37677 53.39247
# Shear Modulus (GPa) = 25.28737 32.01568 28.65152
#
# Velocity S-wave (km/s) = 3.51692 3.95723 3.74355
# Velocity P-wave (km/s) = 6.33792 7.03087 6.69337
#
# Compressibility (1/GPa) = 0.02065767
#
# Stress axis : x y z
#
# Youngs Moduli (GPa) = 45.22707 105.63721 103.18746
#
# Poissons Ratio (x) = 0.67720 0.20780
# Poissons Ratio (y) = 0.28994 0.19407
# Poissons Ratio (z) = 0.09108 0.19868
#
# Static dielectric constant tensor:
#      x y z
#    x 3.525180 0.000000 0.000000 
#    y 0.000000 3.847920 0.000000 
#    z 0.000000 0.000000 4.780280 
# 
# 
# High freq. dielectric constant tensor:
#      x y z
#    x 1.782730 0.000000 0.000000 
#    y 0.000000 1.811470 0.000000 
#    z 0.000000 0.000000 1.820520 
# 
# From -- ./inp_files/77970.got.cif
#   From: 2010.03.12/outbox.cif.g09.slc.cpg/sg65_39_cif.got.tgz:77970.got - 2010.04.10 20:52:16.
