data_PCOD8271237
_publ_section_title
;
Structure prediction by ZEFSAII (Michael W. Deem and Ramdas Pophale) SiO2 
 PCOD8271237
Probable space group: C M M M
;
_chemical_formula_sum "Si O2"
_cell_formula_units_Z 120
_cell_length_a 8.963209
_cell_length_b 27.969729
_cell_length_c 26.987138
_cell_angle_alpha 90.000000
_cell_angle_beta 90.000000
_cell_angle_gamma 90.000000
_cell_volume 6765.635736
_symmetry_space_group_name_H-M "C M M M"
_symmetry_group_IT_number 65
_symmetry_cell_setting 'orthorhombic'
loop_
_space_group_symop_operation_xyz
x,y,z
-x,-y,z
x,-y,-z
-x,y,-z
-x,-y,-z
x,y,-z
-x,y,z
x,-y,z
1/2+x,1/2+y,z
1/2-x,1/2-y,z
1/2+x,1/2-y,-z
1/2-x,1/2+y,-z
1/2-x,1/2-y,-z
1/2+x,1/2+y,-z
1/2-x,1/2+y,z
1/2+x,1/2-y,z
loop_
_atom_site_type_symbol
_atom_site_label
_atom_site_fract_x
_atom_site_fract_y
_atom_site_fract_z
Si Si1 0.323995 0.892223 0.090148
Si Si2 0.663156 0.444117 0.445831
Si Si3 0.330115 0.443459 0.000000
Si Si4 0.175692 0.945368 0.291034
Si Si5 0.327846 0.885920 0.626445
Si Si6 0.672584 0.299453 0.057691
Si Si7 0.323399 0.199911 0.443404
Si Si8 0.169795 0.445495 0.810441
O O1 0.500000 0.890296 0.080782
O O2 0.251617 0.925396 0.048776
O O3 0.255583 0.839510 0.089278
O O4 0.282903 0.912822 0.143713
O O5 0.680362 0.420771 0.500000
O O6 0.500000 0.429455 0.423347
O O7 0.671814 0.500000 0.450602
O O8 0.800802 0.428106 0.412573
O O9 0.325574 0.500000 0.000000
O O10 0.500000 0.424044 0.000000
O O11 0.241970 0.902381 0.324245
O O12 0.223352 0.933489 0.235249
O O13 0.000000 0.942732 0.295399
O O14 0.229006 0.000000 0.305513
O O15 0.500000 0.880935 0.639995
O O16 0.267564 0.838134 0.598331
O O17 0.500000 0.296673 0.072609
O O18 0.750000 0.250000 0.071449
O O19 0.692954 0.311968 0.000000
O O20 0.277256 0.185177 0.500000
O O21 0.500000 0.205003 0.440164
O O22 0.250000 0.250000 0.428788
O O23 0.189217 0.500000 0.827785
O O24 0.000000 0.435390 0.793919
#
# Coordination Sequence:
#
# PCOD8271237 Si02
#       8
#    16  16   8  16  16  16  16  16
#     4  11  21  34  55  80 108 141 178 220 269 322
#     4   9  18  31  45  65  97 134 168 201 240 292
#     4  11  23  35  48  73 110 147 181 217 259 313
#     4  10  21  36  54  77 104 136 176 218 259 308
#     4  11  21  32  50  75 102 131 166 211 258 304
#     4  10  20  34  53  77 108 142 179 219 261 310
#     4   9  19  35  53  75 103 134 170 211 256 309
#     4   9  19  36  56  78 105 139 178 218 262 313
#
# _framework density 17.736692999999999
#
# number of rings (size 3 to 8) (size 9 to 14) (size 15 to 20)
#    0.000    2.067    0.667    3.400    0.000    7.200 
#    0.000    3.333    0.000    0.800    0.000    3.733 
#    0.000    0.000    0.000    0.000    0.000    0.000 
#
# Total GULP energy -743749.128794 kJ/mol
# GULP energy per Si atom -12395.818813 kJ/mol
# Density = 1.769632 g / cm^3
# Si number density = 17.736693 Si / 1000 Ang^3
#
#
#
# Elastic Constant Matrix: (Units=GPa)
#
#
# Indices 1 2 3 4 5 6 
#
# 1 79.7917 49.3863 51.4324 0.0000 0.0000 0.0000
# 2 49.3863 102.1800 67.7922 0.0000 0.0000 0.0000
# 3 51.4324 67.7922 108.1375 0.0000 0.0000 0.0000
# 4 0.0000 0.0000 0.0000 37.6689 0.0000 0.0000
# 5 0.0000 0.0000 0.0000 0.0000 2.0513 0.0000
# 6 0.0000 0.0000 0.0000 0.0000 0.0000 31.4310
#
#
#
# Elastic Compliance Matrix: (Units=1/GPa)
#
#
# Indices 1 2 3 4 5 6 
#
# 1 0.019839 -0.005699 -0.005863 0.000000 0.000000 0.000000
# 2 -0.005699 0.018393 -0.008820 0.000000 0.000000 0.000000
# 3 -0.005863 -0.008820 0.017566 0.000000 0.000000 0.000000
# 4 0.000000 0.000000 0.000000 0.026547 0.000000 0.000000
# 5 0.000000 0.000000 0.000000 0.000000 0.487501 0.000000
# 6 0.000000 0.000000 0.000000 0.000000 0.000000 0.031816
#
#
# Mechanical properties :
#
#
# Convention : Reuss Voigt Hill
#
# Bulk Modulus (GPa) = 66.51951 69.70343 68.11147
# Shear Modulus (GPa) = 7.72276 22.33012 15.02644
#
# Velocity S-wave (km/s) = 2.08892 3.55206 2.91382
# Velocity P-wave (km/s) = 6.58813 7.49714 7.05729
#
# Compressibility (1/GPa) = 0.01503318
#
# Stress axis : x y z
#
# Youngs Moduli (GPa) = 50.40518 54.36908 56.92930
#
# Poissons Ratio (x) = 0.30983 0.33380
# Poissons Ratio (y) = 0.28725 0.50213
# Poissons Ratio (z) = 0.29554 0.47954
#
# Static dielectric constant tensor:
#      x y z
#    x 3.414730 0.000000 0.000000 
#    y 0.000000 3.291700 0.000000 
#    z 0.000000 0.000000 3.251570 
# 
# 
# High freq. dielectric constant tensor:
#      x y z
#    x 1.693300 0.000000 0.000000 
#    y 0.000000 1.678930 0.000000 
#    z 0.000000 0.000000 1.673750 
# 
# From -- ./inp_files/73883.got.cif
#   From: 2010.03.12/outbox.cif.g09.slc.cpg/sg65_37_cif.got.tgz:73883.got - 2010.04.10 20:52:16.
