data_PCOD8271952
_publ_section_title
;
Structure prediction by ZEFSAII (Michael W. Deem and Ramdas Pophale) SiO2 
 PCOD8271952
Probable space group: C M M M
;
_chemical_formula_sum "Si O2"
_cell_formula_units_Z 104
_cell_length_a 19.853974
_cell_length_b 8.998858
_cell_length_c 29.517019
_cell_angle_alpha 90.000000
_cell_angle_beta 90.000000
_cell_angle_gamma 90.000000
_cell_volume 5273.601904
_symmetry_space_group_name_H-M "C M M M"
_symmetry_group_IT_number 65
_symmetry_cell_setting 'orthorhombic'
loop_
_space_group_symop_operation_xyz
x,y,z
-x,-y,z
x,-y,-z
-x,y,-z
-x,-y,-z
x,y,-z
-x,y,z
x,-y,z
1/2+x,1/2+y,z
1/2-x,1/2-y,z
1/2+x,1/2-y,-z
1/2-x,1/2+y,-z
1/2-x,1/2-y,-z
1/2+x,1/2+y,-z
1/2-x,1/2+y,z
1/2+x,1/2-y,z
loop_
_atom_site_type_symbol
_atom_site_label
_atom_site_fract_x
_atom_site_fract_y
_atom_site_fract_z
Si Si1 0.000000 0.335595 0.946978
Si Si2 0.318266 0.674177 0.621044
Si Si3 0.925177 0.823475 0.449745
Si Si4 0.134931 0.824640 0.051901
Si Si5 0.179990 0.825525 0.725102
Si Si6 0.921897 0.673061 0.790760
Si Si7 0.813698 0.326843 0.135452
O O1 0.936155 0.241258 0.932231
O O2 0.000000 0.500000 0.923371
O O3 0.000000 0.360165 0.000000
O O4 0.309822 0.500000 0.614051
O O5 0.250000 0.750000 0.605107
O O6 0.376420 0.741286 0.588919
O O7 0.335154 0.712950 0.672910
O O8 0.900616 0.774509 0.500000
O O9 0.000000 0.760387 0.440660
O O10 0.926792 0.000000 0.446717
O O11 0.187125 0.748153 0.085697
O O12 0.133783 0.000000 0.058502
O O13 0.152647 0.781902 0.000000
O O14 0.250000 0.750000 0.740864
O O15 0.115346 0.764448 0.751673
O O16 0.187339 0.000000 0.733899
O O17 0.917626 0.500000 0.778225
O O18 0.882884 0.705138 0.837767
O O19 0.000000 0.724136 0.795484
O O20 0.799779 0.500000 0.130105
O O21 0.750000 0.250000 0.161225
#
# Coordination Sequence:
#
# PCOD8271952 Si02
#       7
#     8  16  16  16  16  16  16
#     4   9  17  31  53  81 113 149 185 221 267 319
#     4   9  18  31  49  76 107 138 177 224 272 325
#     4   8  14  26  45  69  99 138 183 229 275 321
#     4  10  21  37  58  86 118 150 187 230 274 322
#     4  10  20  35  57  83 112 147 184 226 278 335
#     4  10  23  42  62  86 115 145 180 227 277 330
#     4  11  24  41  62  85 114 150 187 227 276 331
#
# _framework density 19.720866000000001
#
# number of rings (size 3 to 8) (size 9 to 14) (size 15 to 20)
#    0.000    2.385    0.000    2.538    1.077    6.462 
#    0.000    1.538    0.000    0.462    0.000    1.077 
#    0.000    0.000    0.000    0.000    0.000    0.000 
#
# Total GULP energy -644661.628747 kJ/mol
# GULP energy per Si atom -12397.339014 kJ/mol
# Density = 1.967598 g / cm^3
# Si number density = 19.720866 Si / 1000 Ang^3
#
#
#
# Elastic Constant Matrix: (Units=GPa)
#
#
# Indices 1 2 3 4 5 6 
#
# 1 154.1341 55.8918 73.5055 0.0000 0.0000 0.0000
# 2 55.8918 77.2840 49.8291 0.0000 0.0000 0.0000
# 3 73.5055 49.8291 109.1299 0.0000 0.0000 0.0000
# 4 0.0000 0.0000 0.0000 17.6617 0.0000 0.0000
# 5 0.0000 0.0000 0.0000 0.0000 34.5345 0.0000
# 6 0.0000 0.0000 0.0000 0.0000 0.0000 33.3387
#
#
#
# Elastic Compliance Matrix: (Units=1/GPa)
#
#
# Indices 1 2 3 4 5 6 
#
# 1 0.010473 -0.004288 -0.005096 0.000000 0.000000 0.000000
# 2 -0.004288 0.020094 -0.006286 0.000000 0.000000 0.000000
# 3 -0.005096 -0.006286 0.015466 0.000000 0.000000 0.000000
# 4 0.000000 0.000000 0.000000 0.056620 0.000000 0.000000
# 5 0.000000 0.000000 0.000000 0.000000 0.028957 0.000000
# 6 0.000000 0.000000 0.000000 0.000000 0.000000 0.029995
#
#
# Mechanical properties :
#
#
# Convention : Reuss Voigt Hill
#
# Bulk Modulus (GPa) = 68.06729 77.66676 72.86703
# Shear Modulus (GPa) = 25.27239 27.86175 26.56707
#
# Velocity S-wave (km/s) = 3.58369 3.76281 3.67434
# Velocity P-wave (km/s) = 7.19125 7.63851 7.41825
#
# Compressibility (1/GPa) = 0.01469134
#
# Stress axis : x y z
#
# Youngs Moduli (GPa) = 95.48085 49.76637 64.65617
#
# Poissons Ratio (x) = 0.21342 0.32950
# Poissons Ratio (y) = 0.40947 0.40646
# Poissons Ratio (z) = 0.48660 0.31285
#
# Static dielectric constant tensor:
#      x y z
#    x 3.770630 0.000000 0.000000 
#    y 0.000000 3.414840 0.000000 
#    z 0.000000 0.000000 3.667660 
# 
# 
# High freq. dielectric constant tensor:
#      x y z
#    x 1.774630 0.000000 0.000000 
#    y 0.000000 1.753510 0.000000 
#    z 0.000000 0.000000 1.767610 
# 
# From -- ./inp_files/75526.got.cif
#   From: 2010.03.12/outbox.cif.g09.slc.cpg/sg65_38_cif.got.tgz:75526.got - 2010.04.10 20:52:16.
