data_PCOD8271210
_publ_section_title
;
Structure prediction by ZEFSAII (Michael W. Deem and Ramdas Pophale) SiO2 
 PCOD8271210
Probable space group: C M M M
;
_chemical_formula_sum "Si O2"
_cell_formula_units_Z 104
_cell_length_a 9.067631
_cell_length_b 20.897508
_cell_length_c 29.196714
_cell_angle_alpha 90.000000
_cell_angle_beta 90.000000
_cell_angle_gamma 90.000000
_cell_volume 5532.511361
_symmetry_space_group_name_H-M "C M M M"
_symmetry_group_IT_number 65
_symmetry_cell_setting 'orthorhombic'
loop_
_space_group_symop_operation_xyz
x,y,z
-x,-y,z
x,-y,-z
-x,y,-z
-x,-y,-z
x,y,-z
-x,y,z
x,-y,z
1/2+x,1/2+y,z
1/2-x,1/2-y,z
1/2+x,1/2-y,-z
1/2-x,1/2+y,-z
1/2-x,1/2-y,-z
1/2+x,1/2+y,-z
1/2-x,1/2+y,z
1/2+x,1/2-y,z
loop_
_atom_site_type_symbol
_atom_site_label
_atom_site_fract_x
_atom_site_fract_y
_atom_site_fract_z
Si Si1 0.162738 0.500000 0.445936
Si Si2 0.669737 0.427592 0.212125
Si Si3 0.173526 0.875136 0.447812
Si Si4 0.669137 0.572632 0.104625
Si Si5 0.329751 0.181397 0.731536
Si Si6 0.827941 0.685548 0.053249
Si Si7 0.331803 0.810919 0.632236
O O1 0.149515 0.500000 0.500000
O O2 0.252473 0.560573 0.429202
O O3 0.000000 0.500000 0.423406
O O4 0.500000 0.417878 0.226238
O O5 0.719616 0.500000 0.225856
O O6 0.691299 0.417863 0.158395
O O7 0.765637 0.373728 0.236588
O O8 0.220991 0.858303 0.500000
O O9 0.234235 0.824565 0.412490
O O10 0.000000 0.882438 0.444514
O O11 0.500000 0.585487 0.090872
O O12 0.713571 0.500000 0.090738
O O13 0.771733 0.622573 0.078709
O O14 0.500000 0.193810 0.744082
O O15 0.250000 0.250000 0.738915
O O16 0.322298 0.149481 0.679656
O O17 0.750000 0.750000 0.072010
O O18 0.000000 0.693254 0.062839
O O19 0.791632 0.676419 0.000000
O O20 0.500000 0.802045 0.615426
O O21 0.250000 0.750000 0.652053
#
# Coordination Sequence:
#
# PCOD8271210 Si02
#       7
#     8  16  16  16  16  16  16
#     4   9  17  31  51  73  99 131 165 205 251 295
#     4   9  19  37  59  83 112 144 180 225 274 326
#     4  10  20  34  53  77 104 135 172 212 255 308
#     4   9  19  36  57  81 110 145 184 226 275 330
#     4  10  21  37  58  82 108 142 181 223 270 325
#     4  10  21  36  54  78 110 148 190 235 280 326
#     4  10  21  37  55  76 103 136 172 214 260 310
#
# _framework density 18.797974
#
# number of rings (size 3 to 8) (size 9 to 14) (size 15 to 20)
#    0.000    2.385    0.000    3.000    0.000    7.077 
#    1.385    3.077    0.000    0.000    0.000    0.000 
#    0.000    0.000    0.000    0.000    0.000    0.000 
#
# Total GULP energy -644241.343687 kJ/mol
# GULP energy per Si atom -12389.256609 kJ/mol
# Density = 1.875519 g / cm^3
# Si number density = 18.797974 Si / 1000 Ang^3
#
#
#
# Elastic Constant Matrix: (Units=GPa)
#
#
# Indices 1 2 3 4 5 6 
#
# 1 114.9786 60.3866 49.5268 0.0000 0.0000 0.0000
# 2 60.3866 116.0377 53.8198 0.0000 0.0000 0.0000
# 3 49.5268 53.8198 66.7448 0.0000 0.0000 0.0000
# 4 0.0000 0.0000 0.0000 6.0956 0.0000 0.0000
# 5 0.0000 0.0000 0.0000 0.0000 31.0685 0.0000
# 6 0.0000 0.0000 0.0000 0.0000 0.0000 41.6446
#
#
#
# Elastic Compliance Matrix: (Units=1/GPa)
#
#
# Indices 1 2 3 4 5 6 
#
# 1 0.013799 -0.003885 -0.007107 0.000000 0.000000 0.000000
# 2 -0.003885 0.014860 -0.009100 0.000000 0.000000 0.000000
# 3 -0.007107 -0.009100 0.027593 0.000000 0.000000 0.000000
# 4 0.000000 0.000000 0.000000 0.164054 0.000000 0.000000
# 5 0.000000 0.000000 0.000000 0.000000 0.032187 0.000000
# 6 0.000000 0.000000 0.000000 0.000000 0.000000 0.024013
#
#
# Mechanical properties :
#
#
# Convention : Reuss Voigt Hill
#
# Bulk Modulus (GPa) = 62.22844 69.46973 65.84908
# Shear Modulus (GPa) = 15.52576 24.69691 20.11134
#
# Velocity S-wave (km/s) = 2.87701 3.62858 3.27443
# Velocity P-wave (km/s) = 6.64921 7.38862 7.02864
#
# Compressibility (1/GPa) = 0.01606982
#
# Stress axis : x y z
#
# Youngs Moduli (GPa) = 72.47070 67.29372 36.24044
#
# Poissons Ratio (x) = 0.26142 0.25754
# Poissons Ratio (y) = 0.28153 0.32979
# Poissons Ratio (z) = 0.51502 0.61237
#
# Static dielectric constant tensor:
#      x y z
#    x 3.512390 0.000000 0.000000 
#    y 0.000000 3.491390 0.000000 
#    z 0.000000 0.000000 3.333840 
# 
# 
# High freq. dielectric constant tensor:
#      x y z
#    x 1.739810 0.000000 0.000000 
#    y 0.000000 1.727000 0.000000 
#    z 0.000000 0.000000 1.724800 
# 
# From -- ./inp_files/73309.got.cif
#   From: 2010.03.12/outbox.cif.g09.slc.cpg/sg65_37_cif.got.tgz:73309.got - 2010.04.10 20:52:16.
