data_PCOD8271478
_publ_section_title
;
Structure prediction by ZEFSAII (Michael W. Deem and Ramdas Pophale) SiO2 
 PCOD8271478
Probable space group: C M M M
;
_chemical_formula_sum "Si O2"
_cell_formula_units_Z 96
_cell_length_a 13.657355
_cell_length_b 24.246013
_cell_length_c 13.823242
_cell_angle_alpha 90.000000
_cell_angle_beta 90.000000
_cell_angle_gamma 90.000000
_cell_volume 4577.378687
_symmetry_space_group_name_H-M "C M M M"
_symmetry_group_IT_number 65
_symmetry_cell_setting 'orthorhombic'
loop_
_space_group_symop_operation_xyz
x,y,z
-x,-y,z
x,-y,-z
-x,y,-z
-x,-y,-z
x,y,-z
-x,y,z
x,-y,z
1/2+x,1/2+y,z
1/2-x,1/2-y,z
1/2+x,1/2-y,-z
1/2-x,1/2+y,-z
1/2-x,1/2-y,-z
1/2+x,1/2+y,-z
1/2-x,1/2+y,z
1/2+x,1/2-y,z
loop_
_atom_site_type_symbol
_atom_site_label
_atom_site_fract_x
_atom_site_fract_y
_atom_site_fract_z
Si Si1 0.383024 0.225242 0.698585
Si Si2 0.614283 0.889499 0.386905
Si Si3 0.886354 0.107037 0.111018
Si Si4 0.109479 0.837108 0.613128
Si Si5 0.787368 0.061923 0.291932
Si Si6 0.114436 0.766197 0.104156
O O1 0.500000 0.227381 0.689859
O O2 0.346326 0.171652 0.641057
O O3 0.338276 0.281854 0.654676
O O4 0.347921 0.224791 0.811650
O O5 0.636829 0.899880 0.500000
O O6 0.500000 0.896739 0.364462
O O7 0.671605 0.932100 0.317151
O O8 0.814225 0.072025 0.179633
O O9 0.862833 0.170781 0.132396
O O10 0.000000 0.093503 0.134117
O O11 0.862926 0.091776 0.000000
O O12 0.108053 0.830522 0.500000
O O13 0.160708 0.894025 0.639576
O O14 0.000000 0.840642 0.656207
O O15 0.820152 0.000000 0.318963
O O16 0.000000 0.759585 0.093163
O O17 0.162678 0.750599 0.000000
#
# Coordination Sequence:
#
# PCOD8271478 Si02
#       6
#    16  16  16  16  16  16
#     4   9  16  32  58  85 115 149 188 238 298 359
#     4  10  23  43  64  84 108 149 209 266 308 349
#     4   9  18  36  62  91 125 163 197 229 276 349
#     4  10  20  34  54  83 119 154 184 224 291 371
#     4  12  25  39  57  83 117 154 198 252 300 343
#     4   8  13  25  51  85 119 153 184 218 271 344
#
# _framework density 20.972702000000002
#
# number of rings (size 3 to 8) (size 9 to 14) (size 15 to 20)
#    0.000    2.333    1.667    2.500    0.000    6.000 
#    0.000    5.000    0.000    3.500    0.000    1.167 
#    0.000    0.000    0.000    0.000    0.000    0.000 
#
# Total GULP energy -594873.549114 kJ/mol
# GULP energy per Si atom -12393.198940 kJ/mol
# Density = 2.092497 g / cm^3
# Si number density = 20.972702 Si / 1000 Ang^3
#
#
#
# Elastic Constant Matrix: (Units=GPa)
#
#
# Indices 1 2 3 4 5 6 
#
# 1 58.0662 22.3837 35.7773 0.0000 0.0000 0.0000
# 2 22.3837 78.8356 47.1982 0.0000 0.0000 0.0000
# 3 35.7773 47.1982 119.4536 0.0000 0.0000 0.0000
# 4 0.0000 0.0000 0.0000 25.3941 0.0000 0.0000
# 5 0.0000 0.0000 0.0000 0.0000 18.7193 0.0000
# 6 0.0000 0.0000 0.0000 0.0000 0.0000 18.8323
#
#
#
# Elastic Compliance Matrix: (Units=1/GPa)
#
#
# Indices 1 2 3 4 5 6 
#
# 1 0.021635 -0.002965 -0.005309 0.000000 0.000000 0.000000
# 2 -0.002965 0.017021 -0.005837 0.000000 0.000000 0.000000
# 3 -0.005309 -0.005837 0.012268 0.000000 0.000000 0.000000
# 4 0.000000 0.000000 0.000000 0.039379 0.000000 0.000000
# 5 0.000000 0.000000 0.000000 0.000000 0.053421 0.000000
# 6 0.000000 0.000000 0.000000 0.000000 0.000000 0.053100
#
#
# Mechanical properties :
#
#
# Convention : Reuss Voigt Hill
#
# Bulk Modulus (GPa) = 44.04688 51.89711 47.97199
# Shear Modulus (GPa) = 21.49483 22.65555 22.07519
#
# Velocity S-wave (km/s) = 3.20487 3.29027 3.24785
# Velocity P-wave (km/s) = 5.89428 6.26365 6.08177
#
# Compressibility (1/GPa) = 0.02270308
#
# Stress axis : x y z
#
# Youngs Moduli (GPa) = 46.22047 58.75022 81.51373
#
# Poissons Ratio (x) = 0.17418 0.43272
# Poissons Ratio (y) = 0.13703 0.47583
# Poissons Ratio (z) = 0.24536 0.34295
#
# Static dielectric constant tensor:
#      x y z
#    x 3.908160 0.000000 0.000000 
#    y 0.000000 3.564030 0.000000 
#    z 0.000000 0.000000 1.701380 
# 
# 
# High freq. dielectric constant tensor:
#      x y z
#    x 1.819040 0.000000 0.000000 
#    y 0.000000 1.792230 0.000000 
#    z 0.000000 0.000000 1.832550 
# 
# From -- ./inp_files/40398.got.cif
#   From: 2010.03.12/outbox.cif.g09.slc.cpg/sg65_21_cif.got.tgz:40398.got - 2010.04.10 20:52:16.
