data_PCOD8271865
_publ_section_title
;
Structure prediction by ZEFSAII (Michael W. Deem and Ramdas Pophale) SiO2 
 PCOD8271865
Probable space group: C M M M
;
_chemical_formula_sum "Si O2"
_cell_formula_units_Z 72
_cell_length_a 31.854939
_cell_length_b 14.485728
_cell_length_c 7.494218
_cell_angle_alpha 90.000000
_cell_angle_beta 90.000000
_cell_angle_gamma 90.000000
_cell_volume 3458.146806
_symmetry_space_group_name_H-M "C M M M"
_symmetry_group_IT_number 65
_symmetry_cell_setting 'orthorhombic'
loop_
_space_group_symop_operation_xyz
x,y,z
-x,-y,z
x,-y,-z
-x,y,-z
-x,-y,-z
x,y,-z
-x,y,z
x,-y,z
1/2+x,1/2+y,z
1/2-x,1/2-y,z
1/2+x,1/2-y,-z
1/2-x,1/2+y,-z
1/2-x,1/2-y,-z
1/2+x,1/2+y,-z
1/2-x,1/2+y,z
1/2+x,1/2-y,z
loop_
_atom_site_type_symbol
_atom_site_label
_atom_site_fract_x
_atom_site_fract_y
_atom_site_fract_z
Si Si1 0.623383 0.395517 0.207070
Si Si2 0.919698 0.284959 0.790824
Si Si3 0.657168 0.101241 0.197987
Si Si4 0.000000 0.393130 0.213090
Si Si5 0.190152 0.153978 0.500000
Si Si6 0.717348 0.135561 0.500000
O O1 0.607955 0.500000 0.247273
O O2 0.584823 0.324848 0.253446
O O3 0.664133 0.371826 0.323523
O O4 0.636307 0.383913 0.000000
O O5 0.877510 0.331654 0.713921
O O6 0.960407 0.335255 0.707916
O O7 0.921522 0.303078 0.000000
O O8 0.697864 0.094179 0.320460
O O9 0.636438 0.000000 0.184752
O O10 0.670400 0.136001 0.000000
O O11 0.000000 0.500000 0.281404
O O12 0.000000 0.392440 0.000000
O O13 0.234518 0.100902 0.500000
O O14 0.206276 0.257439 0.500000
#
# Coordination Sequence:
#
# PCOD8271865 Si02
#       6
#    16  16  16   8   8   8
#     4  10  21  38  60  83 110 150 196 239 285 336
#     4   9  17  32  53  82 116 149 187 230 276 334
#     4  10  20  35  56  81 113 151 186 227 283 341
#     4   9  16  28  53  88 121 152 186 226 277 340
#     4  11  23  39  59  82 111 149 190 239 291 337
#     4  11  23  37  57  84 112 146 190 238 288 340
#
# _framework density 20.820399999999999
#
# number of rings (size 3 to 8) (size 9 to 14) (size 15 to 20)
#    0.000    2.111    2.222    1.333    0.000    5.333 
#    0.000    5.000    0.000    6.000    0.000    6.222 
#    0.000    0.000    0.000    0.000    0.000    0.000 
#
# Total GULP energy -446052.255801 kJ/mol
# GULP energy per Si atom -12390.340439 kJ/mol
# Density = 2.077301 g / cm^3
# Si number density = 20.820400 Si / 1000 Ang^3
#
#
#
# Elastic Constant Matrix: (Units=GPa)
#
#
# Indices 1 2 3 4 5 6 
#
# 1 147.0524 69.9485 41.8740 0.0000 0.0000 0.0000
# 2 69.9485 163.9935 24.3812 0.0000 0.0000 0.0000
# 3 41.8740 24.3812 81.3293 0.0000 0.0000 0.0000
# 4 0.0000 0.0000 0.0000 15.6889 0.0000 0.0000
# 5 0.0000 0.0000 0.0000 0.0000 17.9407 0.0000
# 6 0.0000 0.0000 0.0000 0.0000 0.0000 24.2015
#
#
#
# Elastic Compliance Matrix: (Units=1/GPa)
#
#
# Indices 1 2 3 4 5 6 
#
# 1 0.009572 -0.003506 -0.003877 0.000000 0.000000 0.000000
# 2 -0.003506 0.007667 -0.000493 0.000000 0.000000 0.000000
# 3 -0.003877 -0.000493 0.014440 0.000000 0.000000 0.000000
# 4 0.000000 0.000000 0.000000 0.063739 0.000000 0.000000
# 5 0.000000 0.000000 0.000000 0.000000 0.055739 0.000000
# 6 0.000000 0.000000 0.000000 0.000000 0.000000 0.041320
#
#
# Mechanical properties :
#
#
# Convention : Reuss Voigt Hill
#
# Bulk Modulus (GPa) = 62.79316 73.86472 68.32894
# Shear Modulus (GPa) = 23.41490 28.64431 26.02961
#
# Velocity S-wave (km/s) = 3.35716 3.71318 3.53965
# Velocity P-wave (km/s) = 6.72698 7.34423 7.04237
#
# Compressibility (1/GPa) = 0.01592530
#
# Stress axis : x y z
#
# Youngs Moduli (GPa) = 104.46815 130.43403 69.25311
#
# Poissons Ratio (x) = 0.45736 0.26852
# Poissons Ratio (y) = 0.36631 0.03414
# Poissons Ratio (z) = 0.40505 0.06430
#
# Static dielectric constant tensor:
#      x y z
#    x 3.844600 0.000000 0.000000 
#    y 0.000000 4.116990 0.000000 
#    z 0.000000 0.000000 3.557720 
# 
# 
# High freq. dielectric constant tensor:
#      x y z
#    x 1.786810 0.000000 0.000000 
#    y 0.000000 1.833100 0.000000 
#    z 0.000000 0.000000 1.804230 
# 
# From -- ./inp_files/15833.got.cif
#   From: 2010.03.12/outbox.cif.g09.slc.cpg/sg65_8_cif.got.tgz:15833.got - 2010.04.10 20:52:16.
