data_PCOD8271714
_publ_section_title
;
Structure prediction by ZEFSAII (Michael W. Deem and Ramdas Pophale) SiO2 
 PCOD8271714
Probable space group: C M M M
;
_chemical_formula_sum "Si O2"
_cell_formula_units_Z 80
_cell_length_a 19.421407
_cell_length_b 8.752809
_cell_length_c 25.112806
_cell_angle_alpha 90.000000
_cell_angle_beta 90.000000
_cell_angle_gamma 90.000000
_cell_volume 4268.972752
_symmetry_space_group_name_H-M "C M M M"
_symmetry_group_IT_number 65
_symmetry_cell_setting 'orthorhombic'
loop_
_space_group_symop_operation_xyz
x,y,z
-x,-y,z
x,-y,-z
-x,y,-z
-x,-y,-z
x,y,-z
-x,y,z
x,-y,z
1/2+x,1/2+y,z
1/2-x,1/2-y,z
1/2+x,1/2-y,-z
1/2-x,1/2+y,-z
1/2-x,1/2-y,-z
1/2+x,1/2+y,-z
1/2-x,1/2+y,z
1/2+x,1/2-y,z
loop_
_atom_site_type_symbol
_atom_site_label
_atom_site_fract_x
_atom_site_fract_y
_atom_site_fract_z
Si Si1 0.677867 0.821844 0.937986
Si Si2 0.676929 0.180511 0.767829
Si Si3 0.821602 0.319740 0.646916
Si Si4 0.920086 0.180381 0.145764
Si Si5 0.423343 0.181526 0.441367
O O1 0.750000 0.750000 0.918887
O O2 0.614870 0.743615 0.907656
O O3 0.679857 0.000000 0.924213
O O4 0.665592 0.790362 0.000000
O O5 0.750000 0.250000 0.786026
O O6 0.659791 0.228188 0.707174
O O7 0.615408 0.246601 0.802791
O O8 0.681082 0.000000 0.775430
O O9 0.816636 0.500000 0.642018
O O10 0.750000 0.250000 0.628886
O O11 0.877138 0.249948 0.605990
O O12 0.000000 0.228448 0.145354
O O13 0.911001 0.000000 0.147842
O O14 0.395438 0.230414 0.500000
O O15 0.500000 0.246799 0.433406
O O16 0.424693 0.000000 0.437380
#
# Coordination Sequence:
#
# PCOD8271714 Si02
#       5
#    16  16  16  16  16
#     4  10  21  38  61  86 111 141 177 215 255 303
#     4  10  20  35  55  76 102 136 174 217 261 310
#     4   9  18  31  49  74 100 128 164 207 255 303
#     4  11  24  39  55  78 109 142 175 214 261 310
#     4   8  14  26  45  69  97 129 166 207 249 296
#
# _framework density 18.739871000000001
#
# number of rings (size 3 to 8) (size 9 to 14) (size 15 to 20)
#    0.000    2.400    0.000    3.000    0.000    5.200 
#    0.000    4.000    0.000    0.600    0.000    1.400 
#    0.000    0.000    0.000    0.000    0.000    0.000 
#
# Total GULP energy -495994.102276 kJ/mol
# GULP energy per Si atom -12399.852557 kJ/mol
# Density = 1.869722 g / cm^3
# Si number density = 18.739871 Si / 1000 Ang^3
#
#
#
# Elastic Constant Matrix: (Units=GPa)
#
#
# Indices 1 2 3 4 5 6 
#
# 1 158.7746 53.1183 92.0705 0.0000 0.0000 0.0000
# 2 53.1183 63.1235 35.8377 0.0000 0.0000 0.0000
# 3 92.0705 35.8377 124.3851 0.0000 0.0000 0.0000
# 4 0.0000 0.0000 0.0000 16.3188 0.0000 0.0000
# 5 0.0000 0.0000 0.0000 0.0000 34.1963 0.0000
# 6 0.0000 0.0000 0.0000 0.0000 0.0000 29.2826
#
#
#
# Elastic Compliance Matrix: (Units=1/GPa)
#
#
# Indices 1 2 3 4 5 6 
#
# 1 0.012948 -0.006521 -0.007705 0.000000 0.000000 0.000000
# 2 -0.006521 0.022224 -0.001576 0.000000 0.000000 0.000000
# 3 -0.007705 -0.001576 0.014197 0.000000 0.000000 0.000000
# 4 0.000000 0.000000 0.000000 0.061279 0.000000 0.000000
# 5 0.000000 0.000000 0.000000 0.000000 0.029243 0.000000
# 6 0.000000 0.000000 0.000000 0.000000 0.000000 0.034150
#
#
# Mechanical properties :
#
#
# Convention : Reuss Voigt Hill
#
# Bulk Modulus (GPa) = 56.29319 78.70404 67.49861
# Shear Modulus (GPa) = 23.63298 26.97665 25.30482
#
# Velocity S-wave (km/s) = 3.55506 3.79823 3.67866
# Velocity P-wave (km/s) = 6.85243 7.83101 7.35801
#
# Compressibility (1/GPa) = 0.01776414
#
# Stress axis : x y z
#
# Youngs Moduli (GPa) = 77.23123 44.99557 70.43605
#
# Poissons Ratio (x) = 0.29342 0.54274
# Poissons Ratio (y) = 0.50364 0.11103
# Poissons Ratio (z) = 0.59510 0.07093
#
# Static dielectric constant tensor:
#      x y z
#    x 3.617240 0.000000 0.000000 
#    y 0.000000 3.292790 0.000000 
#    z 0.000000 0.000000 3.699110 
# 
# 
# High freq. dielectric constant tensor:
#      x y z
#    x 1.725160 0.000000 0.000000 
#    y 0.000000 1.714670 0.000000 
#    z 0.000000 0.000000 1.742190 
# 
# From -- ./inp_files/72728.got.cif
#   From: 2010.03.12/outbox.cif.g09.slc.cpg/sg65_37_cif.got.tgz:72728.got - 2010.04.10 20:52:16.
