data_PCOD8271271
_publ_section_title
;
Structure prediction by ZEFSAII (Michael W. Deem and Ramdas Pophale) SiO2 
 PCOD8271271
Probable space group: C M M M
;
_chemical_formula_sum "Si O2"
_cell_formula_units_Z 88
_cell_length_a 20.684117
_cell_length_b 22.007633
_cell_length_c 9.347327
_cell_angle_alpha 90.000000
_cell_angle_beta 90.000000
_cell_angle_gamma 90.000000
_cell_volume 4254.982290
_symmetry_space_group_name_H-M "C M M M"
_symmetry_group_IT_number 65
_symmetry_cell_setting 'orthorhombic'
loop_
_space_group_symop_operation_xyz
x,y,z
-x,-y,z
x,-y,-z
-x,y,-z
-x,-y,-z
x,y,-z
-x,y,z
x,-y,z
1/2+x,1/2+y,z
1/2-x,1/2-y,z
1/2+x,1/2-y,-z
1/2-x,1/2+y,-z
1/2-x,1/2-y,-z
1/2+x,1/2+y,-z
1/2-x,1/2+y,z
1/2+x,1/2-y,z
loop_
_atom_site_type_symbol
_atom_site_label
_atom_site_fract_x
_atom_site_fract_y
_atom_site_fract_z
Si Si1 0.925718 0.170341 0.333308
Si Si2 0.113412 0.566958 0.655391
Si Si3 0.822993 0.728279 0.661967
Si Si4 0.143030 0.070522 0.166702
Si Si5 0.285227 0.886913 0.832698
Si Si6 0.000000 0.427001 0.840836
O O1 0.914716 0.157546 0.500000
O O2 0.875290 0.222334 0.281253
O O3 0.911984 0.106784 0.252202
O O4 0.000000 0.189991 0.301782
O O5 0.121405 0.599744 0.500000
O O6 0.087063 0.500000 0.626057
O O7 0.180583 0.560047 0.742560
O O8 0.061246 0.600489 0.755654
O O9 0.841725 0.709430 0.500000
O O10 0.750000 0.750000 0.665757
O O11 0.822508 0.671924 0.769942
O O12 0.209371 0.107060 0.197643
O O13 0.147203 0.000000 0.217312
O O14 0.125988 0.072632 0.000000
O O15 0.299975 0.892531 0.000000
O O16 0.000000 0.500000 0.850518
O O17 0.000000 0.399367 0.000000
#
# Coordination Sequence:
#
# PCOD8271271 Si02
#       6
#    16  16  16  16  16   8
#     4  10  22  41  64  90 121 158 201 252 308 364
#     4  10  20  34  53  78 110 150 195 242 297 361
#     4  10  20  38  63  87 115 152 197 246 302 364
#     4  10  22  39  60  89 124 161 200 245 303 368
#     4  11  22  36  58  86 118 153 196 249 301 357
#     4   9  17  31  51  73 103 145 189 235 290 349
#
# _framework density 20.681636999999998
#
# number of rings (size 3 to 8) (size 9 to 14) (size 15 to 20)
#    0.000    1.909    1.818    1.909    0.000    5.818 
#    1.636    1.818    0.000    0.000    0.000    0.000 
#    0.000    0.000    0.000    0.000    0.000    0.000 
#
# Total GULP energy -545137.660470 kJ/mol
# GULP energy per Si atom -12389.492283 kJ/mol
# Density = 2.063456 g / cm^3
# Si number density = 20.681637 Si / 1000 Ang^3
#
#
#
# Elastic Constant Matrix: (Units=GPa)
#
#
# Indices 1 2 3 4 5 6 
#
# 1 117.8580 42.2491 51.7559 0.0000 0.0000 0.0000
# 2 42.2491 104.3919 28.6467 0.0000 0.0000 0.0000
# 3 51.7559 28.6467 111.9836 0.0000 0.0000 0.0000
# 4 0.0000 0.0000 0.0000 14.3232 0.0000 0.0000
# 5 0.0000 0.0000 0.0000 0.0000 29.0485 0.0000
# 6 0.0000 0.0000 0.0000 0.0000 0.0000 30.0416
#
#
#
# Elastic Compliance Matrix: (Units=1/GPa)
#
#
# Indices 1 2 3 4 5 6 
#
# 1 0.011728 -0.003505 -0.004524 0.000000 0.000000 0.000000
# 2 -0.003505 0.011350 -0.001284 0.000000 0.000000 0.000000
# 3 -0.004524 -0.001284 0.011349 0.000000 0.000000 0.000000
# 4 0.000000 0.000000 0.000000 0.069817 0.000000 0.000000
# 5 0.000000 0.000000 0.000000 0.000000 0.034425 0.000000
# 6 0.000000 0.000000 0.000000 0.000000 0.000000 0.033287
#
#
# Mechanical properties :
#
#
# Convention : Reuss Voigt Hill
#
# Bulk Modulus (GPa) = 63.28192 64.39299 63.83746
# Shear Modulus (GPa) = 25.53004 28.78813 27.15908
#
# Velocity S-wave (km/s) = 3.51726 3.73495 3.62774
# Velocity P-wave (km/s) = 6.86727 7.05711 6.96283
#
# Compressibility (1/GPa) = 0.01580230
#
# Stress axis : x y z
#
# Youngs Moduli (GPa) = 85.26783 88.10529 88.11413
#
# Poissons Ratio (x) = 0.30881 0.39860
# Poissons Ratio (y) = 0.29887 0.11310
# Poissons Ratio (z) = 0.38572 0.11309
#
# Static dielectric constant tensor:
#      x y z
#    x 3.832310 0.000000 0.000000 
#    y 0.000000 3.730840 0.000000 
#    z 0.000000 0.000000 3.883210 
# 
# 
# High freq. dielectric constant tensor:
#      x y z
#    x 1.811760 0.000000 0.000000 
#    y 0.000000 1.790390 0.000000 
#    z 0.000000 0.000000 1.812600 
# 
# From -- ./inp_files/11773.got.cif
#   From: 2010.03.12/outbox.cif.g09.slc.cpg/sg65_6_cif.got.tgz:11773.got - 2010.04.10 20:52:16.
