data_PCOD8271221
_publ_section_title
;
Structure prediction by ZEFSAII (Michael W. Deem and Ramdas Pophale) SiO2 
 PCOD8271221
Probable space group: C M M M
;
_chemical_formula_sum "Si O2"
_cell_formula_units_Z 104
_cell_length_a 9.025098
_cell_length_b 18.993484
_cell_length_c 32.637072
_cell_angle_alpha 90.000000
_cell_angle_beta 90.000000
_cell_angle_gamma 90.000000
_cell_volume 5594.583386
_symmetry_space_group_name_H-M "C M M M"
_symmetry_group_IT_number 65
_symmetry_cell_setting 'orthorhombic'
loop_
_space_group_symop_operation_xyz
x,y,z
-x,-y,z
x,-y,-z
-x,y,-z
-x,-y,-z
x,y,-z
-x,y,z
x,-y,z
1/2+x,1/2+y,z
1/2-x,1/2-y,z
1/2+x,1/2-y,-z
1/2-x,1/2+y,-z
1/2-x,1/2-y,-z
1/2+x,1/2+y,-z
1/2-x,1/2+y,z
1/2+x,1/2-y,z
loop_
_atom_site_type_symbol
_atom_site_label
_atom_site_fract_x
_atom_site_fract_y
_atom_site_fract_z
Si Si1 0.830795 0.916982 0.271465
Si Si2 0.670350 0.580177 0.047746
Si Si3 0.674560 0.825285 0.112085
Si Si4 0.173491 0.678303 0.570954
Si Si5 0.827617 0.419039 0.189132
Si Si6 0.674286 0.822644 0.664308
Si Si7 0.176138 0.422075 0.500000
O O1 0.764829 0.892210 0.228083
O O2 0.736662 0.884867 0.308175
O O3 0.000000 0.891378 0.274142
O O4 0.816455 0.000000 0.275923
O O5 0.500000 0.592656 0.060219
O O6 0.716869 0.500000 0.058149
O O7 0.773649 0.634357 0.071573
O O8 0.693390 0.595226 0.000000
O O9 0.500000 0.814526 0.109605
O O10 0.750000 0.750000 0.115575
O O11 0.721888 0.871593 0.151095
O O12 0.250000 0.750000 0.557166
O O13 0.214893 0.658183 0.617481
O O14 0.231911 0.617145 0.540981
O O15 0.000000 0.690076 0.565848
O O16 0.790091 0.500000 0.178402
O O17 0.000000 0.409852 0.199469
O O18 0.500000 0.815252 0.670926
O O19 0.750000 0.750000 0.677735
O O20 0.245827 0.500000 0.500000
O O21 0.000000 0.426217 0.500000
#
# Coordination Sequence:
#
# PCOD8271221 Si02
#       7
#    16  16  16  16  16  16   8
#     4  10  21  36  55  80 108 139 175 215 262 314
#     4   9  19  37  60  84 110 142 180 221 266 317
#     4  11  23  37  55  81 112 145 180 220 267 315
#     4   9  18  32  52  75  99 133 172 210 254 305
#     4   9  19  37  58  78 103 138 180 223 266 315
#     4  10  20  34  53  77 105 138 176 217 262 312
#     4   9  17  30  49  75 104 131 166 212 256 301
#
# _framework density 18.589410000000001
#
# number of rings (size 3 to 8) (size 9 to 14) (size 15 to 20)
#    0.000    2.385    0.000    2.538    0.000    5.538 
#    0.000    5.385    0.000    0.923    0.000    0.000 
#    0.000    0.000    0.000    0.000    0.000    0.000 
#
# Total GULP energy -644946.673644 kJ/mol
# GULP energy per Si atom -12402.820647 kJ/mol
# Density = 1.854710 g / cm^3
# Si number density = 18.589410 Si / 1000 Ang^3
#
#
#
# Elastic Constant Matrix: (Units=GPa)
#
#
# Indices 1 2 3 4 5 6 
#
# 1 73.0202 47.9749 50.7781 0.0000 0.0000 0.0000
# 2 47.9749 115.2034 75.1712 0.0000 0.0000 0.0000
# 3 50.7781 75.1712 115.8303 0.0000 0.0000 0.0000
# 4 0.0000 0.0000 0.0000 28.1641 0.0000 0.0000
# 5 0.0000 0.0000 0.0000 0.0000 24.4353 0.0000
# 6 0.0000 0.0000 0.0000 0.0000 0.0000 25.3065
#
#
#
# Elastic Compliance Matrix: (Units=1/GPa)
#
#
# Indices 1 2 3 4 5 6 
#
# 1 0.021114 -0.004775 -0.006157 0.000000 0.000000 0.000000
# 2 -0.004775 0.016136 -0.008378 0.000000 0.000000 0.000000
# 3 -0.006157 -0.008378 0.016770 0.000000 0.000000 0.000000
# 4 0.000000 0.000000 0.000000 0.035506 0.000000 0.000000
# 5 0.000000 0.000000 0.000000 0.000000 0.040924 0.000000
# 6 0.000000 0.000000 0.000000 0.000000 0.000000 0.039516
#
#
# Mechanical properties :
#
#
# Convention : Reuss Voigt Hill
#
# Bulk Modulus (GPa) = 64.94201 72.43359 68.68780
# Shear Modulus (GPa) = 23.39517 24.25649 23.82583
#
# Velocity S-wave (km/s) = 3.55141 3.61620 3.58395
# Velocity P-wave (km/s) = 7.19913 7.51568 7.35911
#
# Compressibility (1/GPa) = 0.01539835
#
# Stress axis : x y z
#
# Youngs Moduli (GPa) = 47.36278 61.97395 59.63059
#
# Poissons Ratio (x) = 0.29592 0.36715
# Poissons Ratio (y) = 0.22616 0.49961
# Poissons Ratio (z) = 0.29161 0.51925
#
# Static dielectric constant tensor:
#      x y z
#    x 3.376180 0.000000 0.000000 
#    y 0.000000 3.448370 0.000000 
#    z 0.000000 0.000000 3.501370 
# 
# 
# High freq. dielectric constant tensor:
#      x y z
#    x 1.717510 0.000000 0.000000 
#    y 0.000000 1.719310 0.000000 
#    z 0.000000 0.000000 1.730610 
# 
# From -- ./inp_files/76843.got.cif
#   From: 2010.03.12/outbox.cif.g09.slc.cpg/sg65_39_cif.got.tgz:76843.got - 2010.04.10 20:52:16.
