data_PCOD8271874
_publ_section_title
;
Structure prediction by ZEFSAII (Michael W. Deem and Ramdas Pophale) SiO2 
 PCOD8271874
Probable space group: C M M M
;
_chemical_formula_sum "Si O2"
_cell_formula_units_Z 88
_cell_length_a 8.692365
_cell_length_b 19.067528
_cell_length_c 28.568853
_cell_angle_alpha 90.000000
_cell_angle_beta 90.000000
_cell_angle_gamma 90.000000
_cell_volume 4735.056349
_symmetry_space_group_name_H-M "C M M M"
_symmetry_group_IT_number 65
_symmetry_cell_setting 'orthorhombic'
loop_
_space_group_symop_operation_xyz
x,y,z
-x,-y,z
x,-y,-z
-x,y,-z
-x,-y,-z
x,y,-z
-x,y,z
x,-y,z
1/2+x,1/2+y,z
1/2-x,1/2-y,z
1/2+x,1/2-y,-z
1/2-x,1/2+y,-z
1/2-x,1/2-y,-z
1/2+x,1/2+y,-z
1/2-x,1/2+y,z
1/2+x,1/2-y,z
loop_
_atom_site_type_symbol
_atom_site_label
_atom_site_fract_x
_atom_site_fract_y
_atom_site_fract_z
Si Si1 0.182521 0.921517 0.049486
Si Si2 0.819679 0.323780 0.227349
Si Si3 0.323259 0.416477 0.849516
Si Si4 0.826606 0.916645 0.500000
Si Si5 0.181165 0.175688 0.673559
Si Si6 0.676587 0.082920 0.595571
O O1 0.234134 0.887364 0.099073
O O2 0.000000 0.925253 0.051350
O O3 0.249251 0.000000 0.047693
O O4 0.234284 0.883427 0.000000
O O5 0.750000 0.250000 0.210474
O O6 0.785530 0.382684 0.189080
O O7 0.747386 0.347820 0.276428
O O8 0.000000 0.315116 0.234237
O O9 0.500000 0.394878 0.839958
O O10 0.305098 0.500000 0.847617
O O11 0.737957 0.888996 0.454241
O O12 0.000000 0.886848 0.500000
O O13 0.827870 0.000000 0.500000
O O14 0.250000 0.250000 0.657486
O O15 0.223085 0.116694 0.636282
O O16 0.000000 0.183009 0.677746
O O17 0.500000 0.105646 0.600862
O O18 0.697115 0.000000 0.599483
#
# Coordination Sequence:
#
# PCOD8271874 Si02
#       6
#    16  16  16   8  16  16
#     4   7  10  19  39  68  99 129 161 198 242 293
#     4  11  22  37  55  73  98 133 172 211 255 308
#     4   9  17  30  50  77 106 133 165 207 252 299
#     4   9  17  31  52  79 110 143 178 213 253 301
#     4  11  22  38  58  78 103 134 171 213 259 310
#     4  10  20  35  56  82 111 142 176 213 254 300
#
# _framework density 18.584785
#
# number of rings (size 3 to 8) (size 9 to 14) (size 15 to 20)
#    0.000    2.455    0.000    6.818    0.000    3.273 
#    0.000    0.455    0.000    1.091    0.000    2.545 
#    0.000    0.000    0.000    0.000    0.000    0.000 
#
# Total GULP energy -545269.352823 kJ/mol
# GULP energy per Si atom -12392.485291 kJ/mol
# Density = 1.854248 g / cm^3
# Si number density = 18.584785 Si / 1000 Ang^3
#
#
#
# Elastic Constant Matrix: (Units=GPa)
#
#
# Indices 1 2 3 4 5 6 
#
# 1 126.3108 28.5663 55.0115 0.0000 0.0000 0.0000
# 2 28.5663 35.8257 46.7160 0.0000 0.0000 0.0000
# 3 55.0115 46.7160 151.7187 0.0000 0.0000 0.0000
# 4 0.0000 0.0000 0.0000 -1.4838 0.0000 0.0000
# 5 0.0000 0.0000 0.0000 0.0000 21.2518 0.0000
# 6 0.0000 0.0000 0.0000 0.0000 0.0000 22.8320
#
#
#
# Elastic Compliance Matrix: (Units=1/GPa)
#
#
# Indices 1 2 3 4 5 6 
#
# 1 0.009994 -0.005420 -0.001955 0.000000 0.000000 0.000000
# 2 -0.005420 0.049578 -0.013301 0.000000 0.000000 0.000000
# 3 -0.001955 -0.013301 0.011395 0.000000 0.000000 0.000000
# 4 0.000000 0.000000 0.000000 -0.673923 0.000000 0.000000
# 5 0.000000 0.000000 0.000000 0.000000 0.047055 0.000000
# 6 0.000000 0.000000 0.000000 0.000000 0.000000 0.043798
#
#
# Mechanical properties :
#
#
# Convention : Reuss Voigt Hill
#
# Bulk Modulus (GPa) = 33.76429 63.82698 48.79564
# Shear Modulus (GPa) = -10.84883 20.75741 4.95429
#
# Velocity S-wave (km/s) = -2.41871 3.34564 1.63449
# Velocity P-wave (km/s) = 3.22598 7.02443 5.46578
#
# Compressibility (1/GPa) = 0.02961709
#
# Stress axis : x y z
#
# Youngs Moduli (GPa) = 100.05857 20.17018 87.75498
#
# Poissons Ratio (x) = 0.10932 0.17156
# Poissons Ratio (y) = 0.54230 1.16719
# Poissons Ratio (z) = 0.19561 0.26827
#
# Static dielectric constant tensor:
#      x y z
#    x 3.336940 0.000000 0.000000 
#    y 0.000000 3.001600 0.000000 
#    z 0.000000 0.000000 3.845250 
# 
# 
# High freq. dielectric constant tensor:
#      x y z
#    x 1.713850 0.000000 0.000000 
#    y 0.000000 1.676440 0.000000 
#    z 0.000000 0.000000 1.746000 
# 
# From -- ./inp_files/73152.got.cif
#   From: 2010.03.12/outbox.cif.g09.slc.cpg/sg65_37_cif.got.tgz:73152.got - 2010.04.10 20:52:16.
