data_PCOD8271152
_publ_section_title
;
Structure prediction by ZEFSAII (Michael W. Deem and Ramdas Pophale) SiO2 
 PCOD8271152
Probable space group: C M M M
;
_chemical_formula_sum "Si O2"
_cell_formula_units_Z 80
_cell_length_a 24.258332
_cell_length_b 23.416160
_cell_length_c 7.788965
_cell_angle_alpha 90.000000
_cell_angle_beta 90.000000
_cell_angle_gamma 90.000000
_cell_volume 4424.420183
_symmetry_space_group_name_H-M "C M M M"
_symmetry_group_IT_number 65
_symmetry_cell_setting 'orthorhombic'
loop_
_space_group_symop_operation_xyz
x,y,z
-x,-y,z
x,-y,-z
-x,y,-z
-x,-y,-z
x,y,-z
-x,y,z
x,-y,z
1/2+x,1/2+y,z
1/2-x,1/2-y,z
1/2+x,1/2-y,-z
1/2-x,1/2+y,-z
1/2-x,1/2-y,-z
1/2+x,1/2+y,-z
1/2-x,1/2+y,z
1/2+x,1/2-y,z
loop_
_atom_site_type_symbol
_atom_site_label
_atom_site_fract_x
_atom_site_fract_y
_atom_site_fract_z
Si Si1 0.936499 0.837866 0.692213
Si Si2 0.141998 0.935008 0.795936
Si Si3 0.934612 0.368950 0.000000
Si Si4 0.121396 0.433324 0.308630
Si Si5 0.262408 0.932482 0.810636
Si Si6 0.065316 0.759500 0.000000
O O1 0.929926 0.812529 0.500000
O O2 0.903491 0.896729 0.704580
O O3 0.000000 0.852148 0.733051
O O4 0.913418 0.791936 0.829121
O O5 0.202953 0.912075 0.738357
O O6 0.132386 0.000000 0.734809
O O7 0.136577 0.930406 0.000000
O O8 0.914364 0.399319 0.827793
O O9 0.911011 0.304549 0.000000
O O10 0.000000 0.370691 0.000000
O O11 0.098752 0.420806 0.500000
O O12 0.116476 0.500000 0.262407
O O13 0.185783 0.414233 0.305880
O O14 0.257867 0.000000 0.825313
O O15 0.273241 0.906649 0.000000
O O16 0.000000 0.756485 0.000000
#
# Coordination Sequence:
#
# PCOD8271152 Si02
#       6
#    16  16   8  16  16   8
#     4  10  20  34  53  75 102 138 177 219 266 311
#     4   9  17  29  50  80 109 139 175 215 259 307
#     4  11  23  38  58  79 103 136 170 211 258 304
#     4  10  20  34  55  83 112 140 167 199 248 309
#     4   8  14  28  50  75 105 140 175 206 242 297
#     4   9  20  39  56  71  94 131 181 223 256 298
#
# _framework density 18.081465999999999
#
# number of rings (size 3 to 8) (size 9 to 14) (size 15 to 20)
#    0.000    2.600    2.000    1.500    0.000    3.600 
#    0.000    7.000    0.000    2.400    0.000    2.800 
#    0.000    0.000    0.000    0.000    0.000    0.000 
#
# Total GULP energy -495774.954412 kJ/mol
# GULP energy per Si atom -12394.373860 kJ/mol
# Density = 1.804031 g / cm^3
# Si number density = 18.081466 Si / 1000 Ang^3
#
#
#
# Elastic Constant Matrix: (Units=GPa)
#
#
# Indices 1 2 3 4 5 6 
#
# 1 84.0606 45.0712 43.6980 0.0000 0.0000 0.0000
# 2 45.0712 92.2973 58.3563 0.0000 0.0000 0.0000
# 3 43.6980 58.3563 116.5317 0.0000 0.0000 0.0000
# 4 0.0000 0.0000 0.0000 13.4164 0.0000 0.0000
# 5 0.0000 0.0000 0.0000 0.0000 18.8185 0.0000
# 6 0.0000 0.0000 0.0000 0.0000 0.0000 0.8099
#
#
#
# Elastic Compliance Matrix: (Units=1/GPa)
#
#
# Indices 1 2 3 4 5 6 
#
# 1 0.016906 -0.006215 -0.003227 0.000000 0.000000 0.000000
# 2 -0.006215 0.018139 -0.006753 0.000000 0.000000 0.000000
# 3 -0.003227 -0.006753 0.013173 0.000000 0.000000 0.000000
# 4 0.000000 0.000000 0.000000 0.074536 0.000000 0.000000
# 5 0.000000 0.000000 0.000000 0.000000 0.053139 0.000000
# 6 0.000000 0.000000 0.000000 0.000000 0.000000 1.234724
#
#
# Mechanical properties :
#
#
# Convention : Reuss Voigt Hill
#
# Bulk Modulus (GPa) = 63.18011 65.23785 64.20898
# Shear Modulus (GPa) = 3.45236 16.32655 9.88945
#
# Velocity S-wave (km/s) = 1.38329 3.00816 2.34121
# Velocity P-wave (km/s) = 6.12936 6.94433 6.54953
#
# Compressibility (1/GPa) = 0.01582777
#
# Stress axis : x y z
#
# Youngs Moduli (GPa) = 59.14946 55.12851 75.91121
#
# Poissons Ratio (x) = 0.34265 0.24498
# Poissons Ratio (y) = 0.36764 0.51264
# Poissons Ratio (z) = 0.19088 0.37229
#
# Static dielectric constant tensor:
#      x y z
#    x 3.430240 0.000000 0.000000 
#    y 0.000000 3.138490 0.000000 
#    z 0.000000 0.000000 3.393090 
# 
# 
# High freq. dielectric constant tensor:
#      x y z
#    x 1.695930 0.000000 0.000000 
#    y 0.000000 1.659130 0.000000 
#    z 0.000000 0.000000 1.707120 
# 
# From -- ./inp_files/13856.got.cif
#   From: 2010.03.12/outbox.cif.g09.slc.cpg/sg65_7_cif.got.tgz:13856.got - 2010.04.10 20:52:16.
