data_PCOD8271882
_publ_section_title
;
Structure prediction by ZEFSAII (Michael W. Deem and Ramdas Pophale) SiO2 
 PCOD8271882
Probable space group: C M M M
;
_chemical_formula_sum "Si O2"
_cell_formula_units_Z 80
_cell_length_a 17.906020
_cell_length_b 14.759142
_cell_length_c 15.491971
_cell_angle_alpha 90.000000
_cell_angle_beta 90.000000
_cell_angle_gamma 90.000000
_cell_volume 4094.179239
_symmetry_space_group_name_H-M "C M M M"
_symmetry_group_IT_number 65
_symmetry_cell_setting 'orthorhombic'
loop_
_space_group_symop_operation_xyz
x,y,z
-x,-y,z
x,-y,-z
-x,y,-z
-x,-y,-z
x,y,-z
-x,y,z
x,-y,z
1/2+x,1/2+y,z
1/2-x,1/2-y,z
1/2+x,1/2-y,-z
1/2-x,1/2+y,-z
1/2-x,1/2-y,-z
1/2+x,1/2+y,-z
1/2-x,1/2+y,z
1/2+x,1/2-y,z
loop_
_atom_site_type_symbol
_atom_site_label
_atom_site_fract_x
_atom_site_fract_y
_atom_site_fract_z
Si Si1 0.184908 0.603011 0.597171
Si Si2 0.915774 0.266633 0.311803
Si Si3 0.239209 0.645614 0.094750
Si Si4 0.581809 0.897290 0.151062
Si Si5 0.813892 0.899547 0.730890
O O1 0.216492 0.611937 0.500000
O O2 0.155066 0.500000 0.612460
O O3 0.121446 0.679612 0.608577
O O4 0.248646 0.627663 0.665437
O O5 0.909680 0.333779 0.232413
O O6 0.879085 0.172155 0.283315
O O7 0.000000 0.243960 0.338464
O O8 0.250000 0.750000 0.114859
O O9 0.150959 0.622496 0.088213
O O10 0.282345 0.594829 0.171202
O O11 0.272571 0.619929 0.000000
O O12 0.500000 0.880821 0.106253
O O13 0.587015 0.000000 0.184434
O O14 0.844743 0.000000 0.709232
#
# Coordination Sequence:
#
# PCOD8271882 Si02
#       5
#    16  16  16  16  16
#     4  10  21  38  63  92 119 150 187 232 293 355
#     4  11  22  37  57  83 117 154 191 236 286 339
#     4  11  21  36  59  86 116 153 195 241 295 347
#     4  10  20  35  56  82 113 146 180 228 291 350
#     4  11  22  39  60  83 116 154 197 244 285 335
#
# _framework density 19.539936000000001
#
# number of rings (size 3 to 8) (size 9 to 14) (size 15 to 20)
#    0.000    1.400    4.000    1.800    0.000    5.600 
#    0.000    2.000    0.000    0.600    0.000    5.600 
#    0.000    0.000    0.000    0.000    0.000    0.000 
#
# Total GULP energy -495773.978951 kJ/mol
# GULP energy per Si atom -12394.349474 kJ/mol
# Density = 1.949546 g / cm^3
# Si number density = 19.539936 Si / 1000 Ang^3
#
#
#
# Elastic Constant Matrix: (Units=GPa)
#
#
# Indices 1 2 3 4 5 6 
#
# 1 107.5796 68.0734 30.6686 0.0000 0.0000 0.0000
# 2 68.0734 127.0922 27.5545 0.0000 0.0000 0.0000
# 3 30.6686 27.5545 103.2615 0.0000 0.0000 0.0000
# 4 0.0000 0.0000 0.0000 32.8254 0.0000 0.0000
# 5 0.0000 0.0000 0.0000 0.0000 10.3932 0.0000
# 6 0.0000 0.0000 0.0000 0.0000 0.0000 30.8550
#
#
#
# Elastic Compliance Matrix: (Units=1/GPa)
#
#
# Indices 1 2 3 4 5 6 
#
# 1 0.014595 -0.007300 -0.002387 0.000000 0.000000 0.000000
# 2 -0.007300 0.012003 -0.001035 0.000000 0.000000 0.000000
# 3 -0.002387 -0.001035 0.010669 0.000000 0.000000 0.000000
# 4 0.000000 0.000000 0.000000 0.030464 0.000000 0.000000
# 5 0.000000 0.000000 0.000000 0.000000 0.096217 0.000000
# 6 0.000000 0.000000 0.000000 0.000000 0.000000 0.032410
#
#
# Mechanical properties :
#
#
# Convention : Reuss Voigt Hill
#
# Bulk Modulus (GPa) = 63.19552 65.61401 64.40476
# Shear Modulus (GPa) = 22.41396 28.92385 25.66890
#
# Velocity S-wave (km/s) = 3.39054 3.85157 3.62838
# Velocity P-wave (km/s) = 6.90938 7.30970 7.11236
#
# Compressibility (1/GPa) = 0.01582391
#
# Stress axis : x y z
#
# Youngs Moduli (GPa) = 68.51625 83.31489 93.72828
#
# Poissons Ratio (x) = 0.60820 0.22371
# Poissons Ratio (y) = 0.50017 0.09698
# Poissons Ratio (z) = 0.16353 0.08621
#
# Static dielectric constant tensor:
#      x y z
#    x 3.717050 0.000000 0.000000 
#    y 0.000000 3.727190 0.000000 
#    z 0.000000 0.000000 3.501180 
# 
# 
# High freq. dielectric constant tensor:
#      x y z
#    x 1.740380 0.000000 0.000000 
#    y 0.000000 1.774340 0.000000 
#    z 0.000000 0.000000 1.756410 
# 
# From -- ./inp_files/43897.got.cif
#   From: 2010.03.12/outbox.cif.g09.slc.cpg/sg65_22_cif.got.tgz:43897.got - 2010.04.10 20:52:16.
