data_PCOD8271467
_publ_section_title
;
Structure prediction by ZEFSAII (Michael W. Deem and Ramdas Pophale) SiO2 
 PCOD8271467
Probable space group: C M M M
;
_chemical_formula_sum "Si O2"
_cell_formula_units_Z 96
_cell_length_a 8.783830
_cell_length_b 28.680828
_cell_length_c 20.332872
_cell_angle_alpha 90.000000
_cell_angle_beta 90.000000
_cell_angle_gamma 90.000000
_cell_volume 5122.409965
_symmetry_space_group_name_H-M "C M M M"
_symmetry_group_IT_number 65
_symmetry_cell_setting 'orthorhombic'
loop_
_space_group_symop_operation_xyz
x,y,z
-x,-y,z
x,-y,-z
-x,y,-z
-x,-y,-z
x,y,-z
-x,y,z
x,-y,z
1/2+x,1/2+y,z
1/2-x,1/2-y,z
1/2+x,1/2-y,-z
1/2-x,1/2+y,-z
1/2-x,1/2-y,-z
1/2+x,1/2+y,-z
1/2-x,1/2+y,z
1/2+x,1/2-y,z
loop_
_atom_site_type_symbol
_atom_site_label
_atom_site_fract_x
_atom_site_fract_y
_atom_site_fract_z
Si Si1 0.176301 0.796063 0.762282
Si Si2 0.825515 0.103986 0.191747
Si Si3 0.674097 0.611467 0.426116
Si Si4 0.824344 0.446290 0.924642
Si Si5 0.320021 0.797771 0.621125
Si Si6 0.177542 0.446177 0.686910
O O1 0.250000 0.750000 0.795770
O O2 0.198690 0.840243 0.809711
O O3 0.261483 0.806995 0.694552
O O4 0.000000 0.786378 0.746975
O O5 0.780774 0.085885 0.120090
O O6 0.722398 0.080747 0.247226
O O7 0.000000 0.091363 0.206989
O O8 0.688510 0.591388 0.500000
O O9 0.500000 0.622606 0.407567
O O10 0.768902 0.659146 0.423288
O O11 0.735105 0.572715 0.376461
O O12 0.792459 0.500000 0.907253
O O13 0.000000 0.434336 0.911297
O O14 0.781442 0.436070 0.000000
O O15 0.500000 0.793792 0.620686
O O16 0.250000 0.750000 0.592270
O O17 0.220050 0.500000 0.696404
O O18 0.000000 0.438576 0.674602
#
# Coordination Sequence:
#
# PCOD8271467 Si02
#       6
#    16  16  16  16  16  16
#     4  10  20  34  54  82 114 146 184 229 278 332
#     4  11  22  35  57  87 118 149 185 231 280 331
#     4  11  24  41  59  80 109 145 186 233 286 342
#     4   9  19  36  57  83 117 155 193 232 276 330
#     4  11  21  35  58  83 111 145 182 228 282 338
#     4  11  24  40  59  83 110 144 188 234 280 336
#
# _framework density 18.741178999999999
#
# number of rings (size 3 to 8) (size 9 to 14) (size 15 to 20)
#    0.000    1.500    1.667    5.500    0.000    8.000 
#    0.000    2.500    0.000    0.500    0.000    0.000 
#    0.000    0.000    0.000    0.000    0.000    0.000 
#
# Total GULP energy -595370.267492 kJ/mol
# GULP energy per Si atom -12403.547239 kJ/mol
# Density = 1.869852 g / cm^3
# Si number density = 18.741179 Si / 1000 Ang^3
#
#
#
# Elastic Constant Matrix: (Units=GPa)
#
#
# Indices 1 2 3 4 5 6 
#
# 1 121.6407 54.7935 36.3022 0.0000 0.0000 0.0000
# 2 54.7935 108.7498 46.5552 0.0000 0.0000 0.0000
# 3 36.3022 46.5552 83.3160 0.0000 0.0000 0.0000
# 4 0.0000 0.0000 0.0000 29.7388 0.0000 0.0000
# 5 0.0000 0.0000 0.0000 0.0000 30.5177 0.0000
# 6 0.0000 0.0000 0.0000 0.0000 0.0000 35.1151
#
#
#
# Elastic Compliance Matrix: (Units=1/GPa)
#
#
# Indices 1 2 3 4 5 6 
#
# 1 0.010937 -0.004562 -0.002216 0.000000 0.000000 0.000000
# 2 -0.004562 0.013989 -0.005829 0.000000 0.000000 0.000000
# 3 -0.002216 -0.005829 0.016226 0.000000 0.000000 0.000000
# 4 0.000000 0.000000 0.000000 0.033626 0.000000 0.000000
# 5 0.000000 0.000000 0.000000 0.000000 0.032768 0.000000
# 6 0.000000 0.000000 0.000000 0.000000 0.000000 0.028478
#
#
# Mechanical properties :
#
#
# Convention : Reuss Voigt Hill
#
# Bulk Modulus (GPa) = 62.74735 65.44539 64.09637
# Shear Modulus (GPa) = 30.02071 30.81136 30.41604
#
# Velocity S-wave (km/s) = 4.00666 4.05908 4.03296
# Velocity P-wave (km/s) = 7.41338 7.54749 7.48074
#
# Compressibility (1/GPa) = 0.01593693
#
# Stress axis : x y z
#
# Youngs Moduli (GPa) = 91.42987 71.48264 61.63127
#
# Poissons Ratio (x) = 0.32610 0.13661
# Poissons Ratio (y) = 0.41709 0.35927
# Poissons Ratio (z) = 0.20265 0.41669
#
# Static dielectric constant tensor:
#      x y z
#    x 3.570100 0.000000 0.000000 
#    y 0.000000 3.692580 0.000000 
#    z 0.000000 0.000000 3.247080 
# 
# 
# High freq. dielectric constant tensor:
#      x y z
#    x 1.743610 0.000000 0.000000 
#    y 0.000000 1.732910 0.000000 
#    z 0.000000 0.000000 1.707320 
# 
# From -- ./inp_files/60250.got.cif
#   From: 2010.03.12/outbox.cif.g09.slc.cpg/sg65_31_cif.got.tgz:60250.got - 2010.04.10 20:52:16.
