data_PCOD8271835
_publ_section_title
;
Structure prediction by ZEFSAII (Michael W. Deem and Ramdas Pophale) SiO2 
 PCOD8271835
Probable space group: C M M M
;
_chemical_formula_sum "Si O2"
_cell_formula_units_Z 80
_cell_length_a 17.850205
_cell_length_b 15.128573
_cell_length_c 15.656143
_cell_angle_alpha 90.000000
_cell_angle_beta 90.000000
_cell_angle_gamma 90.000000
_cell_volume 4227.912131
_symmetry_space_group_name_H-M "C M M M"
_symmetry_group_IT_number 65
_symmetry_cell_setting 'orthorhombic'
loop_
_space_group_symop_operation_xyz
x,y,z
-x,-y,z
x,-y,-z
-x,y,-z
-x,-y,-z
x,y,-z
-x,y,z
x,-y,z
1/2+x,1/2+y,z
1/2-x,1/2-y,z
1/2+x,1/2-y,-z
1/2-x,1/2+y,-z
1/2-x,1/2-y,-z
1/2+x,1/2+y,-z
1/2-x,1/2+y,z
1/2+x,1/2-y,z
loop_
_atom_site_type_symbol
_atom_site_label
_atom_site_fract_x
_atom_site_fract_y
_atom_site_fract_z
Si Si1 0.261896 0.648168 0.593989
Si Si2 0.186995 0.596463 0.235211
Si Si3 0.582318 0.399571 0.349413
Si Si4 0.915790 0.762787 0.196632
Si Si5 0.706628 0.659879 0.092952
O O1 0.227697 0.625737 0.500000
O O2 0.250000 0.750000 0.616179
O O3 0.220960 0.595777 0.669252
O O4 0.349982 0.623598 0.587077
O O5 0.149042 0.500000 0.222637
O O6 0.126274 0.672599 0.222435
O O7 0.254813 0.602330 0.167003
O O8 0.500000 0.389282 0.394023
O O9 0.591297 0.500000 0.315252
O O10 0.587585 0.330894 0.273211
O O11 0.878026 0.813429 0.117495
O O12 0.000000 0.737173 0.170986
O O13 0.750000 0.750000 0.083905
O O14 0.706255 0.611174 0.000000
#
# Coordination Sequence:
#
# PCOD8271835 Si02
#       5
#    16  16  16  16  16
#     4  11  21  36  57  82 113 149 190 237 288 338
#     4  11  21  36  57  82 115 150 189 235 280 335
#     4  10  20  35  56  80 107 140 179 230 287 335
#     4  10  20  36  56  81 114 149 188 231 276 333
#     4   9  18  34  56  81 109 142 181 227 279 328
#
# _framework density 18.921869000000001
#
# number of rings (size 3 to 8) (size 9 to 14) (size 15 to 20)
#    0.000    1.800    4.000    1.200    0.000    3.200 
#    0.000    1.000    0.000    0.600    0.000   11.200 
#    0.000    0.000    0.000    0.000    0.000    0.000 
#
# Total GULP energy -495601.795382 kJ/mol
# GULP energy per Si atom -12390.044885 kJ/mol
# Density = 1.887880 g / cm^3
# Si number density = 18.921869 Si / 1000 Ang^3
#
#
#
# Elastic Constant Matrix: (Units=GPa)
#
#
# Indices 1 2 3 4 5 6 
#
# 1 116.8956 40.1235 26.6595 0.0000 0.0000 0.0000
# 2 40.1235 123.2902 26.3474 0.0000 0.0000 0.0000
# 3 26.6595 26.3474 109.9764 0.0000 0.0000 0.0000
# 4 0.0000 0.0000 0.0000 -11.5710 0.0000 0.0000
# 5 0.0000 0.0000 0.0000 0.0000 15.4921 0.0000
# 6 0.0000 0.0000 0.0000 0.0000 0.0000 24.0059
#
#
#
# Elastic Compliance Matrix: (Units=1/GPa)
#
#
# Indices 1 2 3 4 5 6 
#
# 1 0.009930 -0.002864 -0.001721 0.000000 0.000000 0.000000
# 2 -0.002864 0.009375 -0.001552 0.000000 0.000000 0.000000
# 3 -0.001721 -0.001552 0.009882 0.000000 0.000000 0.000000
# 4 0.000000 0.000000 0.000000 -0.086423 0.000000 0.000000
# 5 0.000000 0.000000 0.000000 0.000000 0.064549 0.000000
# 6 0.000000 0.000000 0.000000 0.000000 0.000000 0.041656
#
#
# Mechanical properties :
#
#
# Convention : Reuss Voigt Hill
#
# Bulk Modulus (GPa) = 59.12504 59.60256 59.36380
# Shear Modulus (GPa) = 74.76113 22.72086 48.74100
#
# Velocity S-wave (km/s) = 6.29255 3.46898 5.08085
# Velocity P-wave (km/s) = 9.17113 6.90020 8.11549
#
# Compressibility (1/GPa) = 0.01691331
#
# Stress axis : x y z
#
# Youngs Moduli (GPa) = 100.70338 106.67180 101.19611
#
# Poissons Ratio (x) = 0.30549 0.17417
# Poissons Ratio (y) = 0.28840 0.15702
# Poissons Ratio (z) = 0.17332 0.16552
#
# Static dielectric constant tensor:
#      x y z
#    x 3.745650 0.000000 0.000000 
#    y 0.000000 3.460240 0.000000 
#    z 0.000000 0.000000 3.705050 
# 
# 
# High freq. dielectric constant tensor:
#      x y z
#    x 1.723860 0.000000 0.000000 
#    y 0.000000 1.736760 0.000000 
#    z 0.000000 0.000000 1.730570 
# 
# From -- ./inp_files/40025.got.cif
#   From: 2010.03.12/outbox.cif.g09.slc.cpg/sg65_21_cif.got.tgz:40025.got - 2010.04.10 20:52:16.
