data_PCOD8271983
_publ_section_title
;
Structure prediction by ZEFSAII (Michael W. Deem and Ramdas Pophale) SiO2 
 PCOD8271983
Probable space group: C M M M
;
_chemical_formula_sum "Si O2"
_cell_formula_units_Z 64
_cell_length_a 37.999057
_cell_length_b 10.224298
_cell_length_c 8.776681
_cell_angle_alpha 90.000000
_cell_angle_beta 90.000000
_cell_angle_gamma 90.000000
_cell_volume 3409.860655
_symmetry_space_group_name_H-M "C M M M"
_symmetry_group_IT_number 65
_symmetry_cell_setting 'orthorhombic'
loop_
_space_group_symop_operation_xyz
x,y,z
-x,-y,z
x,-y,-z
-x,y,-z
-x,-y,-z
x,y,-z
-x,y,z
x,-y,z
1/2+x,1/2+y,z
1/2-x,1/2-y,z
1/2+x,1/2-y,-z
1/2-x,1/2+y,-z
1/2-x,1/2-y,-z
1/2+x,1/2+y,-z
1/2-x,1/2+y,z
1/2+x,1/2-y,z
loop_
_atom_site_type_symbol
_atom_site_label
_atom_site_fract_x
_atom_site_fract_y
_atom_site_fract_z
Si Si1 0.280126 0.850412 0.177287
Si Si2 0.039244 0.500000 0.819060
Si Si3 0.146413 0.650073 0.321532
Si Si4 0.959664 0.000000 0.680274
Si Si5 0.579364 0.255301 0.819673
O O1 0.250000 0.750000 0.229416
O O2 0.314335 0.811360 0.273179
O O3 0.268338 0.000000 0.212093
O O4 0.289092 0.833054 0.000000
O O5 0.059337 0.627116 0.759097
O O6 0.000000 0.500000 0.750585
O O7 0.038133 0.500000 0.000000
O O8 0.141916 0.672199 0.500000
O O9 0.138855 0.500000 0.274321
O O10 0.119767 0.745309 0.233032
O O11 0.939726 0.124660 0.742952
O O12 0.957980 0.000000 0.500000
O O13 0.000000 0.000000 0.738250
O O14 0.577727 0.271384 0.000000
#
# Coordination Sequence:
#
# PCOD8271983 Si02
#       5
#    16   8  16   8  16
#     4   9  18  34  56  81 110 145 187 234 281 333
#     4   9  18  32  55  87 114 137 180 239 285 327
#     4  10  20  35  57  84 117 153 189 233 286 344
#     4  11  25  43  59  81 118 157 190 233 293 353
#     4  11  21  37  61  86 114 150 194 240 285 339
#
# _framework density 18.769095
#
# number of rings (size 3 to 8) (size 9 to 14) (size 15 to 20)
#    0.000    2.000    1.250    2.625    0.000    3.500 
#    2.250    0.000    0.000    3.000    0.000    0.000 
#    0.000    0.000    0.000    0.000    0.000    0.000 
#
# Total GULP energy -396904.342860 kJ/mol
# GULP energy per Si atom -12403.260714 kJ/mol
# Density = 1.872638 g / cm^3
# Si number density = 18.769095 Si / 1000 Ang^3
#
#
#
# Elastic Constant Matrix: (Units=GPa)
#
#
# Indices 1 2 3 4 5 6 
#
# 1 142.3166 79.7030 39.7736 0.0000 0.0000 0.0000
# 2 79.7030 134.5070 36.0331 0.0000 0.0000 0.0000
# 3 39.7736 36.0331 56.7055 0.0000 0.0000 0.0000
# 4 0.0000 0.0000 0.0000 33.5725 0.0000 0.0000
# 5 0.0000 0.0000 0.0000 0.0000 30.8761 0.0000
# 6 0.0000 0.0000 0.0000 0.0000 0.0000 -8.9611
#
#
#
# Elastic Compliance Matrix: (Units=1/GPa)
#
#
# Indices 1 2 3 4 5 6 
#
# 1 0.011380 -0.005550 -0.004455 0.000000 0.000000 0.000000
# 2 -0.005550 0.011666 -0.003521 0.000000 0.000000 0.000000
# 3 -0.004455 -0.003521 0.022997 0.000000 0.000000 0.000000
# 4 0.000000 0.000000 0.000000 0.029786 0.000000 0.000000
# 5 0.000000 0.000000 0.000000 0.000000 0.032387 0.000000
# 6 0.000000 0.000000 0.000000 0.000000 0.000000 -0.111594
#
#
# Mechanical properties :
#
#
# Convention : Reuss Voigt Hill
#
# Bulk Modulus (GPa) = 52.65424 71.61650 62.13537
# Shear Modulus (GPa) = 166.64016 22.96547 94.80282
#
# Velocity S-wave (km/s) = 9.43277 3.50176 7.11475
# Velocity P-wave (km/s) = 12.11407 7.38845 10.03344
#
# Compressibility (1/GPa) = 0.01899182
#
# Stress axis : x y z
#
# Youngs Moduli (GPa) = 87.87554 85.71808 43.48366
#
# Poissons Ratio (x) = 0.47570 0.19374
# Poissons Ratio (y) = 0.48767 0.15309
# Poissons Ratio (z) = 0.39152 0.30178
#
# Static dielectric constant tensor:
#      x y z
#    x 3.545950 0.000000 0.000000 
#    y 0.000000 3.355190 0.000000 
#    z 0.000000 0.000000 3.314340 
# 
# 
# High freq. dielectric constant tensor:
#      x y z
#    x 1.739500 0.000000 0.000000 
#    y 0.000000 1.723280 0.000000 
#    z 0.000000 0.000000 1.723950 
# 
# From -- ./inp_files/17799.got.cif
#   From: 2010.03.12/outbox.cif.g09.slc.cpg/sg65_9_cif.got.tgz:17799.got - 2010.04.10 20:52:16.
