data_PCOD8271729
_publ_section_title
;
Structure prediction by ZEFSAII (Michael W. Deem and Ramdas Pophale) SiO2 
 PCOD8271729
Probable space group: C M M M
;
_chemical_formula_sum "Si O2"
_cell_formula_units_Z 88
_cell_length_a 17.596031
_cell_length_b 8.905082
_cell_length_c 28.524488
_cell_angle_alpha 90.000000
_cell_angle_beta 90.000000
_cell_angle_gamma 90.000000
_cell_volume 4469.618945
_symmetry_space_group_name_H-M "C M M M"
_symmetry_group_IT_number 65
_symmetry_cell_setting 'orthorhombic'
loop_
_space_group_symop_operation_xyz
x,y,z
-x,-y,z
x,-y,-z
-x,y,-z
-x,-y,-z
x,y,-z
-x,y,z
x,-y,z
1/2+x,1/2+y,z
1/2-x,1/2-y,z
1/2+x,1/2-y,-z
1/2-x,1/2+y,-z
1/2-x,1/2-y,-z
1/2+x,1/2+y,-z
1/2-x,1/2+y,z
1/2+x,1/2-y,z
loop_
_atom_site_type_symbol
_atom_site_label
_atom_site_fract_x
_atom_site_fract_y
_atom_site_fract_z
Si Si1 0.409719 0.667170 0.641937
Si Si2 0.589066 0.174273 0.735934
Si Si3 0.909599 0.331037 0.448595
Si Si4 0.090026 0.669101 0.906996
Si Si5 0.590648 0.669867 0.000000
Si Si6 0.168818 0.822163 0.177829
O O1 0.500000 0.664150 0.638767
O O2 0.377643 0.500000 0.650400
O O3 0.384291 0.774596 0.684363
O O4 0.375305 0.729005 0.592979
O O5 0.500000 0.204919 0.743567
O O6 0.635904 0.271406 0.772555
O O7 0.608821 0.000000 0.742558
O O8 0.884041 0.269803 0.500000
O O9 0.879387 0.500000 0.441665
O O10 0.000000 0.330929 0.445641
O O11 0.122789 0.500000 0.902553
O O12 0.112892 0.768460 0.862840
O O13 0.000000 0.664078 0.908949
O O14 0.122441 0.744539 0.954293
O O15 0.621923 0.500000 0.000000
O O16 0.500000 0.669953 0.000000
O O17 0.250000 0.750000 0.168708
O O18 0.175603 0.000000 0.177108
#
# Coordination Sequence:
#
# PCOD8271729 Si02
#       6
#    16  16  16  16   8  16
#     4   9  16  25  39  62  91 123 162 207 253 302
#     4  10  20  35  55  77 102 134 173 216 262 312
#     4   8  13  21  33  51  80 120 161 199 245 302
#     4  10  20  36  59  86 115 146 180 217 259 307
#     4   9  17  31  54  85 116 145 180 219 257 299
#     4  12  25  40  57  78 107 140 176 218 265 315
#
# _framework density 19.688479999999998
#
# number of rings (size 3 to 8) (size 9 to 14) (size 15 to 20)
#    0.000    2.273    0.000    4.636    0.000    8.000 
#    0.000    2.273    0.000    0.000    0.000    0.000 
#    0.000    0.727    0.000    2.727    0.000    6.364 
#
# Total GULP energy -545565.842796 kJ/mol
# GULP energy per Si atom -12399.223700 kJ/mol
# Density = 1.964367 g / cm^3
# Si number density = 19.688480 Si / 1000 Ang^3
#
#
#
# Elastic Constant Matrix: (Units=GPa)
#
#
# Indices 1 2 3 4 5 6 
#
# 1 14.6467 18.3540 10.5143 0.0000 0.0000 0.0000
# 2 18.3540 153.7250 58.3881 0.0000 0.0000 0.0000
# 3 10.5143 58.3881 143.0756 0.0000 0.0000 0.0000
# 4 0.0000 0.0000 0.0000 34.0163 0.0000 0.0000
# 5 0.0000 0.0000 0.0000 0.0000 -2.6328 0.0000
# 6 0.0000 0.0000 0.0000 0.0000 0.0000 19.9746
#
#
#
# Elastic Compliance Matrix: (Units=1/GPa)
#
#
# Indices 1 2 3 4 5 6 
#
# 1 0.080962 -0.008765 -0.002373 0.000000 0.000000 0.000000
# 2 -0.008765 0.008647 -0.002885 0.000000 0.000000 0.000000
# 3 -0.002373 -0.002885 0.008341 0.000000 0.000000 0.000000
# 4 0.000000 0.000000 0.000000 0.029398 0.000000 0.000000
# 5 0.000000 0.000000 0.000000 0.000000 -0.379818 0.000000
# 6 0.000000 0.000000 0.000000 0.000000 0.000000 0.050064
#
#
# Mechanical properties :
#
#
# Convention : Reuss Voigt Hill
#
# Bulk Modulus (GPa) = 14.30514 53.99555 34.15035
# Shear Modulus (GPa) = -33.09950 25.21766 -3.94092
#
# Velocity S-wave (km/s) = -4.10464 3.58276 -1.41633
# Velocity P-wave (km/s) = 3.89649 6.67827 3.83515
#
# Compressibility (1/GPa) = 0.06990493
#
# Stress axis : x y z
#
# Youngs Moduli (GPa) = 12.35146 115.64232 119.89062
#
# Poissons Ratio (x) = 1.01363 0.28446
# Poissons Ratio (y) = 0.10826 0.34586
# Poissons Ratio (z) = 0.02931 0.33360
#
# Static dielectric constant tensor:
#      x y z
#    x 3.036120 0.000000 0.000000 
#    y 0.000000 3.825870 0.000000 
#    z 0.000000 0.000000 3.895890 
# 
# 
# High freq. dielectric constant tensor:
#      x y z
#    x 1.703590 0.000000 0.000000 
#    y 0.000000 1.780520 0.000000 
#    z 0.000000 0.000000 1.788780 
# 
# From -- ./inp_files/77798.got.cif
#   From: 2010.03.12/outbox.cif.g09.slc.cpg/sg65_39_cif.got.tgz:77798.got - 2010.04.10 20:52:16.
