data_PCOD8271061
_publ_section_title
;
Structure prediction by ZEFSAII (Michael W. Deem and Ramdas Pophale) SiO2 
 PCOD8271061
Probable space group: C M M M
;
_chemical_formula_sum "Si O2"
_cell_formula_units_Z 88
_cell_length_a 27.881346
_cell_length_b 16.527993
_cell_length_c 9.161046
_cell_angle_alpha 90.000000
_cell_angle_beta 90.000000
_cell_angle_gamma 90.000000
_cell_volume 4221.617875
_symmetry_space_group_name_H-M "C M M M"
_symmetry_group_IT_number 65
_symmetry_cell_setting 'orthorhombic'
loop_
_space_group_symop_operation_xyz
x,y,z
-x,-y,z
x,-y,-z
-x,y,-z
-x,-y,-z
x,y,-z
-x,y,z
x,-y,z
1/2+x,1/2+y,z
1/2-x,1/2-y,z
1/2+x,1/2-y,-z
1/2-x,1/2+y,-z
1/2-x,1/2-y,-z
1/2+x,1/2+y,-z
1/2-x,1/2+y,z
1/2+x,1/2-y,z
loop_
_atom_site_type_symbol
_atom_site_label
_atom_site_fract_x
_atom_site_fract_y
_atom_site_fract_z
Si Si1 0.142771 0.324625 0.669400
Si Si2 0.000000 0.902845 0.338861
Si Si3 0.263289 0.156296 0.835425
Si Si4 0.944750 0.405862 0.829713
Si Si5 0.670950 0.638591 0.332787
Si Si6 0.585796 0.590266 0.157733
O O1 0.145654 0.351043 0.500000
O O2 0.185761 0.365424 0.761748
O O3 0.091495 0.350852 0.735123
O O4 0.151124 0.229230 0.685573
O O5 0.954022 0.865634 0.256181
O O6 0.000000 0.865400 0.500000
O O7 0.000000 0.000000 0.348378
O O8 0.250000 0.250000 0.840971
O O9 0.222743 0.117924 0.733249
O O10 0.263071 0.120523 0.000000
O O11 0.934759 0.500000 0.795107
O O12 0.000000 0.384589 0.788538
O O13 0.935810 0.388085 0.000000
O O14 0.672016 0.611886 0.500000
O O15 0.635335 0.582976 0.242436
O O16 0.567155 0.500000 0.129497
O O17 0.591436 0.634560 0.000000
#
# Coordination Sequence:
#
# PCOD8271061 Si02
#       6
#    16   8  16  16  16  16
#     4  10  20  34  54  81 109 138 173 215 261 315
#     4   9  17  31  51  71  93 127 168 207 252 305
#     4   9  17  31  53  77 103 138 176 215 260 314
#     4   9  19  37  59  81 107 141 179 219 266 320
#     4  10  20  34  52  77 108 141 175 217 266 315
#     4  10  20  34  52  74 101 135 177 220 261 309
#
# _framework density 20.845088000000001
#
# number of rings (size 3 to 8) (size 9 to 14) (size 15 to 20)
#    0.000    2.455    0.000    3.000    0.000    7.273 
#    1.636    1.818    0.000    5.455    0.000    0.000 
#    0.000    0.000    0.000    0.000    0.000    0.000 
#
# Total GULP energy -545327.184304 kJ/mol
# GULP energy per Si atom -12393.799643 kJ/mol
# Density = 2.079764 g / cm^3
# Si number density = 20.845088 Si / 1000 Ang^3
#
#
#
# Elastic Constant Matrix: (Units=GPa)
#
#
# Indices 1 2 3 4 5 6 
#
# 1 161.3552 13.4903 92.9740 0.0000 0.0000 0.0000
# 2 13.4903 18.4046 16.1163 0.0000 0.0000 0.0000
# 3 92.9740 16.1163 203.6707 0.0000 0.0000 0.0000
# 4 0.0000 0.0000 0.0000 19.0933 0.0000 0.0000
# 5 0.0000 0.0000 0.0000 0.0000 47.6175 0.0000
# 6 0.0000 0.0000 0.0000 0.0000 0.0000 25.9931
#
#
#
# Elastic Compliance Matrix: (Units=1/GPa)
#
#
# Indices 1 2 3 4 5 6 
#
# 1 0.008568 -0.003068 -0.003668 0.000000 0.000000 0.000000
# 2 -0.003068 0.059478 -0.003306 0.000000 0.000000 0.000000
# 3 -0.003668 -0.003306 0.006846 0.000000 0.000000 0.000000
# 4 0.000000 0.000000 0.000000 0.052375 0.000000 0.000000
# 5 0.000000 0.000000 0.000000 0.000000 0.021001 0.000000
# 6 0.000000 0.000000 0.000000 0.000000 0.000000 0.038472
#
#
# Mechanical properties :
#
#
# Convention : Reuss Voigt Hill
#
# Bulk Modulus (GPa) = 18.24573 69.84352 44.04462
# Shear Modulus (GPa) = 22.21314 35.93077 29.07196
#
# Velocity S-wave (km/s) = 3.26794 4.15626 3.73858
# Velocity P-wave (km/s) = 4.79700 7.52405 6.30962
#
# Compressibility (1/GPa) = 0.05480735
#
# Stress axis : x y z
#
# Youngs Moduli (GPa) = 116.71724 16.81298 146.06946
#
# Poissons Ratio (x) = 0.05158 0.53583
# Poissons Ratio (y) = 0.35806 0.48291
# Poissons Ratio (z) = 0.42816 0.05558
#
# Static dielectric constant tensor:
#      x y z
#    x 3.847340 0.000000 0.000000 
#    y 0.000000 3.245520 0.000000 
#    z 0.000000 0.000000 4.051310 
# 
# 
# High freq. dielectric constant tensor:
#      x y z
#    x 1.828190 0.000000 0.000000 
#    y 0.000000 1.763420 0.000000 
#    z 0.000000 0.000000 1.833110 
# 
# From -- ./inp_files/11780.got.cif
#   From: 2010.03.12/outbox.cif.g09.slc.cpg/sg65_6_cif.got.tgz:11780.got - 2010.04.10 20:52:16.
