data_PCOD8271120
_publ_section_title
;
Structure prediction by ZEFSAII (Michael W. Deem and Ramdas Pophale) SiO2 
 PCOD8271120
Probable space group: C M M M
;
_chemical_formula_sum "Si O2"
_cell_formula_units_Z 88
_cell_length_a 30.404920
_cell_length_b 16.351626
_cell_length_c 9.490956
_cell_angle_alpha 90.000000
_cell_angle_beta 90.000000
_cell_angle_gamma 90.000000
_cell_volume 4718.617459
_symmetry_space_group_name_H-M "C M M M"
_symmetry_group_IT_number 65
_symmetry_cell_setting 'orthorhombic'
loop_
_space_group_symop_operation_xyz
x,y,z
-x,-y,z
x,-y,-z
-x,y,-z
-x,-y,-z
x,y,-z
-x,y,z
x,-y,z
1/2+x,1/2+y,z
1/2-x,1/2-y,z
1/2+x,1/2-y,-z
1/2-x,1/2+y,-z
1/2-x,1/2-y,-z
1/2+x,1/2+y,-z
1/2-x,1/2+y,z
1/2+x,1/2-y,z
loop_
_atom_site_type_symbol
_atom_site_label
_atom_site_fract_x
_atom_site_fract_y
_atom_site_fract_z
Si Si1 0.779537 0.326504 0.332229
Si Si2 0.548620 0.096620 0.842036
Si Si3 0.081710 0.859085 0.340880
Si Si4 0.758348 0.000000 0.668027
Si Si5 0.500000 0.404313 0.834145
Si Si6 0.878871 0.318604 0.658502
Si Si7 0.144326 0.000000 0.333600
O O1 0.777557 0.323208 0.500000
O O2 0.750000 0.250000 0.273807
O O3 0.763770 0.415749 0.276714
O O4 0.829655 0.317670 0.277736
O O5 0.500000 0.125767 0.787661
O O6 0.588212 0.125780 0.745688
O O7 0.549765 0.000000 0.842884
O O8 0.555845 0.130484 0.000000
O O9 0.066452 0.883065 0.500000
O O10 0.103482 0.772019 0.340288
O O11 0.041568 0.860237 0.233760
O O12 0.118207 0.920772 0.281881
O O13 0.757787 0.000000 0.500000
O O14 0.807320 0.000000 0.732709
O O15 0.500000 0.500000 0.796364
O O16 0.500000 0.388643 0.000000
O O17 0.877706 0.353986 0.500000
O O18 0.149549 0.000000 0.500000
#
# Coordination Sequence:
#
# PCOD8271120 Si02
#       7
#    16  16  16   8   8  16   8
#     4   9  17  30  47  74 113 143 171 218 270 323
#     4   9  20  39  58  75 101 141 183 219 264 325
#     4  10  20  34  52  76 108 144 178 216 265 316
#     4   9  16  26  47  74 102 141 176 207 263 322
#     4  11  23  37  53  77 106 139 184 231 273 316
#     4  10  21  33  53  84 113 139 175 223 272 318
#     4   9  16  29  50  73 102 143 183 208 247 316
#
# _framework density 18.649529999999999
#
# number of rings (size 3 to 8) (size 9 to 14) (size 15 to 20)
#    0.000    2.455    0.909    1.909    2.545    6.182 
#    0.000    0.909    0.000    0.545    0.000    2.545 
#    0.000    0.000    0.000    0.000    0.000    0.000 
#
# Total GULP energy -545398.367006 kJ/mol
# GULP energy per Si atom -12395.417432 kJ/mol
# Density = 1.860708 g / cm^3
# Si number density = 18.649530 Si / 1000 Ang^3
#
#
#
# Elastic Constant Matrix: (Units=GPa)
#
#
# Indices 1 2 3 4 5 6 
#
# 1 183.8845 54.7715 53.4423 0.0000 0.0000 0.0000
# 2 54.7715 89.7300 25.1704 0.0000 0.0000 0.0000
# 3 53.4423 25.1704 50.5870 0.0000 0.0000 0.0000
# 4 0.0000 0.0000 0.0000 19.5577 0.0000 0.0000
# 5 0.0000 0.0000 0.0000 0.0000 -0.9677 0.0000
# 6 0.0000 0.0000 0.0000 0.0000 0.0000 37.3057
#
#
#
# Elastic Compliance Matrix: (Units=1/GPa)
#
#
# Indices 1 2 3 4 5 6 
#
# 1 0.008537 -0.003116 -0.007468 0.000000 0.000000 0.000000
# 2 -0.003116 0.014090 -0.003719 0.000000 0.000000 0.000000
# 3 -0.007468 -0.003719 0.029508 0.000000 0.000000 0.000000
# 4 0.000000 0.000000 0.000000 0.051131 0.000000 0.000000
# 5 0.000000 0.000000 0.000000 0.000000 -1.033369 0.000000
# 6 0.000000 0.000000 0.000000 0.000000 0.000000 0.026806
#
#
# Mechanical properties :
#
#
# Convention : Reuss Voigt Hill
#
# Bulk Modulus (GPa) = 42.50137 65.66334 54.08236
# Shear Modulus (GPa) = -5.76802 23.90028 9.06613
#
# Velocity S-wave (km/s) = -1.76056 3.58376 2.20723
# Velocity P-wave (km/s) = 4.32507 7.23947 5.96306
#
# Compressibility (1/GPa) = 0.02352865
#
# Stress axis : x y z
#
# Youngs Moduli (GPa) = 117.13980 70.97390 33.88903
#
# Poissons Ratio (x) = 0.22115 0.25309
# Poissons Ratio (y) = 0.36500 0.12602
# Poissons Ratio (z) = 0.87483 0.26393
#
# Static dielectric constant tensor:
#      x y z
#    x 3.845300 0.000000 0.000000 
#    y 0.000000 3.476170 0.000000 
#    z 0.000000 0.000000 3.212700 
# 
# 
# High freq. dielectric constant tensor:
#      x y z
#    x 1.740540 0.000000 0.000000 
#    y 0.000000 1.734370 0.000000 
#    z 0.000000 0.000000 1.669230 
# 
# From -- ./inp_files/18402.got.cif
#   From: 2010.03.12/outbox.cif.g09.slc.cpg/sg65_10_cif.got.tgz:18402.got - 2010.04.10 20:52:16.
