data_PCOD8271147
_publ_section_title
;
Structure prediction by ZEFSAII (Michael W. Deem and Ramdas Pophale) SiO2 
 PCOD8271147
Probable space group: C M M M
;
_chemical_formula_sum "Si O2"
_cell_formula_units_Z 80
_cell_length_a 18.704394
_cell_length_b 8.895935
_cell_length_c 25.870347
_cell_angle_alpha 90.000000
_cell_angle_beta 90.000000
_cell_angle_gamma 90.000000
_cell_volume 4304.646543
_symmetry_space_group_name_H-M "C M M M"
_symmetry_group_IT_number 65
_symmetry_cell_setting 'orthorhombic'
loop_
_space_group_symop_operation_xyz
x,y,z
-x,-y,z
x,-y,-z
-x,y,-z
-x,-y,-z
x,y,-z
-x,y,z
x,-y,z
1/2+x,1/2+y,z
1/2-x,1/2-y,z
1/2+x,1/2-y,-z
1/2-x,1/2+y,-z
1/2-x,1/2-y,-z
1/2+x,1/2+y,-z
1/2-x,1/2+y,z
1/2+x,1/2-y,z
loop_
_atom_site_type_symbol
_atom_site_label
_atom_site_fract_x
_atom_site_fract_y
_atom_site_fract_z
Si Si1 0.823895 0.823905 0.940239
Si Si2 0.172743 0.175391 0.767672
Si Si3 0.173439 0.173756 0.346681
Si Si4 0.916135 0.674347 0.143620
Si Si5 0.827620 0.324346 0.443947
O O1 0.750000 0.750000 0.921446
O O2 0.888377 0.753063 0.908267
O O3 0.819080 0.000000 0.929460
O O4 0.838651 0.787319 0.000000
O O5 0.250000 0.250000 0.773688
O O6 0.139021 0.198015 0.710015
O O7 0.117557 0.250998 0.806094
O O8 0.181195 0.000000 0.780778
O O9 0.250000 0.250000 0.343911
O O10 0.129872 0.251191 0.394746
O O11 0.181791 0.000000 0.359748
O O12 0.895596 0.500000 0.142058
O O13 0.000000 0.700750 0.146266
O O14 0.865394 0.294167 0.500000
O O15 0.819821 0.500000 0.434016
O O16 0.750000 0.250000 0.445469
#
# Coordination Sequence:
#
# PCOD8271147 Si02
#       5
#    16  16  16  16  16
#     4  10  21  38  61  86 111 140 173 209 249 295
#     4  10  20  34  53  75 100 132 171 214 257 304
#     4   9  16  25  39  60  85 117 157 199 244 292
#     4  11  24  39  55  77 106 139 173 211 256 303
#     4   9  15  21  31  50  79 116 154 192 238 291
#
# _framework density 18.584568999999998
#
# number of rings (size 3 to 8) (size 9 to 14) (size 15 to 20)
#    0.000    2.200    0.000    4.800    0.000    6.800 
#    0.000    2.000    0.000    0.000    0.000    0.000 
#    0.000    0.800    0.000    8.800    0.000    9.800 
#
# Total GULP energy -495693.138083 kJ/mol
# GULP energy per Si atom -12392.328452 kJ/mol
# Density = 1.854227 g / cm^3
# Si number density = 18.584569 Si / 1000 Ang^3
#
#
#
# Elastic Constant Matrix: (Units=GPa)
#
#
# Indices 1 2 3 4 5 6 
#
# 1 52.6144 45.3502 49.5387 0.0000 0.0000 0.0000
# 2 45.3502 145.3165 80.7483 0.0000 0.0000 0.0000
# 3 49.5387 80.7483 155.7039 0.0000 0.0000 0.0000
# 4 0.0000 0.0000 0.0000 36.8137 0.0000 0.0000
# 5 0.0000 0.0000 0.0000 0.0000 1.6866 0.0000
# 6 0.0000 0.0000 0.0000 0.0000 0.0000 21.4020
#
#
#
# Elastic Compliance Matrix: (Units=1/GPa)
#
#
# Indices 1 2 3 4 5 6 
#
# 1 0.030196 -0.005739 -0.006631 0.000000 0.000000 0.000000
# 2 -0.005739 0.010758 -0.003753 0.000000 0.000000 0.000000
# 3 -0.006631 -0.003753 0.010479 0.000000 0.000000 0.000000
# 4 0.000000 0.000000 0.000000 0.027164 0.000000 0.000000
# 5 0.000000 0.000000 0.000000 0.000000 0.592920 0.000000
# 6 0.000000 0.000000 0.000000 0.000000 0.000000 0.046725
#
#
# Mechanical properties :
#
#
# Convention : Reuss Voigt Hill
#
# Bulk Modulus (GPa) = 52.12001 78.32326 65.22163
# Shear Modulus (GPa) = 6.60603 23.84695 15.22649
#
# Velocity S-wave (km/s) = 1.88740 3.58601 2.86546
# Velocity P-wave (km/s) = 5.73196 7.70595 6.79106
#
# Compressibility (1/GPa) = 0.01918649
#
# Stress axis : x y z
#
# Youngs Moduli (GPa) = 33.11686 92.95307 95.43245
#
# Poissons Ratio (x) = 0.53345 0.63281
# Poissons Ratio (y) = 0.19005 0.35819
# Poissons Ratio (z) = 0.21960 0.34888
#
# Static dielectric constant tensor:
#      x y z
#    x 2.827190 0.000000 0.000000 
#    y 0.000000 3.647090 0.000000 
#    z 0.000000 0.000000 4.565880 
# 
# 
# High freq. dielectric constant tensor:
#      x y z
#    x 1.649710 0.000000 0.000000 
#    y 0.000000 1.744050 0.000000 
#    z 0.000000 0.000000 1.756290 
# 
# From -- ./inp_files/72805.got.cif
#   From: 2010.03.12/outbox.cif.g09.slc.cpg/sg65_37_cif.got.tgz:72805.got - 2010.04.10 20:52:16.
