data_PCOD8271365
_publ_section_title
;
Structure prediction by ZEFSAII (Michael W. Deem and Ramdas Pophale) SiO2 
 PCOD8271365
Probable space group: C M M M
;
_chemical_formula_sum "Si O2"
_cell_formula_units_Z 104
_cell_length_a 8.801546
_cell_length_b 28.174065
_cell_length_c 21.553089
_cell_angle_alpha 90.000000
_cell_angle_beta 90.000000
_cell_angle_gamma 90.000000
_cell_volume 5344.634338
_symmetry_space_group_name_H-M "C M M M"
_symmetry_group_IT_number 65
_symmetry_cell_setting 'orthorhombic'
loop_
_space_group_symop_operation_xyz
x,y,z
-x,-y,z
x,-y,-z
-x,y,-z
-x,-y,-z
x,y,-z
-x,y,z
x,-y,z
1/2+x,1/2+y,z
1/2-x,1/2-y,z
1/2+x,1/2-y,-z
1/2-x,1/2+y,-z
1/2-x,1/2-y,-z
1/2+x,1/2+y,-z
1/2-x,1/2+y,z
1/2+x,1/2-y,z
loop_
_atom_site_type_symbol
_atom_site_label
_atom_site_fract_x
_atom_site_fract_y
_atom_site_fract_z
Si Si1 0.177562 0.862536 0.069279
Si Si2 0.179709 0.109076 0.620062
Si Si3 0.821150 0.386931 0.746893
Si Si4 0.824429 0.700597 0.572390
Si Si5 0.680202 0.301716 0.185014
Si Si6 0.178606 0.553277 0.134487
Si Si7 0.180794 0.946677 0.500000
O O1 0.233476 0.822743 0.118168
O O2 0.253537 0.913546 0.080985
O O3 0.000000 0.870434 0.076930
O O4 0.220883 0.845237 0.000000
O O5 0.257429 0.090958 0.683103
O O6 0.228794 0.163084 0.610996
O O7 0.242745 0.078657 0.562002
O O8 0.000000 0.104756 0.626049
O O9 0.742169 0.336451 0.761434
O O10 0.777103 0.425385 0.798736
O O11 0.000000 0.378512 0.742275
O O12 0.805406 0.689708 0.500000
O O13 0.750000 0.750000 0.590495
O O14 0.000000 0.699855 0.592544
O O15 0.500000 0.298210 0.190281
O O16 0.750000 0.250000 0.193885
O O17 0.245637 0.500000 0.129199
O O18 0.000000 0.552309 0.125458
O O19 0.000000 0.944876 0.500000
O O20 0.243251 0.000000 0.500000
#
# Coordination Sequence:
#
# PCOD8271365 Si02
#       7
#    16  16  16  16  16  16   8
#     4   9  19  35  54  80 114 148 183 224 269 320
#     4  11  21  36  58  82 110 143 180 223 273 325
#     4  10  21  37  56  79 108 142 182 227 274 324
#     4  10  20  34  54  79 108 138 172 211 259 317
#     4  10  20  36  57  81 111 147 186 226 269 318
#     4   9  19  36  56  78 107 143 182 227 277 326
#     4   9  20  38  58  81 110 143 178 219 268 325
#
# _framework density 19.458767000000002
#
# number of rings (size 3 to 8) (size 9 to 14) (size 15 to 20)
#    0.000    2.231    0.769    1.846    0.000    4.308 
#    0.000    4.615    0.000    3.231    0.000    0.000 
#    0.000    0.000    0.000    0.000    0.000    0.000 
#
# Total GULP energy -644885.195611 kJ/mol
# GULP energy per Si atom -12401.638377 kJ/mol
# Density = 1.941448 g / cm^3
# Si number density = 19.458767 Si / 1000 Ang^3
#
#
#
# Elastic Constant Matrix: (Units=GPa)
#
#
# Indices 1 2 3 4 5 6 
#
# 1 53.9931 23.7237 24.0725 0.0000 0.0000 0.0000
# 2 23.7237 89.5085 24.4155 0.0000 0.0000 0.0000
# 3 24.0725 24.4155 103.5434 0.0000 0.0000 0.0000
# 4 0.0000 0.0000 0.0000 18.7431 0.0000 0.0000
# 5 0.0000 0.0000 0.0000 0.0000 30.8339 0.0000
# 6 0.0000 0.0000 0.0000 0.0000 0.0000 25.3759
#
#
#
# Elastic Compliance Matrix: (Units=1/GPa)
#
#
# Indices 1 2 3 4 5 6 
#
# 1 0.022468 -0.004842 -0.004082 0.000000 0.000000 0.000000
# 2 -0.004842 0.012983 -0.001936 0.000000 0.000000 0.000000
# 3 -0.004082 -0.001936 0.011063 0.000000 0.000000 0.000000
# 4 0.000000 0.000000 0.000000 0.053353 0.000000 0.000000
# 5 0.000000 0.000000 0.000000 0.000000 0.032432 0.000000
# 6 0.000000 0.000000 0.000000 0.000000 0.000000 0.039408
#
#
# Mechanical properties :
#
#
# Convention : Reuss Voigt Hill
#
# Bulk Modulus (GPa) = 40.32906 43.49648 41.91277
# Shear Modulus (GPa) = 24.79037 26.64613 25.71825
#
# Velocity S-wave (km/s) = 3.57318 3.70451 3.63944
# Velocity P-wave (km/s) = 6.14767 6.37962 6.26472
#
# Compressibility (1/GPa) = 0.02479602
#
# Stress axis : x y z
#
# Youngs Moduli (GPa) = 44.50759 77.02134 90.38937
#
# Poissons Ratio (x) = 0.37291 0.36896
# Poissons Ratio (y) = 0.21549 0.17498
# Poissons Ratio (z) = 0.18167 0.14910
#
# Static dielectric constant tensor:
#      x y z
#    x 3.452670 0.000000 0.000000 
#    y 0.000000 3.571580 0.000000 
#    z 0.000000 0.000000 3.716990 
# 
# 
# High freq. dielectric constant tensor:
#      x y z
#    x 1.753520 0.000000 0.000000 
#    y 0.000000 1.753620 0.000000 
#    z 0.000000 0.000000 1.761680 
# 
# From -- ./inp_files/60388.got.cif
#   From: 2010.03.12/outbox.cif.g09.slc.cpg/sg65_31_cif.got.tgz:60388.got - 2010.04.10 20:52:16.
