data_PCOD8271167
_publ_section_title
;
Structure prediction by ZEFSAII (Michael W. Deem and Ramdas Pophale) SiO2 
 PCOD8271167
Probable space group: C M M M
;
_chemical_formula_sum "Si O2"
_cell_formula_units_Z 64
_cell_length_a 9.394752
_cell_length_b 14.837946
_cell_length_c 24.424729
_cell_angle_alpha 90.000000
_cell_angle_beta 90.000000
_cell_angle_gamma 90.000000
_cell_volume 3404.778471
_symmetry_space_group_name_H-M "C M M M"
_symmetry_group_IT_number 65
_symmetry_cell_setting 'orthorhombic'
loop_
_space_group_symop_operation_xyz
x,y,z
-x,-y,z
x,-y,-z
-x,y,-z
-x,-y,-z
x,y,-z
-x,y,z
x,-y,z
1/2+x,1/2+y,z
1/2-x,1/2-y,z
1/2+x,1/2-y,-z
1/2-x,1/2+y,-z
1/2-x,1/2-y,-z
1/2+x,1/2+y,-z
1/2-x,1/2+y,z
1/2+x,1/2-y,z
loop_
_atom_site_type_symbol
_atom_site_label
_atom_site_fract_x
_atom_site_fract_y
_atom_site_fract_z
Si Si1 0.160299 0.392411 0.000000
Si Si2 0.331332 0.500000 0.582155
Si Si3 0.830878 0.153952 0.500000
Si Si4 0.339779 0.606941 0.101833
Si Si5 0.668583 0.663147 0.221729
Si Si6 0.831031 0.000000 0.704478
O O1 0.238921 0.354773 0.053987
O O2 0.164315 0.500000 0.000000
O O3 0.000000 0.355604 0.000000
O O4 0.500000 0.500000 0.583070
O O5 0.283746 0.592669 0.552103
O O6 0.266154 0.500000 0.643286
O O7 0.750000 0.250000 0.500000
O O8 0.000000 0.173082 0.500000
O O9 0.500000 0.640486 0.090240
O O10 0.336180 0.500000 0.103619
O O11 0.282851 0.642473 0.159774
O O12 0.500000 0.676071 0.224958
O O13 0.750000 0.750000 0.243146
O O14 0.723150 0.586097 0.262329
O O15 0.000000 0.000000 0.701925
#
# Coordination Sequence:
#
# PCOD8271167 Si02
#       6
#     8   8   8  16  16   8
#     4   9  17  27  44  73 100 122 154 202 258 307
#     4   8  16  31  52  76 105 143 183 213 248 305
#     4   9  17  31  52  80 110 143 179 215 256 300
#     4   9  16  30  50  69  92 126 165 202 244 306
#     4  10  20  34  53  76 100 130 171 213 258 308
#     4   9  17  34  56  75 101 140 180 215 250 302
#
# _framework density 18.797111999999998
#
# number of rings (size 3 to 8) (size 9 to 14) (size 15 to 20)
#    0.000    2.875    1.250    1.125    0.000    3.500 
#    0.000    2.500    0.000    1.500    0.000    0.000 
#    0.000    0.000    0.000    0.000    0.000    0.000 
#
# Total GULP energy -396682.680870 kJ/mol
# GULP energy per Si atom -12396.333777 kJ/mol
# Density = 1.875433 g / cm^3
# Si number density = 18.797112 Si / 1000 Ang^3
#
#
#
# Elastic Constant Matrix: (Units=GPa)
#
#
# Indices 1 2 3 4 5 6 
#
# 1 56.1434 40.8973 51.1556 0.0000 0.0000 0.0000
# 2 40.8973 118.1604 81.3324 0.0000 0.0000 0.0000
# 3 51.1556 81.3324 176.1345 0.0000 0.0000 0.0000
# 4 0.0000 0.0000 0.0000 -10.5307 0.0000 0.0000
# 5 0.0000 0.0000 0.0000 0.0000 11.2593 0.0000
# 6 0.0000 0.0000 0.0000 0.0000 0.0000 29.3457
#
#
#
# Elastic Compliance Matrix: (Units=1/GPa)
#
#
# Indices 1 2 3 4 5 6 
#
# 1 0.026607 -0.005703 -0.005094 0.000000 0.000000 0.000000
# 2 -0.005703 0.013629 -0.004637 0.000000 0.000000 0.000000
# 3 -0.005094 -0.004637 0.009298 0.000000 0.000000 0.000000
# 4 0.000000 0.000000 0.000000 -0.094960 0.000000 0.000000
# 5 0.000000 0.000000 0.000000 0.000000 0.088815 0.000000
# 6 0.000000 0.000000 0.000000 0.000000 0.000000 0.034077
#
#
# Mechanical properties :
#
#
# Convention : Reuss Voigt Hill
#
# Bulk Modulus (GPa) = 53.57275 77.46764 65.52020
# Shear Modulus (GPa) = 43.64685 17.81840 30.73263
#
# Velocity S-wave (km/s) = 4.82394 3.08219 4.04786
# Velocity P-wave (km/s) = 7.71943 7.34633 7.53519
#
# Compressibility (1/GPa) = 0.01866621
#
# Stress axis : x y z
#
# Youngs Moduli (GPa) = 37.58340 73.37542 107.54731
#
# Poissons Ratio (x) = 0.41844 0.54790
# Poissons Ratio (y) = 0.21433 0.49869
# Poissons Ratio (z) = 0.19147 0.34023
#
# Static dielectric constant tensor:
#      x y z
#    x 3.160780 0.000000 0.000000 
#    y 0.000000 3.309810 0.000000 
#    z 0.000000 0.000000 3.825430 
# 
# 
# High freq. dielectric constant tensor:
#      x y z
#    x 1.694960 0.000000 0.000000 
#    y 0.000000 1.727340 0.000000 
#    z 0.000000 0.000000 1.734760 
# 
# From -- ./inp_files/66879.got.cif
#   From: 2010.03.12/outbox.cif.g09.slc.cpg/sg65_34_cif.got.tgz:66879.got - 2010.04.10 20:52:16.
