data_PCOD8271880
_publ_section_title
;
Structure prediction by ZEFSAII (Michael W. Deem and Ramdas Pophale) SiO2 
 PCOD8271880
Probable space group: C M M M
;
_chemical_formula_sum "Si O2"
_cell_formula_units_Z 88
_cell_length_a 15.056451
_cell_length_b 28.081852
_cell_length_c 10.310147
_cell_angle_alpha 90.000000
_cell_angle_beta 90.000000
_cell_angle_gamma 90.000000
_cell_volume 4359.264479
_symmetry_space_group_name_H-M "C M M M"
_symmetry_group_IT_number 65
_symmetry_cell_setting 'orthorhombic'
loop_
_space_group_symop_operation_xyz
x,y,z
-x,-y,z
x,-y,-z
-x,y,-z
-x,-y,-z
x,y,-z
-x,y,z
x,-y,z
1/2+x,1/2+y,z
1/2-x,1/2-y,z
1/2+x,1/2-y,-z
1/2-x,1/2+y,-z
1/2-x,1/2-y,-z
1/2+x,1/2+y,-z
1/2-x,1/2+y,z
1/2+x,1/2-y,z
loop_
_atom_site_type_symbol
_atom_site_label
_atom_site_fract_x
_atom_site_fract_y
_atom_site_fract_z
Si Si1 0.664640 0.217217 0.356999
Si Si2 0.395339 0.618796 0.238808
Si Si3 0.217650 0.609285 0.355925
Si Si4 0.103107 0.052314 0.000000
Si Si5 0.600381 0.720239 0.140347
Si Si6 0.899357 0.556229 0.853065
O O1 0.619791 0.223279 0.500000
O O2 0.750000 0.250000 0.349501
O O3 0.687787 0.163064 0.330970
O O4 0.603143 0.235748 0.240386
O O5 0.500000 0.616533 0.281919
O O6 0.325665 0.604564 0.351192
O O7 0.371552 0.582253 0.125440
O O8 0.361580 0.671306 0.198349
O O9 0.189122 0.592554 0.500000
O O10 0.169247 0.577821 0.248784
O O11 0.000000 0.042956 0.000000
O O12 0.150949 0.000000 0.000000
O O13 0.500000 0.707960 0.110987
O O14 0.645940 0.732547 0.000000
O O15 0.894553 0.500000 0.839458
O O16 0.000000 0.573664 0.823061
O O17 0.872843 0.571466 0.000000
#
# Coordination Sequence:
#
# PCOD8271880 Si02
#       6
#    16  16  16   8  16  16
#     4  10  21  38  54  76 115 158 200 244 294 353
#     4  10  20  36  57  84 121 160 201 247 297 357
#     4  11  24  39  60  91 124 162 207 251 301 362
#     4   9  18  34  56  81 111 149 193 242 293 346
#     4  10  20  35  56  82 112 149 198 252 302 355
#     4   9  21  44  71  96 122 155 198 250 310 374
#
# _framework density 20.186890999999999
#
# number of rings (size 3 to 8) (size 9 to 14) (size 15 to 20)
#    0.000    2.091    2.727    0.545    1.273    4.000 
#    0.000    6.364    0.000    0.000    0.000    3.818 
#    0.000    0.000    0.000    0.000    0.000    0.000 
#
# Total GULP energy -545094.513539 kJ/mol
# GULP energy per Si atom -12388.511671 kJ/mol
# Density = 2.014095 g / cm^3
# Si number density = 20.186891 Si / 1000 Ang^3
#
#
#
# Elastic Constant Matrix: (Units=GPa)
#
#
# Indices 1 2 3 4 5 6 
#
# 1 81.4560 25.1429 57.4195 0.0000 0.0000 0.0000
# 2 25.1429 74.9721 45.4026 0.0000 0.0000 0.0000
# 3 57.4195 45.4026 131.0355 0.0000 0.0000 0.0000
# 4 0.0000 0.0000 0.0000 34.0822 0.0000 0.0000
# 5 0.0000 0.0000 0.0000 0.0000 -1.3065 0.0000
# 6 0.0000 0.0000 0.0000 0.0000 0.0000 27.6053
#
#
#
# Elastic Compliance Matrix: (Units=1/GPa)
#
#
# Indices 1 2 3 4 5 6 
#
# 1 0.017911 -0.001587 -0.007299 0.000000 0.000000 0.000000
# 2 -0.001587 0.017021 -0.005202 0.000000 0.000000 0.000000
# 3 -0.007299 -0.005202 0.012633 0.000000 0.000000 0.000000
# 4 0.000000 0.000000 0.000000 0.029341 0.000000 0.000000
# 5 0.000000 0.000000 0.000000 0.000000 -0.765410 0.000000
# 6 0.000000 0.000000 0.000000 0.000000 0.000000 0.036225
#
#
# Mechanical properties :
#
#
# Convention : Reuss Voigt Hill
#
# Bulk Modulus (GPa) = 51.57582 60.37708 55.97645
# Shear Modulus (GPa) = -8.09533 22.70944 7.30705
#
# Velocity S-wave (km/s) = -2.00472 3.35768 1.90462
# Velocity P-wave (km/s) = 4.49957 6.70865 5.71192
#
# Compressibility (1/GPa) = 0.01938893
#
# Stress axis : x y z
#
# Youngs Moduli (GPa) = 55.83009 58.75131 79.16083
#
# Poissons Ratio (x) = 0.09321 0.57780
# Poissons Ratio (y) = 0.08858 0.41182
# Poissons Ratio (z) = 0.40751 0.30564
#
# Static dielectric constant tensor:
#      x y z
#    x 3.592300 0.000000 0.000000 
#    y 0.000000 4.369560 0.000000 
#    z 0.000000 0.000000 3.981200 
# 
# 
# High freq. dielectric constant tensor:
#      x y z
#    x 1.776880 0.000000 0.000000 
#    y 0.000000 1.782770 0.000000 
#    z 0.000000 0.000000 1.790910 
# 
# From -- ./inp_files/25095.got.cif
#   From: 2010.03.12/outbox.cif.g09.slc.cpg/sg65_13_cif.got.tgz:25095.got - 2010.04.10 20:52:16.
