data_PCOD8271932
_publ_section_title
;
Structure prediction by ZEFSAII (Michael W. Deem and Ramdas Pophale) SiO2 
 PCOD8271932
Probable space group: C M M M
;
_chemical_formula_sum "Si O2"
_cell_formula_units_Z 72
_cell_length_a 14.694997
_cell_length_b 13.927929
_cell_length_c 19.452791
_cell_angle_alpha 90.000000
_cell_angle_beta 90.000000
_cell_angle_gamma 90.000000
_cell_volume 3981.419753
_symmetry_space_group_name_H-M "C M M M"
_symmetry_group_IT_number 65
_symmetry_cell_setting 'orthorhombic'
loop_
_space_group_symop_operation_xyz
x,y,z
-x,-y,z
x,-y,-z
-x,y,-z
-x,-y,-z
x,y,-z
-x,y,z
x,-y,z
1/2+x,1/2+y,z
1/2-x,1/2-y,z
1/2+x,1/2-y,-z
1/2-x,1/2+y,-z
1/2-x,1/2-y,-z
1/2+x,1/2+y,-z
1/2-x,1/2+y,z
1/2+x,1/2-y,z
loop_
_atom_site_type_symbol
_atom_site_label
_atom_site_fract_x
_atom_site_fract_y
_atom_site_fract_z
Si Si1 0.289897 0.888303 0.294886
Si Si2 0.098796 0.108223 0.244146
Si Si3 0.000000 0.388902 0.918951
Si Si4 0.152116 0.722730 0.839845
Si Si5 0.397466 0.885912 0.575619
O O1 0.181096 0.868372 0.296795
O O2 0.334899 0.836266 0.230387
O O3 0.330939 0.845101 0.365350
O O4 0.313385 0.000000 0.287784
O O5 0.101587 0.177947 0.178285
O O6 0.000000 0.119475 0.281120
O O7 0.111063 0.000000 0.215844
O O8 0.908451 0.338808 0.891614
O O9 0.000000 0.500000 0.896055
O O10 0.000000 0.378251 0.000000
O O11 0.250000 0.750000 0.873391
O O12 0.367847 0.847294 0.500000
O O13 0.500000 0.851951 0.592360
O O14 0.392915 0.000000 0.574876
#
# Coordination Sequence:
#
# PCOD8271932 Si02
#       5
#    16  16   8  16  16
#     4   9  17  28  48  78 104 132 174 223 271 322
#     4   9  17  31  51  73  98 130 175 227 267 303
#     4  11  24  40  59  87 120 148 175 218 279 337
#     4  10  20  35  57  81 107 143 183 222 268 323
#     4   8  14  24  39  65 104 144 176 213 268 327
#
# _framework density 18.084001000000001
#
# number of rings (size 3 to 8) (size 9 to 14) (size 15 to 20)
#    0.000    2.778    1.111    1.333    1.556    1.333 
#    0.000    0.000    0.000    8.000    0.000    4.667 
#    0.000    0.000    0.000    0.000    0.000    0.000 
#
# Total GULP energy -446087.218876 kJ/mol
# GULP energy per Si atom -12391.311635 kJ/mol
# Density = 1.804284 g / cm^3
# Si number density = 18.084001 Si / 1000 Ang^3
#
#
#
# Elastic Constant Matrix: (Units=GPa)
#
#
# Indices 1 2 3 4 5 6 
#
# 1 143.4764 47.1521 70.0447 0.0000 0.0000 0.0000
# 2 47.1521 72.1180 41.7681 0.0000 0.0000 0.0000
# 3 70.0447 41.7681 93.2104 0.0000 0.0000 0.0000
# 4 0.0000 0.0000 0.0000 12.0013 0.0000 0.0000
# 5 0.0000 0.0000 0.0000 0.0000 19.3412 0.0000
# 6 0.0000 0.0000 0.0000 0.0000 0.0000 24.5185
#
#
#
# Elastic Compliance Matrix: (Units=1/GPa)
#
#
# Indices 1 2 3 4 5 6 
#
# 1 0.011603 -0.003425 -0.007184 0.000000 0.000000 0.000000
# 2 -0.003425 0.019737 -0.006270 0.000000 0.000000 0.000000
# 3 -0.007184 -0.006270 0.018937 0.000000 0.000000 0.000000
# 4 0.000000 0.000000 0.000000 0.083324 0.000000 0.000000
# 5 0.000000 0.000000 0.000000 0.000000 0.051703 0.000000
# 6 0.000000 0.000000 0.000000 0.000000 0.000000 0.040786
#
#
# Mechanical properties :
#
#
# Convention : Reuss Voigt Hill
#
# Bulk Modulus (GPa) = 60.54306 69.63719 65.09013
# Shear Modulus (GPa) = 18.84264 21.16153 20.00209
#
# Velocity S-wave (km/s) = 3.23143 3.42450 3.32936
# Velocity P-wave (km/s) = 6.89016 7.36393 7.13098
#
# Compressibility (1/GPa) = 0.01651717
#
# Stress axis : x y z
#
# Youngs Moduli (GPa) = 86.18616 50.66564 52.80681
#
# Poissons Ratio (x) = 0.17354 0.37938
# Poissons Ratio (y) = 0.29521 0.33112
# Poissons Ratio (z) = 0.61918 0.31769
#
# Static dielectric constant tensor:
#      x y z
#    x 3.644220 0.000000 0.000000 
#    y 0.000000 3.446570 0.000000 
#    z 0.000000 0.000000 3.157250 
# 
# 
# High freq. dielectric constant tensor:
#      x y z
#    x 1.713580 0.000000 0.000000 
#    y 0.000000 1.700720 0.000000 
#    z 0.000000 0.000000 1.659940 
# 
# From -- ./inp_files/52718.got.cif
#   From: 2010.03.12/outbox.cif.g09.slc.cpg/sg65_27_cif.got.tgz:52718.got - 2010.04.10 20:52:16.
