data_PCOD8271972
_publ_section_title
;
Structure prediction by ZEFSAII (Michael W. Deem and Ramdas Pophale) SiO2 
 PCOD8271972
Probable space group: C M M M
;
_chemical_formula_sum "Si O2"
_cell_formula_units_Z 88
_cell_length_a 8.872562
_cell_length_b 18.847683
_cell_length_c 28.379693
_cell_angle_alpha 90.000000
_cell_angle_beta 90.000000
_cell_angle_gamma 90.000000
_cell_volume 4745.857618
_symmetry_space_group_name_H-M "C M M M"
_symmetry_group_IT_number 65
_symmetry_cell_setting 'orthorhombic'
loop_
_space_group_symop_operation_xyz
x,y,z
-x,-y,z
x,-y,-z
-x,y,-z
-x,-y,-z
x,y,-z
-x,y,z
x,-y,z
1/2+x,1/2+y,z
1/2-x,1/2-y,z
1/2+x,1/2-y,-z
1/2-x,1/2+y,-z
1/2-x,1/2-y,-z
1/2+x,1/2+y,-z
1/2-x,1/2+y,z
1/2+x,1/2-y,z
loop_
_atom_site_type_symbol
_atom_site_label
_atom_site_fract_x
_atom_site_fract_y
_atom_site_fract_z
Si Si1 0.176693 0.083100 0.095890
Si Si2 0.322215 0.675575 0.552525
Si Si3 0.177514 0.919364 0.362664
Si Si4 0.830480 0.583978 0.000000
Si Si5 0.677717 0.919234 0.732733
Si Si6 0.320971 0.172525 0.821499
O O1 0.239454 0.109788 0.045740
O O2 0.263658 0.127891 0.134534
O O3 0.000000 0.099273 0.098172
O O4 0.210480 0.000000 0.104007
O O5 0.274274 0.650134 0.500000
O O6 0.500000 0.683755 0.555730
O O7 0.250000 0.750000 0.565193
O O8 0.261272 0.620416 0.591073
O O9 0.251715 0.888157 0.315321
O O10 0.000000 0.911151 0.357558
O O11 0.228489 0.000000 0.369211
O O12 0.838974 0.500000 0.000000
O O13 0.000000 0.615930 0.000000
O O14 0.500000 0.917464 0.727704
O O15 0.732936 0.869106 0.774910
O O16 0.734111 0.000000 0.742133
O O17 0.500000 0.178897 0.824191
O O18 0.250000 0.250000 0.821252
#
# Coordination Sequence:
#
# PCOD8271972 Si02
#       6
#    16  16  16   8  16  16
#     4  10  20  35  57  84 112 142 178 220 264 310
#     4   9  18  32  49  70  98 132 168 205 247 298
#     4   9  18  32  51  75 100 127 163 208 255 302
#     4   9  17  31  54  83 112 143 180 219 259 307
#     4   9  19  36  56  76 100 133 171 211 257 310
#     4  11  23  38  55  77 107 141 178 218 263 315
#
# _framework density 18.542487000000001
#
# number of rings (size 3 to 8) (size 9 to 14) (size 15 to 20)
#    0.000    2.455    0.000    1.909    0.000    6.182 
#    0.000    7.727    0.000    0.000    0.000    5.091 
#    0.000    0.000    0.000    0.000    0.000    0.000 
#
# Total GULP energy -545610.741309 kJ/mol
# GULP energy per Si atom -12400.244121 kJ/mol
# Density = 1.850028 g / cm^3
# Si number density = 18.542487 Si / 1000 Ang^3
#
#
#
# Elastic Constant Matrix: (Units=GPa)
#
#
# Indices 1 2 3 4 5 6 
#
# 1 52.4526 36.9457 48.4084 0.0000 0.0000 0.0000
# 2 36.9457 89.0034 86.5274 0.0000 0.0000 0.0000
# 3 48.4084 86.5274 188.0994 0.0000 0.0000 0.0000
# 4 0.0000 0.0000 0.0000 0.7382 0.0000 0.0000
# 5 0.0000 0.0000 0.0000 0.0000 34.7042 0.0000
# 6 0.0000 0.0000 0.0000 0.0000 0.0000 26.3916
#
#
#
# Elastic Compliance Matrix: (Units=1/GPa)
#
#
# Indices 1 2 3 4 5 6 
#
# 1 0.028077 -0.008376 -0.003373 0.000000 0.000000 0.000000
# 2 -0.008376 0.022824 -0.008344 0.000000 0.000000 0.000000
# 3 -0.003373 -0.008344 0.010022 0.000000 0.000000 0.000000
# 4 0.000000 0.000000 0.000000 1.354660 0.000000 0.000000
# 5 0.000000 0.000000 0.000000 0.000000 0.028815 0.000000
# 6 0.000000 0.000000 0.000000 0.000000 0.000000 0.037891
#
#
# Mechanical properties :
#
#
# Convention : Reuss Voigt Hill
#
# Bulk Modulus (GPa) = 48.21859 74.81316 61.51588
# Shear Modulus (GPa) = 3.26928 22.87838 13.07383
#
# Velocity S-wave (km/s) = 1.32927 3.51641 2.65820
# Velocity P-wave (km/s) = 5.33074 7.54462 6.53216
#
# Compressibility (1/GPa) = 0.02073889
#
# Stress axis : x y z
#
# Youngs Moduli (GPa) = 35.61584 43.81359 99.77564
#
# Poissons Ratio (x) = 0.36699 0.33652
# Poissons Ratio (y) = 0.29832 0.83249
# Poissons Ratio (z) = 0.12013 0.36556
#
# Static dielectric constant tensor:
#      x y z
#    x 3.395920 0.000000 0.000000 
#    y 0.000000 3.328640 0.000000 
#    z 0.000000 0.000000 3.741500 
# 
# 
# High freq. dielectric constant tensor:
#      x y z
#    x 1.719660 0.000000 0.000000 
#    y 0.000000 1.702180 0.000000 
#    z 0.000000 0.000000 1.736670 
# 
# From -- ./inp_files/67532.got.cif
#   From: 2010.03.12/outbox.cif.g09.slc.cpg/sg65_34_cif.got.tgz:67532.got - 2010.04.10 20:52:16.
