data_PCOD8271756
_publ_section_title
;
Structure prediction by ZEFSAII (Michael W. Deem and Ramdas Pophale) SiO2 
 PCOD8271756
Probable space group: C M M M
;
_chemical_formula_sum "Si O2"
_cell_formula_units_Z 72
_cell_length_a 27.378708
_cell_length_b 16.127260
_cell_length_c 8.948204
_cell_angle_alpha 90.000000
_cell_angle_beta 90.000000
_cell_angle_gamma 90.000000
_cell_volume 3951.021692
_symmetry_space_group_name_H-M "C M M M"
_symmetry_group_IT_number 65
_symmetry_cell_setting 'orthorhombic'
loop_
_space_group_symop_operation_xyz
x,y,z
-x,-y,z
x,-y,-z
-x,y,-z
-x,-y,-z
x,y,-z
-x,y,z
x,-y,z
1/2+x,1/2+y,z
1/2-x,1/2-y,z
1/2+x,1/2-y,-z
1/2-x,1/2+y,-z
1/2-x,1/2-y,-z
1/2+x,1/2+y,-z
1/2-x,1/2+y,z
1/2+x,1/2-y,z
loop_
_atom_site_type_symbol
_atom_site_label
_atom_site_fract_x
_atom_site_fract_y
_atom_site_fract_z
Si Si1 0.057248 0.000000 0.822262
Si Si2 0.194252 0.751359 0.823418
Si Si3 0.863136 0.408628 0.826166
Si Si4 0.389855 0.344066 0.676277
Si Si5 0.445799 0.822480 0.674902
O O1 0.085186 0.921078 0.756937
O O2 0.000000 0.000000 0.773548
O O3 0.061887 0.000000 0.000000
O O4 0.250000 0.750000 0.769816
O O5 0.174760 0.661160 0.772784
O O6 0.164379 0.824719 0.740621
O O7 0.189729 0.766608 0.000000
O O8 0.842451 0.500000 0.785865
O O9 0.914897 0.396443 0.746231
O O10 0.873019 0.399686 0.000000
O O11 0.386209 0.361391 0.500000
O O12 0.423518 0.266253 0.716535
O O13 0.446244 0.836525 0.500000
O O14 0.500000 0.825967 0.742294
#
# Coordination Sequence:
#
# PCOD8271756 Si02
#       5
#     8  16  16  16  16
#     4  11  23  37  55  81 113 147 183 225 274 331
#     4   9  18  35  56  77 103 138 179 221 269 319
#     4   9  18  32  49  71 100 131 167 209 253 304
#     4  10  20  35  55  78 107 140 178 222 269 322
#     4   9  18  32  50  72  99 134 171 206 251 305
#
# _framework density 18.223134000000002
#
# number of rings (size 3 to 8) (size 9 to 14) (size 15 to 20)
#    0.000    2.556    0.000    1.667    0.000    4.444 
#    2.000    2.222    0.000    0.000    0.000    0.000 
#    0.000    0.000    0.000    0.000    0.000    0.000 
#
# Total GULP energy -446337.836184 kJ/mol
# GULP energy per Si atom -12398.273227 kJ/mol
# Density = 1.818166 g / cm^3
# Si number density = 18.223134 Si / 1000 Ang^3
#
#
#
# Elastic Constant Matrix: (Units=GPa)
#
#
# Indices 1 2 3 4 5 6 
#
# 1 161.9284 62.9181 43.0363 0.0000 0.0000 0.0000
# 2 62.9181 111.3604 41.2919 0.0000 0.0000 0.0000
# 3 43.0363 41.2919 49.2065 0.0000 0.0000 0.0000
# 4 0.0000 0.0000 0.0000 28.2212 0.0000 0.0000
# 5 0.0000 0.0000 0.0000 0.0000 26.8847 0.0000
# 6 0.0000 0.0000 0.0000 0.0000 0.0000 20.2512
#
#
#
# Elastic Compliance Matrix: (Units=1/GPa)
#
#
# Indices 1 2 3 4 5 6 
#
# 1 0.008701 -0.003040 -0.005059 0.000000 0.000000 0.000000
# 2 -0.003040 0.014098 -0.009172 0.000000 0.000000 0.000000
# 3 -0.005059 -0.009172 0.032444 0.000000 0.000000 0.000000
# 4 0.000000 0.000000 0.000000 0.035434 0.000000 0.000000
# 5 0.000000 0.000000 0.000000 0.000000 0.037196 0.000000
# 6 0.000000 0.000000 0.000000 0.000000 0.000000 0.049380
#
#
# Mechanical properties :
#
#
# Convention : Reuss Voigt Hill
#
# Bulk Modulus (GPa) = 48.30579 68.55418 58.42999
# Shear Modulus (GPa) = 22.86278 26.75469 24.80873
#
# Velocity S-wave (km/s) = 3.54588 3.83583 3.69370
# Velocity P-wave (km/s) = 6.58254 7.57094 7.09397
#
# Compressibility (1/GPa) = 0.02070145
#
# Stress axis : x y z
#
# Youngs Moduli (GPa) = 114.92277 70.92964 30.82278
#
# Poissons Ratio (x) = 0.21566 0.15593
# Poissons Ratio (y) = 0.34942 0.28269
# Poissons Ratio (z) = 0.58139 0.65054
#
# Static dielectric constant tensor:
#      x y z
#    x 3.685560 0.000000 0.000000 
#    y 0.000000 3.487090 0.000000 
#    z 0.000000 0.000000 3.320680 
# 
# 
# High freq. dielectric constant tensor:
#      x y z
#    x 1.706250 0.000000 0.000000 
#    y 0.000000 1.706380 0.000000 
#    z 0.000000 0.000000 1.703010 
# 
# From -- ./inp_files/7221.got.cif
#   From: 2010.03.12/outbox.cif.g09.slc.cpg/sg65_4_cif.got.tgz:7221.got - 2010.04.10 20:52:16.
