data_PCOD8271073
_publ_section_title
;
Structure prediction by ZEFSAII (Michael W. Deem and Ramdas Pophale) SiO2 
 PCOD8271073
Probable space group: C M M M
;
_chemical_formula_sum "Si O2"
_cell_formula_units_Z 88
_cell_length_a 24.693229
_cell_length_b 14.045993
_cell_length_c 13.202952
_cell_angle_alpha 90.000000
_cell_angle_beta 90.000000
_cell_angle_gamma 90.000000
_cell_volume 4579.324041
_symmetry_space_group_name_H-M "C M M M"
_symmetry_group_IT_number 65
_symmetry_cell_setting 'orthorhombic'
loop_
_space_group_symop_operation_xyz
x,y,z
-x,-y,z
x,-y,-z
-x,y,-z
-x,-y,-z
x,y,-z
-x,y,z
x,-y,z
1/2+x,1/2+y,z
1/2-x,1/2-y,z
1/2+x,1/2-y,-z
1/2-x,1/2+y,-z
1/2-x,1/2-y,-z
1/2+x,1/2+y,-z
1/2-x,1/2+y,z
1/2+x,1/2-y,z
loop_
_atom_site_type_symbol
_atom_site_label
_atom_site_fract_x
_atom_site_fract_y
_atom_site_fract_z
Si Si1 0.250000 0.250000 0.275133
Si Si2 0.862450 0.768246 0.384768
Si Si3 0.938561 0.714047 0.890772
Si Si4 0.895126 0.892424 0.205174
Si Si5 0.777915 0.892765 0.113207
Si Si6 0.935780 0.389417 0.695243
O O1 0.197695 0.254292 0.345797
O O2 0.255739 0.160724 0.199525
O O3 0.858896 0.803155 0.500000
O O4 0.886807 0.855085 0.319686
O O5 0.900981 0.674685 0.381779
O O6 0.936564 0.822931 0.851821
O O7 0.914625 0.641293 0.807455
O O8 0.000000 0.685899 0.907104
O O9 0.908524 0.702125 0.000000
O O10 0.840807 0.887001 0.140427
O O11 0.918079 0.000000 0.209395
O O12 0.756792 0.000000 0.115406
O O13 0.769483 0.849988 0.000000
O O14 0.922993 0.500000 0.676061
O O15 0.000000 0.368541 0.681482
#
# Coordination Sequence:
#
# PCOD8271073 Si02
#       6
#     8  16  16  16  16  16
#     4  10  20  34  52  74 104 134 164 210 264 314
#     4  10  21  36  54  75  99 131 174 221 269 318
#     4   9  17  29  48  76 107 137 168 203 248 303
#     4   9  18  32  49  70  98 131 168 209 251 300
#     4   9  17  30  49  71  96 129 165 199 242 301
#     4   9  19  36  56  78 105 137 175 219 263 308
#
# _framework density 19.216809000000001
#
# number of rings (size 3 to 8) (size 9 to 14) (size 15 to 20)
#    0.000    2.727    0.000    1.091    0.000    3.636 
#    0.000    4.545    0.000    3.273    0.000    5.091 
#    0.000    0.000    0.000    0.000    0.000    0.000 
#
# Total GULP energy -545285.342041 kJ/mol
# GULP energy per Si atom -12392.848683 kJ/mol
# Density = 1.917307 g / cm^3
# Si number density = 19.216809 Si / 1000 Ang^3
#
#
#
# Elastic Constant Matrix: (Units=GPa)
#
#
# Indices 1 2 3 4 5 6 
#
# 1 32.4479 6.1598 11.9406 0.0000 0.0000 0.0000
# 2 6.1598 71.0688 7.8009 0.0000 0.0000 0.0000
# 3 11.9406 7.8009 121.0775 0.0000 0.0000 0.0000
# 4 0.0000 0.0000 0.0000 16.5167 0.0000 0.0000
# 5 0.0000 0.0000 0.0000 0.0000 20.8421 0.0000
# 6 0.0000 0.0000 0.0000 0.0000 0.0000 24.5989
#
#
#
# Elastic Compliance Matrix: (Units=1/GPa)
#
#
# Indices 1 2 3 4 5 6 
#
# 1 0.032406 -0.002475 -0.003036 0.000000 0.000000 0.000000
# 2 -0.002475 0.014360 -0.000681 0.000000 0.000000 0.000000
# 3 -0.003036 -0.000681 0.008603 0.000000 0.000000 0.000000
# 4 0.000000 0.000000 0.000000 0.060545 0.000000 0.000000
# 5 0.000000 0.000000 0.000000 0.000000 0.047980 0.000000
# 6 0.000000 0.000000 0.000000 0.000000 0.000000 0.040652
#
#
# Mechanical properties :
#
#
# Convention : Reuss Voigt Hill
#
# Bulk Modulus (GPa) = 23.26513 30.71077 26.98795
# Shear Modulus (GPa) = 21.62078 25.63773 23.62925
#
# Velocity S-wave (km/s) = 3.35789 3.65654 3.51039
# Velocity P-wave (km/s) = 5.21218 5.81747 5.52312
#
# Compressibility (1/GPa) = 0.04298279
#
# Stress axis : x y z
#
# Youngs Moduli (GPa) = 30.85851 69.63696 116.24526
#
# Poissons Ratio (x) = 0.17238 0.35296
# Poissons Ratio (y) = 0.07639 0.07917
# Poissons Ratio (z) = 0.09370 0.04743
#
# Static dielectric constant tensor:
#      x y z
#    x 3.280200 0.000000 0.000000 
#    y 0.000000 3.569900 0.000000 
#    z 0.000000 0.000000 3.754450 
# 
# 
# High freq. dielectric constant tensor:
#      x y z
#    x 1.726360 0.000000 0.000000 
#    y 0.000000 1.741220 0.000000 
#    z 0.000000 0.000000 1.753490 
# 
# From -- ./inp_files/32220.got.cif
#   From: 2010.03.12/outbox.cif.g09.slc.cpg/sg65_17_cif.got.tgz:32220.got - 2010.04.10 20:52:16.
