data_PCOD8271710
_publ_section_title
;
Structure prediction by ZEFSAII (Michael W. Deem and Ramdas Pophale) SiO2 
 PCOD8271710
Probable space group: C M M M
;
_chemical_formula_sum "Si O2"
_cell_formula_units_Z 104
_cell_length_a 9.199193
_cell_length_b 19.200775
_cell_length_c 33.023088
_cell_angle_alpha 90.000000
_cell_angle_beta 90.000000
_cell_angle_gamma 90.000000
_cell_volume 5832.922025
_symmetry_space_group_name_H-M "C M M M"
_symmetry_group_IT_number 65
_symmetry_cell_setting 'orthorhombic'
loop_
_space_group_symop_operation_xyz
x,y,z
-x,-y,z
x,-y,-z
-x,y,-z
-x,-y,-z
x,y,-z
-x,y,z
x,-y,z
1/2+x,1/2+y,z
1/2-x,1/2-y,z
1/2+x,1/2-y,-z
1/2-x,1/2+y,-z
1/2-x,1/2-y,-z
1/2+x,1/2+y,-z
1/2-x,1/2+y,z
1/2+x,1/2-y,z
loop_
_atom_site_type_symbol
_atom_site_label
_atom_site_fract_x
_atom_site_fract_y
_atom_site_fract_z
Si Si1 0.333176 0.918277 0.656026
Si Si2 0.671354 0.678711 0.283341
Si Si3 0.670449 0.323731 0.500000
Si Si4 0.835575 0.417233 0.955753
Si Si5 0.670851 0.421112 0.878617
Si Si6 0.668911 0.680766 0.809320
Si Si7 0.668647 0.580131 0.574858
O O1 0.500000 0.892778 0.657618
O O2 0.238507 0.883192 0.690810
O O3 0.266718 0.897873 0.612745
O O4 0.321258 0.000000 0.663465
O O5 0.500000 0.685739 0.291725
O O6 0.750000 0.750000 0.295992
O O7 0.705066 0.659951 0.236744
O O8 0.500000 0.308995 0.500000
O O9 0.750000 0.250000 0.500000
O O10 0.716376 0.369031 0.461191
O O11 0.825443 0.500000 0.955476
O O12 0.738970 0.386843 0.919168
O O13 0.000000 0.392352 0.948688
O O14 0.780751 0.390268 0.000000
O O15 0.500000 0.417329 0.884112
O O16 0.725178 0.500000 0.872703
O O17 0.723167 0.380512 0.838699
O O18 0.500000 0.695532 0.814811
O O19 0.750000 0.750000 0.822719
O O20 0.500000 0.590376 0.586341
O O21 0.697482 0.500000 0.561911
#
# Coordination Sequence:
#
# PCOD8271710 Si02
#       7
#    16  16   8  16  16  16  16
#     4  10  21  36  54  79 109 137 169 211 255 300
#     4  10  20  35  55  76 100 133 171 209 252 302
#     4  10  21  35  53  79 107 134 168 212 256 298
#     4   8  14  25  41  63  92 123 154 190 234 284
#     4   9  17  29  46  70  97 122 153 195 240 285
#     4   9  19  34  51  71  96 128 163 199 241 291
#     4   9  18  35  57  77 100 135 176 211 247 296
#
# _framework density 17.829829
#
# number of rings (size 3 to 8) (size 9 to 14) (size 15 to 20)
#    0.000    2.769    0.000    1.615    0.000    5.231 
#    0.000    4.615    0.000    4.615    0.000    0.000 
#    0.000    0.000    0.000    0.000    0.000    0.000 
#
# Total GULP energy -644729.053752 kJ/mol
# GULP energy per Si atom -12398.635649 kJ/mol
# Density = 1.778925 g / cm^3
# Si number density = 17.829829 Si / 1000 Ang^3
#
#
#
# Elastic Constant Matrix: (Units=GPa)
#
#
# Indices 1 2 3 4 5 6 
#
# 1 73.4327 43.5350 62.0135 0.0000 0.0000 0.0000
# 2 43.5350 77.1706 72.0151 0.0000 0.0000 0.0000
# 3 62.0135 72.0151 137.6618 0.0000 0.0000 0.0000
# 4 0.0000 0.0000 0.0000 9.6654 0.0000 0.0000
# 5 0.0000 0.0000 0.0000 0.0000 30.2332 0.0000
# 6 0.0000 0.0000 0.0000 0.0000 0.0000 28.4791
#
#
#
# Elastic Compliance Matrix: (Units=1/GPa)
#
#
# Indices 1 2 3 4 5 6 
#
# 1 0.023595 -0.006627 -0.007162 0.000000 0.000000 0.000000
# 2 -0.006627 0.027180 -0.011233 0.000000 0.000000 0.000000
# 3 -0.007162 -0.011233 0.016367 0.000000 0.000000 0.000000
# 4 0.000000 0.000000 0.000000 0.103461 0.000000 0.000000
# 5 0.000000 0.000000 0.000000 0.000000 0.033076 0.000000
# 6 0.000000 0.000000 0.000000 0.000000 0.000000 0.035113
#
#
# Mechanical properties :
#
#
# Convention : Reuss Voigt Hill
#
# Bulk Modulus (GPa) = 58.49055 71.48802 64.98929
# Shear Modulus (GPa) = 16.97577 21.05564 19.01571
#
# Velocity S-wave (km/s) = 3.08896 3.44018 3.26929
# Velocity P-wave (km/s) = 6.75265 7.48074 7.12600
#
# Compressibility (1/GPa) = 0.01709678
#
# Stress axis : x y z
#
# Youngs Moduli (GPa) = 42.38113 36.79216 61.09873
#
# Poissons Ratio (x) = 0.24384 0.43760
# Poissons Ratio (y) = 0.28088 0.68633
# Poissons Ratio (z) = 0.30354 0.41329
#
# Static dielectric constant tensor:
#      x y z
#    x 3.332690 0.000000 0.000000 
#    y 0.000000 3.169160 0.000000 
#    z 0.000000 0.000000 3.575600 
# 
# 
# High freq. dielectric constant tensor:
#      x y z
#    x 1.689830 0.000000 0.000000 
#    y 0.000000 1.667280 0.000000 
#    z 0.000000 0.000000 1.701310 
# 
# From -- ./inp_files/76873.got.cif
#   From: 2010.03.12/outbox.cif.g09.slc.cpg/sg65_39_cif.got.tgz:76873.got - 2010.04.10 20:52:16.
