data_PCOD8271753
_publ_section_title
;
Structure prediction by ZEFSAII (Michael W. Deem and Ramdas Pophale) SiO2 
 PCOD8271753
Probable space group: C M M M
;
_chemical_formula_sum "Si O2"
_cell_formula_units_Z 72
_cell_length_a 17.697445
_cell_length_b 8.856030
_cell_length_c 23.298387
_cell_angle_alpha 90.000000
_cell_angle_beta 90.000000
_cell_angle_gamma 90.000000
_cell_volume 3651.535316
_symmetry_space_group_name_H-M "C M M M"
_symmetry_group_IT_number 65
_symmetry_cell_setting 'orthorhombic'
loop_
_space_group_symop_operation_xyz
x,y,z
-x,-y,z
x,-y,-z
-x,y,-z
-x,-y,-z
x,y,-z
-x,y,z
x,-y,z
1/2+x,1/2+y,z
1/2-x,1/2-y,z
1/2+x,1/2-y,-z
1/2-x,1/2+y,-z
1/2-x,1/2-y,-z
1/2+x,1/2+y,-z
1/2-x,1/2+y,z
1/2+x,1/2-y,z
loop_
_atom_site_type_symbol
_atom_site_label
_atom_site_fract_x
_atom_site_fract_y
_atom_site_fract_z
Si Si1 0.410119 0.830068 0.062864
Si Si2 0.168589 0.821073 0.394768
Si Si3 0.411440 0.825044 0.289565
Si Si4 0.410853 0.829398 0.500000
Si Si5 0.410264 0.332090 0.174188
O O1 0.500000 0.829878 0.066535
O O2 0.375906 0.728716 0.114088
O O3 0.380047 0.000000 0.070908
O O4 0.384799 0.767630 0.000000
O O5 0.250000 0.750000 0.404186
O O6 0.135298 0.775580 0.333497
O O7 0.114236 0.759157 0.443777
O O8 0.174290 0.000000 0.399003
O O9 0.500000 0.793885 0.298775
O O10 0.385219 0.776750 0.225979
O O11 0.391745 0.000000 0.298924
O O12 0.500000 0.835863 0.500000
O O13 0.377662 0.000000 0.500000
O O14 0.500000 0.335124 0.170087
O O15 0.378443 0.500000 0.185071
#
# Coordination Sequence:
#
# PCOD8271753 Si02
#       5
#    16  16  16   8  16
#     4   8  13  21  33  51  80 121 166 210 260 318
#     4  12  25  41  61  85 115 147 182 223 268 317
#     4  10  20  35  55  78 106 141 181 224 271 323
#     4  11  24  43  66  91 119 149 182 219 262 313
#     4   9  16  25  39  62  92 127 169 216 265 317
#
# _framework density 19.717732999999999
#
# number of rings (size 3 to 8) (size 9 to 14) (size 15 to 20)
#    0.000    2.111    0.000    5.333    0.000    8.000 
#    0.000    2.222    0.000    0.000    0.000    0.000 
#    0.000    0.889    0.000    3.333    0.000    7.778 
#
# Total GULP energy -446366.218788 kJ/mol
# GULP energy per Si atom -12399.061633 kJ/mol
# Density = 1.967285 g / cm^3
# Si number density = 19.717733 Si / 1000 Ang^3
#
#
#
# Elastic Constant Matrix: (Units=GPa)
#
#
# Indices 1 2 3 4 5 6 
#
# 1 38.7917 30.9594 24.9092 0.0000 0.0000 0.0000
# 2 30.9594 146.2744 54.8756 0.0000 0.0000 0.0000
# 3 24.9092 54.8756 139.8544 0.0000 0.0000 0.0000
# 4 0.0000 0.0000 0.0000 66.3901 0.0000 0.0000
# 5 0.0000 0.0000 0.0000 0.0000 -0.6973 0.0000
# 6 0.0000 0.0000 0.0000 0.0000 0.0000 20.7996
#
#
#
# Elastic Compliance Matrix: (Units=1/GPa)
#
#
# Indices 1 2 3 4 5 6 
#
# 1 0.032513 -0.005522 -0.003624 0.000000 0.000000 0.000000
# 2 -0.005522 0.008954 -0.002530 0.000000 0.000000 0.000000
# 3 -0.003624 -0.002530 0.008788 0.000000 0.000000 0.000000
# 4 0.000000 0.000000 0.000000 0.015062 0.000000 0.000000
# 5 0.000000 0.000000 0.000000 0.000000 -1.434034 0.000000
# 6 0.000000 0.000000 0.000000 0.000000 0.000000 0.048078
#
#
# Mechanical properties :
#
#
# Convention : Reuss Voigt Hill
#
# Bulk Modulus (GPa) = 37.16963 60.71209 48.94086
# Shear Modulus (GPa) = -3.88103 31.57689 13.84793
#
# Velocity S-wave (km/s) = -1.40448 4.00615 2.65299
# Velocity P-wave (km/s) = 4.03258 7.22886 5.85312
#
# Compressibility (1/GPa) = 0.02690369
#
# Stress axis : x y z
#
# Youngs Moduli (GPa) = 30.75714 111.67810 113.78520
#
# Poissons Ratio (x) = 0.61666 0.41238
# Poissons Ratio (y) = 0.16983 0.28787
# Poissons Ratio (z) = 0.11147 0.28254
#
# Static dielectric constant tensor:
#      x y z
#    x 3.111410 0.000000 0.000000 
#    y 0.000000 3.807790 0.000000 
#    z 0.000000 0.000000 3.952170 
# 
# 
# High freq. dielectric constant tensor:
#      x y z
#    x 1.712190 0.000000 0.000000 
#    y 0.000000 1.779270 0.000000 
#    z 0.000000 0.000000 1.791070 
# 
# From -- ./inp_files/66975.got.cif
#   From: 2010.03.12/outbox.cif.g09.slc.cpg/sg65_34_cif.got.tgz:66975.got - 2010.04.10 20:52:16.
