data_PCOD8271762
_publ_section_title
;
Structure prediction by ZEFSAII (Michael W. Deem and Ramdas Pophale) SiO2 
 PCOD8271762
Probable space group: C M M M
;
_chemical_formula_sum "Si O2"
_cell_formula_units_Z 80
_cell_length_a 19.522993
_cell_length_b 8.044635
_cell_length_c 26.697883
_cell_angle_alpha 90.000000
_cell_angle_beta 90.000000
_cell_angle_gamma 90.000000
_cell_volume 4193.045433
_symmetry_space_group_name_H-M "C M M M"
_symmetry_group_IT_number 65
_symmetry_cell_setting 'orthorhombic'
loop_
_space_group_symop_operation_xyz
x,y,z
-x,-y,z
x,-y,-z
-x,y,-z
-x,-y,-z
x,y,-z
-x,y,z
x,-y,z
1/2+x,1/2+y,z
1/2-x,1/2-y,z
1/2+x,1/2-y,-z
1/2-x,1/2+y,-z
1/2-x,1/2-y,-z
1/2+x,1/2+y,-z
1/2-x,1/2+y,z
1/2+x,1/2-y,z
loop_
_atom_site_type_symbol
_atom_site_label
_atom_site_fract_x
_atom_site_fract_y
_atom_site_fract_z
Si Si1 0.173514 0.809962 0.704290
Si Si2 0.420531 0.812754 0.620991
Si Si3 0.918741 0.312973 0.000000
Si Si4 0.078827 0.808873 0.105874
Si Si5 0.418747 0.500000 0.555971
Si Si6 0.322684 0.811209 0.811804
O O1 0.250000 0.750000 0.692900
O O2 0.120640 0.700102 0.672732
O O3 0.155875 0.793378 0.763027
O O4 0.164887 0.000000 0.687948
O O5 0.500000 0.782226 0.633362
O O6 0.393489 0.670112 0.582929
O O7 0.409682 0.000000 0.598767
O O8 0.891966 0.221138 0.950110
O O9 0.890543 0.500000 0.000000
O O10 0.000000 0.307536 0.000000
O O11 0.120808 0.700964 0.145223
O O12 0.000000 0.751488 0.109166
O O13 0.087667 0.000000 0.120036
O O14 0.500000 0.500000 0.553559
O O15 0.387659 0.500000 0.500000
O O16 0.250000 0.750000 0.833642
O O17 0.315218 0.000000 0.794116
#
# Coordination Sequence:
#
# PCOD8271762 Si02
#       6
#    16  16   8  16   8  16
#     4  11  21  36  57  81 109 146 187 225 275 334
#     4  10  20  35  56  85 116 147 188 233 276 325
#     4   9  17  31  52  77 104 135 174 217 263 321
#     4  10  20  35  55  79 106 139 177 219 269 321
#     4   9  18  34  56  84 116 150 187 228 278 328
#     4  11  22  37  55  77 108 141 180 223 271 328
#
# _framework density 19.079211999999998
#
# number of rings (size 3 to 8) (size 9 to 14) (size 15 to 20)
#    0.000    1.800    1.000    5.700    0.000    3.600 
#    0.000    2.500    0.000    0.600    0.000    0.000 
#    0.000    0.000    0.000    0.000    0.000    0.000 
#
# Total GULP energy -496040.172940 kJ/mol
# GULP energy per Si atom -12401.004323 kJ/mol
# Density = 1.903579 g / cm^3
# Si number density = 19.079212 Si / 1000 Ang^3
#
#
#
# Elastic Constant Matrix: (Units=GPa)
#
#
# Indices 1 2 3 4 5 6 
#
# 1 59.5780 28.1520 52.4884 0.0000 0.0000 0.0000
# 2 28.1520 119.4893 36.7325 0.0000 0.0000 0.0000
# 3 52.4884 36.7325 113.8824 0.0000 0.0000 0.0000
# 4 0.0000 0.0000 0.0000 29.5371 0.0000 0.0000
# 5 0.0000 0.0000 0.0000 0.0000 6.3959 0.0000
# 6 0.0000 0.0000 0.0000 0.0000 0.0000 24.5449
#
#
#
# Elastic Compliance Matrix: (Units=1/GPa)
#
#
# Indices 1 2 3 4 5 6 
#
# 1 0.029226 -0.003047 -0.012487 0.000000 0.000000 0.000000
# 2 -0.003047 0.009608 -0.001695 0.000000 0.000000 0.000000
# 3 -0.012487 -0.001695 0.015083 0.000000 0.000000 0.000000
# 4 0.000000 0.000000 0.000000 0.033856 0.000000 0.000000
# 5 0.000000 0.000000 0.000000 0.000000 0.156351 0.000000
# 6 0.000000 0.000000 0.000000 0.000000 0.000000 0.040742
#
#
# Mechanical properties :
#
#
# Convention : Reuss Voigt Hill
#
# Bulk Modulus (GPa) = 51.39077 58.63284 55.01181
# Shear Modulus (GPa) = 15.34639 23.80069 19.57354
#
# Velocity S-wave (km/s) = 2.83919 3.53578 3.20646
# Velocity P-wave (km/s) = 6.14345 6.88963 6.52721
#
# Compressibility (1/GPa) = 0.01945875
#
# Stress axis : x y z
#
# Youngs Moduli (GPa) = 34.21610 104.08252 66.29947
#
# Poissons Ratio (x) = 0.31713 0.82791
# Poissons Ratio (y) = 0.10425 0.11235
# Poissons Ratio (z) = 0.42727 0.17638
#
# Static dielectric constant tensor:
#      x y z
#    x 3.214310 0.000000 0.000000 
#    y 0.000000 3.657880 0.000000 
#    z 0.000000 0.000000 3.483350 
# 
# 
# High freq. dielectric constant tensor:
#      x y z
#    x 1.711930 0.000000 0.000000 
#    y 0.000000 1.762280 0.000000 
#    z 0.000000 0.000000 1.735480 
# 
# From -- ./inp_files/70820.got.cif
#   From: 2010.03.12/outbox.cif.g09.slc.cpg/sg65_36_cif.got.tgz:70820.got - 2010.04.10 20:52:16.
