data_PCOD8271761
_publ_section_title
;
Structure prediction by ZEFSAII (Michael W. Deem and Ramdas Pophale) SiO2 
 PCOD8271761
Probable space group: C M M M
;
_chemical_formula_sum "Si O2"
_cell_formula_units_Z 72
_cell_length_a 19.802137
_cell_length_b 10.309778
_cell_length_c 18.783170
_cell_angle_alpha 90.000000
_cell_angle_beta 90.000000
_cell_angle_gamma 90.000000
_cell_volume 3834.690025
_symmetry_space_group_name_H-M "C M M M"
_symmetry_group_IT_number 65
_symmetry_cell_setting 'orthorhombic'
loop_
_space_group_symop_operation_xyz
x,y,z
-x,-y,z
x,-y,-z
-x,y,-z
-x,-y,-z
x,y,-z
-x,y,z
x,-y,z
1/2+x,1/2+y,z
1/2-x,1/2-y,z
1/2+x,1/2-y,-z
1/2-x,1/2+y,-z
1/2-x,1/2-y,-z
1/2+x,1/2+y,-z
1/2-x,1/2+y,z
1/2+x,1/2-y,z
loop_
_atom_site_type_symbol
_atom_site_label
_atom_site_fract_x
_atom_site_fract_y
_atom_site_fract_z
Si Si1 0.922125 0.760245 0.157446
Si Si2 0.307324 0.351112 0.582340
Si Si3 0.924540 0.851261 0.310732
Si Si4 0.420538 0.000000 0.920212
Si Si5 0.300691 0.357117 0.918558
O O1 0.912070 0.759724 0.242552
O O2 0.897790 0.623753 0.125082
O O3 0.871891 0.864048 0.122723
O O4 0.000000 0.793758 0.138188
O O5 0.325909 0.331794 0.500000
O O6 0.284062 0.500000 0.596934
O O7 0.250000 0.250000 0.606167
O O8 0.373564 0.314100 0.626697
O O9 0.000000 0.829144 0.340738
O O10 0.914929 0.000000 0.286097
O O11 0.500000 0.000000 0.928896
O O12 0.387750 0.000000 0.000000
O O13 0.267225 0.500000 0.911968
O O14 0.250000 0.250000 0.885276
O O15 0.316391 0.320824 0.000000
#
# Coordination Sequence:
#
# PCOD8271761 Si02
#       5
#    16  16  16   8  16
#     4  10  20  35  55  79 106 138 179 228 277 326
#     4   9  18  34  56  82 111 145 184 223 265 318
#     4   9  18  33  53  78 108 141 177 224 276 323
#     4   9  18  32  52  78 105 139 182 226 275 328
#     4  10  22  37  53  75 103 136 173 217 270 326
#
# _framework density 18.775963999999998
#
# number of rings (size 3 to 8) (size 9 to 14) (size 15 to 20)
#    0.000    2.556    0.000    1.333    1.556    4.000 
#    2.000    3.333    0.000    0.000    0.000    3.111 
#    0.000    0.000    0.000    0.000    0.000    0.000 
#
# Total GULP energy -446310.462205 kJ/mol
# GULP energy per Si atom -12397.512839 kJ/mol
# Density = 1.873323 g / cm^3
# Si number density = 18.775964 Si / 1000 Ang^3
#
#
#
# Elastic Constant Matrix: (Units=GPa)
#
#
# Indices 1 2 3 4 5 6 
#
# 1 117.0903 56.7653 65.6627 0.0000 0.0000 0.0000
# 2 56.7653 99.9095 51.3226 0.0000 0.0000 0.0000
# 3 65.6627 51.3226 96.2950 0.0000 0.0000 0.0000
# 4 0.0000 0.0000 0.0000 28.1455 0.0000 0.0000
# 5 0.0000 0.0000 0.0000 0.0000 34.3147 0.0000
# 6 0.0000 0.0000 0.0000 0.0000 0.0000 28.4494
#
#
#
# Elastic Compliance Matrix: (Units=1/GPa)
#
#
# Indices 1 2 3 4 5 6 
#
# 1 0.015201 -0.004561 -0.007935 0.000000 0.000000 0.000000
# 2 -0.004561 0.015151 -0.004965 0.000000 0.000000 0.000000
# 3 -0.007935 -0.004965 0.018442 0.000000 0.000000 0.000000
# 4 0.000000 0.000000 0.000000 0.035530 0.000000 0.000000
# 5 0.000000 0.000000 0.000000 0.000000 0.029142 0.000000
# 6 0.000000 0.000000 0.000000 0.000000 0.000000 0.035150
#
#
# Mechanical properties :
#
#
# Convention : Reuss Voigt Hill
#
# Bulk Modulus (GPa) = 72.08517 73.42177 72.75347
# Shear Modulus (GPa) = 26.57302 27.48487 27.02895
#
# Velocity S-wave (km/s) = 3.76609 3.83016 3.79826
# Velocity P-wave (km/s) = 7.57541 7.66480 7.62024
#
# Compressibility (1/GPa) = 0.01387248
#
# Stress axis : x y z
#
# Youngs Moduli (GPa) = 65.78423 66.00304 54.22516
#
# Poissons Ratio (x) = 0.30103 0.43027
# Poissons Ratio (y) = 0.30003 0.26923
# Poissons Ratio (z) = 0.52198 0.32771
#
# Static dielectric constant tensor:
#      x y z
#    x 3.395750 0.000000 0.000000 
#    y 0.000000 3.503030 0.000000 
#    z 0.000000 0.000000 3.307160 
# 
# 
# High freq. dielectric constant tensor:
#      x y z
#    x 1.727640 0.000000 0.000000 
#    y 0.000000 1.725050 0.000000 
#    z 0.000000 0.000000 1.716330 
# 
# From -- ./inp_files/51128.got.cif
#   From: 2010.03.12/outbox.cif.g09.slc.cpg/sg65_26_cif.got.tgz:51128.got - 2010.04.10 20:52:16.
