data_PCOD8271633
_publ_section_title
;
Structure prediction by ZEFSAII (Michael W. Deem and Ramdas Pophale) SiO2 
 PCOD8271633
Probable space group: C M M M
;
_chemical_formula_sum "Si O2"
_cell_formula_units_Z 104
_cell_length_a 23.225814
_cell_length_b 30.249117
_cell_length_c 7.677906
_cell_angle_alpha 90.000000
_cell_angle_beta 90.000000
_cell_angle_gamma 90.000000
_cell_volume 5394.192443
_symmetry_space_group_name_H-M "C M M M"
_symmetry_group_IT_number 65
_symmetry_cell_setting 'orthorhombic'
loop_
_space_group_symop_operation_xyz
x,y,z
-x,-y,z
x,-y,-z
-x,y,-z
-x,-y,-z
x,y,-z
-x,y,z
x,-y,z
1/2+x,1/2+y,z
1/2-x,1/2-y,z
1/2+x,1/2-y,-z
1/2-x,1/2+y,-z
1/2-x,1/2-y,-z
1/2+x,1/2+y,-z
1/2-x,1/2+y,z
1/2+x,1/2-y,z
loop_
_atom_site_type_symbol
_atom_site_label
_atom_site_fract_x
_atom_site_fract_y
_atom_site_fract_z
Si Si1 0.650567 0.048387 0.805493
Si Si2 0.436039 0.119197 0.701478
Si Si3 0.064233 0.150038 0.000000
Si Si4 0.315334 0.387290 0.000000
Si Si5 0.564375 0.718865 0.301865
Si Si6 0.856016 0.299680 0.700230
Si Si7 0.727648 0.551299 0.694397
Si Si8 0.233714 0.698276 0.000000
O O1 0.597257 0.080852 0.798978
O O2 0.703999 0.061874 0.683891
O O3 0.627196 0.000000 0.753898
O O4 0.676271 0.048782 0.000000
O O5 0.437474 0.107129 0.500000
O O6 0.500000 0.122306 0.779512
O O7 0.405519 0.165263 0.736200
O O8 0.072086 0.178172 0.174406
O O9 0.115338 0.114856 0.000000
O O10 0.000000 0.128180 0.000000
O O11 0.300875 0.414663 0.827153
O O12 0.285574 0.338045 0.000000
O O13 0.572704 0.702354 0.500000
O O14 0.500000 0.739633 0.279820
O O15 0.614264 0.753350 0.253564
O O16 0.834288 0.301065 0.500000
O O17 0.802535 0.310052 0.824753
O O18 0.702575 0.559224 0.500000
O O19 0.717979 0.500000 0.751940
O O20 0.250000 0.750000 0.000000
#
# Coordination Sequence:
#
# PCOD8271633 Si02
#       8
#    16  16   8   8  16  16  16   8
#     4  10  20  35  53  75 107 144 184 234 287 338
#     4  10  21  35  51  75 106 143 193 243 286 337
#     4  10  22  39  59  87 118 148 185 227 271 334
#     4  12  23  38  62  88 120 154 190 234 286 348
#     4   9  17  33  57  79 105 149 201 247 285 324
#     4  10  21  37  55  77 110 148 190 242 293 335
#     4  10  21  39  65  93 117 147 191 242 295 350
#     4  12  26  39  54  83 119 157 196 235 286 349
#
# _framework density 19.279995
#
# number of rings (size 3 to 8) (size 9 to 14) (size 15 to 20)
#    0.000    1.846    0.769    3.462    1.077    6.154 
#    0.000    2.308    0.000    0.923    0.000    1.077 
#    0.000    0.000    0.000    0.000    0.000    0.000 
#
# Total GULP energy -644597.771851 kJ/mol
# GULP energy per Si atom -12396.110997 kJ/mol
# Density = 1.923611 g / cm^3
# Si number density = 19.279995 Si / 1000 Ang^3
#
#
#
# Elastic Constant Matrix: (Units=GPa)
#
#
# Indices 1 2 3 4 5 6 
#
# 1 104.3249 46.4584 46.0812 0.0000 0.0000 0.0000
# 2 46.4584 86.6475 45.1848 0.0000 0.0000 0.0000
# 3 46.0812 45.1848 96.1772 0.0000 0.0000 0.0000
# 4 0.0000 0.0000 0.0000 44.5420 0.0000 0.0000
# 5 0.0000 0.0000 0.0000 0.0000 16.5329 0.0000
# 6 0.0000 0.0000 0.0000 0.0000 0.0000 30.5500
#
#
#
# Elastic Compliance Matrix: (Units=1/GPa)
#
#
# Indices 1 2 3 4 5 6 
#
# 1 0.013729 -0.005207 -0.004132 0.000000 0.000000 0.000000
# 2 -0.005207 0.017260 -0.005615 0.000000 0.000000 0.000000
# 3 -0.004132 -0.005615 0.015015 0.000000 0.000000 0.000000
# 4 0.000000 0.000000 0.000000 0.022451 0.000000 0.000000
# 5 0.000000 0.000000 0.000000 0.000000 0.060486 0.000000
# 6 0.000000 0.000000 0.000000 0.000000 0.000000 0.032733
#
#
# Mechanical properties :
#
#
# Convention : Reuss Voigt Hill
#
# Bulk Modulus (GPa) = 62.11725 62.51094 62.31410
# Shear Modulus (GPa) = 25.38765 28.28667 26.83716
#
# Velocity S-wave (km/s) = 3.63269 3.83450 3.73496
# Velocity P-wave (km/s) = 7.06284 7.21786 7.14077
#
# Compressibility (1/GPa) = 0.01609859
#
# Stress axis : x y z
#
# Youngs Moduli (GPa) = 72.83768 57.93583 66.60026
#
# Poissons Ratio (x) = 0.30165 0.27519
# Poissons Ratio (y) = 0.37923 0.37393
# Poissons Ratio (z) = 0.30096 0.32528
#
# Static dielectric constant tensor:
#      x y z
#    x 3.696590 0.000000 0.000000 
#    y 0.000000 3.370200 0.000000 
#    z 0.000000 0.000000 3.980260 
# 
# 
# High freq. dielectric constant tensor:
#      x y z
#    x 1.733020 0.000000 0.000000 
#    y 0.000000 1.735990 0.000000 
#    z 0.000000 0.000000 1.765790 
# 
# From -- ./inp_files/12870.got.cif
#   From: 2010.03.12/outbox.cif.g09.slc.cpg/sg65_7_cif.got.tgz:12870.got - 2010.04.10 20:52:16.
