data_PCOD8271590
_publ_section_title
;
Structure prediction by ZEFSAII (Michael W. Deem and Ramdas Pophale) SiO2 
 PCOD8271590
Probable space group: C M M M
;
_chemical_formula_sum "Si O2"
_cell_formula_units_Z 88
_cell_length_a 18.884867
_cell_length_b 22.416961
_cell_length_c 10.605680
_cell_angle_alpha 90.000000
_cell_angle_beta 90.000000
_cell_angle_gamma 90.000000
_cell_volume 4489.822645
_symmetry_space_group_name_H-M "C M M M"
_symmetry_group_IT_number 65
_symmetry_cell_setting 'orthorhombic'
loop_
_space_group_symop_operation_xyz
x,y,z
-x,-y,z
x,-y,-z
-x,y,-z
-x,-y,-z
x,y,-z
-x,y,z
x,-y,z
1/2+x,1/2+y,z
1/2-x,1/2-y,z
1/2+x,1/2-y,-z
1/2-x,1/2+y,-z
1/2-x,1/2-y,-z
1/2+x,1/2+y,-z
1/2-x,1/2+y,z
1/2+x,1/2-y,z
loop_
_atom_site_type_symbol
_atom_site_label
_atom_site_fract_x
_atom_site_fract_y
_atom_site_fract_z
Si Si1 0.920774 0.569954 0.500000
Si Si2 0.304137 0.069951 0.000000
Si Si3 0.641671 0.571678 0.000000
Si Si4 0.660214 0.877917 0.736897
Si Si5 0.580072 0.345212 0.792557
Si Si6 0.079153 0.284847 0.864808
Si Si7 0.785335 0.810946 0.647489
O O1 0.925940 0.500000 0.500000
O O2 0.880344 0.587898 0.626985
O O3 0.000000 0.597819 0.500000
O O4 0.344365 0.089095 0.871707
O O5 0.223184 0.093408 0.000000
O O6 0.302854 0.000000 0.000000
O O7 0.604377 0.598068 0.124988
O O8 0.633298 0.500000 0.000000
O O9 0.625645 0.812130 0.752454
O O10 0.740931 0.867922 0.696081
O O11 0.500000 0.357403 0.740470
O O12 0.580762 0.286307 0.877350
O O13 0.633897 0.327762 0.680522
O O14 0.000000 0.307800 0.841101
O O15 0.107425 0.308928 0.000000
O O16 0.779832 0.805559 0.500000
O O17 0.750000 0.750000 0.705781
#
# Coordination Sequence:
#
# PCOD8271590 Si02
#       7
#     8   8   8  16  16  16  16
#     4  11  26  46  65  88 125 175 221 258 304 372
#     4  11  24  38  61  94 122 156 210 269 312 361
#     4  11  23  39  61  90 122 161 210 256 312 384
#     4  12  21  40  65  90 123 162 210 255 314 377
#     4  11  22  38  61  89 125 163 203 256 316 376
#     4  10  20  34  57  91 125 156 194 250 315 375
#     4  11  23  39  60  91 125 161 204 255 315 381
#
# _framework density 19.599882000000001
#
# number of rings (size 3 to 8) (size 9 to 14) (size 15 to 20)
#    0.000    1.000    6.364    1.364    0.000    1.091 
#    0.000    2.727    0.000    2.182    0.000    1.273 
#    0.000    0.000    0.000    0.000    0.000    0.000 
#
# Total GULP energy -545209.682829 kJ/mol
# GULP energy per Si atom -12391.129155 kJ/mol
# Density = 1.955527 g / cm^3
# Si number density = 19.599882 Si / 1000 Ang^3
#
#
#
# Elastic Constant Matrix: (Units=GPa)
#
#
# Indices 1 2 3 4 5 6 
#
# 1 105.9315 28.7871 53.5304 0.0000 0.0000 0.0000
# 2 28.7871 69.8882 31.1491 0.0000 0.0000 0.0000
# 3 53.5304 31.1491 109.1697 0.0000 0.0000 0.0000
# 4 0.0000 0.0000 0.0000 27.3780 0.0000 0.0000
# 5 0.0000 0.0000 0.0000 0.0000 46.1885 0.0000
# 6 0.0000 0.0000 0.0000 0.0000 0.0000 25.1665
#
#
#
# Elastic Compliance Matrix: (Units=1/GPa)
#
#
# Indices 1 2 3 4 5 6 
#
# 1 0.013040 -0.002889 -0.005570 0.000000 0.000000 0.000000
# 2 -0.002889 0.017033 -0.003444 0.000000 0.000000 0.000000
# 3 -0.005570 -0.003444 0.012874 0.000000 0.000000 0.000000
# 4 0.000000 0.000000 0.000000 0.036526 0.000000 0.000000
# 5 0.000000 0.000000 0.000000 0.000000 0.021650 0.000000
# 6 0.000000 0.000000 0.000000 0.000000 0.000000 0.039735
#
#
# Mechanical properties :
#
#
# Convention : Reuss Voigt Hill
#
# Bulk Modulus (GPa) = 52.23945 56.88031 54.55988
# Shear Modulus (GPa) = 29.23251 31.18146 30.20698
#
# Velocity S-wave (km/s) = 3.86614 3.99294 3.93005
# Velocity P-wave (km/s) = 6.82936 7.09520 6.96355
#
# Compressibility (1/GPa) = 0.01914262
#
# Stress axis : x y z
#
# Youngs Moduli (GPa) = 76.68965 58.70879 77.67819
#
# Poissons Ratio (x) = 0.16959 0.43264
# Poissons Ratio (y) = 0.22153 0.26749
# Poissons Ratio (z) = 0.42713 0.20217
#
# Static dielectric constant tensor:
#      x y z
#    x 3.877450 0.000000 0.000000 
#    y 0.000000 3.452890 0.000000 
#    z 0.000000 0.000000 3.371030 
# 
# 
# High freq. dielectric constant tensor:
#      x y z
#    x 1.774890 0.000000 0.000000 
#    y 0.000000 1.753680 0.000000 
#    z 0.000000 0.000000 1.755670 
# 
# From -- ./inp_files/11896.got.cif
#   From: 2010.03.12/outbox.cif.g09.slc.cpg/sg65_6_cif.got.tgz:11896.got - 2010.04.10 20:52:16.
