data_PCOD8271817
_publ_section_title
;
Structure prediction by ZEFSAII (Michael W. Deem and Ramdas Pophale) SiO2 
 PCOD8271817
Probable space group: C M M M
;
_chemical_formula_sum "Si O2"
_cell_formula_units_Z 96
_cell_length_a 9.184145
_cell_length_b 19.076325
_cell_length_c 29.534160
_cell_angle_alpha 90.000000
_cell_angle_beta 90.000000
_cell_angle_gamma 90.000000
_cell_volume 5174.377002
_symmetry_space_group_name_H-M "C M M M"
_symmetry_group_IT_number 65
_symmetry_cell_setting 'orthorhombic'
loop_
_space_group_symop_operation_xyz
x,y,z
-x,-y,z
x,-y,-z
-x,y,-z
-x,-y,-z
x,y,-z
-x,y,z
x,-y,z
1/2+x,1/2+y,z
1/2-x,1/2-y,z
1/2+x,1/2-y,-z
1/2-x,1/2+y,-z
1/2-x,1/2-y,-z
1/2+x,1/2+y,-z
1/2-x,1/2+y,z
1/2+x,1/2-y,z
loop_
_atom_site_type_symbol
_atom_site_label
_atom_site_fract_x
_atom_site_fract_y
_atom_site_fract_z
Si Si1 0.830872 0.581158 0.631343
Si Si2 0.671849 0.321177 0.301291
Si Si3 0.331950 0.681485 0.197939
Si Si4 0.169261 0.319241 0.550996
Si Si5 0.830643 0.080761 0.881697
Si Si6 0.168805 0.320187 0.947116
O O1 0.791114 0.500000 0.627200
O O2 0.732390 0.613777 0.670559
O O3 0.790939 0.616062 0.583286
O O4 0.000000 0.592776 0.643487
O O5 0.500000 0.313183 0.308969
O O6 0.750000 0.250000 0.317694
O O7 0.712564 0.337216 0.249201
O O8 0.500000 0.700396 0.195102
O O9 0.250000 0.750000 0.179889
O O10 0.291084 0.616183 0.166236
O O11 0.219301 0.338834 0.500000
O O12 0.250000 0.250000 0.568770
O O13 0.000000 0.301782 0.552570
O O14 0.735637 0.113425 0.921710
O O15 0.000000 0.090870 0.893706
O O16 0.787781 0.000000 0.877265
O O17 0.250000 0.250000 0.930835
O O18 0.000000 0.311952 0.934821
O O19 0.193454 0.333436 0.000000
#
# Coordination Sequence:
#
# PCOD8271817 Si02
#       6
#    16  16  16  16  16  16
#     4  10  21  35  51  75 107 139 172 213 259 307
#     4  10  20  35  56  79 104 136 174 215 259 308
#     4   9  19  35  55  78 103 134 173 216 259 305
#     4   9  18  33  53  75  99 131 171 213 257 305
#     4  10  21  36  54  78 109 142 174 211 257 308
#     4  10  21  37  57  80 106 137 175 218 261 307
#
# _framework density 18.552959000000001
#
# number of rings (size 3 to 8) (size 9 to 14) (size 15 to 20)
#    0.000    2.333    0.000    2.000    0.000    7.667 
#    0.000    5.000    0.000    0.000    0.000    3.500 
#    0.000    0.000    0.000    0.000    0.000    0.000 
#
# Total GULP energy -595392.587249 kJ/mol
# GULP energy per Si atom -12404.012234 kJ/mol
# Density = 1.851073 g / cm^3
# Si number density = 18.552959 Si / 1000 Ang^3
#
#
#
# Elastic Constant Matrix: (Units=GPa)
#
#
# Indices 1 2 3 4 5 6 
#
# 1 78.2245 70.1353 55.0891 0.0000 0.0000 0.0000
# 2 70.1353 166.6403 79.6340 0.0000 0.0000 0.0000
# 3 55.0891 79.6340 95.2138 0.0000 0.0000 0.0000
# 4 0.0000 0.0000 0.0000 23.1992 0.0000 0.0000
# 5 0.0000 0.0000 0.0000 0.0000 29.5305 0.0000
# 6 0.0000 0.0000 0.0000 0.0000 0.0000 32.2532
#
#
#
# Elastic Compliance Matrix: (Units=1/GPa)
#
#
# Indices 1 2 3 4 5 6 
#
# 1 0.024652 -0.005929 -0.009304 0.000000 0.000000 0.000000
# 2 -0.005929 0.011422 -0.006123 0.000000 0.000000 0.000000
# 3 -0.009304 -0.006123 0.021007 0.000000 0.000000 0.000000
# 4 0.000000 0.000000 0.000000 0.043105 0.000000 0.000000
# 5 0.000000 0.000000 0.000000 0.000000 0.033863 0.000000
# 6 0.000000 0.000000 0.000000 0.000000 0.000000 0.031005
#
#
# Mechanical properties :
#
#
# Convention : Reuss Voigt Hill
#
# Bulk Modulus (GPa) = 69.59493 83.31061 76.45277
# Shear Modulus (GPa) = 23.52308 26.01127 24.76718
#
# Velocity S-wave (km/s) = 3.56460 3.74839 3.65765
# Velocity P-wave (km/s) = 7.38477 7.98346 7.68994
#
# Compressibility (1/GPa) = 0.01436886
#
# Stress axis : x y z
#
# Youngs Moduli (GPa) = 40.56393 87.54720 47.60327
#
# Poissons Ratio (x) = 0.51909 0.44292
# Poissons Ratio (y) = 0.24052 0.29146
# Poissons Ratio (z) = 0.37742 0.53603
#
# Static dielectric constant tensor:
#      x y z
#    x 3.414810 0.000000 0.000000 
#    y 0.000000 3.385720 0.000000 
#    z 0.000000 0.000000 3.574650 
# 
# 
# High freq. dielectric constant tensor:
#      x y z
#    x 1.719440 0.000000 0.000000 
#    y 0.000000 1.714100 0.000000 
#    z 0.000000 0.000000 1.729700 
# 
# From -- ./inp_files/73142.got.cif
#   From: 2010.03.12/outbox.cif.g09.slc.cpg/sg65_37_cif.got.tgz:73142.got - 2010.04.10 20:52:16.
