data_PCOD8271281
_publ_section_title
;
Structure prediction by ZEFSAII (Michael W. Deem and Ramdas Pophale) SiO2 
 PCOD8271281
Probable space group: C M M M
;
_chemical_formula_sum "Si O2"
_cell_formula_units_Z 88
_cell_length_a 17.978127
_cell_length_b 7.934272
_cell_length_c 29.501424
_cell_angle_alpha 90.000000
_cell_angle_beta 90.000000
_cell_angle_gamma 90.000000
_cell_volume 4208.181939
_symmetry_space_group_name_H-M "C M M M"
_symmetry_group_IT_number 65
_symmetry_cell_setting 'orthorhombic'
loop_
_space_group_symop_operation_xyz
x,y,z
-x,-y,z
x,-y,-z
-x,y,-z
-x,-y,-z
x,y,-z
-x,y,z
x,-y,z
1/2+x,1/2+y,z
1/2-x,1/2-y,z
1/2+x,1/2-y,-z
1/2-x,1/2+y,-z
1/2-x,1/2-y,-z
1/2+x,1/2+y,-z
1/2-x,1/2+y,z
1/2+x,1/2-y,z
loop_
_atom_site_type_symbol
_atom_site_label
_atom_site_fract_x
_atom_site_fract_y
_atom_site_fract_z
Si Si1 0.087972 0.192526 0.951208
Si Si2 0.334713 0.306637 0.397982
Si Si3 0.414408 0.000000 0.553445
Si Si4 0.414939 0.191546 0.856283
Si Si5 0.915555 0.307899 0.686856
Si Si6 0.833753 0.810025 0.771529
O O1 0.118236 0.293052 0.907425
O O2 0.000000 0.210743 0.952669
O O3 0.112200 0.000000 0.945222
O O4 0.119240 0.261174 0.000000
O O5 0.341303 0.500000 0.416485
O O6 0.250000 0.250000 0.396022
O O7 0.367707 0.305070 0.347327
O O8 0.378304 0.174008 0.429233
O O9 0.500000 0.000000 0.569011
O O10 0.405340 0.000000 0.500000
O O11 0.500000 0.256987 0.855040
O O12 0.366616 0.301402 0.822030
O O13 0.409609 0.000000 0.840278
O O14 0.912499 0.500000 0.669414
O O15 0.882220 0.301092 0.737223
O O16 0.000000 0.241167 0.688055
O O17 0.750000 0.750000 0.772288
O O18 0.837097 0.000000 0.754011
#
# Coordination Sequence:
#
# PCOD8271281 Si02
#       6
#    16  16   8  16  16  16
#     4   8  14  26  46  73 104 139 180 229 284 343
#     4  12  24  44  71 104 140 184 231 282 340 404
#     4  11  26  48  72 104 145 185 233 291 345 401
#     4  10  20  34  53  79 112 146 186 236 292 354
#     4  11  23  41  66  95 131 168 209 262 319 381
#     4  12  25  40  58  82 114 155 201 249 303 368
#
# _framework density 20.911643999999999
#
# number of rings (size 3 to 8) (size 9 to 14) (size 15 to 20)
#    0.000    1.364    1.818    4.909    0.000    6.909 
#    0.000    2.727    0.000    0.545    0.000    0.000 
#    0.000    0.000    0.000    0.000    0.000    0.000 
#
# Total GULP energy -545552.520211 kJ/mol
# GULP energy per Si atom -12398.920914 kJ/mol
# Density = 2.086405 g / cm^3
# Si number density = 20.911644 Si / 1000 Ang^3
#
#
#
# Elastic Constant Matrix: (Units=GPa)
#
#
# Indices 1 2 3 4 5 6 
#
# 1 134.4908 46.3292 58.8684 0.0000 0.0000 0.0000
# 2 46.3292 111.9158 35.1917 0.0000 0.0000 0.0000
# 3 58.8684 35.1917 114.7934 0.0000 0.0000 0.0000
# 4 0.0000 0.0000 0.0000 32.4032 0.0000 0.0000
# 5 0.0000 0.0000 0.0000 0.0000 8.2646 0.0000
# 6 0.0000 0.0000 0.0000 0.0000 0.0000 26.3387
#
#
#
# Elastic Compliance Matrix: (Units=1/GPa)
#
#
# Indices 1 2 3 4 5 6 
#
# 1 0.010374 -0.002901 -0.004431 0.000000 0.000000 0.000000
# 2 -0.002901 0.010700 -0.001792 0.000000 0.000000 0.000000
# 3 -0.004431 -0.001792 0.011533 0.000000 0.000000 0.000000
# 4 0.000000 0.000000 0.000000 0.030861 0.000000 0.000000
# 5 0.000000 0.000000 0.000000 0.000000 0.120997 0.000000
# 6 0.000000 0.000000 0.000000 0.000000 0.000000 0.037967
#
#
# Mechanical properties :
#
#
# Convention : Reuss Voigt Hill
#
# Bulk Modulus (GPa) = 69.64594 71.33097 70.48845
# Shear Modulus (GPa) = 20.36928 28.12201 24.24565
#
# Velocity S-wave (km/s) = 3.12439 3.67113 3.40874
# Velocity P-wave (km/s) = 6.81123 7.22179 7.01952
#
# Compressibility (1/GPa) = 0.01435834
#
# Stress axis : x y z
#
# Youngs Moduli (GPa) = 96.39214 93.45829 86.70821
#
# Poissons Ratio (x) = 0.27116 0.38418
# Poissons Ratio (y) = 0.27967 0.15541
# Poissons Ratio (z) = 0.42708 0.16751
#
# Static dielectric constant tensor:
#      x y z
#    x 3.589130 0.000000 0.000000 
#    y 0.000000 3.798500 0.000000 
#    z 0.000000 0.000000 3.743280 
# 
# 
# High freq. dielectric constant tensor:
#      x y z
#    x 1.797400 0.000000 0.000000 
#    y 0.000000 1.821030 0.000000 
#    z 0.000000 0.000000 1.830610 
# 
# From -- ./inp_files/77848.got.cif
#   From: 2010.03.12/outbox.cif.g09.slc.cpg/sg65_39_cif.got.tgz:77848.got - 2010.04.10 20:52:16.
