data_PCOD8271130
_publ_section_title
;
Structure prediction by ZEFSAII (Michael W. Deem and Ramdas Pophale) SiO2 
 PCOD8271130
Probable space group: C M M M
;
_chemical_formula_sum "Si O2"
_cell_formula_units_Z 48
_cell_length_a 7.681942
_cell_length_b 38.092731
_cell_length_c 7.969969
_cell_angle_alpha 90.000000
_cell_angle_beta 90.000000
_cell_angle_gamma 90.000000
_cell_volume 2332.221345
_symmetry_space_group_name_H-M "C M M M"
_symmetry_group_IT_number 65
_symmetry_cell_setting 'orthorhombic'
loop_
_space_group_symop_operation_xyz
x,y,z
-x,-y,z
x,-y,-z
-x,y,-z
-x,-y,-z
x,y,-z
-x,y,z
x,-y,z
1/2+x,1/2+y,z
1/2-x,1/2-y,z
1/2+x,1/2-y,-z
1/2-x,1/2+y,-z
1/2-x,1/2-y,-z
1/2+x,1/2+y,-z
1/2-x,1/2+y,z
1/2+x,1/2-y,z
loop_
_atom_site_type_symbol
_atom_site_label
_atom_site_fract_x
_atom_site_fract_y
_atom_site_fract_z
Si Si1 0.000000 0.038543 0.694315
Si Si2 0.793308 0.333961 0.187201
Si Si3 0.692265 0.087625 0.196898
Si Si4 0.795492 0.709558 0.500000
O O1 0.826012 0.058940 0.740610
O O2 0.000000 0.032679 0.500000
O O3 0.000000 0.000000 0.782243
O O4 0.739619 0.373336 0.242478
O O5 0.716885 0.307840 0.329806
O O6 0.000000 0.331453 0.177985
O O7 0.718453 0.324756 0.000000
O O8 0.500000 0.080915 0.276593
O O9 0.676001 0.084698 0.000000
O O10 0.750000 0.750000 0.500000
O O11 0.000000 0.703318 0.500000
#
# Coordination Sequence:
#
# PCOD8271130 Si02
#       4
#     8  16  16   8
#     4  11  25  39  53  85 127 159 189 239 299 355
#     4   8  16  33  56  79 105 142 189 237 282 337
#     4   9  19  38  63  86 108 147 202 248 292 345
#     4  10  20  34  52  78 110 145 181 222 284 349
#
# _framework density 20.581237999999999
#
# number of rings (size 3 to 8) (size 9 to 14) (size 15 to 20)
#    0.000    2.833    0.000    2.500    2.333    3.333 
#    3.000    3.333    0.000    0.000    0.000    0.000 
#    0.000    0.000    0.000    0.000    0.000    0.000 
#
# Total GULP energy -297407.303264 kJ/mol
# GULP energy per Si atom -12391.970969 kJ/mol
# Density = 2.053439 g / cm^3
# Si number density = 20.581238 Si / 1000 Ang^3
#
#
#
# Elastic Constant Matrix: (Units=GPa)
#
#
# Indices 1 2 3 4 5 6 
#
# 1 72.0987 54.7615 31.2189 0.0000 0.0000 0.0000
# 2 54.7615 191.4130 91.1032 0.0000 0.0000 0.0000
# 3 31.2189 91.1032 103.2027 0.0000 0.0000 0.0000
# 4 0.0000 0.0000 0.0000 19.4923 0.0000 0.0000
# 5 0.0000 0.0000 0.0000 0.0000 11.0089 0.0000
# 6 0.0000 0.0000 0.0000 0.0000 0.0000 30.9910
#
#
#
# Elastic Compliance Matrix: (Units=1/GPa)
#
#
# Indices 1 2 3 4 5 6 
#
# 1 0.017861 -0.004378 -0.001539 0.000000 0.000000 0.000000
# 2 -0.004378 0.010083 -0.007576 0.000000 0.000000 0.000000
# 3 -0.001539 -0.007576 0.016843 0.000000 0.000000 0.000000
# 4 0.000000 0.000000 0.000000 0.051302 0.000000 0.000000
# 5 0.000000 0.000000 0.000000 0.000000 0.090836 0.000000
# 6 0.000000 0.000000 0.000000 0.000000 0.000000 0.032267
#
#
# Mechanical properties :
#
#
# Convention : Reuss Voigt Hill
#
# Bulk Modulus (GPa) = 56.17415 80.09797 68.13606
# Shear Modulus (GPa) = 19.83250 24.94048 22.38649
#
# Velocity S-wave (km/s) = 3.10759 3.48488 3.30163
# Velocity P-wave (km/s) = 6.34266 7.42933 6.90740
#
# Compressibility (1/GPa) = 0.01780178
#
# Stress axis : x y z
#
# Youngs Moduli (GPa) = 55.98783 99.18024 59.37114
#
# Poissons Ratio (x) = 0.43417 0.09135
# Poissons Ratio (y) = 0.24509 0.44982
# Poissons Ratio (z) = 0.08615 0.75142
#
# Static dielectric constant tensor:
#      x y z
#    x 3.287690 0.000000 0.000000 
#    y 0.000000 4.859580 0.000000 
#    z 0.000000 0.000000 4.080250 
# 
# 
# High freq. dielectric constant tensor:
#      x y z
#    x 1.785020 0.000000 0.000000 
#    y 0.000000 1.799510 0.000000 
#    z 0.000000 0.000000 1.808660 
# 
# From -- ./inp_files/3094.got.cif
#   From: 2010.03.12/outbox.cif.g09.slc.cpg/sg65_2_cif.got.tgz:3094.got - 2010.04.10 20:52:16.
