data_PCOD8271391
_publ_section_title
;
Structure prediction by ZEFSAII (Michael W. Deem and Ramdas Pophale) SiO2 
 PCOD8271391
Probable space group: C M M M
;
_chemical_formula_sum "Si O2"
_cell_formula_units_Z 104
_cell_length_a 26.920905
_cell_length_b 21.722362
_cell_length_c 9.133865
_cell_angle_alpha 90.000000
_cell_angle_beta 90.000000
_cell_angle_gamma 90.000000
_cell_volume 5341.353124
_symmetry_space_group_name_H-M "C M M M"
_symmetry_group_IT_number 65
_symmetry_cell_setting 'orthorhombic'
loop_
_space_group_symop_operation_xyz
x,y,z
-x,-y,z
x,-y,-z
-x,y,-z
-x,-y,-z
x,y,-z
-x,y,z
x,-y,z
1/2+x,1/2+y,z
1/2-x,1/2-y,z
1/2+x,1/2-y,-z
1/2-x,1/2+y,-z
1/2-x,1/2-y,-z
1/2+x,1/2+y,-z
1/2-x,1/2+y,z
1/2+x,1/2-y,z
loop_
_atom_site_type_symbol
_atom_site_label
_atom_site_fract_x
_atom_site_fract_y
_atom_site_fract_z
Si Si1 0.619636 0.323304 0.833852
Si Si2 0.942021 0.500000 0.161738
Si Si3 0.054984 0.931776 0.174073
Si Si4 0.611065 0.104431 0.326663
Si Si5 0.219985 0.189569 0.673840
Si Si6 0.443117 0.794032 0.165755
Si Si7 0.278677 0.930428 0.673687
O O1 0.596927 0.385859 0.765530
O O2 0.664964 0.302105 0.734289
O O3 0.573901 0.276248 0.829977
O O4 0.639008 0.331951 0.000000
O O5 0.927845 0.440586 0.253094
O O6 0.000000 0.500000 0.141827
O O7 0.917033 0.500000 0.000000
O O8 0.000000 0.916191 0.236086
O O9 0.070729 0.000000 0.224112
O O10 0.053107 0.926472 0.000000
O O11 0.606917 0.100260 0.500000
O O12 0.595296 0.171629 0.272502
O O13 0.666091 0.086714 0.272948
O O14 0.218540 0.188577 0.500000
O O15 0.250000 0.250000 0.728105
O O16 0.242971 0.124452 0.732945
O O17 0.500000 0.798819 0.221378
O O18 0.439182 0.820269 0.000000
O O19 0.276996 0.931015 0.500000
O O20 0.264589 0.000000 0.731280
#
# Coordination Sequence:
#
# PCOD8271391 Si02
#       7
#    16   8  16  16  16  16  16
#     4  10  20  34  54  80 109 139 176 226 275 322
#     4  11  23  37  53  77 113 149 177 213 268 329
#     4   8  14  27  50  79 109 142 178 214 258 318
#     4  11  21  36  58  81 105 138 186 234 267 305
#     4  10  21  37  56  77 103 138 180 224 273 328
#     4  10  21  36  53  76 110 149 182 216 271 337
#     4   9  18  35  57  78 103 139 180 222 270 325
#
# _framework density 19.470723
#
# number of rings (size 3 to 8) (size 9 to 14) (size 15 to 20)
#    0.000    2.231    0.769    3.000    0.000    7.385 
#    0.000    1.538    0.000    1.385    0.000    1.077 
#    0.000    0.000    0.000    0.000    0.000    0.000 
#
# Total GULP energy -644588.430502 kJ/mol
# GULP energy per Si atom -12395.931356 kJ/mol
# Density = 1.942641 g / cm^3
# Si number density = 19.470723 Si / 1000 Ang^3
#
#
#
# Elastic Constant Matrix: (Units=GPa)
#
#
# Indices 1 2 3 4 5 6 
#
# 1 89.7382 49.4957 19.3769 0.0000 0.0000 0.0000
# 2 49.4957 127.7714 22.3581 0.0000 0.0000 0.0000
# 3 19.3769 22.3581 38.8608 0.0000 0.0000 0.0000
# 4 0.0000 0.0000 0.0000 8.1074 0.0000 0.0000
# 5 0.0000 0.0000 0.0000 0.0000 20.8393 0.0000
# 6 0.0000 0.0000 0.0000 0.0000 0.0000 36.9288
#
#
#
# Elastic Compliance Matrix: (Units=1/GPa)
#
#
# Indices 1 2 3 4 5 6 
#
# 1 0.014863 -0.004960 -0.004557 0.000000 0.000000 0.000000
# 2 -0.004960 0.010358 -0.003486 0.000000 0.000000 0.000000
# 3 -0.004557 -0.003486 0.030011 0.000000 0.000000 0.000000
# 4 0.000000 0.000000 0.000000 0.123344 0.000000 0.000000
# 5 0.000000 0.000000 0.000000 0.000000 0.047986 0.000000
# 6 0.000000 0.000000 0.000000 0.000000 0.000000 0.027079
#
#
# Mechanical properties :
#
#
# Convention : Reuss Voigt Hill
#
# Bulk Modulus (GPa) = 34.21739 48.75911 41.48825
# Shear Modulus (GPa) = 17.27766 24.18440 20.73103
#
# Velocity S-wave (km/s) = 2.98210 3.52815 3.26656
# Velocity P-wave (km/s) = 5.42855 6.45707 5.96502
#
# Compressibility (1/GPa) = 0.02922491
#
# Stress axis : x y z
#
# Youngs Moduli (GPa) = 67.27894 96.54388 33.32117
#
# Poissons Ratio (x) = 0.47889 0.15186
# Poissons Ratio (y) = 0.33372 0.11616
# Poissons Ratio (z) = 0.30662 0.33655
#
# Static dielectric constant tensor:
#      x y z
#    x 3.521290 0.000000 0.000000 
#    y 0.000000 4.482610 0.000000 
#    z 0.000000 0.000000 3.188190 
# 
# 
# High freq. dielectric constant tensor:
#      x y z
#    x 1.757110 0.000000 0.000000 
#    y 0.000000 1.776720 0.000000 
#    z 0.000000 0.000000 1.718180 
# 
# From -- ./inp_files/16518.got.cif
#   From: 2010.03.12/outbox.cif.g09.slc.cpg/sg65_9_cif.got.tgz:16518.got - 2010.04.10 20:52:16.
