data_PCOD8271133
_publ_section_title
;
Structure prediction by ZEFSAII (Michael W. Deem and Ramdas Pophale) SiO2 
 PCOD8271133
Probable space group: C M M M
;
_chemical_formula_sum "Si O2"
_cell_formula_units_Z 104
_cell_length_a 16.793103
_cell_length_b 19.566321
_cell_length_c 15.505515
_cell_angle_alpha 90.000000
_cell_angle_beta 90.000000
_cell_angle_gamma 90.000000
_cell_volume 5094.790395
_symmetry_space_group_name_H-M "C M M M"
_symmetry_group_IT_number 65
_symmetry_cell_setting 'orthorhombic'
loop_
_space_group_symop_operation_xyz
x,y,z
-x,-y,z
x,-y,-z
-x,y,-z
-x,-y,-z
x,y,-z
-x,y,z
x,-y,z
1/2+x,1/2+y,z
1/2-x,1/2-y,z
1/2+x,1/2-y,-z
1/2-x,1/2+y,-z
1/2-x,1/2-y,-z
1/2+x,1/2+y,-z
1/2-x,1/2+y,z
1/2+x,1/2-y,z
loop_
_atom_site_type_symbol
_atom_site_label
_atom_site_fract_x
_atom_site_fract_y
_atom_site_fract_z
Si Si1 0.666297 0.714105 0.600692
Si Si2 0.152176 0.576780 0.797533
Si Si3 0.500000 0.080077 0.906806
Si Si4 0.091530 0.703660 0.258176
Si Si5 0.094013 0.208279 0.902765
Si Si6 0.089661 0.075520 0.398283
Si Si7 0.688010 0.424788 0.902104
O O1 0.647743 0.724871 0.500000
O O2 0.750000 0.750000 0.625228
O O3 0.599026 0.751103 0.656499
O O4 0.655911 0.633379 0.626426
O O5 0.137852 0.500000 0.761910
O O6 0.143795 0.634482 0.723687
O O7 0.235617 0.583850 0.843024
O O8 0.081137 0.601681 0.860540
O O9 0.500000 0.000000 0.919439
O O10 0.500000 0.117201 0.000000
O O11 0.126006 0.741010 0.171577
O O12 0.000000 0.684571 0.244919
O O13 0.123741 0.132273 0.878890
O O14 0.000000 0.205125 0.898641
O O15 0.122578 0.229583 0.000000
O O16 0.085003 0.071045 0.500000
O O17 0.000000 0.093555 0.363790
O O18 0.115948 0.000000 0.362350
O O19 0.649696 0.500000 0.886769
O O20 0.717911 0.417700 0.000000
#
# Coordination Sequence:
#
# PCOD8271133 Si02
#       7
#    16  16   8  16  16  16  16
#     4  10  22  39  60  87 119 153 190 239 298 356
#     4  10  20  34  52  79 110 145 190 240 289 335
#     4   9  16  28  48  74 107 143 182 235 289 331
#     4  11  23  38  58  83 111 152 194 235 285 343
#     4   9  20  37  55  81 116 152 189 228 276 340
#     4   8  14  29  57  89 117 146 182 231 291 348
#     4   9  18  33  54  80 110 148 194 237 280 335
#
# _framework density 20.413008000000001
#
# number of rings (size 3 to 8) (size 9 to 14) (size 15 to 20)
#    0.000    2.538    0.769    1.385    2.154    4.308 
#    0.000    4.615    0.000    2.308    0.000    1.077 
#    0.000    0.000    0.000    0.000    0.000    0.000 
#
# Total GULP energy -644209.083700 kJ/mol
# GULP energy per Si atom -12388.636225 kJ/mol
# Density = 2.036655 g / cm^3
# Si number density = 20.413008 Si / 1000 Ang^3
#
#
#
# Elastic Constant Matrix: (Units=GPa)
#
#
# Indices 1 2 3 4 5 6 
#
# 1 44.2897 44.1381 14.2499 0.0000 0.0000 0.0000
# 2 44.1381 166.0465 40.8200 0.0000 0.0000 0.0000
# 3 14.2499 40.8200 50.1348 0.0000 0.0000 0.0000
# 4 0.0000 0.0000 0.0000 23.4419 0.0000 0.0000
# 5 0.0000 0.0000 0.0000 0.0000 20.0095 0.0000
# 6 0.0000 0.0000 0.0000 0.0000 0.0000 39.3365
#
#
#
# Elastic Compliance Matrix: (Units=1/GPa)
#
#
# Indices 1 2 3 4 5 6 
#
# 1 0.030990 -0.007592 -0.002627 0.000000 0.000000 0.000000
# 2 -0.007592 0.009389 -0.005487 0.000000 0.000000 0.000000
# 3 -0.002627 -0.005487 0.025160 0.000000 0.000000 0.000000
# 4 0.000000 0.000000 0.000000 0.042659 0.000000 0.000000
# 5 0.000000 0.000000 0.000000 0.000000 0.049976 0.000000
# 6 0.000000 0.000000 0.000000 0.000000 0.000000 0.025422
#
#
# Mechanical properties :
#
#
# Convention : Reuss Voigt Hill
#
# Bulk Modulus (GPa) = 29.30156 50.98744 40.14450
# Shear Modulus (GPa) = 22.08643 27.30846 24.69745
#
# Velocity S-wave (km/s) = 3.29291 3.66156 3.48212
# Velocity P-wave (km/s) = 5.37059 6.55043 5.98963
#
# Compressibility (1/GPa) = 0.03412788
#
# Stress axis : x y z
#
# Youngs Moduli (GPa) = 32.26886 106.50371 39.74499
#
# Poissons Ratio (x) = 0.80856 0.10441
# Poissons Ratio (y) = 0.24498 0.21808
# Poissons Ratio (z) = 0.08477 0.58439
#
# Static dielectric constant tensor:
#      x y z
#    x 3.509580 0.000000 0.000000 
#    y 0.000000 4.213300 0.000000 
#    z 0.000000 0.000000 3.525430 
# 
# 
# High freq. dielectric constant tensor:
#      x y z
#    x 1.782770 0.000000 0.000000 
#    y 0.000000 1.818930 0.000000 
#    z 0.000000 0.000000 1.766650 
# 
# From -- ./inp_files/54564.got.cif
#   From: 2010.03.12/outbox.cif.g09.slc.cpg/sg65_28_cif.got.tgz:54564.got - 2010.04.10 20:52:16.
