data_PCOD8271486
_publ_section_title
;
Structure prediction by ZEFSAII (Michael W. Deem and Ramdas Pophale) SiO2 
 PCOD8271486
Probable space group: C M M M
;
_chemical_formula_sum "Si O2"
_cell_formula_units_Z 96
_cell_length_a 8.910834
_cell_length_b 19.059299
_cell_length_c 30.600040
_cell_angle_alpha 90.000000
_cell_angle_beta 90.000000
_cell_angle_gamma 90.000000
_cell_volume 5196.934829
_symmetry_space_group_name_H-M "C M M M"
_symmetry_group_IT_number 65
_symmetry_cell_setting 'orthorhombic'
loop_
_space_group_symop_operation_xyz
x,y,z
-x,-y,z
x,-y,-z
-x,y,-z
-x,-y,-z
x,y,-z
-x,y,z
x,-y,z
1/2+x,1/2+y,z
1/2-x,1/2-y,z
1/2+x,1/2-y,-z
1/2-x,1/2+y,-z
1/2-x,1/2-y,-z
1/2+x,1/2+y,-z
1/2-x,1/2+y,z
1/2+x,1/2-y,z
loop_
_atom_site_type_symbol
_atom_site_label
_atom_site_fract_x
_atom_site_fract_y
_atom_site_fract_z
Si Si1 0.825547 0.675072 0.204559
Si Si2 0.674391 0.174482 0.698628
Si Si3 0.823781 0.178288 0.549098
Si Si4 0.176792 0.173791 0.879742
Si Si5 0.323369 0.419781 0.626717
Si Si6 0.671423 0.081267 0.050327
O O1 0.750000 0.750000 0.207009
O O2 0.801423 0.641758 0.252610
O O3 0.742678 0.635567 0.164308
O O4 0.000000 0.681689 0.193046
O O5 0.500000 0.185445 0.688642
O O6 0.750000 0.250000 0.692196
O O7 0.741815 0.117557 0.666470
O O8 0.768686 0.159785 0.500000
O O9 0.750000 0.250000 0.566083
O O10 0.774807 0.115569 0.580981
O O11 0.000000 0.190025 0.550147
O O12 0.250000 0.250000 0.885850
O O13 0.214927 0.126587 0.921231
O O14 0.000000 0.181858 0.875509
O O15 0.500000 0.413368 0.634286
O O16 0.270312 0.500000 0.624751
O O17 0.500000 0.098853 0.063100
O O18 0.705571 0.000000 0.058834
O O19 0.700358 0.100401 0.000000
#
# Coordination Sequence:
#
# PCOD8271486 Si02
#       6
#    16  16  16  16  16  16
#     4   9  17  31  51  75 102 132 168 210 256 305
#     4  10  20  34  55  79 102 133 172 213 256 304
#     4   9  18  33  53  76 101 131 170 213 255 303
#     4  11  21  33  53  80 109 138 170 212 259 306
#     4  10  21  35  51  74 105 139 173 212 258 304
#     4   9  19  37  58  77 101 136 175 214 258 308
#
# _framework density 18.472427
#
# number of rings (size 3 to 8) (size 9 to 14) (size 15 to 20)
#    0.000    2.333    0.000    4.500    0.000    5.667 
#    0.000    3.333    0.000    1.000    0.000    3.500 
#    0.000    0.000    0.000    0.000    0.000    0.000 
#
# Total GULP energy -595035.717654 kJ/mol
# GULP energy per Si atom -12396.577451 kJ/mol
# Density = 1.843038 g / cm^3
# Si number density = 18.472427 Si / 1000 Ang^3
#
#
#
# Elastic Constant Matrix: (Units=GPa)
#
#
# Indices 1 2 3 4 5 6 
#
# 1 101.6851 50.9392 65.9762 0.0000 0.0000 0.0000
# 2 50.9392 102.4894 76.0126 0.0000 0.0000 0.0000
# 3 65.9762 76.0126 139.7992 0.0000 0.0000 0.0000
# 4 0.0000 0.0000 0.0000 -42.2256 0.0000 0.0000
# 5 0.0000 0.0000 0.0000 0.0000 29.4459 0.0000
# 6 0.0000 0.0000 0.0000 0.0000 0.0000 26.2081
#
#
#
# Elastic Compliance Matrix: (Units=1/GPa)
#
#
# Indices 1 2 3 4 5 6 
#
# 1 0.014962 -0.003686 -0.005057 0.000000 0.000000 0.000000
# 2 -0.003686 0.017259 -0.007645 0.000000 0.000000 0.000000
# 3 -0.005057 -0.007645 0.013696 0.000000 0.000000 0.000000
# 4 0.000000 0.000000 0.000000 -0.023682 0.000000 0.000000
# 5 0.000000 0.000000 0.000000 0.000000 0.033961 0.000000
# 6 0.000000 0.000000 0.000000 0.000000 0.000000 0.038156
#
#
# Mechanical properties :
#
#
# Convention : Reuss Voigt Hill
#
# Bulk Modulus (GPa) = 76.09106 81.09216 78.59161
# Shear Modulus (GPa) = 38.02098 12.75538 25.38818
#
# Velocity S-wave (km/s) = 4.54172 2.63061 3.71129
# Velocity P-wave (km/s) = 8.29362 7.29528 7.81042
#
# Compressibility (1/GPa) = 0.01314215
#
# Stress axis : x y z
#
# Youngs Moduli (GPa) = 66.83717 57.94184 73.01275
#
# Poissons Ratio (x) = 0.21356 0.36922
# Poissons Ratio (y) = 0.24634 0.55815
# Poissons Ratio (z) = 0.33799 0.44294
#
# Static dielectric constant tensor:
#      x y z
#    x 3.394140 0.000000 0.000000 
#    y 0.000000 3.208820 0.000000 
#    z 0.000000 0.000000 4.056580 
# 
# 
# High freq. dielectric constant tensor:
#      x y z
#    x 1.720400 0.000000 0.000000 
#    y 0.000000 1.685540 0.000000 
#    z 0.000000 0.000000 1.737230 
# 
# From -- ./inp_files/73146.got.cif
#   From: 2010.03.12/outbox.cif.g09.slc.cpg/sg65_37_cif.got.tgz:73146.got - 2010.04.10 20:52:16.
