data_PCOD8271958
_publ_section_title
;
Structure prediction by ZEFSAII (Michael W. Deem and Ramdas Pophale) SiO2 
 PCOD8271958
Probable space group: C M M M
;
_chemical_formula_sum "Si O2"
_cell_formula_units_Z 64
_cell_length_a 8.840112
_cell_length_b 16.441177
_cell_length_c 22.139365
_cell_angle_alpha 90.000000
_cell_angle_beta 90.000000
_cell_angle_gamma 90.000000
_cell_volume 3217.776180
_symmetry_space_group_name_H-M "C M M M"
_symmetry_group_IT_number 65
_symmetry_cell_setting 'orthorhombic'
loop_
_space_group_symop_operation_xyz
x,y,z
-x,-y,z
x,-y,-z
-x,y,-z
-x,-y,-z
x,y,-z
-x,y,z
x,-y,z
1/2+x,1/2+y,z
1/2-x,1/2-y,z
1/2+x,1/2-y,-z
1/2-x,1/2+y,-z
1/2-x,1/2-y,-z
1/2+x,1/2+y,-z
1/2-x,1/2+y,z
1/2+x,1/2-y,z
loop_
_atom_site_type_symbol
_atom_site_label
_atom_site_fract_x
_atom_site_fract_y
_atom_site_fract_z
Si Si1 0.836137 0.093042 0.610243
Si Si2 0.179295 0.500000 0.068226
Si Si3 0.680475 0.838391 0.139167
Si Si4 0.178674 0.833945 0.733918
Si Si5 0.173895 0.665183 0.500000
O O1 0.782753 0.105288 0.679274
O O2 0.715180 0.120457 0.561639
O O3 0.000000 0.137366 0.600655
O O4 0.861010 0.000000 0.598699
O O5 0.236140 0.414994 0.098408
O O6 0.000000 0.500000 0.070626
O O7 0.241011 0.500000 0.000000
O O8 0.500000 0.829241 0.137742
O O9 0.750000 0.750000 0.119034
O O10 0.736809 0.862765 0.205724
O O11 0.250000 0.750000 0.711963
O O12 0.000000 0.826459 0.747291
O O13 0.250000 0.750000 0.500000
O O14 0.000000 0.678624 0.500000
#
# Coordination Sequence:
#
# PCOD8271958 Si02
#       5
#    16   8  16  16   8
#     4  10  22  39  58  82 113 148 183 228 286 341
#     4   9  20  38  59  85 119 158 197 236 287 351
#     4  10  20  36  59  86 117 155 196 243 293 344
#     4  10  20  35  57  83 113 148 187 231 281 337
#     4  12  25  40  59  81 107 145 189 236 283 336
#
# _framework density 19.889513999999998
#
# number of rings (size 3 to 8) (size 9 to 14) (size 15 to 20)
#    0.000    1.875    0.000    5.250    1.750    6.500 
#    0.000    1.875    0.000    5.250    0.000    0.000 
#    0.000    0.000    0.000    0.000    0.000    0.000 
#
# Total GULP energy -396535.854196 kJ/mol
# GULP energy per Si atom -12391.745444 kJ/mol
# Density = 1.984424 g / cm^3
# Si number density = 19.889514 Si / 1000 Ang^3
#
#
#
# Elastic Constant Matrix: (Units=GPa)
#
#
# Indices 1 2 3 4 5 6 
#
# 1 104.2308 46.7597 51.8613 0.0000 0.0000 0.0000
# 2 46.7597 126.6764 75.1498 0.0000 0.0000 0.0000
# 3 51.8613 75.1498 131.4174 0.0000 0.0000 0.0000
# 4 0.0000 0.0000 0.0000 43.9665 0.0000 0.0000
# 5 0.0000 0.0000 0.0000 0.0000 25.7497 0.0000
# 6 0.0000 0.0000 0.0000 0.0000 0.0000 23.8796
#
#
#
# Elastic Compliance Matrix: (Units=1/GPa)
#
#
# Indices 1 2 3 4 5 6 
#
# 1 0.012458 -0.002546 -0.003461 0.000000 0.000000 0.000000
# 2 -0.002546 0.012467 -0.006125 0.000000 0.000000 0.000000
# 3 -0.003461 -0.006125 0.012477 0.000000 0.000000 0.000000
# 4 0.000000 0.000000 0.000000 0.022745 0.000000 0.000000
# 5 0.000000 0.000000 0.000000 0.000000 0.038835 0.000000
# 6 0.000000 0.000000 0.000000 0.000000 0.000000 0.041877
#
#
# Mechanical properties :
#
#
# Convention : Reuss Voigt Hill
#
# Bulk Modulus (GPa) = 76.09929 78.87403 77.48666
# Shear Modulus (GPa) = 29.49830 31.28941 30.39385
#
# Velocity S-wave (km/s) = 3.85529 3.97061 3.91338
# Velocity P-wave (km/s) = 7.62639 7.79507 7.71119
#
# Compressibility (1/GPa) = 0.01314073
#
# Stress axis : x y z
#
# Youngs Moduli (GPa) = 80.27002 80.21046 80.14526
#
# Poissons Ratio (x) = 0.20418 0.27735
# Poissons Ratio (y) = 0.20433 0.49086
# Poissons Ratio (z) = 0.27778 0.49126
#
# Static dielectric constant tensor:
#      x y z
#    x 3.447380 0.000000 0.000000 
#    y 0.000000 3.728470 0.000000 
#    z 0.000000 0.000000 3.690350 
# 
# 
# High freq. dielectric constant tensor:
#      x y z
#    x 1.771400 0.000000 0.000000 
#    y 0.000000 1.780280 0.000000 
#    z 0.000000 0.000000 1.780400 
# 
# From -- ./inp_files/58891.got.cif
#   From: 2010.03.12/outbox.cif.g09.slc.cpg/sg65_30_cif.got.tgz:58891.got - 2010.04.10 20:52:16.
