data_PCOD8271924
_publ_section_title
;
Structure prediction by ZEFSAII (Michael W. Deem and Ramdas Pophale) SiO2 
 PCOD8271924
Probable space group: C M M M
;
_chemical_formula_sum "Si O2"
_cell_formula_units_Z 72
_cell_length_a 13.624449
_cell_length_b 28.850443
_cell_length_c 8.710702
_cell_angle_alpha 90.000000
_cell_angle_beta 90.000000
_cell_angle_gamma 90.000000
_cell_volume 3423.927737
_symmetry_space_group_name_H-M "C M M M"
_symmetry_group_IT_number 65
_symmetry_cell_setting 'orthorhombic'
loop_
_space_group_symop_operation_xyz
x,y,z
-x,-y,z
x,-y,-z
-x,y,-z
-x,-y,-z
x,y,-z
-x,y,z
x,-y,z
1/2+x,1/2+y,z
1/2-x,1/2-y,z
1/2+x,1/2-y,-z
1/2-x,1/2+y,-z
1/2-x,1/2-y,-z
1/2+x,1/2+y,-z
1/2-x,1/2+y,z
1/2+x,1/2-y,z
loop_
_atom_site_type_symbol
_atom_site_label
_atom_site_fract_x
_atom_site_fract_y
_atom_site_fract_z
Si Si1 0.388538 0.500000 0.181635
Si Si2 0.616601 0.679194 0.173715
Si Si3 0.383236 0.227538 0.326440
Si Si4 0.611560 0.867554 0.819444
Si Si5 0.290878 0.409965 0.319483
O O1 0.500000 0.500000 0.242041
O O2 0.335070 0.454827 0.241725
O O3 0.384911 0.500000 0.000000
O O4 0.500000 0.682120 0.172711
O O5 0.661176 0.725417 0.253501
O O6 0.647577 0.634633 0.269418
O O7 0.657159 0.675334 0.000000
O O8 0.344352 0.221948 0.500000
O O9 0.500000 0.230563 0.323031
O O10 0.348675 0.183383 0.226947
O O11 0.500000 0.874818 0.763552
O O12 0.677957 0.905552 0.734561
O O13 0.621091 0.873682 0.000000
O O14 0.296083 0.415905 0.500000
#
# Coordination Sequence:
#
# PCOD8271924 Si02
#       5
#     8  16  16  16  16
#     4  11  25  47  72  95 122 155 191 236 292 353
#     4  10  20  35  56  84 120 161 204 248 295 353
#     4   9  17  31  53  83 120 159 199 246 299 351
#     4  10  21  39  62  87 119 160 203 246 293 349
#     4  12  25  40  62  91 121 154 196 246 299 355
#
# _framework density 21.028479999999998
#
# number of rings (size 3 to 8) (size 9 to 14) (size 15 to 20)
#    0.000    1.667    0.000    5.000    0.000    9.778 
#    0.000    5.000    0.000    3.333    0.000    0.000 
#    0.000    0.000    0.000    0.000    0.000    0.000 
#
# Total GULP energy -446581.572385 kJ/mol
# GULP energy per Si atom -12405.043677 kJ/mol
# Density = 2.098062 g / cm^3
# Si number density = 21.028480 Si / 1000 Ang^3
#
#
#
# Elastic Constant Matrix: (Units=GPa)
#
#
# Indices 1 2 3 4 5 6 
#
# 1 70.1366 63.3519 28.4747 0.0000 0.0000 0.0000
# 2 63.3519 144.7698 33.5732 0.0000 0.0000 0.0000
# 3 28.4747 33.5732 88.2192 0.0000 0.0000 0.0000
# 4 0.0000 0.0000 0.0000 67.5264 0.0000 0.0000
# 5 0.0000 0.0000 0.0000 0.0000 27.4307 0.0000
# 6 0.0000 0.0000 0.0000 0.0000 0.0000 35.4104
#
#
#
# Elastic Compliance Matrix: (Units=1/GPa)
#
#
# Indices 1 2 3 4 5 6 
#
# 1 0.024968 -0.009934 -0.004278 0.000000 0.000000 0.000000
# 2 -0.009934 0.011528 -0.001181 0.000000 0.000000 0.000000
# 3 -0.004278 -0.001181 0.013166 0.000000 0.000000 0.000000
# 4 0.000000 0.000000 0.000000 0.014809 0.000000 0.000000
# 5 0.000000 0.000000 0.000000 0.000000 0.036456 0.000000
# 6 0.000000 0.000000 0.000000 0.000000 0.000000 0.028240
#
#
# Mechanical properties :
#
#
# Convention : Reuss Voigt Hill
#
# Bulk Modulus (GPa) = 52.97847 61.54725 57.26286
# Shear Modulus (GPa) = 30.07607 37.92189 33.99898
#
# Velocity S-wave (km/s) = 3.78597 4.25120 4.02532
# Velocity P-wave (km/s) = 6.66032 7.30952 6.99246
#
# Compressibility (1/GPa) = 0.01887559
#
# Stress axis : x y z
#
# Youngs Moduli (GPa) = 40.05172 86.74182 75.95434
#
# Poissons Ratio (x) = 0.86167 0.32496
# Poissons Ratio (y) = 0.39787 0.08970
# Poissons Ratio (z) = 0.17136 0.10244
#
# Static dielectric constant tensor:
#      x y z
#    x 3.981800 0.000000 0.000000 
#    y 0.000000 3.758390 0.000000 
#    z 0.000000 0.000000 3.936990 
# 
# 
# High freq. dielectric constant tensor:
#      x y z
#    x 1.840960 0.000000 0.000000 
#    y 0.000000 1.811290 0.000000 
#    z 0.000000 0.000000 1.836920 
# 
# From -- ./inp_files/7265.got.cif
#   From: 2010.03.12/outbox.cif.g09.slc.cpg/sg65_4_cif.got.tgz:7265.got - 2010.04.10 20:52:16.
