data_PCOD8271454
_publ_section_title
;
Structure prediction by ZEFSAII (Michael W. Deem and Ramdas Pophale) SiO2 
 PCOD8271454
Probable space group: C M M M
;
_chemical_formula_sum "Si O2"
_cell_formula_units_Z 96
_cell_length_a 23.664786
_cell_length_b 25.037524
_cell_length_c 7.870685
_cell_angle_alpha 90.000000
_cell_angle_beta 90.000000
_cell_angle_gamma 90.000000
_cell_volume 4663.441053
_symmetry_space_group_name_H-M "C M M M"
_symmetry_group_IT_number 65
_symmetry_cell_setting 'orthorhombic'
loop_
_space_group_symop_operation_xyz
x,y,z
-x,-y,z
x,-y,-z
-x,y,-z
-x,-y,-z
x,y,-z
-x,y,z
x,-y,z
1/2+x,1/2+y,z
1/2-x,1/2-y,z
1/2+x,1/2-y,-z
1/2-x,1/2+y,-z
1/2-x,1/2-y,-z
1/2+x,1/2+y,-z
1/2-x,1/2+y,z
1/2+x,1/2-y,z
loop_
_atom_site_type_symbol
_atom_site_label
_atom_site_fract_x
_atom_site_fract_y
_atom_site_fract_z
Si Si1 0.936012 0.058789 0.798649
Si Si2 0.737936 0.628018 0.189996
Si Si3 0.866187 0.633925 0.809343
Si Si4 0.620844 0.666152 0.193588
Si Si5 0.260898 0.442565 0.500000
Si Si6 0.936073 0.270125 0.307328
Si Si7 0.372217 0.940402 0.500000
O O1 0.897068 0.107772 0.732571
O O2 0.000000 0.069663 0.737155
O O3 0.916104 0.000000 0.729811
O O4 0.933246 0.057364 0.000000
O O5 0.800764 0.650019 0.229589
O O6 0.689259 0.673260 0.204071
O O7 0.719320 0.584672 0.327105
O O8 0.736045 0.602643 0.000000
O O9 0.901567 0.688226 0.806044
O O10 0.890084 0.591530 0.671510
O O11 0.871514 0.609459 0.000000
O O12 0.591886 0.711973 0.302886
O O13 0.599841 0.672414 0.000000
O O14 0.289760 0.500000 0.500000
O O15 0.193969 0.447200 0.500000
O O16 0.934709 0.290734 0.500000
O O17 0.000000 0.267005 0.238383
O O18 0.400271 0.000000 0.500000
#
# Coordination Sequence:
#
# PCOD8271454 Si02
#       7
#    16  16  16  16   8  16   8
#     4   8  14  26  46  72 103 143 191 240 287 333
#     4   9  20  35  54  84 117 151 194 240 288 346
#     4  10  20  38  62  88 121 157 194 236 287 347
#     4  10  20  34  54  81 113 150 195 244 294 346
#     4   9  18  32  53  79 114 160 197 232 280 334
#     4  11  24  40  59  84 114 150 194 246 298 350
#     4   9  18  36  60  90 124 154 191 231 276 338
#
# _framework density 20.585657999999999
#
# number of rings (size 3 to 8) (size 9 to 14) (size 15 to 20)
#    0.000    2.500    0.833    1.500    1.167    4.000 
#    0.000    8.333    0.000    1.000    0.000    3.500 
#    0.000    0.000    0.000    0.000    0.000    0.000 
#
# Total GULP energy -594825.002165 kJ/mol
# GULP energy per Si atom -12392.187545 kJ/mol
# Density = 2.053880 g / cm^3
# Si number density = 20.585658 Si / 1000 Ang^3
#
#
#
# Elastic Constant Matrix: (Units=GPa)
#
#
# Indices 1 2 3 4 5 6 
#
# 1 93.1172 55.6160 35.8205 0.0000 0.0000 0.0000
# 2 55.6160 124.3887 39.9116 0.0000 0.0000 0.0000
# 3 35.8205 39.9116 97.9905 0.0000 0.0000 0.0000
# 4 0.0000 0.0000 0.0000 44.9971 0.0000 0.0000
# 5 0.0000 0.0000 0.0000 0.0000 18.5829 0.0000
# 6 0.0000 0.0000 0.0000 0.0000 0.0000 26.7180
#
#
#
# Elastic Compliance Matrix: (Units=1/GPa)
#
#
# Indices 1 2 3 4 5 6 
#
# 1 0.015514 -0.005886 -0.003274 0.000000 0.000000 0.000000
# 2 -0.005886 0.011481 -0.002525 0.000000 0.000000 0.000000
# 3 -0.003274 -0.002525 0.012430 0.000000 0.000000 0.000000
# 4 0.000000 0.000000 0.000000 0.022224 0.000000 0.000000
# 5 0.000000 0.000000 0.000000 0.000000 0.053813 0.000000
# 6 0.000000 0.000000 0.000000 0.000000 0.000000 0.037428
#
#
# Mechanical properties :
#
#
# Convention : Reuss Voigt Hill
#
# Bulk Modulus (GPa) = 62.28079 64.24361 63.26220
# Shear Modulus (GPa) = 27.53139 30.33618 28.93378
#
# Velocity S-wave (km/s) = 3.66102 3.84299 3.75311
# Velocity P-wave (km/s) = 6.94197 7.13912 7.04124
#
# Compressibility (1/GPa) = 0.01605632
#
# Stress axis : x y z
#
# Youngs Moduli (GPa) = 64.45735 87.09927 80.45011
#
# Poissons Ratio (x) = 0.51268 0.26337
# Poissons Ratio (y) = 0.37941 0.20310
# Poissons Ratio (z) = 0.21102 0.21989
#
# Static dielectric constant tensor:
#      x y z
#    x 3.675460 0.000000 0.000000 
#    y 0.000000 3.729770 0.000000 
#    z 0.000000 0.000000 3.784280 
# 
# 
# High freq. dielectric constant tensor:
#      x y z
#    x 1.796070 0.000000 0.000000 
#    y 0.000000 1.782480 0.000000 
#    z 0.000000 0.000000 1.801000 
# 
# From -- ./inp_files/14389.got.cif
#   From: 2010.03.12/outbox.cif.g09.slc.cpg/sg65_8_cif.got.tgz:14389.got - 2010.04.10 20:52:16.
