data_PCOD8271733
_publ_section_title
;
Structure prediction by ZEFSAII (Michael W. Deem and Ramdas Pophale) SiO2 
 PCOD8271733
Probable space group: C M M M
;
_chemical_formula_sum "Si O2"
_cell_formula_units_Z 104
_cell_length_a 27.594064
_cell_length_b 8.839325
_cell_length_c 22.248464
_cell_angle_alpha 90.000000
_cell_angle_beta 90.000000
_cell_angle_gamma 90.000000
_cell_volume 5426.687370
_symmetry_space_group_name_H-M "C M M M"
_symmetry_group_IT_number 65
_symmetry_cell_setting 'orthorhombic'
loop_
_space_group_symop_operation_xyz
x,y,z
-x,-y,z
x,-y,-z
-x,y,-z
-x,-y,-z
x,y,-z
-x,y,z
x,-y,z
1/2+x,1/2+y,z
1/2-x,1/2-y,z
1/2+x,1/2-y,-z
1/2-x,1/2+y,-z
1/2-x,1/2-y,-z
1/2+x,1/2+y,-z
1/2-x,1/2+y,z
1/2+x,1/2-y,z
loop_
_atom_site_type_symbol
_atom_site_label
_atom_site_fract_x
_atom_site_fract_y
_atom_site_fract_z
Si Si1 0.385399 0.173176 0.653932
Si Si2 0.301142 0.178475 0.069099
Si Si3 0.446504 0.679386 0.000000
Si Si4 0.943481 0.164995 0.565403
Si Si5 0.056354 0.319838 0.232414
Si Si6 0.106872 0.179822 0.881381
Si Si7 0.801276 0.320050 0.568644
O O1 0.429077 0.196760 0.607657
O O2 0.405757 0.242018 0.716612
O O3 0.338443 0.245509 0.619858
O O4 0.374472 0.000000 0.665267
O O5 0.250000 0.250000 0.086943
O O6 0.339610 0.248473 0.115910
O O7 0.298534 0.000000 0.078236
O O8 0.314240 0.221080 0.000000
O O9 0.419195 0.737714 0.941399
O O10 0.449072 0.500000 0.000000
O O11 0.500000 0.750369 0.000000
O O12 0.919700 0.190448 0.500000
O O13 0.000000 0.167187 0.558478
O O14 0.926681 0.000000 0.590902
O O15 0.059816 0.500000 0.226750
O O16 0.074250 0.241619 0.172156
O O17 0.000000 0.273285 0.245530
O O18 0.111000 0.000000 0.876791
O O19 0.815865 0.272674 0.500000
O O20 0.798679 0.500000 0.572982
O O21 0.750000 0.250000 0.586032
#
# Coordination Sequence:
#
# PCOD8271733 Si02
#       7
#    16  16   8  16  16  16  16
#     4  10  20  35  55  77 103 141 186 230 274 325
#     4  10  20  35  58  87 119 149 181 222 275 334
#     4   9  18  32  52  79 108 137 176 231 286 337
#     4   9  18  31  47  72 106 138 170 215 270 326
#     4  10  22  39  56  77 110 150 190 233 283 338
#     4  11  21  36  58  83 113 148 189 235 287 343
#     4   9  18  33  54  81 110 139 176 224 277 331
#
# _framework density 19.164545
#
# number of rings (size 3 to 8) (size 9 to 14) (size 15 to 20)
#    0.000    2.231    0.769    2.769    0.000    4.615 
#    0.000    3.077    0.000    3.692    0.000    0.000 
#    0.000    0.000    0.000    0.000    0.000    0.000 
#
# Total GULP energy -644277.473218 kJ/mol
# GULP energy per Si atom -12389.951408 kJ/mol
# Density = 1.912093 g / cm^3
# Si number density = 19.164545 Si / 1000 Ang^3
#
#
#
# Elastic Constant Matrix: (Units=GPa)
#
#
# Indices 1 2 3 4 5 6 
#
# 1 131.5395 40.1081 74.1511 0.0000 0.0000 0.0000
# 2 40.1081 29.7025 28.6564 0.0000 0.0000 0.0000
# 3 74.1511 28.6564 128.1192 0.0000 0.0000 0.0000
# 4 0.0000 0.0000 0.0000 10.6774 0.0000 0.0000
# 5 0.0000 0.0000 0.0000 0.0000 31.1387 0.0000
# 6 0.0000 0.0000 0.0000 0.0000 0.0000 30.6333
#
#
#
# Elastic Compliance Matrix: (Units=1/GPa)
#
#
# Indices 1 2 3 4 5 6 
#
# 1 0.015416 -0.015568 -0.005440 0.000000 0.000000 0.000000
# 2 -0.015568 0.058653 -0.004109 0.000000 0.000000 0.000000
# 3 -0.005440 -0.004109 0.011873 0.000000 0.000000 0.000000
# 4 0.000000 0.000000 0.000000 0.093656 0.000000 0.000000
# 5 0.000000 0.000000 0.000000 0.000000 0.032114 0.000000
# 6 0.000000 0.000000 0.000000 0.000000 0.000000 0.032644
#
#
# Mechanical properties :
#
#
# Convention : Reuss Voigt Hill
#
# Bulk Modulus (GPa) = 28.00485 63.91027 45.95756
# Shear Modulus (GPa) = 16.31364 24.25292 20.28328
#
# Velocity S-wave (km/s) = 2.92077 3.56126 3.25680
# Velocity P-wave (km/s) = 5.10089 7.09441 6.17858
#
# Compressibility (1/GPa) = 0.03570810
#
# Stress axis : x y z
#
# Youngs Moduli (GPa) = 64.86855 17.04947 84.22636
#
# Poissons Ratio (x) = 0.26542 0.45820
# Poissons Ratio (y) = 1.00986 0.34606
# Poissons Ratio (z) = 0.35289 0.07005
#
# Static dielectric constant tensor:
#      x y z
#    x 3.650790 0.000000 0.000000 
#    y 0.000000 3.434650 0.000000 
#    z 0.000000 0.000000 3.602880 
# 
# 
# High freq. dielectric constant tensor:
#      x y z
#    x 1.751730 0.000000 0.000000 
#    y 0.000000 1.730750 0.000000 
#    z 0.000000 0.000000 1.735540 
# 
# From -- ./inp_files/65947.got.cif
#   From: 2010.03.12/outbox.cif.g09.slc.cpg/sg65_33_cif.got.tgz:65947.got - 2010.04.10 20:52:16.
