data_PCOD8271342
_publ_section_title
;
Structure prediction by ZEFSAII (Michael W. Deem and Ramdas Pophale) SiO2 
 PCOD8271342
Probable space group: C M M M
;
_chemical_formula_sum "Si O2"
_cell_formula_units_Z 104
_cell_length_a 23.971955
_cell_length_b 28.068374
_cell_length_c 9.090913
_cell_angle_alpha 90.000000
_cell_angle_beta 90.000000
_cell_angle_gamma 90.000000
_cell_volume 6116.855343
_symmetry_space_group_name_H-M "C M M M"
_symmetry_group_IT_number 65
_symmetry_cell_setting 'orthorhombic'
loop_
_space_group_symop_operation_xyz
x,y,z
-x,-y,z
x,-y,-z
-x,y,-z
-x,-y,-z
x,y,-z
-x,y,z
x,-y,z
1/2+x,1/2+y,z
1/2-x,1/2-y,z
1/2+x,1/2-y,-z
1/2-x,1/2+y,-z
1/2-x,1/2-y,-z
1/2+x,1/2+y,-z
1/2-x,1/2+y,z
1/2+x,1/2-y,z
loop_
_atom_site_type_symbol
_atom_site_label
_atom_site_fract_x
_atom_site_fract_y
_atom_site_fract_z
Si Si1 0.562967 0.500000 0.675774
Si Si2 0.642920 0.055718 0.170402
Si Si3 0.434362 0.127490 0.670441
Si Si4 0.064739 0.184288 0.327439
Si Si5 0.433707 0.778708 0.165867
Si Si6 0.127430 0.091173 0.674238
Si Si7 0.745394 0.555350 0.330494
O O1 0.500000 0.500000 0.733574
O O2 0.565450 0.500000 0.500000
O O3 0.593151 0.546780 0.740438
O O4 0.594054 0.081929 0.256867
O O5 0.702991 0.071817 0.231229
O O6 0.633852 0.000000 0.198084
O O7 0.639645 0.069258 0.000000
O O8 0.418593 0.130161 0.500000
O O9 0.500000 0.121718 0.694832
O O10 0.411161 0.175362 0.746938
O O11 0.073374 0.192573 0.500000
O O12 0.087595 0.230978 0.245120
O O13 0.101204 0.140270 0.266280
O O14 0.000000 0.174019 0.291644
O O15 0.500000 0.779222 0.168068
O O16 0.410428 0.780148 0.000000
O O17 0.121392 0.089710 0.500000
O O18 0.192241 0.086655 0.719591
O O19 0.760892 0.564897 0.500000
O O20 0.730307 0.500000 0.306512
#
# Coordination Sequence:
#
# PCOD8271342 Si02
#       7
#     8  16  16  16  16  16  16
#     4   9  14  20  34  62  99 131 160 201 254 301
#     4  10  21  35  51  73 101 131 162 194 230 277
#     4  10  20  34  54  79 103 126 153 187 232 284
#     4   9  16  26  42  67  98 129 163 204 248 292
#     4   9  17  30  48  69  95 128 163 196 233 283
#     4   9  15  24  40  65  95 128 165 207 251 291
#     4   9  16  29  48  67  91 126 170 211 244 282
#
# _framework density 17.002199999999998
#
# number of rings (size 3 to 8) (size 9 to 14) (size 15 to 20)
#    0.000    2.692    0.769    1.846    0.000    5.846 
#    0.000    2.308    0.000    0.923    0.000    6.462 
#    0.000    3.692    0.000    0.000    0.000    0.000 
#
# Total GULP energy -644798.000810 kJ/mol
# GULP energy per Si atom -12399.961554 kJ/mol
# Density = 1.696350 g / cm^3
# Si number density = 17.002200 Si / 1000 Ang^3
#
#
#
# Elastic Constant Matrix: (Units=GPa)
#
#
# Indices 1 2 3 4 5 6 
#
# 1 69.7670 58.1091 47.0567 0.0000 0.0000 0.0000
# 2 58.1091 111.9156 56.9962 0.0000 0.0000 0.0000
# 3 47.0567 56.9962 87.3383 0.0000 0.0000 0.0000
# 4 0.0000 0.0000 0.0000 19.1760 0.0000 0.0000
# 5 0.0000 0.0000 0.0000 0.0000 14.1604 0.0000
# 6 0.0000 0.0000 0.0000 0.0000 0.0000 15.1988
#
#
#
# Elastic Compliance Matrix: (Units=1/GPa)
#
#
# Indices 1 2 3 4 5 6 
#
# 1 0.029099 -0.010671 -0.008714 0.000000 0.000000 0.000000
# 2 -0.010671 0.017296 -0.005538 0.000000 0.000000 0.000000
# 3 -0.008714 -0.005538 0.019759 0.000000 0.000000 0.000000
# 4 0.000000 0.000000 0.000000 0.052148 0.000000 0.000000
# 5 0.000000 0.000000 0.000000 0.000000 0.070619 0.000000
# 6 0.000000 0.000000 0.000000 0.000000 0.000000 0.065795
#
#
# Mechanical properties :
#
#
# Convention : Reuss Voigt Hill
#
# Bulk Modulus (GPa) = 61.32114 65.92721 63.62418
# Shear Modulus (GPa) = 16.12907 16.83096 16.48001
#
# Velocity S-wave (km/s) = 3.08335 3.14973 3.11672
# Velocity P-wave (km/s) = 6.98720 7.21717 7.10312
#
# Compressibility (1/GPa) = 0.01630759
#
# Stress axis : x y z
#
# Youngs Moduli (GPa) = 34.36562 57.81607 50.60961
#
# Poissons Ratio (x) = 0.61694 0.44103
# Poissons Ratio (y) = 0.36671 0.28028
# Poissons Ratio (z) = 0.29948 0.32019
#
# Static dielectric constant tensor:
#      x y z
#    x 3.031780 0.000000 0.000000 
#    y 0.000000 3.269490 0.000000 
#    z 0.000000 0.000000 3.051190 
# 
# 
# High freq. dielectric constant tensor:
#      x y z
#    x 1.634920 0.000000 0.000000 
#    y 0.000000 1.655880 0.000000 
#    z 0.000000 0.000000 1.637910 
# 
# From -- ./inp_files/14706.got.cif
#   From: 2010.03.12/outbox.cif.g09.slc.cpg/sg65_8_cif.got.tgz:14706.got - 2010.04.10 20:52:16.
