data_PCOD8271521
_publ_section_title
;
Structure prediction by ZEFSAII (Michael W. Deem and Ramdas Pophale) SiO2 
 PCOD8271521
Probable space group: C M M M
;
_chemical_formula_sum "Si O2"
_cell_formula_units_Z 64
_cell_length_a 18.294638
_cell_length_b 7.699835
_cell_length_c 24.063578
_cell_angle_alpha 90.000000
_cell_angle_beta 90.000000
_cell_angle_gamma 90.000000
_cell_volume 3389.732615
_symmetry_space_group_name_H-M "C M M M"
_symmetry_group_IT_number 65
_symmetry_cell_setting 'orthorhombic'
loop_
_space_group_symop_operation_xyz
x,y,z
-x,-y,z
x,-y,-z
-x,y,-z
-x,-y,-z
x,y,-z
-x,y,z
x,-y,z
1/2+x,1/2+y,z
1/2-x,1/2-y,z
1/2+x,1/2-y,-z
1/2-x,1/2+y,-z
1/2-x,1/2-y,-z
1/2+x,1/2+y,-z
1/2-x,1/2+y,z
1/2+x,1/2-y,z
loop_
_atom_site_type_symbol
_atom_site_label
_atom_site_fract_x
_atom_site_fract_y
_atom_site_fract_z
Si Si1 0.086789 0.000000 0.061883
Si Si2 0.166258 0.201578 0.754370
Si Si3 0.916496 0.306777 0.860517
Si Si4 0.085738 0.801824 0.357745
Si Si5 0.086655 0.500000 0.561864
O O1 0.114478 0.828561 0.094196
O O2 0.000000 0.000000 0.057565
O O3 0.121015 0.000000 0.000000
O O4 0.250000 0.250000 0.748136
O O5 0.131301 0.305539 0.805050
O O6 0.126311 0.256913 0.697973
O O7 0.154882 0.000000 0.766623
O O8 0.911557 0.500000 0.886368
O O9 0.000000 0.258685 0.844949
O O10 0.113015 0.674163 0.406574
O O11 0.000000 0.780474 0.346716
O O12 0.105257 0.000000 0.374561
O O13 0.120939 0.500000 0.500000
O O14 0.000000 0.500000 0.557922
#
# Coordination Sequence:
#
# PCOD8271521 Si02
#       5
#     8  16  16  16   8
#     4   9  18  34  55  80 110 142 179 222 264 311
#     4  11  22  35  53  81 111 145 178 221 272 324
#     4  10  20  34  55  83 111 142 178 220 268 319
#     4   9  19  34  53  79 108 139 174 218 267 318
#     4   9  18  32  53  80 106 136 175 218 264 313
#
# _framework density 18.880545000000001
#
# number of rings (size 3 to 8) (size 9 to 14) (size 15 to 20)
#    0.000    2.250    1.250    1.500    3.500    2.000 
#    0.000    5.000    0.000    1.500    0.000    0.000 
#    0.000    0.000    0.000    0.000    0.000    0.000 
#
# Total GULP energy -396832.733018 kJ/mol
# GULP energy per Si atom -12401.022907 kJ/mol
# Density = 1.883757 g / cm^3
# Si number density = 18.880545 Si / 1000 Ang^3
#
#
#
# Elastic Constant Matrix: (Units=GPa)
#
#
# Indices 1 2 3 4 5 6 
#
# 1 51.6904 25.6366 41.3862 0.0000 0.0000 0.0000
# 2 25.6366 130.8057 83.7101 0.0000 0.0000 0.0000
# 3 41.3862 83.7101 165.6956 0.0000 0.0000 0.0000
# 4 0.0000 0.0000 0.0000 23.6654 0.0000 0.0000
# 5 0.0000 0.0000 0.0000 0.0000 0.5462 0.0000
# 6 0.0000 0.0000 0.0000 0.0000 0.0000 18.0879
#
#
#
# Elastic Compliance Matrix: (Units=1/GPa)
#
#
# Indices 1 2 3 4 5 6 
#
# 1 0.024330 -0.001300 -0.005421 0.000000 0.000000 0.000000
# 2 -0.001300 0.011367 -0.005418 0.000000 0.000000 0.000000
# 3 -0.005421 -0.005418 0.010126 0.000000 0.000000 0.000000
# 4 0.000000 0.000000 0.000000 0.042256 0.000000 0.000000
# 5 0.000000 0.000000 0.000000 0.000000 1.830757 0.000000
# 6 0.000000 0.000000 0.000000 0.000000 0.000000 0.055286
#
#
# Mechanical properties :
#
#
# Convention : Reuss Voigt Hill
#
# Bulk Modulus (GPa) = 46.40936 72.18416 59.29676
# Shear Modulus (GPa) = 2.49304 21.62383 12.05843
#
# Velocity S-wave (km/s) = 1.15035 3.38789 2.52993
# Velocity P-wave (km/s) = 5.13793 7.32249 6.32523
#
# Compressibility (1/GPa) = 0.02154738
#
# Stress axis : x y z
#
# Youngs Moduli (GPa) = 41.10073 87.97444 98.75314
#
# Poissons Ratio (x) = 0.11433 0.53529
# Poissons Ratio (y) = 0.05342 0.53505
# Poissons Ratio (z) = 0.22279 0.47665
#
# Static dielectric constant tensor:
#      x y z
#    x 3.116280 0.000000 0.000000 
#    y 0.000000 3.694130 0.000000 
#    z 0.000000 0.000000 3.554840 
# 
# 
# High freq. dielectric constant tensor:
#      x y z
#    x 1.697140 0.000000 0.000000 
#    y 0.000000 1.752250 0.000000 
#    z 0.000000 0.000000 1.726470 
# 
# From -- ./inp_files/63240.got.cif
#   From: 2010.03.12/outbox.cif.g09.slc.cpg/sg65_32_cif.got.tgz:63240.got - 2010.04.10 20:52:16.
