data_PCOD8271564
_publ_section_title
;
Structure prediction by ZEFSAII (Michael W. Deem and Ramdas Pophale) SiO2 
 PCOD8271564
Probable space group: C M M M
;
_chemical_formula_sum "Si O2"
_cell_formula_units_Z 104
_cell_length_a 13.879860
_cell_length_b 18.303911
_cell_length_c 22.453156
_cell_angle_alpha 90.000000
_cell_angle_beta 90.000000
_cell_angle_gamma 90.000000
_cell_volume 5704.352762
_symmetry_space_group_name_H-M "C M M M"
_symmetry_group_IT_number 65
_symmetry_cell_setting 'orthorhombic'
loop_
_space_group_symop_operation_xyz
x,y,z
-x,-y,z
x,-y,-z
-x,y,-z
-x,-y,-z
x,y,-z
-x,y,z
x,-y,z
1/2+x,1/2+y,z
1/2-x,1/2-y,z
1/2+x,1/2-y,-z
1/2-x,1/2+y,-z
1/2-x,1/2-y,-z
1/2+x,1/2+y,-z
1/2-x,1/2+y,z
1/2+x,1/2-y,z
loop_
_atom_site_type_symbol
_atom_site_label
_atom_site_fract_x
_atom_site_fract_y
_atom_site_fract_z
Si Si1 0.240122 0.666020 0.748044
Si Si2 0.389165 0.278845 0.569720
Si Si3 0.610342 0.652913 0.844277
Si Si4 0.610325 0.822579 0.856196
Si Si5 0.107630 0.500000 0.569673
Si Si6 0.749849 0.583969 0.068731
Si Si7 0.785694 0.639769 0.382970
O O1 0.250000 0.750000 0.729469
O O2 0.336244 0.638500 0.781645
O O3 0.150062 0.652929 0.791916
O O4 0.224522 0.622032 0.687240
O O5 0.376287 0.262336 0.500000
O O6 0.500000 0.298308 0.585153
O O7 0.320150 0.345779 0.588852
O O8 0.357216 0.207697 0.606388
O O9 0.500000 0.633215 0.834245
O O10 0.627021 0.736329 0.864874
O O11 0.651966 0.601148 0.895677
O O12 0.500000 0.845015 0.859407
O O13 0.664065 0.864579 0.908928
O O14 0.094801 0.500000 0.500000
O O15 0.167949 0.570142 0.587399
O O16 0.000000 0.500000 0.598741
O O17 0.779273 0.500000 0.078997
O O18 0.730276 0.600872 0.000000
#
# Coordination Sequence:
#
# PCOD8271564 Si02
#       7
#    16  16  16  16   8  16  16
#     4   9  17  34  54  82 109 136 176 226 269 319
#     4  10  20  34  56  85 111 141 185 231 276 327
#     4   9  19  36  58  80 107 142 178 223 273 318
#     4   9  19  35  56  80 107 141 179 220 270 319
#     4  11  24  40  57  79 111 149 185 228 284 340
#     4  10  21  36  54  78 111 146 181 222 266 317
#     4  11  20  36  57  81 111 148 185 229 279 329
#
# _framework density 18.231691000000001
#
# number of rings (size 3 to 8) (size 9 to 14) (size 15 to 20)
#    0.000    2.231    1.538    3.692    0.000    5.538 
#    5.538    3.462    0.000    1.385    0.000    0.000 
#    0.000    0.000    0.000    0.000    0.000    0.000 
#
# Total GULP energy -644840.512671 kJ/mol
# GULP energy per Si atom -12400.779090 kJ/mol
# Density = 1.819019 g / cm^3
# Si number density = 18.231691 Si / 1000 Ang^3
#
#
#
# Elastic Constant Matrix: (Units=GPa)
#
#
# Indices 1 2 3 4 5 6 
#
# 1 140.1975 43.6509 45.0316 0.0000 0.0000 0.0000
# 2 43.6509 70.1845 33.7230 0.0000 0.0000 0.0000
# 3 45.0316 33.7230 119.9418 0.0000 0.0000 0.0000
# 4 0.0000 0.0000 0.0000 33.2262 0.0000 0.0000
# 5 0.0000 0.0000 0.0000 0.0000 10.9506 0.0000
# 6 0.0000 0.0000 0.0000 0.0000 0.0000 7.4482
#
#
#
# Elastic Compliance Matrix: (Units=1/GPa)
#
#
# Indices 1 2 3 4 5 6 
#
# 1 0.009305 -0.004750 -0.002158 0.000000 0.000000 0.000000
# 2 -0.004750 0.018899 -0.003530 0.000000 0.000000 0.000000
# 3 -0.002158 -0.003530 0.010140 0.000000 0.000000 0.000000
# 4 0.000000 0.000000 0.000000 0.030097 0.000000 0.000000
# 5 0.000000 0.000000 0.000000 0.000000 0.091319 0.000000
# 6 0.000000 0.000000 0.000000 0.000000 0.000000 0.134261
#
#
# Mechanical properties :
#
#
# Convention : Reuss Voigt Hill
#
# Bulk Modulus (GPa) = 57.25033 63.90386 60.57710
# Shear Modulus (GPa) = 15.58995 24.18622 19.88809
#
# Velocity S-wave (km/s) = 2.92738 3.64621 3.30639
# Velocity P-wave (km/s) = 6.54949 7.27004 6.91915
#
# Compressibility (1/GPa) = 0.01746715
#
# Stress axis : x y z
#
# Youngs Moduli (GPa) = 107.46983 52.91342 98.61852
#
# Poissons Ratio (x) = 0.25136 0.21281
# Poissons Ratio (y) = 0.51052 0.34814
# Poissons Ratio (z) = 0.23191 0.18679
#
# Static dielectric constant tensor:
#      x y z
#    x 3.578090 0.000000 0.000000 
#    y 0.000000 3.173360 0.000000 
#    z 0.000000 0.000000 3.369140 
# 
# 
# High freq. dielectric constant tensor:
#      x y z
#    x 1.714900 0.000000 0.000000 
#    y 0.000000 1.683670 0.000000 
#    z 0.000000 0.000000 1.711460 
# 
# From -- ./inp_files/62888.got.cif
#   From: 2010.03.12/outbox.cif.g09.slc.cpg/sg65_32_cif.got.tgz:62888.got - 2010.04.10 20:52:16.
