data_PCOD8271033
_publ_section_title
;
Structure prediction by ZEFSAII (Michael W. Deem and Ramdas Pophale) SiO2 
 PCOD8271033
Probable space group: C M M M
;
_chemical_formula_sum "Si O2"
_cell_formula_units_Z 80
_cell_length_a 8.952546
_cell_length_b 18.096541
_cell_length_c 26.075071
_cell_angle_alpha 90.000000
_cell_angle_beta 90.000000
_cell_angle_gamma 90.000000
_cell_volume 4224.425271
_symmetry_space_group_name_H-M "C M M M"
_symmetry_group_IT_number 65
_symmetry_cell_setting 'orthorhombic'
loop_
_space_group_symop_operation_xyz
x,y,z
-x,-y,z
x,-y,-z
-x,y,-z
-x,-y,-z
x,y,-z
-x,y,z
x,-y,z
1/2+x,1/2+y,z
1/2-x,1/2-y,z
1/2+x,1/2-y,-z
1/2-x,1/2+y,-z
1/2-x,1/2-y,-z
1/2+x,1/2+y,-z
1/2-x,1/2+y,z
1/2+x,1/2-y,z
loop_
_atom_site_type_symbol
_atom_site_label
_atom_site_fract_x
_atom_site_fract_y
_atom_site_fract_z
Si Si1 0.668739 0.587723 0.764229
Si Si2 0.823997 0.671487 0.146286
Si Si3 0.168329 0.588401 0.336108
Si Si4 0.671797 0.415250 0.940732
Si Si5 0.177548 0.417121 0.445712
O O1 0.500000 0.615949 0.772400
O O2 0.677168 0.500000 0.765753
O O3 0.773947 0.616848 0.808930
O O4 0.726271 0.617911 0.709337
O O5 0.750000 0.750000 0.155551
O O6 0.776222 0.638447 0.091643
O O7 0.000000 0.680754 0.147130
O O8 0.169985 0.500000 0.338624
O O9 0.230133 0.619657 0.391539
O O10 0.000000 0.616389 0.325288
O O11 0.500000 0.402785 0.924643
O O12 0.717024 0.500000 0.930271
O O13 0.695565 0.395210 0.000000
O O14 0.227073 0.377170 0.500000
O O15 0.241465 0.500000 0.448103
O O16 0.000000 0.420031 0.442892
#
# Coordination Sequence:
#
# PCOD8271033 Si02
#       5
#    16  16  16  16  16
#     4  10  20  34  52  73 100 134 171 212 258 307
#     4  12  25  39  56  78 106 138 173 214 258 304
#     4   8  13  22  38  61  88 120 162 207 248 295
#     4   9  19  38  63  88 114 143 173 206 246 293
#     4   7   9  14  27  50  81 116 153 195 243 292
#
# _framework density 18.937487000000001
#
# number of rings (size 3 to 8) (size 9 to 14) (size 15 to 20)
#    0.000    2.800    0.000    5.400    0.000    4.800 
#    0.000    1.000    0.000    0.600    0.000    4.200 
#    0.000    0.800    0.000    2.200    0.000    5.600 
#
# Total GULP energy -495576.803531 kJ/mol
# GULP energy per Si atom -12389.420088 kJ/mol
# Density = 1.889438 g / cm^3
# Si number density = 18.937487 Si / 1000 Ang^3
#
#
#
# Elastic Constant Matrix: (Units=GPa)
#
#
# Indices 1 2 3 4 5 6 
#
# 1 103.4763 23.0922 50.4179 0.0000 0.0000 0.0000
# 2 23.0922 23.3188 21.6707 0.0000 0.0000 0.0000
# 3 50.4179 21.6707 136.1139 0.0000 0.0000 0.0000
# 4 0.0000 0.0000 0.0000 -0.1596 0.0000 0.0000
# 5 0.0000 0.0000 0.0000 0.0000 21.5096 0.0000
# 6 0.0000 0.0000 0.0000 0.0000 0.0000 19.0260
#
#
#
# Elastic Compliance Matrix: (Units=1/GPa)
#
#
# Indices 1 2 3 4 5 6 
#
# 1 0.013628 -0.010333 -0.003403 0.000000 0.000000 0.000000
# 2 -0.010333 0.058166 -0.005433 0.000000 0.000000 0.000000
# 3 -0.003403 -0.005433 0.009472 0.000000 0.000000 0.000000
# 4 0.000000 0.000000 0.000000 -6.266643 0.000000 0.000000
# 5 0.000000 0.000000 0.000000 0.000000 0.046491 0.000000
# 6 0.000000 0.000000 0.000000 0.000000 0.000000 0.052560
#
#
# Mechanical properties :
#
#
# Convention : Reuss Voigt Hill
#
# Bulk Modulus (GPa) = 23.29492 50.36338 36.82915
# Shear Modulus (GPa) = -0.82868 19.25709 9.21420
#
# Velocity S-wave (km/s) = -0.66222 3.19231 2.20820
# Velocity P-wave (km/s) = 3.42680 6.34351 5.09819
#
# Compressibility (1/GPa) = 0.04292781
#
# Stress axis : x y z
#
# Youngs Moduli (GPa) = 73.37804 17.19222 105.57202
#
# Poissons Ratio (x) = 0.17765 0.35924
# Poissons Ratio (y) = 0.75824 0.57357
# Poissons Ratio (z) = 0.24969 0.09341
#
# Static dielectric constant tensor:
#      x y z
#    x 3.333010 0.000000 0.000000 
#    y 0.000000 2.957370 0.000000 
#    z 0.000000 0.000000 4.067140 
# 
# 
# High freq. dielectric constant tensor:
#      x y z
#    x 1.713470 0.000000 0.000000 
#    y 0.000000 1.675380 0.000000 
#    z 0.000000 0.000000 1.768590 
# 
# From -- ./inp_files/72852.got.cif
#   From: 2010.03.12/outbox.cif.g09.slc.cpg/sg65_37_cif.got.tgz:72852.got - 2010.04.10 20:52:16.
