data_PCOD8271964
_publ_section_title
;
Structure prediction by ZEFSAII (Michael W. Deem and Ramdas Pophale) SiO2 
 PCOD8271964
Probable space group: C M M M
;
_chemical_formula_sum "Si O2"
_cell_formula_units_Z 72
_cell_length_a 20.228501
_cell_length_b 20.890237
_cell_length_c 9.554393
_cell_angle_alpha 90.000000
_cell_angle_beta 90.000000
_cell_angle_gamma 90.000000
_cell_volume 4037.478005
_symmetry_space_group_name_H-M "C M M M"
_symmetry_group_IT_number 65
_symmetry_cell_setting 'orthorhombic'
loop_
_space_group_symop_operation_xyz
x,y,z
-x,-y,z
x,-y,-z
-x,y,-z
-x,-y,-z
x,y,-z
-x,y,z
x,-y,z
1/2+x,1/2+y,z
1/2-x,1/2-y,z
1/2+x,1/2-y,-z
1/2-x,1/2+y,-z
1/2-x,1/2-y,-z
1/2+x,1/2+y,-z
1/2-x,1/2+y,z
1/2+x,1/2-y,z
loop_
_atom_site_type_symbol
_atom_site_label
_atom_site_fract_x
_atom_site_fract_y
_atom_site_fract_z
Si Si1 0.191669 0.701951 0.159220
Si Si2 0.076379 0.253973 0.343048
Si Si3 0.000000 0.928184 0.149579
Si Si4 0.117351 0.890035 0.657355
Si Si5 0.763669 0.927729 0.843553
O O1 0.250000 0.750000 0.216661
O O2 0.122745 0.704562 0.242889
O O3 0.208502 0.626889 0.170329
O O4 0.177385 0.722835 0.000000
O O5 0.077097 0.282708 0.500000
O O6 0.111094 0.185604 0.344536
O O7 0.000000 0.250421 0.288872
O O8 0.063005 0.916786 0.241800
O O9 0.000000 0.000000 0.102447
O O10 0.000000 0.889108 0.000000
O O11 0.109798 0.917411 0.500000
O O12 0.185837 0.913625 0.719921
O O13 0.734614 0.000000 0.823536
O O14 0.795818 0.922370 0.000000
#
# Coordination Sequence:
#
# PCOD8271964 Si02
#       5
#    16  16   8  16  16
#     4  10  20  35  57  84 108 139 186 229 268 321
#     4  10  21  37  55  79 111 145 180 223 278 327
#     4  11  23  35  47  67 101 147 190 223 264 317
#     4  11  21  34  52  76 107 142 182 222 264 320
#     4  10  21  37  55  78 111 144 176 221 275 325
#
# _framework density 17.832915
#
# number of rings (size 3 to 8) (size 9 to 14) (size 15 to 20)
#    0.000    1.667    3.333    1.667    0.000    6.667 
#    0.000    0.000    0.000    0.667    0.000    4.667 
#    0.000    0.000    0.000    0.000    0.000    0.000 
#
# Total GULP energy -446046.949387 kJ/mol
# GULP energy per Si atom -12390.193039 kJ/mol
# Density = 1.779233 g / cm^3
# Si number density = 17.832915 Si / 1000 Ang^3
#
#
#
# Elastic Constant Matrix: (Units=GPa)
#
#
# Indices 1 2 3 4 5 6 
#
# 1 72.9540 44.5874 49.1359 0.0000 0.0000 0.0000
# 2 44.5874 95.7523 40.9110 0.0000 0.0000 0.0000
# 3 49.1359 40.9110 125.1061 0.0000 0.0000 0.0000
# 4 0.0000 0.0000 0.0000 20.9147 0.0000 0.0000
# 5 0.0000 0.0000 0.0000 0.0000 37.8842 0.0000
# 6 0.0000 0.0000 0.0000 0.0000 0.0000 28.0375
#
#
#
# Elastic Compliance Matrix: (Units=1/GPa)
#
#
# Indices 1 2 3 4 5 6 
#
# 1 0.022841 -0.007908 -0.006385 0.000000 0.000000 0.000000
# 2 -0.007908 0.014878 -0.001759 0.000000 0.000000 0.000000
# 3 -0.006385 -0.001759 0.011076 0.000000 0.000000 0.000000
# 4 0.000000 0.000000 0.000000 0.047813 0.000000 0.000000
# 5 0.000000 0.000000 0.000000 0.000000 0.026396 0.000000
# 6 0.000000 0.000000 0.000000 0.000000 0.000000 0.035667
#
#
# Mechanical properties :
#
#
# Convention : Reuss Voigt Hill
#
# Bulk Modulus (GPa) = 59.91426 62.56457 61.23941
# Shear Modulus (GPa) = 25.46630 27.97913 26.72272
#
# Velocity S-wave (km/s) = 3.78306 3.96531 3.87525
# Velocity P-wave (km/s) = 7.26309 7.49165 7.37826
#
# Compressibility (1/GPa) = 0.01669052
#
# Stress axis : x y z
#
# Youngs Moduli (GPa) = 43.78168 67.21510 90.28393
#
# Poissons Ratio (x) = 0.53153 0.57644
# Poissons Ratio (y) = 0.34622 0.15884
# Poissons Ratio (z) = 0.27954 0.11825
#
# Static dielectric constant tensor:
#      x y z
#    x 3.337330 0.000000 0.000000 
#    y 0.000000 3.343870 0.000000 
#    z 0.000000 0.000000 3.610850 
# 
# 
# High freq. dielectric constant tensor:
#      x y z
#    x 1.666140 0.000000 0.000000 
#    y 0.000000 1.676690 0.000000 
#    z 0.000000 0.000000 1.705880 
# 
# From -- ./inp_files/9261.got.cif
#   From: 2010.03.12/outbox.cif.g09.slc.cpg/sg65_5_cif.got.tgz:9261.got - 2010.04.10 20:52:16.
