data_PCOD8271296
_publ_section_title
;
Structure prediction by ZEFSAII (Michael W. Deem and Ramdas Pophale) SiO2 
 PCOD8271296
Probable space group: C M M M
;
_chemical_formula_sum "Si O2"
_cell_formula_units_Z 88
_cell_length_a 13.257483
_cell_length_b 17.915522
_cell_length_c 18.694635
_cell_angle_alpha 90.000000
_cell_angle_beta 90.000000
_cell_angle_gamma 90.000000
_cell_volume 4440.251154
_symmetry_space_group_name_H-M "C M M M"
_symmetry_group_IT_number 65
_symmetry_cell_setting 'orthorhombic'
loop_
_space_group_symop_operation_xyz
x,y,z
-x,-y,z
x,-y,-z
-x,y,-z
-x,-y,-z
x,y,-z
-x,y,z
x,-y,z
1/2+x,1/2+y,z
1/2-x,1/2-y,z
1/2+x,1/2-y,-z
1/2-x,1/2+y,-z
1/2-x,1/2-y,-z
1/2+x,1/2+y,-z
1/2-x,1/2+y,z
1/2+x,1/2-y,z
loop_
_atom_site_type_symbol
_atom_site_label
_atom_site_fract_x
_atom_site_fract_y
_atom_site_fract_z
Si Si1 0.120572 0.799744 0.580390
Si Si2 0.881756 0.350391 0.348713
Si Si3 0.379522 0.000000 0.419323
Si Si4 0.618189 0.586371 0.700776
Si Si5 0.227509 0.664050 0.794457
Si Si6 0.114721 0.586235 0.918107
O O1 0.159477 0.814991 0.500000
O O2 0.164617 0.720039 0.607878
O O3 0.158845 0.865593 0.632973
O O4 0.000000 0.797906 0.582017
O O5 0.835956 0.427113 0.379543
O O6 0.858794 0.345275 0.265014
O O7 0.000000 0.349692 0.359985
O O8 0.500000 0.000000 0.417579
O O9 0.339004 0.000000 0.500000
O O10 0.500000 0.598324 0.712984
O O11 0.644226 0.500000 0.687017
O O12 0.673239 0.617768 0.771211
O O13 0.250000 0.750000 0.806074
O O14 0.189698 0.633311 0.869630
O O15 0.124051 0.500000 0.896689
O O16 0.000000 0.613265 0.906456
O O17 0.147253 0.598659 0.000000
#
# Coordination Sequence:
#
# PCOD8271296 Si02
#       6
#    16  16   8  16  16  16
#     4   9  17  33  56  76 103 147 196 248 301 345
#     4  10  20  34  53  82 115 149 191 239 298 360
#     4   9  18  32  52  78 112 154 194 241 302 364
#     4  10  22  39  56  77 110 152 203 252 289 330
#     4  12  23  36  59  86 118 152 192 233 281 342
#     4   9  20  40  66  96 125 149 176 219 280 347
#
# _framework density 19.818698999999999
#
# number of rings (size 3 to 8) (size 9 to 14) (size 15 to 20)
#    0.000    2.091    1.818    2.182    2.545    3.636 
#    0.000    4.545    0.000    0.545    0.000    2.545 
#    0.000    0.000    0.000    0.000    0.000    0.000 
#
# Total GULP energy -545745.133484 kJ/mol
# GULP energy per Si atom -12403.298488 kJ/mol
# Density = 1.977359 g / cm^3
# Si number density = 19.818699 Si / 1000 Ang^3
#
#
#
# Elastic Constant Matrix: (Units=GPa)
#
#
# Indices 1 2 3 4 5 6 
#
# 1 42.2911 55.9893 38.3040 0.0000 0.0000 0.0000
# 2 55.9893 181.2259 81.9809 0.0000 0.0000 0.0000
# 3 38.3040 81.9809 134.0217 0.0000 0.0000 0.0000
# 4 0.0000 0.0000 0.0000 34.5433 0.0000 0.0000
# 5 0.0000 0.0000 0.0000 0.0000 31.3484 0.0000
# 6 0.0000 0.0000 0.0000 0.0000 0.0000 23.4195
#
#
#
# Elastic Compliance Matrix: (Units=1/GPa)
#
#
# Indices 1 2 3 4 5 6 
#
# 1 0.042999 -0.010681 -0.005756 0.000000 0.000000 0.000000
# 2 -0.010681 0.010282 -0.003237 0.000000 0.000000 0.000000
# 3 -0.005756 -0.003237 0.011087 0.000000 0.000000 0.000000
# 4 0.000000 0.000000 0.000000 0.028949 0.000000 0.000000
# 5 0.000000 0.000000 0.000000 0.000000 0.031900 0.000000
# 6 0.000000 0.000000 0.000000 0.000000 0.000000 0.042699
#
#
# Mechanical properties :
#
#
# Convention : Reuss Voigt Hill
#
# Bulk Modulus (GPa) = 39.96711 78.89856 59.43284
# Shear Modulus (GPa) = 23.19076 29.94656 26.56866
#
# Velocity S-wave (km/s) = 3.42445 3.89141 3.66537
# Velocity P-wave (km/s) = 5.98715 7.75160 6.92580
#
# Compressibility (1/GPa) = 0.02502057
#
# Stress axis : x y z
#
# Youngs Moduli (GPa) = 23.25631 97.25727 90.19911
#
# Poissons Ratio (x) = 1.03877 0.51919
# Poissons Ratio (y) = 0.24839 0.29197
# Poissons Ratio (z) = 0.13386 0.31481
#
# Static dielectric constant tensor:
#      x y z
#    x 3.497340 0.000000 0.000000 
#    y 0.000000 3.842410 0.000000 
#    z 0.000000 0.000000 3.444200 
# 
# 
# High freq. dielectric constant tensor:
#      x y z
#    x 1.781930 0.000000 0.000000 
#    y 0.000000 1.784780 0.000000 
#    z 0.000000 0.000000 1.753620 
# 
# From -- ./inp_files/52984.got.cif
#   From: 2010.03.12/outbox.cif.g09.slc.cpg/sg65_27_cif.got.tgz:52984.got - 2010.04.10 20:52:16.
