data_PCOD8272564
_publ_section_title
;
Structure prediction by ZEFSAII (Michael W. Deem and Ramdas Pophale) SiO2 
 PCOD8272564
Probable space group: C M M M
;
_chemical_formula_sum "Si O2"
_cell_formula_units_Z 60
_cell_length_a 9.649350
_cell_length_b 18.509702
_cell_length_c 18.891415
_cell_angle_alpha 90.000000
_cell_angle_beta 90.000000
_cell_angle_gamma 90.000000
_cell_volume 3374.131270
_symmetry_space_group_name_H-M "C M M M"
_symmetry_group_IT_number 65
_symmetry_cell_setting 'orthorhombic'
loop_
_space_group_symop_operation_xyz
x,y,z
-x,-y,z
x,-y,-z
-x,y,-z
-x,-y,-z
x,y,-z
-x,y,z
x,-y,z
1/2+x,1/2+y,z
1/2-x,1/2-y,z
1/2+x,1/2-y,-z
1/2-x,1/2+y,-z
1/2-x,1/2-y,-z
1/2+x,1/2+y,-z
1/2-x,1/2+y,z
1/2+x,1/2-y,z
loop_
_atom_site_type_symbol
_atom_site_label
_atom_site_fract_x
_atom_site_fract_y
_atom_site_fract_z
Si Si1 0.224872 0.500000 0.419389
Si Si2 0.000000 0.582941 0.083699
Si Si3 0.500000 0.205459 0.280784
Si Si4 0.000000 0.864658 0.769067
Si Si5 0.000000 0.000000 0.329982
Si Si6 0.279627 0.830397 0.831833
Si Si7 0.000000 0.618485 0.581600
O O1 0.270920 0.500000 0.500000
O O2 0.362726 0.500000 0.375328
O O3 0.135508 0.428938 0.402760
O O4 0.136971 0.623437 0.110856
O O5 0.000000 0.500000 0.110775
O O6 0.000000 0.586190 0.000000
O O7 0.500000 0.291657 0.276890
O O8 0.364306 0.174063 0.241844
O O9 0.500000 0.184967 0.363674
O O10 0.000000 0.929626 0.716251
O O11 0.865440 0.870176 0.818792
O O12 0.250000 0.750000 0.862016
O O13 0.000000 0.646514 0.500000
#
# Coordination Sequence:
#
# PCOD8272564 Si02
#       7
#     8   8   8   8   4  16   8
#     4   9  19  33  47  69 101 134 172 220 272 323
#     4  10  22  39  60  86 116 146 182 227 267 320
#     4   9  17  35  54  76 106 138 180 231 269 314
#     4  10  21  32  52  80 108 134 175 228 266 316
#     4  12  21  30  48  74 101 138 168 214 278 328
#     4   9  19  37  58  80 111 146 179 224 274 323
#     4   9  17  33  55  74  98 136 184 227 263 319
#
# _framework density 17.782354000000002
#
# number of rings (size 3 to 8) (size 9 to 14) (size 15 to 20)
#    0.000    2.533    0.000    3.400    1.867    0.533 
#    9.600    2.000    0.000   12.000    0.000    0.000 
#    0.000    0.000    0.000    0.000    0.000    0.000 
#
# Total GULP energy -371995.588373 kJ/mol
# GULP energy per Si atom -12399.852946 kJ/mol
# Density = 1.774188 g / cm^3
# Si number density = 17.782354 Si / 1000 Ang^3
#
#
#
# Elastic Constant Matrix: (Units=GPa)
#
#
# Indices 1 2 3 4 5 6 
#
# 1 161.7833 54.8281 55.2382 0.0000 0.0000 0.0000
# 2 54.8281 102.3598 63.7969 0.0000 0.0000 0.0000
# 3 55.2382 63.7969 92.4248 0.0000 0.0000 0.0000
# 4 0.0000 0.0000 0.0000 35.5824 0.0000 0.0000
# 5 0.0000 0.0000 0.0000 0.0000 19.1730 0.0000
# 6 0.0000 0.0000 0.0000 0.0000 0.0000 19.8304
#
#
#
# Elastic Compliance Matrix: (Units=1/GPa)
#
#
# Indices 1 2 3 4 5 6 
#
# 1 0.008065 -0.002309 -0.003226 0.000000 0.000000 0.000000
# 2 -0.002309 0.017807 -0.010911 0.000000 0.000000 0.000000
# 3 -0.003226 -0.010911 0.020279 0.000000 0.000000 0.000000
# 4 0.000000 0.000000 0.000000 0.028104 0.000000 0.000000
# 5 0.000000 0.000000 0.000000 0.000000 0.052157 0.000000
# 6 0.000000 0.000000 0.000000 0.000000 0.000000 0.050428
#
#
# Mechanical properties :
#
#
# Convention : Reuss Voigt Hill
#
# Bulk Modulus (GPa) = 75.42590 78.25491 76.84040
# Shear Modulus (GPa) = 23.34784 27.09746 25.22265
#
# Velocity S-wave (km/s) = 3.62743 3.90787 3.77026
# Velocity P-wave (km/s) = 7.74936 8.02898 7.89041
#
# Compressibility (1/GPa) = 0.01325805
#
# Stress axis : x y z
#
# Youngs Moduli (GPa) = 123.98838 56.15785 49.31126
#
# Poissons Ratio (x) = 0.12968 0.15909
# Poissons Ratio (y) = 0.28633 0.53805
# Poissons Ratio (z) = 0.40002 0.61275
#
# Static dielectric constant tensor:
#      x y z
#    x 3.504740 0.000000 0.000000 
#    y 0.000000 3.266750 0.000000 
#    z 0.000000 0.000000 3.032670 
# 
# 
# High freq. dielectric constant tensor:
#      x y z
#    x 1.705780 0.000000 0.000000 
#    y 0.000000 1.684410 0.000000 
#    z 0.000000 0.000000 1.669460 
# 
# From -- ./inp_files/55383.got.cif
#   From: 2010.03.12/outbox.cif.g09.slc.cpg/sg65_28_cif.got.tgz:55383.got - 2010.04.10 20:52:16.
