data_PCOD8272166
_publ_section_title
;
Structure prediction by ZEFSAII (Michael W. Deem and Ramdas Pophale) SiO2 
 PCOD8272166
Probable space group: C M M M
;
_chemical_formula_sum "Si O2"
_cell_formula_units_Z 88
_cell_length_a 18.009257
_cell_length_b 34.920074
_cell_length_c 7.773105
_cell_angle_alpha 90.000000
_cell_angle_beta 90.000000
_cell_angle_gamma 90.000000
_cell_volume 4888.385929
_symmetry_space_group_name_H-M "C M M M"
_symmetry_group_IT_number 65
_symmetry_cell_setting 'orthorhombic'
loop_
_space_group_symop_operation_xyz
x,y,z
-x,-y,z
x,-y,-z
-x,y,-z
-x,-y,-z
x,y,-z
-x,y,z
x,-y,z
1/2+x,1/2+y,z
1/2-x,1/2-y,z
1/2+x,1/2-y,-z
1/2-x,1/2+y,-z
1/2-x,1/2-y,-z
1/2+x,1/2+y,-z
1/2-x,1/2+y,z
1/2+x,1/2-y,z
loop_
_atom_site_type_symbol
_atom_site_label
_atom_site_fract_x
_atom_site_fract_y
_atom_site_fract_z
Si Si1 0.762387 0.705277 0.500000
Si Si2 0.000000 0.043039 0.705132
Si Si3 0.371529 0.884593 0.809324
Si Si4 0.352337 0.583227 0.704166
Si Si5 0.080773 0.663882 0.500000
Si Si6 0.716145 0.343017 0.809704
Si Si7 0.796659 0.543035 0.295888
O O1 0.750000 0.750000 0.500000
O O2 0.850238 0.693731 0.500000
O O3 0.719475 0.690308 0.331381
O O4 0.072600 0.064505 0.776302
O O5 0.000000 0.042710 0.500000
O O6 0.000000 0.000000 0.777263
O O7 0.420693 0.863416 0.667333
O O8 0.290253 0.867313 0.794169
O O9 0.363168 0.930052 0.774193
O O10 0.405772 0.878117 0.000000
O O11 0.351484 0.584640 0.500000
O O12 0.349776 0.626877 0.773433
O O13 0.283231 0.557875 0.771642
O O14 0.000000 0.685389 0.500000
O O15 0.706512 0.324699 0.000000
O O16 0.798034 0.544345 0.500000
O O17 0.809693 0.500000 0.227154
#
# Coordination Sequence:
#
# PCOD8272166 Si02
#       7
#     8   8  16  16   8  16  16
#     4  10  20  36  60  85 108 129 158 199 245 304
#     4   9  16  24  39  67 101 140 189 235 274 309
#     4   9  17  30  49  74 100 131 169 207 245 292
#     4   9  15  26  43  65  98 136 180 223 264 307
#     4  10  20  36  57  80 106 130 159 198 244 293
#     4   9  17  31  52  76 101 130 167 208 250 298
#     4   9  15  24  42  67  96 131 172 222 268 300
#
# _framework density 18.001852
#
# number of rings (size 3 to 8) (size 9 to 14) (size 15 to 20)
#    0.000    2.818    1.818    0.545    0.000    3.273 
#    0.000    0.455    2.000    3.273    0.000    1.273 
#    0.000    0.000    0.000    0.000    0.000    0.000 
#
# Total GULP energy -545310.554074 kJ/mol
# GULP energy per Si atom -12393.421684 kJ/mol
# Density = 1.796088 g / cm^3
# Si number density = 18.001852 Si / 1000 Ang^3
#
#
#
# Elastic Constant Matrix: (Units=GPa)
#
#
# Indices 1 2 3 4 5 6 
#
# 1 73.4490 38.2510 22.1038 0.0000 0.0000 0.0000
# 2 38.2510 133.8984 50.4000 0.0000 0.0000 0.0000
# 3 22.1038 50.4000 95.6060 0.0000 0.0000 0.0000
# 4 0.0000 0.0000 0.0000 7.5125 0.0000 0.0000
# 5 0.0000 0.0000 0.0000 0.0000 2.1957 0.0000
# 6 0.0000 0.0000 0.0000 0.0000 0.0000 17.9758
#
#
#
# Elastic Compliance Matrix: (Units=1/GPa)
#
#
# Indices 1 2 3 4 5 6 
#
# 1 0.016195 -0.004014 -0.001628 0.000000 0.000000 0.000000
# 2 -0.004014 0.010312 -0.004508 0.000000 0.000000 0.000000
# 3 -0.001628 -0.004508 0.013213 0.000000 0.000000 0.000000
# 4 0.000000 0.000000 0.000000 0.133111 0.000000 0.000000
# 5 0.000000 0.000000 0.000000 0.000000 0.455427 0.000000
# 6 0.000000 0.000000 0.000000 0.000000 0.000000 0.055630
#
#
# Mechanical properties :
#
#
# Convention : Reuss Voigt Hill
#
# Bulk Modulus (GPa) = 51.49505 58.27365 54.88435
# Shear Modulus (GPa) = 7.03571 18.35005 12.69288
#
# Velocity S-wave (km/s) = 1.97909 3.19618 2.65823
# Velocity P-wave (km/s) = 5.82151 6.78689 6.32265
#
# Compressibility (1/GPa) = 0.01941934
#
# Stress axis : x y z
#
# Youngs Moduli (GPa) = 61.74691 96.97662 75.68537
#
# Poissons Ratio (x) = 0.38922 0.12325
# Poissons Ratio (y) = 0.24782 0.34120
# Poissons Ratio (z) = 0.10055 0.43718
#
# Static dielectric constant tensor:
#      x y z
#    x 3.148880 0.000000 0.000000 
#    y 0.000000 3.143340 0.000000 
#    z 0.000000 0.000000 3.424280 
# 
# 
# High freq. dielectric constant tensor:
#      x y z
#    x 1.664970 0.000000 0.000000 
#    y 0.000000 1.671170 0.000000 
#    z 0.000000 0.000000 1.700820 
# 
# From -- ./inp_files/10173.got.cif
#   From: 2010.03.12/outbox.cif.g09.slc.cpg/sg65_6_cif.got.tgz:10173.got - 2010.04.10 20:52:16.
