data_PCOD8272103
_publ_section_title
;
Structure prediction by ZEFSAII (Michael W. Deem and Ramdas Pophale) SiO2 
 PCOD8272103
Probable space group: C M M M
;
_chemical_formula_sum "Si O2"
_cell_formula_units_Z 96
_cell_length_a 18.781888
_cell_length_b 23.003711
_cell_length_c 12.129730
_cell_angle_alpha 90.000000
_cell_angle_beta 90.000000
_cell_angle_gamma 90.000000
_cell_volume 5240.687735
_symmetry_space_group_name_H-M "C M M M"
_symmetry_group_IT_number 65
_symmetry_cell_setting 'orthorhombic'
loop_
_space_group_symop_operation_xyz
x,y,z
-x,-y,z
x,-y,-z
-x,y,-z
-x,-y,-z
x,y,-z
-x,y,z
x,-y,z
1/2+x,1/2+y,z
1/2-x,1/2-y,z
1/2+x,1/2-y,-z
1/2-x,1/2+y,-z
1/2-x,1/2-y,-z
1/2+x,1/2+y,-z
1/2-x,1/2+y,z
1/2+x,1/2-y,z
loop_
_atom_site_type_symbol
_atom_site_label
_atom_site_fract_x
_atom_site_fract_y
_atom_site_fract_z
Si Si1 0.583999 0.500000 0.870566
Si Si2 0.416181 0.164639 0.880993
Si Si3 0.274437 0.066599 0.621243
Si Si4 0.143989 0.894888 0.268681
Si Si5 0.919794 0.565886 0.283863
Si Si6 0.083369 0.793913 0.871218
Si Si7 0.083961 0.933644 0.500000
O O1 0.500000 0.500000 0.849532
O O2 0.617058 0.556584 0.815385
O O3 0.602064 0.500000 0.000000
O O4 0.500000 0.163968 0.895232
O O5 0.392635 0.110784 0.807345
O O6 0.395068 0.228278 0.835333
O O7 0.379891 0.155262 0.000000
O O8 0.248812 0.086245 0.500000
O O9 0.229789 0.102196 0.712807
O O10 0.360277 0.074113 0.622623
O O11 0.254269 0.000000 0.642165
O O12 0.127740 0.833639 0.212009
O O13 0.108632 0.900997 0.389081
O O14 0.918316 0.500000 0.236475
O O15 0.000000 0.580222 0.327774
O O16 0.000000 0.806185 0.853253
O O17 0.102679 0.804980 0.000000
O O18 0.000000 0.933777 0.500000
O O19 0.113400 0.000000 0.500000
#
# Coordination Sequence:
#
# PCOD8272103 Si02
#       7
#     8  16  16  16  16  16   8
#     4  11  22  33  49  75 108 144 184 234 275 301
#     4   8  15  31  55  81 109 140 173 215 268 323
#     4  10  20  36  54  75 106 144 177 219 279 328
#     4  12  20  33  51  74 108 145 187 225 266 317
#     4   9  18  33  58  87 107 129 168 220 276 335
#     4   9  18  33  54  78 107 148 190 224 261 309
#     4  11  20  30  48  74 100 137 188 236 270 309
#
# _framework density 18.318206
#
# number of rings (size 3 to 8) (size 9 to 14) (size 15 to 20)
#    0.000    2.167    2.500    3.000    0.000    2.000 
#    0.000    5.833    1.833    3.000    0.000    0.000 
#    0.000    0.000    0.000    0.000    0.000    0.000 
#
# Total GULP energy -594733.811944 kJ/mol
# GULP energy per Si atom -12390.287749 kJ/mol
# Density = 1.827651 g / cm^3
# Si number density = 18.318206 Si / 1000 Ang^3
#
#
#
# Elastic Constant Matrix: (Units=GPa)
#
#
# Indices 1 2 3 4 5 6 
#
# 1 96.6928 28.7237 39.9010 0.0000 0.0000 0.0000
# 2 28.7237 96.5994 50.4688 0.0000 0.0000 0.0000
# 3 39.9010 50.4688 99.0088 0.0000 0.0000 0.0000
# 4 0.0000 0.0000 0.0000 33.2657 0.0000 0.0000
# 5 0.0000 0.0000 0.0000 0.0000 22.3077 0.0000
# 6 0.0000 0.0000 0.0000 0.0000 0.0000 12.4958
#
#
#
# Elastic Compliance Matrix: (Units=1/GPa)
#
#
# Indices 1 2 3 4 5 6 
#
# 1 0.012560 -0.001486 -0.004304 0.000000 0.000000 0.000000
# 2 -0.001486 0.014285 -0.006683 0.000000 0.000000 0.000000
# 3 -0.004304 -0.006683 0.015241 0.000000 0.000000 0.000000
# 4 0.000000 0.000000 0.000000 0.030061 0.000000 0.000000
# 5 0.000000 0.000000 0.000000 0.000000 0.044828 0.000000
# 6 0.000000 0.000000 0.000000 0.000000 0.000000 0.080027
#
#
# Mechanical properties :
#
#
# Convention : Reuss Voigt Hill
#
# Bulk Modulus (GPa) = 58.34240 58.94312 58.64276
# Shear Modulus (GPa) = 21.96247 25.16101 23.56174
#
# Velocity S-wave (km/s) = 3.46633 3.71017 3.59032
# Velocity P-wave (km/s) = 6.92381 7.11344 7.01926
#
# Compressibility (1/GPa) = 0.01714019
#
# Stress axis : x y z
#
# Youngs Moduli (GPa) = 79.62058 70.00128 65.61095
#
# Poissons Ratio (x) = 0.10401 0.28240
# Poissons Ratio (y) = 0.11830 0.43848
# Poissons Ratio (z) = 0.34270 0.46782
#
# Static dielectric constant tensor:
#      x y z
#    x 3.352040 0.000000 0.000000 
#    y 0.000000 3.498150 0.000000 
#    z 0.000000 0.000000 7.587950 
# 
# 
# High freq. dielectric constant tensor:
#      x y z
#    x 1.704850 0.000000 0.000000 
#    y 0.000000 1.697630 0.000000 
#    z 0.000000 0.000000 1.702070 
# 
# From -- ./inp_files/27157.got.cif
#   From: 2010.03.12/outbox.cif.g09.slc.cpg/sg65_14_cif.got.tgz:27157.got - 2010.04.10 20:52:16.
