data_PCOD8272602
_publ_section_title
;
Structure prediction by ZEFSAII (Michael W. Deem and Ramdas Pophale) SiO2 
 PCOD8272602
Probable space group: C M M M
;
_chemical_formula_sum "Si O2"
_cell_formula_units_Z 104
_cell_length_a 20.025613
_cell_length_b 32.322302
_cell_length_c 9.088971
_cell_angle_alpha 90.000000
_cell_angle_beta 90.000000
_cell_angle_gamma 90.000000
_cell_volume 5883.053807
_symmetry_space_group_name_H-M "C M M M"
_symmetry_group_IT_number 65
_symmetry_cell_setting 'orthorhombic'
loop_
_space_group_symop_operation_xyz
x,y,z
-x,-y,z
x,-y,-z
-x,y,-z
-x,-y,-z
x,y,-z
-x,y,z
x,-y,z
1/2+x,1/2+y,z
1/2-x,1/2-y,z
1/2+x,1/2-y,-z
1/2-x,1/2+y,-z
1/2-x,1/2-y,-z
1/2+x,1/2+y,-z
1/2-x,1/2+y,z
1/2+x,1/2-y,z
loop_
_atom_site_type_symbol
_atom_site_label
_atom_site_fract_x
_atom_site_fract_y
_atom_site_fract_z
Si Si1 0.500000 0.455407 0.825688
Si Si2 0.868202 0.912180 0.831282
Si Si3 0.924674 0.772384 0.827316
Si Si4 0.076450 0.676798 0.832546
Si Si5 0.173977 0.833552 0.327465
Si Si6 0.269576 0.046862 0.169012
Si Si7 0.187953 0.371687 0.326599
O O1 0.500000 0.500000 0.750586
O O2 0.434750 0.432514 0.771596
O O3 0.500000 0.459283 0.000000
O O4 0.863398 0.874612 0.719808
O O5 0.809367 0.945463 0.815663
O O6 0.873130 0.896178 0.000000
O O7 0.915483 0.724472 0.787707
O O8 0.863254 0.795267 0.748666
O O9 0.000000 0.786576 0.777204
O O10 0.917955 0.780134 0.000000
O O11 0.119518 0.648685 0.724736
O O12 0.000000 0.662862 0.814714
O O13 0.100495 0.670056 0.000000
O O14 0.169037 0.826220 0.500000
O O15 0.251296 0.840949 0.277615
O O16 0.307984 0.082101 0.260004
O O17 0.285048 0.000000 0.226160
O O18 0.292209 0.050909 0.000000
O O19 0.188262 0.377212 0.500000
#
# Coordination Sequence:
#
# PCOD8272602 Si02
#       7
#     8  16  16  16  16  16  16
#     4   9  16  26  43  67  91 119 163 217 265 303
#     4   9  17  29  46  68  95 129 169 215 260 301
#     4   9  19  35  54  75 100 133 175 217 257 302
#     4   9  19  37  59  81 103 129 164 208 256 307
#     4  10  21  34  47  70 104 139 174 211 252 298
#     4   9  17  31  52  75  99 131 172 214 254 299
#     4  10  21  35  52  77 108 139 170 205 250 307
#
# _framework density 17.677893000000001
#
# number of rings (size 3 to 8) (size 9 to 14) (size 15 to 20)
#    0.000    2.692    0.000    2.308    1.077    5.846 
#    0.000    4.615    0.000    2.308    0.000    3.231 
#    0.000    0.000    0.000    0.000    0.000    0.000 
#
# Total GULP energy -644505.668825 kJ/mol
# GULP energy per Si atom -12394.339785 kJ/mol
# Density = 1.763766 g / cm^3
# Si number density = 17.677893 Si / 1000 Ang^3
#
#
#
# Elastic Constant Matrix: (Units=GPa)
#
#
# Indices 1 2 3 4 5 6 
#
# 1 89.6646 60.3414 35.2299 0.0000 0.0000 0.0000
# 2 60.3414 100.5779 42.7690 0.0000 0.0000 0.0000
# 3 35.2299 42.7690 51.0571 0.0000 0.0000 0.0000
# 4 0.0000 0.0000 0.0000 -5.0256 0.0000 0.0000
# 5 0.0000 0.0000 0.0000 0.0000 24.2293 0.0000
# 6 0.0000 0.0000 0.0000 0.0000 0.0000 9.8364
#
#
#
# Elastic Compliance Matrix: (Units=1/GPa)
#
#
# Indices 1 2 3 4 5 6 
#
# 1 0.019733 -0.009396 -0.005746 0.000000 0.000000 0.000000
# 2 -0.009396 0.019917 -0.010201 0.000000 0.000000 0.000000
# 3 -0.005746 -0.010201 0.032096 0.000000 0.000000 0.000000
# 4 0.000000 0.000000 0.000000 -0.198982 0.000000 0.000000
# 5 0.000000 0.000000 0.000000 0.000000 0.041272 0.000000
# 6 0.000000 0.000000 0.000000 0.000000 0.000000 0.101663
#
#
# Mechanical properties :
#
#
# Convention : Reuss Voigt Hill
#
# Bulk Modulus (GPa) = 47.48026 57.55338 52.51682
# Shear Modulus (GPa) = 68.11609 12.67198 40.39403
#
# Velocity S-wave (km/s) = 6.21413 2.68027 4.78536
# Velocity P-wave (km/s) = 8.85461 6.49660 7.76563
#
# Compressibility (1/GPa) = 0.02106139
#
# Stress axis : x y z
#
# Youngs Moduli (GPa) = 50.67619 50.20783 31.15701
#
# Poissons Ratio (x) = 0.47173 0.17902
# Poissons Ratio (y) = 0.47613 0.31783
# Poissons Ratio (z) = 0.29117 0.51217
#
# Static dielectric constant tensor:
#      x y z
#    x 3.275090 0.000000 0.000000 
#    y 0.000000 3.262810 0.000000 
#    z 0.000000 0.000000 3.106280 
# 
# 
# High freq. dielectric constant tensor:
#      x y z
#    x 1.676910 0.000000 0.000000 
#    y 0.000000 1.681680 0.000000 
#    z 0.000000 0.000000 1.669850 
# 
# From -- ./inp_files/12738.got.cif
#   From: 2010.03.12/outbox.cif.g09.slc.cpg/sg65_7_cif.got.tgz:12738.got - 2010.04.10 20:52:16.
