data_PCOD8272817
_publ_section_title
;
Structure prediction by ZEFSAII (Michael W. Deem and Ramdas Pophale) SiO2 
 PCOD8272817
Probable space group: C M M M
;
_chemical_formula_sum "Si O2"
_cell_formula_units_Z 72
_cell_length_a 9.458372
_cell_length_b 26.065509
_cell_length_c 15.597366
_cell_angle_alpha 90.000000
_cell_angle_beta 90.000000
_cell_angle_gamma 90.000000
_cell_volume 3845.332196
_symmetry_space_group_name_H-M "C M M M"
_symmetry_group_IT_number 65
_symmetry_cell_setting 'orthorhombic'
loop_
_space_group_symop_operation_xyz
x,y,z
-x,-y,z
x,-y,-z
-x,y,-z
-x,-y,-z
x,y,-z
-x,y,z
x,-y,z
1/2+x,1/2+y,z
1/2-x,1/2-y,z
1/2+x,1/2-y,-z
1/2-x,1/2+y,-z
1/2-x,1/2-y,-z
1/2+x,1/2+y,-z
1/2-x,1/2+y,z
1/2+x,1/2-y,z
loop_
_atom_site_type_symbol
_atom_site_label
_atom_site_fract_x
_atom_site_fract_y
_atom_site_fract_z
Si Si1 0.167498 0.500000 0.398672
Si Si2 0.665685 0.402586 0.327637
Si Si3 0.846911 0.558817 0.000000
Si Si4 0.161865 0.112484 0.129848
Si Si5 0.339785 0.699637 0.000000
Si Si6 0.656474 0.295794 0.399309
O O1 0.196525 0.500000 0.500000
O O2 0.239089 0.549921 0.356954
O O3 0.000000 0.500000 0.378766
O O4 0.500000 0.415532 0.343919
O O5 0.695833 0.387708 0.229801
O O6 0.716514 0.352502 0.380221
O O7 0.760790 0.570833 0.085821
O O8 0.878374 0.500000 0.000000
O O9 0.000000 0.587507 0.000000
O O10 0.194628 0.167301 0.086020
O O11 0.000000 0.096995 0.112034
O O12 0.250000 0.750000 0.000000
O O13 0.500000 0.717754 0.000000
O O14 0.649135 0.287909 0.500000
O O15 0.500000 0.291344 0.358312
O O16 0.750000 0.250000 0.358359
#
# Coordination Sequence:
#
# PCOD8272817 Si02
#       6
#     8  16   8  16   8  16
#     4  11  25  41  57  82 117 154 189 235 296 349
#     4  10  21  38  60  84 111 148 195 238 279 336
#     4  10  21  35  53  77 106 138 172 216 268 319
#     4   9  20  37  55  79 108 141 183 225 267 322
#     4   9  18  34  54  78 111 148 184 224 271 330
#     4   9  18  33  54  80 110 144 183 228 278 333
#
# _framework density 18.724
#
# number of rings (size 3 to 8) (size 9 to 14) (size 15 to 20)
#    0.000    2.444    0.000    2.000    1.556    7.111 
#    0.000    2.222    0.000    0.000    0.000    0.000 
#    0.000    0.000    0.000    0.000    0.000    0.000 
#
# Total GULP energy -446274.865717 kJ/mol
# GULP energy per Si atom -12396.524048 kJ/mol
# Density = 1.868138 g / cm^3
# Si number density = 18.724000 Si / 1000 Ang^3
#
#
#
# Elastic Constant Matrix: (Units=GPa)
#
#
# Indices 1 2 3 4 5 6 
#
# 1 104.7870 81.5999 45.2880 0.0000 0.0000 0.0000
# 2 81.5999 155.9193 42.2420 0.0000 0.0000 0.0000
# 3 45.2880 42.2420 80.4348 0.0000 0.0000 0.0000
# 4 0.0000 0.0000 0.0000 16.3163 0.0000 0.0000
# 5 0.0000 0.0000 0.0000 0.0000 3.4323 0.0000
# 6 0.0000 0.0000 0.0000 0.0000 0.0000 38.3609
#
#
#
# Elastic Compliance Matrix: (Units=1/GPa)
#
#
# Indices 1 2 3 4 5 6 
#
# 1 0.018419 -0.007963 -0.006189 0.000000 0.000000 0.000000
# 2 -0.007963 0.010920 -0.001252 0.000000 0.000000 0.000000
# 3 -0.006189 -0.001252 0.016574 0.000000 0.000000 0.000000
# 4 0.000000 0.000000 0.000000 0.061289 0.000000 0.000000
# 5 0.000000 0.000000 0.000000 0.000000 0.291349 0.000000
# 6 0.000000 0.000000 0.000000 0.000000 0.000000 0.026068
#
#
# Mechanical properties :
#
#
# Convention : Reuss Voigt Hill
#
# Bulk Modulus (GPa) = 66.19457 75.48896 70.84176
# Shear Modulus (GPa) = 10.85873 23.08931 16.97402
#
# Velocity S-wave (km/s) = 2.41080 3.51542 3.01414
# Velocity P-wave (km/s) = 6.57106 7.54200 7.07321
#
# Compressibility (1/GPa) = 0.01510698
#
# Stress axis : x y z
#
# Youngs Moduli (GPa) = 54.29323 91.57635 60.33508
#
# Poissons Ratio (x) = 0.72919 0.37339
# Poissons Ratio (y) = 0.43232 0.07551
# Poissons Ratio (z) = 0.33600 0.11461
#
# Static dielectric constant tensor:
#      x y z
#    x 3.740100 0.000000 0.000000 
#    y 0.000000 3.395910 0.000000 
#    z 0.000000 0.000000 3.853380 
# 
# 
# High freq. dielectric constant tensor:
#      x y z
#    x 1.727940 0.000000 0.000000 
#    y 0.000000 1.728630 0.000000 
#    z 0.000000 0.000000 1.723880 
# 
# From -- ./inp_files/36687.got.cif
#   From: 2010.03.12/outbox.cif.g09.slc.cpg/sg65_19_cif.got.tgz:36687.got - 2010.04.10 20:52:16.
