data_PCOD8272671
_publ_section_title
;
Structure prediction by ZEFSAII (Michael W. Deem and Ramdas Pophale) SiO2 
 PCOD8272671
Probable space group: C M M M
;
_chemical_formula_sum "Si O2"
_cell_formula_units_Z 88
_cell_length_a 9.201067
_cell_length_b 18.614392
_cell_length_c 28.280757
_cell_angle_alpha 90.000000
_cell_angle_beta 90.000000
_cell_angle_gamma 90.000000
_cell_volume 4843.709391
_symmetry_space_group_name_H-M "C M M M"
_symmetry_group_IT_number 65
_symmetry_cell_setting 'orthorhombic'
loop_
_space_group_symop_operation_xyz
x,y,z
-x,-y,z
x,-y,-z
-x,y,-z
-x,-y,-z
x,y,-z
-x,y,z
x,-y,z
1/2+x,1/2+y,z
1/2-x,1/2-y,z
1/2+x,1/2-y,-z
1/2-x,1/2+y,-z
1/2-x,1/2-y,-z
1/2+x,1/2+y,-z
1/2-x,1/2+y,z
1/2+x,1/2-y,z
loop_
_atom_site_type_symbol
_atom_site_label
_atom_site_fract_x
_atom_site_fract_y
_atom_site_fract_z
Si Si1 0.661455 0.085496 0.320089
Si Si2 0.165535 0.083203 0.054730
Si Si3 0.172254 0.174230 0.500000
Si Si4 0.827077 0.420001 0.216928
Si Si5 0.670914 0.418056 0.410706
Si Si6 0.327236 0.825757 0.870420
O O1 0.500000 0.116866 0.328145
O O2 0.723849 0.109365 0.268612
O O3 0.761765 0.114194 0.362509
O O4 0.656788 0.000000 0.320152
O O5 0.279881 0.129637 0.083875
O O6 0.000000 0.102055 0.069328
O O7 0.197741 0.000000 0.064617
O O8 0.190083 0.101532 0.000000
O O9 0.250000 0.250000 0.500000
O O10 0.224463 0.129918 0.545705
O O11 0.000000 0.185347 0.500000
O O12 0.763774 0.500000 0.207197
O O13 0.771147 0.366738 0.176449
O O14 0.000000 0.424352 0.217037
O O15 0.500000 0.414590 0.405008
O O16 0.722200 0.500000 0.419740
O O17 0.500000 0.816136 0.871101
O O18 0.250000 0.750000 0.871378
#
# Coordination Sequence:
#
# PCOD8272671 Si02
#       6
#    16  16   8  16  16  16
#     4   8  14  27  49  75  99 123 156 200 247 292
#     4   9  19  37  59  81 105 132 164 207 258 307
#     4  10  21  35  49  67  95 130 162 196 240 288
#     4   8  15  30  52  75  98 127 164 205 249 296
#     4   9  17  31  51  73  96 123 158 199 243 290
#     4  11  22  35  52  75 105 140 176 212 250 296
#
# _framework density 18.167894
#
# number of rings (size 3 to 8) (size 9 to 14) (size 15 to 20)
#    0.000    2.909    0.000    3.000    0.000    3.636 
#    0.000    3.636    0.000   11.455    0.000    0.000 
#    0.000    0.000    0.000    0.000    0.000    0.000 
#
# Total GULP energy -545457.103811 kJ/mol
# GULP energy per Si atom -12396.752359 kJ/mol
# Density = 1.812654 g / cm^3
# Si number density = 18.167894 Si / 1000 Ang^3
#
#
#
# Elastic Constant Matrix: (Units=GPa)
#
#
# Indices 1 2 3 4 5 6 
#
# 1 50.3259 39.9366 50.1851 0.0000 0.0000 0.0000
# 2 39.9366 91.1780 74.3697 0.0000 0.0000 0.0000
# 3 50.1851 74.3697 155.9526 0.0000 0.0000 0.0000
# 4 0.0000 0.0000 0.0000 4.0975 0.0000 0.0000
# 5 0.0000 0.0000 0.0000 0.0000 29.7732 0.0000
# 6 0.0000 0.0000 0.0000 0.0000 0.0000 12.7907
#
#
#
# Elastic Compliance Matrix: (Units=1/GPa)
#
#
# Indices 1 2 3 4 5 6 
#
# 1 0.033808 -0.009712 -0.006248 0.000000 0.000000 0.000000
# 2 -0.009712 0.020739 -0.006765 0.000000 0.000000 0.000000
# 3 -0.006248 -0.006765 0.011649 0.000000 0.000000 0.000000
# 4 0.000000 0.000000 0.000000 0.244052 0.000000 0.000000
# 5 0.000000 0.000000 0.000000 0.000000 0.033587 0.000000
# 6 0.000000 0.000000 0.000000 0.000000 0.000000 0.078182
#
#
# Mechanical properties :
#
#
# Convention : Reuss Voigt Hill
#
# Bulk Modulus (GPa) = 48.20067 69.60437 58.90252
# Shear Modulus (GPa) = 10.54004 18.19663 14.36834
#
# Velocity S-wave (km/s) = 2.41124 3.16821 2.81528
# Velocity P-wave (km/s) = 5.86007 7.19572 6.56196
#
# Compressibility (1/GPa) = 0.02074660
#
# Stress axis : x y z
#
# Youngs Moduli (GPa) = 29.57886 48.21822 85.84693
#
# Poissons Ratio (x) = 0.46829 0.53637
# Poissons Ratio (y) = 0.28727 0.58072
# Poissons Ratio (z) = 0.18481 0.32618
#
# Static dielectric constant tensor:
#      x y z
#    x 3.170860 0.000000 0.000000 
#    y 0.000000 3.190480 0.000000 
#    z 0.000000 0.000000 3.732780 
# 
# 
# High freq. dielectric constant tensor:
#      x y z
#    x 1.682420 0.000000 0.000000 
#    y 0.000000 1.680280 0.000000 
#    z 0.000000 0.000000 1.721760 
# 
# From -- ./inp_files/76495.got.cif
#   From: 2010.03.12/outbox.cif.g09.slc.cpg/sg65_39_cif.got.tgz:76495.got - 2010.04.10 20:52:16.
