data_PCOD8272534
_publ_section_title
;
Structure prediction by ZEFSAII (Michael W. Deem and Ramdas Pophale) SiO2 
 PCOD8272534
Probable space group: C M M M
;
_chemical_formula_sum "Si O2"
_cell_formula_units_Z 104
_cell_length_a 7.715045
_cell_length_b 29.271548
_cell_length_c 23.435388
_cell_angle_alpha 90.000000
_cell_angle_beta 90.000000
_cell_angle_gamma 90.000000
_cell_volume 5292.444373
_symmetry_space_group_name_H-M "C M M M"
_symmetry_group_IT_number 65
_symmetry_cell_setting 'orthorhombic'
loop_
_space_group_symop_operation_xyz
x,y,z
-x,-y,z
x,-y,-z
-x,y,-z
-x,-y,-z
x,y,-z
-x,y,z
x,-y,z
1/2+x,1/2+y,z
1/2-x,1/2-y,z
1/2+x,1/2-y,-z
1/2-x,1/2+y,-z
1/2-x,1/2-y,-z
1/2+x,1/2+y,-z
1/2-x,1/2+y,z
1/2+x,1/2-y,z
loop_
_atom_site_type_symbol
_atom_site_label
_atom_site_fract_x
_atom_site_fract_y
_atom_site_fract_z
Si Si1 0.500000 0.947202 0.631035
Si Si2 0.500000 0.086764 0.243262
Si Si3 0.293139 0.339981 0.751832
Si Si4 0.809460 0.377573 0.437005
Si Si5 0.702815 0.388516 0.932781
Si Si6 0.500000 0.052031 0.880099
Si Si7 0.308811 0.701262 0.362616
Si Si8 0.300526 0.300079 0.129478
O O1 0.500000 0.942928 0.698993
O O2 0.672123 0.922824 0.603188
O O3 0.500000 0.000000 0.613168
O O4 0.679235 0.114835 0.240747
O O5 0.500000 0.054292 0.188557
O O6 0.500000 0.352325 0.748898
O O7 0.214416 0.315436 0.695171
O O8 0.249225 0.306530 0.804360
O O9 0.737597 0.391044 0.500000
O O10 0.691766 0.338134 0.410293
O O11 0.000000 0.355076 0.442608
O O12 0.500000 0.396895 0.916026
O O13 0.779505 0.340203 0.909377
O O14 0.823047 0.426870 0.904933
O O15 0.727043 0.389066 0.000000
O O16 0.500000 0.000000 0.899536
O O17 0.500000 0.709416 0.341099
O O18 0.250000 0.750000 0.387593
O O19 0.500000 0.305938 0.120379
O O20 0.250000 0.250000 0.107785
#
# Coordination Sequence:
#
# PCOD8272534 Si02
#       8
#     8   8  16  16  16   8  16  16
#     4  10  20  38  65  93 116 150 202 253 311 376
#     4  12  21  38  70  86 130 160 190 262 321 364
#     4  10  21  37  58  87 119 167 208 248 306 371
#     4   9  19  36  57  83 115 153 199 245 294 355
#     4  10  23  44  64  87 126 168 207 257 305 361
#     4  12  26  42  67  99 122 156 208 259 319 378
#     4  11  22  35  56  84 122 162 206 251 300 360
#     4  10  21  35  57  88 122 160 207 249 301 361
#
# _framework density 19.650656000000001
#
# number of rings (size 3 to 8) (size 9 to 14) (size 15 to 20)
#    0.462    1.231    3.077    1.385    3.231    2.462 
#    0.000    0.769    0.000    2.769    0.000    1.077 
#    0.000    0.000    0.000    0.000    0.000    0.000 
#
# Total GULP energy -644283.645323 kJ/mol
# GULP energy per Si atom -12390.070102 kJ/mol
# Density = 1.960593 g / cm^3
# Si number density = 19.650656 Si / 1000 Ang^3
#
#
#
# Elastic Constant Matrix: (Units=GPa)
#
#
# Indices 1 2 3 4 5 6 
#
# 1 55.5260 35.6957 35.4728 0.0000 0.0000 0.0000
# 2 35.6957 159.1242 60.1258 0.0000 0.0000 0.0000
# 3 35.4728 60.1258 127.6362 0.0000 0.0000 0.0000
# 4 0.0000 0.0000 0.0000 13.9762 0.0000 0.0000
# 5 0.0000 0.0000 0.0000 0.0000 22.5346 0.0000
# 6 0.0000 0.0000 0.0000 0.0000 0.0000 22.3190
#
#
#
# Elastic Compliance Matrix: (Units=1/GPa)
#
#
# Indices 1 2 3 4 5 6 
#
# 1 0.023304 -0.003382 -0.004883 0.000000 0.000000 0.000000
# 2 -0.003382 0.008136 -0.002893 0.000000 0.000000 0.000000
# 3 -0.004883 -0.002893 0.010555 0.000000 0.000000 0.000000
# 4 0.000000 0.000000 0.000000 0.071550 0.000000 0.000000
# 5 0.000000 0.000000 0.000000 0.000000 0.044376 0.000000
# 6 0.000000 0.000000 0.000000 0.000000 0.000000 0.044805
#
#
# Mechanical properties :
#
#
# Convention : Reuss Voigt Hill
#
# Bulk Modulus (GPa) = 50.81884 67.20835 59.01360
# Shear Modulus (GPa) = 21.58881 25.83211 23.71046
#
# Velocity S-wave (km/s) = 3.31816 3.62963 3.47738
# Velocity P-wave (km/s) = 6.37162 7.20010 6.79849
#
# Compressibility (1/GPa) = 0.01967774
#
# Stress axis : x y z
#
# Youngs Moduli (GPa) = 42.91167 122.90776 94.74571
#
# Poissons Ratio (x) = 0.41573 0.46266
# Poissons Ratio (y) = 0.14515 0.27407
# Poissons Ratio (z) = 0.20955 0.35553
#
# Static dielectric constant tensor:
#      x y z
#    x 3.542930 0.000000 0.000000 
#    y 0.000000 3.192350 0.000000 
#    z 0.000000 0.000000 3.762530 
# 
# 
# High freq. dielectric constant tensor:
#      x y z
#    x 1.754470 0.000000 0.000000 
#    y 0.000000 1.747950 0.000000 
#    z 0.000000 0.000000 1.776490 
# 
# From -- ./inp_files/68320.got.cif
#   From: 2010.03.12/outbox.cif.g09.slc.cpg/sg65_35_cif.got.tgz:68320.got - 2010.04.10 20:52:16.
