data_PCOD8272485
_publ_section_title
;
Structure prediction by ZEFSAII (Michael W. Deem and Ramdas Pophale) SiO2 
 PCOD8272485
Probable space group: C M M M
;
_chemical_formula_sum "Si O2"
_cell_formula_units_Z 88
_cell_length_a 22.529316
_cell_length_b 9.749250
_cell_length_c 20.638960
_cell_angle_alpha 90.000000
_cell_angle_beta 90.000000
_cell_angle_gamma 90.000000
_cell_volume 4533.222368
_symmetry_space_group_name_H-M "C M M M"
_symmetry_group_IT_number 65
_symmetry_cell_setting 'orthorhombic'
loop_
_space_group_symop_operation_xyz
x,y,z
-x,-y,z
x,-y,-z
-x,y,-z
-x,-y,-z
x,y,-z
-x,y,z
x,-y,z
1/2+x,1/2+y,z
1/2-x,1/2-y,z
1/2+x,1/2-y,-z
1/2-x,1/2+y,-z
1/2-x,1/2-y,-z
1/2+x,1/2+y,-z
1/2-x,1/2+y,z
1/2+x,1/2-y,z
loop_
_atom_site_type_symbol
_atom_site_label
_atom_site_fract_x
_atom_site_fract_y
_atom_site_fract_z
Si Si1 0.800698 0.500000 0.421912
Si Si2 0.500000 0.648819 0.205041
Si Si3 0.000000 0.344945 0.676816
Si Si4 0.887992 0.845834 0.115097
Si Si5 0.373888 0.239250 0.358244
Si Si6 0.691097 0.662260 0.766120
Si Si7 0.070441 0.663568 0.000000
Si Si8 0.665858 0.500000 0.575339
O O1 0.807700 0.500000 0.500000
O O2 0.829249 0.632619 0.390127
O O3 0.732850 0.500000 0.397344
O O4 0.500000 0.500000 0.239753
O O5 0.500000 0.763587 0.257571
O O6 0.556334 0.664388 0.160816
O O7 0.940987 0.314670 0.635882
O O8 0.000000 0.500000 0.699326
O O9 0.830904 0.815379 0.160064
O O10 0.895671 0.729674 0.060918
O O11 0.883532 0.000000 0.084722
O O12 0.357071 0.277139 0.284245
O O13 0.371648 0.371693 0.402186
O O14 0.701432 0.500000 0.752327
O O15 0.750000 0.750000 0.756442
O O16 0.080066 0.500000 0.000000
O O17 0.000000 0.699701 0.000000
O O18 0.671387 0.500000 0.500000
#
# Coordination Sequence:
#
# PCOD8272485 Si02
#       8
#     8   8   8  16  16  16   8   8
#     4  11  24  45  69  93 129 169 213 266 318 386
#     4  10  20  37  63  91 124 162 206 260 309 371
#     4  12  26  42  60  92 133 174 208 262 329 385
#     4  10  21  39  62  92 124 166 211 253 312 373
#     4  12  24  42  65  98 129 167 216 262 324 385
#     4  11  24  41  65  97 129 163 212 269 322 380
#     4  11  23  37  58  93 132 167 208 260 313 374
#     4  11  24  43  69  97 125 165 215 268 320 376
#
# _framework density 19.412240000000001
#
# number of rings (size 3 to 8) (size 9 to 14) (size 15 to 20)
#    0.000    1.000    4.545    2.455    2.545    3.273 
#    0.000    3.182    0.000    0.000    0.000    0.000 
#    0.000    0.000    0.000    0.000    0.000    0.000 
#
# Total GULP energy -545560.197797 kJ/mol
# GULP energy per Si atom -12399.095404 kJ/mol
# Density = 1.936806 g / cm^3
# Si number density = 19.412240 Si / 1000 Ang^3
#
#
#
# Elastic Constant Matrix: (Units=GPa)
#
#
# Indices 1 2 3 4 5 6 
#
# 1 88.2218 34.7805 28.5021 0.0000 0.0000 0.0000
# 2 34.7805 146.4023 52.7008 0.0000 0.0000 0.0000
# 3 28.5021 52.7008 78.4200 0.0000 0.0000 0.0000
# 4 0.0000 0.0000 0.0000 25.3085 0.0000 0.0000
# 5 0.0000 0.0000 0.0000 0.0000 26.8176 0.0000
# 6 0.0000 0.0000 0.0000 0.0000 0.0000 32.1595
#
#
#
# Elastic Compliance Matrix: (Units=1/GPa)
#
#
# Indices 1 2 3 4 5 6 
#
# 1 0.013217 -0.001861 -0.003553 0.000000 0.000000 0.000000
# 2 -0.001861 0.009272 -0.005555 0.000000 0.000000 0.000000
# 3 -0.003553 -0.005555 0.017776 0.000000 0.000000 0.000000
# 4 0.000000 0.000000 0.000000 0.039512 0.000000 0.000000
# 5 0.000000 0.000000 0.000000 0.000000 0.037289 0.000000
# 6 0.000000 0.000000 0.000000 0.000000 0.000000 0.031095
#
#
# Mechanical properties :
#
#
# Convention : Reuss Voigt Hill
#
# Bulk Modulus (GPa) = 54.56291 60.55677 57.55984
# Shear Modulus (GPa) = 28.37556 29.99453 29.18504
#
# Velocity S-wave (km/s) = 3.82741 3.93508 3.88162
# Velocity P-wave (km/s) = 6.90656 7.20482 7.05727
#
# Compressibility (1/GPa) = 0.01832747
#
# Stress axis : x y z
#
# Youngs Moduli (GPa) = 75.66251 107.84959 56.25471
#
# Poissons Ratio (x) = 0.20069 0.19988
# Poissons Ratio (y) = 0.14079 0.31249
# Poissons Ratio (z) = 0.26884 0.59909
#
# Static dielectric constant tensor:
#      x y z
#    x 3.577000 0.000000 0.000000 
#    y 0.000000 3.866120 0.000000 
#    z 0.000000 0.000000 3.531410 
# 
# 
# High freq. dielectric constant tensor:
#      x y z
#    x 1.756130 0.000000 0.000000 
#    y 0.000000 1.771550 0.000000 
#    z 0.000000 0.000000 1.753220 
# 
# From -- ./inp_files/59968.got.cif
#   From: 2010.03.12/outbox.cif.g09.slc.cpg/sg65_30_cif.got.tgz:59968.got - 2010.04.10 20:52:16.
