data_PCOD8272108
_publ_section_title
;
Structure prediction by ZEFSAII (Michael W. Deem and Ramdas Pophale) SiO2 
 PCOD8272108
Probable space group: C M M M
;
_chemical_formula_sum "Si O2"
_cell_formula_units_Z 104
_cell_length_a 33.756404
_cell_length_b 13.375761
_cell_length_c 13.345373
_cell_angle_alpha 90.000000
_cell_angle_beta 90.000000
_cell_angle_gamma 90.000000
_cell_volume 6025.670683
_symmetry_space_group_name_H-M "C M M M"
_symmetry_group_IT_number 65
_symmetry_cell_setting 'orthorhombic'
loop_
_space_group_symop_operation_xyz
x,y,z
-x,-y,z
x,-y,-z
-x,y,-z
-x,-y,-z
x,y,-z
-x,y,z
x,-y,z
1/2+x,1/2+y,z
1/2-x,1/2-y,z
1/2+x,1/2-y,-z
1/2-x,1/2+y,-z
1/2-x,1/2-y,-z
1/2+x,1/2+y,-z
1/2-x,1/2+y,z
1/2+x,1/2-y,z
loop_
_atom_site_type_symbol
_atom_site_label
_atom_site_fract_x
_atom_site_fract_y
_atom_site_fract_z
Si Si1 0.954797 0.614724 0.777887
Si Si2 0.454801 0.274062 0.385424
Si Si3 0.694067 0.884667 0.883682
Si Si4 0.887068 0.278289 0.114801
Si Si5 0.250000 0.750000 0.749575
Si Si6 0.387837 0.385576 0.720321
Si Si7 0.193737 0.115541 0.615648
O O1 0.943879 0.500000 0.759436
O O2 0.947258 0.670598 0.672901
O O3 0.927131 0.660688 0.863630
O O4 0.000000 0.627693 0.814405
O O5 0.443615 0.253280 0.500000
O O6 0.500000 0.310457 0.373855
O O7 0.427642 0.361147 0.340551
O O8 0.649621 0.849875 0.859745
O O9 0.724667 0.821869 0.819360
O O10 0.697762 0.000000 0.852666
O O11 0.704434 0.868788 0.000000
O O12 0.884171 0.177861 0.178828
O O13 0.887020 0.244461 0.000000
O O14 0.222568 0.816992 0.680254
O O15 0.389121 0.500000 0.754375
O O16 0.351202 0.362931 0.647640
O O17 0.198322 0.145471 0.500000
O O18 0.204879 0.000000 0.633393
#
# Coordination Sequence:
#
# PCOD8272108 Si02
#       7
#    16  16  16  16   8  16  16
#     4   9  18  32  52  79 108 139 175 213 253 301
#     4   9  18  32  52  79 108 139 175 213 254 302
#     4  10  21  36  55  79 107 139 173 213 263 312
#     4  10  20  36  55  76 104 137 172 213 260 311
#     4  12  20  36  56  80 106 140 172 216 260 308
#     4  10  20  36  55  76 104 137 171 214 262 308
#     4  10  21  36  55  79 105 137 175 213 259 310
#
# _framework density 17.25949
#
# number of rings (size 3 to 8) (size 9 to 14) (size 15 to 20)
#    0.000    2.154    1.538    1.846    0.000    3.077 
#    0.000    3.077    0.000    0.000    0.000    4.308 
#    0.000    0.000    0.000    0.000    0.000    0.000 
#
# Total GULP energy -644938.658461 kJ/mol
# GULP energy per Si atom -12402.666509 kJ/mol
# Density = 1.722021 g / cm^3
# Si number density = 17.259490 Si / 1000 Ang^3
#
#
#
# Elastic Constant Matrix: (Units=GPa)
#
#
# Indices 1 2 3 4 5 6 
#
# 1 102.1211 77.8603 64.9823 0.0000 0.0000 0.0000
# 2 77.8603 120.4449 74.3709 0.0000 0.0000 0.0000
# 3 64.9823 74.3709 104.9717 0.0000 0.0000 0.0000
# 4 0.0000 0.0000 0.0000 19.6229 0.0000 0.0000
# 5 0.0000 0.0000 0.0000 0.0000 8.5958 0.0000
# 6 0.0000 0.0000 0.0000 0.0000 0.0000 18.1762
#
#
#
# Elastic Compliance Matrix: (Units=1/GPa)
#
#
# Indices 1 2 3 4 5 6 
#
# 1 0.021300 -0.010004 -0.006098 0.000000 0.000000 0.000000
# 2 -0.010004 0.019457 -0.007593 0.000000 0.000000 0.000000
# 3 -0.006098 -0.007593 0.018681 0.000000 0.000000 0.000000
# 4 0.000000 0.000000 0.000000 0.050961 0.000000 0.000000
# 5 0.000000 0.000000 0.000000 0.000000 0.116335 0.000000
# 6 0.000000 0.000000 0.000000 0.000000 0.000000 0.055017
#
#
# Mechanical properties :
#
#
# Convention : Reuss Voigt Hill
#
# Bulk Modulus (GPa) = 82.99329 84.66273 83.82801
# Shear Modulus (GPa) = 15.00798 16.63394 15.82096
#
# Velocity S-wave (km/s) = 2.95201 3.10781 3.03091
# Velocity P-wave (km/s) = 7.73364 7.87638 7.80533
#
# Compressibility (1/GPa) = 0.01204917
#
# Stress axis : x y z
#
# Youngs Moduli (GPa) = 46.94893 51.39412 53.53120
#
# Poissons Ratio (x) = 0.51413 0.32644
# Poissons Ratio (y) = 0.46966 0.40644
# Poissons Ratio (z) = 0.28630 0.39022
#
# Static dielectric constant tensor:
#      x y z
#    x 3.341860 0.000000 0.000000 
#    y 0.000000 3.231020 0.000000 
#    z 0.000000 0.000000 3.222160 
# 
# 
# High freq. dielectric constant tensor:
#      x y z
#    x 1.677650 0.000000 0.000000 
#    y 0.000000 1.668860 0.000000 
#    z 0.000000 0.000000 1.668500 
# 
# From -- ./inp_files/33988.got.cif
#   From: 2010.03.12/outbox.cif.g09.slc.cpg/sg65_17_cif.got.tgz:33988.got - 2010.04.10 20:52:16.
