data_PCOD8272331
_publ_section_title
;
Structure prediction by ZEFSAII (Michael W. Deem and Ramdas Pophale) SiO2 
 PCOD8272331
Probable space group: C M M M
;
_chemical_formula_sum "Si O2"
_cell_formula_units_Z 64
_cell_length_a 18.158521
_cell_length_b 15.531017
_cell_length_c 12.275391
_cell_angle_alpha 90.000000
_cell_angle_beta 90.000000
_cell_angle_gamma 90.000000
_cell_volume 3461.909432
_symmetry_space_group_name_H-M "C M M M"
_symmetry_group_IT_number 65
_symmetry_cell_setting 'orthorhombic'
loop_
_space_group_symop_operation_xyz
x,y,z
-x,-y,z
x,-y,-z
-x,y,-z
-x,-y,-z
x,y,-z
-x,y,z
x,-y,z
1/2+x,1/2+y,z
1/2-x,1/2-y,z
1/2+x,1/2-y,-z
1/2-x,1/2+y,-z
1/2-x,1/2-y,-z
1/2+x,1/2+y,-z
1/2-x,1/2+y,z
1/2+x,1/2-y,z
loop_
_atom_site_type_symbol
_atom_site_label
_atom_site_fract_x
_atom_site_fract_y
_atom_site_fract_z
Si Si1 0.208402 0.164900 0.373644
Si Si2 0.693065 0.000000 0.374687
Si Si3 0.913015 0.500000 0.822102
Si Si4 0.912736 0.825640 0.000000
Si Si5 0.085176 0.899740 0.773284
Si Si6 0.912600 0.366656 0.000000
O O1 0.188530 0.172458 0.500000
O O2 0.250000 0.250000 0.332227
O O3 0.131049 0.156483 0.311899
O O4 0.258851 0.083317 0.348350
O O5 0.622608 0.000000 0.296898
O O6 0.665789 0.000000 0.500000
O O7 0.886936 0.583692 0.890777
O O8 0.000000 0.500000 0.804017
O O9 0.885923 0.877724 0.105691
O O10 0.878774 0.729262 0.000000
O O11 0.000000 0.820024 0.000000
O O12 0.000000 0.873684 0.759051
O O13 0.097350 0.000000 0.750309
O O14 0.000000 0.364418 0.000000
#
# Coordination Sequence:
#
# PCOD8272331 Si02
#       6
#    16   8   8   8  16   8
#     4  10  22  40  58  79 112 151 186 226 284 341
#     4  10  21  38  57  78 112 150 180 229 291 336
#     4   9  18  33  55  80 108 143 189 227 261 321
#     4   9  18  32  53  81 114 143 174 222 285 333
#     4  10  20  36  60  86 112 144 185 233 280 333
#     4   8  16  32  52  77 109 146 179 223 274 319
#
# _framework density 18.486906999999999
#
# number of rings (size 3 to 8) (size 9 to 14) (size 15 to 20)
#    0.000    2.500    1.250    1.125    3.500    2.250 
#    0.000    4.375    0.000    4.500    0.000    0.000 
#    0.000    0.000    0.000    0.000    0.000    0.000 
#
# Total GULP energy -396806.928956 kJ/mol
# GULP energy per Si atom -12400.216530 kJ/mol
# Density = 1.844483 g / cm^3
# Si number density = 18.486907 Si / 1000 Ang^3
#
#
#
# Elastic Constant Matrix: (Units=GPa)
#
#
# Indices 1 2 3 4 5 6 
#
# 1 78.1023 46.5296 65.5173 0.0000 0.0000 0.0000
# 2 46.5296 116.7533 38.7071 0.0000 0.0000 0.0000
# 3 65.5173 38.7071 108.5548 0.0000 0.0000 0.0000
# 4 0.0000 0.0000 0.0000 10.7781 0.0000 0.0000
# 5 0.0000 0.0000 0.0000 0.0000 23.8124 0.0000
# 6 0.0000 0.0000 0.0000 0.0000 0.0000 23.8616
#
#
#
# Elastic Compliance Matrix: (Units=1/GPa)
#
#
# Indices 1 2 3 4 5 6 
#
# 1 0.029988 -0.006749 -0.015693 0.000000 0.000000 0.000000
# 2 -0.006749 0.011232 0.000068 0.000000 0.000000 0.000000
# 3 -0.015693 0.000068 0.018659 0.000000 0.000000 0.000000
# 4 0.000000 0.000000 0.000000 0.092781 0.000000 0.000000
# 5 0.000000 0.000000 0.000000 0.000000 0.041995 0.000000
# 6 0.000000 0.000000 0.000000 0.000000 0.000000 0.041908
#
#
# Mechanical properties :
#
#
# Convention : Reuss Voigt Hill
#
# Bulk Modulus (GPa) = 66.08267 67.21314 66.64791
# Shear Modulus (GPa) = 17.46087 21.86751 19.66419
#
# Velocity S-wave (km/s) = 3.07660 3.44301 3.26495
# Velocity P-wave (km/s) = 6.96017 7.22785 7.09527
#
# Compressibility (1/GPa) = 0.01513256
#
# Stress axis : x y z
#
# Youngs Moduli (GPa) = 33.34614 89.03129 53.59344
#
# Poissons Ratio (x) = 0.60084 0.84104
# Poissons Ratio (y) = 0.22504 -0.00365
# Poissons Ratio (z) = 0.52330 -0.00606
#
# Static dielectric constant tensor:
#      x y z
#    x 3.045510 0.000000 0.000000 
#    y 0.000000 3.688750 0.000000 
#    z 0.000000 0.000000 3.422100 
# 
# 
# High freq. dielectric constant tensor:
#      x y z
#    x 1.687340 0.000000 0.000000 
#    y 0.000000 1.729520 0.000000 
#    z 0.000000 0.000000 1.720010 
# 
# From -- ./inp_files/24005.got.cif
#   From: 2010.03.12/outbox.cif.g09.slc.cpg/sg65_13_cif.got.tgz:24005.got - 2010.04.10 20:52:16.
