data_PCOD8272048
_publ_section_title
;
Structure prediction by ZEFSAII (Michael W. Deem and Ramdas Pophale) SiO2 
 PCOD8272048
Probable space group: C M M M
;
_chemical_formula_sum "Si O2"
_cell_formula_units_Z 64
_cell_length_a 17.926061
_cell_length_b 9.675868
_cell_length_c 19.001424
_cell_angle_alpha 90.000000
_cell_angle_beta 90.000000
_cell_angle_gamma 90.000000
_cell_volume 3295.800793
_symmetry_space_group_name_H-M "C M M M"
_symmetry_group_IT_number 65
_symmetry_cell_setting 'orthorhombic'
loop_
_space_group_symop_operation_xyz
x,y,z
-x,-y,z
x,-y,-z
-x,y,-z
-x,-y,-z
x,y,-z
-x,y,z
x,-y,z
1/2+x,1/2+y,z
1/2-x,1/2-y,z
1/2+x,1/2-y,-z
1/2-x,1/2+y,-z
1/2-x,1/2-y,-z
1/2+x,1/2+y,-z
1/2-x,1/2+y,z
1/2+x,1/2-y,z
loop_
_atom_site_type_symbol
_atom_site_label
_atom_site_fract_x
_atom_site_fract_y
_atom_site_fract_z
Si Si1 0.911361 0.000000 0.923058
Si Si2 0.088396 0.754992 0.170770
Si Si3 0.413656 0.843552 0.582368
Si Si4 0.673367 0.331724 0.689899
Si Si5 0.911243 0.500000 0.080401
O O1 0.881862 0.128566 0.880570
O O2 0.000000 0.000000 0.929296
O O3 0.874767 0.000000 0.000000
O O4 0.122968 0.778100 0.246593
O O5 0.118025 0.623931 0.128335
O O6 0.000000 0.753145 0.181392
O O7 0.399222 0.826834 0.500000
O O8 0.500000 0.820038 0.600854
O O9 0.365834 0.723740 0.619308
O O10 0.390267 0.000000 0.605959
O O11 0.681815 0.500000 0.687891
O O12 0.750000 0.250000 0.697695
O O13 0.000000 0.500000 0.073927
O O14 0.878779 0.500000 0.000000
#
# Coordination Sequence:
#
# PCOD8272048 Si02
#       5
#     8  16  16  16   8
#     4   9  16  30  55  85 114 143 186 247 305 352
#     4  10  20  35  58  87 116 151 195 245 298 355
#     4   9  20  41  69  98 125 154 191 237 291 351
#     4  12  26  41  59  85 121 164 206 247 293 349
#     4   9  18  32  55  89 120 147 188 243 301 358
#
# _framework density 19.41865
#
# number of rings (size 3 to 8) (size 9 to 14) (size 15 to 20)
#    0.000    2.000    1.250    3.000    3.500    5.500 
#    0.000    1.250    0.000    4.500    0.000    0.000 
#    0.000    0.000    0.000    0.000    0.000    0.000 
#
# Total GULP energy -396492.852360 kJ/mol
# GULP energy per Si atom -12390.401636 kJ/mol
# Density = 1.937445 g / cm^3
# Si number density = 19.418650 Si / 1000 Ang^3
#
#
#
# Elastic Constant Matrix: (Units=GPa)
#
#
# Indices 1 2 3 4 5 6 
#
# 1 57.0057 43.9904 37.5490 0.0000 0.0000 0.0000
# 2 43.9904 180.2467 65.3239 0.0000 0.0000 0.0000
# 3 37.5490 65.3239 108.7693 0.0000 0.0000 0.0000
# 4 0.0000 0.0000 0.0000 -319.1778 0.0000 0.0000
# 5 0.0000 0.0000 0.0000 0.0000 -3.2111 0.0000
# 6 0.0000 0.0000 0.0000 0.0000 0.0000 29.1615
#
#
#
# Elastic Compliance Matrix: (Units=1/GPa)
#
#
# Indices 1 2 3 4 5 6 
#
# 1 0.024520 -0.003728 -0.006226 0.000000 0.000000 0.000000
# 2 -0.003728 0.007658 -0.003312 0.000000 0.000000 0.000000
# 3 -0.006226 -0.003312 0.013332 0.000000 0.000000 0.000000
# 4 0.000000 0.000000 0.000000 -0.003133 0.000000 0.000000
# 5 0.000000 0.000000 0.000000 0.000000 -0.311415 0.000000
# 6 0.000000 0.000000 0.000000 0.000000 0.000000 0.034292
#
#
# Mechanical properties :
#
#
# Convention : Reuss Voigt Hill
#
# Bulk Modulus (GPa) = 52.69203 71.08314 61.88758
# Shear Modulus (GPa) = -24.76621 -45.36826 -35.06723
#
# Velocity S-wave (km/s) = -3.57512 -4.83880 -4.25414
# Velocity P-wave (km/s) = 3.18616 2.33804 2.79447
#
# Compressibility (1/GPa) = 0.01897820
#
# Stress axis : x y z
#
# Youngs Moduli (GPa) = 40.78349 130.57856 75.00560
#
# Poissons Ratio (x) = 0.48678 0.46697
# Poissons Ratio (y) = 0.15204 0.24845
# Poissons Ratio (z) = 0.25391 0.43253
#
# Static dielectric constant tensor:
#      x y z
#    x 3.240070 0.000000 0.000000 
#    y 0.000000 3.935390 0.000000 
#    z 0.000000 0.000000 3.718010 
# 
# 
# High freq. dielectric constant tensor:
#      x y z
#    x 1.721230 0.000000 0.000000 
#    y 0.000000 1.771430 0.000000 
#    z 0.000000 0.000000 1.773540 
# 
# From -- ./inp_files/55307.got.cif
#   From: 2010.03.12/outbox.cif.g09.slc.cpg/sg65_28_cif.got.tgz:55307.got - 2010.04.10 20:52:16.
