data_PCOD8272786
_publ_section_title
;
Structure prediction by ZEFSAII (Michael W. Deem and Ramdas Pophale) SiO2 
 PCOD8272786
Probable space group: C M M M
;
_chemical_formula_sum "Si O2"
_cell_formula_units_Z 72
_cell_length_a 14.998914
_cell_length_b 29.051044
_cell_length_c 9.109356
_cell_angle_alpha 90.000000
_cell_angle_beta 90.000000
_cell_angle_gamma 90.000000
_cell_volume 3969.257134
_symmetry_space_group_name_H-M "C M M M"
_symmetry_group_IT_number 65
_symmetry_cell_setting 'orthorhombic'
loop_
_space_group_symop_operation_xyz
x,y,z
-x,-y,z
x,-y,-z
-x,y,-z
-x,-y,-z
x,y,-z
-x,y,z
x,-y,z
1/2+x,1/2+y,z
1/2-x,1/2-y,z
1/2+x,1/2-y,-z
1/2-x,1/2+y,-z
1/2-x,1/2-y,-z
1/2+x,1/2+y,-z
1/2-x,1/2+y,z
1/2+x,1/2-y,z
loop_
_atom_site_type_symbol
_atom_site_label
_atom_site_fract_x
_atom_site_fract_y
_atom_site_fract_z
Si Si1 0.193853 0.946396 0.171793
Si Si2 0.103385 0.198391 0.171556
Si Si3 0.500000 0.450109 0.172849
Si Si4 0.398450 0.791586 0.668560
Si Si5 0.747238 0.362176 0.328002
O O1 0.260365 0.913827 0.263401
O O2 0.094180 0.926732 0.214665
O O3 0.205631 0.000000 0.216348
O O4 0.212897 0.940288 0.000000
O O5 0.128694 0.248833 0.230446
O O6 0.162206 0.161035 0.253452
O O7 0.000000 0.187101 0.203671
O O8 0.124675 0.196618 0.000000
O O9 0.500000 0.500000 0.248888
O O10 0.500000 0.457220 0.000000
O O11 0.383655 0.776527 0.500000
O O12 0.500000 0.806927 0.697168
O O13 0.336809 0.834531 0.710891
O O14 0.730347 0.364932 0.500000
#
# Coordination Sequence:
#
# PCOD8272786 Si02
#       5
#    16  16   8  16  16
#     4   9  18  33  52  73 100 135 172 209 250 297
#     4  10  21  35  52  76 106 138 170 205 247 300
#     4   7  12  26  47  67  89 123 163 197 233 283
#     4   9  19  37  56  73  99 135 172 211 257 304
#     4  11  22  33  51  78 105 134 169 211 256 302
#
# _framework density 18.139413000000001
#
# number of rings (size 3 to 8) (size 9 to 14) (size 15 to 20)
#    0.000    2.556    0.000    3.333    1.556    6.222 
#    0.000    0.000    0.000    2.667    0.000    4.667 
#    0.000    0.000    0.000    0.000    0.000    0.000 
#
# Total GULP energy -446185.642826 kJ/mol
# GULP energy per Si atom -12394.045634 kJ/mol
# Density = 1.809813 g / cm^3
# Si number density = 18.139413 Si / 1000 Ang^3
#
#
#
# Elastic Constant Matrix: (Units=GPa)
#
#
# Indices 1 2 3 4 5 6 
#
# 1 62.6998 58.6912 40.4563 0.0000 0.0000 0.0000
# 2 58.6912 121.8891 60.6909 0.0000 0.0000 0.0000
# 3 40.4563 60.6909 80.2834 0.0000 0.0000 0.0000
# 4 0.0000 0.0000 0.0000 28.3681 0.0000 0.0000
# 5 0.0000 0.0000 0.0000 0.0000 22.8153 0.0000
# 6 0.0000 0.0000 0.0000 0.0000 0.0000 23.7228
#
#
#
# Elastic Compliance Matrix: (Units=1/GPa)
#
#
# Indices 1 2 3 4 5 6 
#
# 1 0.031329 -0.011585 -0.007029 0.000000 0.000000 0.000000
# 2 -0.011585 0.017441 -0.007346 0.000000 0.000000 0.000000
# 3 -0.007029 -0.007346 0.021552 0.000000 0.000000 0.000000
# 4 0.000000 0.000000 0.000000 0.035251 0.000000 0.000000
# 5 0.000000 0.000000 0.000000 0.000000 0.043830 0.000000
# 6 0.000000 0.000000 0.000000 0.000000 0.000000 0.042154
#
#
# Mechanical properties :
#
#
# Convention : Reuss Voigt Hill
#
# Bulk Modulus (GPa) = 54.34948 64.94991 59.64969
# Shear Modulus (GPa) = 20.03113 21.98348 21.00731
#
# Velocity S-wave (km/s) = 3.32669 3.48504 3.40678
# Velocity P-wave (km/s) = 6.69201 7.21649 6.95919
#
# Compressibility (1/GPa) = 0.01839944
#
# Stress axis : x y z
#
# Youngs Moduli (GPa) = 31.91888 57.33764 46.40046
#
# Poissons Ratio (x) = 0.66428 0.32617
# Poissons Ratio (y) = 0.36980 0.34087
# Poissons Ratio (z) = 0.22437 0.42121
#
# Static dielectric constant tensor:
#      x y z
#    x 3.382020 0.000000 0.000000 
#    y 0.000000 3.364370 0.000000 
#    z 0.000000 0.000000 3.283060 
# 
# 
# High freq. dielectric constant tensor:
#      x y z
#    x 1.686450 0.000000 0.000000 
#    y 0.000000 1.701620 0.000000 
#    z 0.000000 0.000000 1.694080 
# 
# From -- ./inp_files/7642.got.cif
#   From: 2010.03.12/outbox.cif.g09.slc.cpg/sg65_4_cif.got.tgz:7642.got - 2010.04.10 20:52:16.
