data_PCOD8272034
_publ_section_title
;
Structure prediction by ZEFSAII (Michael W. Deem and Ramdas Pophale) SiO2 
 PCOD8272034
Probable space group: C M M M
;
_chemical_formula_sum "Si O2"
_cell_formula_units_Z 72
_cell_length_a 8.943608
_cell_length_b 23.299589
_cell_length_c 17.292859
_cell_angle_alpha 90.000000
_cell_angle_beta 90.000000
_cell_angle_gamma 90.000000
_cell_volume 3603.527298
_symmetry_space_group_name_H-M "C M M M"
_symmetry_group_IT_number 65
_symmetry_cell_setting 'orthorhombic'
loop_
_space_group_symop_operation_xyz
x,y,z
-x,-y,z
x,-y,-z
-x,y,-z
-x,-y,-z
x,y,-z
-x,y,z
x,-y,z
1/2+x,1/2+y,z
1/2-x,1/2-y,z
1/2+x,1/2-y,-z
1/2-x,1/2+y,-z
1/2-x,1/2-y,-z
1/2+x,1/2+y,-z
1/2-x,1/2+y,z
1/2+x,1/2-y,z
loop_
_atom_site_type_symbol
_atom_site_label
_atom_site_fract_x
_atom_site_fract_y
_atom_site_fract_z
Si Si1 0.326139 0.884552 0.090787
Si Si2 0.675393 0.310862 0.500000
Si Si3 0.668338 0.500000 0.091824
Si Si4 0.176822 0.500000 0.588650
Si Si5 0.824558 0.809666 0.212061
Si Si6 0.174301 0.112873 0.357596
O O1 0.500000 0.885693 0.111777
O O2 0.246565 0.831072 0.131836
O O3 0.253654 0.943659 0.121698
O O4 0.299287 0.876724 0.000000
O O5 0.500000 0.301313 0.500000
O O6 0.750000 0.250000 0.500000
O O7 0.729550 0.344925 0.575160
O O8 0.500000 0.500000 0.125657
O O9 0.665661 0.500000 0.000000
O O10 0.238027 0.500000 0.500000
O O11 0.234103 0.554539 0.636058
O O12 0.000000 0.500000 0.588572
O O13 0.750000 0.750000 0.237160
O O14 0.789420 0.857213 0.276501
O O15 0.000000 0.799796 0.201060
O O16 0.000000 0.098515 0.366687
#
# Coordination Sequence:
#
# PCOD8272034 Si02
#       6
#    16   8   8   8  16  16
#     4  10  21  38  61  88 119 159 204 250 304 362
#     4  10  20  35  58  85 113 150 192 232 279 338
#     4   9  17  32  57  88 119 149 187 240 296 353
#     4  11  23  38  61  94 124 154 196 247 296 344
#     4  11  24  41  61  87 119 157 202 251 304 359
#     4  10  22  40  62  86 117 158 196 236 293 356
#
# _framework density 19.980422000000001
#
# number of rings (size 3 to 8) (size 9 to 14) (size 15 to 20)
#    0.000    1.778    1.111    2.667    0.000    7.111 
#    0.000    1.111    0.000    0.000    0.000    0.000 
#    0.000    0.000    0.000    0.000    0.000    0.000 
#
# Total GULP energy -446597.180721 kJ/mol
# GULP energy per Si atom -12405.477242 kJ/mol
# Density = 1.993495 g / cm^3
# Si number density = 19.980422 Si / 1000 Ang^3
#
#
#
# Elastic Constant Matrix: (Units=GPa)
#
#
# Indices 1 2 3 4 5 6 
#
# 1 119.7753 74.2208 53.3036 0.0000 0.0000 0.0000
# 2 74.2208 153.7195 48.8809 0.0000 0.0000 0.0000
# 3 53.3036 48.8809 76.3309 0.0000 0.0000 0.0000
# 4 0.0000 0.0000 0.0000 51.9429 0.0000 0.0000
# 5 0.0000 0.0000 0.0000 0.0000 25.7514 0.0000
# 6 0.0000 0.0000 0.0000 0.0000 0.0000 45.4359
#
#
#
# Elastic Compliance Matrix: (Units=1/GPa)
#
#
# Indices 1 2 3 4 5 6 
#
# 1 0.014404 -0.004717 -0.007038 0.000000 0.000000 0.000000
# 2 -0.004717 0.009713 -0.002926 0.000000 0.000000 0.000000
# 3 -0.007038 -0.002926 0.019890 0.000000 0.000000 0.000000
# 4 0.000000 0.000000 0.000000 0.019252 0.000000 0.000000
# 5 0.000000 0.000000 0.000000 0.000000 0.038833 0.000000
# 6 0.000000 0.000000 0.000000 0.000000 0.000000 0.022009
#
#
# Mechanical properties :
#
#
# Convention : Reuss Voigt Hill
#
# Bulk Modulus (GPa) = 68.28493 78.07067 73.17780
# Shear Modulus (GPa) = 31.57671 36.18742 33.88206
#
# Velocity S-wave (km/s) = 3.97971 4.26037 4.12243
# Velocity P-wave (km/s) = 7.44094 7.95986 7.70477
#
# Compressibility (1/GPa) = 0.01464452
#
# Stress axis : x y z
#
# Youngs Moduli (GPa) = 69.42581 102.95183 50.27707
#
# Poissons Ratio (x) = 0.48559 0.35386
# Poissons Ratio (y) = 0.32746 0.14713
# Poissons Ratio (z) = 0.48863 0.30129
#
# Static dielectric constant tensor:
#      x y z
#    x 3.656650 0.000000 0.000000 
#    y 0.000000 3.549930 0.000000 
#    z 0.000000 0.000000 3.570030 
# 
# 
# High freq. dielectric constant tensor:
#      x y z
#    x 1.784520 0.000000 0.000000 
#    y 0.000000 1.788800 0.000000 
#    z 0.000000 0.000000 1.775420 
# 
# From -- ./inp_files/36712.got.cif
#   From: 2010.03.12/outbox.cif.g09.slc.cpg/sg65_19_cif.got.tgz:36712.got - 2010.04.10 20:52:16.
