data_PCOD8272113
_publ_section_title
;
Structure prediction by ZEFSAII (Michael W. Deem and Ramdas Pophale) SiO2 
 PCOD8272113
Probable space group: C M M M
;
_chemical_formula_sum "Si O2"
_cell_formula_units_Z 104
_cell_length_a 22.320931
_cell_length_b 18.540016
_cell_length_c 13.581518
_cell_angle_alpha 90.000000
_cell_angle_beta 90.000000
_cell_angle_gamma 90.000000
_cell_volume 5620.445269
_symmetry_space_group_name_H-M "C M M M"
_symmetry_group_IT_number 65
_symmetry_cell_setting 'orthorhombic'
loop_
_space_group_symop_operation_xyz
x,y,z
-x,-y,z
x,-y,-z
-x,y,-z
-x,-y,-z
x,y,-z
-x,y,z
x,-y,z
1/2+x,1/2+y,z
1/2-x,1/2-y,z
1/2+x,1/2-y,-z
1/2-x,1/2+y,-z
1/2-x,1/2-y,-z
1/2+x,1/2+y,-z
1/2-x,1/2+y,z
1/2+x,1/2-y,z
loop_
_atom_site_type_symbol
_atom_site_label
_atom_site_fract_x
_atom_site_fract_y
_atom_site_fract_z
Si Si1 0.115647 0.660375 0.886820
Si Si2 0.430294 0.702703 0.203118
Si Si3 0.726967 0.917880 0.200018
Si Si4 0.838558 0.581338 0.389304
Si Si5 0.000000 0.581355 0.882250
Si Si6 0.568436 0.205094 0.611657
Si Si7 0.354136 0.584460 0.115223
O O1 0.107254 0.744956 0.868273
O O2 0.178102 0.634104 0.845582
O O3 0.058903 0.619684 0.837232
O O4 0.116411 0.641942 0.000000
O O5 0.500000 0.704927 0.175560
O O6 0.419274 0.726794 0.316551
O O7 0.405760 0.623261 0.178881
O O8 0.719470 0.911255 0.318450
O O9 0.791420 0.891364 0.163814
O O10 0.716009 0.000000 0.164162
O O11 0.816273 0.597165 0.500000
O O12 0.865124 0.500000 0.380768
O O13 0.890041 0.637675 0.357458
O O14 0.000000 0.500000 0.845002
O O15 0.000000 0.587085 0.000000
O O16 0.582190 0.230441 0.500000
O O17 0.500000 0.178744 0.621712
O O18 0.365225 0.500000 0.128695
O O19 0.355471 0.605962 0.000000
#
# Coordination Sequence:
#
# PCOD8272113 Si02
#       7
#    16  16  16  16   8  16  16
#     4  11  20  31  49  76 109 147 185 221 269 324
#     4  11  22  38  59  83 112 143 180 233 290 340
#     4  10  20  36  55  78 112 151 188 228 274 327
#     4   9  17  31  53  81 114 152 193 234 272 316
#     4   9  18  30  44  68 104 146 188 219 252 314
#     4   9  18  34  55  80 113 151 189 229 276 328
#     4  10  23  42  62  83 107 141 187 237 288 343
#
# _framework density 18.503872000000001
#
# number of rings (size 3 to 8) (size 9 to 14) (size 15 to 20)
#    0.000    2.077    2.308    1.385    0.000    3.692 
#    0.000    4.615    0.000    3.231    0.000    2.154 
#    0.000    0.000    0.000    0.000    0.000    0.000 
#
# Total GULP energy -644692.031742 kJ/mol
# GULP energy per Si atom -12397.923687 kJ/mol
# Density = 1.846176 g / cm^3
# Si number density = 18.503872 Si / 1000 Ang^3
#
#
#
# Elastic Constant Matrix: (Units=GPa)
#
#
# Indices 1 2 3 4 5 6 
#
# 1 83.1400 47.9338 43.9093 0.0000 0.0000 0.0000
# 2 47.9338 78.9688 38.3670 0.0000 0.0000 0.0000
# 3 43.9093 38.3670 93.6973 0.0000 0.0000 0.0000
# 4 0.0000 0.0000 0.0000 28.3684 0.0000 0.0000
# 5 0.0000 0.0000 0.0000 0.0000 27.3483 0.0000
# 6 0.0000 0.0000 0.0000 0.0000 0.0000 33.7110
#
#
#
# Elastic Compliance Matrix: (Units=1/GPa)
#
#
# Indices 1 2 3 4 5 6 
#
# 1 0.020670 -0.009788 -0.005679 0.000000 0.000000 0.000000
# 2 -0.009788 0.020443 -0.003784 0.000000 0.000000 0.000000
# 3 -0.005679 -0.003784 0.014883 0.000000 0.000000 0.000000
# 4 0.000000 0.000000 0.000000 0.035250 0.000000 0.000000
# 5 0.000000 0.000000 0.000000 0.000000 0.036565 0.000000
# 6 0.000000 0.000000 0.000000 0.000000 0.000000 0.029664
#
#
# Mechanical properties :
#
#
# Convention : Reuss Voigt Hill
#
# Bulk Modulus (GPa) = 57.15837 57.35847 57.25842
# Shear Modulus (GPa) = 24.77591 26.25858 25.51725
#
# Velocity S-wave (km/s) = 3.66315 3.77116 3.71755
# Velocity P-wave (km/s) = 6.98917 7.07302 7.03122
#
# Compressibility (1/GPa) = 0.01749525
#
# Stress axis : x y z
#
# Youngs Moduli (GPa) = 48.37916 48.91697 67.18880
#
# Poissons Ratio (x) = 0.47878 0.38155
# Poissons Ratio (y) = 0.47352 0.25425
# Poissons Ratio (z) = 0.27473 0.18511
#
# Static dielectric constant tensor:
#      x y z
#    x 3.286040 0.000000 0.000000 
#    y 0.000000 3.255470 0.000000 
#    z 0.000000 0.000000 3.585010 
# 
# 
# High freq. dielectric constant tensor:
#      x y z
#    x 1.702410 0.000000 0.000000 
#    y 0.000000 1.702210 0.000000 
#    z 0.000000 0.000000 1.727050 
# 
# From -- ./inp_files/44400.got.cif
#   From: 2010.03.12/outbox.cif.g09.slc.cpg/sg65_23_cif.got.tgz:44400.got - 2010.04.10 20:52:16.
