data_PCOD8272058
_publ_section_title
;
Structure prediction by ZEFSAII (Michael W. Deem and Ramdas Pophale) SiO2 
 PCOD8272058
Probable space group: C M M M
;
_chemical_formula_sum "Si O2"
_cell_formula_units_Z 88
_cell_length_a 28.544176
_cell_length_b 8.778757
_cell_length_c 17.515082
_cell_angle_alpha 90.000000
_cell_angle_beta 90.000000
_cell_angle_gamma 90.000000
_cell_volume 4388.971019
_symmetry_space_group_name_H-M "C M M M"
_symmetry_group_IT_number 65
_symmetry_cell_setting 'orthorhombic'
loop_
_space_group_symop_operation_xyz
x,y,z
-x,-y,z
x,-y,-z
-x,y,-z
-x,-y,-z
x,y,-z
-x,y,z
x,-y,z
1/2+x,1/2+y,z
1/2-x,1/2-y,z
1/2+x,1/2-y,-z
1/2-x,1/2+y,-z
1/2-x,1/2-y,-z
1/2+x,1/2+y,-z
1/2-x,1/2+y,z
1/2+x,1/2-y,z
loop_
_atom_site_type_symbol
_atom_site_label
_atom_site_fract_x
_atom_site_fract_y
_atom_site_fract_z
Si Si1 0.701307 0.820545 0.412502
Si Si2 0.892481 0.178038 0.088651
Si Si3 0.054203 0.322484 0.781110
Si Si4 0.890082 0.820020 0.645137
Si Si5 0.796574 0.328819 0.090737
Si Si6 0.447593 0.318862 0.500000
O O1 0.691387 0.771139 0.500000
O O2 0.750000 0.750000 0.383935
O O3 0.660791 0.755867 0.358505
O O4 0.704026 0.000000 0.403740
O O5 0.932423 0.269325 0.133792
O O6 0.841495 0.232644 0.117281
O O7 0.897063 0.000000 0.105164
O O8 0.899849 0.216607 0.000000
O O9 0.064943 0.500000 0.770966
O O10 0.085112 0.225552 0.723088
O O11 0.000000 0.285634 0.766641
O O12 0.921181 0.757821 0.574862
O O13 0.884130 0.000000 0.641303
O O14 0.800461 0.500000 0.123391
O O15 0.750000 0.250000 0.124714
O O16 0.793432 0.332166 0.000000
O O17 0.449302 0.500000 0.500000
O O18 0.500000 0.250797 0.500000
#
# Coordination Sequence:
#
# PCOD8272058 Si02
#       6
#    16  16  16  16  16   8
#     4  10  20  35  58  88 124 162 203 245 291 347
#     4  10  21  38  61  88 116 150 197 249 301 360
#     4  11  25  43  61  84 117 156 197 245 304 362
#     4  11  21  37  61  88 121 157 198 244 295 351
#     4   9  16  28  50  81 116 151 186 227 279 340
#     4   9  18  32  54  85 116 149 192 239 284 337
#
# _framework density 20.050256999999998
#
# number of rings (size 3 to 8) (size 9 to 14) (size 15 to 20)
#    0.000    1.909    0.909    3.273    0.000    6.545 
#    0.000    2.727    0.000    2.182    0.000    0.000 
#    0.000    0.000    0.000    0.000    0.000    0.000 
#
# Total GULP energy -545807.262136 kJ/mol
# GULP energy per Si atom -12404.710503 kJ/mol
# Density = 2.000462 g / cm^3
# Si number density = 20.050257 Si / 1000 Ang^3
#
#
#
# Elastic Constant Matrix: (Units=GPa)
#
#
# Indices 1 2 3 4 5 6 
#
# 1 140.4988 47.9391 45.5540 0.0000 0.0000 0.0000
# 2 47.9391 80.8216 23.1193 0.0000 0.0000 0.0000
# 3 45.5540 23.1193 68.1833 0.0000 0.0000 0.0000
# 4 0.0000 0.0000 0.0000 27.3604 0.0000 0.0000
# 5 0.0000 0.0000 0.0000 0.0000 30.7617 0.0000
# 6 0.0000 0.0000 0.0000 0.0000 0.0000 35.8616
#
#
#
# Elastic Compliance Matrix: (Units=1/GPa)
#
#
# Indices 1 2 3 4 5 6 
#
# 1 0.010461 -0.004657 -0.005410 0.000000 0.000000 0.000000
# 2 -0.004657 0.015775 -0.002238 0.000000 0.000000 0.000000
# 3 -0.005410 -0.002238 0.019039 0.000000 0.000000 0.000000
# 4 0.000000 0.000000 0.000000 0.036549 0.000000 0.000000
# 5 0.000000 0.000000 0.000000 0.000000 0.032508 0.000000
# 6 0.000000 0.000000 0.000000 0.000000 0.000000 0.027885
#
#
# Mechanical properties :
#
#
# Convention : Reuss Voigt Hill
#
# Bulk Modulus (GPa) = 48.38760 58.08094 53.23427
# Shear Modulus (GPa) = 28.78277 30.32281 29.55279
#
# Velocity S-wave (km/s) = 3.79295 3.89310 3.84335
# Velocity P-wave (km/s) = 6.58540 7.01704 6.80465
#
# Compressibility (1/GPa) = 0.02066645
#
# Stress axis : x y z
#
# Youngs Moduli (GPa) = 95.59740 63.38990 52.52295
#
# Poissons Ratio (x) = 0.29522 0.28413
# Poissons Ratio (y) = 0.44521 0.11752
# Poissons Ratio (z) = 0.51715 0.14184
#
# Static dielectric constant tensor:
#      x y z
#    x 3.769320 0.000000 0.000000 
#    y 0.000000 3.605170 0.000000 
#    z 0.000000 0.000000 3.421990 
# 
# 
# High freq. dielectric constant tensor:
#      x y z
#    x 1.793610 0.000000 0.000000 
#    y 0.000000 1.786940 0.000000 
#    z 0.000000 0.000000 1.759580 
# 
# From -- ./inp_files/58006.got.cif
#   From: 2010.03.12/outbox.cif.g09.slc.cpg/sg65_30_cif.got.tgz:58006.got - 2010.04.10 20:52:16.
