data_PCOD8272080
_publ_section_title
;
Structure prediction by ZEFSAII (Michael W. Deem and Ramdas Pophale) SiO2 
 PCOD8272080
Probable space group: C M M M
;
_chemical_formula_sum "Si O2"
_cell_formula_units_Z 112
_cell_length_a 14.245386
_cell_length_b 25.459310
_cell_length_c 14.732733
_cell_angle_alpha 90.000000
_cell_angle_beta 90.000000
_cell_angle_gamma 90.000000
_cell_volume 5343.233693
_symmetry_space_group_name_H-M "C M M M"
_symmetry_group_IT_number 65
_symmetry_cell_setting 'orthorhombic'
loop_
_space_group_symop_operation_xyz
x,y,z
-x,-y,z
x,-y,-z
-x,y,-z
-x,-y,-z
x,y,-z
-x,y,z
x,-y,z
1/2+x,1/2+y,z
1/2-x,1/2-y,z
1/2+x,1/2-y,-z
1/2-x,1/2+y,-z
1/2-x,1/2-y,-z
1/2+x,1/2+y,-z
1/2-x,1/2+y,z
1/2+x,1/2-y,z
loop_
_atom_site_type_symbol
_atom_site_label
_atom_site_fract_x
_atom_site_fract_y
_atom_site_fract_z
Si Si1 0.103027 0.351770 0.655443
Si Si2 0.104981 0.440118 0.195117
Si Si3 0.644898 0.741878 0.730031
Si Si4 0.398557 0.683518 0.098162
Si Si5 0.808670 0.852080 0.601812
Si Si6 0.789872 0.917954 0.897630
Si Si7 0.893710 0.057958 0.721931
O O1 0.121672 0.399788 0.723338
O O2 0.094243 0.295385 0.703176
O O3 0.194864 0.348667 0.591780
O O4 0.000000 0.360746 0.607271
O O5 0.119927 0.500000 0.230606
O O6 0.178949 0.427020 0.116011
O O7 0.000000 0.433439 0.155037
O O8 0.750000 0.750000 0.761594
O O9 0.592485 0.724095 0.820333
O O10 0.644428 0.698885 0.648680
O O11 0.500000 0.653999 0.094918
O O12 0.314144 0.643205 0.116356
O O13 0.381507 0.711466 0.000000
O O14 0.849585 0.855772 0.500000
O O15 0.834501 0.903526 0.658656
O O16 0.848983 0.948643 0.821929
O O17 0.816222 0.936462 0.000000
O O18 0.000000 0.079198 0.729773
O O19 0.891932 0.000000 0.677457
#
# Coordination Sequence:
#
# PCOD8272080 Si02
#       7
#    16  16  16  16  16  16  16
#     4  10  21  38  64  94 123 159 206 260 313 367
#     4  10  21  39  62  88 123 167 210 250 299 359
#     4  10  20  37  61  89 125 164 205 257 308 365
#     4  10  20  35  59  90 126 168 207 248 303 367
#     4  11  24  42  64  90 123 164 207 255 316 378
#     4  11  21  36  62  95 126 162 207 250 299 360
#     4  11  24  42  64  91 125 163 206 257 307 362
#
# _framework density 20.961089999999999
#
# number of rings (size 3 to 8) (size 9 to 14) (size 15 to 20)
#    0.000    1.571    2.857    2.143    0.000    6.571 
#    0.000    2.857    0.000    0.857    0.000    3.000 
#    0.000    0.000    0.000    0.000    0.000    0.000 
#
# Total GULP energy -693839.581590 kJ/mol
# GULP energy per Si atom -12389.992528 kJ/mol
# Density = 2.091338 g / cm^3
# Si number density = 20.961090 Si / 1000 Ang^3
#
#
#
# Elastic Constant Matrix: (Units=GPa)
#
#
# Indices 1 2 3 4 5 6 
#
# 1 112.6072 26.0457 31.1681 0.0000 0.0000 0.0000
# 2 26.0457 124.4891 54.0150 0.0000 0.0000 0.0000
# 3 31.1681 54.0150 124.3145 0.0000 0.0000 0.0000
# 4 0.0000 0.0000 0.0000 3.3620 0.0000 0.0000
# 5 0.0000 0.0000 0.0000 0.0000 544.7376 0.0000
# 6 0.0000 0.0000 0.0000 0.0000 0.0000 30.5554
#
#
#
# Elastic Compliance Matrix: (Units=1/GPa)
#
#
# Indices 1 2 3 4 5 6 
#
# 1 0.009686 -0.001199 -0.001908 0.000000 0.000000 0.000000
# 2 -0.001199 0.010047 -0.004065 0.000000 0.000000 0.000000
# 3 -0.001908 -0.004065 0.010289 0.000000 0.000000 0.000000
# 4 0.000000 0.000000 0.000000 0.297443 0.000000 0.000000
# 5 0.000000 0.000000 0.000000 0.000000 0.001836 0.000000
# 6 0.000000 0.000000 0.000000 0.000000 0.000000 0.032727
#
#
# Mechanical properties :
#
#
# Convention : Reuss Voigt Hill
#
# Bulk Modulus (GPa) = 63.77954 64.87428 64.32691
# Shear Modulus (GPa) = 13.10283 132.40981 72.75632
#
# Velocity S-wave (km/s) = 2.50292 7.95654 5.89793
# Velocity P-wave (km/s) = 6.23269 10.74363 8.78271
#
# Compressibility (1/GPa) = 0.01567901
#
# Stress axis : x y z
#
# Youngs Moduli (GPa) = 103.24528 99.52759 97.19442
#
# Poissons Ratio (x) = 0.11931 0.18540
# Poissons Ratio (y) = 0.12377 0.39510
# Poissons Ratio (z) = 0.19694 0.40459
#
# Static dielectric constant tensor:
#      x y z
#    x 4.064150 0.000000 0.000000 
#    y 0.000000 3.801830 0.000000 
#    z 0.000000 0.000000 3.519300 
# 
# 
# High freq. dielectric constant tensor:
#      x y z
#    x 1.839830 0.000000 0.000000 
#    y 0.000000 1.818660 0.000000 
#    z 0.000000 0.000000 1.796200 
# 
# From -- ./inp_files/40756.got.cif
#   From: 2010.03.12/outbox.cif.g09.slc.cpg/sg65_21_cif.got.tgz:40756.got - 2010.04.10 20:52:16.
