data_PCOD8272916
_publ_section_title
;
Structure prediction by ZEFSAII (Michael W. Deem and Ramdas Pophale) SiO2 
 PCOD8272916
Probable space group: C M M M
;
_chemical_formula_sum "Si O2"
_cell_formula_units_Z 104
_cell_length_a 29.441814
_cell_length_b 8.671749
_cell_length_c 22.829590
_cell_angle_alpha 90.000000
_cell_angle_beta 90.000000
_cell_angle_gamma 90.000000
_cell_volume 5828.668764
_symmetry_space_group_name_H-M "C M M M"
_symmetry_group_IT_number 65
_symmetry_cell_setting 'orthorhombic'
loop_
_space_group_symop_operation_xyz
x,y,z
-x,-y,z
x,-y,-z
-x,y,-z
-x,-y,-z
x,y,-z
-x,y,z
x,-y,z
1/2+x,1/2+y,z
1/2-x,1/2-y,z
1/2+x,1/2-y,-z
1/2-x,1/2+y,-z
1/2-x,1/2-y,-z
1/2+x,1/2+y,-z
1/2-x,1/2+y,z
1/2+x,1/2-y,z
loop_
_atom_site_type_symbol
_atom_site_label
_atom_site_fract_x
_atom_site_fract_y
_atom_site_fract_z
Si Si1 0.446226 0.679259 0.372917
Si Si2 0.296664 0.826620 0.236057
Si Si3 0.450623 0.681698 0.500000
Si Si4 0.000000 0.682197 0.932468
Si Si5 0.103324 0.681241 0.266176
Si Si6 0.663072 0.176436 0.116065
Si Si7 0.073030 0.821272 0.152725
Si Si8 0.299066 0.316235 0.000000
O O1 0.500000 0.714700 0.367921
O O2 0.437000 0.500000 0.359301
O O3 0.427042 0.726002 0.438100
O O4 0.416912 0.783293 0.329511
O O5 0.250000 0.750000 0.259117
O O6 0.344353 0.755194 0.261139
O O7 0.297449 0.817739 0.165049
O O8 0.293629 0.000000 0.258758
O O9 0.457776 0.500000 0.500000
O O10 0.500000 0.761194 0.500000
O O11 0.956475 0.737902 0.896621
O O12 0.000000 0.500000 0.934668
O O13 0.000000 0.746000 0.000000
O O14 0.104390 0.500000 0.253256
O O15 0.068320 0.755853 0.218887
O O16 0.624567 0.291885 0.136743
O O17 0.677479 0.246517 0.055707
O O18 0.645879 0.000000 0.108488
O O19 0.059988 0.000000 0.152864
O O20 0.250000 0.250000 0.000000
O O21 0.300107 0.500000 0.000000
#
# Coordination Sequence:
#
# PCOD8272916 Si02
#       8
#    16  16   8   8  16  16  16   8
#     4   9  17  30  51  78 109 144 184 221 259 306
#     4   9  19  34  53  74  98 130 167 210 259 314
#     4   7  12  26  47  73 106 143 178 219 262 305
#     4  11  25  43  61  77  99 136 175 214 270 324
#     4  10  21  36  52  77 111 144 177 214 268 320
#     4  10  21  38  56  75 102 131 161 204 261 321
#     4  11  23  39  58  79 103 132 174 221 260 310
#     4  12  24  36  52  77 102 129 164 204 254 316
#
# _framework density 17.842839000000001
#
# number of rings (size 3 to 8) (size 9 to 14) (size 15 to 20)
#    0.000    2.154    0.000    5.538    2.154    5.846 
#    0.000    0.385    0.000    1.385    0.000    0.538 
#    0.000    0.000    0.000    0.000    0.000    0.000 
#
# Total GULP energy -644236.370703 kJ/mol
# GULP energy per Si atom -12389.160975 kJ/mol
# Density = 1.780223 g / cm^3
# Si number density = 17.842839 Si / 1000 Ang^3
#
#
#
# Elastic Constant Matrix: (Units=GPa)
#
#
# Indices 1 2 3 4 5 6 
#
# 1 69.0194 27.5496 40.5063 0.0000 0.0000 0.0000
# 2 27.5496 66.8655 35.1828 0.0000 0.0000 0.0000
# 3 40.5063 35.1828 132.6204 0.0000 0.0000 0.0000
# 4 0.0000 0.0000 0.0000 25.4200 0.0000 0.0000
# 5 0.0000 0.0000 0.0000 0.0000 13.0840 0.0000
# 6 0.0000 0.0000 0.0000 0.0000 0.0000 26.1917
#
#
#
# Elastic Compliance Matrix: (Units=1/GPa)
#
#
# Indices 1 2 3 4 5 6 
#
# 1 0.019328 -0.005645 -0.004406 0.000000 0.000000 0.000000
# 2 -0.005645 0.019030 -0.003324 0.000000 0.000000 0.000000
# 3 -0.004406 -0.003324 0.009768 0.000000 0.000000 0.000000
# 4 0.000000 0.000000 0.000000 0.039339 0.000000 0.000000
# 5 0.000000 0.000000 0.000000 0.000000 0.076429 0.000000
# 6 0.000000 0.000000 0.000000 0.000000 0.000000 0.038180
#
#
# Mechanical properties :
#
#
# Convention : Reuss Voigt Hill
#
# Bulk Modulus (GPa) = 46.78229 52.77583 49.77906
# Shear Modulus (GPa) = 21.19093 23.95691 22.57392
#
# Velocity S-wave (km/s) = 3.44996 3.66821 3.56076
# Velocity P-wave (km/s) = 6.49197 6.89807 6.69810
#
# Compressibility (1/GPa) = 0.02137561
#
# Stress axis : x y z
#
# Youngs Moduli (GPa) = 51.73955 52.54726 102.37666
#
# Poissons Ratio (x) = 0.29664 0.45103
# Poissons Ratio (y) = 0.29208 0.34034
# Poissons Ratio (z) = 0.22795 0.17469
#
# Static dielectric constant tensor:
#      x y z
#    x 3.226060 0.000000 0.000000 
#    y 0.000000 3.252720 0.000000 
#    z 0.000000 0.000000 3.422000 
# 
# 
# High freq. dielectric constant tensor:
#      x y z
#    x 1.673970 0.000000 0.000000 
#    y 0.000000 1.687790 0.000000 
#    z 0.000000 0.000000 1.687060 
# 
# From -- ./inp_files/71927.got.cif
#   From: 2010.03.12/outbox.cif.g09.slc.cpg/sg65_36_cif.got.tgz:71927.got - 2010.04.10 20:52:16.
