data_PCOD8272462
_publ_section_title
;
Structure prediction by ZEFSAII (Michael W. Deem and Ramdas Pophale) SiO2 
 PCOD8272462
Probable space group: C M M M
;
_chemical_formula_sum "Si O2"
_cell_formula_units_Z 80
_cell_length_a 7.661437
_cell_length_b 19.061526
_cell_length_c 29.050388
_cell_angle_alpha 90.000000
_cell_angle_beta 90.000000
_cell_angle_gamma 90.000000
_cell_volume 4242.480334
_symmetry_space_group_name_H-M "C M M M"
_symmetry_group_IT_number 65
_symmetry_cell_setting 'orthorhombic'
loop_
_space_group_symop_operation_xyz
x,y,z
-x,-y,z
x,-y,-z
-x,y,-z
-x,-y,-z
x,y,-z
-x,y,z
x,-y,z
1/2+x,1/2+y,z
1/2-x,1/2-y,z
1/2+x,1/2-y,-z
1/2-x,1/2+y,-z
1/2-x,1/2-y,-z
1/2+x,1/2+y,-z
1/2-x,1/2+y,z
1/2+x,1/2-y,z
loop_
_atom_site_type_symbol
_atom_site_label
_atom_site_fract_x
_atom_site_fract_y
_atom_site_fract_z
Si Si1 0.193281 0.916922 0.268153
Si Si2 0.705058 0.828206 0.449188
Si Si3 0.792687 0.421126 0.367191
Si Si4 0.000000 0.583961 0.899986
Si Si5 0.200676 0.828059 0.945803
Si Si6 0.500000 0.916578 0.794866
O O1 0.226137 0.886801 0.319418
O O2 0.329683 0.885950 0.231226
O O3 0.000000 0.895984 0.251332
O O4 0.218804 0.000000 0.270992
O O5 0.785077 0.844464 0.500000
O O6 0.500000 0.839435 0.451262
O O7 0.750000 0.750000 0.433968
O O8 0.786506 0.878806 0.410474
O O9 0.722180 0.500000 0.372253
O O10 0.000000 0.418964 0.366774
O O11 0.824695 0.614436 0.922583
O O12 0.000000 0.608984 0.847165
O O13 0.000000 0.500000 0.905673
O O14 0.250000 0.750000 0.928667
O O15 0.000000 0.844545 0.932685
O O16 0.231469 0.833381 0.000000
O O17 0.500000 0.000000 0.793426
#
# Coordination Sequence:
#
# PCOD8272462 Si02
#       6
#    16  16  16   8  16   8
#     4   9  16  28  49  74 100 134 176 217 262 322
#     4   9  18  31  46  66  93 128 163 195 245 313
#     4   9  16  28  48  72  96 123 162 214 259 298
#     4  11  23  36  57  92 127 155 194 253 304 339
#     4  10  20  37  62  88 116 160 209 241 283 354
#     4   9  18  33  50  75 113 149 177 218 279 333
#
# _framework density 18.856891999999998
#
# number of rings (size 3 to 8) (size 9 to 14) (size 15 to 20)
#    0.000    2.600    2.000    0.300    0.000    3.200 
#    0.000    5.000    0.000    1.200    0.000    5.600 
#    0.000    0.000    0.000    0.000    0.000    0.000 
#
# Total GULP energy -495844.912151 kJ/mol
# GULP energy per Si atom -12396.122804 kJ/mol
# Density = 1.881397 g / cm^3
# Si number density = 18.856892 Si / 1000 Ang^3
#
#
#
# Elastic Constant Matrix: (Units=GPa)
#
#
# Indices 1 2 3 4 5 6 
#
# 1 113.9777 35.4298 63.5922 0.0000 0.0000 0.0000
# 2 35.4298 70.5155 52.0537 0.0000 0.0000 0.0000
# 3 63.5922 52.0537 124.3425 0.0000 0.0000 0.0000
# 4 0.0000 0.0000 0.0000 6.7503 0.0000 0.0000
# 5 0.0000 0.0000 0.0000 0.0000 12.7975 0.0000
# 6 0.0000 0.0000 0.0000 0.0000 0.0000 22.7118
#
#
#
# Elastic Compliance Matrix: (Units=1/GPa)
#
#
# Indices 1 2 3 4 5 6 
#
# 1 0.012522 -0.002264 -0.005456 0.000000 0.000000 0.000000
# 2 -0.002264 0.020933 -0.007606 0.000000 0.000000 0.000000
# 3 -0.005456 -0.007606 0.014017 0.000000 0.000000 0.000000
# 4 0.000000 0.000000 0.000000 0.148142 0.000000 0.000000
# 5 0.000000 0.000000 0.000000 0.000000 0.078140 0.000000
# 6 0.000000 0.000000 0.000000 0.000000 0.000000 0.044030
#
#
# Mechanical properties :
#
#
# Convention : Reuss Voigt Hill
#
# Bulk Modulus (GPa) = 59.45157 67.88747 63.66952
# Shear Modulus (GPa) = 14.12266 18.96925 16.54595
#
# Velocity S-wave (km/s) = 2.73964 3.17513 2.96539
# Velocity P-wave (km/s) = 6.45010 7.03715 6.75001
#
# Compressibility (1/GPa) = 0.01682041
#
# Stress axis : x y z
#
# Youngs Moduli (GPa) = 79.86261 47.77171 71.34354
#
# Poissons Ratio (x) = 0.10813 0.38927
# Poissons Ratio (y) = 0.18078 0.54260
# Poissons Ratio (z) = 0.43575 0.36333
#
# Static dielectric constant tensor:
#      x y z
#    x 3.483640 0.000000 0.000000 
#    y 0.000000 3.161370 0.000000 
#    z 0.000000 0.000000 3.698780 
# 
# 
# High freq. dielectric constant tensor:
#      x y z
#    x 1.739190 0.000000 0.000000 
#    y 0.000000 1.689020 0.000000 
#    z 0.000000 0.000000 1.735520 
# 
# From -- ./inp_files/72953.got.cif
#   From: 2010.03.12/outbox.cif.g09.slc.cpg/sg65_37_cif.got.tgz:72953.got - 2010.04.10 20:52:16.
