data_PCOD8272349
_publ_section_title
;
Structure prediction by ZEFSAII (Michael W. Deem and Ramdas Pophale) SiO2 
 PCOD8272349
Probable space group: C M M M
;
_chemical_formula_sum "Si O2"
_cell_formula_units_Z 72
_cell_length_a 23.260649
_cell_length_b 19.019980
_cell_length_c 7.940442
_cell_angle_alpha 90.000000
_cell_angle_beta 90.000000
_cell_angle_gamma 90.000000
_cell_volume 3512.987154
_symmetry_space_group_name_H-M "C M M M"
_symmetry_group_IT_number 65
_symmetry_cell_setting 'orthorhombic'
loop_
_space_group_symop_operation_xyz
x,y,z
-x,-y,z
x,-y,-z
-x,y,-z
-x,-y,-z
x,y,-z
-x,y,z
x,-y,z
1/2+x,1/2+y,z
1/2-x,1/2-y,z
1/2+x,1/2-y,-z
1/2-x,1/2+y,-z
1/2-x,1/2-y,-z
1/2+x,1/2+y,-z
1/2-x,1/2+y,z
1/2+x,1/2-y,z
loop_
_atom_site_type_symbol
_atom_site_label
_atom_site_fract_x
_atom_site_fract_y
_atom_site_fract_z
Si Si1 0.433524 0.692788 0.800336
Si Si2 0.566669 0.076348 0.000000
Si Si3 0.755435 0.672157 0.306499
Si Si4 0.846132 0.077608 0.194639
Si Si5 0.887493 0.660943 0.689175
O O1 0.500000 0.685521 0.747237
O O2 0.399112 0.624119 0.734609
O O3 0.403878 0.757697 0.707022
O O4 0.427259 0.703761 0.000000
O O5 0.580340 0.116846 0.170653
O O6 0.500000 0.064789 0.000000
O O7 0.597633 0.000000 0.000000
O O8 0.736187 0.675575 0.500000
O O9 0.750000 0.750000 0.225366
O O10 0.714611 0.616554 0.215611
O O11 0.820315 0.646996 0.283033
O O12 0.845125 0.000000 0.281924
O O13 0.857407 0.066564 0.000000
O O14 0.905012 0.636700 0.500000
#
# Coordination Sequence:
#
# PCOD8272349 Si02
#       5
#    16   8  16  16  16
#     4  10  20  36  60  89 124 166 210 256 307 367
#     4  11  26  46  65  90 127 165 203 256 318 374
#     4  10  21  38  60  86 117 155 199 253 314 370
#     4  10  22  37  57  89 125 164 208 255 311 373
#     4  11  23  40  66  95 124 160 209 261 310 372
#
# _framework density 20.495379
#
# number of rings (size 3 to 8) (size 9 to 14) (size 15 to 20)
#    0.000    1.667    3.333    0.667    1.556    4.444 
#    0.000    5.556    0.000    0.000    0.000    3.111 
#    0.000    0.000    0.000    0.000    0.000    0.000 
#
# Total GULP energy -446345.259085 kJ/mol
# GULP energy per Si atom -12398.479419 kJ/mol
# Density = 2.044873 g / cm^3
# Si number density = 20.495379 Si / 1000 Ang^3
#
#
#
# Elastic Constant Matrix: (Units=GPa)
#
#
# Indices 1 2 3 4 5 6 
#
# 1 124.8675 56.1439 26.1820 0.0000 0.0000 0.0000
# 2 56.1439 162.9971 39.8901 0.0000 0.0000 0.0000
# 3 26.1820 39.8901 77.5469 0.0000 0.0000 0.0000
# 4 0.0000 0.0000 0.0000 3.8409 0.0000 0.0000
# 5 0.0000 0.0000 0.0000 0.0000 3.1062 0.0000
# 6 0.0000 0.0000 0.0000 0.0000 0.0000 29.2059
#
#
#
# Elastic Compliance Matrix: (Units=1/GPa)
#
#
# Indices 1 2 3 4 5 6 
#
# 1 0.009686 -0.002901 -0.001778 0.000000 0.000000 0.000000
# 2 -0.002901 0.007888 -0.003078 0.000000 0.000000 0.000000
# 3 -0.001778 -0.003078 0.015079 0.000000 0.000000 0.000000
# 4 0.000000 0.000000 0.000000 0.260358 0.000000 0.000000
# 5 0.000000 0.000000 0.000000 0.000000 0.321939 0.000000
# 6 0.000000 0.000000 0.000000 0.000000 0.000000 0.034240
#
#
# Mechanical properties :
#
#
# Convention : Reuss Voigt Hill
#
# Bulk Modulus (GPa) = 58.34795 67.76039 63.05417
# Shear Modulus (GPa) = 7.45807 23.44364 15.45086
#
# Velocity S-wave (km/s) = 1.90966 3.38575 2.74865
# Velocity P-wave (km/s) = 5.77867 6.95827 6.39572
#
# Compressibility (1/GPa) = 0.01713856
#
# Stress axis : x y z
#
# Youngs Moduli (GPa) = 103.24517 126.78121 66.31779
#
# Poissons Ratio (x) = 0.36781 0.11790
# Poissons Ratio (y) = 0.29953 0.20412
# Poissons Ratio (z) = 0.18355 0.39022
#
# Static dielectric constant tensor:
#      x y z
#    x 3.739090 0.000000 0.000000 
#    y 0.000000 4.029480 0.000000 
#    z 0.000000 0.000000 3.670280 
# 
# 
# High freq. dielectric constant tensor:
#      x y z
#    x 1.808340 0.000000 0.000000 
#    y 0.000000 1.801060 0.000000 
#    z 0.000000 0.000000 1.791950 
# 
# From -- ./inp_files/13571.got.cif
#   From: 2010.03.12/outbox.cif.g09.slc.cpg/sg65_7_cif.got.tgz:13571.got - 2010.04.10 20:52:16.
