data_PCOD8272362
_publ_section_title
;
Structure prediction by ZEFSAII (Michael W. Deem and Ramdas Pophale) SiO2 
 PCOD8272362
Probable space group: C M M M
;
_chemical_formula_sum "Si O2"
_cell_formula_units_Z 88
_cell_length_a 28.231602
_cell_length_b 8.880827
_cell_length_c 17.575848
_cell_angle_alpha 90.000000
_cell_angle_beta 90.000000
_cell_angle_gamma 90.000000
_cell_volume 4406.616141
_symmetry_space_group_name_H-M "C M M M"
_symmetry_group_IT_number 65
_symmetry_cell_setting 'orthorhombic'
loop_
_space_group_symop_operation_xyz
x,y,z
-x,-y,z
x,-y,-z
-x,y,-z
-x,-y,-z
x,y,-z
-x,y,z
x,-y,z
1/2+x,1/2+y,z
1/2-x,1/2-y,z
1/2+x,1/2-y,-z
1/2-x,1/2+y,-z
1/2-x,1/2-y,-z
1/2+x,1/2+y,-z
1/2-x,1/2+y,z
1/2+x,1/2-y,z
loop_
_atom_site_type_symbol
_atom_site_label
_atom_site_fract_x
_atom_site_fract_y
_atom_site_fract_z
Si Si1 0.700653 0.824873 0.411280
Si Si2 0.899427 0.178350 0.087266
Si Si3 0.945172 0.326170 0.775829
Si Si4 0.892690 0.821778 0.640022
Si Si5 0.794796 0.164746 0.090060
Si Si6 0.443891 0.172250 0.500000
O O1 0.689560 0.799034 0.500000
O O2 0.750000 0.750000 0.387958
O O3 0.660108 0.743413 0.363297
O O4 0.702394 0.000000 0.390546
O O5 0.936276 0.269872 0.138416
O O6 0.846159 0.236904 0.107980
O O7 0.903327 0.000000 0.101569
O O8 0.911612 0.215808 0.000000
O O9 0.930280 0.500000 0.766931
O O10 0.914347 0.222336 0.720800
O O11 0.000000 0.304693 0.755758
O O12 0.925301 0.753163 0.574705
O O13 0.891087 0.000000 0.630906
O O14 0.750000 0.250000 0.126991
O O15 0.793445 0.000000 0.126655
O O16 0.788558 0.154337 0.000000
O O17 0.500000 0.179767 0.500000
O O18 0.425659 0.000000 0.500000
#
# Coordination Sequence:
#
# PCOD8272362 Si02
#       6
#    16  16  16  16  16   8
#     4  10  20  36  61  91 127 165 202 244 293 348
#     4   9  19  37  60  86 116 151 195 246 300 364
#     4  11  25  43  61  83 115 154 197 251 312 367
#     4  12  24  39  62  90 121 157 201 247 295 354
#     4   8  14  26  47  77 111 144 178 220 273 333
#     4  11  23  39  60  87 120 157 197 243 295 351
#
# _framework density 19.969971999999999
#
# number of rings (size 3 to 8) (size 9 to 14) (size 15 to 20)
#    0.000    1.909    0.909    4.636    0.000    6.545 
#    0.000    4.545    0.000    2.182    0.000    0.000 
#    0.000    0.000    0.000    0.000    0.000    0.000 
#
# Total GULP energy -545635.215476 kJ/mol
# GULP energy per Si atom -12400.800352 kJ/mol
# Density = 1.992452 g / cm^3
# Si number density = 19.969972 Si / 1000 Ang^3
#
#
#
# Elastic Constant Matrix: (Units=GPa)
#
#
# Indices 1 2 3 4 5 6 
#
# 1 110.4515 65.0141 42.8793 0.0000 0.0000 0.0000
# 2 65.0141 136.0772 43.3750 0.0000 0.0000 0.0000
# 3 42.8793 43.3750 78.6540 0.0000 0.0000 0.0000
# 4 0.0000 0.0000 0.0000 28.8525 0.0000 0.0000
# 5 0.0000 0.0000 0.0000 0.0000 34.2911 0.0000
# 6 0.0000 0.0000 0.0000 0.0000 0.0000 37.4932
#
#
#
# Elastic Compliance Matrix: (Units=1/GPa)
#
#
# Indices 1 2 3 4 5 6 
#
# 1 0.013924 -0.005136 -0.004759 0.000000 0.000000 0.000000
# 2 -0.005136 0.010810 -0.003162 0.000000 0.000000 0.000000
# 3 -0.004759 -0.003162 0.017052 0.000000 0.000000 0.000000
# 4 0.000000 0.000000 0.000000 0.034659 0.000000 0.000000
# 5 0.000000 0.000000 0.000000 0.000000 0.029162 0.000000
# 6 0.000000 0.000000 0.000000 0.000000 0.000000 0.026672
#
#
# Mechanical properties :
#
#
# Convention : Reuss Voigt Hill
#
# Bulk Modulus (GPa) = 63.80049 69.74660 66.77354
# Shear Modulus (GPa) = 30.55936 31.72163 31.14050
#
# Velocity S-wave (km/s) = 3.91610 3.98988 3.95316
# Velocity P-wave (km/s) = 7.24330 7.49847 7.37199
#
# Compressibility (1/GPa) = 0.01567386
#
# Stress axis : x y z
#
# Youngs Moduli (GPa) = 71.81739 92.50451 58.64495
#
# Poissons Ratio (x) = 0.47508 0.27908
# Poissons Ratio (y) = 0.36884 0.18542
# Poissons Ratio (z) = 0.34176 0.29247
#
# Static dielectric constant tensor:
#      x y z
#    x 3.782410 0.000000 0.000000 
#    y 0.000000 3.762690 0.000000 
#    z 0.000000 0.000000 3.400520 
# 
# 
# High freq. dielectric constant tensor:
#      x y z
#    x 1.792620 0.000000 0.000000 
#    y 0.000000 1.782530 0.000000 
#    z 0.000000 0.000000 1.756790 
# 
# From -- ./inp_files/58007.got.cif
#   From: 2010.03.12/outbox.cif.g09.slc.cpg/sg65_30_cif.got.tgz:58007.got - 2010.04.10 20:52:16.
