data_PCOD8272579
_publ_section_title
;
Structure prediction by ZEFSAII (Michael W. Deem and Ramdas Pophale) SiO2 
 PCOD8272579
Probable space group: C M M M
;
_chemical_formula_sum "Si O2"
_cell_formula_units_Z 80
_cell_length_a 7.726392
_cell_length_b 18.389533
_cell_length_c 29.622294
_cell_angle_alpha 90.000000
_cell_angle_beta 90.000000
_cell_angle_gamma 90.000000
_cell_volume 4208.875961
_symmetry_space_group_name_H-M "C M M M"
_symmetry_group_IT_number 65
_symmetry_cell_setting 'orthorhombic'
loop_
_space_group_symop_operation_xyz
x,y,z
-x,-y,z
x,-y,-z
-x,y,-z
-x,-y,-z
x,y,-z
-x,y,z
x,-y,z
1/2+x,1/2+y,z
1/2-x,1/2-y,z
1/2+x,1/2-y,-z
1/2-x,1/2+y,-z
1/2-x,1/2-y,-z
1/2+x,1/2+y,-z
1/2-x,1/2+y,z
1/2+x,1/2-y,z
loop_
_atom_site_type_symbol
_atom_site_label
_atom_site_fract_x
_atom_site_fract_y
_atom_site_fract_z
Si Si1 0.808259 0.913901 0.111964
Si Si2 0.797559 0.666488 0.704855
Si Si3 0.205518 0.417501 0.209159
Si Si4 0.500000 0.413924 0.550196
Si Si5 0.300951 0.085526 0.384122
Si Si6 0.500000 0.913079 0.050778
O O1 0.776912 0.883666 0.162429
O O2 0.669531 0.882353 0.076481
O O3 0.000000 0.891627 0.095395
O O4 0.784878 0.000000 0.114260
O O5 0.750000 0.750000 0.702179
O O6 0.716827 0.630420 0.749858
O O7 0.729581 0.625797 0.660357
O O8 0.000000 0.654795 0.707142
O O9 0.270653 0.500000 0.216154
O O10 0.000000 0.414946 0.207178
O O11 0.500000 0.500000 0.546884
O O12 0.500000 0.379503 0.500000
O O13 0.675396 0.388566 0.575465
O O14 0.500000 0.106646 0.396002
O O15 0.285177 0.000000 0.375089
O O16 0.500000 0.000000 0.050069
O O17 0.500000 0.882108 0.000000
#
# Coordination Sequence:
#
# PCOD8272579 Si02
#       6
#    16  16  16   8  16   8
#     4   9  16  26  41  63  90 123 162 201 243 292
#     4  10  21  33  49  74 102 139 169 207 253 298
#     4   9  16  30  50  68  94 133 172 207 244 296
#     4   9  18  32  54  83 106 128 163 212 262 298
#     4   9  18  34  54  77 105 136 171 208 248 299
#     4   9  16  26  40  59  90 128 160 199 250 296
#
# _framework density 19.007449000000001
#
# number of rings (size 3 to 8) (size 9 to 14) (size 15 to 20)
#    0.000    2.800    1.000    0.600    1.400    4.000 
#    0.000    4.000    0.000    0.600    0.000    0.000 
#    0.000    0.800    0.400    0.000    0.000    0.000 
#
# Total GULP energy -495855.106425 kJ/mol
# GULP energy per Si atom -12396.377661 kJ/mol
# Density = 1.896419 g / cm^3
# Si number density = 19.007449 Si / 1000 Ang^3
#
#
#
# Elastic Constant Matrix: (Units=GPa)
#
#
# Indices 1 2 3 4 5 6 
#
# 1 107.6535 18.7889 82.0754 0.0000 0.0000 0.0000
# 2 18.7889 45.4671 40.3186 0.0000 0.0000 0.0000
# 3 82.0754 40.3186 195.9643 0.0000 0.0000 0.0000
# 4 0.0000 0.0000 0.0000 4.3509 0.0000 0.0000
# 5 0.0000 0.0000 0.0000 0.0000 15.6875 0.0000
# 6 0.0000 0.0000 0.0000 0.0000 0.0000 14.3809
#
#
#
# Elastic Compliance Matrix: (Units=1/GPa)
#
#
# Indices 1 2 3 4 5 6 
#
# 1 0.013665 -0.000699 -0.005579 0.000000 0.000000 0.000000
# 2 -0.000699 0.026938 -0.005249 0.000000 0.000000 0.000000
# 3 -0.005579 -0.005249 0.008520 0.000000 0.000000 0.000000
# 4 0.000000 0.000000 0.000000 0.229836 0.000000 0.000000
# 5 0.000000 0.000000 0.000000 0.000000 0.063745 0.000000
# 6 0.000000 0.000000 0.000000 0.000000 0.000000 0.069537
#
#
# Mechanical properties :
#
#
# Convention : Reuss Voigt Hill
#
# Bulk Modulus (GPa) = 38.36362 70.16120 54.26241
# Shear Modulus (GPa) = 11.26163 20.74399 16.00281
#
# Velocity S-wave (km/s) = 2.43674 3.30716 2.90474
# Velocity P-wave (km/s) = 5.30511 7.18162 6.31347
#
# Compressibility (1/GPa) = 0.02606637
#
# Stress axis : x y z
#
# Youngs Moduli (GPa) = 73.18062 37.12236 117.37365
#
# Poissons Ratio (x) = 0.02596 0.65487
# Poissons Ratio (y) = 0.05118 0.61615
# Poissons Ratio (z) = 0.40830 0.19487
#
# Static dielectric constant tensor:
#      x y z
#    x 3.560810 0.000000 0.000000 
#    y 0.000000 2.927580 0.000000 
#    z 0.000000 0.000000 3.796880 
# 
# 
# High freq. dielectric constant tensor:
#      x y z
#    x 1.744070 0.000000 0.000000 
#    y 0.000000 1.678260 0.000000 
#    z 0.000000 0.000000 1.744100 
# 
# From -- ./inp_files/73018.got.cif
#   From: 2010.03.12/outbox.cif.g09.slc.cpg/sg65_37_cif.got.tgz:73018.got - 2010.04.10 20:52:16.
