data_PCOD8272701
_publ_section_title
;
Structure prediction by ZEFSAII (Michael W. Deem and Ramdas Pophale) SiO2 
 PCOD8272701
Probable space group: C M M M
;
_chemical_formula_sum "Si O2"
_cell_formula_units_Z 104
_cell_length_a 9.062427
_cell_length_b 28.865302
_cell_length_c 20.226036
_cell_angle_alpha 90.000000
_cell_angle_beta 90.000000
_cell_angle_gamma 90.000000
_cell_volume 5290.922532
_symmetry_space_group_name_H-M "C M M M"
_symmetry_group_IT_number 65
_symmetry_cell_setting 'orthorhombic'
loop_
_space_group_symop_operation_xyz
x,y,z
-x,-y,z
x,-y,-z
-x,y,-z
-x,-y,-z
x,y,-z
-x,y,z
x,-y,z
1/2+x,1/2+y,z
1/2-x,1/2-y,z
1/2+x,1/2-y,-z
1/2-x,1/2+y,-z
1/2-x,1/2-y,-z
1/2+x,1/2+y,-z
1/2-x,1/2+y,z
1/2+x,1/2-y,z
loop_
_atom_site_type_symbol
_atom_site_label
_atom_site_fract_x
_atom_site_fract_y
_atom_site_fract_z
Si Si1 0.173914 0.946949 0.335674
Si Si2 0.668712 0.205738 0.272154
Si Si3 0.674150 0.107367 0.072665
Si Si4 0.835971 0.945964 0.814061
Si Si5 0.173488 0.295654 0.122959
Si Si6 0.678019 0.698999 0.500000
Si Si7 0.827802 0.638910 0.387994
O O1 0.223563 0.936889 0.260095
O O2 0.263865 0.913293 0.384986
O O3 0.000000 0.938002 0.343699
O O4 0.211841 0.000000 0.354819
O O5 0.500000 0.220269 0.270749
O O6 0.750000 0.250000 0.303890
O O7 0.726718 0.195450 0.198384
O O8 0.694756 0.160205 0.315393
O O9 0.500000 0.104779 0.078111
O O10 0.733082 0.076051 0.131123
O O11 0.726587 0.160362 0.080947
O O12 0.727585 0.090205 0.000000
O O13 0.000000 0.925095 0.821151
O O14 0.839587 0.000000 0.828139
O O15 0.250000 0.250000 0.093407
O O16 0.000000 0.288408 0.118443
O O17 0.500000 0.703204 0.500000
O O18 0.750000 0.750000 0.500000
O O19 0.733188 0.670374 0.436998
O O20 0.000000 0.637900 0.409344
#
# Coordination Sequence:
#
# PCOD8272701 Si02
#       7
#    16  16  16  16  16   8  16
#     4   9  19  37  60  86 115 146 182 227 282 338
#     4   9  18  31  50  76 104 134 171 219 272 325
#     4  10  21  35  50  71 102 140 181 226 278 336
#     4   9  19  36  57  81 109 141 179 225 276 331
#     4   9  18  33  50  71 100 133 172 219 271 325
#     4  12  26  44  63  86 121 162 200 235 273 321
#     4  11  22  37  59  87 117 151 191 231 275 328
#
# _framework density 19.656309
#
# number of rings (size 3 to 8) (size 9 to 14) (size 15 to 20)
#    0.000    2.308    0.000    3.462    0.000    6.462 
#    0.000    6.538    0.000    2.308    0.000    0.000 
#    0.000    0.000    0.000    0.000    0.000    0.000 
#
# Total GULP energy -644683.614514 kJ/mol
# GULP energy per Si atom -12397.761818 kJ/mol
# Density = 1.961157 g / cm^3
# Si number density = 19.656309 Si / 1000 Ang^3
#
#
#
# Elastic Constant Matrix: (Units=GPa)
#
#
# Indices 1 2 3 4 5 6 
#
# 1 73.6944 49.4900 39.8176 0.0000 0.0000 0.0000
# 2 49.4900 107.3331 49.2052 0.0000 0.0000 0.0000
# 3 39.8176 49.2052 71.1397 0.0000 0.0000 0.0000
# 4 0.0000 0.0000 0.0000 27.2204 0.0000 0.0000
# 5 0.0000 0.0000 0.0000 0.0000 26.5238 0.0000
# 6 0.0000 0.0000 0.0000 0.0000 0.0000 38.4687
#
#
#
# Elastic Compliance Matrix: (Units=1/GPa)
#
#
# Indices 1 2 3 4 5 6 
#
# 1 0.022304 -0.006679 -0.007864 0.000000 0.000000 0.000000
# 2 -0.006679 0.015643 -0.007081 0.000000 0.000000 0.000000
# 3 -0.007864 -0.007081 0.023356 0.000000 0.000000 0.000000
# 4 0.000000 0.000000 0.000000 0.036737 0.000000 0.000000
# 5 0.000000 0.000000 0.000000 0.000000 0.037702 0.000000
# 6 0.000000 0.000000 0.000000 0.000000 0.000000 0.025995
#
#
# Mechanical properties :
#
#
# Convention : Reuss Voigt Hill
#
# Bulk Modulus (GPa) = 55.38847 58.79920 57.09383
# Shear Modulus (GPa) = 23.69626 26.01955 24.85790
#
# Velocity S-wave (km/s) = 3.47584 3.64225 3.56002
# Velocity P-wave (km/s) = 6.65945 6.90410 6.78288
#
# Compressibility (1/GPa) = 0.01805430
#
# Stress axis : x y z
#
# Youngs Moduli (GPa) = 44.83538 63.92778 42.81484
#
# Poissons Ratio (x) = 0.42696 0.33670
# Poissons Ratio (y) = 0.29945 0.30319
# Poissons Ratio (z) = 0.35259 0.45269
#
# Static dielectric constant tensor:
#      x y z
#    x 3.564130 0.000000 0.000000 
#    y 0.000000 3.602100 0.000000 
#    z 0.000000 0.000000 3.626060 
# 
# 
# High freq. dielectric constant tensor:
#      x y z
#    x 1.757710 0.000000 0.000000 
#    y 0.000000 1.770170 0.000000 
#    z 0.000000 0.000000 1.759290 
# 
# From -- ./inp_files/60366.got.cif
#   From: 2010.03.12/outbox.cif.g09.slc.cpg/sg65_31_cif.got.tgz:60366.got - 2010.04.10 20:52:16.
