data_PCOD8272467
_publ_section_title
;
Structure prediction by ZEFSAII (Michael W. Deem and Ramdas Pophale) SiO2 
 PCOD8272467
Probable space group: C M M M
;
_chemical_formula_sum "Si O2"
_cell_formula_units_Z 64
_cell_length_a 16.601111
_cell_length_b 22.180470
_cell_length_c 8.751711
_cell_angle_alpha 90.000000
_cell_angle_beta 90.000000
_cell_angle_gamma 90.000000
_cell_volume 3222.558915
_symmetry_space_group_name_H-M "C M M M"
_symmetry_group_IT_number 65
_symmetry_cell_setting 'orthorhombic'
loop_
_space_group_symop_operation_xyz
x,y,z
-x,-y,z
x,-y,-z
-x,y,-z
-x,-y,-z
x,y,-z
-x,y,z
x,-y,z
1/2+x,1/2+y,z
1/2-x,1/2-y,z
1/2+x,1/2-y,-z
1/2-x,1/2+y,-z
1/2-x,1/2-y,-z
1/2+x,1/2+y,-z
1/2-x,1/2+y,z
1/2+x,1/2-y,z
loop_
_atom_site_type_symbol
_atom_site_label
_atom_site_fract_x
_atom_site_fract_y
_atom_site_fract_z
Si Si1 0.906796 0.238244 0.177730
Si Si2 0.645562 0.858694 0.321047
Si Si3 0.000000 0.568510 0.180739
Si Si4 0.910173 0.000000 0.181210
Si Si5 0.313905 0.616781 0.820619
O O1 0.861703 0.289026 0.274203
O O2 0.866736 0.174988 0.218987
O O3 0.000000 0.235330 0.224431
O O4 0.896429 0.253914 0.000000
O O5 0.633241 0.865262 0.500000
O O6 0.578977 0.898315 0.238319
O O7 0.732104 0.883272 0.273681
O O8 0.000000 0.500000 0.241023
O O9 0.000000 0.571076 0.000000
O O10 0.863623 0.940786 0.237356
O O11 0.000000 0.000000 0.251793
O O12 0.916229 0.000000 0.000000
O O13 0.293866 0.613355 0.000000
#
# Coordination Sequence:
#
# PCOD8272467 Si02
#       5
#    16  16   8   8  16
#     4  10  20  37  62  89 120 161 210 259 303 353
#     4  12  25  40  60  90 126 162 200 246 305 367
#     4  11  25  45  69  91 117 156 203 252 305 363
#     4   9  18  36  63  94 123 152 201 259 304 347
#     4  10  21  37  61  91 122 161 208 256 303 354
#
# _framework density 19.859994
#
# number of rings (size 3 to 8) (size 9 to 14) (size 15 to 20)
#    0.000    1.500    1.250    4.125    1.750    8.000 
#    0.000    0.000    0.000    3.000    0.000    0.000 
#    0.000    0.000    0.000    0.000    0.000    0.000 
#
# Total GULP energy -396984.677374 kJ/mol
# GULP energy per Si atom -12405.771168 kJ/mol
# Density = 1.981479 g / cm^3
# Si number density = 19.859994 Si / 1000 Ang^3
#
#
#
# Elastic Constant Matrix: (Units=GPa)
#
#
# Indices 1 2 3 4 5 6 
#
# 1 148.9663 68.1674 27.6299 0.0000 0.0000 0.0000
# 2 68.1674 165.3403 35.9747 0.0000 0.0000 0.0000
# 3 27.6299 35.9747 53.0992 0.0000 0.0000 0.0000
# 4 0.0000 0.0000 0.0000 -3.4343 0.0000 0.0000
# 5 0.0000 0.0000 0.0000 0.0000 -15.2549 0.0000
# 6 0.0000 0.0000 0.0000 0.0000 0.0000 47.3564
#
#
#
# Elastic Compliance Matrix: (Units=1/GPa)
#
#
# Indices 1 2 3 4 5 6 
#
# 1 0.008529 -0.002992 -0.002411 0.000000 0.000000 0.000000
# 2 -0.002992 0.008143 -0.003960 0.000000 0.000000 0.000000
# 3 -0.002411 -0.003960 0.022770 0.000000 0.000000 0.000000
# 4 0.000000 0.000000 0.000000 -0.291179 0.000000 0.000000
# 5 0.000000 0.000000 0.000000 0.000000 -0.065553 0.000000
# 6 0.000000 0.000000 0.000000 0.000000 0.000000 0.021116
#
#
# Mechanical properties :
#
#
# Convention : Reuss Voigt Hill
#
# Bulk Modulus (GPa) = 48.27108 70.10554 59.18831
# Shear Modulus (GPa) = -18.48159 21.44234 1.48037
#
# Velocity S-wave (km/s) = -3.05387 3.28941 0.86431
# Velocity P-wave (km/s) = 3.45306 7.05715 5.55549
#
# Compressibility (1/GPa) = 0.02071634
#
# Stress axis : x y z
#
# Youngs Moduli (GPa) = 117.24390 122.80014 43.91662
#
# Poissons Ratio (x) = 0.36740 0.10589
# Poissons Ratio (y) = 0.35078 0.17392
# Poissons Ratio (z) = 0.28269 0.48633
#
# Static dielectric constant tensor:
#      x y z
#    x 4.091010 0.000000 0.000000 
#    y 0.000000 3.847010 0.000000 
#    z 0.000000 0.000000 3.382930 
# 
# 
# High freq. dielectric constant tensor:
#      x y z
#    x 1.793100 0.000000 0.000000 
#    y 0.000000 1.790790 0.000000 
#    z 0.000000 0.000000 1.750530 
# 
# From -- ./inp_files/6744.got.cif
#   From: 2010.03.12/outbox.cif.g09.slc.cpg/sg65_4_cif.got.tgz:6744.got - 2010.04.10 20:52:16.
