data_PCOD8272195
_publ_section_title
;
Structure prediction by ZEFSAII (Michael W. Deem and Ramdas Pophale) SiO2 
 PCOD8272195
Probable space group: C M M M
;
_chemical_formula_sum "Si O2"
_cell_formula_units_Z 72
_cell_length_a 22.999982
_cell_length_b 19.192739
_cell_length_c 7.914414
_cell_angle_alpha 90.000000
_cell_angle_beta 90.000000
_cell_angle_gamma 90.000000
_cell_volume 3493.680757
_symmetry_space_group_name_H-M "C M M M"
_symmetry_group_IT_number 65
_symmetry_cell_setting 'orthorhombic'
loop_
_space_group_symop_operation_xyz
x,y,z
-x,-y,z
x,-y,-z
-x,y,-z
-x,-y,-z
x,y,-z
-x,y,z
x,-y,z
1/2+x,1/2+y,z
1/2-x,1/2-y,z
1/2+x,1/2-y,-z
1/2-x,1/2+y,-z
1/2-x,1/2-y,-z
1/2+x,1/2+y,-z
1/2-x,1/2+y,z
1/2+x,1/2-y,z
loop_
_atom_site_type_symbol
_atom_site_label
_atom_site_fract_x
_atom_site_fract_y
_atom_site_fract_z
Si Si1 0.377652 0.155944 0.808135
Si Si2 0.771807 0.420828 0.305577
Si Si3 0.355731 0.578640 0.800969
Si Si4 0.564996 0.701193 0.198704
Si Si5 0.432955 0.079306 0.500000
O O1 0.309270 0.136185 0.798343
O O2 0.392084 0.235173 0.754096
O O3 0.409646 0.107518 0.676055
O O4 0.399868 0.142716 0.000000
O O5 0.791133 0.416059 0.500000
O O6 0.781843 0.500000 0.237157
O O7 0.704461 0.401005 0.288297
O O8 0.374633 0.500000 0.753981
O O9 0.405490 0.630491 0.731319
O O10 0.346439 0.587293 0.000000
O O11 0.500000 0.710543 0.277944
O O12 0.558336 0.694902 0.000000
O O13 0.500000 0.094820 0.500000
O O14 0.415173 0.000000 0.500000
#
# Coordination Sequence:
#
# PCOD8272195 Si02
#       5
#    16  16  16  16   8
#     4  11  22  38  61  87 119 158 198 242 296 354
#     4  10  20  36  57  83 119 155 192 245 300 351
#     4   9  18  34  58  87 116 150 195 244 296 355
#     4   9  19  36  57  83 117 156 197 243 296 352
#     4  11  24  40  58  85 119 155 202 251 293 347
#
# _framework density 20.608639
#
# number of rings (size 3 to 8) (size 9 to 14) (size 15 to 20)
#    0.000    2.111    1.111    2.000    0.000    5.333 
#    2.000    7.778    0.000    0.000    0.000    3.111 
#    0.000    0.000    0.000    0.000    0.000    0.000 
#
# Total GULP energy -446261.227783 kJ/mol
# GULP energy per Si atom -12396.145216 kJ/mol
# Density = 2.056173 g / cm^3
# Si number density = 20.608639 Si / 1000 Ang^3
#
#
#
# Elastic Constant Matrix: (Units=GPa)
#
#
# Indices 1 2 3 4 5 6 
#
# 1 130.6931 90.6579 17.7393 0.0000 0.0000 0.0000
# 2 90.6579 169.6919 38.5069 0.0000 0.0000 0.0000
# 3 17.7393 38.5069 75.7120 0.0000 0.0000 0.0000
# 4 0.0000 0.0000 0.0000 16.0365 0.0000 0.0000
# 5 0.0000 0.0000 0.0000 0.0000 17.6664 0.0000
# 6 0.0000 0.0000 0.0000 0.0000 0.0000 118.1870
#
#
#
# Elastic Compliance Matrix: (Units=1/GPa)
#
#
# Indices 1 2 3 4 5 6 
#
# 1 0.012174 -0.006621 0.000515 0.000000 0.000000 0.000000
# 2 -0.006621 0.010263 -0.003668 0.000000 0.000000 0.000000
# 3 0.000515 -0.003668 0.014953 0.000000 0.000000 0.000000
# 4 0.000000 0.000000 0.000000 0.062358 0.000000 0.000000
# 5 0.000000 0.000000 0.000000 0.000000 0.056605 0.000000
# 6 0.000000 0.000000 0.000000 0.000000 0.000000 0.008461
#
#
# Mechanical properties :
#
#
# Convention : Reuss Voigt Hill
#
# Bulk Modulus (GPa) = 56.04932 74.43391 65.24162
# Shear Modulus (GPa) = 26.27296 45.65750 35.96523
#
# Velocity S-wave (km/s) = 3.57438 4.71197 4.18204
# Velocity P-wave (km/s) = 6.65515 8.11170 7.41926
#
# Compressibility (1/GPa) = 0.01784143
#
# Stress axis : x y z
#
# Youngs Moduli (GPa) = 82.13926 97.43969 66.87633
#
# Poissons Ratio (x) = 0.64515 -0.03444
# Poissons Ratio (y) = 0.54385 0.24532
# Poissons Ratio (z) = -0.04230 0.35744
#
# Static dielectric constant tensor:
#      x y z
#    x 3.972470 0.000000 0.000000 
#    y 0.000000 3.905730 0.000000 
#    z 0.000000 0.000000 3.451430 
# 
# 
# High freq. dielectric constant tensor:
#      x y z
#    x 1.808180 0.000000 0.000000 
#    y 0.000000 1.803160 0.000000 
#    z 0.000000 0.000000 1.792910 
# 
# From -- ./inp_files/11280.got.cif
#   From: 2010.03.12/outbox.cif.g09.slc.cpg/sg65_6_cif.got.tgz:11280.got - 2010.04.10 20:52:16.
