data_PCOD8272527
_publ_section_title
;
Structure prediction by ZEFSAII (Michael W. Deem and Ramdas Pophale) SiO2 
 PCOD8272527
Probable space group: C M M M
;
_chemical_formula_sum "Si O2"
_cell_formula_units_Z 48
_cell_length_a 16.961256
_cell_length_b 16.762554
_cell_length_c 8.385370
_cell_angle_alpha 90.000000
_cell_angle_beta 90.000000
_cell_angle_gamma 90.000000
_cell_volume 2384.077831
_symmetry_space_group_name_H-M "C M M M"
_symmetry_group_IT_number 65
_symmetry_cell_setting 'orthorhombic'
loop_
_space_group_symop_operation_xyz
x,y,z
-x,-y,z
x,-y,-z
-x,y,-z
-x,-y,-z
x,y,-z
-x,y,z
x,-y,z
1/2+x,1/2+y,z
1/2-x,1/2-y,z
1/2+x,1/2-y,-z
1/2-x,1/2+y,-z
1/2-x,1/2-y,-z
1/2+x,1/2+y,-z
1/2-x,1/2+y,z
1/2+x,1/2-y,z
loop_
_atom_site_type_symbol
_atom_site_label
_atom_site_fract_x
_atom_site_fract_y
_atom_site_fract_z
Si Si1 0.655368 0.676800 0.186452
Si Si2 0.500000 0.589846 0.810206
Si Si3 0.093110 0.500000 0.184272
Si Si4 0.178653 0.653169 0.685108
O O1 0.577327 0.634620 0.254658
O O2 0.729416 0.638154 0.277650
O O3 0.647974 0.771237 0.215133
O O4 0.666564 0.660382 0.000000
O O5 0.500000 0.500000 0.744299
O O6 0.500000 0.591567 0.000000
O O7 0.127559 0.422610 0.268716
O O8 0.000000 0.500000 0.207266
O O9 0.117737 0.500000 0.000000
O O10 0.167980 0.672140 0.500000
#
# Coordination Sequence:
#
# PCOD8272527 Si02
#       4
#    16   8   8  16
#     4  10  20  38  64  90 120 162 209 248 293 354
#     4   9  20  36  59  92 121 152 202 256 293 336
#     4  11  25  43  65  90 117 154 205 253 300 365
#     4  11  23  40  61  89 125 159 197 247 309 363
#
# _framework density 20.133571
#
# number of rings (size 3 to 8) (size 9 to 14) (size 15 to 20)
#    0.000    1.667    0.000    6.500    4.667    1.333 
#    0.000    2.500    0.000    4.000    0.000    0.000 
#    0.000    0.000    0.000    0.000    0.000    0.000 
#
# Total GULP energy -297710.098136 kJ/mol
# GULP energy per Si atom -12404.587422 kJ/mol
# Density = 2.008775 g / cm^3
# Si number density = 20.133571 Si / 1000 Ang^3
#
#
#
# Elastic Constant Matrix: (Units=GPa)
#
#
# Indices 1 2 3 4 5 6 
#
# 1 136.7272 68.4212 16.6668 0.0000 0.0000 0.0000
# 2 68.4212 97.0440 3.3950 0.0000 0.0000 0.0000
# 3 16.6668 3.3950 62.9998 0.0000 0.0000 0.0000
# 4 0.0000 0.0000 0.0000 15.4457 0.0000 0.0000
# 5 0.0000 0.0000 0.0000 0.0000 0.9706 0.0000
# 6 0.0000 0.0000 0.0000 0.0000 0.0000 34.5743
#
#
#
# Elastic Compliance Matrix: (Units=1/GPa)
#
#
# Indices 1 2 3 4 5 6 
#
# 1 0.011731 -0.008178 -0.002663 0.000000 0.000000 0.000000
# 2 -0.008178 0.016025 0.001300 0.000000 0.000000 0.000000
# 3 -0.002663 0.001300 0.016507 0.000000 0.000000 0.000000
# 4 0.000000 0.000000 0.000000 0.064743 0.000000 0.000000
# 5 0.000000 0.000000 0.000000 0.000000 1.030244 0.000000
# 6 0.000000 0.000000 0.000000 0.000000 0.000000 0.028923
#
#
# Mechanical properties :
#
#
# Convention : Reuss Voigt Hill
#
# Bulk Modulus (GPa) = 39.71093 52.63745 46.17419
# Shear Modulus (GPa) = 4.18183 24.08400 14.13291
#
# Velocity S-wave (km/s) = 1.44276 3.46238 2.65232
# Velocity P-wave (km/s) = 4.74784 6.49500 5.68889
#
# Compressibility (1/GPa) = 0.02518199
#
# Stress axis : x y z
#
# Youngs Moduli (GPa) = 85.24675 62.40341 60.57876
#
# Poissons Ratio (x) = 0.51031 0.16130
# Poissons Ratio (y) = 0.69711 -0.07874
# Poissons Ratio (z) = 0.22699 -0.08112
#
# Static dielectric constant tensor:
#      x y z
#    x 3.860740 0.000000 0.000000 
#    y 0.000000 3.680330 0.000000 
#    z 0.000000 0.000000 3.594030 
# 
# 
# High freq. dielectric constant tensor:
#      x y z
#    x 1.796640 0.000000 0.000000 
#    y 0.000000 1.790850 0.000000 
#    z 0.000000 0.000000 1.780830 
# 
# From -- ./inp_files/8181.got.cif
#   From: 2010.03.12/outbox.cif.g09.slc.cpg/sg65_5_cif.got.tgz:8181.got - 2010.04.10 20:52:16.
