data_PCOD8272796
_publ_section_title
;
Structure prediction by ZEFSAII (Michael W. Deem and Ramdas Pophale) SiO2 
 PCOD8272796
Probable space group: C M M M
;
_chemical_formula_sum "Si O2"
_cell_formula_units_Z 96
_cell_length_a 23.653837
_cell_length_b 8.676997
_cell_length_c 25.615215
_cell_angle_alpha 90.000000
_cell_angle_beta 90.000000
_cell_angle_gamma 90.000000
_cell_volume 5257.376172
_symmetry_space_group_name_H-M "C M M M"
_symmetry_group_IT_number 65
_symmetry_cell_setting 'orthorhombic'
loop_
_space_group_symop_operation_xyz
x,y,z
-x,-y,z
x,-y,-z
-x,y,-z
-x,-y,-z
x,y,-z
-x,y,z
x,-y,z
1/2+x,1/2+y,z
1/2-x,1/2-y,z
1/2+x,1/2-y,-z
1/2-x,1/2+y,-z
1/2-x,1/2-y,-z
1/2+x,1/2+y,-z
1/2-x,1/2+y,z
1/2+x,1/2-y,z
loop_
_atom_site_type_symbol
_atom_site_label
_atom_site_fract_x
_atom_site_fract_y
_atom_site_fract_z
Si Si1 0.889746 0.815670 0.894554
Si Si2 0.188766 0.319566 0.500000
Si Si3 0.500000 0.672465 0.841496
Si Si4 0.688149 0.182218 0.612107
Si Si5 0.618541 0.817679 0.290524
Si Si6 0.000000 0.173533 0.280883
Si Si7 0.311890 0.183329 0.189545
Si Si8 0.933645 0.683284 0.000000
O O1 0.834661 0.747630 0.865770
O O2 0.897690 0.750665 0.952252
O O3 0.943538 0.747666 0.862825
O O4 0.885009 0.000000 0.895014
O O5 0.196792 0.500000 0.500000
O O6 0.250000 0.250000 0.500000
O O7 0.159575 0.271384 0.444599
O O8 0.500000 0.500000 0.864075
O O9 0.500000 0.676950 0.780589
O O10 0.750000 0.250000 0.616923
O O11 0.651879 0.250035 0.659659
O O12 0.692429 0.000000 0.617653
O O13 0.555445 0.759813 0.299829
O O14 0.647502 0.758258 0.236856
O O15 0.617872 0.000000 0.290063
O O16 0.000000 0.000000 0.302538
O O17 0.250000 0.250000 0.200061
O O18 0.308785 0.000000 0.187363
O O19 0.931074 0.500000 0.000000
O O20 0.000000 0.738084 0.000000
#
# Coordination Sequence:
#
# PCOD8272796 Si02
#       8
#    16   8   8  16  16   8  16   8
#     4  11  21  38  60  83 111 143 179 220 265 314
#     4   8  14  26  46  71 100 135 175 220 264 310
#     4   9  18  32  54  81 107 135 171 215 262 309
#     4   9  17  30  49  75 106 139 177 219 266 316
#     4  10  21  35  52  77 109 141 175 218 267 318
#     4  11  21  35  54  79 106 138 178 218 265 316
#     4  11  23  38  56  80 109 144 179 216 264 318
#     4  11  23  37  56  87 118 143 177 220 264 312
#
# _framework density 18.260058000000001
#
# number of rings (size 3 to 8) (size 9 to 14) (size 15 to 20)
#    0.000    1.917    2.500    2.000    0.000    1.667 
#    0.000    0.417    0.000    0.500    0.000    3.500 
#    0.000    0.000    0.000    0.000    0.000    0.000 
#
# Total GULP energy -594842.689322 kJ/mol
# GULP energy per Si atom -12392.556028 kJ/mol
# Density = 1.821850 g / cm^3
# Si number density = 18.260058 Si / 1000 Ang^3
#
#
#
# Elastic Constant Matrix: (Units=GPa)
#
#
# Indices 1 2 3 4 5 6 
#
# 1 113.0875 27.7825 62.0721 0.0000 0.0000 0.0000
# 2 27.7825 46.3427 35.0099 0.0000 0.0000 0.0000
# 3 62.0721 35.0099 136.5763 0.0000 0.0000 0.0000
# 4 0.0000 0.0000 0.0000 17.3463 0.0000 0.0000
# 5 0.0000 0.0000 0.0000 0.0000 34.0004 0.0000
# 6 0.0000 0.0000 0.0000 0.0000 0.0000 26.1600
#
#
#
# Elastic Compliance Matrix: (Units=1/GPa)
#
#
# Indices 1 2 3 4 5 6 
#
# 1 0.012330 -0.003917 -0.004600 0.000000 0.000000 0.000000
# 2 -0.003917 0.028005 -0.005399 0.000000 0.000000 0.000000
# 3 -0.004600 -0.005399 0.010796 0.000000 0.000000 0.000000
# 4 0.000000 0.000000 0.000000 0.057649 0.000000 0.000000
# 5 0.000000 0.000000 0.000000 0.000000 0.029411 0.000000
# 6 0.000000 0.000000 0.000000 0.000000 0.000000 0.038226
#
#
# Mechanical properties :
#
#
# Convention : Reuss Voigt Hill
#
# Bulk Modulus (GPa) = 42.91716 60.63731 51.77724
# Shear Modulus (GPa) = 23.58325 26.91081 25.24703
#
# Velocity S-wave (km/s) = 3.59767 3.84311 3.72242
# Velocity P-wave (km/s) = 6.38843 7.27821 6.84779
#
# Compressibility (1/GPa) = 0.02330070
#
# Stress axis : x y z
#
# Youngs Moduli (GPa) = 81.10545 35.70795 92.62463
#
# Poissons Ratio (x) = 0.13986 0.42604
# Poissons Ratio (y) = 0.31768 0.50005
# Poissons Ratio (z) = 0.37305 0.19277
#
# Static dielectric constant tensor:
#      x y z
#    x 2.818400 0.000000 0.000000 
#    y 0.000000 3.446370 0.000000 
#    z 0.000000 0.000000 3.835240 
# 
# 
# High freq. dielectric constant tensor:
#      x y z
#    x 1.688770 0.000000 0.000000 
#    y 0.000000 1.703180 0.000000 
#    z 0.000000 0.000000 1.719550 
# 
# From -- ./inp_files/71513.got.cif
#   From: 2010.03.12/outbox.cif.g09.slc.cpg/sg65_36_cif.got.tgz:71513.got - 2010.04.10 20:52:16.
