data_PCOD8272219
_publ_section_title
;
Structure prediction by ZEFSAII (Michael W. Deem and Ramdas Pophale) SiO2 
 PCOD8272219
Probable space group: C M M M
;
_chemical_formula_sum "Si O2"
_cell_formula_units_Z 88
_cell_length_a 9.437998
_cell_length_b 20.818925
_cell_length_c 21.950344
_cell_angle_alpha 90.000000
_cell_angle_beta 90.000000
_cell_angle_gamma 90.000000
_cell_volume 4313.000539
_symmetry_space_group_name_H-M "C M M M"
_symmetry_group_IT_number 65
_symmetry_cell_setting 'orthorhombic'
loop_
_space_group_symop_operation_xyz
x,y,z
-x,-y,z
x,-y,-z
-x,y,-z
-x,-y,-z
x,y,-z
-x,y,z
x,-y,z
1/2+x,1/2+y,z
1/2-x,1/2-y,z
1/2+x,1/2-y,-z
1/2-x,1/2+y,-z
1/2-x,1/2-y,-z
1/2+x,1/2+y,-z
1/2-x,1/2+y,z
1/2+x,1/2-y,z
loop_
_atom_site_type_symbol
_atom_site_label
_atom_site_fract_x
_atom_site_fract_y
_atom_site_fract_z
Si Si1 0.166930 0.500000 0.372327
Si Si2 0.166581 0.074958 0.000000
Si Si3 0.341984 0.384497 0.209677
Si Si4 0.336093 0.686089 0.091566
Si Si5 0.167101 0.500000 0.765358
Si Si6 0.161096 0.193444 0.327484
Si Si7 0.665549 0.868386 0.429423
O O1 0.227976 0.500000 0.303751
O O2 0.218362 0.439034 0.410640
O O3 0.000000 0.500000 0.366732
O O4 0.213115 0.119744 0.057727
O O5 0.000000 0.065671 0.000000
O O6 0.230151 0.000000 0.000000
O O7 0.500000 0.411592 0.196602
O O8 0.311801 0.325762 0.163602
O O9 0.225543 0.438748 0.198571
O O10 0.331561 0.364467 0.280132
O O11 0.500000 0.700179 0.075955
O O12 0.250000 0.750000 0.071435
O O13 0.000000 0.500000 0.768364
O O14 0.250000 0.250000 0.295777
O O15 0.238787 0.180118 0.391335
O O16 0.000000 0.214000 0.341085
O O17 0.696402 0.856711 0.500000
O O18 0.500000 0.858500 0.413873
#
# Coordination Sequence:
#
# PCOD8272219 Si02
#       7
#     8   8  16  16   8  16  16
#     4   9  17  33  56  83 108 136 174 220 275 336
#     4   9  19  36  61  93 124 163 210 248 291 350
#     4  10  22  38  58  86 118 153 192 237 290 348
#     4  10  21  38  63  91 122 162 205 251 297 349
#     4  11  21  34  59  88 117 152 188 236 293 349
#     4  11  23  38  56  78 108 144 186 234 285 341
#     4  10  20  36  58  81 107 141 181 227 281 342
#
# _framework density 20.403428000000002
#
# number of rings (size 3 to 8) (size 9 to 14) (size 15 to 20)
#    0.000    1.909    1.818    1.909    1.273    3.273 
#    0.000    0.455    0.000    1.636    0.000    0.000 
#    0.000    0.000    0.000    0.000    0.000    0.000 
#
# Total GULP energy -545327.242345 kJ/mol
# GULP energy per Si atom -12393.800962 kJ/mol
# Density = 2.035699 g / cm^3
# Si number density = 20.403428 Si / 1000 Ang^3
#
#
#
# Elastic Constant Matrix: (Units=GPa)
#
#
# Indices 1 2 3 4 5 6 
#
# 1 102.4987 61.4511 36.3189 0.0000 0.0000 0.0000
# 2 61.4511 126.1160 31.4511 0.0000 0.0000 0.0000
# 3 36.3189 31.4511 93.0032 0.0000 0.0000 0.0000
# 4 0.0000 0.0000 0.0000 26.3394 0.0000 0.0000
# 5 0.0000 0.0000 0.0000 0.0000 19.4978 0.0000
# 6 0.0000 0.0000 0.0000 0.0000 0.0000 35.6053
#
#
#
# Elastic Compliance Matrix: (Units=1/GPa)
#
#
# Indices 1 2 3 4 5 6 
#
# 1 0.014841 -0.006319 -0.003659 0.000000 0.000000 0.000000
# 2 -0.006319 0.011350 -0.001371 0.000000 0.000000 0.000000
# 3 -0.003659 -0.001371 0.012645 0.000000 0.000000 0.000000
# 4 0.000000 0.000000 0.000000 0.037966 0.000000 0.000000
# 5 0.000000 0.000000 0.000000 0.000000 0.051288 0.000000
# 6 0.000000 0.000000 0.000000 0.000000 0.000000 0.028086
#
#
# Mechanical properties :
#
#
# Convention : Reuss Voigt Hill
#
# Bulk Modulus (GPa) = 61.96164 64.45111 63.20637
# Shear Modulus (GPa) = 27.13683 29.11496 28.12590
#
# Velocity S-wave (km/s) = 3.65089 3.78162 3.71683
# Velocity P-wave (km/s) = 6.94307 7.12211 7.03316
#
# Compressibility (1/GPa) = 0.01613902
#
# Stress axis : x y z
#
# Youngs Moduli (GPa) = 67.38056 88.10572 79.08519
#
# Poissons Ratio (x) = 0.55674 0.28935
# Poissons Ratio (y) = 0.42578 0.10839
# Poissons Ratio (z) = 0.24653 0.12076
#
# Static dielectric constant tensor:
#      x y z
#    x 3.490230 0.000000 0.000000 
#    y 0.000000 3.999650 0.000000 
#    z 0.000000 0.000000 3.677740 
# 
# 
# High freq. dielectric constant tensor:
#      x y z
#    x 1.771790 0.000000 0.000000 
#    y 0.000000 1.799950 0.000000 
#    z 0.000000 0.000000 1.800570 
# 
# From -- ./inp_files/67677.got.cif
#   From: 2010.03.12/outbox.cif.g09.slc.cpg/sg65_34_cif.got.tgz:67677.got - 2010.04.10 20:52:16.
