data_PCOD8272073
_publ_section_title
;
Structure prediction by ZEFSAII (Michael W. Deem and Ramdas Pophale) SiO2 
 PCOD8272073
Probable space group: C M M M
;
_chemical_formula_sum "Si O2"
_cell_formula_units_Z 72
_cell_length_a 14.220981
_cell_length_b 18.234258
_cell_length_c 14.948794
_cell_angle_alpha 90.000000
_cell_angle_beta 90.000000
_cell_angle_gamma 90.000000
_cell_volume 3876.357370
_symmetry_space_group_name_H-M "C M M M"
_symmetry_group_IT_number 65
_symmetry_cell_setting 'orthorhombic'
loop_
_space_group_symop_operation_xyz
x,y,z
-x,-y,z
x,-y,-z
-x,y,-z
-x,-y,-z
x,y,-z
-x,y,z
x,-y,z
1/2+x,1/2+y,z
1/2-x,1/2-y,z
1/2+x,1/2-y,-z
1/2-x,1/2+y,-z
1/2-x,1/2-y,-z
1/2+x,1/2+y,-z
1/2-x,1/2+y,z
1/2+x,1/2-y,z
loop_
_atom_site_type_symbol
_atom_site_label
_atom_site_fract_x
_atom_site_fract_y
_atom_site_fract_z
Si Si1 0.000000 0.690184 0.395519
Si Si2 0.184510 0.084066 0.751710
Si Si3 0.000000 0.714349 0.101932
Si Si4 0.292950 0.828654 0.103119
Si Si5 0.000000 0.822304 0.258541
Si Si6 0.666384 0.917483 0.602145
O O1 0.000000 0.763305 0.337733
O O2 0.089387 0.641590 0.369076
O O3 0.000000 0.711055 0.500000
O O4 0.243541 0.110252 0.837305
O O5 0.090739 0.128133 0.733948
O O6 0.243085 0.095778 0.661908
O O7 0.158528 0.000000 0.768730
O O8 0.094511 0.667712 0.121274
O O9 0.000000 0.786466 0.161293
O O10 0.000000 0.742581 0.000000
O O11 0.250000 0.750000 0.130094
O O12 0.270495 0.846235 0.000000
O O13 0.697389 0.905276 0.500000
O O14 0.625986 0.000000 0.615481
#
# Coordination Sequence:
#
# PCOD8272073 Si02
#       6
#     8  16   8  16   8  16
#     4  10  21  35  59  91 115 144 189 239 291 345
#     4  11  24  39  57  82 114 156 197 237 288 343
#     4  10  20  35  59  89 113 144 189 230 287 345
#     4  10  20  37  61  86 115 150 188 236 289 340
#     4  12  23  37  56  80 116 153 194 245 278 333
#     4   9  19  37  59  84 116 151 187 233 291 350
#
# _framework density 18.574138000000001
#
# number of rings (size 3 to 8) (size 9 to 14) (size 15 to 20)
#    0.000    1.778    2.222    2.000    0.000    2.667 
#    0.000    3.889    0.000    7.333    0.000    0.000 
#    0.000    0.000    0.000    0.000    0.000    0.000 
#
# Total GULP energy -446468.762236 kJ/mol
# GULP energy per Si atom -12401.910062 kJ/mol
# Density = 1.853186 g / cm^3
# Si number density = 18.574138 Si / 1000 Ang^3
#
#
#
# Elastic Constant Matrix: (Units=GPa)
#
#
# Indices 1 2 3 4 5 6 
#
# 1 144.4738 84.0989 60.3437 0.0000 0.0000 0.0000
# 2 84.0989 137.5820 75.4340 0.0000 0.0000 0.0000
# 3 60.3437 75.4340 96.5131 0.0000 0.0000 0.0000
# 4 0.0000 0.0000 0.0000 31.2424 0.0000 0.0000
# 5 0.0000 0.0000 0.0000 0.0000 -6.9578 0.0000
# 6 0.0000 0.0000 0.0000 0.0000 0.0000 43.9322
#
#
#
# Elastic Compliance Matrix: (Units=1/GPa)
#
#
# Indices 1 2 3 4 5 6 
#
# 1 0.011186 -0.005255 -0.002887 0.000000 0.000000 0.000000
# 2 -0.005255 0.015188 -0.008585 0.000000 0.000000 0.000000
# 3 -0.002887 -0.008585 0.018876 0.000000 0.000000 0.000000
# 4 0.000000 0.000000 0.000000 0.032008 0.000000 0.000000
# 5 0.000000 0.000000 0.000000 0.000000 -0.143723 0.000000
# 6 0.000000 0.000000 0.000000 0.000000 0.000000 0.022762
#
#
# Mechanical properties :
#
#
# Convention : Reuss Voigt Hill
#
# Bulk Modulus (GPa) = 84.77019 90.92467 87.84743
# Shear Modulus (GPa) = -791.56257 24.22283 -383.66987
#
# Velocity S-wave (km/s) = -20.66613 3.61517 -14.38783
# Velocity P-wave (km/s) = 22.88480 8.15380 15.12001
#
# Compressibility (1/GPa) = 0.01179660
#
# Stress axis : x y z
#
# Youngs Moduli (GPa) = 89.39384 65.84349 52.97696
#
# Poissons Ratio (x) = 0.34601 0.15294
# Poissons Ratio (y) = 0.46977 0.45480
# Poissons Ratio (z) = 0.25807 0.56525
#
# Static dielectric constant tensor:
#      x y z
#    x 3.559900 0.000000 0.000000 
#    y 0.000000 3.352800 0.000000 
#    z 0.000000 0.000000 3.514330 
# 
# 
# High freq. dielectric constant tensor:
#      x y z
#    x 1.731180 0.000000 0.000000 
#    y 0.000000 1.710460 0.000000 
#    z 0.000000 0.000000 1.733020 
# 
# From -- ./inp_files/39846.got.cif
#   From: 2010.03.12/outbox.cif.g09.slc.cpg/sg65_20_cif.got.tgz:39846.got - 2010.04.10 20:52:16.
