data_PCOD8272788
_publ_section_title
;
Structure prediction by ZEFSAII (Michael W. Deem and Ramdas Pophale) SiO2 
 PCOD8272788
Probable space group: C M M M
;
_chemical_formula_sum "Si O2"
_cell_formula_units_Z 96
_cell_length_a 9.178647
_cell_length_b 19.134505
_cell_length_c 30.300657
_cell_angle_alpha 90.000000
_cell_angle_beta 90.000000
_cell_angle_gamma 90.000000
_cell_volume 5321.670056
_symmetry_space_group_name_H-M "C M M M"
_symmetry_group_IT_number 65
_symmetry_cell_setting 'orthorhombic'
loop_
_space_group_symop_operation_xyz
x,y,z
-x,-y,z
x,-y,-z
-x,y,-z
-x,-y,-z
x,y,-z
-x,y,z
x,-y,z
1/2+x,1/2+y,z
1/2-x,1/2-y,z
1/2+x,1/2-y,-z
1/2-x,1/2+y,-z
1/2-x,1/2-y,-z
1/2+x,1/2+y,-z
1/2-x,1/2+y,z
1/2+x,1/2-y,z
loop_
_atom_site_type_symbol
_atom_site_label
_atom_site_fract_x
_atom_site_fract_y
_atom_site_fract_z
Si Si1 0.666841 0.583219 0.858184
Si Si2 0.169736 0.320319 0.308200
Si Si3 0.669507 0.319138 0.549733
Si Si4 0.668975 0.180327 0.205541
Si Si5 0.330358 0.580715 0.627655
Si Si6 0.827156 0.921805 0.046671
O O1 0.500000 0.605403 0.848935
O O2 0.682062 0.500000 0.857063
O O3 0.769732 0.614534 0.820895
O O4 0.721390 0.612549 0.906603
O O5 0.250000 0.250000 0.324149
O O6 0.198254 0.334107 0.256824
O O7 0.235422 0.386396 0.333408
O O8 0.000000 0.312170 0.319165
O O9 0.719374 0.338533 0.500000
O O10 0.500000 0.302154 0.551425
O O11 0.750000 0.250000 0.567014
O O12 0.710242 0.383652 0.581110
O O13 0.500000 0.189739 0.195181
O O14 0.750000 0.250000 0.189541
O O15 0.500000 0.590955 0.639111
O O16 0.288149 0.500000 0.623480
O O17 0.000000 0.925721 0.048427
O O18 0.763646 0.000000 0.045026
O O19 0.778305 0.883863 0.000000
#
# Coordination Sequence:
#
# PCOD8272788 Si02
#       6
#    16  16  16  16  16  16
#     4   9  17  29  48  75 103 130 161 199 244 292
#     4  10  21  37  56  75  96 127 167 208 250 297
#     4   9  18  33  53  76 102 134 172 210 246 288
#     4  10  21  36  53  72  96 128 165 205 249 297
#     4  10  21  35  52  77 107 137 168 204 248 294
#     4   7  10  19  38  65  95 125 158 195 234 280
#
# _framework density 18.039449999999999
#
# number of rings (size 3 to 8) (size 9 to 14) (size 15 to 20)
#    0.000    2.833    0.000    3.000    0.000    5.667 
#    0.000    5.000    0.000    1.000    0.000    5.833 
#    0.000    0.000    0.000    0.000    0.000    0.000 
#
# Total GULP energy -594879.239637 kJ/mol
# GULP energy per Si atom -12393.317492 kJ/mol
# Density = 1.799839 g / cm^3
# Si number density = 18.039450 Si / 1000 Ang^3
#
#
#
# Elastic Constant Matrix: (Units=GPa)
#
#
# Indices 1 2 3 4 5 6 
#
# 1 73.7696 49.3583 56.7073 0.0000 0.0000 0.0000
# 2 49.3583 100.1076 64.0126 0.0000 0.0000 0.0000
# 3 56.7073 64.0126 105.7351 0.0000 0.0000 0.0000
# 4 0.0000 0.0000 0.0000 17.4183 0.0000 0.0000
# 5 0.0000 0.0000 0.0000 0.0000 17.8260 0.0000
# 6 0.0000 0.0000 0.0000 0.0000 0.0000 28.6513
#
#
#
# Elastic Compliance Matrix: (Units=1/GPa)
#
#
# Indices 1 2 3 4 5 6 
#
# 1 0.025204 -0.006173 -0.009780 0.000000 0.000000 0.000000
# 2 -0.006173 0.017811 -0.007472 0.000000 0.000000 0.000000
# 3 -0.009780 -0.007472 0.019226 0.000000 0.000000 0.000000
# 4 0.000000 0.000000 0.000000 0.057411 0.000000 0.000000
# 5 0.000000 0.000000 0.000000 0.000000 0.056098 0.000000
# 6 0.000000 0.000000 0.000000 0.000000 0.000000 0.034902
#
#
# Mechanical properties :
#
#
# Convention : Reuss Voigt Hill
#
# Bulk Modulus (GPa) = 64.97375 68.86318 66.91846
# Shear Modulus (GPa) = 19.03794 20.08139 19.55966
#
# Velocity S-wave (km/s) = 3.25214 3.34007 3.29640
# Velocity P-wave (km/s) = 7.08503 7.28912 7.18780
#
# Compressibility (1/GPa) = 0.01539083
#
# Stress axis : x y z
#
# Youngs Moduli (GPa) = 39.67599 56.14550 52.01192
#
# Poissons Ratio (x) = 0.34660 0.50868
# Poissons Ratio (y) = 0.24493 0.38863
# Poissons Ratio (z) = 0.38803 0.41952
#
# Static dielectric constant tensor:
#      x y z
#    x 3.166020 0.000000 0.000000 
#    y 0.000000 3.092230 0.000000 
#    z 0.000000 0.000000 3.732040 
# 
# 
# High freq. dielectric constant tensor:
#      x y z
#    x 1.680650 0.000000 0.000000 
#    y 0.000000 1.670050 0.000000 
#    z 0.000000 0.000000 1.718200 
# 
# From -- ./inp_files/73205.got.cif
#   From: 2010.03.12/outbox.cif.g09.slc.cpg/sg65_37_cif.got.tgz:73205.got - 2010.04.10 20:52:16.
