data_PCOD8272354
_publ_section_title
;
Structure prediction by ZEFSAII (Michael W. Deem and Ramdas Pophale) SiO2 
 PCOD8272354
Probable space group: C M M M
;
_chemical_formula_sum "Si O2"
_cell_formula_units_Z 88
_cell_length_a 25.225897
_cell_length_b 15.108785
_cell_length_c 11.935375
_cell_angle_alpha 90.000000
_cell_angle_beta 90.000000
_cell_angle_gamma 90.000000
_cell_volume 4548.961153
_symmetry_space_group_name_H-M "C M M M"
_symmetry_group_IT_number 65
_symmetry_cell_setting 'orthorhombic'
loop_
_space_group_symop_operation_xyz
x,y,z
-x,-y,z
x,-y,-z
-x,y,-z
-x,-y,-z
x,y,-z
-x,y,z
x,-y,z
1/2+x,1/2+y,z
1/2-x,1/2-y,z
1/2+x,1/2-y,-z
1/2-x,1/2+y,-z
1/2-x,1/2-y,-z
1/2+x,1/2+y,-z
1/2-x,1/2+y,z
1/2+x,1/2-y,z
loop_
_atom_site_type_symbol
_atom_site_label
_atom_site_fract_x
_atom_site_fract_y
_atom_site_fract_z
Si Si1 0.128026 0.332171 0.710554
Si Si2 0.291832 0.500000 0.867160
Si Si3 0.613562 0.401203 0.500000
Si Si4 0.088945 0.000000 0.133404
Si Si5 0.812726 0.260694 0.500000
Si Si6 0.222322 0.660410 0.867457
Si Si7 0.940243 0.160084 0.279219
Si Si8 0.937768 0.500000 0.632646
O O1 0.167035 0.314946 0.606854
O O2 0.164438 0.355231 0.816553
O O3 0.095183 0.245643 0.745028
O O4 0.088545 0.412663 0.685046
O O5 0.351020 0.500000 0.820004
O O6 0.261548 0.585427 0.821708
O O7 0.293533 0.500000 0.000000
O O8 0.636519 0.500000 0.500000
O O9 0.663928 0.337638 0.500000
O O10 0.576680 0.387086 0.393056
O O11 0.062116 0.910569 0.178247
O O12 0.084595 0.000000 0.000000
O O13 0.750000 0.250000 0.500000
O O14 0.250000 0.750000 0.826244
O O15 0.215105 0.657714 0.000000
O O16 0.000000 0.194040 0.291813
O O17 0.928966 0.500000 0.500000
O O18 0.000000 0.500000 0.662587
#
# Coordination Sequence:
#
# PCOD8272354 Si02
#       8
#    16   8   8   8   8  16  16   8
#     4  11  22  40  60  89 123 154 202 254 306 363
#     4   9  19  36  56  82 111 148 196 235 277 338
#     4  10  21  40  59  83 111 152 201 241 278 345
#     4  11  23  38  58  89 127 156 193 244 297 364
#     4  10  22  38  56  87 125 157 191 242 308 369
#     4  10  20  36  61  88 116 157 200 240 290 356
#     4  11  23  38  60  85 115 156 199 244 294 346
#     4  11  23  42  65  89 118 158 212 266 315 371
#
# _framework density 19.345075999999999
#
# number of rings (size 3 to 8) (size 9 to 14) (size 15 to 20)
#    0.000    1.545    1.818    3.273    0.000    4.727 
#    1.636    0.000    0.000    2.182    0.000    0.000 
#    0.000    0.000    0.000    0.000    0.000    0.000 
#
# Total GULP energy -545751.770317 kJ/mol
# GULP energy per Si atom -12403.449325 kJ/mol
# Density = 1.930105 g / cm^3
# Si number density = 19.345076 Si / 1000 Ang^3
#
#
#
# Elastic Constant Matrix: (Units=GPa)
#
#
# Indices 1 2 3 4 5 6 
#
# 1 141.7521 43.0054 33.8438 0.0000 0.0000 0.0000
# 2 43.0054 117.2901 24.9563 0.0000 0.0000 0.0000
# 3 33.8438 24.9563 68.8263 0.0000 0.0000 0.0000
# 4 0.0000 0.0000 0.0000 -2.1773 0.0000 0.0000
# 5 0.0000 0.0000 0.0000 0.0000 23.2667 0.0000
# 6 0.0000 0.0000 0.0000 0.0000 0.0000 33.1992
#
#
#
# Elastic Compliance Matrix: (Units=1/GPa)
#
#
# Indices 1 2 3 4 5 6 
#
# 1 0.008592 -0.002440 -0.003340 0.000000 0.000000 0.000000
# 2 -0.002440 0.009931 -0.002401 0.000000 0.000000 0.000000
# 3 -0.003340 -0.002401 0.017043 0.000000 0.000000 0.000000
# 4 0.000000 0.000000 0.000000 -0.459280 0.000000 0.000000
# 5 0.000000 0.000000 0.000000 0.000000 0.042980 0.000000
# 6 0.000000 0.000000 0.000000 0.000000 0.000000 0.030121
#
#
# Mechanical properties :
#
#
# Convention : Reuss Voigt Hill
#
# Bulk Modulus (GPa) = 52.07464 59.05328 55.56396
# Shear Modulus (GPa) = -15.25095 25.92859 5.33882
#
# Velocity S-wave (km/s) = -2.81083 3.66501 1.66306
# Velocity P-wave (km/s) = 4.05499 6.96436 5.69847
#
# Compressibility (1/GPa) = 0.01920321
#
# Stress axis : x y z
#
# Youngs Moduli (GPa) = 116.38376 100.69119 58.67625
#
# Poissons Ratio (x) = 0.24565 0.19600
# Poissons Ratio (y) = 0.28394 0.14091
# Poissons Ratio (z) = 0.38877 0.24180
#
# Static dielectric constant tensor:
#      x y z
#    x 3.581170 0.000000 0.000000 
#    y 0.000000 3.670630 0.000000 
#    z 0.000000 0.000000 3.430850 
# 
# 
# High freq. dielectric constant tensor:
#      x y z
#    x 1.762200 0.000000 0.000000 
#    y 0.000000 1.764010 0.000000 
#    z 0.000000 0.000000 1.746150 
# 
# From -- ./inp_files/30610.got.cif
#   From: 2010.03.12/outbox.cif.g09.slc.cpg/sg65_16_cif.got.tgz:30610.got - 2010.04.10 20:52:16.
