data_PCOD8272556
_publ_section_title
;
Structure prediction by ZEFSAII (Michael W. Deem and Ramdas Pophale) SiO2 
 PCOD8272556
Probable space group: C M M M
;
_chemical_formula_sum "Si O2"
_cell_formula_units_Z 64
_cell_length_a 26.034214
_cell_length_b 14.777731
_cell_length_c 8.565354
_cell_angle_alpha 90.000000
_cell_angle_beta 90.000000
_cell_angle_gamma 90.000000
_cell_volume 3295.319619
_symmetry_space_group_name_H-M "C M M M"
_symmetry_group_IT_number 65
_symmetry_cell_setting 'orthorhombic'
loop_
_space_group_symop_operation_xyz
x,y,z
-x,-y,z
x,-y,-z
-x,y,-z
-x,-y,-z
x,y,-z
-x,y,z
x,-y,z
1/2+x,1/2+y,z
1/2-x,1/2-y,z
1/2+x,1/2-y,-z
1/2-x,1/2+y,-z
1/2-x,1/2-y,-z
1/2+x,1/2+y,-z
1/2-x,1/2+y,z
1/2+x,1/2-y,z
loop_
_atom_site_type_symbol
_atom_site_label
_atom_site_fract_x
_atom_site_fract_y
_atom_site_fract_z
Si Si1 0.056260 0.000000 0.315502
Si Si2 0.000000 0.396780 0.315497
Si Si3 0.137118 0.144349 0.314803
Si Si4 0.212080 0.000000 0.814151
Si Si5 0.171476 0.500000 0.185019
Si Si6 0.894485 0.332299 0.184470
O O1 0.086526 0.910739 0.261871
O O2 0.051390 0.000000 0.500000
O O3 0.000000 0.000000 0.236656
O O4 0.950637 0.341603 0.258380
O O5 0.000000 0.500000 0.249085
O O6 0.000000 0.398210 0.500000
O O7 0.140927 0.153939 0.500000
O O8 0.133906 0.241296 0.235486
O O9 0.186761 0.091018 0.253312
O O10 0.270465 0.000000 0.752921
O O11 0.207770 0.000000 0.000000
O O12 0.141510 0.587495 0.248404
O O13 0.171930 0.500000 0.000000
O O14 0.900482 0.335492 0.000000
#
# Coordination Sequence:
#
# PCOD8272556 Si02
#       6
#     8   8  16   8   8  16
#     4   8  16  32  53  75 106 149 187 226 281 343
#     4  11  23  39  59  86 121 158 193 239 301 356
#     4  10  21  37  57  86 120 152 192 244 301 352
#     4  10  20  40  64  84 112 155 202 246 294 352
#     4   9  21  39  61  85 113 154 202 248 294 346
#     4  11  22  39  61  87 118 156 201 245 290 349
#
# _framework density 19.421485000000001
#
# number of rings (size 3 to 8) (size 9 to 14) (size 15 to 20)
#    0.000    2.000    1.250    3.000    1.750    1.500 
#    0.000   10.000    0.000    2.250    0.000    0.000 
#    0.000    0.000    0.000    0.000    0.000    0.000 
#
# Total GULP energy -396861.035581 kJ/mol
# GULP energy per Si atom -12401.907362 kJ/mol
# Density = 1.937728 g / cm^3
# Si number density = 19.421485 Si / 1000 Ang^3
#
#
#
# Elastic Constant Matrix: (Units=GPa)
#
#
# Indices 1 2 3 4 5 6 
#
# 1 170.9138 71.2024 26.8784 0.0000 0.0000 0.0000
# 2 71.2024 162.0253 25.6917 0.0000 0.0000 0.0000
# 3 26.8784 25.6917 59.5847 0.0000 0.0000 0.0000
# 4 0.0000 0.0000 0.0000 32.6546 0.0000 0.0000
# 5 0.0000 0.0000 0.0000 0.0000 19.0700 0.0000
# 6 0.0000 0.0000 0.0000 0.0000 0.0000 102.4215
#
#
#
# Elastic Compliance Matrix: (Units=1/GPa)
#
#
# Indices 1 2 3 4 5 6 
#
# 1 0.007394 -0.002920 -0.002076 0.000000 0.000000 0.000000
# 2 -0.002920 0.007778 -0.002037 0.000000 0.000000 0.000000
# 3 -0.002076 -0.002037 0.018598 0.000000 0.000000 0.000000
# 4 0.000000 0.000000 0.000000 0.030624 0.000000 0.000000
# 5 0.000000 0.000000 0.000000 0.000000 0.052438 0.000000
# 6 0.000000 0.000000 0.000000 0.000000 0.000000 0.009764
#
#
# Mechanical properties :
#
#
# Convention : Reuss Voigt Hill
#
# Bulk Modulus (GPa) = 50.75167 71.11877 60.93522
# Shear Modulus (GPa) = 33.96079 48.74597 41.35338
#
# Velocity S-wave (km/s) = 4.18619 5.01532 4.61940
# Velocity P-wave (km/s) = 7.03946 8.38070 7.73919
#
# Compressibility (1/GPa) = 0.01970378
#
# Stress axis : x y z
#
# Youngs Moduli (GPa) = 135.24641 128.56753 53.77051
#
# Poissons Ratio (x) = 0.37542 0.11164
# Poissons Ratio (y) = 0.39493 0.10950
# Poissons Ratio (z) = 0.28081 0.26183
#
# Static dielectric constant tensor:
#      x y z
#    x 3.797400 0.000000 0.000000 
#    y 0.000000 4.903700 0.000000 
#    z 0.000000 0.000000 3.376670 
# 
# 
# High freq. dielectric constant tensor:
#      x y z
#    x 1.763330 0.000000 0.000000 
#    y 0.000000 1.764360 0.000000 
#    z 0.000000 0.000000 1.746180 
# 
# From -- ./inp_files/13432.got.cif
#   From: 2010.03.12/outbox.cif.g09.slc.cpg/sg65_7_cif.got.tgz:13432.got - 2010.04.10 20:52:16.
