data_PCOD8272472
_publ_section_title
;
Structure prediction by ZEFSAII (Michael W. Deem and Ramdas Pophale) SiO2 
 PCOD8272472
Probable space group: C M M M
;
_chemical_formula_sum "Si O2"
_cell_formula_units_Z 48
_cell_length_a 8.648613
_cell_length_b 34.651580
_cell_length_c 7.919712
_cell_angle_alpha 90.000000
_cell_angle_beta 90.000000
_cell_angle_gamma 90.000000
_cell_volume 2373.443483
_symmetry_space_group_name_H-M "C M M M"
_symmetry_group_IT_number 65
_symmetry_cell_setting 'orthorhombic'
loop_
_space_group_symop_operation_xyz
x,y,z
-x,-y,z
x,-y,-z
-x,y,-z
-x,-y,-z
x,y,-z
-x,y,z
x,-y,z
1/2+x,1/2+y,z
1/2-x,1/2-y,z
1/2+x,1/2-y,-z
1/2-x,1/2+y,-z
1/2-x,1/2-y,-z
1/2+x,1/2+y,-z
1/2-x,1/2+y,z
1/2+x,1/2-y,z
loop_
_atom_site_type_symbol
_atom_site_label
_atom_site_fract_x
_atom_site_fract_y
_atom_site_fract_z
Si Si1 0.826168 0.500000 0.301896
Si Si2 0.682206 0.707673 0.000000
Si Si3 0.321012 0.080278 0.193392
Si Si4 0.317741 0.161069 0.689925
O O1 0.828729 0.500000 0.500000
O O2 0.739807 0.539230 0.239391
O O3 0.000000 0.500000 0.225452
O O4 0.750000 0.750000 0.000000
O O5 0.734159 0.686951 0.171692
O O6 0.500000 0.710034 0.000000
O O7 0.500000 0.075543 0.240648
O O8 0.255649 0.116834 0.297152
O O9 0.292812 0.090427 0.000000
O O10 0.281501 0.176131 0.500000
O O11 0.500000 0.162314 0.728750
#
# Coordination Sequence:
#
# PCOD8272472 Si02
#       4
#     8   8  16  16
#     4   9  15  21  33  65 111 154 195 237 285 335
#     4  12  26  44  66  89 118 151 189 238 293 354
#     4   9  15  25  44  72 111 154 195 238 287 339
#     4  10  20  37  62  90 121 157 196 241 294 350
#
# _framework density 20.223780999999999
#
# number of rings (size 3 to 8) (size 9 to 14) (size 15 to 20)
#    0.000    2.167    1.667    3.000    0.000    7.333 
#    0.000    0.000    0.000    0.000    0.000    2.333 
#    0.000    4.000    0.000    0.000    0.000    0.000 
#
# Total GULP energy -297419.001362 kJ/mol
# GULP energy per Si atom -12392.458390 kJ/mol
# Density = 2.017775 g / cm^3
# Si number density = 20.223781 Si / 1000 Ang^3
#
#
#
# Elastic Constant Matrix: (Units=GPa)
#
#
# Indices 1 2 3 4 5 6 
#
# 1 58.9398 49.2125 40.0173 0.0000 0.0000 0.0000
# 2 49.2125 174.2700 86.3249 0.0000 0.0000 0.0000
# 3 40.0173 86.3249 120.4692 0.0000 0.0000 0.0000
# 4 0.0000 0.0000 0.0000 19.6423 0.0000 0.0000
# 5 0.0000 0.0000 0.0000 0.0000 18.4306 0.0000
# 6 0.0000 0.0000 0.0000 0.0000 0.0000 14.7796
#
#
#
# Elastic Compliance Matrix: (Units=1/GPa)
#
#
# Indices 1 2 3 4 5 6 
#
# 1 0.023869 -0.004361 -0.004804 0.000000 0.000000 0.000000
# 2 -0.004361 0.009693 -0.005497 0.000000 0.000000 0.000000
# 3 -0.004804 -0.005497 0.013836 0.000000 0.000000 0.000000
# 4 0.000000 0.000000 0.000000 0.050910 0.000000 0.000000
# 5 0.000000 0.000000 0.000000 0.000000 0.054257 0.000000
# 6 0.000000 0.000000 0.000000 0.000000 0.000000 0.067661
#
#
# Mechanical properties :
#
#
# Convention : Reuss Voigt Hill
#
# Bulk Modulus (GPa) = 55.32805 78.30983 66.81894
# Shear Modulus (GPa) = 19.56381 22.44549 21.00465
#
# Velocity S-wave (km/s) = 3.11363 3.33506 3.22625
# Velocity P-wave (km/s) = 6.35166 7.32366 6.85491
#
# Compressibility (1/GPa) = 0.01807401
#
# Stress axis : x y z
#
# Youngs Moduli (GPa) = 41.89492 103.17199 72.27758
#
# Poissons Ratio (x) = 0.44991 0.34722
# Poissons Ratio (y) = 0.18270 0.39730
# Poissons Ratio (z) = 0.20126 0.56712
#
# Static dielectric constant tensor:
#      x y z
#    x 3.053220 0.000000 0.000000 
#    y 0.000000 4.055970 0.000000 
#    z 0.000000 0.000000 3.702810 
# 
# 
# High freq. dielectric constant tensor:
#      x y z
#    x 1.710310 0.000000 0.000000 
#    y 0.000000 1.810200 0.000000 
#    z 0.000000 0.000000 1.803780 
# 
# From -- ./inp_files/3067.got.cif
#   From: 2010.03.12/outbox.cif.g09.slc.cpg/sg65_2_cif.got.tgz:3067.got - 2010.04.10 20:52:16.
