data_PCOD8272079
_publ_section_title
;
Structure prediction by ZEFSAII (Michael W. Deem and Ramdas Pophale) SiO2 
 PCOD8272079
Probable space group: C M M M
;
_chemical_formula_sum "Si O2"
_cell_formula_units_Z 104
_cell_length_a 19.129313
_cell_length_b 30.978956
_cell_length_c 9.041609
_cell_angle_alpha 90.000000
_cell_angle_beta 90.000000
_cell_angle_gamma 90.000000
_cell_volume 5358.113061
_symmetry_space_group_name_H-M "C M M M"
_symmetry_group_IT_number 65
_symmetry_cell_setting 'orthorhombic'
loop_
_space_group_symop_operation_xyz
x,y,z
-x,-y,z
x,-y,-z
-x,y,-z
-x,-y,-z
x,y,-z
-x,y,z
x,-y,z
1/2+x,1/2+y,z
1/2-x,1/2-y,z
1/2+x,1/2-y,-z
1/2-x,1/2+y,-z
1/2-x,1/2-y,-z
1/2+x,1/2+y,-z
1/2-x,1/2+y,z
1/2+x,1/2-y,z
loop_
_atom_site_type_symbol
_atom_site_label
_atom_site_fract_x
_atom_site_fract_y
_atom_site_fract_z
Si Si1 0.710762 0.793448 0.825937
Si Si2 0.077359 0.410440 0.832471
Si Si3 0.082993 0.000000 0.164914
Si Si4 0.715238 0.372225 0.329376
Si Si5 0.578200 0.584407 0.330041
Si Si6 0.218329 0.451228 0.169451
Si Si7 0.579133 0.177403 0.673716
O O1 0.750000 0.750000 0.779941
O O2 0.755362 0.833740 0.768336
O O3 0.633788 0.790990 0.753872
O O4 0.702514 0.798256 0.000000
O O5 0.134176 0.447925 0.810216
O O6 0.095819 0.371231 0.723440
O O7 0.000000 0.429117 0.797283
O O8 0.080330 0.392206 0.000000
O O9 0.109733 0.043438 0.242637
O O10 0.000000 0.000000 0.168749
O O11 0.113639 0.000000 0.000000
O O12 0.734845 0.363855 0.500000
O O13 0.630877 0.375307 0.307439
O O14 0.745874 0.418107 0.280338
O O15 0.575467 0.570287 0.500000
O O16 0.500000 0.597469 0.274915
O O17 0.241326 0.500000 0.209693
O O18 0.238654 0.440231 0.000000
O O19 0.590759 0.180734 0.500000
O O20 0.500000 0.190627 0.718021
#
# Coordination Sequence:
#
# PCOD8272079 Si02
#       7
#    16  16   8  16  16  16  16
#     4  11  24  42  64  89 117 151 190 235 290 352
#     4   9  17  31  53  79 111 154 198 238 280 329
#     4   9  17  29  49  79 109 141 186 235 278 325
#     4  11  23  38  59  84 112 149 191 240 293 346
#     4   9  19  36  55  76 107 148 190 231 282 343
#     4  10  21  35  52  79 117 159 197 237 285 339
#     4  10  20  35  59  90 120 151 190 236 284 337
#
# _framework density 19.409818999999999
#
# number of rings (size 3 to 8) (size 9 to 14) (size 15 to 20)
#    0.000    2.077    1.538    1.615    1.077    4.923 
#    0.000    2.308    0.000    2.769    0.000    3.231 
#    0.000    0.000    0.000    0.000    0.000    0.000 
#
# Total GULP energy -644732.820005 kJ/mol
# GULP energy per Si atom -12398.708077 kJ/mol
# Density = 1.936564 g / cm^3
# Si number density = 19.409819 Si / 1000 Ang^3
#
#
#
# Elastic Constant Matrix: (Units=GPa)
#
#
# Indices 1 2 3 4 5 6 
#
# 1 95.2331 45.5255 36.9480 0.0000 0.0000 0.0000
# 2 45.5255 87.8831 36.5109 0.0000 0.0000 0.0000
# 3 36.9480 36.5109 76.9678 0.0000 0.0000 0.0000
# 4 0.0000 0.0000 0.0000 13.0726 0.0000 0.0000
# 5 0.0000 0.0000 0.0000 0.0000 25.9161 0.0000
# 6 0.0000 0.0000 0.0000 0.0000 0.0000 30.0882
#
#
#
# Elastic Compliance Matrix: (Units=1/GPa)
#
#
# Indices 1 2 3 4 5 6 
#
# 1 0.015063 -0.005977 -0.004396 0.000000 0.000000 0.000000
# 2 -0.005977 0.016543 -0.004978 0.000000 0.000000 0.000000
# 3 -0.004396 -0.004978 0.017464 0.000000 0.000000 0.000000
# 4 0.000000 0.000000 0.000000 0.076496 0.000000 0.000000
# 5 0.000000 0.000000 0.000000 0.000000 0.038586 0.000000
# 6 0.000000 0.000000 0.000000 0.000000 0.000000 0.033236
#
#
# Mechanical properties :
#
#
# Convention : Reuss Voigt Hill
#
# Bulk Modulus (GPa) = 54.44093 55.33920 54.89006
# Shear Modulus (GPa) = 21.34807 23.22200 22.28504
#
# Velocity S-wave (km/s) = 3.32001 3.46266 3.39209
# Velocity P-wave (km/s) = 6.54260 6.67529 6.60928
#
# Compressibility (1/GPa) = 0.01836853
#
# Stress axis : x y z
#
# Youngs Moduli (GPa) = 66.38695 60.44797 57.26003
#
# Poissons Ratio (x) = 0.36129 0.25170
# Poissons Ratio (y) = 0.39679 0.28506
# Poissons Ratio (z) = 0.29182 0.30093
#
# Static dielectric constant tensor:
#      x y z
#    x 3.952620 0.000000 0.000000 
#    y 0.000000 3.239540 0.000000 
#    z 0.000000 0.000000 3.579020 
# 
# 
# High freq. dielectric constant tensor:
#      x y z
#    x 1.778420 0.000000 0.000000 
#    y 0.000000 1.718090 0.000000 
#    z 0.000000 0.000000 1.757910 
# 
# From -- ./inp_files/12419.got.cif
#   From: 2010.03.12/outbox.cif.g09.slc.cpg/sg65_7_cif.got.tgz:12419.got - 2010.04.10 20:52:16.
