data_PCOD8272622
_publ_section_title
;
Structure prediction by ZEFSAII (Michael W. Deem and Ramdas Pophale) SiO2 
 PCOD8272622
Probable space group: C M M M
;
_chemical_formula_sum "Si O2"
_cell_formula_units_Z 88
_cell_length_a 28.098917
_cell_length_b 9.160845
_cell_length_c 19.181816
_cell_angle_alpha 90.000000
_cell_angle_beta 90.000000
_cell_angle_gamma 90.000000
_cell_volume 4937.587867
_symmetry_space_group_name_H-M "C M M M"
_symmetry_group_IT_number 65
_symmetry_cell_setting 'orthorhombic'
loop_
_space_group_symop_operation_xyz
x,y,z
-x,-y,z
x,-y,-z
-x,y,-z
-x,-y,-z
x,y,-z
-x,y,z
x,-y,z
1/2+x,1/2+y,z
1/2-x,1/2-y,z
1/2+x,1/2-y,-z
1/2-x,1/2+y,-z
1/2-x,1/2-y,-z
1/2+x,1/2+y,-z
1/2-x,1/2+y,z
1/2+x,1/2-y,z
loop_
_atom_site_type_symbol
_atom_site_label
_atom_site_fract_x
_atom_site_fract_y
_atom_site_fract_z
Si Si1 0.872726 0.831910 0.579565
Si Si2 0.445380 0.669345 0.302764
Si Si3 0.000000 0.829105 0.079360
Si Si4 0.299679 0.169939 0.329037
Si Si5 0.372716 0.830490 0.791152
Si Si6 0.896720 0.173212 0.919559
O O1 0.883664 0.790309 0.500000
O O2 0.920851 0.800708 0.622617
O O3 0.829528 0.733253 0.606540
O O4 0.857074 0.000000 0.587416
O O5 0.500000 0.720151 0.307835
O O6 0.441661 0.500000 0.281764
O O7 0.419489 0.761240 0.243326
O O8 0.050658 0.772589 0.108210
O O9 0.000000 0.000000 0.089274
O O10 0.000000 0.784503 0.000000
O O11 0.250000 0.250000 0.323405
O O12 0.327105 0.198869 0.256884
O O13 0.291293 0.000000 0.342870
O O14 0.361433 0.755217 0.866266
O O15 0.382186 0.000000 0.802532
O O16 0.890751 0.000000 0.912973
O O17 0.887310 0.219891 0.000000
#
# Coordination Sequence:
#
# PCOD8272622 Si02
#       6
#    16  16   8  16  16  16
#     4   9  18  33  53  78 106 133 165 206 249 295
#     4   9  18  32  50  72 100 138 178 209 240 284
#     4   7  12  24  41  63  91 123 160 197 230 269
#     4  10  21  37  56  76  99 129 165 206 254 305
#     4  10  21  34  49  73 103 132 164 208 257 301
#     4   9  17  30  49  72  99 133 171 208 246 292
#
# _framework density 17.822468000000001
#
# number of rings (size 3 to 8) (size 9 to 14) (size 15 to 20)
#    0.000    2.818    0.000    2.182    1.273    4.000 
#    0.000    1.818    0.000    2.182    0.000    5.091 
#    0.000    0.000    0.000    0.000    0.000    0.000 
#
# Total GULP energy -545308.418851 kJ/mol
# GULP energy per Si atom -12393.373156 kJ/mol
# Density = 1.778190 g / cm^3
# Si number density = 17.822468 Si / 1000 Ang^3
#
#
#
# Elastic Constant Matrix: (Units=GPa)
#
#
# Indices 1 2 3 4 5 6 
#
# 1 100.6524 49.5727 41.3303 0.0000 0.0000 0.0000
# 2 49.5727 78.9403 55.8048 0.0000 0.0000 0.0000
# 3 41.3303 55.8048 128.7456 0.0000 0.0000 0.0000
# 4 0.0000 0.0000 0.0000 25.7291 0.0000 0.0000
# 5 0.0000 0.0000 0.0000 0.0000 14.2138 0.0000
# 6 0.0000 0.0000 0.0000 0.0000 0.0000 25.0096
#
#
#
# Elastic Compliance Matrix: (Units=1/GPa)
#
#
# Indices 1 2 3 4 5 6 
#
# 1 0.014476 -0.008370 -0.001019 0.000000 0.000000 0.000000
# 2 -0.008370 0.023104 -0.007327 0.000000 0.000000 0.000000
# 3 -0.001019 -0.007327 0.011270 0.000000 0.000000 0.000000
# 4 0.000000 0.000000 0.000000 0.038866 0.000000 0.000000
# 5 0.000000 0.000000 0.000000 0.000000 0.070354 0.000000
# 6 0.000000 0.000000 0.000000 0.000000 0.000000 0.039985
#
#
# Mechanical properties :
#
#
# Convention : Reuss Voigt Hill
#
# Bulk Modulus (GPa) = 64.86284 66.86154 65.86219
# Shear Modulus (GPa) = 21.13019 23.76588 22.44803
#
# Velocity S-wave (km/s) = 3.44698 3.65564 3.55284
# Velocity P-wave (km/s) = 7.23292 7.44413 7.33928
#
# Compressibility (1/GPa) = 0.01541715
#
# Stress axis : x y z
#
# Youngs Moduli (GPa) = 69.07932 43.28244 88.72742
#
# Poissons Ratio (x) = 0.36229 0.09042
# Poissons Ratio (y) = 0.57821 0.65014
# Poissons Ratio (z) = 0.07040 0.31715
#
# Static dielectric constant tensor:
#      x y z
#    x 3.299690 0.000000 0.000000 
#    y 0.000000 3.215030 0.000000 
#    z 0.000000 0.000000 3.392100 
# 
# 
# High freq. dielectric constant tensor:
#      x y z
#    x 1.670730 0.000000 0.000000 
#    y 0.000000 1.678470 0.000000 
#    z 0.000000 0.000000 1.696770 
# 
# From -- ./inp_files/57976.got.cif
#   From: 2010.03.12/outbox.cif.g09.slc.cpg/sg65_29_cif.got.tgz:57976.got - 2010.04.10 20:52:16.
