data_PCOD8272287
_publ_section_title
;
Structure prediction by ZEFSAII (Michael W. Deem and Ramdas Pophale) SiO2 
 PCOD8272287
Probable space group: C M M M
;
_chemical_formula_sum "Si O2"
_cell_formula_units_Z 88
_cell_length_a 27.206074
_cell_length_b 19.057799
_cell_length_c 8.921274
_cell_angle_alpha 90.000000
_cell_angle_beta 90.000000
_cell_angle_gamma 90.000000
_cell_volume 4625.572531
_symmetry_space_group_name_H-M "C M M M"
_symmetry_group_IT_number 65
_symmetry_cell_setting 'orthorhombic'
loop_
_space_group_symop_operation_xyz
x,y,z
-x,-y,z
x,-y,-z
-x,y,-z
-x,-y,-z
x,y,-z
-x,y,z
x,-y,z
1/2+x,1/2+y,z
1/2-x,1/2-y,z
1/2+x,1/2-y,-z
1/2-x,1/2+y,-z
1/2-x,1/2-y,-z
1/2+x,1/2+y,-z
1/2-x,1/2+y,z
1/2+x,1/2-y,z
loop_
_atom_site_type_symbol
_atom_site_label
_atom_site_fract_x
_atom_site_fract_y
_atom_site_fract_z
Si Si1 0.057568 0.920376 0.669890
Si Si2 0.273292 0.677301 0.677215
Si Si3 0.304487 0.081819 0.825103
Si Si4 0.097339 0.655890 0.822538
Si Si5 0.377149 0.310965 0.824644
Si Si6 0.000000 0.580189 0.178993
O O1 0.071106 0.898195 0.500000
O O2 0.083531 0.870647 0.789251
O O3 0.000000 0.913602 0.696840
O O4 0.074840 0.000000 0.699077
O O5 0.274029 0.673313 0.500000
O O6 0.250000 0.750000 0.735274
O O7 0.241972 0.612769 0.739034
O O8 0.328077 0.670761 0.736627
O O9 0.354614 0.115754 0.761328
O O10 0.306814 0.000000 0.792006
O O11 0.298216 0.098583 0.000000
O O12 0.100429 0.736664 0.770946
O O13 0.048137 0.619959 0.756379
O O14 0.095604 0.649270 0.000000
O O15 0.365300 0.309452 0.000000
O O16 0.000000 0.500000 0.236621
O O17 0.000000 0.581843 0.000000
#
# Coordination Sequence:
#
# PCOD8272287 Si02
#       6
#    16  16  16  16  16   8
#     4   9  20  40  62  83 113 153 192 232 281 338
#     4  11  23  39  58  80 110 149 193 236 284 340
#     4  10  20  36  59  85 114 149 188 230 281 338
#     4   9  18  31  50  81 117 149 181 223 274 326
#     4  11  22  35  58  87 118 149 184 236 288 337
#     4   9  16  28  48  76 114 153 184 216 263 327
#
# _framework density 19.024673
#
# number of rings (size 3 to 8) (size 9 to 14) (size 15 to 20)
#    0.000    2.091    1.818    2.182    1.273    4.727 
#    0.000    0.909    0.000    0.000    0.000    0.000 
#    0.000    5.091    0.000    0.000    0.000    0.000 
#
# Total GULP energy -545724.194571 kJ/mol
# GULP energy per Si atom -12402.822604 kJ/mol
# Density = 1.898137 g / cm^3
# Si number density = 19.024673 Si / 1000 Ang^3
#
#
#
# Elastic Constant Matrix: (Units=GPa)
#
#
# Indices 1 2 3 4 5 6 
#
# 1 115.1788 70.1915 19.6250 0.0000 0.0000 0.0000
# 2 70.1915 130.2950 37.0387 0.0000 0.0000 0.0000
# 3 19.6250 37.0387 34.8493 0.0000 0.0000 0.0000
# 4 0.0000 0.0000 0.0000 22.6374 0.0000 0.0000
# 5 0.0000 0.0000 0.0000 0.0000 15.9507 0.0000
# 6 0.0000 0.0000 0.0000 0.0000 0.0000 39.7341
#
#
#
# Elastic Compliance Matrix: (Units=1/GPa)
#
#
# Indices 1 2 3 4 5 6 
#
# 1 0.012926 -0.007013 0.000174 0.000000 0.000000 0.000000
# 2 -0.007013 0.014803 -0.011783 0.000000 0.000000 0.000000
# 3 0.000174 -0.011783 0.041120 0.000000 0.000000 0.000000
# 4 0.000000 0.000000 0.000000 0.044175 0.000000 0.000000
# 5 0.000000 0.000000 0.000000 0.000000 0.062693 0.000000
# 6 0.000000 0.000000 0.000000 0.000000 0.000000 0.025167
#
#
# Mechanical properties :
#
#
# Convention : Reuss Voigt Hill
#
# Bulk Modulus (GPa) = 31.64028 59.33707 45.48867
# Shear Modulus (GPa) = 20.10756 25.89564 23.00160
#
# Velocity S-wave (km/s) = 3.25456 3.69339 3.48090
# Velocity P-wave (km/s) = 5.54889 7.03175 6.33386
#
# Compressibility (1/GPa) = 0.03160529
#
# Stress axis : x y z
#
# Youngs Moduli (GPa) = 77.36129 67.55602 24.31903
#
# Poissons Ratio (x) = 0.47378 -0.00424
# Poissons Ratio (y) = 0.54255 0.28655
# Poissons Ratio (z) = -0.01349 0.79602
#
# Static dielectric constant tensor:
#      x y z
#    x 3.628820 0.000000 0.000000 
#    y 0.000000 3.614530 0.000000 
#    z 0.000000 0.000000 3.152360 
# 
# 
# High freq. dielectric constant tensor:
#      x y z
#    x 1.750330 0.000000 0.000000 
#    y 0.000000 1.750900 0.000000 
#    z 0.000000 0.000000 1.707860 
# 
# From -- ./inp_files/13992.got.cif
#   From: 2010.03.12/outbox.cif.g09.slc.cpg/sg65_7_cif.got.tgz:13992.got - 2010.04.10 20:52:16.
