data_PCOD8272945
_publ_section_title
;
Structure prediction by ZEFSAII (Michael W. Deem and Ramdas Pophale) SiO2 
 PCOD8272945
Probable space group: C M M M
;
_chemical_formula_sum "Si O2"
_cell_formula_units_Z 96
_cell_length_a 20.167163
_cell_length_b 27.757618
_cell_length_c 9.204155
_cell_angle_alpha 90.000000
_cell_angle_beta 90.000000
_cell_angle_gamma 90.000000
_cell_volume 5152.416079
_symmetry_space_group_name_H-M "C M M M"
_symmetry_group_IT_number 65
_symmetry_cell_setting 'orthorhombic'
loop_
_space_group_symop_operation_xyz
x,y,z
-x,-y,z
x,-y,-z
-x,y,-z
-x,-y,-z
x,y,-z
-x,y,z
x,-y,z
1/2+x,1/2+y,z
1/2-x,1/2-y,z
1/2+x,1/2-y,-z
1/2-x,1/2+y,-z
1/2-x,1/2-y,-z
1/2+x,1/2+y,-z
1/2-x,1/2+y,z
1/2+x,1/2-y,z
loop_
_atom_site_type_symbol
_atom_site_label
_atom_site_fract_x
_atom_site_fract_y
_atom_site_fract_z
Si Si1 0.193868 0.288421 0.168392
Si Si2 0.075014 0.221407 0.832736
Si Si3 0.923167 0.444923 0.168172
Si Si4 0.186683 0.387401 0.672302
Si Si5 0.813984 0.053614 0.327491
Si Si6 0.424867 0.374534 0.328802
O O1 0.250000 0.250000 0.210435
O O2 0.121927 0.266223 0.203725
O O3 0.202726 0.334794 0.267590
O O4 0.199877 0.303368 0.000000
O O5 0.097962 0.175625 0.740274
O O6 0.000000 0.236923 0.793720
O O7 0.081943 0.206303 0.000000
O O8 0.906304 0.500000 0.210712
O O9 0.881539 0.408261 0.265340
O O10 0.000000 0.434183 0.198834
O O11 0.906417 0.435745 0.000000
O O12 0.181091 0.384496 0.500000
O O13 0.246030 0.421959 0.724320
O O14 0.816329 0.051347 0.500000
O O15 0.877062 0.083563 0.269070
O O16 0.817621 0.000000 0.260814
O O17 0.417742 0.368499 0.500000
O O18 0.500000 0.387681 0.283346
#
# Coordination Sequence:
#
# PCOD8272945 Si02
#       6
#    16  16  16  16  16  16
#     4  10  21  36  53  73  99 134 177 220 259 306
#     4   9  18  33  52  72  96 128 162 199 250 305
#     4   9  19  37  59  80 104 137 175 214 257 307
#     4  11  22  34  52  78 107 138 171 212 264 318
#     4   9  18  32  49  72 104 137 167 203 249 299
#     4   9  17  30  51  77 101 129 168 210 248 290
#
# _framework density 18.632034999999998
#
# number of rings (size 3 to 8) (size 9 to 14) (size 15 to 20)
#    0.000    2.500    0.000    2.500    0.000    3.333 
#    0.000    5.000    0.000    2.500    0.000    2.333 
#    0.000    0.000    0.000    0.000    0.000    0.000 
#
# Total GULP energy -595287.574153 kJ/mol
# GULP energy per Si atom -12401.824462 kJ/mol
# Density = 1.858963 g / cm^3
# Si number density = 18.632035 Si / 1000 Ang^3
#
#
#
# Elastic Constant Matrix: (Units=GPa)
#
#
# Indices 1 2 3 4 5 6 
#
# 1 88.1356 45.3499 32.9826 0.0000 0.0000 0.0000
# 2 45.3499 105.8665 41.7097 0.0000 0.0000 0.0000
# 3 32.9826 41.7097 51.1222 0.0000 0.0000 0.0000
# 4 0.0000 0.0000 0.0000 20.3300 0.0000 0.0000
# 5 0.0000 0.0000 0.0000 0.0000 22.5172 0.0000
# 6 0.0000 0.0000 0.0000 0.0000 0.0000 33.9733
#
#
#
# Elastic Compliance Matrix: (Units=1/GPa)
#
#
# Indices 1 2 3 4 5 6 
#
# 1 0.016097 -0.004132 -0.007014 0.000000 0.000000 0.000000
# 2 -0.004132 0.014981 -0.009557 0.000000 0.000000 0.000000
# 3 -0.007014 -0.009557 0.031884 0.000000 0.000000 0.000000
# 4 0.000000 0.000000 0.000000 0.049188 0.000000 0.000000
# 5 0.000000 0.000000 0.000000 0.000000 0.044410 0.000000
# 6 0.000000 0.000000 0.000000 0.000000 0.000000 0.029435
#
#
# Mechanical properties :
#
#
# Convention : Reuss Voigt Hill
#
# Bulk Modulus (GPa) = 46.39164 53.91209 50.15187
# Shear Modulus (GPa) = 21.31400 23.70291 22.50845
#
# Velocity S-wave (km/s) = 3.38589 3.57060 3.47947
# Velocity P-wave (km/s) = 6.34339 6.78210 6.56641
#
# Compressibility (1/GPa) = 0.02155561
#
# Stress axis : x y z
#
# Youngs Moduli (GPa) = 62.12263 66.75029 31.36396
#
# Poissons Ratio (x) = 0.27582 0.21999
# Poissons Ratio (y) = 0.25669 0.29975
# Poissons Ratio (z) = 0.43574 0.63793
#
# Static dielectric constant tensor:
#      x y z
#    x 3.641230 0.000000 0.000000 
#    y 0.000000 3.468430 0.000000 
#    z 0.000000 0.000000 3.192880 
# 
# 
# High freq. dielectric constant tensor:
#      x y z
#    x 1.737570 0.000000 0.000000 
#    y 0.000000 1.723780 0.000000 
#    z 0.000000 0.000000 1.701350 
# 
# From -- ./inp_files/12234.got.cif
#   From: 2010.03.12/outbox.cif.g09.slc.cpg/sg65_7_cif.got.tgz:12234.got - 2010.04.10 20:52:16.
