data_PCOD8272253
_publ_section_title
;
Structure prediction by ZEFSAII (Michael W. Deem and Ramdas Pophale) SiO2 
 PCOD8272253
Probable space group: C M M M
;
_chemical_formula_sum "Si O2"
_cell_formula_units_Z 80
_cell_length_a 17.739193
_cell_length_b 8.073617
_cell_length_c 27.208049
_cell_angle_alpha 90.000000
_cell_angle_beta 90.000000
_cell_angle_gamma 90.000000
_cell_volume 3896.721818
_symmetry_space_group_name_H-M "C M M M"
_symmetry_group_IT_number 65
_symmetry_cell_setting 'orthorhombic'
loop_
_space_group_symop_operation_xyz
x,y,z
-x,-y,z
x,-y,-z
-x,y,-z
-x,-y,-z
x,y,-z
-x,y,z
x,-y,z
1/2+x,1/2+y,z
1/2-x,1/2-y,z
1/2+x,1/2-y,-z
1/2-x,1/2+y,-z
1/2-x,1/2-y,-z
1/2+x,1/2+y,-z
1/2-x,1/2+y,z
1/2+x,1/2-y,z
loop_
_atom_site_type_symbol
_atom_site_label
_atom_site_fract_x
_atom_site_fract_y
_atom_site_fract_z
Si Si1 0.915338 0.307141 0.000000
Si Si2 0.588305 0.000000 0.443126
Si Si3 0.335904 0.696246 0.388070
Si Si4 0.917014 0.189939 0.101348
Si Si5 0.331836 0.187093 0.193801
Si Si6 0.914269 0.189910 0.285746
O O1 0.875991 0.249544 0.050859
O O2 0.916063 0.500000 0.000000
O O3 0.000000 0.232175 0.000000
O O4 0.619237 0.174022 0.421854
O O5 0.500000 0.000000 0.433561
O O6 0.609935 0.000000 0.500000
O O7 0.347233 0.500000 0.403294
O O8 0.250000 0.750000 0.391724
O O9 0.363053 0.724986 0.332748
O O10 0.863018 0.215382 0.147351
O O11 0.000000 0.277170 0.108688
O O12 0.932082 0.000000 0.095825
O O13 0.250000 0.250000 0.209611
O O14 0.386368 0.200668 0.240546
O O15 0.326674 0.000000 0.176773
O O16 0.000000 0.238459 0.298768
O O17 0.908311 0.000000 0.269141
#
# Coordination Sequence:
#
# PCOD8272253 Si02
#       6
#     8   8  16  16  16  16
#     4   9  17  31  54  83 112 145 188 241 291 353
#     4  11  26  46  70 102 139 181 231 284 337 395
#     4  11  23  43  69 102 137 180 225 278 336 400
#     4  10  20  36  58  83 114 149 191 240 298 361
#     4  12  25  39  57  83 116 158 200 249 305 366
#     4  10  22  40  64  93 126 163 206 256 315 378
#
# _framework density 20.530076000000001
#
# number of rings (size 3 to 8) (size 9 to 14) (size 15 to 20)
#    0.000    1.400    1.000    4.500    1.400    8.800 
#    0.000    1.500    0.000    0.000    0.000    0.000 
#    0.000    0.000    0.000    0.000    0.000    0.000 
#
# Total GULP energy -495866.276750 kJ/mol
# GULP energy per Si atom -12396.656919 kJ/mol
# Density = 2.048335 g / cm^3
# Si number density = 20.530076 Si / 1000 Ang^3
#
#
#
# Elastic Constant Matrix: (Units=GPa)
#
#
# Indices 1 2 3 4 5 6 
#
# 1 73.3312 34.6213 42.0184 0.0000 0.0000 0.0000
# 2 34.6213 116.7019 55.3138 0.0000 0.0000 0.0000
# 3 42.0184 55.3138 136.7212 0.0000 0.0000 0.0000
# 4 0.0000 0.0000 0.0000 38.0983 0.0000 0.0000
# 5 0.0000 0.0000 0.0000 0.0000 754.6352 0.0000
# 6 0.0000 0.0000 0.0000 0.0000 0.0000 24.0224
#
#
#
# Elastic Compliance Matrix: (Units=1/GPa)
#
#
# Indices 1 2 3 4 5 6 
#
# 1 0.017505 -0.003270 -0.004057 0.000000 0.000000 0.000000
# 2 -0.003270 0.011213 -0.003531 0.000000 0.000000 0.000000
# 3 -0.004057 -0.003531 0.009990 0.000000 0.000000 0.000000
# 4 0.000000 0.000000 0.000000 0.026248 0.000000 0.000000
# 5 0.000000 0.000000 0.000000 0.000000 0.001325 0.000000
# 6 0.000000 0.000000 0.000000 0.000000 0.000000 0.041628
#
#
# Mechanical properties :
#
#
# Convention : Reuss Voigt Hill
#
# Bulk Modulus (GPa) = 58.85561 65.62904 62.24232
# Shear Modulus (GPa) = 36.95789 176.33788 106.64788
#
# Velocity S-wave (km/s) = 4.24746 9.27787 7.21526
# Velocity P-wave (km/s) = 7.26531 12.11646 9.98983
#
# Compressibility (1/GPa) = 0.01699073
#
# Stress axis : x y z
#
# Youngs Moduli (GPa) = 57.12563 89.18376 100.10409
#
# Poissons Ratio (x) = 0.29166 0.40610
# Poissons Ratio (y) = 0.18682 0.35350
# Poissons Ratio (z) = 0.23175 0.31494
#
# Static dielectric constant tensor:
#      x y z
#    x 3.660700 0.000000 0.000000 
#    y 0.000000 3.894820 0.000000 
#    z 0.000000 0.000000 3.691040 
# 
# 
# High freq. dielectric constant tensor:
#      x y z
#    x 1.794810 0.000000 0.000000 
#    y 0.000000 1.813490 0.000000 
#    z 0.000000 0.000000 1.808700 
# 
# From -- ./inp_files/75051.got.cif
#   From: 2010.03.12/outbox.cif.g09.slc.cpg/sg65_38_cif.got.tgz:75051.got - 2010.04.10 20:52:16.
