data_PCOD8272285
_publ_section_title
;
Structure prediction by ZEFSAII (Michael W. Deem and Ramdas Pophale) SiO2 
 PCOD8272285
Probable space group: C M M M
;
_chemical_formula_sum "Si O2"
_cell_formula_units_Z 64
_cell_length_a 18.015795
_cell_length_b 8.768471
_cell_length_c 20.817935
_cell_angle_alpha 90.000000
_cell_angle_beta 90.000000
_cell_angle_gamma 90.000000
_cell_volume 3288.629510
_symmetry_space_group_name_H-M "C M M M"
_symmetry_group_IT_number 65
_symmetry_cell_setting 'orthorhombic'
loop_
_space_group_symop_operation_xyz
x,y,z
-x,-y,z
x,-y,-z
-x,y,-z
-x,-y,-z
x,y,-z
-x,y,z
x,-y,z
1/2+x,1/2+y,z
1/2-x,1/2-y,z
1/2+x,1/2-y,-z
1/2-x,1/2+y,-z
1/2-x,1/2-y,-z
1/2+x,1/2+y,-z
1/2-x,1/2+y,z
1/2+x,1/2-y,z
loop_
_atom_site_type_symbol
_atom_site_label
_atom_site_fract_x
_atom_site_fract_y
_atom_site_fract_z
Si Si1 0.329432 0.820327 0.744524
Si Si2 0.911574 0.327771 0.500000
Si Si3 0.087551 0.834151 0.000000
Si Si4 0.911883 0.172541 0.629435
Si Si5 0.915195 0.182261 0.138877
O O1 0.250000 0.750000 0.729423
O O2 0.384684 0.775276 0.687774
O O3 0.359797 0.758247 0.811565
O O4 0.322675 0.000000 0.748700
O O5 0.880846 0.500000 0.500000
O O6 0.881066 0.240995 0.562753
O O7 0.000000 0.327387 0.500000
O O8 0.108465 0.752942 0.932305
O O9 0.000000 0.858128 0.000000
O O10 0.126141 0.000000 0.000000
O O11 0.000000 0.175678 0.629976
O O12 0.882249 0.000000 0.636959
O O13 0.000000 0.228884 0.155150
O O14 0.907278 0.000000 0.141157
#
# Coordination Sequence:
#
# PCOD8272285 Si02
#       5
#    16   8   8  16  16
#     4  12  25  39  54  75 107 145 185 227 272 320
#     4   9  17  31  54  85 116 143 176 219 263 309
#     4   7  12  26  52  83 110 137 171 213 262 317
#     4  10  20  36  59  85 112 143 179 219 266 320
#     4   9  17  33  58  85 111 140 176 218 266 321
#
# _framework density 19.460995
#
# number of rings (size 3 to 8) (size 9 to 14) (size 15 to 20)
#    0.000    2.250    0.000    5.625    0.000    6.500 
#    0.000    1.875    0.000    2.250    0.000    0.000 
#    0.000    0.000    0.000    0.000    0.000    0.000 
#
# Total GULP energy -396660.351590 kJ/mol
# GULP energy per Si atom -12395.635987 kJ/mol
# Density = 1.941670 g / cm^3
# Si number density = 19.460995 Si / 1000 Ang^3
#
#
#
# Elastic Constant Matrix: (Units=GPa)
#
#
# Indices 1 2 3 4 5 6 
#
# 1 27.4631 23.0022 19.9875 0.0000 0.0000 0.0000
# 2 23.0022 91.4280 41.7011 0.0000 0.0000 0.0000
# 3 19.9875 41.7011 155.4651 0.0000 0.0000 0.0000
# 4 0.0000 0.0000 0.0000 5.1495 0.0000 0.0000
# 5 0.0000 0.0000 0.0000 0.0000 -1.2483 0.0000
# 6 0.0000 0.0000 0.0000 0.0000 0.0000 23.9472
#
#
#
# Elastic Compliance Matrix: (Units=1/GPa)
#
#
# Indices 1 2 3 4 5 6 
#
# 1 0.047585 -0.010461 -0.003312 0.000000 0.000000 0.000000
# 2 -0.010461 0.014762 -0.002615 0.000000 0.000000 0.000000
# 3 -0.003312 -0.002615 0.007559 0.000000 0.000000 0.000000
# 4 0.000000 0.000000 0.000000 0.194195 0.000000 0.000000
# 5 0.000000 0.000000 0.000000 0.000000 -0.801062 0.000000
# 6 0.000000 0.000000 0.000000 0.000000 0.000000 0.041758
#
#
# Mechanical properties :
#
#
# Convention : Reuss Voigt Hill
#
# Bulk Modulus (GPa) = 26.93179 49.30419 38.11799
# Shear Modulus (GPa) = -11.10989 18.21403 3.55207
#
# Velocity S-wave (km/s) = -2.39190 3.06261 1.35248
# Velocity P-wave (km/s) = 2.49813 6.15597 4.69769
#
# Compressibility (1/GPa) = 0.03713085
#
# Stress axis : x y z
#
# Youngs Moduli (GPa) = 21.01518 67.74100 132.28484
#
# Poissons Ratio (x) = 0.70866 0.43809
# Poissons Ratio (y) = 0.21985 0.34589
# Poissons Ratio (z) = 0.06960 0.17713
#
# Static dielectric constant tensor:
#      x y z
#    x 3.207760 0.000000 0.000000 
#    y 0.000000 3.512160 0.000000 
#    z 0.000000 0.000000 4.004330 
# 
# 
# High freq. dielectric constant tensor:
#      x y z
#    x 1.720230 0.000000 0.000000 
#    y 0.000000 1.748060 0.000000 
#    z 0.000000 0.000000 1.783850 
# 
# From -- ./inp_files/63282.got.cif
#   From: 2010.03.12/outbox.cif.g09.slc.cpg/sg65_32_cif.got.tgz:63282.got - 2010.04.10 20:52:16.
