data_PCOD8272509
_publ_section_title
;
Structure prediction by ZEFSAII (Michael W. Deem and Ramdas Pophale) SiO2 
 PCOD8272509
Probable space group: C M M M
;
_chemical_formula_sum "Si O2"
_cell_formula_units_Z 100
_cell_length_a 28.518147
_cell_length_b 21.892669
_cell_length_c 8.025378
_cell_angle_alpha 90.000000
_cell_angle_beta 90.000000
_cell_angle_gamma 90.000000
_cell_volume 5010.551281
_symmetry_space_group_name_H-M "C M M M"
_symmetry_group_IT_number 65
_symmetry_cell_setting 'orthorhombic'
loop_
_space_group_symop_operation_xyz
x,y,z
-x,-y,z
x,-y,-z
-x,y,-z
-x,-y,-z
x,y,-z
-x,y,z
x,-y,z
1/2+x,1/2+y,z
1/2-x,1/2-y,z
1/2+x,1/2-y,-z
1/2-x,1/2+y,-z
1/2-x,1/2-y,-z
1/2+x,1/2+y,-z
1/2-x,1/2+y,z
1/2+x,1/2-y,z
loop_
_atom_site_type_symbol
_atom_site_label
_atom_site_fract_x
_atom_site_fract_y
_atom_site_fract_z
Si Si1 0.077672 0.500000 0.500000
Si Si2 0.551609 0.567266 0.306528
Si Si3 0.395829 0.192161 0.806866
Si Si4 0.697895 0.124234 0.811456
Si Si5 0.778771 0.807207 0.688313
Si Si6 0.448512 0.133694 0.500000
Si Si7 0.352999 0.000000 0.805506
Si Si8 0.618781 0.328842 0.810803
O O1 0.046661 0.439326 0.500000
O O2 0.105503 0.500000 0.673930
O O3 0.545560 0.559304 0.500000
O O4 0.500000 0.587007 0.233292
O O5 0.565689 0.500000 0.232173
O O6 0.592199 0.617275 0.283402
O O7 0.341245 0.176354 0.782682
O O8 0.424217 0.153572 0.672020
O O9 0.403282 0.263223 0.763562
O O10 0.410829 0.177001 0.000000
O O11 0.742638 0.136153 0.694646
O O12 0.677879 0.058642 0.765206
O O13 0.715918 0.125665 0.000000
O O14 0.793013 0.791333 0.500000
O O15 0.750000 0.750000 0.769809
O O16 0.825572 0.826755 0.782903
O O17 0.500000 0.162774 0.500000
O O18 0.370729 0.000000 0.000000
O O19 0.609147 0.343610 0.000000
#
# Coordination Sequence:
#
# PCOD8272509 Si02
#       8
#     4  16  16  16  16   8   8  16
#     4  12  23  40  68  86 124 158 218 258 307 384
#     4   9  20  41  67  91 120 160 205 254 311 372
#     4  10  23  41  64  91 125 164 205 255 314 379
#     4  10  20  38  61  85 119 160 203 249 302 364
#     4  11  23  35  58  90 123 158 200 249 305 371
#     4  12  27  42  64  92 124 163 205 264 323 375
#     4  10  22  39  63  91 118 162 209 259 309 366
#     4  11  23  39  62  92 126 163 204 253 308 371
#
# _framework density 19.957884
#
# number of rings (size 3 to 8) (size 9 to 14) (size 15 to 20)
#    0.000    1.600    3.200    1.560    4.480    2.240 
#    1.440    2.400    0.000    1.440    0.000    0.000 
#    0.000    0.000    0.000    0.000    0.000    0.000 
#
# Total GULP energy -619659.836045 kJ/mol
# GULP energy per Si atom -12393.196721 kJ/mol
# Density = 1.991246 g / cm^3
# Si number density = 19.957884 Si / 1000 Ang^3
#
#
#
# Elastic Constant Matrix: (Units=GPa)
#
#
# Indices 1 2 3 4 5 6 
#
# 1 101.8440 48.5361 23.6832 0.0000 0.0000 0.0000
# 2 48.5361 123.7191 27.5254 0.0000 0.0000 0.0000
# 3 23.6832 27.5254 64.8666 0.0000 0.0000 0.0000
# 4 0.0000 0.0000 0.0000 27.3785 0.0000 0.0000
# 5 0.0000 0.0000 0.0000 0.0000 -3.4334 0.0000
# 6 0.0000 0.0000 0.0000 0.0000 0.0000 29.9417
#
#
#
# Elastic Compliance Matrix: (Units=1/GPa)
#
#
# Indices 1 2 3 4 5 6 
#
# 1 0.012504 -0.004295 -0.002743 0.000000 0.000000 0.000000
# 2 -0.004295 0.010401 -0.002845 0.000000 0.000000 0.000000
# 3 -0.002743 -0.002845 0.017625 0.000000 0.000000 0.000000
# 4 0.000000 0.000000 0.000000 0.036525 0.000000 0.000000
# 5 0.000000 0.000000 0.000000 0.000000 -0.291257 0.000000
# 6 0.000000 0.000000 0.000000 0.000000 0.000000 0.033398
#
#
# Mechanical properties :
#
#
# Convention : Reuss Voigt Hill
#
# Bulk Modulus (GPa) = 48.16154 54.43547 51.29851
# Shear Modulus (GPa) = -32.44283 23.48970 -4.47657
#
# Velocity S-wave (km/s) = -4.03620 3.43441 -1.49929
# Velocity P-wave (km/s) = 1.56931 6.56211 4.77096
#
# Compressibility (1/GPa) = 0.02076345
#
# Stress axis : x y z
#
# Youngs Moduli (GPa) = 79.97670 96.14570 56.73771
#
# Poissons Ratio (x) = 0.41296 0.15561
# Poissons Ratio (y) = 0.34351 0.16144
# Poissons Ratio (z) = 0.21934 0.27357
#
# Static dielectric constant tensor:
#      x y z
#    x 3.439960 0.000000 0.000000 
#    y 0.000000 2.908270 0.000000 
#    z 0.000000 0.000000 3.600100 
# 
# 
# High freq. dielectric constant tensor:
#      x y z
#    x 1.765130 0.000000 0.000000 
#    y 0.000000 1.785380 0.000000 
#    z 0.000000 0.000000 1.780250 
# 
# From -- ./inp_files/16538.got.cif
#   From: 2010.03.12/outbox.cif.g09.slc.cpg/sg65_9_cif.got.tgz:16538.got - 2010.04.10 20:52:16.
