data_PCOD8272319
_publ_section_title
;
Structure prediction by ZEFSAII (Michael W. Deem and Ramdas Pophale) SiO2 
 PCOD8272319
Probable space group: C M M M
;
_chemical_formula_sum "Si O2"
_cell_formula_units_Z 84
_cell_length_a 11.869644
_cell_length_b 33.455544
_cell_length_c 11.455633
_cell_angle_alpha 90.000000
_cell_angle_beta 90.000000
_cell_angle_gamma 90.000000
_cell_volume 4549.093692
_symmetry_space_group_name_H-M "C M M M"
_symmetry_group_IT_number 65
_symmetry_cell_setting 'orthorhombic'
loop_
_space_group_symop_operation_xyz
x,y,z
-x,-y,z
x,-y,-z
-x,y,-z
-x,-y,-z
x,y,-z
-x,y,z
x,-y,z
1/2+x,1/2+y,z
1/2-x,1/2-y,z
1/2+x,1/2-y,-z
1/2-x,1/2+y,-z
1/2-x,1/2-y,-z
1/2+x,1/2+y,-z
1/2-x,1/2+y,z
1/2+x,1/2-y,z
loop_
_atom_site_type_symbol
_atom_site_label
_atom_site_fract_x
_atom_site_fract_y
_atom_site_fract_z
Si Si1 0.869811 0.578207 0.500000
Si Si2 0.000000 0.125797 0.873624
Si Si3 0.631397 0.500000 0.252399
Si Si4 0.740449 0.705579 0.368221
Si Si5 0.500000 0.329386 0.371920
Si Si6 0.223225 0.924388 0.871219
Si Si7 0.131887 0.368770 0.277895
Si Si8 0.781788 0.000000 0.500000
O O1 0.838634 0.605547 0.391045
O O2 0.796801 0.538629 0.500000
O O3 0.000000 0.565327 0.500000
O O4 0.000000 0.146691 0.748440
O O5 0.892173 0.098710 0.874884
O O6 0.000000 0.150479 0.000000
O O7 0.500000 0.500000 0.209861
O O8 0.703861 0.537632 0.210214
O O9 0.633662 0.500000 0.391582
O O10 0.790847 0.703872 0.500000
O O11 0.750000 0.750000 0.314741
O O12 0.608430 0.698004 0.369597
O O13 0.806482 0.674092 0.286803
O O14 0.500000 0.353143 0.500000
O O15 0.321631 0.894645 0.829290
O O16 0.257620 0.939353 0.000000
O O17 0.000000 0.361075 0.260901
#
# Coordination Sequence:
#
# PCOD8272319 Si02
#       8
#     8   8   8  16   8  16  16   4
#     4  10  21  37  58  83 112 159 201 237 295 359
#     4  10  20  37  62  85 113 158 200 242 294 360
#     4  12  24  39  58  91 122 152 193 243 303 360
#     4  10  21  35  56  90 126 155 193 242 300 365
#     4  10  20  36  59  89 121 155 193 248 305 352
#     4  11  23  40  61  84 115 157 202 245 293 352
#     4  11  22  38  61  85 117 159 200 246 298 358
#     4  12  22  38  60  86 128 152 190 244 302 352
#
# _framework density 18.465216999999999
#
# number of rings (size 3 to 8) (size 9 to 14) (size 15 to 20)
#    0.000    1.333    5.714    0.571    1.333    0.762 
#    1.714    0.476    0.000    3.429    0.000    0.000 
#    0.000    0.000    0.000    0.000    0.000    0.000 
#
# Total GULP energy -520500.323746 kJ/mol
# GULP energy per Si atom -12392.864851 kJ/mol
# Density = 1.842319 g / cm^3
# Si number density = 18.465217 Si / 1000 Ang^3
#
#
#
# Elastic Constant Matrix: (Units=GPa)
#
#
# Indices 1 2 3 4 5 6 
#
# 1 100.8695 48.3693 25.1523 0.0000 0.0000 0.0000
# 2 48.3693 120.9789 48.2670 0.0000 0.0000 0.0000
# 3 25.1523 48.2670 131.9391 0.0000 0.0000 0.0000
# 4 0.0000 0.0000 0.0000 31.3782 0.0000 0.0000
# 5 0.0000 0.0000 0.0000 0.0000 24.8018 0.0000
# 6 0.0000 0.0000 0.0000 0.0000 0.0000 14.9623
#
#
#
# Elastic Compliance Matrix: (Units=1/GPa)
#
#
# Indices 1 2 3 4 5 6 
#
# 1 0.012311 -0.004667 -0.000640 0.000000 0.000000 0.000000
# 2 -0.004667 0.011448 -0.003298 0.000000 0.000000 0.000000
# 3 -0.000640 -0.003298 0.008908 0.000000 0.000000 0.000000
# 4 0.000000 0.000000 0.000000 0.031869 0.000000 0.000000
# 5 0.000000 0.000000 0.000000 0.000000 0.040320 0.000000
# 6 0.000000 0.000000 0.000000 0.000000 0.000000 0.066834
#
#
# Mechanical properties :
#
#
# Convention : Reuss Voigt Hill
#
# Bulk Modulus (GPa) = 64.69555 66.37387 65.53471
# Shear Modulus (GPa) = 25.76625 29.69505 27.73065
#
# Velocity S-wave (km/s) = 3.73955 4.01454 3.87948
# Velocity P-wave (km/s) = 7.33199 7.58367 7.45889
#
# Compressibility (1/GPa) = 0.01545701
#
# Stress axis : x y z
#
# Youngs Moduli (GPa) = 81.22650 87.35344 112.26166
#
# Poissons Ratio (x) = 0.40768 0.07181
# Poissons Ratio (y) = 0.37909 0.37026
# Poissons Ratio (z) = 0.05196 0.28811
#
# Static dielectric constant tensor:
#      x y z
#    x 3.406730 0.000000 0.000000 
#    y 0.000000 3.355590 0.000000 
#    z 0.000000 0.000000 3.946880 
# 
# 
# High freq. dielectric constant tensor:
#      x y z
#    x 1.723100 0.000000 0.000000 
#    y 0.000000 1.707100 0.000000 
#    z 0.000000 0.000000 1.714150 
# 
# From -- ./inp_files/23076.got.cif
#   From: 2010.03.12/outbox.cif.g09.slc.cpg/sg65_12_cif.got.tgz:23076.got - 2010.04.10 20:52:16.
