data_PCOD8272798
_publ_section_title
;
Structure prediction by ZEFSAII (Michael W. Deem and Ramdas Pophale) SiO2 
 PCOD8272798
Probable space group: C M M M
;
_chemical_formula_sum "Si O2"
_cell_formula_units_Z 72
_cell_length_a 19.078031
_cell_length_b 8.961869
_cell_length_c 22.276168
_cell_angle_alpha 90.000000
_cell_angle_beta 90.000000
_cell_angle_gamma 90.000000
_cell_volume 3808.663694
_symmetry_space_group_name_H-M "C M M M"
_symmetry_group_IT_number 65
_symmetry_cell_setting 'orthorhombic'
loop_
_space_group_symop_operation_xyz
x,y,z
-x,-y,z
x,-y,-z
-x,y,-z
-x,-y,-z
x,y,-z
-x,y,z
x,-y,z
1/2+x,1/2+y,z
1/2-x,1/2-y,z
1/2+x,1/2-y,-z
1/2-x,1/2+y,-z
1/2-x,1/2-y,-z
1/2+x,1/2+y,-z
1/2-x,1/2+y,z
1/2+x,1/2-y,z
loop_
_atom_site_type_symbol
_atom_site_label
_atom_site_fract_x
_atom_site_fract_y
_atom_site_fract_z
Si Si1 0.580310 0.175040 0.174064
Si Si2 0.322373 0.325179 0.594716
Si Si3 0.321640 0.326588 0.734067
Si Si4 0.321438 0.824930 0.067419
Si Si5 0.082311 0.674828 0.500000
O O1 0.500000 0.223157 0.168911
O O2 0.613209 0.260830 0.230006
O O3 0.616674 0.224238 0.111869
O O4 0.589019 0.000000 0.185635
O O5 0.318507 0.500000 0.580030
O O6 0.250000 0.250000 0.573598
O O7 0.336207 0.293856 0.664482
O O8 0.385968 0.250311 0.559274
O O9 0.314078 0.500000 0.747704
O O10 0.250000 0.250000 0.755824
O O11 0.250000 0.750000 0.089877
O O12 0.309246 0.000000 0.069241
O O13 0.341094 0.771735 0.000000
O O14 0.099526 0.500000 0.500000
O O15 0.000000 0.706032 0.500000
#
# Coordination Sequence:
#
# PCOD8272798 Si02
#       5
#    16  16  16  16   8
#     4  10  21  35  52  77 109 144 179 218 267 319
#     4  10  21  38  60  83 108 140 179 222 266 315
#     4  10  21  37  58  82 107 139 179 222 267 315
#     4   9  18  33  53  76 102 135 177 222 266 315
#     4  11  24  39  56  81 113 147 180 217 264 315
#
# _framework density 18.904267999999998
#
# number of rings (size 3 to 8) (size 9 to 14) (size 15 to 20)
#    0.000    2.111    0.000    2.667    0.000    8.000 
#    0.000    6.667    0.000    0.000    0.000    4.667 
#    0.000    0.000    0.000    0.000    0.000    0.000 
#
# Total GULP energy -446563.636489 kJ/mol
# GULP energy per Si atom -12404.545458 kJ/mol
# Density = 1.886124 g / cm^3
# Si number density = 18.904268 Si / 1000 Ang^3
#
#
#
# Elastic Constant Matrix: (Units=GPa)
#
#
# Indices 1 2 3 4 5 6 
#
# 1 165.2741 72.0578 85.8709 0.0000 0.0000 0.0000
# 2 72.0578 87.6421 56.1506 0.0000 0.0000 0.0000
# 3 85.8709 56.1506 108.6153 0.0000 0.0000 0.0000
# 4 0.0000 0.0000 0.0000 27.8536 0.0000 0.0000
# 5 0.0000 0.0000 0.0000 0.0000 16.9105 0.0000
# 6 0.0000 0.0000 0.0000 0.0000 0.0000 33.6516
#
#
#
# Elastic Compliance Matrix: (Units=1/GPa)
#
#
# Indices 1 2 3 4 5 6 
#
# 1 0.011859 -0.005597 -0.006482 0.000000 0.000000 0.000000
# 2 -0.005597 0.019703 -0.005761 0.000000 0.000000 0.000000
# 3 -0.006482 -0.005761 0.017309 0.000000 0.000000 0.000000
# 4 0.000000 0.000000 0.000000 0.035902 0.000000 0.000000
# 5 0.000000 0.000000 0.000000 0.000000 0.059135 0.000000
# 6 0.000000 0.000000 0.000000 0.000000 0.000000 0.029716
#
#
# Mechanical properties :
#
#
# Convention : Reuss Voigt Hill
#
# Bulk Modulus (GPa) = 75.80628 87.74334 81.77481
# Shear Modulus (GPa) = 23.39733 25.51329 24.45531
#
# Velocity S-wave (km/s) = 3.52188 3.67768 3.60062
# Velocity P-wave (km/s) = 7.53162 8.03425 7.78699
#
# Compressibility (1/GPa) = 0.01319152
#
# Stress axis : x y z
#
# Youngs Moduli (GPa) = 84.32707 50.75485 57.77236
#
# Poissons Ratio (x) = 0.28408 0.37447
# Poissons Ratio (y) = 0.47199 0.33280
# Poissons Ratio (z) = 0.54659 0.29237
#
# Static dielectric constant tensor:
#      x y z
#    x 3.573760 0.000000 0.000000 
#    y 0.000000 3.490070 0.000000 
#    z 0.000000 0.000000 3.622480 
# 
# 
# High freq. dielectric constant tensor:
#      x y z
#    x 1.730200 0.000000 0.000000 
#    y 0.000000 1.738350 0.000000 
#    z 0.000000 0.000000 1.747210 
# 
# From -- ./inp_files/67070.got.cif
#   From: 2010.03.12/outbox.cif.g09.slc.cpg/sg65_34_cif.got.tgz:67070.got - 2010.04.10 20:52:16.
