data_PCOD8272238
_publ_section_title
;
Structure prediction by ZEFSAII (Michael W. Deem and Ramdas Pophale) SiO2 
 PCOD8272238
Probable space group: C M M M
;
_chemical_formula_sum "Si O2"
_cell_formula_units_Z 104
_cell_length_a 26.318768
_cell_length_b 21.656377
_cell_length_c 9.008857
_cell_angle_alpha 90.000000
_cell_angle_beta 90.000000
_cell_angle_gamma 90.000000
_cell_volume 5134.770675
_symmetry_space_group_name_H-M "C M M M"
_symmetry_group_IT_number 65
_symmetry_cell_setting 'orthorhombic'
loop_
_space_group_symop_operation_xyz
x,y,z
-x,-y,z
x,-y,-z
-x,y,-z
-x,-y,-z
x,y,-z
-x,y,z
x,-y,z
1/2+x,1/2+y,z
1/2-x,1/2-y,z
1/2+x,1/2-y,-z
1/2-x,1/2+y,-z
1/2-x,1/2-y,-z
1/2+x,1/2+y,-z
1/2-x,1/2+y,z
1/2+x,1/2-y,z
loop_
_atom_site_type_symbol
_atom_site_label
_atom_site_fract_x
_atom_site_fract_y
_atom_site_fract_z
Si Si1 0.558112 0.329504 0.674371
Si Si2 0.059246 0.382534 0.664202
Si Si3 0.715789 0.190812 0.327399
Si Si4 0.560829 0.000000 0.833474
Si Si5 0.385423 0.428606 0.167971
Si Si6 0.387839 0.221227 0.824471
Si Si7 0.219465 0.929608 0.671756
O O1 0.566922 0.323267 0.500000
O O2 0.500000 0.312772 0.715565
O O3 0.571140 0.397888 0.730445
O O4 0.599446 0.287863 0.758569
O O5 0.084006 0.375590 0.500000
O O6 0.083322 0.441175 0.747346
O O7 0.068024 0.322852 0.763715
O O8 0.000000 0.392952 0.645915
O O9 0.701222 0.193562 0.500000
O O10 0.750000 0.250000 0.285146
O O11 0.665724 0.195368 0.229354
O O12 0.740460 0.124267 0.287613
O O13 0.500000 0.000000 0.836865
O O14 0.582605 0.000000 0.000000
O O15 0.398523 0.500000 0.172704
O O16 0.329628 0.415322 0.230867
O O17 0.387547 0.403024 0.000000
O O18 0.389154 0.223818 0.000000
O O19 0.203857 0.923788 0.500000
O O20 0.240011 0.000000 0.704111
#
# Coordination Sequence:
#
# PCOD8272238 Si02
#       7
#    16  16  16   8  16  16  16
#     4  11  24  41  61  85 116 156 201 248 295 349
#     4  10  20  36  58  82 111 150 194 236 281 339
#     4  10  21  38  60  84 113 151 196 244 293 353
#     4   9  17  31  53  81 111 143 183 231 281 331
#     4  10  21  37  60  91 125 159 193 235 291 353
#     4  12  25  39  58  85 116 151 191 241 300 354
#     4   9  18  35  60  88 118 155 199 245 294 351
#
# _framework density 20.254068
#
# number of rings (size 3 to 8) (size 9 to 14) (size 15 to 20)
#    0.000    1.769    0.000    4.385    0.000    8.308 
#    1.385    1.538    0.000    0.000    0.000    0.000 
#    0.000    0.000    0.000    0.000    0.000    0.000 
#
# Total GULP energy -644802.221454 kJ/mol
# GULP energy per Si atom -12400.042720 kJ/mol
# Density = 2.020797 g / cm^3
# Si number density = 20.254068 Si / 1000 Ang^3
#
#
#
# Elastic Constant Matrix: (Units=GPa)
#
#
# Indices 1 2 3 4 5 6 
#
# 1 66.0131 42.6988 54.4535 0.0000 0.0000 0.0000
# 2 42.6988 114.4786 55.5676 0.0000 0.0000 0.0000
# 3 54.4535 55.5676 140.6533 0.0000 0.0000 0.0000
# 4 0.0000 0.0000 0.0000 32.3891 0.0000 0.0000
# 5 0.0000 0.0000 0.0000 0.0000 27.1949 0.0000
# 6 0.0000 0.0000 0.0000 0.0000 0.0000 30.7265
#
#
#
# Elastic Compliance Matrix: (Units=1/GPa)
#
#
# Indices 1 2 3 4 5 6 
#
# 1 0.024950 -0.005713 -0.007402 0.000000 0.000000 0.000000
# 2 -0.005713 0.012116 -0.002575 0.000000 0.000000 0.000000
# 3 -0.007402 -0.002575 0.010993 0.000000 0.000000 0.000000
# 4 0.000000 0.000000 0.000000 0.030875 0.000000 0.000000
# 5 0.000000 0.000000 0.000000 0.000000 0.036772 0.000000
# 6 0.000000 0.000000 0.000000 0.000000 0.000000 0.032545
#
#
# Mechanical properties :
#
#
# Convention : Reuss Voigt Hill
#
# Bulk Modulus (GPa) = 59.95795 69.62054 64.78925
# Shear Modulus (GPa) = 26.99941 29.29043 28.14492
#
# Velocity S-wave (km/s) = 3.65504 3.80695 3.73177
# Velocity P-wave (km/s) = 6.89054 7.33295 7.11518
#
# Compressibility (1/GPa) = 0.01667836
#
# Stress axis : x y z
#
# Youngs Moduli (GPa) = 40.08055 82.53604 90.96942
#
# Poissons Ratio (x) = 0.47152 0.67338
# Poissons Ratio (y) = 0.22897 0.23424
# Poissons Ratio (z) = 0.29669 0.21252
#
# Static dielectric constant tensor:
#      x y z
#    x 3.383610 0.000000 0.000000 
#    y 0.000000 3.977750 0.000000 
#    z 0.000000 0.000000 3.837530 
# 
# 
# High freq. dielectric constant tensor:
#      x y z
#    x 1.768020 0.000000 0.000000 
#    y 0.000000 1.808180 0.000000 
#    z 0.000000 0.000000 1.798760 
# 
# From -- ./inp_files/16499.got.cif
#   From: 2010.03.12/outbox.cif.g09.slc.cpg/sg65_9_cif.got.tgz:16499.got - 2010.04.10 20:52:16.
