data_PCOD8272641
_publ_section_title
;
Structure prediction by ZEFSAII (Michael W. Deem and Ramdas Pophale) SiO2 
 PCOD8272641
Probable space group: C M M M
;
_chemical_formula_sum "Si O2"
_cell_formula_units_Z 64
_cell_length_a 18.455152
_cell_length_b 7.870956
_cell_length_c 22.645274
_cell_angle_alpha 90.000000
_cell_angle_beta 90.000000
_cell_angle_gamma 90.000000
_cell_volume 3289.445467
_symmetry_space_group_name_H-M "C M M M"
_symmetry_group_IT_number 65
_symmetry_cell_setting 'orthorhombic'
loop_
_space_group_symop_operation_xyz
x,y,z
-x,-y,z
x,-y,-z
-x,y,-z
-x,-y,-z
x,y,-z
-x,y,z
x,-y,z
1/2+x,1/2+y,z
1/2-x,1/2-y,z
1/2+x,1/2-y,-z
1/2-x,1/2+y,-z
1/2-x,1/2-y,-z
1/2+x,1/2+y,-z
1/2-x,1/2+y,z
1/2+x,1/2-y,z
loop_
_atom_site_type_symbol
_atom_site_label
_atom_site_fract_x
_atom_site_fract_y
_atom_site_fract_z
Si Si1 0.917987 0.699161 0.000000
Si Si2 0.167367 0.199036 0.765673
Si Si3 0.918913 0.198145 0.875636
Si Si4 0.085285 0.804533 0.351240
Si Si5 0.085796 0.500000 0.434217
O O1 0.881287 0.766863 0.060466
O O2 0.913660 0.500000 0.000000
O O3 0.000000 0.769391 0.000000
O O4 0.250000 0.250000 0.761100
O O5 0.130200 0.281565 0.823987
O O6 0.125077 0.259902 0.707637
O O7 0.160848 0.000000 0.770752
O O8 0.000000 0.279460 0.873517
O O9 0.924886 0.000000 0.864498
O O10 0.111242 0.673835 0.402017
O O11 0.000000 0.790358 0.339622
O O12 0.105931 0.000000 0.368360
O O13 0.119543 0.500000 0.500000
O O14 0.000000 0.500000 0.437750
#
# Coordination Sequence:
#
# PCOD8272641 Si02
#       5
#     8  16  16  16   8
#     4   9  17  29  46  73 102 127 161 211 264 309
#     4  10  21  34  51  76 102 136 173 216 263 313
#     4   9  17  32  53  73  97 131 172 212 256 313
#     4   9  18  34  55  80 109 141 177 217 262 312
#     4   9  18  32  54  86 114 137 172 216 263 313
#
# _framework density 19.456168999999999
#
# number of rings (size 3 to 8) (size 9 to 14) (size 15 to 20)
#    0.000    2.750    0.000    1.125    1.750    6.000 
#    0.000    3.125    0.000    0.750    0.000    0.000 
#    0.000    0.000    0.000    0.000    0.000    0.000 
#
# Total GULP energy -396598.428176 kJ/mol
# GULP energy per Si atom -12393.700880 kJ/mol
# Density = 1.941189 g / cm^3
# Si number density = 19.456169 Si / 1000 Ang^3
#
#
#
# Elastic Constant Matrix: (Units=GPa)
#
#
# Indices 1 2 3 4 5 6 
#
# 1 63.4751 21.4246 59.9039 0.0000 0.0000 0.0000
# 2 21.4246 65.2197 63.8030 0.0000 0.0000 0.0000
# 3 59.9039 63.8030 209.4494 0.0000 0.0000 0.0000
# 4 0.0000 0.0000 0.0000 18.7686 0.0000 0.0000
# 5 0.0000 0.0000 0.0000 0.0000 5.7007 0.0000
# 6 0.0000 0.0000 0.0000 0.0000 0.0000 18.7714
#
#
#
# Elastic Compliance Matrix: (Units=1/GPa)
#
#
# Indices 1 2 3 4 5 6 
#
# 1 0.021682 -0.001504 -0.005743 0.000000 0.000000 0.000000
# 2 -0.001504 0.021946 -0.006255 0.000000 0.000000 0.000000
# 3 -0.005743 -0.006255 0.008322 0.000000 0.000000 0.000000
# 4 0.000000 0.000000 0.000000 0.053280 0.000000 0.000000
# 5 0.000000 0.000000 0.000000 0.000000 0.175416 0.000000
# 6 0.000000 0.000000 0.000000 0.000000 0.000000 0.053272
#
#
# Mechanical properties :
#
#
# Convention : Reuss Voigt Hill
#
# Bulk Modulus (GPa) = 40.08696 69.82301 54.95499
# Shear Modulus (GPa) = 13.54139 21.51568 17.52854
#
# Velocity S-wave (km/s) = 2.64103 3.32905 3.00480
# Velocity P-wave (km/s) = 5.47253 7.12334 6.35179
#
# Compressibility (1/GPa) = 0.02494577
#
# Stress axis : x y z
#
# Youngs Moduli (GPa) = 46.12187 45.56610 120.15841
#
# Poissons Ratio (x) = 0.06854 0.69005
# Poissons Ratio (y) = 0.06938 0.75160
# Poissons Ratio (z) = 0.26487 0.28502
#
# Static dielectric constant tensor:
#      x y z
#    x 3.194780 0.000000 0.000000 
#    y 0.000000 3.504620 0.000000 
#    z 0.000000 0.000000 4.011140 
# 
# 
# High freq. dielectric constant tensor:
#      x y z
#    x 1.713730 0.000000 0.000000 
#    y 0.000000 1.752990 0.000000 
#    z 0.000000 0.000000 1.768690 
# 
# From -- ./inp_files/49111.got.cif
#   From: 2010.03.12/outbox.cif.g09.slc.cpg/sg65_25_cif.got.tgz:49111.got - 2010.04.10 20:52:16.
