data_PCOD8272493
_publ_section_title
;
Structure prediction by ZEFSAII (Michael W. Deem and Ramdas Pophale) SiO2 
 PCOD8272493
Probable space group: C M M M
;
_chemical_formula_sum "Si O2"
_cell_formula_units_Z 104
_cell_length_a 21.912739
_cell_length_b 13.505130
_cell_length_c 16.792177
_cell_angle_alpha 90.000000
_cell_angle_beta 90.000000
_cell_angle_gamma 90.000000
_cell_volume 4969.382638
_symmetry_space_group_name_H-M "C M M M"
_symmetry_group_IT_number 65
_symmetry_cell_setting 'orthorhombic'
loop_
_space_group_symop_operation_xyz
x,y,z
-x,-y,z
x,-y,-z
-x,y,-z
-x,-y,-z
x,y,-z
-x,y,z
x,-y,z
1/2+x,1/2+y,z
1/2-x,1/2-y,z
1/2+x,1/2-y,-z
1/2-x,1/2+y,-z
1/2-x,1/2-y,-z
1/2+x,1/2+y,-z
1/2-x,1/2+y,z
1/2+x,1/2-y,z
loop_
_atom_site_type_symbol
_atom_site_label
_atom_site_fract_x
_atom_site_fract_y
_atom_site_fract_z
Si Si1 0.403423 0.885353 0.590225
Si Si2 0.648725 0.289922 0.140294
Si Si3 0.276000 0.883494 0.652548
Si Si4 0.725815 0.886563 0.165933
Si Si5 0.567499 0.721151 0.704428
Si Si6 0.072328 0.882959 0.000000
Si Si7 0.849062 0.116352 0.588048
O O1 0.425861 0.864749 0.500000
O O2 0.332845 0.850804 0.597890
O O3 0.440304 0.824225 0.656101
O O4 0.411864 0.000000 0.612017
O O5 0.681817 0.186154 0.114540
O O6 0.702273 0.371219 0.149901
O O7 0.610711 0.270915 0.219877
O O8 0.601523 0.329851 0.075912
O O9 0.288043 0.854260 0.743634
O O10 0.213297 0.833003 0.621849
O O11 0.267096 0.000000 0.646581
O O12 0.708878 0.000000 0.146726
O O13 0.500000 0.687551 0.731711
O O14 0.594149 0.640071 0.644143
O O15 0.000000 0.864012 0.000000
O O16 0.086831 0.000000 0.000000
O O17 0.862189 0.159020 0.500000
O O18 0.840499 0.000000 0.584482
#
# Coordination Sequence:
#
# PCOD8272493 Si02
#       7
#    16  16  16  16  16   8  16
#     4  10  21  37  58  85 119 163 216 270 320 371
#     4  11  23  42  68  97 127 163 205 256 317 383
#     4   9  16  32  57  87 119 153 199 253 311 370
#     4  10  20  37  67 101 132 161 199 257 323 387
#     4  12  25  39  56  81 115 162 214 260 308 369
#     4  11  26  49  75 101 133 171 211 254 296 359
#     4  10  21  36  55  81 115 156 202 256 314 369
#
# _framework density 20.928152999999998
#
# number of rings (size 3 to 8) (size 9 to 14) (size 15 to 20)
#    0.000    1.615    3.077    1.846    0.000    6.154 
#    0.000    4.231    0.000    1.846    0.000    0.000 
#    0.000    0.000    0.000    0.000    0.000    0.000 
#
# Total GULP energy -644647.168924 kJ/mol
# GULP energy per Si atom -12397.060941 kJ/mol
# Density = 2.088052 g / cm^3
# Si number density = 20.928153 Si / 1000 Ang^3
#
#
#
# Elastic Constant Matrix: (Units=GPa)
#
#
# Indices 1 2 3 4 5 6 
#
# 1 134.3596 38.3737 45.5901 0.0000 0.0000 0.0000
# 2 38.3737 76.2160 36.7446 0.0000 0.0000 0.0000
# 3 45.5901 36.7446 97.8553 0.0000 0.0000 0.0000
# 4 0.0000 0.0000 0.0000 26.6018 0.0000 0.0000
# 5 0.0000 0.0000 0.0000 0.0000 -87.6086 0.0000
# 6 0.0000 0.0000 0.0000 0.0000 0.0000 24.1251
#
#
#
# Elastic Compliance Matrix: (Units=1/GPa)
#
#
# Indices 1 2 3 4 5 6 
#
# 1 0.009444 -0.003216 -0.003193 0.000000 0.000000 0.000000
# 2 -0.003216 0.017116 -0.004929 0.000000 0.000000 0.000000
# 3 -0.003193 -0.004929 0.013557 0.000000 0.000000 0.000000
# 4 0.000000 0.000000 0.000000 0.037591 0.000000 0.000000
# 5 0.000000 0.000000 0.000000 0.000000 -0.011414 0.000000
# 6 0.000000 0.000000 0.000000 0.000000 0.000000 0.041451
#
#
# Mechanical properties :
#
#
# Convention : Reuss Voigt Hill
#
# Bulk Modulus (GPa) = 57.32873 61.09419 59.21146
# Shear Modulus (GPa) = 36.70148 5.13850 20.91999
#
# Velocity S-wave (km/s) = 4.19225 1.56864 3.16509
# Velocity P-wave (km/s) = 7.13343 5.70408 6.45842
#
# Compressibility (1/GPa) = 0.01744326
#
# Stress axis : x y z
#
# Youngs Moduli (GPa) = 105.88193 58.42475 73.76115
#
# Poissons Ratio (x) = 0.18790 0.23548
# Poissons Ratio (y) = 0.34052 0.36355
# Poissons Ratio (z) = 0.33803 0.28796
#
# Static dielectric constant tensor:
#      x y z
#    x 3.782520 0.000000 0.000000 
#    y 0.000000 3.857780 0.000000 
#    z 0.000000 0.000000 3.710330 
# 
# 
# High freq. dielectric constant tensor:
#      x y z
#    x 1.819910 0.000000 0.000000 
#    y 0.000000 1.830190 0.000000 
#    z 0.000000 0.000000 1.800330 
# 
# From -- ./inp_files/55877.got.cif
#   From: 2010.03.12/outbox.cif.g09.slc.cpg/sg65_28_cif.got.tgz:55877.got - 2010.04.10 20:52:16.
