data_PCOD8272202
_publ_section_title
;
Structure prediction by ZEFSAII (Michael W. Deem and Ramdas Pophale) SiO2 
 PCOD8272202
Probable space group: C M M M
;
_chemical_formula_sum "Si O2"
_cell_formula_units_Z 72
_cell_length_a 30.257299
_cell_length_b 14.876757
_cell_length_c 8.212640
_cell_angle_alpha 90.000000
_cell_angle_beta 90.000000
_cell_angle_gamma 90.000000
_cell_volume 3696.759624
_symmetry_space_group_name_H-M "C M M M"
_symmetry_group_IT_number 65
_symmetry_cell_setting 'orthorhombic'
loop_
_space_group_symop_operation_xyz
x,y,z
-x,-y,z
x,-y,-z
-x,y,-z
-x,-y,-z
x,y,-z
-x,y,z
x,-y,z
1/2+x,1/2+y,z
1/2-x,1/2-y,z
1/2+x,1/2-y,-z
1/2-x,1/2+y,-z
1/2-x,1/2-y,-z
1/2+x,1/2+y,-z
1/2-x,1/2+y,z
1/2+x,1/2-y,z
loop_
_atom_site_type_symbol
_atom_site_label
_atom_site_fract_x
_atom_site_fract_y
_atom_site_fract_z
Si Si1 0.708817 0.191550 0.192099
Si Si2 0.633225 0.321916 0.184359
Si Si3 0.052112 0.401668 0.500000
Si Si4 0.830564 0.000000 0.685044
Si Si5 0.550804 0.209492 0.815961
Si Si6 0.266652 0.000000 0.308898
O O1 0.750000 0.250000 0.261397
O O2 0.663986 0.240963 0.251768
O O3 0.707713 0.089895 0.256530
O O4 0.711564 0.186074 0.000000
O O5 0.640190 0.413138 0.280452
O O6 0.581625 0.296884 0.199032
O O7 0.647289 0.341477 0.000000
O O8 0.074139 0.500000 0.500000
O O9 0.066607 0.355521 0.330015
O O10 0.000000 0.409477 0.500000
O O11 0.782576 0.000000 0.774249
O O12 0.817706 0.000000 0.500000
O O13 0.500000 0.239201 0.790874
O O14 0.556863 0.166991 0.000000
O O15 0.264105 0.000000 0.500000
#
# Coordination Sequence:
#
# PCOD8272202 Si02
#       6
#    16  16   8   8  16   8
#     4  10  20  36  58  79 105 144 187 229 275 329
#     4  10  21  38  59  83 108 146 193 234 282 340
#     4   9  18  34  58  85 110 147 197 239 289 349
#     4  11  23  35  56  84 113 147 186 232 287 344
#     4   9  19  37  59  83 116 154 192 241 292 338
#     4  11  23  37  53  82 117 150 184 228 286 342
#
# _framework density 19.476517999999999
#
# number of rings (size 3 to 8) (size 9 to 14) (size 15 to 20)
#    0.000    2.111    2.222    0.667    1.556    2.667 
#    2.000    2.778    0.000    3.333    0.000    0.000 
#    0.000    0.000    0.000    0.000    0.000    0.000 
#
# Total GULP energy -446176.185876 kJ/mol
# GULP energy per Si atom -12393.782941 kJ/mol
# Density = 1.943219 g / cm^3
# Si number density = 19.476518 Si / 1000 Ang^3
#
#
#
# Elastic Constant Matrix: (Units=GPa)
#
#
# Indices 1 2 3 4 5 6 
#
# 1 94.2307 54.1976 31.6052 0.0000 0.0000 0.0000
# 2 54.1976 161.5177 51.6072 0.0000 0.0000 0.0000
# 3 31.6052 51.6072 90.1692 0.0000 0.0000 0.0000
# 4 0.0000 0.0000 0.0000 -79.1555 0.0000 0.0000
# 5 0.0000 0.0000 0.0000 0.0000 18.0788 0.0000
# 6 0.0000 0.0000 0.0000 0.0000 0.0000 -9.6379
#
#
#
# Elastic Compliance Matrix: (Units=1/GPa)
#
#
# Indices 1 2 3 4 5 6 
#
# 1 0.013647 -0.003734 -0.002647 0.000000 0.000000 0.000000
# 2 -0.003734 0.008598 -0.003612 0.000000 0.000000 0.000000
# 3 -0.002647 -0.003612 0.014085 0.000000 0.000000 0.000000
# 4 0.000000 0.000000 0.000000 -0.012633 0.000000 0.000000
# 5 0.000000 0.000000 0.000000 0.000000 0.055313 0.000000
# 6 0.000000 0.000000 0.000000 0.000000 0.000000 -0.103757
#
#
# Mechanical properties :
#
#
# Convention : Reuss Voigt Hill
#
# Bulk Modulus (GPa) = 61.17841 68.97087 65.07464
# Shear Modulus (GPa) = 7259.49467 -0.24242 3629.62613
#
# Velocity S-wave (km/s) = 61.11790 -0.35318 43.21616
# Velocity P-wave (km/s) = 70.79555 5.94331 50.23611
#
# Compressibility (1/GPa) = 0.01634564
#
# Stress axis : x y z
#
# Youngs Moduli (GPa) = 73.27373 116.30090 70.99524
#
# Poissons Ratio (x) = 0.43425 0.18789
# Poissons Ratio (y) = 0.27359 0.25647
# Poissons Ratio (z) = 0.19392 0.42013
#
# Static dielectric constant tensor:
#      x y z
#    x 3.501480 0.000000 0.000000 
#    y 0.000000 3.405310 0.000000 
#    z 0.000000 0.000000 3.650370 
# 
# 
# High freq. dielectric constant tensor:
#      x y z
#    x 1.751760 0.000000 0.000000 
#    y 0.000000 1.745770 0.000000 
#    z 0.000000 0.000000 1.761170 
# 
# From -- ./inp_files/7712.got.cif
#   From: 2010.03.12/outbox.cif.g09.slc.cpg/sg65_4_cif.got.tgz:7712.got - 2010.04.10 20:52:16.
