data_PCOD8272654
_publ_section_title
;
Structure prediction by ZEFSAII (Michael W. Deem and Ramdas Pophale) SiO2 
 PCOD8272654
Probable space group: C M M M
;
_chemical_formula_sum "Si O2"
_cell_formula_units_Z 104
_cell_length_a 32.514068
_cell_length_b 24.517990
_cell_length_c 9.036634
_cell_angle_alpha 90.000000
_cell_angle_beta 90.000000
_cell_angle_gamma 90.000000
_cell_volume 7203.820224
_symmetry_space_group_name_H-M "C M M M"
_symmetry_group_IT_number 65
_symmetry_cell_setting 'orthorhombic'
loop_
_space_group_symop_operation_xyz
x,y,z
-x,-y,z
x,-y,-z
-x,y,-z
-x,-y,-z
x,y,-z
-x,y,z
x,-y,z
1/2+x,1/2+y,z
1/2-x,1/2-y,z
1/2+x,1/2-y,-z
1/2-x,1/2+y,-z
1/2-x,1/2-y,-z
1/2+x,1/2+y,-z
1/2-x,1/2+y,z
1/2+x,1/2-y,z
loop_
_atom_site_type_symbol
_atom_site_label
_atom_site_fract_x
_atom_site_fract_y
_atom_site_fract_z
Si Si1 0.768217 0.833810 0.172598
Si Si2 0.048735 0.500000 0.333330
Si Si3 0.741505 0.440148 0.325850
Si Si4 0.117459 0.336767 0.323992
Si Si5 0.814068 0.725841 0.173615
Si Si6 0.547872 0.110268 0.826765
Si Si7 0.834276 0.440891 0.674522
O O1 0.782497 0.889922 0.250731
O O2 0.802057 0.788074 0.210097
O O3 0.723204 0.813409 0.226895
O O4 0.766443 0.844560 0.000000
O O5 0.067570 0.500000 0.500000
O O6 0.063412 0.445857 0.248583
O O7 0.000000 0.500000 0.340868
O O8 0.739806 0.431492 0.500000
O O9 0.722694 0.500000 0.284860
O O10 0.787991 0.437877 0.264013
O O11 0.113103 0.333221 0.500000
O O12 0.144447 0.286330 0.265188
O O13 0.072382 0.339134 0.248531
O O14 0.139194 0.391597 0.261539
O O15 0.822333 0.718073 0.000000
O O16 0.500000 0.120817 0.795925
O O17 0.557266 0.106855 0.000000
O O18 0.832065 0.434959 0.500000
O O19 0.853880 0.500000 0.718162
#
# Coordination Sequence:
#
# PCOD8272654 Si02
#       7
#    16   8  16  16  16  16  16
#     4   9  17  29  44  59  80 110 139 169 204 243
#     4   9  17  31  49  65  79  99 131 169 209 255
#     4   9  16  27  42  59  81 107 134 168 208 247
#     4  11  20  29  46  65  79 101 136 174 213 253
#     4   9  18  31  43  58  82 109 136 170 210 246
#     4  10  21  35  47  59  79 106 133 166 211 260
#     4   8  15  26  37  53  78 103 128 163 207 248
#
# _framework density 14.436783999999999
#
# number of rings (size 3 to 8) (size 9 to 14) (size 15 to 20)
#    0.000    2.692    1.538    3.000    1.077    2.769 
#    0.000    1.538    0.000    0.000    0.000    0.000 
#    0.000    0.000    0.000    0.000    0.000    0.769 
#
# Total GULP energy -644511.610006 kJ/mol
# GULP energy per Si atom -12394.454039 kJ/mol
# Density = 1.440393 g / cm^3
# Si number density = 14.436784 Si / 1000 Ang^3
#
#
#
# Elastic Constant Matrix: (Units=GPa)
#
#
# Indices 1 2 3 4 5 6 
#
# 1 54.8324 32.0217 35.8734 0.0000 0.0000 0.0000
# 2 32.0217 95.7957 41.2527 0.0000 0.0000 0.0000
# 3 35.8734 41.2527 67.4877 0.0000 0.0000 0.0000
# 4 0.0000 0.0000 0.0000 24.8664 0.0000 0.0000
# 5 0.0000 0.0000 0.0000 0.0000 18.4914 0.0000
# 6 0.0000 0.0000 0.0000 0.0000 0.0000 23.8504
#
#
#
# Elastic Compliance Matrix: (Units=1/GPa)
#
#
# Indices 1 2 3 4 5 6 
#
# 1 0.029137 -0.004167 -0.012941 0.000000 0.000000 0.000000
# 2 -0.004167 0.014764 -0.006810 0.000000 0.000000 0.000000
# 3 -0.012941 -0.006810 0.025859 0.000000 0.000000 0.000000
# 4 0.000000 0.000000 0.000000 0.040215 0.000000 0.000000
# 5 0.000000 0.000000 0.000000 0.000000 0.054079 0.000000
# 6 0.000000 0.000000 0.000000 0.000000 0.000000 0.041928
#
#
# Mechanical properties :
#
#
# Convention : Reuss Voigt Hill
#
# Bulk Modulus (GPa) = 45.61013 48.49016 47.05015
# Shear Modulus (GPa) = 19.14779 20.70618 19.92698
#
# Velocity S-wave (km/s) = 3.64582 3.79128 3.71926
# Velocity P-wave (km/s) = 7.02739 7.26814 7.14878
#
# Compressibility (1/GPa) = 0.02192495
#
# Stress axis : x y z
#
# Youngs Moduli (GPa) = 34.32026 67.73070 38.67129
#
# Poissons Ratio (x) = 0.28223 0.50044
# Poissons Ratio (y) = 0.14301 0.26335
# Poissons Ratio (z) = 0.44414 0.46124
#
# Static dielectric constant tensor:
#      x y z
#    x 2.630020 0.000000 0.000000 
#    y 0.000000 2.828600 0.000000 
#    z 0.000000 0.000000 2.686090 
# 
# 
# High freq. dielectric constant tensor:
#      x y z
#    x 1.515230 0.000000 0.000000 
#    y 0.000000 1.532190 0.000000 
#    z 0.000000 0.000000 1.549330 
# 
# From -- ./inp_files/18869.got.cif
#   From: 2010.03.12/outbox.cif.g09.slc.cpg/sg65_10_cif.got.tgz:18869.got - 2010.04.10 20:52:16.
