data_PCOD8272422
_publ_section_title
;
Structure prediction by ZEFSAII (Michael W. Deem and Ramdas Pophale) SiO2 
 PCOD8272422
Probable space group: C M M M
;
_chemical_formula_sum "Si O2"
_cell_formula_units_Z 72
_cell_length_a 9.501908
_cell_length_b 28.387735
_cell_length_c 13.212183
_cell_angle_alpha 90.000000
_cell_angle_beta 90.000000
_cell_angle_gamma 90.000000
_cell_volume 3563.823145
_symmetry_space_group_name_H-M "C M M M"
_symmetry_group_IT_number 65
_symmetry_cell_setting 'orthorhombic'
loop_
_space_group_symop_operation_xyz
x,y,z
-x,-y,z
x,-y,-z
-x,y,-z
-x,-y,-z
x,y,-z
-x,y,z
x,-y,z
1/2+x,1/2+y,z
1/2-x,1/2-y,z
1/2+x,1/2-y,-z
1/2-x,1/2+y,-z
1/2-x,1/2-y,-z
1/2+x,1/2+y,-z
1/2-x,1/2+y,z
1/2+x,1/2-y,z
loop_
_atom_site_type_symbol
_atom_site_label
_atom_site_fract_x
_atom_site_fract_y
_atom_site_fract_z
Si Si1 0.837666 0.555583 0.500000
Si Si2 0.654231 0.789959 0.115557
Si Si3 0.339092 0.293569 0.616117
Si Si4 0.340743 0.619325 0.889475
Si Si5 0.839265 0.897529 0.673909
O O1 0.822873 0.500000 0.500000
O O2 0.764655 0.574550 0.601292
O O3 0.000000 0.571639 0.500000
O O4 0.500000 0.792634 0.168263
O O5 0.750000 0.750000 0.169972
O O6 0.728695 0.839832 0.121557
O O7 0.632150 0.774726 0.000000
O O8 0.299146 0.303653 0.500000
O O9 0.500000 0.279146 0.628661
O O10 0.250000 0.250000 0.659892
O O11 0.303317 0.341703 0.675341
O O12 0.500000 0.640025 0.884081
O O13 0.319770 0.585095 0.791356
O O14 0.319439 0.593870 0.000000
O O15 0.000000 0.905541 0.636245
#
# Coordination Sequence:
#
# PCOD8272422 Si02
#       5
#     8  16  16  16  16
#     4  11  25  43  64  91 116 137 174 231 288 341
#     4   9  16  26  41  62  94 140 192 240 281 320
#     4   9  17  30  48  73 107 146 188 229 270 323
#     4   9  18  32  51  77 109 144 183 228 276 327
#     4  10  20  37  60  85 115 151 190 231 278 335
#
# _framework density 20.203022000000001
#
# number of rings (size 3 to 8) (size 9 to 14) (size 15 to 20)
#    0.000    2.556    1.111    1.000    0.000    6.222 
#    0.000    2.222    0.000    0.667    0.000    4.667 
#    0.000    0.000    0.000    0.000    0.000    0.000 
#
# Total GULP energy -446060.375802 kJ/mol
# GULP energy per Si atom -12390.565994 kJ/mol
# Density = 2.015704 g / cm^3
# Si number density = 20.203022 Si / 1000 Ang^3
#
#
#
# Elastic Constant Matrix: (Units=GPa)
#
#
# Indices 1 2 3 4 5 6 
#
# 1 136.4988 40.2160 62.1085 0.0000 0.0000 0.0000
# 2 40.2160 50.9213 32.5963 0.0000 0.0000 0.0000
# 3 62.1085 32.5963 153.9282 0.0000 0.0000 0.0000
# 4 0.0000 0.0000 0.0000 2.0484 0.0000 0.0000
# 5 0.0000 0.0000 0.0000 0.0000 13.4633 0.0000
# 6 0.0000 0.0000 0.0000 0.0000 0.0000 26.2428
#
#
#
# Elastic Compliance Matrix: (Units=1/GPa)
#
#
# Indices 1 2 3 4 5 6 
#
# 1 0.010549 -0.006486 -0.002883 0.000000 0.000000 0.000000
# 2 -0.006486 0.026705 -0.003038 0.000000 0.000000 0.000000
# 3 -0.002883 -0.003038 0.008303 0.000000 0.000000 0.000000
# 4 0.000000 0.000000 0.000000 0.488196 0.000000 0.000000
# 5 0.000000 0.000000 0.000000 0.000000 0.074276 0.000000
# 6 0.000000 0.000000 0.000000 0.000000 0.000000 0.038106
#
#
# Mechanical properties :
#
#
# Convention : Reuss Voigt Hill
#
# Bulk Modulus (GPa) = 48.20795 67.90999 58.05897
# Shear Modulus (GPa) = 7.37612 22.11272 14.74442
#
# Velocity S-wave (km/s) = 1.91283 3.31195 2.70444
# Velocity P-wave (km/s) = 5.36583 6.95069 6.20903
#
# Compressibility (1/GPa) = 0.02074347
#
# Stress axis : x y z
#
# Youngs Moduli (GPa) = 94.79920 37.44596 120.43634
#
# Poissons Ratio (x) = 0.24286 0.34720
# Poissons Ratio (y) = 0.61483 0.36592
# Poissons Ratio (z) = 0.27329 0.11377
#
# Static dielectric constant tensor:
#      x y z
#    x 3.923810 0.000000 0.000000 
#    y 0.000000 3.071460 0.000000 
#    z 0.000000 0.000000 4.120630 
# 
# 
# High freq. dielectric constant tensor:
#      x y z
#    x 1.793370 0.000000 0.000000 
#    y 0.000000 1.719970 0.000000 
#    z 0.000000 0.000000 1.814620 
# 
# From -- ./inp_files/36974.got.cif
#   From: 2010.03.12/outbox.cif.g09.slc.cpg/sg65_19_cif.got.tgz:36974.got - 2010.04.10 20:52:16.
