data_PCOD8272607
_publ_section_title
;
Structure prediction by ZEFSAII (Michael W. Deem and Ramdas Pophale) SiO2 
 PCOD8272607
Probable space group: C M M M
;
_chemical_formula_sum "Si O2"
_cell_formula_units_Z 88
_cell_length_a 17.605907
_cell_length_b 30.399454
_cell_length_c 9.124666
_cell_angle_alpha 90.000000
_cell_angle_beta 90.000000
_cell_angle_gamma 90.000000
_cell_volume 4883.612125
_symmetry_space_group_name_H-M "C M M M"
_symmetry_group_IT_number 65
_symmetry_cell_setting 'orthorhombic'
loop_
_space_group_symop_operation_xyz
x,y,z
-x,-y,z
x,-y,-z
-x,y,-z
-x,-y,-z
x,y,-z
-x,y,z
x,-y,z
1/2+x,1/2+y,z
1/2-x,1/2-y,z
1/2+x,1/2-y,-z
1/2-x,1/2+y,-z
1/2-x,1/2-y,-z
1/2+x,1/2+y,-z
1/2-x,1/2+y,z
1/2+x,1/2-y,z
loop_
_atom_site_type_symbol
_atom_site_label
_atom_site_fract_x
_atom_site_fract_y
_atom_site_fract_z
Si Si1 0.694165 0.619705 0.666938
Si Si2 0.588875 0.449959 0.170459
Si Si3 0.139295 0.418157 0.335227
Si Si4 0.585662 0.000000 0.172659
Si Si5 0.417242 0.160083 0.166042
Si Si6 0.259868 0.200816 0.171241
O O1 0.668793 0.628677 0.500000
O O2 0.633135 0.587481 0.740590
O O3 0.774081 0.595821 0.673637
O O4 0.703124 0.666815 0.748061
O O5 0.500000 0.442599 0.199428
O O6 0.611324 0.500000 0.219430
O O7 0.608307 0.443959 0.000000
O O8 0.115057 0.430311 0.500000
O O9 0.131924 0.458833 0.228980
O O10 0.083776 0.380454 0.277045
O O11 0.500000 0.000000 0.234812
O O12 0.585785 0.000000 0.000000
O O13 0.500000 0.183507 0.183540
O O14 0.348708 0.192526 0.204408
O O15 0.407223 0.142328 0.000000
O O16 0.250000 0.250000 0.232201
O O17 0.240214 0.197602 0.000000
#
# Coordination Sequence:
#
# PCOD8272607 Si02
#       6
#    16  16  16   8  16  16
#     4  10  21  35  53  78 107 138 173 214 263 320
#     4   9  19  36  57  81 108 140 180 224 269 319
#     4  10  21  34  48  70 100 133 168 206 248 298
#     4  11  23  35  47  67  96 131 170 209 249 290
#     4   9  17  31  51  73  97 127 167 212 255 302
#     4   9  18  34  55  77 103 137 177 220 269 322
#
# _framework density 18.019449999999999
#
# number of rings (size 3 to 8) (size 9 to 14) (size 15 to 20)
#    0.000    2.455    0.000    2.455    1.273    6.545 
#    0.000    1.818    0.000    3.273    0.000    0.000 
#    0.000    0.000    0.000    0.000    0.000    0.000 
#
# Total GULP energy -545421.294487 kJ/mol
# GULP energy per Si atom -12395.938511 kJ/mol
# Density = 1.797844 g / cm^3
# Si number density = 18.019450 Si / 1000 Ang^3
#
#
#
# Elastic Constant Matrix: (Units=GPa)
#
#
# Indices 1 2 3 4 5 6 
#
# 1 75.2198 54.7050 40.0627 0.0000 0.0000 0.0000
# 2 54.7050 146.5670 62.3173 0.0000 0.0000 0.0000
# 3 40.0627 62.3173 89.3629 0.0000 0.0000 0.0000
# 4 0.0000 0.0000 0.0000 24.1137 0.0000 0.0000
# 5 0.0000 0.0000 0.0000 0.0000 22.8695 0.0000
# 6 0.0000 0.0000 0.0000 0.0000 0.0000 25.6084
#
#
#
# Elastic Compliance Matrix: (Units=1/GPa)
#
#
# Indices 1 2 3 4 5 6 
#
# 1 0.019877 -0.005160 -0.005313 0.000000 0.000000 0.000000
# 2 -0.005160 0.011038 -0.005384 0.000000 0.000000 0.000000
# 3 -0.005313 -0.005384 0.017327 0.000000 0.000000 0.000000
# 4 0.000000 0.000000 0.000000 0.041470 0.000000 0.000000
# 5 0.000000 0.000000 0.000000 0.000000 0.043726 0.000000
# 6 0.000000 0.000000 0.000000 0.000000 0.000000 0.039050
#
#
# Mechanical properties :
#
#
# Convention : Reuss Voigt Hill
#
# Bulk Modulus (GPa) = 60.50392 69.47998 64.99195
# Shear Modulus (GPa) = 23.84246 24.78931 24.31588
#
# Velocity S-wave (km/s) = 3.64146 3.71306 3.67744
# Velocity P-wave (km/s) = 7.16451 7.55146 7.36053
#
# Compressibility (1/GPa) = 0.01652785
#
# Stress axis : x y z
#
# Youngs Moduli (GPa) = 50.31035 90.59691 57.71461
#
# Poissons Ratio (x) = 0.46748 0.30662
# Poissons Ratio (y) = 0.25960 0.31074
# Poissons Ratio (z) = 0.26728 0.48777
#
# Static dielectric constant tensor:
#      x y z
#    x 3.323640 0.000000 0.000000 
#    y 0.000000 3.177800 0.000000 
#    z 0.000000 0.000000 3.455960 
# 
# 
# High freq. dielectric constant tensor:
#      x y z
#    x 1.696140 0.000000 0.000000 
#    y 0.000000 1.687230 0.000000 
#    z 0.000000 0.000000 1.700840 
# 
# From -- ./inp_files/10131.got.cif
#   From: 2010.03.12/outbox.cif.g09.slc.cpg/sg65_6_cif.got.tgz:10131.got - 2010.04.10 20:52:16.
