data_PCOD8272194
_publ_section_title
;
Structure prediction by ZEFSAII (Michael W. Deem and Ramdas Pophale) SiO2 
 PCOD8272194
Probable space group: C M M M
;
_chemical_formula_sum "Si O2"
_cell_formula_units_Z 112
_cell_length_a 18.184324
_cell_length_b 21.233094
_cell_length_c 14.637954
_cell_angle_alpha 90.000000
_cell_angle_beta 90.000000
_cell_angle_gamma 90.000000
_cell_volume 5651.852526
_symmetry_space_group_name_H-M "C M M M"
_symmetry_group_IT_number 65
_symmetry_cell_setting 'orthorhombic'
loop_
_space_group_symop_operation_xyz
x,y,z
-x,-y,z
x,-y,-z
-x,y,-z
-x,-y,-z
x,y,-z
-x,y,z
x,-y,z
1/2+x,1/2+y,z
1/2-x,1/2-y,z
1/2+x,1/2-y,-z
1/2-x,1/2+y,-z
1/2-x,1/2-y,-z
1/2+x,1/2+y,-z
1/2-x,1/2+y,z
1/2+x,1/2-y,z
loop_
_atom_site_type_symbol
_atom_site_label
_atom_site_fract_x
_atom_site_fract_y
_atom_site_fract_z
Si Si1 0.085386 0.202537 0.393784
Si Si2 0.823281 0.572908 0.741629
Si Si3 0.920274 0.927570 0.098148
Si Si4 0.167664 0.864557 0.240079
Si Si5 0.415266 0.154268 0.606246
Si Si6 0.336782 0.744868 0.101390
Si Si7 0.413694 0.874066 0.105493
O O1 0.099596 0.188931 0.500000
O O2 0.134816 0.152130 0.339086
O O3 0.109492 0.274189 0.369830
O O4 0.000000 0.192445 0.369698
O O5 0.802450 0.500000 0.721032
O O6 0.752716 0.618053 0.751613
O O7 0.868971 0.601879 0.658535
O O8 0.872615 0.573796 0.833472
O O9 0.870012 0.922103 0.187975
O O10 0.000000 0.894618 0.113954
O O11 0.933772 0.000000 0.085802
O O12 0.886328 0.902559 0.000000
O O13 0.143870 0.807760 0.173879
O O14 0.403287 0.141518 0.500000
O O15 0.500000 0.145713 0.633637
O O16 0.250000 0.750000 0.099600
O O17 0.377442 0.807990 0.133925
O O18 0.365827 0.727549 0.000000
O O19 0.500000 0.872658 0.127875
O O20 0.398996 0.890684 0.000000
#
# Coordination Sequence:
#
# PCOD8272194 Si02
#       7
#    16  16  16  16  16  16  16
#     4   9  20  39  64  93 119 144 181 236 302 367
#     4  12  26  39  54  82 118 156 200 242 280 332
#     4   9  19  36  56  80 112 150 195 242 280 323
#     4  12  22  34  58  86 117 155 192 230 288 355
#     4   9  20  41  65  86 110 141 182 237 297 349
#     4  10  20  36  57  83 117 150 184 234 296 355
#     4  10  22  40  60  84 116 154 196 243 293 346
#
# _framework density 19.816511999999999
#
# number of rings (size 3 to 8) (size 9 to 14) (size 15 to 20)
#    0.000    1.857    1.429    3.857    0.000    5.143 
#    0.000    4.286    0.000    1.286    0.000    5.000 
#    0.000    0.000    0.000    0.000    0.000    0.000 
#
# Total GULP energy -694024.051564 kJ/mol
# GULP energy per Si atom -12393.286635 kJ/mol
# Density = 1.977141 g / cm^3
# Si number density = 19.816512 Si / 1000 Ang^3
#
#
#
# Elastic Constant Matrix: (Units=GPa)
#
#
# Indices 1 2 3 4 5 6 
#
# 1 95.4480 32.3412 49.7074 0.0000 0.0000 0.0000
# 2 32.3412 70.3496 38.2680 0.0000 0.0000 0.0000
# 3 49.7074 38.2680 103.2880 0.0000 0.0000 0.0000
# 4 0.0000 0.0000 0.0000 32.9287 0.0000 0.0000
# 5 0.0000 0.0000 0.0000 0.0000 30.6774 0.0000
# 6 0.0000 0.0000 0.0000 0.0000 0.0000 19.9961
#
#
#
# Elastic Compliance Matrix: (Units=1/GPa)
#
#
# Indices 1 2 3 4 5 6 
#
# 1 0.014690 -0.003642 -0.005720 0.000000 0.000000 0.000000
# 2 -0.003642 0.018705 -0.005178 0.000000 0.000000 0.000000
# 3 -0.005720 -0.005178 0.014353 0.000000 0.000000 0.000000
# 4 0.000000 0.000000 0.000000 0.030369 0.000000 0.000000
# 5 0.000000 0.000000 0.000000 0.000000 0.032597 0.000000
# 6 0.000000 0.000000 0.000000 0.000000 0.000000 0.050010
#
#
# Mechanical properties :
#
#
# Convention : Reuss Voigt Hill
#
# Bulk Modulus (GPa) = 53.56526 56.63543 55.10034
# Shear Modulus (GPa) = 25.50679 26.63836 26.07257
#
# Velocity S-wave (km/s) = 3.59158 3.67038 3.63119
# Velocity P-wave (km/s) = 6.65496 6.82673 6.74139
#
# Compressibility (1/GPa) = 0.01866882
#
# Stress axis : x y z
#
# Youngs Moduli (GPa) = 68.07439 53.46052 69.67223
#
# Poissons Ratio (x) = 0.19468 0.39855
# Poissons Ratio (y) = 0.24790 0.36075
# Poissons Ratio (z) = 0.38941 0.27681
#
# Static dielectric constant tensor:
#      x y z
#    x 3.589790 0.000000 0.000000 
#    y 0.000000 3.483440 0.000000 
#    z 0.000000 0.000000 3.784600 
# 
# 
# High freq. dielectric constant tensor:
#      x y z
#    x 1.772090 0.000000 0.000000 
#    y 0.000000 1.757220 0.000000 
#    z 0.000000 0.000000 1.780590 
# 
# From -- ./inp_files/40803.got.cif
#   From: 2010.03.12/outbox.cif.g09.slc.cpg/sg65_21_cif.got.tgz:40803.got - 2010.04.10 20:52:16.
