data_PCOD8272179
_publ_section_title
;
Structure prediction by ZEFSAII (Michael W. Deem and Ramdas Pophale) SiO2 
 PCOD8272179
Probable space group: C M M M
;
_chemical_formula_sum "Si O2"
_cell_formula_units_Z 104
_cell_length_a 28.726481
_cell_length_b 8.830392
_cell_length_c 20.187241
_cell_angle_alpha 90.000000
_cell_angle_beta 90.000000
_cell_angle_gamma 90.000000
_cell_volume 5120.818452
_symmetry_space_group_name_H-M "C M M M"
_symmetry_group_IT_number 65
_symmetry_cell_setting 'orthorhombic'
loop_
_space_group_symop_operation_xyz
x,y,z
-x,-y,z
x,-y,-z
-x,y,-z
-x,-y,-z
x,y,-z
-x,y,z
x,-y,z
1/2+x,1/2+y,z
1/2-x,1/2-y,z
1/2+x,1/2-y,-z
1/2-x,1/2+y,-z
1/2-x,1/2-y,-z
1/2+x,1/2+y,-z
1/2-x,1/2+y,z
1/2+x,1/2-y,z
loop_
_atom_site_type_symbol
_atom_site_label
_atom_site_fract_x
_atom_site_fract_y
_atom_site_fract_z
Si Si1 0.445622 0.828772 0.689028
Si Si2 0.389286 0.326222 0.425824
Si Si3 0.198506 0.819963 0.000000
Si Si4 0.798278 0.320567 0.616073
Si Si5 0.296226 0.826142 0.765861
Si Si6 0.053398 0.178034 0.827031
Si Si7 0.861232 0.323284 0.115354
O O1 0.500000 0.826238 0.675294
O O2 0.422308 0.761391 0.624223
O O3 0.432881 0.732648 0.753712
O O4 0.427349 0.000000 0.700495
O O5 0.410145 0.313104 0.500000
O O6 0.385512 0.500000 0.403427
O O7 0.338582 0.251065 0.427810
O O8 0.250000 0.750000 0.000000
O O9 0.169794 0.767151 0.936439
O O10 0.203341 0.000000 0.000000
O O11 0.797249 0.500000 0.606881
O O12 0.750000 0.250000 0.591112
O O13 0.808147 0.269614 0.692045
O O14 0.250000 0.750000 0.795268
O O15 0.339880 0.792069 0.812376
O O16 0.283472 0.000000 0.763915
O O17 0.086056 0.259693 0.881605
O O18 0.000000 0.221733 0.843428
O O19 0.061487 0.000000 0.831277
O O20 0.861834 0.500000 0.096153
#
# Coordination Sequence:
#
# PCOD8272179 Si02
#       7
#    16  16   8  16  16  16  16
#     4  10  21  38  61  88 117 150 190 238 291 347
#     4  11  24  39  55  78 109 147 192 240 292 352
#     4  12  26  44  63  88 125 166 208 249 291 343
#     4  10  20  36  57  81 110 144 185 235 290 347
#     4   9  19  33  53  82 111 140 179 229 283 340
#     4  10  21  38  62  92 123 155 193 239 292 346
#     4  11  22  38  61  89 121 158 200 244 292 344
#
# _framework density 20.309252000000001
#
# number of rings (size 3 to 8) (size 9 to 14) (size 15 to 20)
#    0.000    1.692    0.000    4.385    0.000    8.000 
#    0.000    1.923    0.000    2.308    0.000    0.000 
#    0.000    0.000    0.000    0.000    0.000    0.000 
#
# Total GULP energy -644957.752024 kJ/mol
# GULP energy per Si atom -12403.033693 kJ/mol
# Density = 2.026303 g / cm^3
# Si number density = 20.309252 Si / 1000 Ang^3
#
#
#
# Elastic Constant Matrix: (Units=GPa)
#
#
# Indices 1 2 3 4 5 6 
#
# 1 105.1226 58.6645 49.5928 0.0000 0.0000 0.0000
# 2 58.6645 108.7496 32.7525 0.0000 0.0000 0.0000
# 3 49.5928 32.7525 66.3586 0.0000 0.0000 0.0000
# 4 0.0000 0.0000 0.0000 29.3369 0.0000 0.0000
# 5 0.0000 0.0000 0.0000 0.0000 27.1170 0.0000
# 6 0.0000 0.0000 0.0000 0.0000 0.0000 39.9581
#
#
#
# Elastic Compliance Matrix: (Units=1/GPa)
#
#
# Indices 1 2 3 4 5 6 
#
# 1 0.018039 -0.006661 -0.010194 0.000000 0.000000 0.000000
# 2 -0.006661 0.013261 -0.001567 0.000000 0.000000 0.000000
# 3 -0.010194 -0.001567 0.023461 0.000000 0.000000 0.000000
# 4 0.000000 0.000000 0.000000 0.034087 0.000000 0.000000
# 5 0.000000 0.000000 0.000000 0.000000 0.036877 0.000000
# 6 0.000000 0.000000 0.000000 0.000000 0.000000 0.025026
#
#
# Mechanical properties :
#
#
# Convention : Reuss Voigt Hill
#
# Bulk Modulus (GPa) = 55.81118 62.47225 59.14171
# Shear Modulus (GPa) = 25.83094 28.56381 27.19738
#
# Velocity S-wave (km/s) = 3.57021 3.75433 3.66343
# Velocity P-wave (km/s) = 6.67350 7.04419 6.86134
#
# Compressibility (1/GPa) = 0.01791756
#
# Stress axis : x y z
#
# Youngs Moduli (GPa) = 55.43596 75.41154 42.62358
#
# Poissons Ratio (x) = 0.50231 0.43449
# Poissons Ratio (y) = 0.36925 0.06679
# Poissons Ratio (z) = 0.56509 0.11817
#
# Static dielectric constant tensor:
#      x y z
#    x 3.711840 0.000000 0.000000 
#    y 0.000000 3.792780 0.000000 
#    z 0.000000 0.000000 3.719090 
# 
# 
# High freq. dielectric constant tensor:
#      x y z
#    x 1.801610 0.000000 0.000000 
#    y 0.000000 1.805210 0.000000 
#    z 0.000000 0.000000 1.783270 
# 
# From -- ./inp_files/60389.got.cif
#   From: 2010.03.12/outbox.cif.g09.slc.cpg/sg65_31_cif.got.tgz:60389.got - 2010.04.10 20:52:16.
