data_PCOD8272213
_publ_section_title
;
Structure prediction by ZEFSAII (Michael W. Deem and Ramdas Pophale) SiO2 
 PCOD8272213
Probable space group: C M M M
;
_chemical_formula_sum "Si O2"
_cell_formula_units_Z 72
_cell_length_a 9.111753
_cell_length_b 15.724217
_cell_length_c 26.067212
_cell_angle_alpha 90.000000
_cell_angle_beta 90.000000
_cell_angle_gamma 90.000000
_cell_volume 3734.784528
_symmetry_space_group_name_H-M "C M M M"
_symmetry_group_IT_number 65
_symmetry_cell_setting 'orthorhombic'
loop_
_space_group_symop_operation_xyz
x,y,z
-x,-y,z
x,-y,-z
-x,y,-z
-x,-y,-z
x,y,-z
-x,y,z
x,-y,z
1/2+x,1/2+y,z
1/2-x,1/2-y,z
1/2+x,1/2-y,-z
1/2-x,1/2+y,-z
1/2-x,1/2-y,-z
1/2+x,1/2+y,-z
1/2-x,1/2+y,z
1/2+x,1/2-y,z
loop_
_atom_site_type_symbol
_atom_site_label
_atom_site_fract_x
_atom_site_fract_y
_atom_site_fract_z
Si Si1 0.172454 0.664885 0.795153
Si Si2 0.825306 0.500000 0.735559
Si Si3 0.825375 0.500000 0.619206
Si Si4 0.826900 0.160072 0.000000
Si Si5 0.835248 0.403044 0.903853
Si Si6 0.328092 0.835348 0.559314
O O1 0.250000 0.750000 0.774814
O O2 0.235156 0.584562 0.763502
O O3 0.209744 0.653814 0.855316
O O4 0.000000 0.674119 0.786258
O O5 0.767658 0.500000 0.677359
O O6 0.000000 0.500000 0.738357
O O7 0.765745 0.415588 0.590994
O O8 0.000000 0.500000 0.616573
O O9 0.750000 0.250000 0.000000
O O10 0.779162 0.109246 0.050424
O O11 0.000000 0.171021 0.000000
O O12 0.830943 0.500000 0.885121
O O13 0.000000 0.379398 0.922750
O O14 0.290815 0.852213 0.500000
O O15 0.500000 0.823380 0.568321
O O16 0.250000 0.750000 0.579384
#
# Coordination Sequence:
#
# PCOD8272213 Si02
#       6
#    16   8   8   8  16  16
#     4  10  20  36  58  81 105 138 177 219 264 318
#     4   9  18  35  55  77 105 138 179 222 267 318
#     4   9  17  30  52  76 101 139 182 222 263 314
#     4  12  25  38  53  79 111 141 175 217 262 315
#     4  10  20  37  59  80 106 140 174 211 263 323
#     4   9  17  30  49  75 106 140 179 220 263 314
#
# _framework density 19.278219
#
# number of rings (size 3 to 8) (size 9 to 14) (size 15 to 20)
#    0.000    2.222    1.111    2.333    0.000    6.667 
#    0.000    1.111    0.000    4.000    0.000    0.000 
#    0.000    0.000    0.000    0.000    0.000    0.000 
#
# Total GULP energy -446459.450110 kJ/mol
# GULP energy per Si atom -12401.651392 kJ/mol
# Density = 1.923434 g / cm^3
# Si number density = 19.278219 Si / 1000 Ang^3
#
#
#
# Elastic Constant Matrix: (Units=GPa)
#
#
# Indices 1 2 3 4 5 6 
#
# 1 56.5031 41.5700 38.6899 0.0000 0.0000 0.0000
# 2 41.5700 172.4666 75.7454 0.0000 0.0000 0.0000
# 3 38.6899 75.7454 109.4895 0.0000 0.0000 0.0000
# 4 0.0000 0.0000 0.0000 22.1891 0.0000 0.0000
# 5 0.0000 0.0000 0.0000 0.0000 13.1265 0.0000
# 6 0.0000 0.0000 0.0000 0.0000 0.0000 33.3639
#
#
#
# Elastic Compliance Matrix: (Units=1/GPa)
#
#
# Indices 1 2 3 4 5 6 
#
# 1 0.024387 -0.003007 -0.006537 0.000000 0.000000 0.000000
# 2 -0.003007 0.008700 -0.004956 0.000000 0.000000 0.000000
# 3 -0.006537 -0.004956 0.014872 0.000000 0.000000 0.000000
# 4 0.000000 0.000000 0.000000 0.045067 0.000000 0.000000
# 5 0.000000 0.000000 0.000000 0.000000 0.076182 0.000000
# 6 0.000000 0.000000 0.000000 0.000000 0.000000 0.029973
#
#
# Mechanical properties :
#
#
# Convention : Reuss Voigt Hill
#
# Bulk Modulus (GPa) = 52.74804 72.27443 62.51124
# Shear Modulus (GPa) = 21.32207 25.89949 23.61078
#
# Velocity S-wave (km/s) = 3.32929 3.66930 3.50342
# Velocity P-wave (km/s) = 6.49614 7.45139 6.99010
#
# Compressibility (1/GPa) = 0.01895805
#
# Stress axis : x y z
#
# Youngs Moduli (GPa) = 41.00607 114.94857 67.24130
#
# Poissons Ratio (x) = 0.34564 0.43957
# Poissons Ratio (y) = 0.12330 0.33324
# Poissons Ratio (z) = 0.26807 0.56967
#
# Static dielectric constant tensor:
#      x y z
#    x 3.250400 0.000000 0.000000 
#    y 0.000000 3.700730 0.000000 
#    z 0.000000 0.000000 3.614630 
# 
# 
# High freq. dielectric constant tensor:
#      x y z
#    x 1.712590 0.000000 0.000000 
#    y 0.000000 1.766270 0.000000 
#    z 0.000000 0.000000 1.747090 
# 
# From -- ./inp_files/72574.got.cif
#   From: 2010.03.12/outbox.cif.g09.slc.cpg/sg65_37_cif.got.tgz:72574.got - 2010.04.10 20:52:16.
