data_PCOD8272914
_publ_section_title
;
Structure prediction by ZEFSAII (Michael W. Deem and Ramdas Pophale) SiO2 
 PCOD8272914
Probable space group: C M M M
;
_chemical_formula_sum "Si O2"
_cell_formula_units_Z 64
_cell_length_a 18.142302
_cell_length_b 8.936573
_cell_length_c 20.916861
_cell_angle_alpha 90.000000
_cell_angle_beta 90.000000
_cell_angle_gamma 90.000000
_cell_volume 3391.250804
_symmetry_space_group_name_H-M "C M M M"
_symmetry_group_IT_number 65
_symmetry_cell_setting 'orthorhombic'
loop_
_space_group_symop_operation_xyz
x,y,z
-x,-y,z
x,-y,-z
-x,y,-z
-x,-y,-z
x,y,-z
-x,y,z
x,-y,z
1/2+x,1/2+y,z
1/2-x,1/2-y,z
1/2+x,1/2-y,-z
1/2-x,1/2+y,-z
1/2-x,1/2-y,-z
1/2+x,1/2+y,-z
1/2-x,1/2+y,z
1/2+x,1/2-y,z
loop_
_atom_site_type_symbol
_atom_site_label
_atom_site_fract_x
_atom_site_fract_y
_atom_site_fract_z
Si Si1 0.829535 0.177410 0.876147
Si Si2 0.085552 0.674912 0.238143
Si Si3 0.328979 0.175515 0.362259
Si Si4 0.582705 0.322355 0.000000
Si Si5 0.172234 0.325533 0.500000
O O1 0.750000 0.250000 0.878267
O O2 0.871910 0.227064 0.813167
O O3 0.820959 0.000000 0.876231
O O4 0.874946 0.235773 0.937399
O O5 0.100481 0.500000 0.225504
O O6 0.113972 0.725631 0.307884
O O7 0.000000 0.714169 0.233977
O O8 0.250000 0.250000 0.350769
O O9 0.365614 0.219530 0.431991
O O10 0.314910 0.000000 0.358367
O O11 0.579172 0.500000 0.000000
O O12 0.500000 0.255322 0.000000
O O13 0.185898 0.500000 0.500000
O O14 0.250000 0.250000 0.500000
#
# Coordination Sequence:
#
# PCOD8272914 Si02
#       5
#    16  16  16   8   8
#     4  11  22  37  58  81 106 137 174 214 255 302
#     4  10  21  36  52  74 106 139 172 214 262 309
#     4   9  17  30  49  72  98 130 168 211 256 302
#     4   9  19  36  57  81 108 137 170 209 252 300
#     4   8  14  26  45  69  95 125 165 208 251 300
#
# _framework density 18.872095000000002
#
# number of rings (size 3 to 8) (size 9 to 14) (size 15 to 20)
#    0.000    2.375    0.000    2.625    0.000    4.500 
#    0.000    2.500    0.000    8.250    0.000    0.000 
#    0.000   12.000    0.000    0.000    0.000    0.000 
#
# Total GULP energy -396586.912430 kJ/mol
# GULP energy per Si atom -12393.341013 kJ/mol
# Density = 1.882914 g / cm^3
# Si number density = 18.872095 Si / 1000 Ang^3
#
#
#
# Elastic Constant Matrix: (Units=GPa)
#
#
# Indices 1 2 3 4 5 6 
#
# 1 137.7023 38.5011 85.1567 0.0000 0.0000 0.0000
# 2 38.5011 40.2008 44.2612 0.0000 0.0000 0.0000
# 3 85.1567 44.2612 191.7104 0.0000 0.0000 0.0000
# 4 0.0000 0.0000 0.0000 25.7898 0.0000 0.0000
# 5 0.0000 0.0000 0.0000 0.0000 13.1357 0.0000
# 6 0.0000 0.0000 0.0000 0.0000 0.0000 3.5650
#
#
#
# Elastic Compliance Matrix: (Units=1/GPa)
#
#
# Indices 1 2 3 4 5 6 
#
# 1 0.011359 -0.007138 -0.003398 0.000000 0.000000 0.000000
# 2 -0.007138 0.037839 -0.005565 0.000000 0.000000 0.000000
# 3 -0.003398 -0.005565 0.008010 0.000000 0.000000 0.000000
# 4 0.000000 0.000000 0.000000 0.038775 0.000000 0.000000
# 5 0.000000 0.000000 0.000000 0.000000 0.076128 0.000000
# 6 0.000000 0.000000 0.000000 0.000000 0.000000 0.280506
#
#
# Mechanical properties :
#
#
# Convention : Reuss Voigt Hill
#
# Bulk Modulus (GPa) = 39.99012 78.38351 59.18682
# Shear Modulus (GPa) = 10.13880 21.94438 16.04159
#
# Velocity S-wave (km/s) = 2.32035 3.41368 2.91867
# Velocity P-wave (km/s) = 5.33055 7.56055 6.54128
#
# Compressibility (1/GPa) = 0.02500618
#
# Stress axis : x y z
#
# Youngs Moduli (GPa) = 88.03683 26.42788 124.83895
#
# Poissons Ratio (x) = 0.18864 0.42415
# Poissons Ratio (y) = 0.62840 0.69479
# Poissons Ratio (z) = 0.29911 0.14708
#
# Static dielectric constant tensor:
#      x y z
#    x 3.390290 0.000000 0.000000 
#    y 0.000000 3.299970 0.000000 
#    z 0.000000 0.000000 4.195840 
# 
# 
# High freq. dielectric constant tensor:
#      x y z
#    x 1.718420 0.000000 0.000000 
#    y 0.000000 1.717540 0.000000 
#    z 0.000000 0.000000 1.762940 
# 
# From -- ./inp_files/49099.got.cif
#   From: 2010.03.12/outbox.cif.g09.slc.cpg/sg65_25_cif.got.tgz:49099.got - 2010.04.10 20:52:16.
