data_PCOD8272555
_publ_section_title
;
Structure prediction by ZEFSAII (Michael W. Deem and Ramdas Pophale) SiO2 
 PCOD8272555
Probable space group: C M M M
;
_chemical_formula_sum "Si O2"
_cell_formula_units_Z 72
_cell_length_a 14.715512
_cell_length_b 28.811130
_cell_length_c 8.805971
_cell_angle_alpha 90.000000
_cell_angle_beta 90.000000
_cell_angle_gamma 90.000000
_cell_volume 3733.472185
_symmetry_space_group_name_H-M "C M M M"
_symmetry_group_IT_number 65
_symmetry_cell_setting 'orthorhombic'
loop_
_space_group_symop_operation_xyz
x,y,z
-x,-y,z
x,-y,-z
-x,y,-z
-x,-y,-z
x,y,-z
-x,y,z
x,-y,z
1/2+x,1/2+y,z
1/2-x,1/2-y,z
1/2+x,1/2-y,-z
1/2-x,1/2+y,-z
1/2-x,1/2-y,-z
1/2+x,1/2+y,-z
1/2-x,1/2+y,z
1/2+x,1/2-y,z
loop_
_atom_site_type_symbol
_atom_site_label
_atom_site_fract_x
_atom_site_fract_y
_atom_site_fract_z
Si Si1 0.500000 0.947051 0.179057
Si Si2 0.828416 0.864707 0.324761
Si Si3 0.000000 0.700734 0.320212
Si Si4 0.000000 0.194020 0.680167
Si Si5 0.635643 0.132333 0.178371
Si Si6 0.606874 0.449214 0.167054
O O1 0.410573 0.916990 0.229972
O O2 0.500000 0.000000 0.249737
O O3 0.500000 0.952684 0.000000
O O4 0.805276 0.854503 0.500000
O O5 0.907682 0.830806 0.260820
O O6 0.739691 0.861657 0.222059
O O7 0.862599 0.917092 0.305288
O O8 0.088920 0.675518 0.259868
O O9 0.000000 0.700157 0.500000
O O10 0.000000 0.753540 0.259943
O O11 0.000000 0.190139 0.500000
O O12 0.622152 0.137887 0.000000
O O13 0.500000 0.452957 0.166961
O O14 0.649626 0.500000 0.195518
O O15 0.639721 0.430967 0.000000
#
# Coordination Sequence:
#
# PCOD8272555 Si02
#       6
#     8  16   8   8  16  16
#     4   8  16  34  59  81 105 142 181 218 266 324
#     4  11  21  36  56  82 113 148 191 234 279 333
#     4  10  20  40  63  80 103 143 189 233 285 341
#     4   9  21  38  57  80 109 146 189 234 281 339
#     4  10  21  37  57  85 116 143 180 232 286 339
#     4   9  18  33  52  75 107 147 186 224 272 328
#
# _framework density 19.284996
#
# number of rings (size 3 to 8) (size 9 to 14) (size 15 to 20)
#    0.000    2.333    1.111    3.000    0.000    2.222 
#    0.000   12.222    0.000   11.333    0.000    0.000 
#    0.000    0.000    0.000    0.000    0.000    0.000 
#
# Total GULP energy -446121.242663 kJ/mol
# GULP energy per Si atom -12392.256741 kJ/mol
# Density = 1.924110 g / cm^3
# Si number density = 19.284996 Si / 1000 Ang^3
#
#
#
# Elastic Constant Matrix: (Units=GPa)
#
#
# Indices 1 2 3 4 5 6 
#
# 1 118.1685 70.5119 20.0877 0.0000 0.0000 0.0000
# 2 70.5119 156.6029 33.4262 0.0000 0.0000 0.0000
# 3 20.0877 33.4262 47.7862 0.0000 0.0000 0.0000
# 4 0.0000 0.0000 0.0000 26.6258 0.0000 0.0000
# 5 0.0000 0.0000 0.0000 0.0000 32.0873 0.0000
# 6 0.0000 0.0000 0.0000 0.0000 0.0000 -0.3020
#
#
#
# Elastic Compliance Matrix: (Units=1/GPa)
#
#
# Indices 1 2 3 4 5 6 
#
# 1 0.011656 -0.004940 -0.001444 0.000000 0.000000 0.000000
# 2 -0.004940 0.009600 -0.004639 0.000000 0.000000 0.000000
# 3 -0.001444 -0.004639 0.024778 0.000000 0.000000 0.000000
# 4 0.000000 0.000000 0.000000 0.037558 0.000000 0.000000
# 5 0.000000 0.000000 0.000000 0.000000 0.031165 0.000000
# 6 0.000000 0.000000 0.000000 0.000000 0.000000 -3.310828
#
#
# Mechanical properties :
#
#
# Convention : Reuss Voigt Hill
#
# Bulk Modulus (GPa) = 41.68647 63.40103 52.54375
# Shear Modulus (GPa) = -1.57926 24.91766 11.66920
#
# Velocity S-wave (km/s) = -0.90592 3.59844 2.46253
# Velocity P-wave (km/s) = 4.53527 7.08606 5.94899
#
# Compressibility (1/GPa) = 0.02398860
#
# Stress axis : x y z
#
# Youngs Moduli (GPa) = 85.79570 104.16853 40.35786
#
# Poissons Ratio (x) = 0.51457 0.05829
# Poissons Ratio (y) = 0.42381 0.18720
# Poissons Ratio (z) = 0.12391 0.48319
#
# Static dielectric constant tensor:
#      x y z
#    x 3.775850 0.000000 0.000000 
#    y 0.000000 3.897450 0.000000 
#    z 0.000000 0.000000 3.359020 
# 
# 
# High freq. dielectric constant tensor:
#      x y z
#    x 1.750600 0.000000 0.000000 
#    y 0.000000 1.753240 0.000000 
#    z 0.000000 0.000000 1.730540 
# 
# From -- ./inp_files/7350.got.cif
#   From: 2010.03.12/outbox.cif.g09.slc.cpg/sg65_4_cif.got.tgz:7350.got - 2010.04.10 20:52:16.
