data_PCOD8272718
_publ_section_title
;
Structure prediction by ZEFSAII (Michael W. Deem and Ramdas Pophale) SiO2 
 PCOD8272718
Probable space group: C M M M
;
_chemical_formula_sum "Si O2"
_cell_formula_units_Z 64
_cell_length_a 18.206095
_cell_length_b 9.432265
_cell_length_c 20.954301
_cell_angle_alpha 90.000000
_cell_angle_beta 90.000000
_cell_angle_gamma 90.000000
_cell_volume 3598.371318
_symmetry_space_group_name_H-M "C M M M"
_symmetry_group_IT_number 65
_symmetry_cell_setting 'orthorhombic'
loop_
_space_group_symop_operation_xyz
x,y,z
-x,-y,z
x,-y,-z
-x,y,-z
-x,-y,-z
x,y,-z
-x,y,z
x,-y,z
1/2+x,1/2+y,z
1/2-x,1/2-y,z
1/2+x,1/2-y,-z
1/2-x,1/2+y,-z
1/2-x,1/2-y,-z
1/2+x,1/2+y,-z
1/2-x,1/2+y,z
1/2+x,1/2-y,z
loop_
_atom_site_type_symbol
_atom_site_label
_atom_site_fract_x
_atom_site_fract_y
_atom_site_fract_z
Si Si1 0.585170 0.835994 0.375570
Si Si2 0.919622 0.331860 0.000000
Si Si3 0.088040 0.340271 0.136939
Si Si4 0.675209 0.165834 0.500000
Si Si5 0.412502 0.339951 0.745292
O O1 0.500000 0.804640 0.388970
O O2 0.628913 0.789947 0.438202
O O3 0.615770 0.743160 0.316964
O O4 0.597459 0.000000 0.358143
O O5 0.880225 0.289206 0.067169
O O6 0.928739 0.500000 0.000000
O O7 0.000000 0.260119 0.000000
O O8 0.114305 0.500000 0.152828
O O9 0.119013 0.236105 0.191366
O O10 0.000000 0.336650 0.134263
O O11 0.750000 0.250000 0.500000
O O12 0.692621 0.000000 0.500000
O O13 0.500000 0.336632 0.746913
O O14 0.382296 0.500000 0.743156
#
# Coordination Sequence:
#
# PCOD8272718 Si02
#       5
#    16   8  16   8  16
#     4   9  17  31  50  68  86 113 150 185 214 252
#     4   7  10  16  27  43  63  93 136 177 208 245
#     4   8  12  19  31  46  67  99 138 176 212 252
#     4  10  21  35  51  71  93 116 142 176 220 266
#     4   9  16  24  35  55  81 106 136 177 221 259
#
# _framework density 17.785826
#
# number of rings (size 3 to 8) (size 9 to 14) (size 15 to 20)
#    0.000    3.375    0.000    2.625    0.000    5.500 
#    0.000    0.625    0.000    7.500    0.000    0.000 
#    0.000    0.000    0.000    1.125    0.000   14.500 
#
# Total GULP energy -396510.152434 kJ/mol
# GULP energy per Si atom -12390.942264 kJ/mol
# Density = 1.774534 g / cm^3
# Si number density = 17.785826 Si / 1000 Ang^3
#
#
#
# Elastic Constant Matrix: (Units=GPa)
#
#
# Indices 1 2 3 4 5 6 
#
# 1 27.6718 23.4388 35.7332 0.0000 0.0000 0.0000
# 2 23.4388 101.2035 95.9962 0.0000 0.0000 0.0000
# 3 35.7332 95.9962 214.5388 0.0000 0.0000 0.0000
# 4 0.0000 0.0000 0.0000 16.8043 0.0000 0.0000
# 5 0.0000 0.0000 0.0000 0.0000 -0.1900 0.0000
# 6 0.0000 0.0000 0.0000 0.0000 0.0000 13.7298
#
#
#
# Elastic Compliance Matrix: (Units=1/GPa)
#
#
# Indices 1 2 3 4 5 6 
#
# 1 0.048152 -0.006158 -0.005265 0.000000 0.000000 0.000000
# 2 -0.006158 0.017955 -0.007008 0.000000 0.000000 0.000000
# 3 -0.005265 -0.007008 0.008674 0.000000 0.000000 0.000000
# 4 0.000000 0.000000 0.000000 0.059509 0.000000 0.000000
# 5 0.000000 0.000000 0.000000 0.000000 -5.262812 0.000000
# 6 0.000000 0.000000 0.000000 0.000000 0.000000 0.072835
#
#
# Mechanical properties :
#
#
# Convention : Reuss Voigt Hill
#
# Bulk Modulus (GPa) = 26.37218 72.63894 49.50556
# Shear Modulus (GPa) = -0.99876 18.61855 8.80989
#
# Velocity S-wave (km/s) = -0.75018 3.23897 2.22802
# Velocity P-wave (km/s) = 3.75626 7.41063 5.87482
#
# Compressibility (1/GPa) = 0.03791874
#
# Stress axis : x y z
#
# Youngs Moduli (GPa) = 20.76740 55.69439 115.28810
#
# Poissons Ratio (x) = 0.34299 0.60694
# Poissons Ratio (y) = 0.12790 0.80798
# Poissons Ratio (z) = 0.10933 0.39033
#
# Static dielectric constant tensor:
#      x y z
#    x 2.570230 0.000000 0.000000 
#    y 0.000000 3.249650 0.000000 
#    z 0.000000 0.000000 3.797420 
# 
# 
# High freq. dielectric constant tensor:
#      x y z
#    x 1.605790 0.000000 0.000000 
#    y 0.000000 1.673720 0.000000 
#    z 0.000000 0.000000 1.715590 
# 
# From -- ./inp_files/64242.got.cif
#   From: 2010.03.12/outbox.cif.g09.slc.cpg/sg65_33_cif.got.tgz:64242.got - 2010.04.10 20:52:16.
