data_PCOD8272172
_publ_section_title
;
Structure prediction by ZEFSAII (Michael W. Deem and Ramdas Pophale) SiO2 
 PCOD8272172
Probable space group: C M M M
;
_chemical_formula_sum "Si O2"
_cell_formula_units_Z 88
_cell_length_a 8.902101
_cell_length_b 15.693824
_cell_length_c 31.871537
_cell_angle_alpha 90.000000
_cell_angle_beta 90.000000
_cell_angle_gamma 90.000000
_cell_volume 4452.708893
_symmetry_space_group_name_H-M "C M M M"
_symmetry_group_IT_number 65
_symmetry_cell_setting 'orthorhombic'
loop_
_space_group_symop_operation_xyz
x,y,z
-x,-y,z
x,-y,-z
-x,y,-z
-x,-y,-z
x,y,-z
-x,y,z
x,-y,z
1/2+x,1/2+y,z
1/2-x,1/2-y,z
1/2+x,1/2-y,-z
1/2-x,1/2+y,-z
1/2-x,1/2-y,-z
1/2+x,1/2+y,-z
1/2-x,1/2+y,z
1/2+x,1/2-y,z
loop_
_atom_site_type_symbol
_atom_site_label
_atom_site_fract_x
_atom_site_fract_y
_atom_site_fract_z
Si Si1 0.177366 0.343155 0.628051
Si Si2 0.676493 0.662054 0.076098
Si Si3 0.824814 0.500000 0.312641
Si Si4 0.159196 0.593216 0.000000
Si Si5 0.177214 0.839303 0.171038
Si Si6 0.824020 0.841498 0.545365
Si Si7 0.678093 0.500000 0.776757
O O1 0.250000 0.250000 0.638038
O O2 0.218261 0.413032 0.663058
O O3 0.242097 0.385399 0.584869
O O4 0.000000 0.330474 0.623937
O O5 0.500000 0.667640 0.071919
O O6 0.750000 0.750000 0.063354
O O7 0.722630 0.636069 0.123437
O O8 0.740998 0.599111 0.041766
O O9 0.729596 0.500000 0.270751
O O10 0.000000 0.500000 0.301896
O O11 0.097682 0.500000 0.000000
O O12 0.000000 0.647943 0.000000
O O13 0.250000 0.750000 0.185113
O O14 0.000000 0.828381 0.175606
O O15 0.239841 0.915080 0.200334
O O16 0.799841 0.888679 0.500000
O O17 0.750000 0.750000 0.541813
O O18 0.000000 0.833261 0.555255
O O19 0.500000 0.500000 0.779160
#
# Coordination Sequence:
#
# PCOD8272172 Si02
#       7
#    16  16   8   8  16  16   8
#     4  10  20  36  57  80 110 147 187 229 275 327
#     4  10  20  36  59  81 109 146 184 225 272 326
#     4  10  24  42  57  81 113 146 184 228 279 339
#     4  11  24  37  50  77 115 149 188 231 268 317
#     4   9  20  38  61  88 116 145 184 230 278 335
#     4   9  16  27  47  77 110 144 184 227 272 323
#     4  10  22  40  62  86 112 144 181 229 282 335
#
# _framework density 19.763248999999998
#
# number of rings (size 3 to 8) (size 9 to 14) (size 15 to 20)
#    0.000    2.273    0.000    3.273    1.273    5.455 
#    0.000    4.091    0.000    2.727    0.000    0.000 
#    0.000    0.000    0.000    0.000    0.000    0.000 
#
# Total GULP energy -545129.343346 kJ/mol
# GULP energy per Si atom -12389.303258 kJ/mol
# Density = 1.971827 g / cm^3
# Si number density = 19.763249 Si / 1000 Ang^3
#
#
#
# Elastic Constant Matrix: (Units=GPa)
#
#
# Indices 1 2 3 4 5 6 
#
# 1 82.6513 41.3596 48.9321 0.0000 0.0000 0.0000
# 2 41.3596 111.5681 71.8020 0.0000 0.0000 0.0000
# 3 48.9321 71.8020 140.1906 0.0000 0.0000 0.0000
# 4 0.0000 0.0000 0.0000 30.4027 0.0000 0.0000
# 5 0.0000 0.0000 0.0000 0.0000 34.6048 0.0000
# 6 0.0000 0.0000 0.0000 0.0000 0.0000 22.5998
#
#
#
# Elastic Compliance Matrix: (Units=1/GPa)
#
#
# Indices 1 2 3 4 5 6 
#
# 1 0.016124 -0.003513 -0.003828 0.000000 0.000000 0.000000
# 2 -0.003513 0.014136 -0.006014 0.000000 0.000000 0.000000
# 3 -0.003828 -0.006014 0.011549 0.000000 0.000000 0.000000
# 4 0.000000 0.000000 0.000000 0.032892 0.000000 0.000000
# 5 0.000000 0.000000 0.000000 0.000000 0.028898 0.000000
# 6 0.000000 0.000000 0.000000 0.000000 0.000000 0.044248
#
#
# Mechanical properties :
#
#
# Convention : Reuss Voigt Hill
#
# Bulk Modulus (GPa) = 66.23363 73.17751 69.70557
# Shear Modulus (GPa) = 27.84115 29.00920 28.42518
#
# Velocity S-wave (km/s) = 3.75738 3.83539 3.79659
# Velocity P-wave (km/s) = 7.23949 7.53134 7.38686
#
# Compressibility (1/GPa) = 0.01509807
#
# Stress axis : x y z
#
# Youngs Moduli (GPa) = 62.02067 70.74216 86.58436
#
# Poissons Ratio (x) = 0.24855 0.33147
# Poissons Ratio (y) = 0.21791 0.52069
# Poissons Ratio (z) = 0.23743 0.42542
#
# Static dielectric constant tensor:
#      x y z
#    x 3.601600 0.000000 0.000000 
#    y 0.000000 3.481800 0.000000 
#    z 0.000000 0.000000 3.953350 
# 
# 
# High freq. dielectric constant tensor:
#      x y z
#    x 1.778320 0.000000 0.000000 
#    y 0.000000 1.753310 0.000000 
#    z 0.000000 0.000000 1.777870 
# 
# From -- ./inp_files/76718.got.cif
#   From: 2010.03.12/outbox.cif.g09.slc.cpg/sg65_39_cif.got.tgz:76718.got - 2010.04.10 20:52:16.
