data_PCOD8272216
_publ_section_title
;
Structure prediction by ZEFSAII (Michael W. Deem and Ramdas Pophale) SiO2 
 PCOD8272216
Probable space group: C M M M
;
_chemical_formula_sum "Si O2"
_cell_formula_units_Z 104
_cell_length_a 21.292867
_cell_length_b 9.336284
_cell_length_c 26.874749
_cell_angle_alpha 90.000000
_cell_angle_beta 90.000000
_cell_angle_gamma 90.000000
_cell_volume 5342.599415
_symmetry_space_group_name_H-M "C M M M"
_symmetry_group_IT_number 65
_symmetry_cell_setting 'orthorhombic'
loop_
_space_group_symop_operation_xyz
x,y,z
-x,-y,z
x,-y,-z
-x,y,-z
-x,-y,-z
x,y,-z
-x,y,z
x,-y,z
1/2+x,1/2+y,z
1/2-x,1/2-y,z
1/2+x,1/2-y,-z
1/2-x,1/2+y,-z
1/2-x,1/2-y,-z
1/2+x,1/2+y,-z
1/2-x,1/2+y,z
1/2+x,1/2-y,z
loop_
_atom_site_type_symbol
_atom_site_label
_atom_site_fract_x
_atom_site_fract_y
_atom_site_fract_z
Si Si1 0.187561 0.164999 0.167418
Si Si2 0.425985 0.839899 0.000000
Si Si3 0.500000 0.830849 0.394681
Si Si4 0.500000 0.169216 0.282008
Si Si5 0.383496 0.661500 0.263025
Si Si6 0.927555 0.167484 0.903132
Si Si7 0.628193 0.167705 0.442318
Si Si8 0.807397 0.836059 0.359529
O O1 0.250000 0.250000 0.150446
O O2 0.173843 0.196123 0.225682
O O3 0.123143 0.209659 0.139094
O O4 0.203127 0.000000 0.157337
O O5 0.404400 0.754326 0.951278
O O6 0.500000 0.851174 0.000000
O O7 0.396350 0.000000 0.000000
O O8 0.500000 0.770422 0.338566
O O9 0.440110 0.777305 0.425440
O O10 0.500000 0.000000 0.391597
O O11 0.560519 0.228135 0.253188
O O12 0.500000 0.000000 0.279371
O O13 0.407514 0.500000 0.252472
O O14 0.363424 0.677193 0.320297
O O15 0.000000 0.207411 0.887512
O O16 0.924310 0.000000 0.915851
O O17 0.637873 0.201055 0.500000
O O18 0.677885 0.260290 0.411841
O O19 0.637290 0.000000 0.430493
O O20 0.750000 0.750000 0.335241
O O21 0.789063 0.000000 0.369775
#
# Coordination Sequence:
#
# PCOD8272216 Si02
#       8
#    16   8   8   8  16  16  16  16
#     4  10  22  39  60  85 117 157 196 242 293 344
#     4   9  17  31  54  85 120 155 191 243 300 339
#     4   9  17  33  56  83 109 133 166 210 262 323
#     4  11  21  34  59  89 114 143 181 231 278 329
#     4  10  22  39  59  83 114 150 186 228 281 338
#     4   9  18  34  58  86 115 154 201 242 285 344
#     4  10  20  36  58  81 107 139 173 215 268 326
#     4  11  23  38  57  79 105 141 183 226 273 326
#
# _framework density 19.466179
#
# number of rings (size 3 to 8) (size 9 to 14) (size 15 to 20)
#    0.000    2.077    1.538    1.615    1.077    4.308 
#    0.000    0.769    0.000    0.923    0.000    0.000 
#    0.000    0.000    0.000    0.000    0.000    0.000 
#
# Total GULP energy -644706.495062 kJ/mol
# GULP energy per Si atom -12398.201828 kJ/mol
# Density = 1.942187 g / cm^3
# Si number density = 19.466179 Si / 1000 Ang^3
#
#
#
# Elastic Constant Matrix: (Units=GPa)
#
#
# Indices 1 2 3 4 5 6 
#
# 1 108.3873 57.9291 35.8211 0.0000 0.0000 0.0000
# 2 57.9291 95.5680 42.7390 0.0000 0.0000 0.0000
# 3 35.8211 42.7390 90.3406 0.0000 0.0000 0.0000
# 4 0.0000 0.0000 0.0000 25.4915 0.0000 0.0000
# 5 0.0000 0.0000 0.0000 0.0000 21.9602 0.0000
# 6 0.0000 0.0000 0.0000 0.0000 0.0000 32.9170
#
#
#
# Elastic Compliance Matrix: (Units=1/GPa)
#
#
# Indices 1 2 3 4 5 6 
#
# 1 0.013910 -0.007565 -0.001936 0.000000 0.000000 0.000000
# 2 -0.007565 0.017387 -0.005226 0.000000 0.000000 0.000000
# 3 -0.001936 -0.005226 0.014309 0.000000 0.000000 0.000000
# 4 0.000000 0.000000 0.000000 0.039229 0.000000 0.000000
# 5 0.000000 0.000000 0.000000 0.000000 0.045537 0.000000
# 6 0.000000 0.000000 0.000000 0.000000 0.000000 0.030379
#
#
# Mechanical properties :
#
#
# Convention : Reuss Voigt Hill
#
# Bulk Modulus (GPa) = 61.91658 63.03049 62.47354
# Shear Modulus (GPa) = 25.56390 26.59418 26.07904
#
# Velocity S-wave (km/s) = 3.62781 3.70019 3.66418
# Velocity P-wave (km/s) = 7.03024 7.12074 7.07564
#
# Compressibility (1/GPa) = 0.01615076
#
# Stress axis : x y z
#
# Youngs Moduli (GPa) = 71.89311 57.51574 69.88570
#
# Poissons Ratio (x) = 0.43513 0.13531
# Poissons Ratio (y) = 0.54391 0.36519
# Poissons Ratio (z) = 0.13920 0.30055
#
# Static dielectric constant tensor:
#      x y z
#    x 3.566720 0.000000 0.000000 
#    y 0.000000 3.507560 0.000000 
#    z 0.000000 0.000000 3.501110 
# 
# 
# High freq. dielectric constant tensor:
#      x y z
#    x 1.752060 0.000000 0.000000 
#    y 0.000000 1.748330 0.000000 
#    z 0.000000 0.000000 1.754010 
# 
# From -- ./inp_files/78296.got.cif
#   From: 2010.03.12/outbox.cif.g09.slc.cpg/sg65_40_cif.got.tgz:78296.got - 2010.04.10 20:52:16.
