data_PCOD8272346
_publ_section_title
;
Structure prediction by ZEFSAII (Michael W. Deem and Ramdas Pophale) SiO2 
 PCOD8272346
Probable space group: C M M M
;
_chemical_formula_sum "Si O2"
_cell_formula_units_Z 72
_cell_length_a 23.866515
_cell_length_b 8.814510
_cell_length_c 17.672911
_cell_angle_alpha 90.000000
_cell_angle_beta 90.000000
_cell_angle_gamma 90.000000
_cell_volume 3717.879185
_symmetry_space_group_name_H-M "C M M M"
_symmetry_group_IT_number 65
_symmetry_cell_setting 'orthorhombic'
loop_
_space_group_symop_operation_xyz
x,y,z
-x,-y,z
x,-y,-z
-x,y,-z
-x,-y,-z
x,y,-z
-x,y,z
x,-y,z
1/2+x,1/2+y,z
1/2-x,1/2-y,z
1/2+x,1/2-y,-z
1/2-x,1/2+y,-z
1/2-x,1/2-y,-z
1/2+x,1/2+y,-z
1/2-x,1/2+y,z
1/2+x,1/2-y,z
loop_
_atom_site_type_symbol
_atom_site_label
_atom_site_fract_x
_atom_site_fract_y
_atom_site_fract_z
Si Si1 0.500000 0.167000 0.781268
Si Si2 0.395902 0.322354 0.849147
Si Si3 0.121365 0.321966 0.584111
Si Si4 0.934474 0.678949 0.000000
Si Si5 0.810539 0.178437 0.720699
Si Si6 0.000000 0.335998 0.606656
O O1 0.447288 0.268126 0.799757
O O2 0.500000 0.135535 0.694491
O O3 0.500000 0.000000 0.823270
O O4 0.399693 0.500000 0.865010
O O5 0.398719 0.237041 0.928909
O O6 0.341280 0.279945 0.799691
O O7 0.147236 0.296627 0.500000
O O8 0.119263 0.500000 0.605163
O O9 0.158184 0.239101 0.646554
O O10 0.057830 0.252146 0.583466
O O11 0.934122 0.500000 0.000000
O O12 0.000000 0.737134 0.000000
O O13 0.750000 0.250000 0.725761
O O14 0.805499 0.000000 0.710873
O O15 0.000000 0.500000 0.565598
#
# Coordination Sequence:
#
# PCOD8272346 Si02
#       6
#     8  16  16   8  16   8
#     4  11  19  31  58  89 119 158 196 236 288 353
#     4  11  23  39  60  89 123 156 193 242 295 347
#     4  10  20  36  60  89 121 157 197 243 295 351
#     4  11  23  37  60  95 127 158 195 231 280 350
#     4  11  25  43  63  85 113 154 204 250 297 349
#     4   9  17  31  55  88 122 155 192 235 289 354
#
# _framework density 19.365881000000002
#
# number of rings (size 3 to 8) (size 9 to 14) (size 15 to 20)
#    0.000    1.444    3.333    2.333    0.000    5.333 
#    0.000    1.111    0.000    1.333    0.000    0.000 
#    0.000    0.000    0.000    0.000    0.000    0.000 
#
# Total GULP energy -446160.443701 kJ/mol
# GULP energy per Si atom -12393.345658 kJ/mol
# Density = 1.932180 g / cm^3
# Si number density = 19.365881 Si / 1000 Ang^3
#
#
#
# Elastic Constant Matrix: (Units=GPa)
#
#
# Indices 1 2 3 4 5 6 
#
# 1 154.2483 59.7641 74.6604 0.0000 0.0000 0.0000
# 2 59.7641 71.6948 62.3723 0.0000 0.0000 0.0000
# 3 74.6604 62.3723 160.9755 0.0000 0.0000 0.0000
# 4 0.0000 0.0000 0.0000 26.1548 0.0000 0.0000
# 5 0.0000 0.0000 0.0000 0.0000 33.5941 0.0000
# 6 0.0000 0.0000 0.0000 0.0000 0.0000 18.5135
#
#
#
# Elastic Compliance Matrix: (Units=1/GPa)
#
#
# Indices 1 2 3 4 5 6 
#
# 1 0.010039 -0.006513 -0.002132 0.000000 0.000000 0.000000
# 2 -0.006513 0.025266 -0.006769 0.000000 0.000000 0.000000
# 3 -0.002132 -0.006769 0.009824 0.000000 0.000000 0.000000
# 4 0.000000 0.000000 0.000000 0.038234 0.000000 0.000000
# 5 0.000000 0.000000 0.000000 0.000000 0.029767 0.000000
# 6 0.000000 0.000000 0.000000 0.000000 0.000000 0.054015
#
#
# Mechanical properties :
#
#
# Convention : Reuss Voigt Hill
#
# Bulk Modulus (GPa) = 69.93091 86.72359 78.32725
# Shear Modulus (GPa) = 24.66219 28.32727 26.49473
#
# Velocity S-wave (km/s) = 3.57247 3.82873 3.70281
# Velocity P-wave (km/s) = 7.29421 8.02648 7.66909
#
# Compressibility (1/GPa) = 0.01429983
#
# Stress axis : x y z
#
# Youngs Moduli (GPa) = 99.61461 39.57886 101.79331
#
# Poissons Ratio (x) = 0.25778 0.21706
# Poissons Ratio (y) = 0.64880 0.68903
# Poissons Ratio (z) = 0.21241 0.26791
#
# Static dielectric constant tensor:
#      x y z
#    x 12.689250 0.000000 0.000000 
#    y 0.000000 3.508620 0.000000 
#    z 0.000000 0.000000 3.747630 
# 
# 
# High freq. dielectric constant tensor:
#      x y z
#    x 1.742890 0.000000 0.000000 
#    y 0.000000 1.745560 0.000000 
#    z 0.000000 0.000000 1.773000 
# 
# From -- ./inp_files/64455.got.cif
#   From: 2010.03.12/outbox.cif.g09.slc.cpg/sg65_33_cif.got.tgz:64455.got - 2010.04.10 20:52:16.
