data_PCOD8272178
_publ_section_title
;
Structure prediction by ZEFSAII (Michael W. Deem and Ramdas Pophale) SiO2 
 PCOD8272178
Probable space group: C M M M
;
_chemical_formula_sum "Si O2"
_cell_formula_units_Z 88
_cell_length_a 29.864891
_cell_length_b 16.592350
_cell_length_c 9.340707
_cell_angle_alpha 90.000000
_cell_angle_beta 90.000000
_cell_angle_gamma 90.000000
_cell_volume 4628.588623
_symmetry_space_group_name_H-M "C M M M"
_symmetry_group_IT_number 65
_symmetry_cell_setting 'orthorhombic'
loop_
_space_group_symop_operation_xyz
x,y,z
-x,-y,z
x,-y,-z
-x,y,-z
-x,-y,-z
x,y,-z
-x,y,z
x,-y,z
1/2+x,1/2+y,z
1/2-x,1/2-y,z
1/2+x,1/2-y,-z
1/2-x,1/2+y,-z
1/2-x,1/2-y,-z
1/2+x,1/2+y,-z
1/2-x,1/2+y,z
1/2+x,1/2-y,z
loop_
_atom_site_type_symbol
_atom_site_label
_atom_site_fract_x
_atom_site_fract_y
_atom_site_fract_z
Si Si1 0.616497 0.308972 0.168130
Si Si2 0.614171 0.854587 0.329567
Si Si3 0.288278 0.095089 0.341179
Si Si4 0.448831 0.000000 0.669994
Si Si5 0.296665 0.407719 0.167836
Si Si6 0.549979 0.594885 0.658089
O O1 0.603756 0.229013 0.253715
O O2 0.664009 0.347197 0.214346
O O3 0.579303 0.373134 0.211634
O O4 0.614671 0.292044 0.000000
O O5 0.611817 0.845097 0.500000
O O6 0.663795 0.879340 0.278354
O O7 0.577904 0.920689 0.276617
O O8 0.281271 0.131275 0.500000
O O9 0.248300 0.126463 0.240988
O O10 0.287350 0.000000 0.347656
O O11 0.500000 0.000000 0.730057
O O12 0.449653 0.000000 0.500000
O O13 0.307696 0.500000 0.216233
O O14 0.288539 0.405277 0.000000
O O15 0.568600 0.619950 0.500000
O O16 0.500000 0.629688 0.675330
O O17 0.549220 0.500000 0.671453
#
# Coordination Sequence:
#
# PCOD8272178 Si02
#       6
#    16  16  16   8  16  16
#     4  11  23  36  52  80 117 151 183 223 273 329
#     4  10  20  36  57  81 109 140 180 232 283 334
#     4   9  17  32  55  79 104 138 183 234 282 328
#     4   9  18  36  63  87 105 135 181 231 286 343
#     4   9  19  35  53  75 107 148 188 224 264 321
#     4   9  19  37  60  83 107 140 183 227 270 320
#
# _framework density 19.012273
#
# number of rings (size 3 to 8) (size 9 to 14) (size 15 to 20)
#    0.000    2.455    0.909    1.636    0.000    5.091 
#    0.000    8.636    0.000    0.545    0.000    0.000 
#    0.000    0.000    0.000    0.000    0.000    0.000 
#
# Total GULP energy -545486.954202 kJ/mol
# GULP energy per Si atom -12397.430777 kJ/mol
# Density = 1.896900 g / cm^3
# Si number density = 19.012273 Si / 1000 Ang^3
#
#
#
# Elastic Constant Matrix: (Units=GPa)
#
#
# Indices 1 2 3 4 5 6 
#
# 1 133.6483 53.9193 42.3493 0.0000 0.0000 0.0000
# 2 53.9193 68.7165 30.7714 0.0000 0.0000 0.0000
# 3 42.3493 30.7714 40.4552 0.0000 0.0000 0.0000
# 4 0.0000 0.0000 0.0000 24.5344 0.0000 0.0000
# 5 0.0000 0.0000 0.0000 0.0000 16.7252 0.0000
# 6 0.0000 0.0000 0.0000 0.0000 0.0000 0.1597
#
#
#
# Elastic Compliance Matrix: (Units=1/GPa)
#
#
# Indices 1 2 3 4 5 6 
#
# 1 0.012672 -0.006071 -0.008647 0.000000 0.000000 0.000000
# 2 -0.006071 0.024978 -0.012644 0.000000 0.000000 0.000000
# 3 -0.008647 -0.012644 0.043389 0.000000 0.000000 0.000000
# 4 0.000000 0.000000 0.000000 0.040759 0.000000 0.000000
# 5 0.000000 0.000000 0.000000 0.000000 0.059790 0.000000
# 6 0.000000 0.000000 0.000000 0.000000 0.000000 6.260867
#
#
# Mechanical properties :
#
#
# Convention : Reuss Voigt Hill
#
# Bulk Modulus (GPa) = 38.00291 55.21110 46.60700
# Shear Modulus (GPa) = 0.76853 16.00252 8.38552
#
# Velocity S-wave (km/s) = 0.63648 2.90434 2.10242
# Velocity P-wave (km/s) = 4.53565 6.35214 5.51914
#
# Compressibility (1/GPa) = 0.02631378
#
# Stress axis : x y z
#
# Youngs Moduli (GPa) = 78.91684 40.03520 23.04757
#
# Poissons Ratio (x) = 0.24304 0.19930
# Poissons Ratio (y) = 0.47907 0.29142
# Poissons Ratio (z) = 0.68242 0.50621
#
# Static dielectric constant tensor:
#      x y z
#    x 3.811120 0.000000 0.000000 
#    y 0.000000 3.373130 0.000000 
#    z 0.000000 0.000000 3.416680 
# 
# 
# High freq. dielectric constant tensor:
#      x y z
#    x 1.746340 0.000000 0.000000 
#    y 0.000000 1.732840 0.000000 
#    z 0.000000 0.000000 1.719810 
# 
# From -- ./inp_files/18299.got.cif
#   From: 2010.03.12/outbox.cif.g09.slc.cpg/sg65_10_cif.got.tgz:18299.got - 2010.04.10 20:52:16.
