data_PCOD8272692
_publ_section_title
;
Structure prediction by ZEFSAII (Michael W. Deem and Ramdas Pophale) SiO2 
 PCOD8272692
Probable space group: C M M M
;
_chemical_formula_sum "Si O2"
_cell_formula_units_Z 88
_cell_length_a 9.152818
_cell_length_b 27.084678
_cell_length_c 21.370161
_cell_angle_alpha 90.000000
_cell_angle_beta 90.000000
_cell_angle_gamma 90.000000
_cell_volume 5297.687024
_symmetry_space_group_name_H-M "C M M M"
_symmetry_group_IT_number 65
_symmetry_cell_setting 'orthorhombic'
loop_
_space_group_symop_operation_xyz
x,y,z
-x,-y,z
x,-y,-z
-x,y,-z
-x,-y,-z
x,y,-z
-x,y,z
x,-y,z
1/2+x,1/2+y,z
1/2-x,1/2-y,z
1/2+x,1/2-y,-z
1/2-x,1/2+y,-z
1/2-x,1/2-y,-z
1/2+x,1/2+y,-z
1/2-x,1/2+y,z
1/2+x,1/2-y,z
loop_
_atom_site_type_symbol
_atom_site_label
_atom_site_fract_x
_atom_site_fract_y
_atom_site_fract_z
Si Si1 0.668237 0.354868 0.428307
Si Si2 0.166727 0.603638 0.247437
Si Si3 0.830347 0.556517 0.375870
Si Si4 0.170626 0.700782 0.321870
Si Si5 0.173011 0.945126 0.000000
Si Si6 0.672481 0.443174 0.864915
O O1 0.682963 0.338406 0.500000
O O2 0.500000 0.354810 0.406506
O O3 0.732304 0.410021 0.420930
O O4 0.759426 0.316260 0.387320
O O5 0.210698 0.566872 0.303697
O O6 0.195848 0.659710 0.268775
O O7 0.261889 0.592305 0.187100
O O8 0.000000 0.595393 0.228359
O O9 0.797332 0.500000 0.392353
O O10 0.000000 0.570213 0.386807
O O11 0.250000 0.750000 0.297988
O O12 0.000000 0.710684 0.333370
O O13 0.222773 0.921258 0.066481
O O14 0.000000 0.947899 0.000000
O O15 0.237507 0.000000 0.000000
O O16 0.500000 0.440838 0.858206
O O17 0.725356 0.500000 0.856735
#
# Coordination Sequence:
#
# PCOD8272692 Si02
#       6
#    16  16  16  16   8  16
#     4  10  21  35  50  70  95 121 151 188 229 275
#     4   9  18  31  46  67  94 120 148 186 231 275
#     4   9  18  32  48  66  92 127 161 192 229 272
#     4  10  21  37  55  72  91 116 147 187 235 283
#     4   7  12  24  39  59  92 129 162 193 220 251
#     4   9  16  26  43  67  95 129 164 192 219 256
#
# _framework density 16.611022999999999
#
# number of rings (size 3 to 8) (size 9 to 14) (size 15 to 20)
#    0.000    2.818    0.000    3.818    0.000    7.273 
#    0.000    2.273    0.000    1.636    0.000    0.636 
#    0.000    0.000    0.000    0.000    0.000    0.000 
#
# Total GULP energy -545377.563762 kJ/mol
# GULP energy per Si atom -12394.944631 kJ/mol
# Density = 1.657322 g / cm^3
# Si number density = 16.611023 Si / 1000 Ang^3
#
#
#
# Elastic Constant Matrix: (Units=GPa)
#
#
# Indices 1 2 3 4 5 6 
#
# 1 74.5548 36.2114 44.4150 0.0000 0.0000 0.0000
# 2 36.2114 68.9225 28.6122 0.0000 0.0000 0.0000
# 3 44.4150 28.6122 99.3455 0.0000 0.0000 0.0000
# 4 0.0000 0.0000 0.0000 15.3213 0.0000 0.0000
# 5 0.0000 0.0000 0.0000 0.0000 20.1501 0.0000
# 6 0.0000 0.0000 0.0000 0.0000 0.0000 28.0366
#
#
#
# Elastic Compliance Matrix: (Units=1/GPa)
#
#
# Indices 1 2 3 4 5 6 
#
# 1 0.021901 -0.008453 -0.007357 0.000000 0.000000 0.000000
# 2 -0.008453 0.019742 -0.001907 0.000000 0.000000 0.000000
# 3 -0.007357 -0.001907 0.013904 0.000000 0.000000 0.000000
# 4 0.000000 0.000000 0.000000 0.065268 0.000000 0.000000
# 5 0.000000 0.000000 0.000000 0.000000 0.049628 0.000000
# 6 0.000000 0.000000 0.000000 0.000000 0.000000 0.035668
#
#
# Mechanical properties :
#
#
# Convention : Reuss Voigt Hill
#
# Bulk Modulus (GPa) = 49.71631 51.25556 50.48594
# Shear Modulus (GPa) = 20.14111 21.60722 20.87416
#
# Velocity S-wave (km/s) = 3.48590 3.61054 3.54876
# Velocity P-wave (km/s) = 6.79681 6.95016 6.87391
#
# Compressibility (1/GPa) = 0.02011412
#
# Stress axis : x y z
#
# Youngs Moduli (GPa) = 45.65938 50.65461 71.92058
#
# Poissons Ratio (x) = 0.42816 0.52913
# Poissons Ratio (y) = 0.38594 0.13713
# Poissons Ratio (z) = 0.33592 0.09659
#
# Static dielectric constant tensor:
#      x y z
#    x 3.073510 0.000000 0.000000 
#    y 0.000000 3.021830 0.000000 
#    z 0.000000 0.000000 3.175480 
# 
# 
# High freq. dielectric constant tensor:
#      x y z
#    x 1.637120 0.000000 0.000000 
#    y 0.000000 1.617320 0.000000 
#    z 0.000000 0.000000 1.635570 
# 
# From -- ./inp_files/60637.got.cif
#   From: 2010.03.12/outbox.cif.g09.slc.cpg/sg65_31_cif.got.tgz:60637.got - 2010.04.10 20:52:16.
