data_PCOD8272821
_publ_section_title
;
Structure prediction by ZEFSAII (Michael W. Deem and Ramdas Pophale) SiO2 
 PCOD8272821
Probable space group: C M M M
;
_chemical_formula_sum "Si O2"
_cell_formula_units_Z 72
_cell_length_a 18.560861
_cell_length_b 7.890664
_cell_length_c 24.825338
_cell_angle_alpha 90.000000
_cell_angle_beta 90.000000
_cell_angle_gamma 90.000000
_cell_volume 3635.857380
_symmetry_space_group_name_H-M "C M M M"
_symmetry_group_IT_number 65
_symmetry_cell_setting 'orthorhombic'
loop_
_space_group_symop_operation_xyz
x,y,z
-x,-y,z
x,-y,-z
-x,y,-z
-x,-y,-z
x,y,-z
-x,y,z
x,-y,z
1/2+x,1/2+y,z
1/2-x,1/2-y,z
1/2+x,1/2-y,-z
1/2-x,1/2+y,-z
1/2-x,1/2-y,-z
1/2+x,1/2+y,-z
1/2-x,1/2+y,z
1/2+x,1/2-y,z
loop_
_atom_site_type_symbol
_atom_site_label
_atom_site_fract_x
_atom_site_fract_y
_atom_site_fract_z
Si Si1 0.829778 0.799588 0.940328
Si Si2 0.921011 0.804544 0.843294
Si Si3 0.085262 0.000000 0.559954
Si Si4 0.584326 0.806042 0.634860
Si Si5 0.167873 0.695963 0.256908
O O1 0.750000 0.750000 0.922134
O O2 0.883800 0.719946 0.895929
O O3 0.836281 0.000000 0.941396
O O4 0.847327 0.725498 0.000000
O O5 0.870834 0.791710 0.791349
O O6 0.000000 0.720339 0.833743
O O7 0.931589 0.000000 0.856040
O O8 0.110603 0.827421 0.589651
O O9 0.119096 0.000000 0.500000
O O10 0.000000 0.000000 0.556217
O O11 0.500000 0.783563 0.647438
O O12 0.627635 0.757303 0.688136
O O13 0.600681 0.000000 0.616124
O O14 0.161930 0.500000 0.243816
O O15 0.250000 0.750000 0.262191
#
# Coordination Sequence:
#
# PCOD8272821 Si02
#       5
#    16  16   8  16  16
#     4   9  18  33  52  74 102 138 180 225 271 325
#     4  10  21  35  53  78 107 140 179 225 277 331
#     4   9  18  32  56  88 116 148 186 228 278 327
#     4   9  19  35  55  82 114 148 186 231 280 332
#     4  11  23  37  55  80 107 143 181 225 277 331
#
# _framework density 19.802757
#
# number of rings (size 3 to 8) (size 9 to 14) (size 15 to 20)
#    0.000    2.333    0.000    2.000    3.111    4.889 
#    0.000    4.444    0.000    0.667    0.000    4.667 
#    0.000    0.000    0.000    0.000    0.000    0.000 
#
# Total GULP energy -446283.544708 kJ/mol
# GULP energy per Si atom -12396.765131 kJ/mol
# Density = 1.975768 g / cm^3
# Si number density = 19.802757 Si / 1000 Ang^3
#
#
#
# Elastic Constant Matrix: (Units=GPa)
#
#
# Indices 1 2 3 4 5 6 
#
# 1 114.2067 27.7780 79.5317 0.0000 0.0000 0.0000
# 2 27.7780 61.2723 53.2714 0.0000 0.0000 0.0000
# 3 79.5317 53.2714 163.7014 0.0000 0.0000 0.0000
# 4 0.0000 0.0000 0.0000 20.1834 0.0000 0.0000
# 5 0.0000 0.0000 0.0000 0.0000 13.5345 0.0000
# 6 0.0000 0.0000 0.0000 0.0000 0.0000 20.3915
#
#
#
# Elastic Compliance Matrix: (Units=1/GPa)
#
#
# Indices 1 2 3 4 5 6 
#
# 1 0.013248 -0.000572 -0.006250 0.000000 0.000000 0.000000
# 2 -0.000572 0.022785 -0.007137 0.000000 0.000000 0.000000
# 3 -0.006250 -0.007137 0.011468 0.000000 0.000000 0.000000
# 4 0.000000 0.000000 0.000000 0.049546 0.000000 0.000000
# 5 0.000000 0.000000 0.000000 0.000000 0.073885 0.000000
# 6 0.000000 0.000000 0.000000 0.000000 0.000000 0.049040
#
#
# Mechanical properties :
#
#
# Convention : Reuss Voigt Hill
#
# Bulk Modulus (GPa) = 51.06590 73.37138 62.21864
# Shear Modulus (GPa) = 19.65291 22.72852 21.19072
#
# Velocity S-wave (km/s) = 3.15371 3.39151 3.27477
# Velocity P-wave (km/s) = 6.25335 7.24348 6.76655
#
# Compressibility (1/GPa) = 0.01958254
#
# Stress axis : x y z
#
# Youngs Moduli (GPa) = 75.48567 43.88921 87.20269
#
# Poissons Ratio (x) = 0.02510 0.54502
# Poissons Ratio (y) = 0.04317 0.62234
# Poissons Ratio (z) = 0.47178 0.31322
#
# Static dielectric constant tensor:
#      x y z
#    x 3.673420 0.000000 0.000000 
#    y 0.000000 3.596700 0.000000 
#    z 0.000000 0.000000 3.820970 
# 
# 
# High freq. dielectric constant tensor:
#      x y z
#    x 1.761490 0.000000 0.000000 
#    y 0.000000 1.767840 0.000000 
#    z 0.000000 0.000000 1.774490 
# 
# From -- ./inp_files/67238.got.cif
#   From: 2010.03.12/outbox.cif.g09.slc.cpg/sg65_34_cif.got.tgz:67238.got - 2010.04.10 20:52:16.
