data_PCOD8272862
_publ_section_title
;
Structure prediction by ZEFSAII (Michael W. Deem and Ramdas Pophale) SiO2 
 PCOD8272862
Probable space group: C M M M
;
_chemical_formula_sum "Si O2"
_cell_formula_units_Z 72
_cell_length_a 27.021375
_cell_length_b 7.822300
_cell_length_c 17.703412
_cell_angle_alpha 90.000000
_cell_angle_beta 90.000000
_cell_angle_gamma 90.000000
_cell_volume 3741.957831
_symmetry_space_group_name_H-M "C M M M"
_symmetry_group_IT_number 65
_symmetry_cell_setting 'orthorhombic'
loop_
_space_group_symop_operation_xyz
x,y,z
-x,-y,z
x,-y,-z
-x,y,-z
-x,-y,-z
x,y,-z
-x,y,z
x,-y,z
1/2+x,1/2+y,z
1/2-x,1/2-y,z
1/2+x,1/2-y,-z
1/2-x,1/2+y,-z
1/2-x,1/2-y,-z
1/2+x,1/2+y,-z
1/2-x,1/2+y,z
1/2+x,1/2-y,z
loop_
_atom_site_type_symbol
_atom_site_label
_atom_site_fract_x
_atom_site_fract_y
_atom_site_fract_z
Si Si1 0.803733 0.198723 0.271140
Si Si2 0.398928 0.303886 0.181167
Si Si3 0.056988 0.500000 0.910753
Si Si4 0.054906 0.299516 0.671618
Si Si5 0.352634 0.198139 0.417921
O O1 0.750000 0.250000 0.239513
O O2 0.845609 0.262853 0.212730
O O3 0.810200 0.272816 0.355673
O O4 0.809460 0.000000 0.279037
O O5 0.396397 0.500000 0.150077
O O6 0.438053 0.298357 0.249477
O O7 0.415780 0.172896 0.116493
O O8 0.000000 0.500000 0.882548
O O9 0.059882 0.500000 0.000000
O O10 0.063285 0.500000 0.687703
O O11 0.094818 0.227512 0.611751
O O12 0.000000 0.262657 0.640103
O O13 0.339641 0.282323 0.500000
O O14 0.359392 0.000000 0.430936
#
# Coordination Sequence:
#
# PCOD8272862 Si02
#       5
#    16  16   8  16  16
#     4  10  21  35  57  84 104 141 193 238 290 338
#     4  10  21  37  58  86 117 150 188 237 280 329
#     4  11  24  40  62  92 123 157 187 217 275 340
#     4   9  16  28  49  74 103 143 191 236 280 332
#     4   9  18  31  46  69 107 147 184 234 289 337
#
# _framework density 19.241264999999999
#
# number of rings (size 3 to 8) (size 9 to 14) (size 15 to 20)
#    0.000    2.333    1.111    1.333    3.111    3.556 
#    0.000    3.333    0.000    0.667    0.000    6.222 
#    0.000    0.000    0.000    0.000    0.000    0.000 
#
# Total GULP energy -446208.746536 kJ/mol
# GULP energy per Si atom -12394.687404 kJ/mol
# Density = 1.919747 g / cm^3
# Si number density = 19.241265 Si / 1000 Ang^3
#
#
#
# Elastic Constant Matrix: (Units=GPa)
#
#
# Indices 1 2 3 4 5 6 
#
# 1 124.7201 25.5955 37.0363 0.0000 0.0000 0.0000
# 2 25.5955 66.4970 36.8329 0.0000 0.0000 0.0000
# 3 37.0363 36.8329 85.3511 0.0000 0.0000 0.0000
# 4 0.0000 0.0000 0.0000 13.3494 0.0000 0.0000
# 5 0.0000 0.0000 0.0000 0.0000 21.8039 0.0000
# 6 0.0000 0.0000 0.0000 0.0000 0.0000 22.8770
#
#
#
# Elastic Compliance Matrix: (Units=1/GPa)
#
#
# Indices 1 2 3 4 5 6 
#
# 1 0.009361 -0.001778 -0.003295 0.000000 0.000000 0.000000
# 2 -0.001778 0.020100 -0.007902 0.000000 0.000000 0.000000
# 3 -0.003295 -0.007902 0.016556 0.000000 0.000000 0.000000
# 4 0.000000 0.000000 0.000000 0.074910 0.000000 0.000000
# 5 0.000000 0.000000 0.000000 0.000000 0.045863 0.000000
# 6 0.000000 0.000000 0.000000 0.000000 0.000000 0.043712
#
#
# Mechanical properties :
#
#
# Convention : Reuss Voigt Hill
#
# Bulk Modulus (GPa) = 49.83401 52.83307 51.33354
# Shear Modulus (GPa) = 20.56408 23.41295 21.98852
#
# Velocity S-wave (km/s) = 3.27272 3.49206 3.38417
# Velocity P-wave (km/s) = 6.34324 6.61643 6.48128
#
# Compressibility (1/GPa) = 0.02006662
#
# Stress axis : x y z
#
# Youngs Moduli (GPa) = 106.82287 49.75148 60.40030
#
# Poissons Ratio (x) = 0.08847 0.19900
# Poissons Ratio (y) = 0.18997 0.47731
# Poissons Ratio (z) = 0.35195 0.39315
#
# Static dielectric constant tensor:
#      x y z
#    x 3.362070 0.000000 0.000000 
#    y 0.000000 3.464900 0.000000 
#    z 0.000000 0.000000 3.415610 
# 
# 
# High freq. dielectric constant tensor:
#      x y z
#    x 1.750310 0.000000 0.000000 
#    y 0.000000 1.746350 0.000000 
#    z 0.000000 0.000000 1.714700 
# 
# From -- ./inp_files/46506.got.cif
#   From: 2010.03.12/outbox.cif.g09.slc.cpg/sg65_24_cif.got.tgz:46506.got - 2010.04.10 20:52:16.
