data_PCOD8272451
_publ_section_title
;
Structure prediction by ZEFSAII (Michael W. Deem and Ramdas Pophale) SiO2 
 PCOD8272451
Probable space group: C M M M
;
_chemical_formula_sum "Si O2"
_cell_formula_units_Z 72
_cell_length_a 8.668637
_cell_length_b 16.560134
_cell_length_c 24.624662
_cell_angle_alpha 90.000000
_cell_angle_beta 90.000000
_cell_angle_gamma 90.000000
_cell_volume 3534.963565
_symmetry_space_group_name_H-M "C M M M"
_symmetry_group_IT_number 65
_symmetry_cell_setting 'orthorhombic'
loop_
_space_group_symop_operation_xyz
x,y,z
-x,-y,z
x,-y,-z
-x,y,-z
-x,-y,-z
x,y,-z
-x,y,z
x,-y,z
1/2+x,1/2+y,z
1/2-x,1/2-y,z
1/2+x,1/2-y,-z
1/2-x,1/2+y,-z
1/2-x,1/2-y,-z
1/2+x,1/2+y,-z
1/2-x,1/2+y,z
1/2+x,1/2-y,z
loop_
_atom_site_type_symbol
_atom_site_label
_atom_site_fract_x
_atom_site_fract_y
_atom_site_fract_z
Si Si1 0.166702 0.591645 0.337473
Si Si2 0.182943 0.661601 0.876564
Si Si3 0.180501 0.833539 0.239053
Si Si4 0.180017 0.162765 0.439182
Si Si5 0.317006 0.000000 0.061652
O O1 0.125560 0.500000 0.333630
O O2 0.285784 0.607821 0.288814
O O3 0.242931 0.604883 0.395773
O O4 0.000000 0.638067 0.331813
O O5 0.250000 0.750000 0.894930
O O6 0.232753 0.639748 0.815600
O O7 0.243559 0.584441 0.911644
O O8 0.000000 0.669171 0.880549
O O9 0.250000 0.750000 0.259609
O O10 0.000000 0.828235 0.226367
O O11 0.214528 0.130281 0.500000
O O12 0.250000 0.250000 0.430670
O O13 0.000000 0.167375 0.427779
O O14 0.500000 0.000000 0.065568
O O15 0.257647 0.000000 0.000000
#
# Coordination Sequence:
#
# PCOD8272451 Si02
#       5
#    16  16  16  16   8
#     4  11  24  39  56  81 114 150 188 232 287 347
#     4  10  20  37  61  89 121 160 204 251 302 359
#     4  11  22  38  60  85 115 150 191 239 292 348
#     4  10  21  38  60  83 109 144 187 234 284 340
#     4   9  20  38  61  89 123 165 206 245 298 361
#
# _framework density 20.367961000000001
#
# number of rings (size 3 to 8) (size 9 to 14) (size 15 to 20)
#    0.000    1.667    0.000    6.000    1.556    4.000 
#    0.000    3.889    0.000    4.667    0.000    0.000 
#    0.000    0.000    0.000    0.000    0.000    0.000 
#
# Total GULP energy -446156.752528 kJ/mol
# GULP energy per Si atom -12393.243126 kJ/mol
# Density = 2.032160 g / cm^3
# Si number density = 20.367961 Si / 1000 Ang^3
#
#
#
# Elastic Constant Matrix: (Units=GPa)
#
#
# Indices 1 2 3 4 5 6 
#
# 1 84.0151 40.7841 34.5973 0.0000 0.0000 0.0000
# 2 40.7841 113.1101 70.0596 0.0000 0.0000 0.0000
# 3 34.5973 70.0596 128.6603 0.0000 0.0000 0.0000
# 4 0.0000 0.0000 0.0000 51.2597 0.0000 0.0000
# 5 0.0000 0.0000 0.0000 0.0000 46.0765 0.0000
# 6 0.0000 0.0000 0.0000 0.0000 0.0000 25.3563
#
#
#
# Elastic Compliance Matrix: (Units=1/GPa)
#
#
# Indices 1 2 3 4 5 6 
#
# 1 0.014644 -0.004287 -0.001603 0.000000 0.000000 0.000000
# 2 -0.004287 0.014595 -0.006795 0.000000 0.000000 0.000000
# 3 -0.001603 -0.006795 0.011904 0.000000 0.000000 0.000000
# 4 0.000000 0.000000 0.000000 0.019509 0.000000 0.000000
# 5 0.000000 0.000000 0.000000 0.000000 0.021703 0.000000
# 6 0.000000 0.000000 0.000000 0.000000 0.000000 0.039438
#
#
# Mechanical properties :
#
#
# Convention : Reuss Voigt Hill
#
# Bulk Modulus (GPa) = 63.40199 68.51861 65.96030
# Shear Modulus (GPa) = 32.80398 36.56146 34.68272
#
# Velocity S-wave (km/s) = 4.01754 4.24140 4.13099
# Velocity P-wave (km/s) = 7.26063 7.59601 7.43021
#
# Compressibility (1/GPa) = 0.01577238
#
# Stress axis : x y z
#
# Youngs Moduli (GPa) = 68.28738 68.51464 84.00838
#
# Poissons Ratio (x) = 0.29373 0.13470
# Poissons Ratio (y) = 0.29275 0.57083
# Poissons Ratio (z) = 0.10949 0.46555
#
# Static dielectric constant tensor:
#      x y z
#    x 3.798880 0.000000 0.000000 
#    y 0.000000 3.676680 0.000000 
#    z 0.000000 0.000000 3.765370 
# 
# 
# High freq. dielectric constant tensor:
#      x y z
#    x 1.803100 0.000000 0.000000 
#    y 0.000000 1.791190 0.000000 
#    z 0.000000 0.000000 1.799300 
# 
# From -- ./inp_files/72474.got.cif
#   From: 2010.03.12/outbox.cif.g09.slc.cpg/sg65_37_cif.got.tgz:72474.got - 2010.04.10 20:52:16.
