data_PCOD8272224
_publ_section_title
;
Structure prediction by ZEFSAII (Michael W. Deem and Ramdas Pophale) SiO2 
 PCOD8272224
Probable space group: C M M M
;
_chemical_formula_sum "Si O2"
_cell_formula_units_Z 88
_cell_length_a 8.653312
_cell_length_b 21.832307
_cell_length_c 23.945619
_cell_angle_alpha 90.000000
_cell_angle_beta 90.000000
_cell_angle_gamma 90.000000
_cell_volume 4523.848585
_symmetry_space_group_name_H-M "C M M M"
_symmetry_group_IT_number 65
_symmetry_cell_setting 'orthorhombic'
loop_
_space_group_symop_operation_xyz
x,y,z
-x,-y,z
x,-y,-z
-x,y,-z
-x,-y,-z
x,y,-z
-x,y,z
x,-y,z
1/2+x,1/2+y,z
1/2-x,1/2-y,z
1/2+x,1/2-y,-z
1/2-x,1/2+y,-z
1/2-x,1/2-y,-z
1/2+x,1/2+y,-z
1/2-x,1/2+y,z
1/2+x,1/2-y,z
loop_
_atom_site_type_symbol
_atom_site_label
_atom_site_fract_x
_atom_site_fract_y
_atom_site_fract_z
Si Si1 0.324611 0.428892 0.747442
Si Si2 0.321702 0.898423 0.860541
Si Si3 0.822426 0.186355 0.939944
Si Si4 0.320281 0.685728 0.565285
Si Si5 0.318457 0.500000 0.937678
Si Si6 0.817775 0.430039 0.629042
O O1 0.500000 0.406359 0.738691
O O2 0.318928 0.500000 0.762631
O O3 0.246897 0.393920 0.798606
O O4 0.228978 0.414226 0.692037
O O5 0.500000 0.917127 0.856730
O O6 0.291500 0.834535 0.890358
O O7 0.230282 0.942239 0.901922
O O8 0.750000 0.250000 0.955285
O O9 0.000000 0.188504 0.918937
O O10 0.815822 0.149343 0.000000
O O11 0.284587 0.682125 0.500000
O O12 0.500000 0.687080 0.579225
O O13 0.250000 0.750000 0.589147
O O14 0.251627 0.623072 0.590382
O O15 0.500000 0.500000 0.943295
O O16 0.243522 0.500000 0.000000
O O17 0.760105 0.500000 0.613485
O O18 0.000000 0.427503 0.622999
#
# Coordination Sequence:
#
# PCOD8272224 Si02
#       6
#    16  16  16  16   8  16
#     4  10  20  36  58  81 111 150 191 233 283 340
#     4  12  23  35  55  81 110 142 180 226 278 338
#     4  10  21  38  58  78 103 137 178 224 276 336
#     4  10  21  38  61  89 123 163 205 248 299 357
#     4  11  23  37  53  77 109 143 180 225 278 333
#     4  10  21  37  59  88 122 158 201 249 297 351
#
# _framework density 19.452463000000002
#
# number of rings (size 3 to 8) (size 9 to 14) (size 15 to 20)
#    0.000    1.545    0.909    4.636    0.000    7.273 
#    0.000    2.727    0.000    0.000    0.000    0.000 
#    0.000    0.000    0.000    0.000    0.000    0.000 
#
# Total GULP energy -545256.266127 kJ/mol
# GULP energy per Si atom -12392.187867 kJ/mol
# Density = 1.940819 g / cm^3
# Si number density = 19.452463 Si / 1000 Ang^3
#
#
#
# Elastic Constant Matrix: (Units=GPa)
#
#
# Indices 1 2 3 4 5 6 
#
# 1 88.0148 47.9108 49.8011 0.0000 0.0000 0.0000
# 2 47.9108 99.4429 53.4215 0.0000 0.0000 0.0000
# 3 49.8011 53.4215 89.6374 0.0000 0.0000 0.0000
# 4 0.0000 0.0000 0.0000 42.6463 0.0000 0.0000
# 5 0.0000 0.0000 0.0000 0.0000 31.3808 0.0000
# 6 0.0000 0.0000 0.0000 0.0000 0.0000 34.9644
#
#
#
# Elastic Compliance Matrix: (Units=1/GPa)
#
#
# Indices 1 2 3 4 5 6 
#
# 1 0.018041 -0.004865 -0.007124 0.000000 0.000000 0.000000
# 2 -0.004865 0.016104 -0.006894 0.000000 0.000000 0.000000
# 3 -0.007124 -0.006894 0.019223 0.000000 0.000000 0.000000
# 4 0.000000 0.000000 0.000000 0.023449 0.000000 0.000000
# 5 0.000000 0.000000 0.000000 0.000000 0.031867 0.000000
# 6 0.000000 0.000000 0.000000 0.000000 0.000000 0.028600
#
#
# Mechanical properties :
#
#
# Convention : Reuss Voigt Hill
#
# Bulk Modulus (GPa) = 64.09895 64.37354 64.23625
# Shear Modulus (GPa) = 27.73927 30.19576 28.96752
#
# Velocity S-wave (km/s) = 3.78034 3.94418 3.86313
# Velocity P-wave (km/s) = 7.21649 7.34211 7.27957
#
# Compressibility (1/GPa) = 0.01560088
#
# Stress axis : x y z
#
# Youngs Moduli (GPa) = 55.42993 62.09757 52.02135
#
# Poissons Ratio (x) = 0.30210 0.37059
# Poissons Ratio (y) = 0.26966 0.35866
# Poissons Ratio (z) = 0.39487 0.42813
#
# Static dielectric constant tensor:
#      x y z
#    x 3.628590 0.000000 0.000000 
#    y 0.000000 4.564060 0.000000 
#    z 0.000000 0.000000 3.534630 
# 
# 
# High freq. dielectric constant tensor:
#      x y z
#    x 1.769530 0.000000 0.000000 
#    y 0.000000 1.748530 0.000000 
#    z 0.000000 0.000000 1.757940 
# 
# From -- ./inp_files/59806.got.cif
#   From: 2010.03.12/outbox.cif.g09.slc.cpg/sg65_30_cif.got.tgz:59806.got - 2010.04.10 20:52:16.
