data_PCOD8272695
_publ_section_title
;
Structure prediction by ZEFSAII (Michael W. Deem and Ramdas Pophale) SiO2 
 PCOD8272695
Probable space group: C M M M
;
_chemical_formula_sum "Si O2"
_cell_formula_units_Z 72
_cell_length_a 18.170044
_cell_length_b 9.567039
_cell_length_c 23.214447
_cell_angle_alpha 90.000000
_cell_angle_beta 90.000000
_cell_angle_gamma 90.000000
_cell_volume 4035.449027
_symmetry_space_group_name_H-M "C M M M"
_symmetry_group_IT_number 65
_symmetry_cell_setting 'orthorhombic'
loop_
_space_group_symop_operation_xyz
x,y,z
-x,-y,z
x,-y,-z
-x,y,-z
-x,-y,-z
x,y,-z
-x,y,z
x,-y,z
1/2+x,1/2+y,z
1/2-x,1/2-y,z
1/2+x,1/2-y,-z
1/2-x,1/2+y,-z
1/2-x,1/2-y,-z
1/2+x,1/2+y,-z
1/2-x,1/2+y,z
1/2+x,1/2-y,z
loop_
_atom_site_type_symbol
_atom_site_label
_atom_site_fract_x
_atom_site_fract_y
_atom_site_fract_z
Si Si1 0.087456 0.842749 0.936584
Si Si2 0.585690 0.839442 0.606957
Si Si3 0.087543 0.158610 0.500000
Si Si4 0.415061 0.837375 0.831531
Si Si5 0.323821 0.836817 0.279829
O O1 0.118738 0.742163 0.886905
O O2 0.000000 0.835677 0.936487
O O3 0.114256 0.000000 0.923588
O O4 0.116127 0.795314 0.000000
O O5 0.500000 0.812546 0.618918
O O6 0.616305 0.739889 0.556376
O O7 0.628433 0.799318 0.664493
O O8 0.599236 0.000000 0.588733
O O9 0.000000 0.160002 0.500000
O O10 0.118171 0.000000 0.500000
O O11 0.500000 0.797497 0.820713
O O12 0.370217 0.790172 0.775645
O O13 0.406132 0.000000 0.844212
O O14 0.250000 0.750000 0.281972
O O15 0.304524 0.000000 0.277602
#
# Coordination Sequence:
#
# PCOD8272695 Si02
#       5
#    16  16   8  16  16
#     4   8  14  25  42  67  98 126 152 188 236 286
#     4   9  17  32  54  75  96 126 162 195 231 280
#     4   9  17  29  48  77 106 125 149 193 242 281
#     4   9  17  30  49  72  96 123 158 198 237 279
#     4  10  21  35  50  70  97 128 161 198 239 282
#
# _framework density 17.841881000000001
#
# number of rings (size 3 to 8) (size 9 to 14) (size 15 to 20)
#    0.000    3.000    0.000    1.667    0.000    6.222 
#    0.000    2.778    0.000    7.333    0.000    0.000 
#    0.000    0.000    0.000    0.000    0.000    0.000 
#
# Total GULP energy -446329.107010 kJ/mol
# GULP energy per Si atom -12398.030750 kJ/mol
# Density = 1.780127 g / cm^3
# Si number density = 17.841881 Si / 1000 Ang^3
#
#
#
# Elastic Constant Matrix: (Units=GPa)
#
#
# Indices 1 2 3 4 5 6 
#
# 1 57.7175 43.0382 57.6426 0.0000 0.0000 0.0000
# 2 43.0382 90.4754 94.5639 0.0000 0.0000 0.0000
# 3 57.6426 94.5639 194.6204 0.0000 0.0000 0.0000
# 4 0.0000 0.0000 0.0000 31.3818 0.0000 0.0000
# 5 0.0000 0.0000 0.0000 0.0000 0.1355 0.0000
# 6 0.0000 0.0000 0.0000 0.0000 0.0000 24.1129
#
#
#
# Elastic Compliance Matrix: (Units=1/GPa)
#
#
# Indices 1 2 3 4 5 6 
#
# 1 0.028112 -0.009489 -0.003716 0.000000 0.000000 0.000000
# 2 -0.009489 0.025661 -0.009658 0.000000 0.000000 0.000000
# 3 -0.003716 -0.009658 0.010931 0.000000 0.000000 0.000000
# 4 0.000000 0.000000 0.000000 0.031866 0.000000 0.000000
# 5 0.000000 0.000000 0.000000 0.000000 7.378688 0.000000
# 6 0.000000 0.000000 0.000000 0.000000 0.000000 0.041472
#
#
# Mechanical properties :
#
#
# Convention : Reuss Voigt Hill
#
# Bulk Modulus (GPa) = 52.68909 81.47808 67.08358
# Shear Modulus (GPa) = 0.66061 20.96397 10.81229
#
# Velocity S-wave (km/s) = 0.60915 3.43153 2.46439
# Velocity P-wave (km/s) = 5.48543 7.84005 6.76596
#
# Compressibility (1/GPa) = 0.01897926
#
# Stress axis : x y z
#
# Youngs Moduli (GPa) = 35.57150 38.96973 91.48027
#
# Poissons Ratio (x) = 0.36979 0.33990
# Poissons Ratio (y) = 0.33755 0.88350
# Poissons Ratio (z) = 0.13217 0.37636
#
# Static dielectric constant tensor:
#      x y z
#    x 2.913490 0.000000 0.000000 
#    y 0.000000 3.368820 0.000000 
#    z 0.000000 0.000000 3.642510 
# 
# 
# High freq. dielectric constant tensor:
#      x y z
#    x 1.647740 0.000000 0.000000 
#    y 0.000000 1.687310 0.000000 
#    z 0.000000 0.000000 1.707720 
# 
# From -- ./inp_files/59227.got.cif
#   From: 2010.03.12/outbox.cif.g09.slc.cpg/sg65_30_cif.got.tgz:59227.got - 2010.04.10 20:52:16.
