data_PCOD8272223
_publ_section_title
;
Structure prediction by ZEFSAII (Michael W. Deem and Ramdas Pophale) SiO2 
 PCOD8272223
Probable space group: C M M M
;
_chemical_formula_sum "Si O2"
_cell_formula_units_Z 104
_cell_length_a 29.854046
_cell_length_b 9.384309
_cell_length_c 19.746225
_cell_angle_alpha 90.000000
_cell_angle_beta 90.000000
_cell_angle_gamma 90.000000
_cell_volume 5532.094351
_symmetry_space_group_name_H-M "C M M M"
_symmetry_group_IT_number 65
_symmetry_cell_setting 'orthorhombic'
loop_
_space_group_symop_operation_xyz
x,y,z
-x,-y,z
x,-y,-z
-x,y,-z
-x,-y,-z
x,y,-z
-x,y,z
x,-y,z
1/2+x,1/2+y,z
1/2-x,1/2-y,z
1/2+x,1/2-y,-z
1/2-x,1/2+y,-z
1/2-x,1/2-y,-z
1/2+x,1/2+y,-z
1/2-x,1/2+y,z
1/2+x,1/2-y,z
loop_
_atom_site_type_symbol
_atom_site_label
_atom_site_fract_x
_atom_site_fract_y
_atom_site_fract_z
Si Si1 0.791435 0.840220 0.713460
Si Si2 0.642238 0.338556 0.830572
Si Si3 0.585915 0.830147 0.646406
Si Si4 0.000000 0.660780 0.578166
Si Si5 0.706039 0.835151 0.079470
Si Si6 0.448141 0.337460 0.229580
Si Si7 0.163462 0.162721 0.577606
O O1 0.750000 0.750000 0.741016
O O2 0.836755 0.802648 0.755627
O O3 0.796921 0.817009 0.632328
O O4 0.777111 0.000000 0.728398
O O5 0.655663 0.500000 0.850691
O O6 0.662222 0.229452 0.884837
O O7 0.587533 0.326429 0.832398
O O8 0.544056 0.765569 0.605607
O O9 0.576914 0.769589 0.720294
O O10 0.626751 0.772235 0.603244
O O11 0.590585 0.000000 0.649658
O O12 0.000000 0.500000 0.605589
O O13 0.000000 0.670604 0.500000
O O14 0.750000 0.750000 0.104072
O O15 0.711609 0.000000 0.099746
O O16 0.698720 0.816227 0.000000
O O17 0.500000 0.292501 0.211575
O O18 0.448263 0.500000 0.257241
O O19 0.178467 0.199293 0.500000
O O20 0.145652 0.000000 0.581245
#
# Coordination Sequence:
#
# PCOD8272223 Si02
#       7
#    16  16  16   8  16  16  16
#     4  10  21  36  53  77 106 138 180 228 277 329
#     4  10  20  36  58  84 115 149 186 230 276 323
#     4  11  20  32  51  74 102 135 174 225 282 336
#     4   9  18  30  43  65  99 131 162 213 278 333
#     4  10  21  37  59  90 125 157 189 224 266 322
#     4  10  20  36  58  81 110 146 185 228 274 326
#     4  10  21  38  55  70  97 138 181 228 282 337
#
# _framework density 18.799391
#
# number of rings (size 3 to 8) (size 9 to 14) (size 15 to 20)
#    0.000    1.923    2.308    1.846    0.000    5.231 
#    0.000    0.000    0.000    2.308    0.000    3.231 
#    0.000    0.000    0.000    0.000    0.000    0.000 
#
# Total GULP energy -644184.815422 kJ/mol
# GULP energy per Si atom -12388.169527 kJ/mol
# Density = 1.875660 g / cm^3
# Si number density = 18.799391 Si / 1000 Ang^3
#
#
#
# Elastic Constant Matrix: (Units=GPa)
#
#
# Indices 1 2 3 4 5 6 
#
# 1 111.0352 47.4661 27.6250 0.0000 0.0000 0.0000
# 2 47.4661 88.8768 36.2212 0.0000 0.0000 0.0000
# 3 27.6250 36.2212 61.1013 0.0000 0.0000 0.0000
# 4 0.0000 0.0000 0.0000 26.9883 0.0000 0.0000
# 5 0.0000 0.0000 0.0000 0.0000 29.3553 0.0000
# 6 0.0000 0.0000 0.0000 0.0000 0.0000 29.0585
#
#
#
# Elastic Compliance Matrix: (Units=1/GPa)
#
#
# Indices 1 2 3 4 5 6 
#
# 1 0.011876 -0.005478 -0.002122 0.000000 0.000000 0.000000
# 2 -0.005478 0.017362 -0.007816 0.000000 0.000000 0.000000
# 3 -0.002122 -0.007816 0.021959 0.000000 0.000000 0.000000
# 4 0.000000 0.000000 0.000000 0.037053 0.000000 0.000000
# 5 0.000000 0.000000 0.000000 0.000000 0.034065 0.000000
# 6 0.000000 0.000000 0.000000 0.000000 0.000000 0.034413
#
#
# Mechanical properties :
#
#
# Convention : Reuss Voigt Hill
#
# Bulk Modulus (GPa) = 49.10190 53.73753 51.41972
# Shear Modulus (GPa) = 25.72697 27.06049 26.39373
#
# Velocity S-wave (km/s) = 3.70334 3.79810 3.75102
# Velocity P-wave (km/s) = 6.66797 6.91960 6.79495
#
# Compressibility (1/GPa) = 0.02036581
#
# Stress axis : x y z
#
# Youngs Moduli (GPa) = 84.20559 57.59627 45.53937
#
# Poissons Ratio (x) = 0.31549 0.09664
# Poissons Ratio (y) = 0.46124 0.35593
# Poissons Ratio (z) = 0.17869 0.45017
#
# Static dielectric constant tensor:
#      x y z
#    x 3.496590 0.000000 0.000000 
#    y 0.000000 3.503470 0.000000 
#    z 0.000000 0.000000 3.280330 
# 
# 
# High freq. dielectric constant tensor:
#      x y z
#    x 1.729860 0.000000 0.000000 
#    y 0.000000 1.728810 0.000000 
#    z 0.000000 0.000000 1.709630 
# 
# From -- ./inp_files/66383.got.cif
#   From: 2010.03.12/outbox.cif.g09.slc.cpg/sg65_34_cif.got.tgz:66383.got - 2010.04.10 20:52:16.
