data_PCOD8272928
_publ_section_title
;
Structure prediction by ZEFSAII (Michael W. Deem and Ramdas Pophale) SiO2 
 PCOD8272928
Probable space group: C M M M
;
_chemical_formula_sum "Si O2"
_cell_formula_units_Z 112
_cell_length_a 23.054282
_cell_length_b 19.254608
_cell_length_c 13.310334
_cell_angle_alpha 90.000000
_cell_angle_beta 90.000000
_cell_angle_gamma 90.000000
_cell_volume 5908.472738
_symmetry_space_group_name_H-M "C M M M"
_symmetry_group_IT_number 65
_symmetry_cell_setting 'orthorhombic'
loop_
_space_group_symop_operation_xyz
x,y,z
-x,-y,z
x,-y,-z
-x,y,-z
-x,-y,-z
x,y,-z
-x,y,z
x,-y,z
1/2+x,1/2+y,z
1/2-x,1/2-y,z
1/2+x,1/2-y,-z
1/2-x,1/2+y,-z
1/2-x,1/2-y,-z
1/2+x,1/2+y,-z
1/2-x,1/2+y,z
1/2+x,1/2-y,z
loop_
_atom_site_type_symbol
_atom_site_label
_atom_site_fract_x
_atom_site_fract_y
_atom_site_fract_z
Si Si1 0.565910 0.305589 0.115837
Si Si2 0.848662 0.683675 0.885470
Si Si3 0.676404 0.419830 0.613928
Si Si4 0.935340 0.580019 0.195587
Si Si5 0.064540 0.921427 0.272687
Si Si6 0.864681 0.578743 0.612780
Si Si7 0.731617 0.826417 0.298941
O O1 0.500000 0.279338 0.135194
O O2 0.611377 0.247376 0.151059
O O3 0.579943 0.374425 0.177570
O O4 0.575272 0.324100 0.000000
O O5 0.889069 0.615975 0.877380
O O6 0.791904 0.678145 0.815383
O O7 0.827231 0.691718 0.000000
O O8 0.689271 0.395379 0.500000
O O9 0.693719 0.500000 0.627560
O O10 0.608462 0.407734 0.635846
O O11 0.711932 0.374984 0.694994
O O12 0.934353 0.500000 0.165767
O O13 0.917921 0.591597 0.311934
O O14 0.000000 0.610606 0.180066
O O15 0.000000 0.905689 0.314059
O O16 0.069885 0.000000 0.233303
O O17 0.888499 0.587431 0.500000
O O18 0.839501 0.500000 0.628382
O O19 0.815986 0.637267 0.630141
O O20 0.750000 0.750000 0.337911
#
# Coordination Sequence:
#
# PCOD8272928 Si02
#       7
#    16  16  16  16  16  16  16
#     4   9  17  31  53  78 104 137 173 206 247 301
#     4  10  21  36  53  73 100 135 172 211 256 303
#     4  10  21  37  56  76 101 135 170 204 249 306
#     4   9  18  32  51  77 106 135 170 210 250 295
#     4   9  18  33  54  81 109 133 162 204 250 296
#     4   9  18  33  52  74 103 138 172 207 249 296
#     4  11  22  35  53  75  99 130 170 217 257 296
#
# _framework density 18.955829000000001
#
# number of rings (size 3 to 8) (size 9 to 14) (size 15 to 20)
#    0.000    2.429    0.000    2.143    0.000    5.143 
#    0.000    5.714    0.000    0.857    0.000    4.000 
#    0.000    0.000    0.000    0.000    0.000    0.000 
#
# Total GULP energy -694259.537900 kJ/mol
# GULP energy per Si atom -12397.491748 kJ/mol
# Density = 1.891268 g / cm^3
# Si number density = 18.955829 Si / 1000 Ang^3
#
#
#
# Elastic Constant Matrix: (Units=GPa)
#
#
# Indices 1 2 3 4 5 6 
#
# 1 98.5142 50.6562 40.6340 0.0000 0.0000 0.0000
# 2 50.6562 95.0918 41.0023 0.0000 0.0000 0.0000
# 3 40.6340 41.0023 84.8723 0.0000 0.0000 0.0000
# 4 0.0000 0.0000 0.0000 24.9129 0.0000 0.0000
# 5 0.0000 0.0000 0.0000 0.0000 24.7852 0.0000
# 6 0.0000 0.0000 0.0000 0.0000 0.0000 30.8973
#
#
#
# Elastic Compliance Matrix: (Units=1/GPa)
#
#
# Indices 1 2 3 4 5 6 
#
# 1 0.015089 -0.006218 -0.004220 0.000000 0.000000 0.000000
# 2 -0.006218 0.015846 -0.004678 0.000000 0.000000 0.000000
# 3 -0.004220 -0.004678 0.016063 0.000000 0.000000 0.000000
# 4 0.000000 0.000000 0.000000 0.040140 0.000000 0.000000
# 5 0.000000 0.000000 0.000000 0.000000 0.040347 0.000000
# 6 0.000000 0.000000 0.000000 0.000000 0.000000 0.032365
#
#
# Mechanical properties :
#
#
# Convention : Reuss Voigt Hill
#
# Bulk Modulus (GPa) = 59.64892 60.34036 59.99464
# Shear Modulus (GPa) = 25.55318 25.86481 25.70900
#
# Velocity S-wave (km/s) = 3.67555 3.69789 3.68674
# Velocity P-wave (km/s) = 7.03907 7.08052 7.05982
#
# Compressibility (1/GPa) = 0.01676476
#
# Stress axis : x y z
#
# Youngs Moduli (GPa) = 66.27372 63.10789 62.25579
#
# Poissons Ratio (x) = 0.39243 0.26271
# Poissons Ratio (y) = 0.41212 0.29124
# Poissons Ratio (z) = 0.27967 0.29522
#
# Static dielectric constant tensor:
#      x y z
#    x 3.539360 0.000000 0.000000 
#    y 0.000000 3.552210 0.000000 
#    z 0.000000 0.000000 3.307600 
# 
# 
# High freq. dielectric constant tensor:
#      x y z
#    x 1.736110 0.000000 0.000000 
#    y 0.000000 1.739200 0.000000 
#    z 0.000000 0.000000 1.722750 
# 
# From -- ./inp_files/45752.got.cif
#   From: 2010.03.12/outbox.cif.g09.slc.cpg/sg65_23_cif.got.tgz:45752.got - 2010.04.10 20:52:16.
