data_PCOD8272075
_publ_section_title
;
Structure prediction by ZEFSAII (Michael W. Deem and Ramdas Pophale) SiO2 
 PCOD8272075
Probable space group: C M M M
;
_chemical_formula_sum "Si O2"
_cell_formula_units_Z 80
_cell_length_a 28.992121
_cell_length_b 9.056915
_cell_length_c 15.556320
_cell_angle_alpha 90.000000
_cell_angle_beta 90.000000
_cell_angle_gamma 90.000000
_cell_volume 4084.765680
_symmetry_space_group_name_H-M "C M M M"
_symmetry_group_IT_number 65
_symmetry_cell_setting 'orthorhombic'
loop_
_space_group_symop_operation_xyz
x,y,z
-x,-y,z
x,-y,-z
-x,y,-z
-x,-y,-z
x,y,-z
-x,y,z
x,-y,z
1/2+x,1/2+y,z
1/2-x,1/2-y,z
1/2+x,1/2-y,-z
1/2-x,1/2+y,-z
1/2-x,1/2-y,-z
1/2+x,1/2+y,-z
1/2-x,1/2+y,z
1/2+x,1/2-y,z
loop_
_atom_site_type_symbol
_atom_site_label
_atom_site_fract_x
_atom_site_fract_y
_atom_site_fract_z
Si Si1 0.049672 0.674782 0.655111
Si Si2 0.799206 0.824133 0.747936
Si Si3 0.948523 0.672540 0.849378
Si Si4 0.138687 0.829870 0.094722
Si Si5 0.852820 0.672107 0.596795
O O1 0.046614 0.500000 0.655485
O O2 0.056776 0.731405 0.752113
O O3 0.093616 0.725655 0.599451
O O4 0.000000 0.735654 0.619343
O O5 0.750000 0.750000 0.756103
O O6 0.828095 0.767432 0.830650
O O7 0.822813 0.770916 0.660179
O O8 0.793966 0.000000 0.745674
O O9 0.938523 0.500000 0.854078
O O10 0.910862 0.752245 0.907235
O O11 0.000000 0.707969 0.883902
O O12 0.129645 0.000000 0.113465
O O13 0.161236 0.805435 0.000000
O O14 0.834617 0.696758 0.500000
O O15 0.848712 0.500000 0.623508
#
# Coordination Sequence:
#
# PCOD8272075 Si02
#       5
#    16  16  16  16  16
#     4   8  14  27  50  81 116 150 184 224 267 314
#     4  11  24  42  63  83 108 143 182 233 289 341
#     4   9  17  31  54  83 115 152 192 231 270 318
#     4  10  22  39  58  83 114 147 185 229 281 338
#     4  10  20  35  59  89 118 149 187 229 274 328
#
# _framework density 19.584966999999999
#
# number of rings (size 3 to 8) (size 9 to 14) (size 15 to 20)
#    0.000    2.400    2.000    1.800    0.000    3.600 
#    0.000    4.000    0.000    0.600    0.000    1.400 
#    0.000    0.000    0.000    0.000    0.000    0.000 
#
# Total GULP energy -495776.279432 kJ/mol
# GULP energy per Si atom -12394.406986 kJ/mol
# Density = 1.954039 g / cm^3
# Si number density = 19.584967 Si / 1000 Ang^3
#
#
#
# Elastic Constant Matrix: (Units=GPa)
#
#
# Indices 1 2 3 4 5 6 
#
# 1 137.4901 45.5572 61.8324 0.0000 0.0000 0.0000
# 2 45.5572 50.3071 37.6703 0.0000 0.0000 0.0000
# 3 61.8324 37.6703 114.1804 0.0000 0.0000 0.0000
# 4 0.0000 0.0000 0.0000 24.1636 0.0000 0.0000
# 5 0.0000 0.0000 0.0000 0.0000 303.7060 0.0000
# 6 0.0000 0.0000 0.0000 0.0000 0.0000 23.7553
#
#
#
# Elastic Compliance Matrix: (Units=1/GPa)
#
#
# Indices 1 2 3 4 5 6 
#
# 1 0.011455 -0.007608 -0.003693 0.000000 0.000000 0.000000
# 2 -0.007608 0.031453 -0.006257 0.000000 0.000000 0.000000
# 3 -0.003693 -0.006257 0.012822 0.000000 0.000000 0.000000
# 4 0.000000 0.000000 0.000000 0.041385 0.000000 0.000000
# 5 0.000000 0.000000 0.000000 0.000000 0.003293 0.000000
# 6 0.000000 0.000000 0.000000 0.000000 0.000000 0.042096
#
#
# Mechanical properties :
#
#
# Convention : Reuss Voigt Hill
#
# Bulk Modulus (GPa) = 48.51096 65.78859 57.14978
# Shear Modulus (GPa) = 27.10160 80.78617 53.94388
#
# Velocity S-wave (km/s) = 3.72398 6.42951 5.25389
# Velocity P-wave (km/s) = 6.58133 9.42244 8.12700
#
# Compressibility (1/GPa) = 0.02061390
#
# Stress axis : x y z
#
# Youngs Moduli (GPa) = 87.29739 31.79371 77.98858
#
# Poissons Ratio (x) = 0.24189 0.28803
# Poissons Ratio (y) = 0.66416 0.48797
# Poissons Ratio (z) = 0.32241 0.19893
#
# Static dielectric constant tensor:
#      x y z
#    x 3.938970 0.000000 0.000000 
#    y 0.000000 3.239540 0.000000 
#    z 0.000000 0.000000 3.599750 
# 
# 
# High freq. dielectric constant tensor:
#      x y z
#    x 1.767200 0.000000 0.000000 
#    y 0.000000 1.728840 0.000000 
#    z 0.000000 0.000000 1.763590 
# 
# From -- ./inp_files/57237.got.cif
#   From: 2010.03.12/outbox.cif.g09.slc.cpg/sg65_29_cif.got.tgz:57237.got - 2010.04.10 20:52:16.
