data_PCOD8272470
_publ_section_title
;
Structure prediction by ZEFSAII (Michael W. Deem and Ramdas Pophale) SiO2 
 PCOD8272470
Probable space group: C M M M
;
_chemical_formula_sum "Si O2"
_cell_formula_units_Z 72
_cell_length_a 15.710794
_cell_length_b 8.793070
_cell_length_c 24.546205
_cell_angle_alpha 90.000000
_cell_angle_beta 90.000000
_cell_angle_gamma 90.000000
_cell_volume 3390.962770
_symmetry_space_group_name_H-M "C M M M"
_symmetry_group_IT_number 65
_symmetry_cell_setting 'orthorhombic'
loop_
_space_group_symop_operation_xyz
x,y,z
-x,-y,z
x,-y,-z
-x,y,-z
-x,-y,-z
x,y,-z
-x,y,z
x,-y,z
1/2+x,1/2+y,z
1/2-x,1/2-y,z
1/2+x,1/2-y,-z
1/2-x,1/2+y,-z
1/2-x,1/2-y,-z
1/2+x,1/2+y,-z
1/2-x,1/2+y,z
1/2+x,1/2-y,z
loop_
_atom_site_type_symbol
_atom_site_label
_atom_site_fract_x
_atom_site_fract_y
_atom_site_fract_z
Si Si1 0.903212 0.833870 0.163650
Si Si2 0.160706 0.819998 0.378214
Si Si3 0.658697 0.178228 0.939265
Si Si4 0.000000 0.673801 0.435551
Si Si5 0.398605 0.173497 0.729583
O O1 0.902363 0.749545 0.105664
O O2 0.863477 0.731684 0.211844
O O3 0.000000 0.859596 0.179590
O O4 0.857987 0.000000 0.160268
O O5 0.250000 0.750000 0.398838
O O6 0.084502 0.755413 0.414509
O O7 0.145877 0.777261 0.315425
O O8 0.163886 0.000000 0.384803
O O9 0.750000 0.250000 0.930040
O O10 0.664757 0.000000 0.930201
O O11 0.624031 0.216107 0.000000
O O12 0.000000 0.500000 0.414144
O O13 0.000000 0.681361 0.500000
O O14 0.500000 0.186738 0.723984
O O15 0.368892 0.000000 0.722142
#
# Coordination Sequence:
#
# PCOD8272470 Si02
#       5
#    16  16  16   8  16
#     4  10  21  36  56  84 117 152 195 244 300 364
#     4  12  25  42  68 100 136 176 223 272 324 387
#     4  10  21  37  56  77 105 144 191 243 302 366
#     4  11  25  47  73 101 137 179 222 271 326 381
#     4  10  20  37  62  89 124 163 204 255 316 379
#
# _framework density 21.232908999999999
#
# number of rings (size 3 to 8) (size 9 to 14) (size 15 to 20)
#    0.000    1.444    1.111    4.333    0.000    6.222 
#    0.000    6.667    0.000    0.000    0.000    0.000 
#    0.000    0.000    0.000    0.000    0.000    0.000 
#
# Total GULP energy -446418.061146 kJ/mol
# GULP energy per Si atom -12400.501698 kJ/mol
# Density = 2.118458 g / cm^3
# Si number density = 21.232909 Si / 1000 Ang^3
#
#
#
# Elastic Constant Matrix: (Units=GPa)
#
#
# Indices 1 2 3 4 5 6 
#
# 1 90.0128 57.1767 38.9708 0.0000 0.0000 0.0000
# 2 57.1767 178.3342 59.5236 0.0000 0.0000 0.0000
# 3 38.9708 59.5236 114.3667 0.0000 0.0000 0.0000
# 4 0.0000 0.0000 0.0000 36.9081 0.0000 0.0000
# 5 0.0000 0.0000 0.0000 0.0000 4.9852 0.0000
# 6 0.0000 0.0000 0.0000 0.0000 0.0000 33.4369
#
#
#
# Elastic Compliance Matrix: (Units=1/GPa)
#
#
# Indices 1 2 3 4 5 6 
#
# 1 0.014816 -0.003709 -0.003118 0.000000 0.000000 0.000000
# 2 -0.003709 0.007715 -0.002751 0.000000 0.000000 0.000000
# 3 -0.003118 -0.002751 0.011238 0.000000 0.000000 0.000000
# 4 0.000000 0.000000 0.000000 0.027094 0.000000 0.000000
# 5 0.000000 0.000000 0.000000 0.000000 0.200593 0.000000
# 6 0.000000 0.000000 0.000000 0.000000 0.000000 0.029907
#
#
# Mechanical properties :
#
#
# Convention : Reuss Voigt Hill
#
# Bulk Modulus (GPa) = 68.43899 77.11731 72.77815
# Shear Modulus (GPa) = 15.85329 30.20221 23.02775
#
# Velocity S-wave (km/s) = 2.73543 3.77560 3.29679
# Velocity P-wave (km/s) = 6.50225 7.44348 6.98873
#
# Compressibility (1/GPa) = 0.01461155
#
# Stress axis : x y z
#
# Youngs Moduli (GPa) = 67.49614 129.61560 88.98201
#
# Poissons Ratio (x) = 0.48081 0.27743
# Poissons Ratio (y) = 0.25037 0.24483
# Poissons Ratio (z) = 0.21044 0.35663
#
# Static dielectric constant tensor:
#      x y z
#    x 3.655460 0.000000 0.000000 
#    y 0.000000 4.123130 0.000000 
#    z 0.000000 0.000000 3.918950 
# 
# 
# High freq. dielectric constant tensor:
#      x y z
#    x 1.817410 0.000000 0.000000 
#    y 0.000000 1.851450 0.000000 
#    z 0.000000 0.000000 1.839180 
# 
# From -- ./inp_files/74618.got.cif
#   From: 2010.03.12/outbox.cif.g09.slc.cpg/sg65_38_cif.got.tgz:74618.got - 2010.04.10 20:52:16.
