data_PCOD8272463
_publ_section_title
;
Structure prediction by ZEFSAII (Michael W. Deem and Ramdas Pophale) SiO2 
 PCOD8272463
Probable space group: C M M M
;
_chemical_formula_sum "Si O2"
_cell_formula_units_Z 48
_cell_length_a 8.993058
_cell_length_b 33.524717
_cell_length_c 7.827971
_cell_angle_alpha 90.000000
_cell_angle_beta 90.000000
_cell_angle_gamma 90.000000
_cell_volume 2360.052820
_symmetry_space_group_name_H-M "C M M M"
_symmetry_group_IT_number 65
_symmetry_cell_setting 'orthorhombic'
loop_
_space_group_symop_operation_xyz
x,y,z
-x,-y,z
x,-y,-z
-x,y,-z
-x,-y,-z
x,y,-z
-x,y,z
x,-y,z
1/2+x,1/2+y,z
1/2-x,1/2-y,z
1/2+x,1/2-y,-z
1/2-x,1/2+y,-z
1/2-x,1/2-y,-z
1/2+x,1/2+y,-z
1/2-x,1/2+y,z
1/2+x,1/2-y,z
loop_
_atom_site_type_symbol
_atom_site_label
_atom_site_fract_x
_atom_site_fract_y
_atom_site_fract_z
Si Si1 0.674811 0.000000 0.190440
Si Si2 0.823163 0.292929 0.500000
Si Si3 0.334333 0.576756 0.693991
Si Si4 0.326724 0.661746 0.192321
O O1 0.725823 0.039655 0.285564
O O2 0.500000 0.000000 0.189983
O O3 0.740937 0.000000 0.000000
O O4 0.750000 0.250000 0.500000
O O5 0.773960 0.315095 0.327337
O O6 0.000000 0.289218 0.500000
O O7 0.329114 0.591671 0.500000
O O8 0.500000 0.562683 0.745447
O O9 0.285200 0.614746 0.805944
O O10 0.500000 0.667433 0.241305
O O11 0.294951 0.677612 0.000000
#
# Coordination Sequence:
#
# PCOD8272463 Si02
#       4
#     8   8  16  16
#     4  11  24  37  50  78 122 165 208 258 307 359
#     4  12  26  44  68  95 130 167 204 254 309 374
#     4  10  20  37  62  88 117 157 207 256 305 365
#     4  10  21  41  69  97 127 164 208 259 313 373
#
# _framework density 20.338529000000001
#
# number of rings (size 3 to 8) (size 9 to 14) (size 15 to 20)
#    0.000    1.500    1.667    3.500    0.000    8.000 
#    0.000    0.000    0.000    0.000    0.000    0.000 
#    0.000    0.000    0.000    0.000    0.000    0.000 
#
# Total GULP energy -297636.445896 kJ/mol
# GULP energy per Si atom -12401.518579 kJ/mol
# Density = 2.029224 g / cm^3
# Si number density = 20.338529 Si / 1000 Ang^3
#
#
#
# Elastic Constant Matrix: (Units=GPa)
#
#
# Indices 1 2 3 4 5 6 
#
# 1 109.9528 62.1785 52.6515 0.0000 0.0000 0.0000
# 2 62.1785 112.9342 48.5657 0.0000 0.0000 0.0000
# 3 52.6515 48.5657 122.7025 0.0000 0.0000 0.0000
# 4 0.0000 0.0000 0.0000 12.6703 0.0000 0.0000
# 5 0.0000 0.0000 0.0000 0.0000 27.2627 0.0000
# 6 0.0000 0.0000 0.0000 0.0000 0.0000 30.3334
#
#
#
# Elastic Compliance Matrix: (Units=1/GPa)
#
#
# Indices 1 2 3 4 5 6 
#
# 1 0.014467 -0.006382 -0.003682 0.000000 0.000000 0.000000
# 2 -0.006382 0.013486 -0.002599 0.000000 0.000000 0.000000
# 3 -0.003682 -0.002599 0.010759 0.000000 0.000000 0.000000
# 4 0.000000 0.000000 0.000000 0.078925 0.000000 0.000000
# 5 0.000000 0.000000 0.000000 0.000000 0.036680 0.000000
# 6 0.000000 0.000000 0.000000 0.000000 0.000000 0.032967
#
#
# Mechanical properties :
#
#
# Convention : Reuss Voigt Hill
#
# Bulk Modulus (GPa) = 74.70745 74.70897 74.70821
# Shear Modulus (GPa) = 23.03394 26.19953 24.61674
#
# Velocity S-wave (km/s) = 3.36896 3.59301 3.48278
# Velocity P-wave (km/s) = 7.20728 7.35020 7.27909
#
# Compressibility (1/GPa) = 0.01338555
#
# Stress axis : x y z
#
# Youngs Moduli (GPa) = 69.12426 74.15014 92.94971
#
# Poissons Ratio (x) = 0.47320 0.34222
# Poissons Ratio (y) = 0.44113 0.24162
# Poissons Ratio (z) = 0.25450 0.19275
#
# Static dielectric constant tensor:
#      x y z
#    x 3.556530 0.000000 0.000000 
#    y 0.000000 3.604950 0.000000 
#    z 0.000000 0.000000 4.119070 
# 
# 
# High freq. dielectric constant tensor:
#      x y z
#    x 1.781830 0.000000 0.000000 
#    y 0.000000 1.793010 0.000000 
#    z 0.000000 0.000000 1.810670 
# 
# From -- ./inp_files/3065.got.cif
#   From: 2010.03.12/outbox.cif.g09.slc.cpg/sg65_2_cif.got.tgz:3065.got - 2010.04.10 20:52:16.
