data_PCOD8272345
_publ_section_title
;
Structure prediction by ZEFSAII (Michael W. Deem and Ramdas Pophale) SiO2 
 PCOD8272345
Probable space group: C M M M
;
_chemical_formula_sum "Si O2"
_cell_formula_units_Z 64
_cell_length_a 8.773268
_cell_length_b 15.763534
_cell_length_c 22.248324
_cell_angle_alpha 90.000000
_cell_angle_beta 90.000000
_cell_angle_gamma 90.000000
_cell_volume 3076.892225
_symmetry_space_group_name_H-M "C M M M"
_symmetry_group_IT_number 65
_symmetry_cell_setting 'orthorhombic'
loop_
_space_group_symop_operation_xyz
x,y,z
-x,-y,z
x,-y,-z
-x,y,-z
-x,-y,-z
x,y,-z
-x,y,z
x,-y,z
1/2+x,1/2+y,z
1/2-x,1/2-y,z
1/2+x,1/2-y,-z
1/2-x,1/2+y,-z
1/2-x,1/2-y,-z
1/2+x,1/2+y,-z
1/2-x,1/2+y,z
1/2+x,1/2-y,z
loop_
_atom_site_type_symbol
_atom_site_label
_atom_site_fract_x
_atom_site_fract_y
_atom_site_fract_z
Si Si1 0.318620 0.500000 0.932179
Si Si2 0.180417 0.162147 0.858495
Si Si3 0.168421 0.901681 0.618793
Si Si4 0.320081 0.158228 0.500000
Si Si5 0.323837 0.899585 0.261100
O O1 0.500000 0.500000 0.931197
O O2 0.257146 0.415687 0.898935
O O3 0.255358 0.500000 0.000000
O O4 0.250000 0.250000 0.883432
O O5 0.230810 0.148050 0.790218
O O6 0.000000 0.168007 0.861765
O O7 0.265065 0.890292 0.558829
O O8 0.259308 0.863952 0.675672
O O9 0.000000 0.859094 0.613063
O O10 0.146752 0.000000 0.630391
O O11 0.500000 0.162278 0.500000
O O12 0.250000 0.250000 0.500000
O O13 0.500000 0.874389 0.256316
O O14 0.300202 0.000000 0.254641
#
# Coordination Sequence:
#
# PCOD8272345 Si02
#       5
#     8  16  16   8  16
#     4   9  20  40  65  91 125 168 209 252 305 367
#     4  11  22  38  62  92 126 165 209 255 309 367
#     4  10  21  38  61  87 116 152 196 243 298 362
#     4  12  25  40  57  79 113 153 197 248 305 360
#     4  10  20  36  60  89 121 155 198 251 306 362
#
# _framework density 20.800208999999999
#
# number of rings (size 3 to 8) (size 9 to 14) (size 15 to 20)
#    0.000    1.625    1.250    3.750    0.000    5.500 
#    0.000    5.000    0.000    5.250    0.000    0.000 
#    0.000    0.000    0.000    0.000    0.000    0.000 
#
# Total GULP energy -396871.708955 kJ/mol
# GULP energy per Si atom -12402.240905 kJ/mol
# Density = 2.075287 g / cm^3
# Si number density = 20.800209 Si / 1000 Ang^3
#
#
#
# Elastic Constant Matrix: (Units=GPa)
#
#
# Indices 1 2 3 4 5 6 
#
# 1 125.3384 40.5646 40.9585 0.0000 0.0000 0.0000
# 2 40.5646 99.0301 56.1564 0.0000 0.0000 0.0000
# 3 40.9585 56.1564 160.0603 0.0000 0.0000 0.0000
# 4 0.0000 0.0000 0.0000 8.7030 0.0000 0.0000
# 5 0.0000 0.0000 0.0000 0.0000 20.0670 0.0000
# 6 0.0000 0.0000 0.0000 0.0000 0.0000 32.0183
#
#
#
# Elastic Compliance Matrix: (Units=1/GPa)
#
#
# Indices 1 2 3 4 5 6 
#
# 1 0.009416 -0.003109 -0.001319 0.000000 0.000000 0.000000
# 2 -0.003109 0.013633 -0.003987 0.000000 0.000000 0.000000
# 3 -0.001319 -0.003987 0.007984 0.000000 0.000000 0.000000
# 4 0.000000 0.000000 0.000000 0.114903 0.000000 0.000000
# 5 0.000000 0.000000 0.000000 0.000000 0.049833 0.000000
# 6 0.000000 0.000000 0.000000 0.000000 0.000000 0.031232
#
#
# Mechanical properties :
#
#
# Convention : Reuss Voigt Hill
#
# Bulk Modulus (GPa) = 70.41195 73.30974 71.86085
# Shear Modulus (GPa) = 20.11554 28.60761 24.36158
#
# Velocity S-wave (km/s) = 3.11317 3.71260 3.42602
# Velocity P-wave (km/s) = 6.84452 7.32796 7.09037
#
# Compressibility (1/GPa) = 0.01420213
#
# Stress axis : x y z
#
# Youngs Moduli (GPa) = 106.20772 73.35391 125.25064
#
# Poissons Ratio (x) = 0.22806 0.16515
# Poissons Ratio (y) = 0.33021 0.49941
# Poissons Ratio (z) = 0.14004 0.29249
#
# Static dielectric constant tensor:
#      x y z
#    x 3.784750 0.000000 0.000000 
#    y 0.000000 3.777960 0.000000 
#    z 0.000000 0.000000 3.677600 
# 
# 
# High freq. dielectric constant tensor:
#      x y z
#    x 1.815960 0.000000 0.000000 
#    y 0.000000 1.809490 0.000000 
#    z 0.000000 0.000000 1.817610 
# 
# From -- ./inp_files/66750.got.cif
#   From: 2010.03.12/outbox.cif.g09.slc.cpg/sg65_34_cif.got.tgz:66750.got - 2010.04.10 20:52:16.
