data_PCOD8272082
_publ_section_title
;
Structure prediction by ZEFSAII (Michael W. Deem and Ramdas Pophale) SiO2 
 PCOD8272082
Probable space group: C M M M
;
_chemical_formula_sum "Si O2"
_cell_formula_units_Z 96
_cell_length_a 7.967994
_cell_length_b 25.323344
_cell_length_c 24.745719
_cell_angle_alpha 90.000000
_cell_angle_beta 90.000000
_cell_angle_gamma 90.000000
_cell_volume 4993.098459
_symmetry_space_group_name_H-M "C M M M"
_symmetry_group_IT_number 65
_symmetry_cell_setting 'orthorhombic'
loop_
_space_group_symop_operation_xyz
x,y,z
-x,-y,z
x,-y,-z
-x,y,-z
-x,-y,-z
x,y,-z
-x,y,z
x,-y,z
1/2+x,1/2+y,z
1/2-x,1/2-y,z
1/2+x,1/2-y,-z
1/2-x,1/2+y,-z
1/2-x,1/2-y,-z
1/2+x,1/2+y,-z
1/2-x,1/2+y,z
1/2+x,1/2-y,z
loop_
_atom_site_type_symbol
_atom_site_label
_atom_site_fract_x
_atom_site_fract_y
_atom_site_fract_z
Si Si1 0.683562 0.500000 0.182703
Si Si2 0.696784 0.308231 0.176912
Si Si3 0.688589 0.000000 0.702597
Si Si4 0.802006 0.939879 0.000000
Si Si5 0.304624 0.095401 0.632779
Si Si6 0.197246 0.191657 0.699577
Si Si7 0.500000 0.561556 0.436415
Si Si8 0.689666 0.907043 0.885983
O O1 0.500000 0.500000 0.209247
O O2 0.808956 0.500000 0.232735
O O3 0.697012 0.448313 0.146176
O O4 0.500000 0.315685 0.170656
O O5 0.750000 0.250000 0.158448
O O6 0.754458 0.318668 0.238584
O O7 0.788822 0.348584 0.137279
O O8 0.764475 0.946688 0.677204
O O9 0.500000 0.000000 0.683038
O O10 0.737630 0.907460 0.948651
O O11 0.000000 0.941236 0.000000
O O12 0.731112 0.000000 0.000000
O O13 0.500000 0.086561 0.614066
O O14 0.295276 0.152552 0.660136
O O15 0.171917 0.089884 0.583877
O O16 0.250000 0.250000 0.681657
O O17 0.000000 0.183373 0.693015
O O18 0.500000 0.500000 0.419642
O O19 0.500000 0.568627 0.500000
O O20 0.500000 0.925863 0.878757
#
# Coordination Sequence:
#
# PCOD8272082 Si02
#       8
#     8  16   8   8  16  16   8  16
#     4  12  24  35  55  84 119 157 192 237 300 361
#     4  10  21  38  60  87 123 159 197 242 295 358
#     4  10  22  36  55  86 122 157 191 241 302 365
#     4  11  23  41  64  83 109 146 200 249 301 363
#     4  11  22  38  61  90 125 160 205 255 306 361
#     4  10  20  35  59  91 125 164 204 246 302 367
#     4  11  24  42  66  92 124 166 212 255 307 361
#     4  12  24  39  59  84 115 153 196 246 299 357
#
# _framework density 19.226537
#
# number of rings (size 3 to 8) (size 9 to 14) (size 15 to 20)
#    0.000    1.167    2.500    4.500    1.167    5.333 
#    0.000    1.250    0.000    0.500    0.000    0.000 
#    0.000    0.000    0.000    0.000    0.000    0.000 
#
# Total GULP energy -595287.820927 kJ/mol
# GULP energy per Si atom -12401.829603 kJ/mol
# Density = 1.918278 g / cm^3
# Si number density = 19.226537 Si / 1000 Ang^3
#
#
#
# Elastic Constant Matrix: (Units=GPa)
#
#
# Indices 1 2 3 4 5 6 
#
# 1 96.8620 28.9951 33.8798 0.0000 0.0000 0.0000
# 2 28.9951 124.7252 57.2660 0.0000 0.0000 0.0000
# 3 33.8798 57.2660 105.6340 0.0000 0.0000 0.0000
# 4 0.0000 0.0000 0.0000 3.3032 0.0000 0.0000
# 5 0.0000 0.0000 0.0000 0.0000 25.8802 0.0000
# 6 0.0000 0.0000 0.0000 0.0000 0.0000 27.5582
#
#
#
# Elastic Compliance Matrix: (Units=1/GPa)
#
#
# Indices 1 2 3 4 5 6 
#
# 1 0.011794 -0.001338 -0.003057 0.000000 0.000000 0.000000
# 2 -0.001338 0.010826 -0.005440 0.000000 0.000000 0.000000
# 3 -0.003057 -0.005440 0.013396 0.000000 0.000000 0.000000
# 4 0.000000 0.000000 0.000000 0.302738 0.000000 0.000000
# 5 0.000000 0.000000 0.000000 0.000000 0.038640 0.000000
# 6 0.000000 0.000000 0.000000 0.000000 0.000000 0.036287
#
#
# Mechanical properties :
#
#
# Convention : Reuss Voigt Hill
#
# Bulk Modulus (GPa) = 61.17725 63.05588 62.11657
# Shear Modulus (GPa) = 11.39471 25.15366 18.27418
#
# Velocity S-wave (km/s) = 2.43709 3.62094 3.08631
# Velocity P-wave (km/s) = 6.30932 7.09571 6.71403
#
# Compressibility (1/GPa) = 0.01634594
#
# Stress axis : x y z
#
# Youngs Moduli (GPa) = 84.78999 92.36677 74.64733
#
# Poissons Ratio (x) = 0.12359 0.22822
# Poissons Ratio (y) = 0.11345 0.40608
# Poissons Ratio (z) = 0.25922 0.50248
#
# Static dielectric constant tensor:
#      x y z
#    x 3.579100 0.000000 0.000000 
#    y 0.000000 2.659830 0.000000 
#    z 0.000000 0.000000 3.262890 
# 
# 
# High freq. dielectric constant tensor:
#      x y z
#    x 1.763110 0.000000 0.000000 
#    y 0.000000 1.750210 0.000000 
#    z 0.000000 0.000000 1.726570 
# 
# From -- ./inp_files/67950.got.cif
#   From: 2010.03.12/outbox.cif.g09.slc.cpg/sg65_34_cif.got.tgz:67950.got - 2010.04.10 20:52:16.
