data_PCOD8272587
_publ_section_title
;
Structure prediction by ZEFSAII (Michael W. Deem and Ramdas Pophale) SiO2 
 PCOD8272587
Probable space group: C M M M
;
_chemical_formula_sum "Si O2"
_cell_formula_units_Z 80
_cell_length_a 7.548204
_cell_length_b 18.614451
_cell_length_c 30.049815
_cell_angle_alpha 90.000000
_cell_angle_beta 90.000000
_cell_angle_gamma 90.000000
_cell_volume 4222.169495
_symmetry_space_group_name_H-M "C M M M"
_symmetry_group_IT_number 65
_symmetry_cell_setting 'orthorhombic'
loop_
_space_group_symop_operation_xyz
x,y,z
-x,-y,z
x,-y,-z
-x,y,-z
-x,-y,-z
x,y,-z
-x,y,z
x,-y,z
1/2+x,1/2+y,z
1/2-x,1/2-y,z
1/2+x,1/2-y,-z
1/2-x,1/2+y,-z
1/2-x,1/2-y,-z
1/2+x,1/2+y,-z
1/2-x,1/2+y,z
1/2+x,1/2-y,z
loop_
_atom_site_type_symbol
_atom_site_label
_atom_site_fract_x
_atom_site_fract_y
_atom_site_fract_z
Si Si1 0.203006 0.915524 0.680482
Si Si2 0.707851 0.332883 0.404705
Si Si3 0.295303 0.415888 0.086105
Si Si4 0.500000 0.914798 0.252664
Si Si5 0.793743 0.833509 0.000000
Si Si6 0.000000 0.584745 0.153948
Si Si7 0.292620 0.667112 0.500000
O O1 0.283736 0.879177 0.636027
O O2 0.322859 0.889193 0.721726
O O3 0.000000 0.892374 0.690131
O O4 0.218604 0.000000 0.673242
O O5 0.500000 0.344335 0.406220
O O6 0.750000 0.250000 0.396263
O O7 0.786705 0.361679 0.452674
O O8 0.500000 0.397541 0.096808
O O9 0.271189 0.500000 0.075515
O O10 0.218292 0.371662 0.044097
O O11 0.177775 0.391200 0.128111
O O12 0.500000 0.880290 0.203213
O O13 0.500000 0.000000 0.249314
O O14 0.750000 0.750000 0.000000
O O15 0.000000 0.847788 0.000000
O O16 0.000000 0.500000 0.158790
O O17 0.500000 0.652667 0.500000
O O18 0.250000 0.750000 0.500000
#
# Coordination Sequence:
#
# PCOD8272587 Si02
#       7
#    16  16  16   8   8   8   8
#     4   9  18  32  49  71  98 127 160 199 244 293
#     4   9  17  28  46  70  92 124 157 197 241 290
#     4   9  18  33  52  76 105 132 165 209 246 282
#     4   9  18  32  51  75  99 125 161 204 250 296
#     4  10  21  33  50  78 104 140 173 199 238 294
#     4   9  18  31  52  79  99 126 165 206 255 292
#     4   8  14  26  41  63  94 118 154 192 235 286
#
# _framework density 18.947604999999999
#
# number of rings (size 3 to 8) (size 9 to 14) (size 15 to 20)
#    0.000    3.000    0.000    0.300    2.800    2.000 
#    0.000    6.000    0.000    4.200    0.000    2.100 
#    0.000    0.000    0.000    0.000    0.000    0.000 
#
# Total GULP energy -495570.972062 kJ/mol
# GULP energy per Si atom -12389.274302 kJ/mol
# Density = 1.890448 g / cm^3
# Si number density = 18.947605 Si / 1000 Ang^3
#
#
#
# Elastic Constant Matrix: (Units=GPa)
#
#
# Indices 1 2 3 4 5 6 
#
# 1 81.3169 18.9482 71.3173 0.0000 0.0000 0.0000
# 2 18.9482 42.7662 48.8078 0.0000 0.0000 0.0000
# 3 71.3173 48.8078 219.2898 0.0000 0.0000 0.0000
# 4 0.0000 0.0000 0.0000 13.8495 0.0000 0.0000
# 5 0.0000 0.0000 0.0000 0.0000 6.1152 0.0000
# 6 0.0000 0.0000 0.0000 0.0000 0.0000 17.0058
#
#
#
# Elastic Compliance Matrix: (Units=1/GPa)
#
#
# Indices 1 2 3 4 5 6 
#
# 1 0.017293 -0.001667 -0.005253 0.000000 0.000000 0.000000
# 2 -0.001667 0.031506 -0.006470 0.000000 0.000000 0.000000
# 3 -0.005253 -0.006470 0.007709 0.000000 0.000000 0.000000
# 4 0.000000 0.000000 0.000000 0.072205 0.000000 0.000000
# 5 0.000000 0.000000 0.000000 0.000000 0.163527 0.000000
# 6 0.000000 0.000000 0.000000 0.000000 0.000000 0.058804
#
#
# Mechanical properties :
#
#
# Convention : Reuss Voigt Hill
#
# Bulk Modulus (GPa) = 33.63909 69.05769 51.34839
# Shear Modulus (GPa) = 12.89549 21.01407 16.95478
#
# Velocity S-wave (km/s) = 2.61164 3.33387 2.99461
# Velocity P-wave (km/s) = 5.18522 7.16557 6.25427
#
# Compressibility (1/GPa) = 0.02972732
#
# Stress axis : x y z
#
# Youngs Moduli (GPa) = 57.82682 31.74025 129.72427
#
# Poissons Ratio (x) = 0.05290 0.68145
# Poissons Ratio (y) = 0.09638 0.83935
# Poissons Ratio (z) = 0.30377 0.20537
#
# Static dielectric constant tensor:
#      x y z
#    x 3.033850 0.000000 0.000000 
#    y 0.000000 3.014680 0.000000 
#    z 0.000000 0.000000 4.133250 
# 
# 
# High freq. dielectric constant tensor:
#      x y z
#    x 1.737990 0.000000 0.000000 
#    y 0.000000 1.686510 0.000000 
#    z 0.000000 0.000000 1.747820 
# 
# From -- ./inp_files/73046.got.cif
#   From: 2010.03.12/outbox.cif.g09.slc.cpg/sg65_37_cif.got.tgz:73046.got - 2010.04.10 20:52:16.
