data_PCOD8272804
_publ_section_title
;
Structure prediction by ZEFSAII (Michael W. Deem and Ramdas Pophale) SiO2 
 PCOD8272804
Probable space group: C M M M
;
_chemical_formula_sum "Si O2"
_cell_formula_units_Z 88
_cell_length_a 24.822550
_cell_length_b 9.232570
_cell_length_c 21.602604
_cell_angle_alpha 90.000000
_cell_angle_beta 90.000000
_cell_angle_gamma 90.000000
_cell_volume 4950.796872
_symmetry_space_group_name_H-M "C M M M"
_symmetry_group_IT_number 65
_symmetry_cell_setting 'orthorhombic'
loop_
_space_group_symop_operation_xyz
x,y,z
-x,-y,z
x,-y,-z
-x,y,-z
-x,-y,-z
x,y,-z
-x,y,z
x,-y,z
1/2+x,1/2+y,z
1/2-x,1/2-y,z
1/2+x,1/2-y,-z
1/2-x,1/2+y,-z
1/2-x,1/2-y,-z
1/2+x,1/2+y,-z
1/2-x,1/2+y,z
1/2+x,1/2-y,z
loop_
_atom_site_type_symbol
_atom_site_label
_atom_site_fract_x
_atom_site_fract_y
_atom_site_fract_z
Si Si1 0.697421 0.830713 0.341765
Si Si2 0.697000 0.169472 0.199940
Si Si3 0.101737 0.334217 0.570201
Si Si4 0.917426 0.332549 0.152695
Si Si5 0.500000 0.836088 0.741261
Si Si6 0.500000 0.671826 0.615258
Si Si7 0.500000 0.668222 0.072481
O O1 0.750000 0.750000 0.366837
O O2 0.685643 0.786327 0.270895
O O3 0.647808 0.779370 0.383479
O O4 0.707714 0.000000 0.348819
O O5 0.750000 0.250000 0.173969
O O6 0.644863 0.215149 0.159686
O O7 0.707806 0.000000 0.194178
O O8 0.122863 0.321400 0.500000
O O9 0.085371 0.500000 0.585700
O O10 0.051305 0.230569 0.578904
O O11 0.922304 0.500000 0.133006
O O12 0.946748 0.308611 0.218226
O O13 0.945698 0.237822 0.099998
O O14 0.500000 0.723530 0.685913
O O15 0.500000 0.000000 0.715031
O O16 0.500000 0.500000 0.613748
O O17 0.500000 0.500000 0.089355
O O18 0.500000 0.696830 0.000000
#
# Coordination Sequence:
#
# PCOD8272804 Si02
#       7
#    16  16  16  16   8   8   8
#     4   9  18  33  52  74  99 126 159 200 247 300
#     4   9  17  30  49  74 103 132 162 200 247 296
#     4  10  21  37  54  68  88 126 169 204 247 307
#     4   9  18  33  54  78 103 135 174 209 241 285
#     4   9  17  32  53  74  98 128 162 203 250 302
#     4  12  24  34  48  72  99 125 158 206 259 304
#     4  10  21  35  52  78 111 142 170 207 253 291
#
# _framework density 17.774916000000001
#
# number of rings (size 3 to 8) (size 9 to 14) (size 15 to 20)
#    0.000    2.455    0.000    3.000    0.000    8.364 
#    0.000    3.636    0.000    0.545    0.000    0.000 
#    0.000    0.000    0.000    0.000    0.000    0.000 
#
# Total GULP energy -545674.650255 kJ/mol
# GULP energy per Si atom -12401.696597 kJ/mol
# Density = 1.773446 g / cm^3
# Si number density = 17.774916 Si / 1000 Ang^3
#
#
#
# Elastic Constant Matrix: (Units=GPa)
#
#
# Indices 1 2 3 4 5 6 
#
# 1 158.6744 62.1628 53.2224 0.0000 0.0000 0.0000
# 2 62.1628 79.0744 42.7496 0.0000 0.0000 0.0000
# 3 53.2224 42.7496 75.6039 0.0000 0.0000 0.0000
# 4 0.0000 0.0000 0.0000 23.4126 0.0000 0.0000
# 5 0.0000 0.0000 0.0000 0.0000 -12.8204 0.0000
# 6 0.0000 0.0000 0.0000 0.0000 0.0000 33.9525
#
#
#
# Elastic Compliance Matrix: (Units=1/GPa)
#
#
# Indices 1 2 3 4 5 6 
#
# 1 0.009758 -0.005700 -0.003647 0.000000 0.000000 0.000000
# 2 -0.005700 0.021544 -0.008169 0.000000 0.000000 0.000000
# 3 -0.003647 -0.008169 0.020413 0.000000 0.000000 0.000000
# 4 0.000000 0.000000 0.000000 0.042712 0.000000 0.000000
# 5 0.000000 0.000000 0.000000 0.000000 -0.078001 0.000000
# 6 0.000000 0.000000 0.000000 0.000000 0.000000 0.029453
#
#
# Mechanical properties :
#
#
# Convention : Reuss Voigt Hill
#
# Bulk Modulus (GPa) = 59.93833 69.95804 64.94818
# Shear Modulus (GPa) = 57.82213 19.25678 38.53946
#
# Velocity S-wave (km/s) = 5.70971 3.29503 4.66144
# Velocity P-wave (km/s) = 8.78986 7.34299 8.09880
#
# Compressibility (1/GPa) = 0.01668381
#
# Stress axis : x y z
#
# Youngs Moduli (GPa) = 102.47622 46.41738 48.98822
#
# Poissons Ratio (x) = 0.26458 0.17864
# Poissons Ratio (y) = 0.58411 0.40019
# Poissons Ratio (z) = 0.37369 0.37919
#
# Static dielectric constant tensor:
#      x y z
#    x 3.526310 0.000000 0.000000 
#    y 0.000000 3.209700 0.000000 
#    z 0.000000 0.000000 3.095830 
# 
# 
# High freq. dielectric constant tensor:
#      x y z
#    x 1.694340 0.000000 0.000000 
#    y 0.000000 1.679680 0.000000 
#    z 0.000000 0.000000 1.667960 
# 
# From -- ./inp_files/65224.got.cif
#   From: 2010.03.12/outbox.cif.g09.slc.cpg/sg65_33_cif.got.tgz:65224.got - 2010.04.10 20:52:16.
