data_PCOD8272156
_publ_section_title
;
Structure prediction by ZEFSAII (Michael W. Deem and Ramdas Pophale) SiO2 
 PCOD8272156
Probable space group: C M M M
;
_chemical_formula_sum "Si O2"
_cell_formula_units_Z 112
_cell_length_a 13.517478
_cell_length_b 13.517449
_cell_length_c 30.375166
_cell_angle_alpha 90.000000
_cell_angle_beta 90.000000
_cell_angle_gamma 90.000000
_cell_volume 5550.205598
_symmetry_space_group_name_H-M "C M M M"
_symmetry_group_IT_number 65
_symmetry_cell_setting 'orthorhombic'
loop_
_space_group_symop_operation_xyz
x,y,z
-x,-y,z
x,-y,-z
-x,y,-z
-x,-y,-z
x,y,-z
-x,y,z
x,-y,z
1/2+x,1/2+y,z
1/2-x,1/2-y,z
1/2+x,1/2-y,-z
1/2-x,1/2+y,-z
1/2-x,1/2-y,-z
1/2+x,1/2+y,-z
1/2-x,1/2+y,z
1/2+x,1/2-y,z
loop_
_atom_site_type_symbol
_atom_site_label
_atom_site_fract_x
_atom_site_fract_y
_atom_site_fract_z
Si Si1 0.799135 0.885739 0.408112
Si Si2 0.888130 0.701595 0.630125
Si Si3 0.389117 0.383587 0.500000
Si Si4 0.111363 0.301912 0.268140
Si Si5 0.614261 0.799135 0.091888
Si Si6 0.301912 0.388636 0.231861
Si Si7 0.298405 0.611870 0.869875
Si Si8 0.383587 0.889117 0.000000
O O1 0.862151 0.817952 0.374788
O O2 0.682655 0.865938 0.400237
O O3 0.827512 0.850682 0.457240
O O4 0.825377 0.000000 0.399451
O O5 0.872638 0.672748 0.680793
O O6 0.000000 0.681360 0.614930
O O7 0.400765 0.500000 0.500000
O O8 0.500000 0.336307 0.500000
O O9 0.185465 0.368077 0.239464
O O10 0.131922 0.185465 0.260535
O O11 0.000000 0.327142 0.253419
O O12 0.500000 0.825377 0.100549
O O13 0.634061 0.682656 0.099763
O O14 0.682049 0.862152 0.125212
O O15 0.649318 0.827512 0.042760
O O16 0.327142 0.500000 0.246581
O O17 0.327253 0.372638 0.180793
O O18 0.318641 0.500000 0.885070
O O19 0.500000 0.900765 0.000000
O O20 0.336307 0.000000 0.000000
#
# Coordination Sequence:
#
# PCOD8272156 Si02
#       8
#    16  16   8  16  16  16  16   8
#     4  10  20  36  57  78 106 144 179 217 269 321
#     4  10  22  36  53  82 111 137 178 226 269 319
#     4   9  18  33  55  83 110 139 181 226 265 315
#     4  10  21  37  55  78 109 141 178 224 269 318
#     4  10  20  36  57  78 106 144 179 217 269 321
#     4  10  21  37  55  78 109 141 178 224 269 318
#     4  10  22  36  53  82 111 137 178 226 269 319
#     4   9  18  33  55  83 110 139 181 226 265 315
#
# _framework density 20.179431999999998
#
# number of rings (size 3 to 8) (size 9 to 14) (size 15 to 20)
#    0.000    2.143    0.000    4.286    0.000    9.714 
#    0.000    7.857    0.000    2.571    0.000    0.000 
#    0.000    0.000    0.000    0.000    0.000    0.000 
#
# Total GULP energy -694335.883237 kJ/mol
# GULP energy per Si atom -12398.855058 kJ/mol
# Density = 2.013350 g / cm^3
# Si number density = 20.179432 Si / 1000 Ang^3
#
#
#
# Elastic Constant Matrix: (Units=GPa)
#
#
# Indices 1 2 3 4 5 6 
#
# 1 85.4168 0.3059 29.8710 0.0000 0.0000 0.0000
# 2 0.3059 85.4179 29.8711 0.0000 0.0000 0.0000
# 3 29.8710 29.8711 65.6855 0.0000 0.0000 0.0000
# 4 0.0000 0.0000 0.0000 27.9489 0.0000 0.0000
# 5 0.0000 0.0000 0.0000 0.0000 27.9488 0.0000
# 6 0.0000 0.0000 0.0000 0.0000 0.0000 16.6726
#
#
#
# Elastic Compliance Matrix: (Units=1/GPa)
#
#
# Indices 1 2 3 4 5 6 
#
# 1 0.014414 0.002664 -0.007766 0.000000 0.000000 0.000000
# 2 0.002664 0.014414 -0.007766 0.000000 0.000000 0.000000
# 3 -0.007766 -0.007766 0.022288 0.000000 0.000000 0.000000
# 4 0.000000 0.000000 0.000000 0.035780 0.000000 0.000000
# 5 0.000000 0.000000 0.000000 0.000000 0.035780 0.000000
# 6 0.000000 0.000000 0.000000 0.000000 0.000000 0.059979
#
#
# Mechanical properties :
#
#
# Convention : Reuss Voigt Hill
#
# Bulk Modulus (GPa) = 39.40387 39.62401 39.51394
# Shear Modulus (GPa) = 23.05754 26.27889 24.66822
#
# Velocity S-wave (km/s) = 3.38394 3.61260 3.50014
# Velocity P-wave (km/s) = 5.90231 6.08931 5.99654
#
# Compressibility (1/GPa) = 0.02537822
#
# Stress axis : x y z
#
# Youngs Moduli (GPa) = 69.37832 69.37929 44.86784
#
# Poissons Ratio (x) = -0.18485 0.34846
# Poissons Ratio (y) = -0.18485 0.34846
# Poissons Ratio (z) = 0.53882 0.53882
#
# Static dielectric constant tensor:
#      x y z
#    x 3.639310 0.000000 0.000000 
#    y 0.000000 3.639290 0.000000 
#    z 0.000000 0.000000 3.707010 
# 
# 
# High freq. dielectric constant tensor:
#      x y z
#    x 1.781880 0.000000 0.000000 
#    y 0.000000 1.781880 0.000000 
#    z 0.000000 0.000000 1.787400 
# 
# From -- ./inp_files/74927.got.cif
#   From: 2010.03.12/outbox.cif.g09.slc.cpg/sg65_38_cif.got.tgz:74927.got - 2010.04.10 20:52:16.
