data_PCOD8272060
_publ_section_title
;
Structure prediction by ZEFSAII (Michael W. Deem and Ramdas Pophale) SiO2 
 PCOD8272060
Probable space group: C M M M
;
_chemical_formula_sum "Si O2"
_cell_formula_units_Z 112
_cell_length_a 14.084858
_cell_length_b 14.004060
_cell_length_c 26.874796
_cell_angle_alpha 90.000000
_cell_angle_beta 90.000000
_cell_angle_gamma 90.000000
_cell_volume 5300.924419
_symmetry_space_group_name_H-M "C M M M"
_symmetry_group_IT_number 65
_symmetry_cell_setting 'orthorhombic'
loop_
_space_group_symop_operation_xyz
x,y,z
-x,-y,z
x,-y,-z
-x,y,-z
-x,-y,-z
x,y,-z
-x,y,z
x,-y,z
1/2+x,1/2+y,z
1/2-x,1/2-y,z
1/2+x,1/2-y,-z
1/2-x,1/2+y,-z
1/2-x,1/2-y,-z
1/2+x,1/2+y,-z
1/2-x,1/2+y,z
1/2+x,1/2-y,z
loop_
_atom_site_type_symbol
_atom_site_label
_atom_site_fract_x
_atom_site_fract_y
_atom_site_fract_z
Si Si1 0.888732 0.104778 0.650728
Si Si2 0.104744 0.398466 0.385524
Si Si3 0.285382 0.110613 0.904923
Si Si4 0.613361 0.785973 0.705386
Si Si5 0.391196 0.715822 0.057175
Si Si6 0.857389 0.223884 0.554172
Si Si7 0.890908 0.608950 0.196771
O O1 0.849097 0.178807 0.692745
O O2 0.871124 0.140734 0.594445
O O3 0.000000 0.096374 0.658656
O O4 0.841691 0.000000 0.657809
O O5 0.153454 0.500000 0.401431
O O6 0.159330 0.353270 0.337811
O O7 0.094422 0.323223 0.430057
O O8 0.000000 0.422197 0.366943
O O9 0.353836 0.175010 0.939394
O O10 0.176068 0.145910 0.910211
O O11 0.319490 0.126013 0.848593
O O12 0.294161 0.000000 0.921140
O O13 0.500000 0.788665 0.701470
O O14 0.645486 0.820948 0.759637
O O15 0.500000 0.708370 0.076445
O O16 0.385169 0.683364 0.000000
O O17 0.897960 0.191599 0.500000
O O18 0.750000 0.250000 0.548770
O O19 0.884849 0.500000 0.215669
O O20 0.000000 0.632279 0.181017
#
# Coordination Sequence:
#
# PCOD8272060 Si02
#       7
#    16  16  16  16  16  16  16
#     4   9  18  33  54  78 102 133 176 222 265 317
#     4   9  17  30  50  74  98 126 163 210 264 323
#     4  10  20  35  58  89 122 156 201 257 307 356
#     4   8  14  27  49  77 107 136 168 213 271 333
#     4  10  22  39  59  86 122 167 213 254 303 359
#     4  10  21  34  47  67  97 134 172 212 267 329
#     4   9  16  27  50  85 118 147 182 229 290 352
#
# _framework density 21.128391000000001
#
# number of rings (size 3 to 8) (size 9 to 14) (size 15 to 20)
#    0.000    2.714    0.000    3.000    0.000    6.286 
#    0.000    4.286   12.571    3.429    0.000    4.000 
#    0.000    0.000    0.000    0.000    0.000    0.000 
#
# Total GULP energy -693763.851710 kJ/mol
# GULP energy per Si atom -12388.640209 kJ/mol
# Density = 2.108030 g / cm^3
# Si number density = 21.128391 Si / 1000 Ang^3
#
#
#
# Elastic Constant Matrix: (Units=GPa)
#
#
# Indices 1 2 3 4 5 6 
#
# 1 85.5863 31.2956 34.6769 0.0000 0.0000 0.0000
# 2 31.2956 160.9363 66.7327 0.0000 0.0000 0.0000
# 3 34.6769 66.7327 118.2129 0.0000 0.0000 0.0000
# 4 0.0000 0.0000 0.0000 26.9775 0.0000 0.0000
# 5 0.0000 0.0000 0.0000 0.0000 16.8946 0.0000
# 6 0.0000 0.0000 0.0000 0.0000 0.0000 8.9014
#
#
#
# Elastic Compliance Matrix: (Units=1/GPa)
#
#
# Indices 1 2 3 4 5 6 
#
# 1 0.013459 -0.001280 -0.003226 0.000000 0.000000 0.000000
# 2 -0.001280 0.008234 -0.004273 0.000000 0.000000 0.000000
# 3 -0.003226 -0.004273 0.011818 0.000000 0.000000 0.000000
# 4 0.000000 0.000000 0.000000 0.037068 0.000000 0.000000
# 5 0.000000 0.000000 0.000000 0.000000 0.059190 0.000000
# 6 0.000000 0.000000 0.000000 0.000000 0.000000 0.112342
#
#
# Mechanical properties :
#
#
# Convention : Reuss Voigt Hill
#
# Bulk Modulus (GPa) = 62.67920 70.01624 66.34772
# Shear Modulus (GPa) = 18.86892 26.02339 22.44616
#
# Velocity S-wave (km/s) = 2.99165 3.51334 3.26294
# Velocity P-wave (km/s) = 6.45473 7.04758 6.75766
#
# Compressibility (1/GPa) = 0.01595426
#
# Stress axis : x y z
#
# Youngs Moduli (GPa) = 74.29977 121.44340 84.61882
#
# Poissons Ratio (x) = 0.15541 0.27296
# Poissons Ratio (y) = 0.09508 0.36157
# Poissons Ratio (z) = 0.23967 0.51893
#
# Static dielectric constant tensor:
#      x y z
#    x 3.739690 0.000000 0.000000 
#    y 0.000000 4.181450 0.000000 
#    z 0.000000 0.000000 3.972030 
# 
# 
# High freq. dielectric constant tensor:
#      x y z
#    x 1.824630 0.000000 0.000000 
#    y 0.000000 1.829110 0.000000 
#    z 0.000000 0.000000 1.808970 
# 
# From -- ./inp_files/74874.got.cif
#   From: 2010.03.12/outbox.cif.g09.slc.cpg/sg65_38_cif.got.tgz:74874.got - 2010.04.10 20:52:16.
