data_PCOD8272699
_publ_section_title
;
Structure prediction by ZEFSAII (Michael W. Deem and Ramdas Pophale) SiO2 
 PCOD8272699
Probable space group: C M M M
;
_chemical_formula_sum "Si O2"
_cell_formula_units_Z 88
_cell_length_a 9.214005
_cell_length_b 18.850546
_cell_length_c 28.386900
_cell_angle_alpha 90.000000
_cell_angle_beta 90.000000
_cell_angle_gamma 90.000000
_cell_volume 4930.492987
_symmetry_space_group_name_H-M "C M M M"
_symmetry_group_IT_number 65
_symmetry_cell_setting 'orthorhombic'
loop_
_space_group_symop_operation_xyz
x,y,z
-x,-y,z
x,-y,-z
-x,y,-z
-x,-y,-z
x,y,-z
-x,y,z
x,-y,z
1/2+x,1/2+y,z
1/2-x,1/2-y,z
1/2+x,1/2-y,-z
1/2-x,1/2+y,-z
1/2-x,1/2-y,-z
1/2+x,1/2+y,-z
1/2-x,1/2+y,z
1/2+x,1/2-y,z
loop_
_atom_site_type_symbol
_atom_site_label
_atom_site_fract_x
_atom_site_fract_y
_atom_site_fract_z
Si Si1 0.169467 0.175713 0.211349
Si Si2 0.830414 0.917850 0.124258
Si Si3 0.170377 0.824859 0.584971
Si Si4 0.668319 0.179132 0.055152
Si Si5 0.672656 0.420633 0.500000
Si Si6 0.666341 0.321895 0.313146
O O1 0.250000 0.250000 0.204121
O O2 0.221321 0.120118 0.172231
O O3 0.203429 0.139769 0.263167
O O4 0.000000 0.191691 0.205817
O O5 0.738188 0.888022 0.080856
O O6 0.000000 0.905313 0.114068
O O7 0.793398 0.000000 0.129836
O O8 0.250000 0.750000 0.578853
O O9 0.229867 0.879815 0.546329
O O10 0.201569 0.860743 0.636957
O O11 0.000000 0.810866 0.577527
O O12 0.500000 0.186713 0.068556
O O13 0.750000 0.250000 0.072264
O O14 0.690757 0.166562 0.000000
O O15 0.737991 0.500000 0.500000
O O16 0.500000 0.424255 0.500000
O O17 0.500000 0.300420 0.312972
O O18 0.750000 0.250000 0.313480
#
# Coordination Sequence:
#
# PCOD8272699 Si02
#       6
#    16  16  16  16   8  16
#     4   9  17  30  48  69  93 121 155 194 234 277
#     4  10  21  35  50  71 101 134 164 196 236 280
#     4   9  16  27  45  66  87 114 149 189 231 273
#     4  10  21  37  57  79 101 126 159 199 240 283
#     4   9  17  28  41  61  90 119 148 184 226 273
#     4   8  14  25  42  65  89 113 146 188 232 274
#
# _framework density 17.848113999999999
#
# number of rings (size 3 to 8) (size 9 to 14) (size 15 to 20)
#    0.000    2.818    0.000    1.364    0.000    4.000 
#    0.000    2.727    0.000    6.545    0.000    0.000 
#    0.000   14.545    0.000    0.000    0.000    0.000 
#
# Total GULP energy -545144.065569 kJ/mol
# GULP energy per Si atom -12389.637854 kJ/mol
# Density = 1.780749 g / cm^3
# Si number density = 17.848114 Si / 1000 Ang^3
#
#
#
# Elastic Constant Matrix: (Units=GPa)
#
#
# Indices 1 2 3 4 5 6 
#
# 1 46.3987 38.1138 45.2046 0.0000 0.0000 0.0000
# 2 38.1138 110.9608 74.1776 0.0000 0.0000 0.0000
# 3 45.2046 74.1776 133.6003 0.0000 0.0000 0.0000
# 4 0.0000 0.0000 0.0000 10.1765 0.0000 0.0000
# 5 0.0000 0.0000 0.0000 0.0000 19.8706 0.0000
# 6 0.0000 0.0000 0.0000 0.0000 0.0000 21.7597
#
#
#
# Elastic Compliance Matrix: (Units=1/GPa)
#
#
# Indices 1 2 3 4 5 6 
#
# 1 0.034873 -0.006505 -0.008188 0.000000 0.000000 0.000000
# 2 -0.006505 0.015545 -0.006430 0.000000 0.000000 0.000000
# 3 -0.008188 -0.006430 0.013825 0.000000 0.000000 0.000000
# 4 0.000000 0.000000 0.000000 0.098265 0.000000 0.000000
# 5 0.000000 0.000000 0.000000 0.000000 0.050326 0.000000
# 6 0.000000 0.000000 0.000000 0.000000 0.000000 0.045957
#
#
# Mechanical properties :
#
#
# Convention : Reuss Voigt Hill
#
# Bulk Modulus (GPa) = 45.45864 67.32798 56.39331
# Shear Modulus (GPa) = 16.21437 19.25895 17.73666
#
# Velocity S-wave (km/s) = 3.01734 3.28845 3.15581
# Velocity P-wave (km/s) = 6.13711 7.22656 6.70400
#
# Compressibility (1/GPa) = 0.02199802
#
# Stress axis : x y z
#
# Youngs Moduli (GPa) = 28.67568 64.32957 72.33039
#
# Poissons Ratio (x) = 0.41845 0.59223
# Poissons Ratio (y) = 0.18653 0.46508
# Poissons Ratio (z) = 0.23479 0.41363
#
# Static dielectric constant tensor:
#      x y z
#    x 3.064420 0.000000 0.000000 
#    y 0.000000 2.991410 0.000000 
#    z 0.000000 0.000000 4.101400 
# 
# 
# High freq. dielectric constant tensor:
#      x y z
#    x 1.679080 0.000000 0.000000 
#    y 0.000000 1.653150 0.000000 
#    z 0.000000 0.000000 1.719480 
# 
# From -- ./inp_files/76422.got.cif
#   From: 2010.03.12/outbox.cif.g09.slc.cpg/sg65_39_cif.got.tgz:76422.got - 2010.04.10 20:52:16.
