data_PCOD8272047
_publ_section_title
;
Structure prediction by ZEFSAII (Michael W. Deem and Ramdas Pophale) SiO2 
 PCOD8272047
Probable space group: C M M M
;
_chemical_formula_sum "Si O2"
_cell_formula_units_Z 64
_cell_length_a 18.455732
_cell_length_b 7.883939
_cell_length_c 22.447732
_cell_angle_alpha 90.000000
_cell_angle_beta 90.000000
_cell_angle_gamma 90.000000
_cell_volume 3266.231773
_symmetry_space_group_name_H-M "C M M M"
_symmetry_group_IT_number 65
_symmetry_cell_setting 'orthorhombic'
loop_
_space_group_symop_operation_xyz
x,y,z
-x,-y,z
x,-y,-z
-x,y,-z
-x,-y,-z
x,y,-z
-x,y,z
x,-y,z
1/2+x,1/2+y,z
1/2-x,1/2-y,z
1/2+x,1/2-y,-z
1/2-x,1/2+y,-z
1/2-x,1/2-y,-z
1/2+x,1/2+y,-z
1/2-x,1/2+y,z
1/2+x,1/2-y,z
loop_
_atom_site_type_symbol
_atom_site_label
_atom_site_fract_x
_atom_site_fract_y
_atom_site_fract_z
Si Si1 0.914079 0.500000 0.566408
Si Si2 0.583757 0.691076 0.647306
Si Si3 0.081924 0.801229 0.000000
Si Si4 0.667061 0.799759 0.761539
Si Si5 0.080862 0.697405 0.874681
O O1 0.880465 0.500000 0.500000
O O2 0.887233 0.670669 0.599796
O O3 0.000000 0.500000 0.562407
O O4 0.500000 0.728191 0.662576
O O5 0.593438 0.500000 0.621347
O O6 0.629154 0.705074 0.707285
O O7 0.118672 0.734348 0.061056
O O8 0.000000 0.730169 0.000000
O O9 0.085710 0.000000 0.000000
O O10 0.750000 0.750000 0.763212
O O11 0.630731 0.728420 0.822186
O O12 0.656775 0.000000 0.753844
O O13 0.073901 0.500000 0.864494
O O14 0.000000 0.780477 0.872010
#
# Coordination Sequence:
#
# PCOD8272047 Si02
#       5
#     8  16   8  16  16
#     4   9  18  34  58  88 120 149 182 228 275 325
#     4  10  20  35  58  87 116 149 188 229 277 331
#     4   9  17  29  48  75 104 133 169 223 278 327
#     4  11  22  36  54  79 110 147 186 233 282 334
#     4   9  18  33  54  76 102 138 180 224 275 335
#
# _framework density 19.594446000000001
#
# number of rings (size 3 to 8) (size 9 to 14) (size 15 to 20)
#    0.000    2.250    1.250    1.875    0.000    5.000 
#    0.000    5.625    0.000    0.750    0.000    0.000 
#    0.000    0.000    0.000    0.000    0.000    0.000 
#
# Total GULP energy -396703.199685 kJ/mol
# GULP energy per Si atom -12396.974990 kJ/mol
# Density = 1.954985 g / cm^3
# Si number density = 19.594446 Si / 1000 Ang^3
#
#
#
# Elastic Constant Matrix: (Units=GPa)
#
#
# Indices 1 2 3 4 5 6 
#
# 1 72.5535 24.3541 55.1761 0.0000 0.0000 0.0000
# 2 24.3541 96.1016 53.8235 0.0000 0.0000 0.0000
# 3 55.1761 53.8235 182.8563 0.0000 0.0000 0.0000
# 4 0.0000 0.0000 0.0000 15.8861 0.0000 0.0000
# 5 0.0000 0.0000 0.0000 0.0000 -10.8219 0.0000
# 6 0.0000 0.0000 0.0000 0.0000 0.0000 20.0346
#
#
#
# Elastic Compliance Matrix: (Units=1/GPa)
#
#
# Indices 1 2 3 4 5 6 
#
# 1 0.018154 -0.001835 -0.004938 0.000000 0.000000 0.000000
# 2 -0.001835 0.012645 -0.003168 0.000000 0.000000 0.000000
# 3 -0.004938 -0.003168 0.007891 0.000000 0.000000 0.000000
# 4 0.000000 0.000000 0.000000 0.062948 0.000000 0.000000
# 5 0.000000 0.000000 0.000000 0.000000 -0.092405 0.000000
# 6 0.000000 0.000000 0.000000 0.000000 0.000000 0.049914
#
#
# Mechanical properties :
#
#
# Convention : Reuss Voigt Hill
#
# Bulk Modulus (GPa) = 53.16855 68.69097 60.92976
# Shear Modulus (GPa) = 58.61732 19.56361 39.09046
#
# Velocity S-wave (km/s) = 5.47542 3.16322 4.47136
# Velocity P-wave (km/s) = 8.19555 6.96231 7.60397
#
# Compressibility (1/GPa) = 0.01880811
#
# Stress axis : x y z
#
# Youngs Moduli (GPa) = 55.08427 79.08130 126.72154
#
# Poissons Ratio (x) = 0.14512 0.62572
# Poissons Ratio (y) = 0.10109 0.40150
# Poissons Ratio (z) = 0.27199 0.25056
#
# Static dielectric constant tensor:
#      x y z
#    x 3.638270 0.000000 0.000000 
#    y 0.000000 3.601000 0.000000 
#    z 0.000000 0.000000 3.869520 
# 
# 
# High freq. dielectric constant tensor:
#      x y z
#    x 1.719800 0.000000 0.000000 
#    y 0.000000 1.769210 0.000000 
#    z 0.000000 0.000000 1.769840 
# 
# From -- ./inp_files/63265.got.cif
#   From: 2010.03.12/outbox.cif.g09.slc.cpg/sg65_32_cif.got.tgz:63265.got - 2010.04.10 20:52:16.
