data_PCOD8272815
_publ_section_title
;
Structure prediction by ZEFSAII (Michael W. Deem and Ramdas Pophale) SiO2 
 PCOD8272815
Probable space group: C M M M
;
_chemical_formula_sum "Si O2"
_cell_formula_units_Z 80
_cell_length_a 7.992560
_cell_length_b 18.690251
_cell_length_c 27.411434
_cell_angle_alpha 90.000000
_cell_angle_beta 90.000000
_cell_angle_gamma 90.000000
_cell_volume 4094.800944
_symmetry_space_group_name_H-M "C M M M"
_symmetry_group_IT_number 65
_symmetry_cell_setting 'orthorhombic'
loop_
_space_group_symop_operation_xyz
x,y,z
-x,-y,z
x,-y,-z
-x,y,-z
-x,-y,-z
x,y,-z
-x,y,z
x,-y,z
1/2+x,1/2+y,z
1/2-x,1/2-y,z
1/2+x,1/2-y,-z
1/2-x,1/2+y,-z
1/2-x,1/2-y,-z
1/2+x,1/2+y,-z
1/2-x,1/2+y,z
1/2+x,1/2-y,z
loop_
_atom_site_type_symbol
_atom_site_label
_atom_site_fract_x
_atom_site_fract_y
_atom_site_fract_z
Si Si1 0.307121 0.919286 0.197112
Si Si2 0.304919 0.584077 0.378174
Si Si3 0.197277 0.918289 0.908038
Si Si4 0.500000 0.084618 0.554326
Si Si5 0.190026 0.830430 0.714214
Si Si6 0.302528 0.331428 0.000000
O O1 0.500000 0.917403 0.211075
O O2 0.280958 0.891447 0.142062
O O3 0.212867 0.867339 0.233674
O O4 0.234770 0.000000 0.201697
O O5 0.500000 0.603057 0.391846
O O6 0.290449 0.500000 0.367881
O O7 0.174015 0.609110 0.419912
O O8 0.232323 0.623447 0.329865
O O9 0.269989 0.869857 0.951773
O O10 0.000000 0.909769 0.902581
O O11 0.247578 0.000000 0.919324
O O12 0.500000 0.117979 0.500000
O O13 0.500000 0.000000 0.551624
O O14 0.250000 0.750000 0.716494
O O15 0.000000 0.827784 0.700605
O O16 0.250000 0.250000 0.000000
O O17 0.500000 0.340101 0.000000
#
# Coordination Sequence:
#
# PCOD8272815 Si02
#       6
#    16  16  16   8  16   8
#     4  10  21  36  56  82 111 142 179 224 275 331
#     4   9  19  35  56  83 113 148 189 233 283 338
#     4   9  18  35  57  77 100 135 179 225 267 319
#     4   9  18  32  56  88 116 146 185 234 288 332
#     4  11  23  37  55  81 110 148 186 227 278 330
#     4  10  21  35  53  77 103 136 176 218 274 326
#
# _framework density 19.53697
#
# number of rings (size 3 to 8) (size 9 to 14) (size 15 to 20)
#    0.000    2.300    0.000    2.100    2.800    5.200 
#    0.000    4.000    0.000    3.600    0.000    0.000 
#    0.000    0.000    0.000    0.000    0.000    0.000 
#
# Total GULP energy -495854.139824 kJ/mol
# GULP energy per Si atom -12396.353496 kJ/mol
# Density = 1.949250 g / cm^3
# Si number density = 19.536970 Si / 1000 Ang^3
#
#
#
# Elastic Constant Matrix: (Units=GPa)
#
#
# Indices 1 2 3 4 5 6 
#
# 1 60.7752 25.0054 42.4830 0.0000 0.0000 0.0000
# 2 25.0054 94.6241 73.8746 0.0000 0.0000 0.0000
# 3 42.4830 73.8746 158.8846 0.0000 0.0000 0.0000
# 4 0.0000 0.0000 0.0000 10.5042 0.0000 0.0000
# 5 0.0000 0.0000 0.0000 0.0000 29.0177 0.0000
# 6 0.0000 0.0000 0.0000 0.0000 0.0000 19.9438
#
#
#
# Elastic Compliance Matrix: (Units=1/GPa)
#
#
# Indices 1 2 3 4 5 6 
#
# 1 0.020426 -0.001780 -0.004634 0.000000 0.000000 0.000000
# 2 -0.001780 0.016746 -0.007310 0.000000 0.000000 0.000000
# 3 -0.004634 -0.007310 0.010932 0.000000 0.000000 0.000000
# 4 0.000000 0.000000 0.000000 0.095200 0.000000 0.000000
# 5 0.000000 0.000000 0.000000 0.000000 0.034462 0.000000
# 6 0.000000 0.000000 0.000000 0.000000 0.000000 0.050141
#
#
# Mechanical properties :
#
#
# Convention : Reuss Voigt Hill
#
# Bulk Modulus (GPa) = 48.41397 66.33444 57.37420
# Shear Modulus (GPa) = 19.06665 23.42121 21.24393
#
# Velocity S-wave (km/s) = 3.12737 3.46615 3.30111
# Velocity P-wave (km/s) = 6.15427 7.07431 6.63027
#
# Compressibility (1/GPa) = 0.02065520
#
# Stress axis : x y z
#
# Youngs Moduli (GPa) = 48.95829 59.71723 91.47665
#
# Poissons Ratio (x) = 0.10629 0.42389
# Poissons Ratio (y) = 0.08714 0.66870
# Poissons Ratio (z) = 0.22686 0.43654
#
# Static dielectric constant tensor:
#      x y z
#    x 3.590130 0.000000 0.000000 
#    y 0.000000 3.331710 0.000000 
#    z 0.000000 0.000000 3.729750 
# 
# 
# High freq. dielectric constant tensor:
#      x y z
#    x 1.761720 0.000000 0.000000 
#    y 0.000000 1.741090 0.000000 
#    z 0.000000 0.000000 1.766140 
# 
# From -- ./inp_files/72907.got.cif
#   From: 2010.03.12/outbox.cif.g09.slc.cpg/sg65_37_cif.got.tgz:72907.got - 2010.04.10 20:52:16.
