data_PCOD8272006
_publ_section_title
;
Structure prediction by ZEFSAII (Michael W. Deem and Ramdas Pophale) SiO2 
 PCOD8272006
Probable space group: C M M M
;
_chemical_formula_sum "Si O2"
_cell_formula_units_Z 88
_cell_length_a 9.060976
_cell_length_b 16.154326
_cell_length_c 29.967877
_cell_angle_alpha 90.000000
_cell_angle_beta 90.000000
_cell_angle_gamma 90.000000
_cell_volume 4386.516835
_symmetry_space_group_name_H-M "C M M M"
_symmetry_group_IT_number 65
_symmetry_cell_setting 'orthorhombic'
loop_
_space_group_symop_operation_xyz
x,y,z
-x,-y,z
x,-y,-z
-x,y,-z
-x,-y,-z
x,y,-z
-x,y,z
x,-y,z
1/2+x,1/2+y,z
1/2-x,1/2-y,z
1/2+x,1/2-y,-z
1/2-x,1/2+y,-z
1/2-x,1/2-y,-z
1/2+x,1/2+y,-z
1/2-x,1/2+y,z
1/2+x,1/2-y,z
loop_
_atom_site_type_symbol
_atom_site_label
_atom_site_fract_x
_atom_site_fract_y
_atom_site_fract_z
Si Si1 0.675162 0.592881 0.451532
Si Si2 0.324992 0.500000 0.051016
Si Si3 0.675431 0.666126 0.639744
Si Si4 0.170335 0.903772 0.804013
Si Si5 0.673870 0.335492 0.899006
Si Si6 0.837842 0.404830 0.718631
O O1 0.725806 0.629492 0.500000
O O2 0.500000 0.590279 0.449246
O O3 0.737275 0.500000 0.446721
O O4 0.735779 0.646069 0.410164
O O5 0.500000 0.500000 0.056299
O O6 0.264667 0.415271 0.073655
O O7 0.272813 0.500000 0.000000
O O8 0.500000 0.670453 0.640973
O O9 0.750000 0.750000 0.655716
O O10 0.733676 0.599975 0.675156
O O11 0.212900 0.850865 0.847315
O O12 0.261962 0.865623 0.762468
O O13 0.000000 0.893269 0.791522
O O14 0.205870 0.000000 0.813702
O O15 0.500000 0.325918 0.906768
O O16 0.750000 0.250000 0.915080
O O17 0.858185 0.500000 0.729344
O O18 0.000000 0.364069 0.710577
#
# Coordination Sequence:
#
# PCOD8272006 Si02
#       6
#    16   8  16  16  16  16
#     4   8  15  30  53  78 100 126 167 216 262 315
#     4   9  18  36  61  85 115 157 199 237 282 343
#     4  11  22  35  52  75 106 143 179 218 267 321
#     4   9  17  33  56  78 105 144 190 231 272 331
#     4  10  20  35  57  86 116 151 194 240 288 341
#     4  10  21  36  55  80 109 141 180 226 275 325
#
# _framework density 20.061475999999999
#
# number of rings (size 3 to 8) (size 9 to 14) (size 15 to 20)
#    0.000    2.455    0.909    2.182    0.000    4.000 
#    0.000    2.273    0.000    2.182    0.000    6.364 
#    0.000    0.000    0.000    0.000    0.000    0.000 
#
# Total GULP energy -545352.278843 kJ/mol
# GULP energy per Si atom -12394.369974 kJ/mol
# Density = 2.001582 g / cm^3
# Si number density = 20.061476 Si / 1000 Ang^3
#
#
#
# Elastic Constant Matrix: (Units=GPa)
#
#
# Indices 1 2 3 4 5 6 
#
# 1 69.3625 32.3387 48.5462 0.0000 0.0000 0.0000
# 2 32.3387 89.0144 50.4086 0.0000 0.0000 0.0000
# 3 48.5462 50.4086 142.5100 0.0000 0.0000 0.0000
# 4 0.0000 0.0000 0.0000 17.4102 0.0000 0.0000
# 5 0.0000 0.0000 0.0000 0.0000 15.9233 0.0000
# 6 0.0000 0.0000 0.0000 0.0000 0.0000 25.6834
#
#
#
# Elastic Compliance Matrix: (Units=1/GPa)
#
#
# Indices 1 2 3 4 5 6 
#
# 1 0.020164 -0.004296 -0.005349 0.000000 0.000000 0.000000
# 2 -0.004296 0.014964 -0.003829 0.000000 0.000000 0.000000
# 3 -0.005349 -0.003829 0.010194 0.000000 0.000000 0.000000
# 4 0.000000 0.000000 0.000000 0.057438 0.000000 0.000000
# 5 0.000000 0.000000 0.000000 0.000000 0.062801 0.000000
# 6 0.000000 0.000000 0.000000 0.000000 0.000000 0.038936
#
#
# Mechanical properties :
#
#
# Convention : Reuss Voigt Hill
#
# Bulk Modulus (GPa) = 54.43189 62.60819 58.52004
# Shear Modulus (GPa) = 21.04651 23.10960 22.07806
#
# Velocity S-wave (km/s) = 3.24250 3.39771 3.32101
# Velocity P-wave (km/s) = 6.41949 6.83143 6.62866
#
# Compressibility (1/GPa) = 0.01837158
#
# Stress axis : x y z
#
# Youngs Moduli (GPa) = 49.59361 66.82919 98.09905
#
# Poissons Ratio (x) = 0.28712 0.52475
# Poissons Ratio (y) = 0.21307 0.37566
# Poissons Ratio (z) = 0.26528 0.25591
#
# Static dielectric constant tensor:
#      x y z
#    x 3.443500 0.000000 0.000000 
#    y 0.000000 3.500850 0.000000 
#    z 0.000000 0.000000 3.829400 
# 
# 
# High freq. dielectric constant tensor:
#      x y z
#    x 1.749860 0.000000 0.000000 
#    y 0.000000 1.771240 0.000000 
#    z 0.000000 0.000000 1.793600 
# 
# From -- ./inp_files/76661.got.cif
#   From: 2010.03.12/outbox.cif.g09.slc.cpg/sg65_39_cif.got.tgz:76661.got - 2010.04.10 20:52:16.
