data_PCOD8272049
_publ_section_title
;
Structure prediction by ZEFSAII (Michael W. Deem and Ramdas Pophale) SiO2 
 PCOD8272049
Probable space group: C M M M
;
_chemical_formula_sum "Si O2"
_cell_formula_units_Z 88
_cell_length_a 9.012406
_cell_length_b 28.529848
_cell_length_c 17.584247
_cell_angle_alpha 90.000000
_cell_angle_beta 90.000000
_cell_angle_gamma 90.000000
_cell_volume 4521.306838
_symmetry_space_group_name_H-M "C M M M"
_symmetry_group_IT_number 65
_symmetry_cell_setting 'orthorhombic'
loop_
_space_group_symop_operation_xyz
x,y,z
-x,-y,z
x,-y,-z
-x,y,-z
-x,-y,-z
x,y,-z
-x,y,z
x,-y,z
1/2+x,1/2+y,z
1/2-x,1/2-y,z
1/2+x,1/2-y,-z
1/2-x,1/2+y,-z
1/2-x,1/2-y,-z
1/2+x,1/2+y,-z
1/2-x,1/2+y,z
1/2+x,1/2-y,z
loop_
_atom_site_type_symbol
_atom_site_label
_atom_site_fract_x
_atom_site_fract_y
_atom_site_fract_z
Si Si1 0.825750 0.201618 0.411845
Si Si2 0.824014 0.552362 0.500000
Si Si3 0.333878 0.204843 0.909404
Si Si4 0.671518 0.553772 0.772528
Si Si5 0.675966 0.111019 0.644242
Si Si6 0.670733 0.387349 0.914824
O O1 0.790956 0.190790 0.500000
O O2 0.750000 0.250000 0.386955
O O3 0.754787 0.161196 0.360316
O O4 0.000000 0.204937 0.396100
O O5 0.755966 0.500000 0.500000
O O6 0.766970 0.579269 0.425620
O O7 0.000000 0.549738 0.500000
O O8 0.500000 0.205718 0.877403
O O9 0.250000 0.250000 0.875338
O O10 0.257775 0.157195 0.881095
O O11 0.330116 0.206583 0.000000
O O12 0.500000 0.561026 0.749157
O O13 0.719956 0.500000 0.763875
O O14 0.776584 0.585500 0.721092
O O15 0.697417 0.568385 0.860213
O O16 0.500000 0.118170 0.642537
O O17 0.500000 0.372294 0.916806
O O18 0.725205 0.400917 0.000000
#
# Coordination Sequence:
#
# PCOD8272049 Si02
#       6
#    16   8  16  16  16  16
#     4  10  20  35  58  87 120 154 191 231 277 330
#     4   9  18  32  52  79 108 141 184 229 268 317
#     4   9  16  27  47  76 108 139 172 214 266 325
#     4  10  22  39  57  80 112 147 186 237 293 344
#     4  11  21  36  58  83 115 151 190 232 279 334
#     4   9  18  34  56  80 107 143 187 233 283 342
#
# _framework density 19.4634
#
# number of rings (size 3 to 8) (size 9 to 14) (size 15 to 20)
#    0.000    2.273    0.909    2.182    0.000    5.091 
#    0.000    2.727    0.000    6.545    0.000    3.818 
#    0.000    0.000    0.000    0.000    0.000    0.000 
#
# Total GULP energy -545699.093761 kJ/mol
# GULP energy per Si atom -12402.252131 kJ/mol
# Density = 1.941910 g / cm^3
# Si number density = 19.463400 Si / 1000 Ang^3
#
#
#
# Elastic Constant Matrix: (Units=GPa)
#
#
# Indices 1 2 3 4 5 6 
#
# 1 93.6981 60.0809 31.9639 0.0000 0.0000 0.0000
# 2 60.0809 154.4420 50.0360 0.0000 0.0000 0.0000
# 3 31.9639 50.0360 77.1148 0.0000 0.0000 0.0000
# 4 0.0000 0.0000 0.0000 31.7621 0.0000 0.0000
# 5 0.0000 0.0000 0.0000 0.0000 22.6383 0.0000
# 6 0.0000 0.0000 0.0000 0.0000 0.0000 31.0155
#
#
#
# Elastic Compliance Matrix: (Units=1/GPa)
#
#
# Indices 1 2 3 4 5 6 
#
# 1 0.014758 -0.004760 -0.003029 0.000000 0.000000 0.000000
# 2 -0.004760 0.009734 -0.004343 0.000000 0.000000 0.000000
# 3 -0.003029 -0.004343 0.017041 0.000000 0.000000 0.000000
# 4 0.000000 0.000000 0.000000 0.031484 0.000000 0.000000
# 5 0.000000 0.000000 0.000000 0.000000 0.044173 0.000000
# 6 0.000000 0.000000 0.000000 0.000000 0.000000 0.032242
#
#
# Mechanical properties :
#
#
# Convention : Reuss Voigt Hill
#
# Bulk Modulus (GPa) = 57.90447 67.71294 62.80870
# Shear Modulus (GPa) = 27.86290 29.29479 28.57884
#
# Velocity S-wave (km/s) = 3.78769 3.88380 3.83605
# Velocity P-wave (km/s) = 6.99599 7.41467 7.20837
#
# Compressibility (1/GPa) = 0.01726983
#
# Stress axis : x y z
#
# Youngs Moduli (GPa) = 67.76045 102.73756 58.68282
#
# Poissons Ratio (x) = 0.48902 0.17773
# Poissons Ratio (y) = 0.32253 0.25484
# Poissons Ratio (z) = 0.20522 0.44615
#
# Static dielectric constant tensor:
#      x y z
#    x 3.482970 0.000000 0.000000 
#    y 0.000000 3.633300 0.000000 
#    z 0.000000 0.000000 3.334760 
# 
# 
# High freq. dielectric constant tensor:
#      x y z
#    x 1.752880 0.000000 0.000000 
#    y 0.000000 1.766320 0.000000 
#    z 0.000000 0.000000 1.734890 
# 
# From -- ./inp_files/50458.got.cif
#   From: 2010.03.12/outbox.cif.g09.slc.cpg/sg65_26_cif.got.tgz:50458.got - 2010.04.10 20:52:16.
