data_PCOD8272265
_publ_section_title
;
Structure prediction by ZEFSAII (Michael W. Deem and Ramdas Pophale) SiO2 
 PCOD8272265
Probable space group: C M M M
;
_chemical_formula_sum "Si O2"
_cell_formula_units_Z 72
_cell_length_a 32.293260
_cell_length_b 12.915137
_cell_length_c 8.787155
_cell_angle_alpha 90.000000
_cell_angle_beta 90.000000
_cell_angle_gamma 90.000000
_cell_volume 3664.875230
_symmetry_space_group_name_H-M "C M M M"
_symmetry_group_IT_number 65
_symmetry_cell_setting 'orthorhombic'
loop_
_space_group_symop_operation_xyz
x,y,z
-x,-y,z
x,-y,-z
-x,y,-z
-x,-y,-z
x,y,-z
-x,y,z
x,-y,z
1/2+x,1/2+y,z
1/2-x,1/2-y,z
1/2+x,1/2-y,-z
1/2-x,1/2+y,-z
1/2-x,1/2-y,-z
1/2+x,1/2+y,-z
1/2-x,1/2+y,z
1/2+x,1/2-y,z
loop_
_atom_site_type_symbol
_atom_site_label
_atom_site_fract_x
_atom_site_fract_y
_atom_site_fract_z
Si Si1 0.610353 0.382513 0.824851
Si Si2 0.046748 0.291016 0.179331
Si Si3 0.450811 0.000000 0.327751
Si Si4 0.776396 0.383657 0.822726
Si Si5 0.193024 0.812472 0.678859
O O1 0.594485 0.500000 0.805158
O O2 0.573905 0.306890 0.768348
O O3 0.650100 0.365886 0.720272
O O4 0.622149 0.359390 0.000000
O O5 0.066342 0.396066 0.248336
O O6 0.000000 0.272449 0.239499
O O7 0.046947 0.304039 0.000000
O O8 0.500000 0.000000 0.312872
O O9 0.435261 0.000000 0.500000
O O10 0.792098 0.500000 0.793998
O O11 0.807085 0.307321 0.732250
O O12 0.729601 0.372884 0.763662
O O13 0.777288 0.355069 0.000000
O O14 0.200656 0.819234 0.500000
#
# Coordination Sequence:
#
# PCOD8272265 Si02
#       5
#    16  16   8  16  16
#     4  10  21  37  56  79 110 147 186 228 275 329
#     4   9  18  34  57  83 109 141 183 229 276 325
#     4   9  17  31  53  79 107 139 175 217 269 329
#     4  10  20  36  59  82 106 140 181 225 273 325
#     4  11  22  35  54  80 111 145 181 223 270 324
#
# _framework density 19.645962000000001
#
# number of rings (size 3 to 8) (size 9 to 14) (size 15 to 20)
#    0.000    2.111    0.000    5.000    0.000    7.556 
#    2.000    2.222    0.000    0.000    0.000    4.667 
#    0.000    0.000    0.000    0.000    0.000    0.000 
#
# Total GULP energy -446459.946451 kJ/mol
# GULP energy per Si atom -12401.665179 kJ/mol
# Density = 1.960125 g / cm^3
# Si number density = 19.645962 Si / 1000 Ang^3
#
#
#
# Elastic Constant Matrix: (Units=GPa)
#
#
# Indices 1 2 3 4 5 6 
#
# 1 58.7973 37.4118 12.5328 0.0000 0.0000 0.0000
# 2 37.4118 140.3312 21.3025 0.0000 0.0000 0.0000
# 3 12.5328 21.3025 49.6887 0.0000 0.0000 0.0000
# 4 0.0000 0.0000 0.0000 9.7769 0.0000 0.0000
# 5 0.0000 0.0000 0.0000 0.0000 17.8236 0.0000
# 6 0.0000 0.0000 0.0000 0.0000 0.0000 26.3749
#
#
#
# Elastic Compliance Matrix: (Units=1/GPa)
#
#
# Indices 1 2 3 4 5 6 
#
# 1 0.020915 -0.005107 -0.003086 0.000000 0.000000 0.000000
# 2 -0.005107 0.008869 -0.002514 0.000000 0.000000 0.000000
# 3 -0.003086 -0.002514 0.021981 0.000000 0.000000 0.000000
# 4 0.000000 0.000000 0.000000 0.102282 0.000000 0.000000
# 5 0.000000 0.000000 0.000000 0.000000 0.056105 0.000000
# 6 0.000000 0.000000 0.000000 0.000000 0.000000 0.037915
#
#
# Mechanical properties :
#
#
# Convention : Reuss Voigt Hill
#
# Bulk Modulus (GPa) = 32.94765 43.47906 38.21336
# Shear Modulus (GPa) = 17.88267 22.63307 20.25787
#
# Velocity S-wave (km/s) = 3.02030 3.39786 3.21463
# Velocity P-wave (km/s) = 5.38239 6.12971 5.76816
#
# Compressibility (1/GPa) = 0.03035117
#
# Stress axis : x y z
#
# Youngs Moduli (GPa) = 47.81225 112.74846 45.49287
#
# Poissons Ratio (x) = 0.57586 0.14038
# Poissons Ratio (y) = 0.24420 0.11438
# Poissons Ratio (z) = 0.14753 0.28347
#
# Static dielectric constant tensor:
#      x y z
#    x 3.369540 0.000000 0.000000 
#    y 0.000000 3.824190 0.000000 
#    z 0.000000 0.000000 3.525580 
# 
# 
# High freq. dielectric constant tensor:
#      x y z
#    x 1.737960 0.000000 0.000000 
#    y 0.000000 1.781200 0.000000 
#    z 0.000000 0.000000 1.763040 
# 
# From -- ./inp_files/17996.got.cif
#   From: 2010.03.12/outbox.cif.g09.slc.cpg/sg65_9_cif.got.tgz:17996.got - 2010.04.10 20:52:16.
