data_PCOD8272633
_publ_section_title
;
Structure prediction by ZEFSAII (Michael W. Deem and Ramdas Pophale) SiO2 
 PCOD8272633
Probable space group: C M M M
;
_chemical_formula_sum "Si O2"
_cell_formula_units_Z 112
_cell_length_a 17.791937
_cell_length_b 14.977905
_cell_length_c 23.081316
_cell_angle_alpha 90.000000
_cell_angle_beta 90.000000
_cell_angle_gamma 90.000000
_cell_volume 6150.846240
_symmetry_space_group_name_H-M "C M M M"
_symmetry_group_IT_number 65
_symmetry_cell_setting 'orthorhombic'
loop_
_space_group_symop_operation_xyz
x,y,z
-x,-y,z
x,-y,-z
-x,y,-z
-x,-y,-z
x,y,-z
-x,y,z
x,-y,z
1/2+x,1/2+y,z
1/2-x,1/2-y,z
1/2+x,1/2-y,-z
1/2-x,1/2+y,-z
1/2-x,1/2-y,-z
1/2+x,1/2+y,-z
1/2-x,1/2+y,z
1/2+x,1/2-y,z
loop_
_atom_site_type_symbol
_atom_site_label
_atom_site_fract_x
_atom_site_fract_y
_atom_site_fract_z
Si Si1 0.800368 0.168985 0.758180
Si Si2 0.700286 0.899172 0.140339
Si Si3 0.693779 0.899555 0.566927
Si Si4 0.911690 0.759624 0.849528
Si Si5 0.085302 0.756176 0.435052
Si Si6 0.342541 0.602791 0.067496
Si Si7 0.159508 0.100913 0.636768
O O1 0.750000 0.250000 0.733959
O O2 0.747465 0.111596 0.800488
O O3 0.874869 0.203172 0.790815
O O4 0.829518 0.109839 0.705354
O O5 0.629672 0.833157 0.134491
O O6 0.757256 0.877686 0.087810
O O7 0.669189 0.000000 0.137039
O O8 0.716256 0.890482 0.500000
O O9 0.628594 0.832247 0.584957
O O10 0.764761 0.871530 0.604445
O O11 0.666969 0.000000 0.581586
O O12 0.900883 0.832143 0.900349
O O13 0.000000 0.741654 0.840076
O O14 0.109724 0.786855 0.500000
O O15 0.095545 0.835167 0.388756
O O16 0.000000 0.726400 0.434506
O O17 0.364099 0.500000 0.081590
O O18 0.348013 0.623339 0.000000
O O19 0.135634 0.000000 0.622705
#
# Coordination Sequence:
#
# PCOD8272633 Si02
#       7
#    16  16  16  16  16  16  16
#     4   9  18  34  54  73  96 129 169 211 251 292
#     4   9  18  34  55  77 102 133 169 207 247 296
#     4   9  18  33  54  78  99 122 160 210 256 294
#     4  10  21  34  50  77 109 136 164 204 253 301
#     4  10  21  35  50  71 102 136 165 197 242 299
#     4   9  18  34  56  78 100 133 177 217 250 287
#     4  11  21  33  53  77  99 128 167 208 249 294
#
# _framework density 18.208876
#
# number of rings (size 3 to 8) (size 9 to 14) (size 15 to 20)
#    0.000    2.429    0.000    3.429    0.000    5.714 
#    0.000    2.857    0.000    0.000    0.000    7.000 
#    0.000    0.000    0.000    0.000    0.000    0.000 
#
# Total GULP energy -694407.462368 kJ/mol
# GULP energy per Si atom -12400.133257 kJ/mol
# Density = 1.816743 g / cm^3
# Si number density = 18.208876 Si / 1000 Ang^3
#
#
#
# Elastic Constant Matrix: (Units=GPa)
#
#
# Indices 1 2 3 4 5 6 
#
# 1 92.1154 44.8328 19.1081 0.0000 0.0000 0.0000
# 2 44.8328 93.5353 26.6550 0.0000 0.0000 0.0000
# 3 19.1081 26.6550 67.5700 0.0000 0.0000 0.0000
# 4 0.0000 0.0000 0.0000 27.9875 0.0000 0.0000
# 5 0.0000 0.0000 0.0000 0.0000 4.5560 0.0000
# 6 0.0000 0.0000 0.0000 0.0000 0.0000 14.3745
#
#
#
# Elastic Compliance Matrix: (Units=1/GPa)
#
#
# Indices 1 2 3 4 5 6 
#
# 1 0.014294 -0.006421 -0.001509 0.000000 0.000000 0.000000
# 2 -0.006421 0.014930 -0.004074 0.000000 0.000000 0.000000
# 3 -0.001509 -0.004074 0.016833 0.000000 0.000000 0.000000
# 4 0.000000 0.000000 0.000000 0.035730 0.000000 0.000000
# 5 0.000000 0.000000 0.000000 0.000000 0.219493 0.000000
# 6 0.000000 0.000000 0.000000 0.000000 0.000000 0.069568
#
#
# Mechanical properties :
#
#
# Convention : Reuss Voigt Hill
#
# Bulk Modulus (GPa) = 45.35349 48.26804 46.81076
# Shear Modulus (GPa) = 12.43142 20.22523 16.32833
#
# Velocity S-wave (km/s) = 2.61571 3.33638 2.99778
# Velocity P-wave (km/s) = 5.83815 6.43486 6.14376
#
# Compressibility (1/GPa) = 0.02204902
#
# Stress axis : x y z
#
# Youngs Moduli (GPa) = 69.95787 66.97969 59.40634
#
# Poissons Ratio (x) = 0.43010 0.08965
# Poissons Ratio (y) = 0.44923 0.24200
# Poissons Ratio (z) = 0.10558 0.27285
#
# Static dielectric constant tensor:
#      x y z
#    x 3.113260 0.000000 0.000000 
#    y 0.000000 3.472670 0.000000 
#    z 0.000000 0.000000 3.329770 
# 
# 
# High freq. dielectric constant tensor:
#      x y z
#    x 1.684300 0.000000 0.000000 
#    y 0.000000 1.716040 0.000000 
#    z 0.000000 0.000000 1.702960 
# 
# From -- ./inp_files/69944.got.cif
#   From: 2010.03.12/outbox.cif.g09.slc.cpg/sg65_35_cif.got.tgz:69944.got - 2010.04.10 20:52:16.
