data_PCOD8272964
_publ_section_title
;
Structure prediction by ZEFSAII (Michael W. Deem and Ramdas Pophale) SiO2 
 PCOD8272964
Probable space group: C M M M
;
_chemical_formula_sum "Si O2"
_cell_formula_units_Z 80
_cell_length_a 9.026729
_cell_length_b 19.068321
_cell_length_c 25.071807
_cell_angle_alpha 90.000000
_cell_angle_beta 90.000000
_cell_angle_gamma 90.000000
_cell_volume 4315.473903
_symmetry_space_group_name_H-M "C M M M"
_symmetry_group_IT_number 65
_symmetry_cell_setting 'orthorhombic'
loop_
_space_group_symop_operation_xyz
x,y,z
-x,-y,z
x,-y,-z
-x,y,-z
-x,-y,-z
x,y,-z
-x,y,z
x,-y,z
1/2+x,1/2+y,z
1/2-x,1/2-y,z
1/2+x,1/2-y,-z
1/2-x,1/2+y,-z
1/2-x,1/2-y,-z
1/2+x,1/2+y,-z
1/2-x,1/2+y,z
1/2+x,1/2-y,z
loop_
_atom_site_type_symbol
_atom_site_label
_atom_site_fract_x
_atom_site_fract_y
_atom_site_fract_z
Si Si1 0.832816 0.417310 0.859493
Si Si2 0.675681 0.174727 0.645621
Si Si3 0.326557 0.320779 0.939240
Si Si4 0.669969 0.419702 0.437892
Si Si5 0.175841 0.577830 0.740824
O O1 0.827640 0.500000 0.866933
O O2 0.724048 0.384560 0.902637
O O3 0.776314 0.397297 0.800014
O O4 0.000000 0.389609 0.868601
O O5 0.500000 0.183700 0.646267
O O6 0.750000 0.250000 0.644997
O O7 0.721295 0.131608 0.593447
O O8 0.735492 0.133028 0.697554
O O9 0.500000 0.310528 0.933847
O O10 0.250000 0.250000 0.918737
O O11 0.279411 0.337406 0.000000
O O12 0.695352 0.405165 0.500000
O O13 0.500000 0.404089 0.422302
O O14 0.710308 0.500000 0.424058
O O15 0.240706 0.500000 0.728455
O O16 0.000000 0.573236 0.738598
#
# Coordination Sequence:
#
# PCOD8272964 Si02
#       5
#    16  16  16  16  16
#     4   9  18  34  56  80 106 136 170 210 258 311
#     4  11  22  35  53  78 109 142 176 215 258 306
#     4  10  21  36  53  74 103 138 175 216 260 307
#     4   9  19  37  59  81 106 136 171 214 263 312
#     4   8  16  33  55  77 102 134 172 214 259 306
#
# _framework density 18.537941
#
# number of rings (size 3 to 8) (size 9 to 14) (size 15 to 20)
#    0.000    2.600    0.000    3.600    0.000    4.800 
#    0.000    7.000    0.000    2.400    0.000    0.000 
#    0.000    0.000    0.000    0.000    0.000    0.000 
#
# Total GULP energy -496006.555945 kJ/mol
# GULP energy per Si atom -12400.163899 kJ/mol
# Density = 1.849575 g / cm^3
# Si number density = 18.537941 Si / 1000 Ang^3
#
#
#
# Elastic Constant Matrix: (Units=GPa)
#
#
# Indices 1 2 3 4 5 6 
#
# 1 64.2078 43.3686 42.8206 0.0000 0.0000 0.0000
# 2 43.3686 104.9938 69.8245 0.0000 0.0000 0.0000
# 3 42.8206 69.8245 109.4691 0.0000 0.0000 0.0000
# 4 0.0000 0.0000 0.0000 18.3985 0.0000 0.0000
# 5 0.0000 0.0000 0.0000 0.0000 22.5760 0.0000
# 6 0.0000 0.0000 0.0000 0.0000 0.0000 21.8801
#
#
#
# Elastic Compliance Matrix: (Units=1/GPa)
#
#
# Indices 1 2 3 4 5 6 
#
# 1 0.023151 -0.006148 -0.005134 0.000000 0.000000 0.000000
# 2 -0.006148 0.018174 -0.009187 0.000000 0.000000 0.000000
# 3 -0.005134 -0.009187 0.017003 0.000000 0.000000 0.000000
# 4 0.000000 0.000000 0.000000 0.054352 0.000000 0.000000
# 5 0.000000 0.000000 0.000000 0.000000 0.044295 0.000000
# 6 0.000000 0.000000 0.000000 0.000000 0.000000 0.045704
#
#
# Mechanical properties :
#
#
# Convention : Reuss Voigt Hill
#
# Bulk Modulus (GPa) = 57.50774 65.63313 61.57043
# Shear Modulus (GPa) = 20.04695 20.74807 20.39751
#
# Velocity S-wave (km/s) = 3.29203 3.34911 3.32069
# Velocity P-wave (km/s) = 6.74826 7.10190 6.92733
#
# Compressibility (1/GPa) = 0.01738896
#
# Stress axis : x y z
#
# Youngs Moduli (GPa) = 43.19395 55.02473 58.81231
#
# Poissons Ratio (x) = 0.33831 0.30196
# Poissons Ratio (y) = 0.26557 0.54031
# Poissons Ratio (z) = 0.22177 0.50551
#
# Static dielectric constant tensor:
#      x y z
#    x 3.223090 0.000000 0.000000 
#    y 0.000000 3.398480 0.000000 
#    z 0.000000 0.000000 3.576560 
# 
# 
# High freq. dielectric constant tensor:
#      x y z
#    x 1.701950 0.000000 0.000000 
#    y 0.000000 1.718150 0.000000 
#    z 0.000000 0.000000 1.727850 
# 
# From -- ./inp_files/72723.got.cif
#   From: 2010.03.12/outbox.cif.g09.slc.cpg/sg65_37_cif.got.tgz:72723.got - 2010.04.10 20:52:16.
