data_PCOD8272899
_publ_section_title
;
Structure prediction by ZEFSAII (Michael W. Deem and Ramdas Pophale) SiO2 
 PCOD8272899
Probable space group: C M M M
;
_chemical_formula_sum "Si O2"
_cell_formula_units_Z 96
_cell_length_a 8.976851
_cell_length_b 18.385634
_cell_length_c 31.395688
_cell_angle_alpha 90.000000
_cell_angle_beta 90.000000
_cell_angle_gamma 90.000000
_cell_volume 5181.704370
_symmetry_space_group_name_H-M "C M M M"
_symmetry_group_IT_number 65
_symmetry_cell_setting 'orthorhombic'
loop_
_space_group_symop_operation_xyz
x,y,z
-x,-y,z
x,-y,-z
-x,y,-z
-x,-y,-z
x,y,-z
-x,y,z
x,-y,z
1/2+x,1/2+y,z
1/2-x,1/2-y,z
1/2+x,1/2-y,-z
1/2-x,1/2+y,-z
1/2-x,1/2-y,-z
1/2+x,1/2+y,-z
1/2-x,1/2+y,z
1/2+x,1/2-y,z
loop_
_atom_site_type_symbol
_atom_site_label
_atom_site_fract_x
_atom_site_fract_y
_atom_site_fract_z
Si Si1 0.325307 0.672432 0.136933
Si Si2 0.824839 0.674615 0.547830
Si Si3 0.176855 0.419029 0.374172
Si Si4 0.173784 0.915221 0.781292
Si Si5 0.823237 0.671599 0.293304
Si Si6 0.825591 0.827202 0.044931
O O1 0.500000 0.686804 0.139336
O O2 0.250000 0.750000 0.145169
O O3 0.276350 0.615299 0.172765
O O4 0.280152 0.636869 0.090476
O O5 0.779386 0.650432 0.500000
O O6 0.750000 0.750000 0.560663
O O7 0.768439 0.613509 0.580709
O O8 0.000000 0.686352 0.551674
O O9 0.244756 0.500000 0.369355
O O10 0.234604 0.368413 0.335935
O O11 0.000000 0.423198 0.372899
O O12 0.273934 0.876321 0.746408
O O13 0.000000 0.900026 0.772182
O O14 0.210616 0.000000 0.780489
O O15 0.750000 0.750000 0.290692
O O16 0.000000 0.680482 0.292894
O O17 0.750000 0.750000 0.043641
O O18 0.000000 0.813925 0.045342
O O19 0.782512 0.869298 0.000000
#
# Coordination Sequence:
#
# PCOD8272899 Si02
#       6
#    16  16  16  16  16  16
#     4   9  17  29  46  68  93 122 156 195 239 284
#     4   9  17  30  50  74  99 129 164 201 240 283
#     4   9  18  32  50  74 102 129 160 200 243 286
#     4  10  21  36  52  71  98 130 163 201 245 292
#     4  11  22  36  55  76  99 128 163 203 246 292
#     4   8  13  22  38  61  88 116 148 188 232 277
#
# _framework density 18.526724000000002
#
# number of rings (size 3 to 8) (size 9 to 14) (size 15 to 20)
#    0.000    2.667    0.000    2.000    0.000    3.333 
#    0.000    2.500    0.000    3.000    0.000    5.833 
#    0.000    0.000    0.000   28.500    0.000   14.333 
#
# Total GULP energy -594729.140005 kJ/mol
# GULP energy per Si atom -12390.190417 kJ/mol
# Density = 1.848456 g / cm^3
# Si number density = 18.526724 Si / 1000 Ang^3
#
#
#
# Elastic Constant Matrix: (Units=GPa)
#
#
# Indices 1 2 3 4 5 6 
#
# 1 28.6488 28.8492 32.4305 0.0000 0.0000 0.0000
# 2 28.8492 119.1976 78.9289 0.0000 0.0000 0.0000
# 3 32.4305 78.9289 173.6626 0.0000 0.0000 0.0000
# 4 0.0000 0.0000 0.0000 11.8447 0.0000 0.0000
# 5 0.0000 0.0000 0.0000 0.0000 22.2214 0.0000
# 6 0.0000 0.0000 0.0000 0.0000 0.0000 16.7653
#
#
#
# Elastic Compliance Matrix: (Units=1/GPa)
#
#
# Indices 1 2 3 4 5 6 
#
# 1 0.049497 -0.008381 -0.005434 0.000000 0.000000 0.000000
# 2 -0.008381 0.013421 -0.004534 0.000000 0.000000 0.000000
# 3 -0.005434 -0.004534 0.008834 0.000000 0.000000 0.000000
# 4 0.000000 0.000000 0.000000 0.084426 0.000000 0.000000
# 5 0.000000 0.000000 0.000000 0.000000 0.045002 0.000000
# 6 0.000000 0.000000 0.000000 0.000000 0.000000 0.059647
#
#
# Mechanical properties :
#
#
# Convention : Reuss Voigt Hill
#
# Bulk Modulus (GPa) = 28.52930 66.88069 47.70500
# Shear Modulus (GPa) = 16.17029 22.25297 19.21163
#
# Velocity S-wave (km/s) = 2.95754 3.46949 3.22369
# Velocity P-wave (km/s) = 5.20530 7.22688 6.29773
#
# Compressibility (1/GPa) = 0.03505168
#
# Stress axis : x y z
#
# Youngs Moduli (GPa) = 20.20334 74.51284 113.20032
#
# Poissons Ratio (x) = 0.62453 0.61512
# Poissons Ratio (y) = 0.16933 0.51329
# Poissons Ratio (z) = 0.10978 0.33787
#
# Static dielectric constant tensor:
#      x y z
#    x 3.182420 0.000000 0.000000 
#    y 0.000000 3.325630 0.000000 
#    z 0.000000 0.000000 4.169200 
# 
# 
# High freq. dielectric constant tensor:
#      x y z
#    x 1.696920 0.000000 0.000000 
#    y 0.000000 1.693020 0.000000 
#    z 0.000000 0.000000 1.750200 
# 
# From -- ./inp_files/73115.got.cif
#   From: 2010.03.12/outbox.cif.g09.slc.cpg/sg65_37_cif.got.tgz:73115.got - 2010.04.10 20:52:16.
