data_PCOD8272320
_publ_section_title
;
Structure prediction by ZEFSAII (Michael W. Deem and Ramdas Pophale) SiO2 
 PCOD8272320
Probable space group: C M M M
;
_chemical_formula_sum "Si O2"
_cell_formula_units_Z 72
_cell_length_a 18.518224
_cell_length_b 7.952003
_cell_length_c 24.143053
_cell_angle_alpha 90.000000
_cell_angle_beta 90.000000
_cell_angle_gamma 90.000000
_cell_volume 3555.232899
_symmetry_space_group_name_H-M "C M M M"
_symmetry_group_IT_number 65
_symmetry_cell_setting 'orthorhombic'
loop_
_space_group_symop_operation_xyz
x,y,z
-x,-y,z
x,-y,-z
-x,y,-z
-x,-y,-z
x,y,-z
-x,y,z
x,-y,z
1/2+x,1/2+y,z
1/2-x,1/2-y,z
1/2+x,1/2-y,-z
1/2-x,1/2+y,-z
1/2-x,1/2-y,-z
1/2+x,1/2+y,-z
1/2-x,1/2+y,z
1/2+x,1/2-y,z
loop_
_atom_site_type_symbol
_atom_site_label
_atom_site_fract_x
_atom_site_fract_y
_atom_site_fract_z
Si Si1 0.414316 0.500000 0.061831
Si Si2 0.418142 0.193005 0.337422
Si Si3 0.083537 0.688447 0.135079
Si Si4 0.668901 0.309664 0.236433
Si Si5 0.170861 0.197702 0.437132
O O1 0.500000 0.500000 0.058696
O O2 0.387543 0.670371 0.092303
O O3 0.381240 0.500000 0.000000
O O4 0.500000 0.259582 0.335826
O O5 0.370560 0.301299 0.295352
O O6 0.388548 0.212565 0.399490
O O7 0.414061 0.000000 0.319099
O O8 0.093192 0.500000 0.109791
O O9 0.128328 0.695565 0.191618
O O10 0.000000 0.723413 0.149576
O O11 0.667285 0.500000 0.214870
O O12 0.750000 0.250000 0.244482
O O13 0.159201 0.260808 0.500000
O O14 0.250000 0.250000 0.416034
O O15 0.161149 0.000000 0.432305
#
# Coordination Sequence:
#
# PCOD8272320 Si02
#       5
#     8  16  16  16  16
#     4   9  18  34  58  90 124 160 202 244 292 347
#     4  11  24  40  58  83 116 151 191 240 294 353
#     4  10  20  36  59  89 123 158 199 247 296 350
#     4  12  24  39  60  86 116 154 195 243 296 356
#     4  10  21  38  60  84 112 149 192 239 290 348
#
# _framework density 20.251839
#
# number of rings (size 3 to 8) (size 9 to 14) (size 15 to 20)
#    0.000    1.444    1.111    4.667    0.000    6.667 
#    0.000    4.444    0.000    0.667    0.000    0.000 
#    0.000    0.000    0.000    0.000    0.000    0.000 
#
# Total GULP energy -446558.511387 kJ/mol
# GULP energy per Si atom -12404.403094 kJ/mol
# Density = 2.020574 g / cm^3
# Si number density = 20.251839 Si / 1000 Ang^3
#
#
#
# Elastic Constant Matrix: (Units=GPa)
#
#
# Indices 1 2 3 4 5 6 
#
# 1 119.9584 33.9114 56.3268 0.0000 0.0000 0.0000
# 2 33.9114 112.1789 35.9645 0.0000 0.0000 0.0000
# 3 56.3268 35.9645 118.5926 0.0000 0.0000 0.0000
# 4 0.0000 0.0000 0.0000 27.9791 0.0000 0.0000
# 5 0.0000 0.0000 0.0000 0.0000 17.7805 0.0000
# 6 0.0000 0.0000 0.0000 0.0000 0.0000 23.0021
#
#
#
# Elastic Compliance Matrix: (Units=1/GPa)
#
#
# Indices 1 2 3 4 5 6 
#
# 1 0.011061 -0.001838 -0.004696 0.000000 0.000000 0.000000
# 2 -0.001838 0.010180 -0.002214 0.000000 0.000000 0.000000
# 3 -0.004696 -0.002214 0.011334 0.000000 0.000000 0.000000
# 4 0.000000 0.000000 0.000000 0.035741 0.000000 0.000000
# 5 0.000000 0.000000 0.000000 0.000000 0.056242 0.000000
# 6 0.000000 0.000000 0.000000 0.000000 0.000000 0.043474
#
#
# Mechanical properties :
#
#
# Convention : Reuss Voigt Hill
#
# Bulk Modulus (GPa) = 66.32062 67.01505 66.66783
# Shear Modulus (GPa) = 26.23923 28.72080 27.48001
#
# Velocity S-wave (km/s) = 3.60341 3.76996 3.68763
# Velocity P-wave (km/s) = 7.08038 7.21892 7.14999
#
# Compressibility (1/GPa) = 0.01507827
#
# Stress axis : x y z
#
# Youngs Moduli (GPa) = 90.40862 98.23335 88.22919
#
# Poissons Ratio (x) = 0.18057 0.41433
# Poissons Ratio (y) = 0.16618 0.19535
# Poissons Ratio (z) = 0.42456 0.21750
#
# Static dielectric constant tensor:
#      x y z
#    x 3.532330 0.000000 0.000000 
#    y 0.000000 3.783890 0.000000 
#    z 0.000000 0.000000 3.648330 
# 
# 
# High freq. dielectric constant tensor:
#      x y z
#    x 1.776460 0.000000 0.000000 
#    y 0.000000 1.806200 0.000000 
#    z 0.000000 0.000000 1.784370 
# 
# From -- ./inp_files/70319.got.cif
#   From: 2010.03.12/outbox.cif.g09.slc.cpg/sg65_36_cif.got.tgz:70319.got - 2010.04.10 20:52:16.
