data_PCOD8272427
_publ_section_title
;
Structure prediction by ZEFSAII (Michael W. Deem and Ramdas Pophale) SiO2 
 PCOD8272427
Probable space group: C M M M
;
_chemical_formula_sum "Si O2"
_cell_formula_units_Z 80
_cell_length_a 19.920759
_cell_length_b 18.599740
_cell_length_c 11.292413
_cell_angle_alpha 90.000000
_cell_angle_beta 90.000000
_cell_angle_gamma 90.000000
_cell_volume 4184.075457
_symmetry_space_group_name_H-M "C M M M"
_symmetry_group_IT_number 65
_symmetry_cell_setting 'orthorhombic'
loop_
_space_group_symop_operation_xyz
x,y,z
-x,-y,z
x,-y,-z
-x,y,-z
-x,-y,-z
x,y,-z
-x,y,z
x,-y,z
1/2+x,1/2+y,z
1/2-x,1/2-y,z
1/2+x,1/2-y,-z
1/2-x,1/2+y,-z
1/2-x,1/2-y,-z
1/2+x,1/2+y,-z
1/2-x,1/2+y,z
1/2+x,1/2-y,z
loop_
_atom_site_type_symbol
_atom_site_label
_atom_site_fract_x
_atom_site_fract_y
_atom_site_fract_z
Si Si1 0.424205 0.812113 0.254527
Si Si2 0.823714 0.417469 0.632416
Si Si3 0.921811 0.159845 0.361702
Si Si4 0.073944 0.254311 0.000000
Si Si5 0.807275 0.082727 0.774082
Si Si6 0.206439 0.176340 0.000000
O O1 0.500000 0.832970 0.290086
O O2 0.375197 0.876120 0.285335
O O3 0.402468 0.740598 0.324621
O O4 0.416647 0.803723 0.114203
O O5 0.829418 0.387199 0.500000
O O6 0.844994 0.500000 0.639392
O O7 0.747297 0.406758 0.671836
O O8 0.905765 0.147940 0.500000
O O9 0.878548 0.106604 0.280119
O O10 0.000000 0.144605 0.334362
O O11 0.127163 0.190804 0.000000
O O12 0.000000 0.218104 0.000000
O O13 0.779774 0.129819 0.883379
O O14 0.813560 0.000000 0.814971
O O15 0.250000 0.250000 0.000000
#
# Coordination Sequence:
#
# PCOD8272427 Si02
#       6
#    16  16  16   8  16   8
#     4  10  20  37  60  88 117 149 197 249 293 347
#     4  10  22  39  58  83 118 158 195 238 298 358
#     4  10  21  37  60  89 119 155 198 242 290 346
#     4  10  20  37  61  85 115 150 187 238 294 342
#     4  11  24  40  59  87 122 155 193 243 293 347
#     4  12  23  39  64  88 114 155 199 243 292 345
#
# _framework density 19.120114000000001
#
# number of rings (size 3 to 8) (size 9 to 14) (size 15 to 20)
#    0.000    1.600    2.000    2.700    0.000    3.200 
#    0.000    5.500    0.000    3.600    0.000    0.000 
#    0.000    0.000    0.000    0.000    0.000    0.000 
#
# Total GULP energy -496081.256715 kJ/mol
# GULP energy per Si atom -12402.031418 kJ/mol
# Density = 1.907660 g / cm^3
# Si number density = 19.120114 Si / 1000 Ang^3
#
#
#
# Elastic Constant Matrix: (Units=GPa)
#
#
# Indices 1 2 3 4 5 6 
#
# 1 84.2419 52.8735 23.8428 0.0000 0.0000 0.0000
# 2 52.8735 98.9615 46.2271 0.0000 0.0000 0.0000
# 3 23.8428 46.2271 101.0014 0.0000 0.0000 0.0000
# 4 0.0000 0.0000 0.0000 26.0815 0.0000 0.0000
# 5 0.0000 0.0000 0.0000 0.0000 30.2399 0.0000
# 6 0.0000 0.0000 0.0000 0.0000 0.0000 35.4861
#
#
#
# Elastic Compliance Matrix: (Units=1/GPa)
#
#
# Indices 1 2 3 4 5 6 
#
# 1 0.017863 -0.009634 0.000192 0.000000 0.000000 0.000000
# 2 -0.009634 0.018048 -0.005986 0.000000 0.000000 0.000000
# 3 0.000192 -0.005986 0.012595 0.000000 0.000000 0.000000
# 4 0.000000 0.000000 0.000000 0.038341 0.000000 0.000000
# 5 0.000000 0.000000 0.000000 0.000000 0.033069 0.000000
# 6 0.000000 0.000000 0.000000 0.000000 0.000000 0.028180
#
#
# Mechanical properties :
#
#
# Convention : Reuss Voigt Hill
#
# Bulk Modulus (GPa) = 56.65322 58.89907 57.77615
# Shear Modulus (GPa) = 27.05112 29.11226 28.08169
#
# Velocity S-wave (km/s) = 3.76546 3.90628 3.83652
# Velocity P-wave (km/s) = 6.97133 7.15661 7.06458
#
# Compressibility (1/GPa) = 0.01765125
#
# Stress axis : x y z
#
# Youngs Moduli (GPa) = 55.98315 55.40659 79.39458
#
# Poissons Ratio (x) = 0.53376 -0.01528
# Poissons Ratio (y) = 0.53932 0.47529
# Poissons Ratio (z) = -0.01078 0.33169
#
# Static dielectric constant tensor:
#      x y z
#    x 3.577020 0.000000 0.000000 
#    y 0.000000 3.348830 0.000000 
#    z 0.000000 0.000000 3.681410 
# 
# 
# High freq. dielectric constant tensor:
#      x y z
#    x 1.752370 0.000000 0.000000 
#    y 0.000000 1.729950 0.000000 
#    z 0.000000 0.000000 1.760140 
# 
# From -- ./inp_files/28576.got.cif
#   From: 2010.03.12/outbox.cif.g09.slc.cpg/sg65_15_cif.got.tgz:28576.got - 2010.04.10 20:52:16.
