data_PCOD8272477
_publ_section_title
;
Structure prediction by ZEFSAII (Michael W. Deem and Ramdas Pophale) SiO2 
 PCOD8272477
Probable space group: C M M M
;
_chemical_formula_sum "Si O2"
_cell_formula_units_Z 112
_cell_length_a 14.159479
_cell_length_b 25.352891
_cell_length_c 14.805457
_cell_angle_alpha 90.000000
_cell_angle_beta 90.000000
_cell_angle_gamma 90.000000
_cell_volume 5314.918144
_symmetry_space_group_name_H-M "C M M M"
_symmetry_group_IT_number 65
_symmetry_cell_setting 'orthorhombic'
loop_
_space_group_symop_operation_xyz
x,y,z
-x,-y,z
x,-y,-z
-x,y,-z
-x,-y,-z
x,y,-z
-x,y,z
x,-y,z
1/2+x,1/2+y,z
1/2-x,1/2-y,z
1/2+x,1/2-y,-z
1/2-x,1/2+y,-z
1/2-x,1/2-y,-z
1/2+x,1/2+y,-z
1/2-x,1/2+y,z
1/2+x,1/2-y,z
loop_
_atom_site_type_symbol
_atom_site_label
_atom_site_fract_x
_atom_site_fract_y
_atom_site_fract_z
Si Si1 0.104718 0.356502 0.656289
Si Si2 0.105190 0.439464 0.186180
Si Si3 0.894081 0.761430 0.715734
Si Si4 0.392325 0.692060 0.098498
Si Si5 0.804393 0.850848 0.600533
Si Si6 0.792848 0.916069 0.900030
Si Si7 0.892508 0.058277 0.721746
O O1 0.119678 0.403507 0.726385
O O2 0.115110 0.300462 0.704352
O O3 0.191530 0.358894 0.586679
O O4 0.000000 0.361147 0.610376
O O5 0.120840 0.500000 0.216442
O O6 0.180145 0.422843 0.110228
O O7 0.000000 0.431376 0.145852
O O8 0.868038 0.768126 0.821120
O O9 0.825739 0.795649 0.651257
O O10 0.000000 0.781314 0.694454
O O11 0.500000 0.670831 0.107424
O O12 0.319365 0.644719 0.108521
O O13 0.378855 0.719562 0.000000
O O14 0.849217 0.849714 0.500000
O O15 0.843436 0.899669 0.657302
O O16 0.845354 0.946850 0.820280
O O17 0.821097 0.937620 0.000000
O O18 0.000000 0.076318 0.734658
O O19 0.885776 0.000000 0.677271
#
# Coordination Sequence:
#
# PCOD8272477 Si02
#       7
#    16  16  16  16  16  16  16
#     4  10  22  40  64  92 121 157 208 264 312 363
#     4  10  21  39  62  86 119 165 210 251 299 355
#     4  10  20  37  62  91 127 164 204 256 309 366
#     4   9  17  32  58  91 127 167 205 244 299 367
#     4  12  25  41  64  90 122 165 207 252 315 380
#     4  11  21  35  61  95 126 162 206 248 297 358
#     4  11  24  42  64  92 127 163 203 253 304 364
#
# _framework density 21.072761
#
# number of rings (size 3 to 8) (size 9 to 14) (size 15 to 20)
#    0.000    1.571    2.857    1.714    0.000    5.143 
#    0.000    4.286    0.000    5.143    0.000    3.000 
#    0.000    0.000    0.000    0.000    0.000    0.000 
#
# Total GULP energy -694031.679966 kJ/mol
# GULP energy per Si atom -12393.422857 kJ/mol
# Density = 2.102480 g / cm^3
# Si number density = 21.072761 Si / 1000 Ang^3
#
#
#
# Elastic Constant Matrix: (Units=GPa)
#
#
# Indices 1 2 3 4 5 6 
#
# 1 127.3224 26.4725 38.5863 0.0000 0.0000 0.0000
# 2 26.4725 102.1932 44.8507 0.0000 0.0000 0.0000
# 3 38.5863 44.8507 126.5582 0.0000 0.0000 0.0000
# 4 0.0000 0.0000 0.0000 0.5360 0.0000 0.0000
# 5 0.0000 0.0000 0.0000 0.0000 17.5785 0.0000
# 6 0.0000 0.0000 0.0000 0.0000 0.0000 -18.3956
#
#
#
# Elastic Compliance Matrix: (Units=1/GPa)
#
#
# Indices 1 2 3 4 5 6 
#
# 1 0.008798 -0.001305 -0.002220 0.000000 0.000000 0.000000
# 2 -0.001305 0.011781 -0.003777 0.000000 0.000000 0.000000
# 3 -0.002220 -0.003777 0.009917 0.000000 0.000000 0.000000
# 4 0.000000 0.000000 0.000000 1.865776 0.000000 0.000000
# 5 0.000000 0.000000 0.000000 0.000000 0.056888 0.000000
# 6 0.000000 0.000000 0.000000 0.000000 0.000000 -0.054361
#
#
# Mechanical properties :
#
#
# Convention : Reuss Voigt Hill
#
# Bulk Modulus (GPa) = 62.92444 63.98809 63.45626
# Shear Modulus (GPa) = 2.60593 16.35472 9.48032
#
# Velocity S-wave (km/s) = 1.11325 2.78889 2.12335
# Velocity P-wave (km/s) = 5.61941 6.38763 6.01580
#
# Compressibility (1/GPa) = 0.01589208
#
# Stress axis : x y z
#
# Youngs Moduli (GPa) = 113.65986 84.88122 100.83676
#
# Poissons Ratio (x) = 0.11075 0.22387
# Poissons Ratio (y) = 0.14830 0.38089
# Poissons Ratio (z) = 0.25233 0.32062
#
# Static dielectric constant tensor:
#      x y z
#    x 4.277260 0.000000 0.000000 
#    y 0.000000 3.695630 0.000000 
#    z 0.000000 0.000000 3.692110 
# 
# 
# High freq. dielectric constant tensor:
#      x y z
#    x 1.844290 0.000000 0.000000 
#    y 0.000000 1.822690 0.000000 
#    z 0.000000 0.000000 1.805340 
# 
# From -- ./inp_files/41080.got.cif
#   From: 2010.03.12/outbox.cif.g09.slc.cpg/sg65_21_cif.got.tgz:41080.got - 2010.04.10 20:52:16.
