data_PCOD8272063
_publ_section_title
;
Structure prediction by ZEFSAII (Michael W. Deem and Ramdas Pophale) SiO2 
 PCOD8272063
Probable space group: C M M M
;
_chemical_formula_sum "Si O2"
_cell_formula_units_Z 104
_cell_length_a 13.967327
_cell_length_b 21.930899
_cell_length_c 18.012718
_cell_angle_alpha 90.000000
_cell_angle_beta 90.000000
_cell_angle_gamma 90.000000
_cell_volume 5517.584407
_symmetry_space_group_name_H-M "C M M M"
_symmetry_group_IT_number 65
_symmetry_cell_setting 'orthorhombic'
loop_
_space_group_symop_operation_xyz
x,y,z
-x,-y,z
x,-y,-z
-x,y,-z
-x,-y,-z
x,y,-z
-x,y,z
x,-y,z
1/2+x,1/2+y,z
1/2-x,1/2-y,z
1/2+x,1/2-y,-z
1/2-x,1/2+y,-z
1/2-x,1/2-y,-z
1/2+x,1/2+y,-z
1/2-x,1/2+y,z
1/2+x,1/2-y,z
loop_
_atom_site_type_symbol
_atom_site_label
_atom_site_fract_x
_atom_site_fract_y
_atom_site_fract_z
Si Si1 0.389156 0.929804 0.686079
Si Si2 0.204167 0.337666 0.586146
Si Si3 0.892790 0.000000 0.088132
Si Si4 0.391914 0.282342 0.813162
Si Si5 0.290300 0.378331 0.086000
Si Si6 0.389343 0.717274 0.641863
Si Si7 0.890938 0.358845 0.835838
O O1 0.500000 0.921701 0.664644
O O2 0.324320 0.902785 0.620043
O O3 0.365060 0.895062 0.761653
O O4 0.361175 0.000000 0.696175
O O5 0.178114 0.336430 0.500000
O O6 0.318166 0.326132 0.595409
O O7 0.140368 0.287194 0.628259
O O8 0.839741 0.060422 0.116777
O O9 0.000000 0.000000 0.120487
O O10 0.893001 0.000000 0.000000
O O11 0.500000 0.296425 0.837294
O O12 0.324779 0.321142 0.866318
O O13 0.375030 0.299785 0.727783
O O14 0.368231 0.211672 0.822572
O O15 0.176172 0.384048 0.098130
O O16 0.314036 0.366925 0.000000
O O17 0.500000 0.707460 0.617508
O O18 0.000000 0.370197 0.860296
#
# Coordination Sequence:
#
# PCOD8272063 Si02
#       7
#    16  16   8  16  16  16  16
#     4  10  21  38  60  84 112 152 196 238 285 338
#     4  11  22  34  56  89 119 150 187 234 287 340
#     4   9  20  40  59  77 109 147 185 232 284 338
#     4  10  20  35  59  84 111 150 192 239 288 337
#     4  11  23  37  57  86 117 152 191 237 292 339
#     4  10  20  36  56  82 116 153 191 230 282 343
#     4  10  21  37  57  83 114 151 193 235 286 345
#
# _framework density 18.848828000000001
#
# number of rings (size 3 to 8) (size 9 to 14) (size 15 to 20)
#    0.000    1.769    1.538    3.231    3.231    4.923 
#    0.000    2.308    0.000    1.846    0.000    1.077 
#    0.000    0.000    0.000    0.000    0.000    0.000 
#
# Total GULP energy -644895.393569 kJ/mol
# GULP energy per Si atom -12401.834492 kJ/mol
# Density = 1.880593 g / cm^3
# Si number density = 18.848828 Si / 1000 Ang^3
#
#
#
# Elastic Constant Matrix: (Units=GPa)
#
#
# Indices 1 2 3 4 5 6 
#
# 1 113.3060 60.0366 42.3549 0.0000 0.0000 0.0000
# 2 60.0366 109.0615 48.3911 0.0000 0.0000 0.0000
# 3 42.3549 48.3911 85.1741 0.0000 0.0000 0.0000
# 4 0.0000 0.0000 0.0000 20.2392 0.0000 0.0000
# 5 0.0000 0.0000 0.0000 0.0000 25.7871 0.0000
# 6 0.0000 0.0000 0.0000 0.0000 0.0000 24.9419
#
#
#
# Elastic Compliance Matrix: (Units=1/GPa)
#
#
# Indices 1 2 3 4 5 6 
#
# 1 0.013093 -0.005774 -0.003230 0.000000 0.000000 0.000000
# 2 -0.005774 0.014806 -0.005541 0.000000 0.000000 0.000000
# 3 -0.003230 -0.005541 0.016495 0.000000 0.000000 0.000000
# 4 0.000000 0.000000 0.000000 0.049409 0.000000 0.000000
# 5 0.000000 0.000000 0.000000 0.000000 0.038779 0.000000
# 6 0.000000 0.000000 0.000000 0.000000 0.000000 0.040093
#
#
# Mechanical properties :
#
#
# Convention : Reuss Voigt Hill
#
# Bulk Modulus (GPa) = 65.34338 67.67855 66.51096
# Shear Modulus (GPa) = 24.17028 24.64424 24.40726
#
# Velocity S-wave (km/s) = 3.58484 3.61982 3.60237
# Velocity P-wave (km/s) = 7.20258 7.31127 7.25713
#
# Compressibility (1/GPa) = 0.01530377
#
# Stress axis : x y z
#
# Youngs Moduli (GPa) = 76.37936 67.53988 60.62509
#
# Poissons Ratio (x) = 0.38998 0.19583
# Poissons Ratio (y) = 0.44102 0.33590
# Poissons Ratio (z) = 0.24671 0.37422
#
# Static dielectric constant tensor:
#      x y z
#    x 3.663910 0.000000 0.000000 
#    y 0.000000 3.406080 0.000000 
#    z 0.000000 0.000000 3.265910 
# 
# 
# High freq. dielectric constant tensor:
#      x y z
#    x 1.744430 0.000000 0.000000 
#    y 0.000000 1.721770 0.000000 
#    z 0.000000 0.000000 1.719330 
# 
# From -- ./inp_files/53309.got.cif
#   From: 2010.03.12/outbox.cif.g09.slc.cpg/sg65_27_cif.got.tgz:53309.got - 2010.04.10 20:52:16.
