data_PCOD8272880
_publ_section_title
;
Structure prediction by ZEFSAII (Michael W. Deem and Ramdas Pophale) SiO2 
 PCOD8272880
Probable space group: C M M M
;
_chemical_formula_sum "Si O2"
_cell_formula_units_Z 80
_cell_length_a 14.111220
_cell_length_b 33.318007
_cell_length_c 9.135272
_cell_angle_alpha 90.000000
_cell_angle_beta 90.000000
_cell_angle_gamma 90.000000
_cell_volume 4295.018717
_symmetry_space_group_name_H-M "C M M M"
_symmetry_group_IT_number 65
_symmetry_cell_setting 'orthorhombic'
loop_
_space_group_symop_operation_xyz
x,y,z
-x,-y,z
x,-y,-z
-x,y,-z
-x,-y,-z
x,y,-z
-x,y,z
x,-y,z
1/2+x,1/2+y,z
1/2-x,1/2-y,z
1/2+x,1/2-y,-z
1/2-x,1/2+y,-z
1/2-x,1/2-y,-z
1/2+x,1/2+y,-z
1/2-x,1/2+y,z
1/2+x,1/2-y,z
loop_
_atom_site_type_symbol
_atom_site_label
_atom_site_fract_x
_atom_site_fract_y
_atom_site_fract_z
Si Si1 0.771571 0.110909 0.173521
Si Si2 0.608408 0.546663 0.667984
Si Si3 0.609977 0.850966 0.670507
Si Si4 0.387415 0.772522 0.162598
Si Si5 0.605065 0.685015 0.173358
O O1 0.821932 0.070532 0.225881
O O2 0.667443 0.114302 0.245091
O O3 0.830161 0.149226 0.233609
O O4 0.762029 0.109853 0.000000
O O5 0.627916 0.558548 0.500000
O O6 0.500000 0.556666 0.709834
O O7 0.629175 0.500000 0.692868
O O8 0.631633 0.853619 0.500000
O O9 0.500000 0.858050 0.706263
O O10 0.643900 0.807230 0.726625
O O11 0.500000 0.768132 0.155726
O O12 0.348871 0.728619 0.214068
O O13 0.348540 0.783593 0.000000
O O14 0.500000 0.680191 0.242740
O O15 0.596971 0.681904 0.000000
#
# Coordination Sequence:
#
# PCOD8272880 Si02
#       5
#    16  16  16  16  16
#     4  11  21  32  52  80 106 133 170 216 259 302
#     4   9  19  37  59  82 111 144 170 194 235 297
#     4  10  21  36  51  68  96 135 178 222 265 308
#     4   8  14  28  49  68  91 129 174 215 255 301
#     4   8  15  28  46  71 103 135 166 204 253 307
#
# _framework density 18.626227
#
# number of rings (size 3 to 8) (size 9 to 14) (size 15 to 20)
#    0.000    2.800    0.000    3.600    0.000    3.600 
#    0.000    7.000    0.000    5.400    0.000    4.200 
#    0.000    0.000    0.000    0.000    0.000    0.000 
#
# Total GULP energy -495926.791918 kJ/mol
# GULP energy per Si atom -12398.169798 kJ/mol
# Density = 1.858383 g / cm^3
# Si number density = 18.626227 Si / 1000 Ang^3
#
#
#
# Elastic Constant Matrix: (Units=GPa)
#
#
# Indices 1 2 3 4 5 6 
#
# 1 71.4121 51.7605 51.4601 0.0000 0.0000 0.0000
# 2 51.7605 90.6725 50.8364 0.0000 0.0000 0.0000
# 3 51.4601 50.8364 88.8121 0.0000 0.0000 0.0000
# 4 0.0000 0.0000 0.0000 25.6847 0.0000 0.0000
# 5 0.0000 0.0000 0.0000 0.0000 23.5592 0.0000
# 6 0.0000 0.0000 0.0000 0.0000 0.0000 29.8470
#
#
#
# Elastic Compliance Matrix: (Units=1/GPa)
#
#
# Indices 1 2 3 4 5 6 
#
# 1 0.029837 -0.010808 -0.011102 0.000000 0.000000 0.000000
# 2 -0.010808 0.020156 -0.005275 0.000000 0.000000 0.000000
# 3 -0.011102 -0.005275 0.020712 0.000000 0.000000 0.000000
# 4 0.000000 0.000000 0.000000 0.038934 0.000000 0.000000
# 5 0.000000 0.000000 0.000000 0.000000 0.042446 0.000000
# 6 0.000000 0.000000 0.000000 0.000000 0.000000 0.033504
#
#
# Mechanical properties :
#
#
# Convention : Reuss Voigt Hill
#
# Bulk Modulus (GPa) = 61.21733 62.11232 61.66483
# Shear Modulus (GPa) = 20.37456 22.27415 21.32435
#
# Velocity S-wave (km/s) = 3.31095 3.46186 3.38724
# Velocity P-wave (km/s) = 6.89595 7.02840 6.96249
#
# Compressibility (1/GPa) = 0.01633524
#
# Stress axis : x y z
#
# Youngs Moduli (GPa) = 33.51506 49.61300 48.28185
#
# Poissons Ratio (x) = 0.53623 0.53602
# Poissons Ratio (y) = 0.36224 0.25467
# Poissons Ratio (z) = 0.37208 0.26170
#
# Static dielectric constant tensor:
#      x y z
#    x 3.471290 0.000000 0.000000 
#    y 0.000000 3.360510 0.000000 
#    z 0.000000 0.000000 3.171760 
# 
# 
# High freq. dielectric constant tensor:
#      x y z
#    x 1.722760 0.000000 0.000000 
#    y 0.000000 1.707590 0.000000 
#    z 0.000000 0.000000 1.700460 
# 
# From -- ./inp_files/9906.got.cif
#   From: 2010.03.12/outbox.cif.g09.slc.cpg/sg65_5_cif.got.tgz:9906.got - 2010.04.10 20:52:16.
