data_PCOD8272061
_publ_section_title
;
Structure prediction by ZEFSAII (Michael W. Deem and Ramdas Pophale) SiO2 
 PCOD8272061
Probable space group: C M M M
;
_chemical_formula_sum "Si O2"
_cell_formula_units_Z 104
_cell_length_a 26.768220
_cell_length_b 23.877568
_cell_length_c 8.106817
_cell_angle_alpha 90.000000
_cell_angle_beta 90.000000
_cell_angle_gamma 90.000000
_cell_volume 5181.553099
_symmetry_space_group_name_H-M "C M M M"
_symmetry_group_IT_number 65
_symmetry_cell_setting 'orthorhombic'
loop_
_space_group_symop_operation_xyz
x,y,z
-x,-y,z
x,-y,-z
-x,y,-z
-x,-y,-z
x,y,-z
-x,y,z
x,-y,z
1/2+x,1/2+y,z
1/2-x,1/2-y,z
1/2+x,1/2-y,-z
1/2-x,1/2+y,-z
1/2-x,1/2-y,-z
1/2+x,1/2+y,-z
1/2-x,1/2+y,z
1/2+x,1/2-y,z
loop_
_atom_site_type_symbol
_atom_site_label
_atom_site_fract_x
_atom_site_fract_y
_atom_site_fract_z
Si Si1 0.943211 0.661917 0.500000
Si Si2 0.298018 0.219147 0.187255
Si Si3 0.811674 0.937945 0.687109
Si Si4 0.706306 0.911372 0.186191
Si Si5 0.595574 0.373501 0.812410
Si Si6 0.399277 0.258267 0.676605
Si Si7 0.637848 0.062644 0.500000
Si Si8 0.500000 0.563326 0.803057
O O1 0.934066 0.701980 0.662553
O O2 0.906434 0.608519 0.500000
O O3 0.000000 0.639849 0.500000
O O4 0.250000 0.250000 0.261230
O O5 0.288646 0.154260 0.202888
O O6 0.344358 0.235972 0.295492
O O7 0.307955 0.238564 0.000000
O O8 0.794342 0.928715 0.500000
O O9 0.762156 0.934957 0.797653
O O10 0.852520 0.890700 0.728201
O O11 0.835350 0.000000 0.713021
O O12 0.670282 0.933113 0.331741
O O13 0.686705 0.927524 0.000000
O O14 0.584865 0.306277 0.805138
O O15 0.548954 0.405883 0.730665
O O16 0.600350 0.391873 0.000000
O O17 0.399751 0.289617 0.500000
O O18 0.614469 0.000000 0.500000
O O19 0.500000 0.500000 0.738788
O O20 0.500000 0.567066 0.000000
#
# Coordination Sequence:
#
# PCOD8272061 Si02
#       8
#     8  16  16  16  16  16   8   8
#     4  10  24  45  68  96 124 168 209 257 330 392
#     4  10  20  35  58  89 127 165 204 250 307 381
#     4  11  23  38  56  84 126 171 220 274 326 385
#     4  11  22  39  64  96 132 172 216 262 322 389
#     4  11  22  36  58  86 118 164 218 270 329 383
#     4  10  21  37  60  86 119 158 196 255 307 382
#     4  12  24  45  70 100 134 165 212 262 317 401
#     4   9  20  38  57  79 113 159 217 276 324 374
#
# _framework density 20.071203000000001
#
# number of rings (size 3 to 8) (size 9 to 14) (size 15 to 20)
#    0.462    1.000    2.308    3.231    1.077    4.462 
#    0.000    1.154    0.000    5.077    0.000    1.077 
#    0.000    0.000    0.000    0.000    0.000    0.000 
#
# Total GULP energy -644393.021902 kJ/mol
# GULP energy per Si atom -12392.173498 kJ/mol
# Density = 2.002552 g / cm^3
# Si number density = 20.071203 Si / 1000 Ang^3
#
#
#
# Elastic Constant Matrix: (Units=GPa)
#
#
# Indices 1 2 3 4 5 6 
#
# 1 127.5752 51.5835 27.8770 0.0000 0.0000 0.0000
# 2 51.5835 128.5622 26.5391 0.0000 0.0000 0.0000
# 3 27.8770 26.5391 77.0466 0.0000 0.0000 0.0000
# 4 0.0000 0.0000 0.0000 27.5373 0.0000 0.0000
# 5 0.0000 0.0000 0.0000 0.0000 27.5508 0.0000
# 6 0.0000 0.0000 0.0000 0.0000 0.0000 36.7223
#
#
#
# Elastic Compliance Matrix: (Units=1/GPa)
#
#
# Indices 1 2 3 4 5 6 
#
# 1 0.009734 -0.003422 -0.002343 0.000000 0.000000 0.000000
# 2 -0.003422 0.009577 -0.002061 0.000000 0.000000 0.000000
# 3 -0.002343 -0.002061 0.014537 0.000000 0.000000 0.000000
# 4 0.000000 0.000000 0.000000 0.036314 0.000000 0.000000
# 5 0.000000 0.000000 0.000000 0.000000 0.036297 0.000000
# 6 0.000000 0.000000 0.000000 0.000000 0.000000 0.027231
#
#
# Mechanical properties :
#
#
# Convention : Reuss Voigt Hill
#
# Bulk Modulus (GPa) = 54.95732 60.57591 57.76661
# Shear Modulus (GPa) = 32.17354 33.50770 32.84062
#
# Velocity S-wave (km/s) = 4.00805 4.09031 4.04939
# Velocity P-wave (km/s) = 6.98999 7.24938 7.12087
#
# Compressibility (1/GPa) = 0.01819594
#
# Stress axis : x y z
#
# Youngs Moduli (GPa) = 102.73073 104.41992 68.79090
#
# Poissons Ratio (x) = 0.35732 0.16120
# Poissons Ratio (y) = 0.35154 0.14175
# Poissons Ratio (z) = 0.24073 0.21517
#
# Static dielectric constant tensor:
#      x y z
#    x 3.465300 0.000000 0.000000 
#    y 0.000000 3.500700 0.000000 
#    z 0.000000 0.000000 3.658580 
# 
# 
# High freq. dielectric constant tensor:
#      x y z
#    x 1.765890 0.000000 0.000000 
#    y 0.000000 1.794000 0.000000 
#    z 0.000000 0.000000 1.775060 
# 
# From -- ./inp_files/16821.got.cif
#   From: 2010.03.12/outbox.cif.g09.slc.cpg/sg65_9_cif.got.tgz:16821.got - 2010.04.10 20:52:16.
