data_PCOD8272211
_publ_section_title
;
Structure prediction by ZEFSAII (Michael W. Deem and Ramdas Pophale) SiO2 
 PCOD8272211
Probable space group: C M M M
;
_chemical_formula_sum "Si O2"
_cell_formula_units_Z 120
_cell_length_a 19.435594
_cell_length_b 18.659157
_cell_length_c 17.806931
_cell_angle_alpha 90.000000
_cell_angle_beta 90.000000
_cell_angle_gamma 90.000000
_cell_volume 6457.715577
_symmetry_space_group_name_H-M "C M M M"
_symmetry_group_IT_number 65
_symmetry_cell_setting 'orthorhombic'
loop_
_space_group_symop_operation_xyz
x,y,z
-x,-y,z
x,-y,-z
-x,y,-z
-x,-y,-z
x,y,-z
-x,y,z
x,-y,z
1/2+x,1/2+y,z
1/2-x,1/2-y,z
1/2+x,1/2-y,-z
1/2-x,1/2+y,-z
1/2-x,1/2-y,-z
1/2+x,1/2+y,-z
1/2-x,1/2+y,z
1/2+x,1/2-y,z
loop_
_atom_site_type_symbol
_atom_site_label
_atom_site_fract_x
_atom_site_fract_y
_atom_site_fract_z
Si Si1 0.364183 0.339080 0.912442
Si Si2 0.306185 0.581637 0.334134
Si Si3 0.169090 0.415971 0.412919
Si Si4 0.422207 0.663774 0.415073
Si Si5 0.247864 0.081672 0.169438
Si Si6 0.676577 0.217689 0.197987
Si Si7 0.500000 0.419289 0.089191
Si Si8 0.922038 0.306918 0.665990
O O1 0.301679 0.394305 0.898215
O O2 0.352493 0.263655 0.871157
O O3 0.433401 0.376463 0.882084
O O4 0.368710 0.321691 0.000000
O O5 0.316295 0.500000 0.358855
O O6 0.240232 0.613599 0.377935
O O7 0.374528 0.623134 0.356341
O O8 0.296046 0.589708 0.245501
O O9 0.166735 0.395833 0.500000
O O10 0.161899 0.500000 0.398610
O O11 0.106319 0.380267 0.368726
O O12 0.397016 0.649654 0.500000
O O13 0.500000 0.635533 0.403920
O O14 0.418863 0.748250 0.399630
O O15 0.313607 0.134754 0.172278
O O16 0.273540 0.000000 0.157628
O O17 0.750000 0.250000 0.224934
O O18 0.622464 0.221463 0.264675
O O19 0.500000 0.500000 0.122973
O O20 0.500000 0.424275 0.000000
O O21 0.000000 0.320159 0.693480
#
# Coordination Sequence:
#
# PCOD8272211 Si02
#       8
#    16  16  16  16  16  16   8  16
#     4  10  21  36  57  87 119 150 186 230 281 338
#     4  10  20  37  56  78 109 145 190 232 278 341
#     4  10  21  37  59  84 109 143 188 239 294 343
#     4  10  21  35  51  75 108 143 182 231 282 334
#     4  10  20  36  58  80 110 147 184 234 284 333
#     4  10  21  37  58  82 113 154 190 233 283 340
#     4   9  18  34  56  84 121 155 182 219 273 337
#     4  11  23  37  56  82 112 147 188 232 281 342
#
# _framework density 18.582422000000001
#
# number of rings (size 3 to 8) (size 9 to 14) (size 15 to 20)
#    0.000    1.933    1.333    2.800    0.933    5.333 
#    1.200    2.667    0.000    0.000    0.000    0.000 
#    0.000    1.600    0.000    0.000    0.000    0.000 
#
# Total GULP energy -744128.264586 kJ/mol
# GULP energy per Si atom -12402.137743 kJ/mol
# Density = 1.854013 g / cm^3
# Si number density = 18.582422 Si / 1000 Ang^3
#
#
#
# Elastic Constant Matrix: (Units=GPa)
#
#
# Indices 1 2 3 4 5 6 
#
# 1 108.0145 44.1915 35.2723 0.0000 0.0000 0.0000
# 2 44.1915 106.9682 30.8049 0.0000 0.0000 0.0000
# 3 35.2723 30.8049 75.9350 0.0000 0.0000 0.0000
# 4 0.0000 0.0000 0.0000 26.3606 0.0000 0.0000
# 5 0.0000 0.0000 0.0000 0.0000 26.7075 0.0000
# 6 0.0000 0.0000 0.0000 0.0000 0.0000 27.5567
#
#
#
# Elastic Compliance Matrix: (Units=1/GPa)
#
#
# Indices 1 2 3 4 5 6 
#
# 1 0.012169 -0.003849 -0.004091 0.000000 0.000000 0.000000
# 2 -0.003849 0.011803 -0.003000 0.000000 0.000000 0.000000
# 3 -0.004091 -0.003000 0.016287 0.000000 0.000000 0.000000
# 4 0.000000 0.000000 0.000000 0.037935 0.000000 0.000000
# 5 0.000000 0.000000 0.000000 0.000000 0.037443 0.000000
# 6 0.000000 0.000000 0.000000 0.000000 0.000000 0.036289
#
#
# Mechanical properties :
#
#
# Convention : Reuss Voigt Hill
#
# Bulk Modulus (GPa) = 54.41421 56.82834 55.62128
# Shear Modulus (GPa) = 27.78842 28.16822 27.97832
#
# Velocity S-wave (km/s) = 3.87125 3.89762 3.88446
# Velocity P-wave (km/s) = 7.02341 7.13466 7.07926
#
# Compressibility (1/GPa) = 0.01837755
#
# Stress axis : x y z
#
# Youngs Moduli (GPa) = 82.17818 84.72625 61.40053
#
# Poissons Ratio (x) = 0.32612 0.25119
# Poissons Ratio (y) = 0.31631 0.18421
# Poissons Ratio (z) = 0.33619 0.25419
#
# Static dielectric constant tensor:
#      x y z
#    x 3.446960 0.000000 0.000000 
#    y 0.000000 3.538390 0.000000 
#    z 0.000000 0.000000 3.277770 
# 
# 
# High freq. dielectric constant tensor:
#      x y z
#    x 1.714120 0.000000 0.000000 
#    y 0.000000 1.725890 0.000000 
#    z 0.000000 0.000000 1.714510 
# 
# From -- ./inp_files/54989.got.cif
#   From: 2010.03.12/outbox.cif.g09.slc.cpg/sg65_28_cif.got.tgz:54989.got - 2010.04.10 20:52:16.
