data_PCOD8272546
_publ_section_title
;
Structure prediction by ZEFSAII (Michael W. Deem and Ramdas Pophale) SiO2 
 PCOD8272546
Probable space group: C M M M
;
_chemical_formula_sum "Si O2"
_cell_formula_units_Z 48
_cell_length_a 19.026588
_cell_length_b 7.419886
_cell_length_c 16.845994
_cell_angle_alpha 90.000000
_cell_angle_beta 90.000000
_cell_angle_gamma 90.000000
_cell_volume 2378.235122
_symmetry_space_group_name_H-M "C M M M"
_symmetry_group_IT_number 65
_symmetry_cell_setting 'orthorhombic'
loop_
_space_group_symop_operation_xyz
x,y,z
-x,-y,z
x,-y,-z
-x,y,-z
-x,-y,-z
x,y,-z
-x,y,z
x,-y,z
1/2+x,1/2+y,z
1/2-x,1/2-y,z
1/2+x,1/2-y,-z
1/2-x,1/2+y,-z
1/2-x,1/2-y,-z
1/2+x,1/2+y,-z
1/2-x,1/2+y,z
1/2+x,1/2-y,z
loop_
_atom_site_type_symbol
_atom_site_label
_atom_site_fract_x
_atom_site_fract_y
_atom_site_fract_z
Si Si1 0.329338 0.211387 0.819585
Si Si2 0.172100 0.709695 0.358577
Si Si3 0.579118 0.215560 0.500000
Si Si4 0.919220 0.000000 0.906262
O O1 0.250000 0.250000 0.848217
O O2 0.338518 0.288760 0.729805
O O3 0.382917 0.318888 0.874529
O O4 0.346650 0.000000 0.826517
O O5 0.158932 0.500000 0.352912
O O6 0.250000 0.750000 0.390334
O O7 0.117309 0.793907 0.421396
O O8 0.500000 0.288309 0.500000
O O9 0.582384 0.000000 0.500000
O O10 0.000000 0.000000 0.878689
O O11 0.912282 0.000000 0.000000
#
# Coordination Sequence:
#
# PCOD8272546 Si02
#       4
#    16  16   8   8
#     4  10  20  39  65  93 120 156 207 253 298 359
#     4   9  18  31  55  81 108 147 190 239 289 339
#     4   9  17  30  47  75 112 149 192 234 279 339
#     4  11  26  44  62  91 128 160 193 245 314 372
#
# _framework density 20.183032999999998
#
# number of rings (size 3 to 8) (size 9 to 14) (size 15 to 20)
#    0.000    2.333    1.667    0.500    2.333    3.333 
#    0.000    5.000    0.000    1.000    0.000    0.000 
#    0.000    0.000    0.000    0.000    0.000    0.000 
#
# Total GULP energy -297567.869757 kJ/mol
# GULP energy per Si atom -12398.661240 kJ/mol
# Density = 2.013710 g / cm^3
# Si number density = 20.183033 Si / 1000 Ang^3
#
#
#
# Elastic Constant Matrix: (Units=GPa)
#
#
# Indices 1 2 3 4 5 6 
#
# 1 180.7254 38.6604 89.2862 0.0000 0.0000 0.0000
# 2 38.6604 85.2085 31.6917 0.0000 0.0000 0.0000
# 3 89.2862 31.6917 102.9513 0.0000 0.0000 0.0000
# 4 0.0000 0.0000 0.0000 -12.9834 0.0000 0.0000
# 5 0.0000 0.0000 0.0000 0.0000 34.8662 0.0000
# 6 0.0000 0.0000 0.0000 0.0000 0.0000 24.9902
#
#
#
# Elastic Compliance Matrix: (Units=1/GPa)
#
#
# Indices 1 2 3 4 5 6 
#
# 1 0.009839 -0.001457 -0.008085 0.000000 0.000000 0.000000
# 2 -0.001457 0.013469 -0.002882 0.000000 0.000000 0.000000
# 3 -0.008085 -0.002882 0.017612 0.000000 0.000000 0.000000
# 4 0.000000 0.000000 0.000000 -0.077021 0.000000 0.000000
# 5 0.000000 0.000000 0.000000 0.000000 0.028681 0.000000
# 6 0.000000 0.000000 0.000000 0.000000 0.000000 0.040016
#
#
# Mechanical properties :
#
#
# Convention : Reuss Voigt Hill
#
# Bulk Modulus (GPa) = 62.22025 76.46242 69.34134
# Shear Modulus (GPa) = 79.61620 23.32440 51.47030
#
# Velocity S-wave (km/s) = 6.28751 3.40316 5.05541
# Velocity P-wave (km/s) = 9.14359 7.30813 8.27690
#
# Compressibility (1/GPa) = 0.01607194
#
# Stress axis : x y z
#
# Youngs Moduli (GPa) = 101.63535 74.24371 56.77925
#
# Poissons Ratio (x) = 0.10819 0.45903
# Poissons Ratio (y) = 0.14811 0.16366
# Poissons Ratio (z) = 0.82167 0.21400
#
# Static dielectric constant tensor:
#      x y z
#    x 3.700400 0.000000 0.000000 
#    y 0.000000 3.471610 0.000000 
#    z 0.000000 0.000000 3.869610 
# 
# 
# High freq. dielectric constant tensor:
#      x y z
#    x 1.781050 0.000000 0.000000 
#    y 0.000000 1.784200 0.000000 
#    z 0.000000 0.000000 1.787450 
# 
# From -- ./inp_files/41656.got.cif
#   From: 2010.03.12/outbox.cif.g09.slc.cpg/sg65_21_cif.got.tgz:41656.got - 2010.04.10 20:52:16.
