data_PCOD8272433
_publ_section_title
;
Structure prediction by ZEFSAII (Michael W. Deem and Ramdas Pophale) SiO2 
 PCOD8272433
Probable space group: C M M M
;
_chemical_formula_sum "Si O2"
_cell_formula_units_Z 88
_cell_length_a 21.333867
_cell_length_b 8.023348
_cell_length_c 26.388453
_cell_angle_alpha 90.000000
_cell_angle_beta 90.000000
_cell_angle_gamma 90.000000
_cell_volume 4516.886144
_symmetry_space_group_name_H-M "C M M M"
_symmetry_group_IT_number 65
_symmetry_cell_setting 'orthorhombic'
loop_
_space_group_symop_operation_xyz
x,y,z
-x,-y,z
x,-y,-z
-x,y,-z
-x,-y,-z
x,y,-z
-x,y,z
x,-y,z
1/2+x,1/2+y,z
1/2-x,1/2-y,z
1/2+x,1/2-y,-z
1/2-x,1/2+y,-z
1/2-x,1/2-y,-z
1/2+x,1/2+y,-z
1/2-x,1/2+y,z
1/2+x,1/2-y,z
loop_
_atom_site_type_symbol
_atom_site_label
_atom_site_fract_x
_atom_site_fract_y
_atom_site_fract_z
Si Si1 0.126669 0.191179 0.897178
Si Si2 0.929255 0.191012 0.273672
Si Si3 0.319280 0.802624 0.000000
Si Si4 0.000000 0.198238 0.941788
Si Si5 0.820367 0.688835 0.203196
Si Si6 0.073988 0.683000 0.381852
Si Si7 0.574851 0.500000 0.557676
O O1 0.155496 0.208424 0.951773
O O2 0.056800 0.260138 0.906493
O O3 0.165686 0.298032 0.856630
O O4 0.127856 0.000000 0.878774
O O5 0.876215 0.212353 0.231021
O O6 0.908937 0.295377 0.322827
O O7 0.000000 0.243150 0.254801
O O8 0.931226 0.000000 0.290561
O O9 0.250000 0.750000 0.000000
O O10 0.332622 0.000000 0.000000
O O11 0.000000 0.000000 0.947239
O O12 0.000000 0.272642 0.000000
O O13 0.824288 0.500000 0.221094
O O14 0.750000 0.750000 0.215916
O O15 0.099556 0.500000 0.399157
O O16 0.102732 0.833055 0.415594
O O17 0.000000 0.688070 0.388710
O O18 0.500000 0.500000 0.561191
O O19 0.598224 0.500000 0.500000
#
# Coordination Sequence:
#
# PCOD8272433 Si02
#       7
#    16  16   8   8  16  16   8
#     4  11  22  40  62  84 111 145 182 226 282 343
#     4  10  20  37  61  86 114 155 199 242 298 359
#     4  12  24  39  58  81 105 140 180 224 275 345
#     4   9  18  36  62  88 110 140 178 218 270 335
#     4  12  26  43  60  85 118 152 191 245 298 351
#     4   9  16  28  47  73 108 152 200 247 295 350
#     4   9  16  26  42  70 112 158 200 245 298 354
#
# _framework density 19.482447000000001
#
# number of rings (size 3 to 8) (size 9 to 14) (size 15 to 20)
#    0.000    1.636    1.818    4.091    1.273    1.455 
#    0.000    3.636    0.000    0.000    0.000    0.000 
#    0.000    0.727    0.364    0.000    0.000    0.000 
#
# Total GULP energy -545264.416079 kJ/mol
# GULP energy per Si atom -12392.373093 kJ/mol
# Density = 1.943810 g / cm^3
# Si number density = 19.482447 Si / 1000 Ang^3
#
#
#
# Elastic Constant Matrix: (Units=GPa)
#
#
# Indices 1 2 3 4 5 6 
#
# 1 108.8370 18.1656 35.1587 0.0000 0.0000 0.0000
# 2 18.1656 101.9534 35.0321 0.0000 0.0000 0.0000
# 3 35.1587 35.0321 96.5310 0.0000 0.0000 0.0000
# 4 0.0000 0.0000 0.0000 26.5155 0.0000 0.0000
# 5 0.0000 0.0000 0.0000 0.0000 13.9086 0.0000
# 6 0.0000 0.0000 0.0000 0.0000 0.0000 16.2810
#
#
#
# Elastic Compliance Matrix: (Units=1/GPa)
#
#
# Indices 1 2 3 4 5 6 
#
# 1 0.010449 -0.000633 -0.003576 0.000000 0.000000 0.000000
# 2 -0.000633 0.011244 -0.003850 0.000000 0.000000 0.000000
# 3 -0.003576 -0.003850 0.013059 0.000000 0.000000 0.000000
# 4 0.000000 0.000000 0.000000 0.037714 0.000000 0.000000
# 5 0.000000 0.000000 0.000000 0.000000 0.071898 0.000000
# 6 0.000000 0.000000 0.000000 0.000000 0.000000 0.061421
#
#
# Mechanical properties :
#
#
# Convention : Reuss Voigt Hill
#
# Bulk Modulus (GPa) = 53.66546 53.78157 53.72352
# Shear Modulus (GPa) = 21.91882 25.93869 23.92875
#
# Velocity S-wave (km/s) = 3.35782 3.65278 3.50840
# Velocity P-wave (km/s) = 6.52983 6.74207 6.63679
#
# Compressibility (1/GPa) = 0.01863396
#
# Stress axis : x y z
#
# Youngs Moduli (GPa) = 95.70388 88.93556 76.57530
#
# Poissons Ratio (x) = 0.05630 0.27383
# Poissons Ratio (y) = 0.06058 0.29482
# Poissons Ratio (z) = 0.34224 0.34241
#
# Static dielectric constant tensor:
#      x y z
#    x 3.987470 0.000000 0.000000 
#    y 0.000000 3.951740 0.000000 
#    z 0.000000 0.000000 3.418480 
# 
# 
# High freq. dielectric constant tensor:
#      x y z
#    x 1.727690 0.000000 0.000000 
#    y 0.000000 1.767730 0.000000 
#    z 0.000000 0.000000 1.746650 
# 
# From -- ./inp_files/71089.got.cif
#   From: 2010.03.12/outbox.cif.g09.slc.cpg/sg65_36_cif.got.tgz:71089.got - 2010.04.10 20:52:16.
