data_PCOD8272737
_publ_section_title
;
Structure prediction by ZEFSAII (Michael W. Deem and Ramdas Pophale) SiO2 
 PCOD8272737
Probable space group: C M M M
;
_chemical_formula_sum "Si O2"
_cell_formula_units_Z 88
_cell_length_a 9.232656
_cell_length_b 18.601292
_cell_length_c 29.633663
_cell_angle_alpha 90.000000
_cell_angle_beta 90.000000
_cell_angle_gamma 90.000000
_cell_volume 5089.265435
_symmetry_space_group_name_H-M "C M M M"
_symmetry_group_IT_number 65
_symmetry_cell_setting 'orthorhombic'
loop_
_space_group_symop_operation_xyz
x,y,z
-x,-y,z
x,-y,-z
-x,y,-z
-x,-y,-z
x,y,-z
-x,y,z
x,-y,z
1/2+x,1/2+y,z
1/2-x,1/2-y,z
1/2+x,1/2-y,-z
1/2-x,1/2+y,-z
1/2-x,1/2-y,-z
1/2+x,1/2+y,-z
1/2-x,1/2+y,z
1/2+x,1/2-y,z
loop_
_atom_site_type_symbol
_atom_site_label
_atom_site_fract_x
_atom_site_fract_y
_atom_site_fract_z
Si Si1 0.167801 0.583716 0.792729
Si Si2 0.658703 0.814754 0.389554
Si Si3 0.000000 0.416334 0.447447
Si Si4 0.331722 0.820423 0.710566
Si Si5 0.671758 0.580127 0.949937
Si Si6 0.173087 0.173928 0.133134
O O1 0.203956 0.500000 0.793416
O O2 0.203711 0.612270 0.742543
O O3 0.274816 0.622658 0.827001
O O4 0.000000 0.598622 0.805547
O O5 0.500000 0.781481 0.381192
O O6 0.750000 0.750000 0.411421
O O7 0.644733 0.881875 0.424420
O O8 0.720618 0.839525 0.340656
O O9 0.000000 0.500000 0.437361
O O10 0.000000 0.398371 0.500000
O O11 0.500000 0.802434 0.712455
O O12 0.250000 0.750000 0.728813
O O13 0.500000 0.577554 0.949043
O O14 0.731027 0.500000 0.938163
O O15 0.726970 0.637959 0.913697
O O16 0.726171 0.602913 0.000000
O O17 0.250000 0.250000 0.137892
O O18 0.000000 0.183080 0.135435
#
# Coordination Sequence:
#
# PCOD8272737 Si02
#       6
#    16  16   8  16  16  16
#     4  10  21  35  51  73 100 130 166 205 249 299
#     4   8  16  30  49  73 100 132 170 210 249 301
#     4   9  18  30  48  76 105 133 169 215 261 305
#     4   9  17  31  49  71  97 129 164 203 242 291
#     4   8  15  30  52  75  97 124 159 198 242 294
#     4  11  22  35  52  74 101 132 166 206 249 293
#
# _framework density 17.291297
#
# number of rings (size 3 to 8) (size 9 to 14) (size 15 to 20)
#    0.545    2.273    0.000    2.182    0.000    4.727 
#    0.000    0.000    0.000    2.182    0.000   12.727 
#    0.000    0.000    0.000    0.000    0.000    0.000 
#
# Total GULP energy -545233.012896 kJ/mol
# GULP energy per Si atom -12391.659384 kJ/mol
# Density = 1.725194 g / cm^3
# Si number density = 17.291297 Si / 1000 Ang^3
#
#
#
# Elastic Constant Matrix: (Units=GPa)
#
#
# Indices 1 2 3 4 5 6 
#
# 1 44.6642 43.5805 37.1654 0.0000 0.0000 0.0000
# 2 43.5805 138.0018 80.5777 0.0000 0.0000 0.0000
# 3 37.1654 80.5777 115.0263 0.0000 0.0000 0.0000
# 4 0.0000 0.0000 0.0000 35.8007 0.0000 0.0000
# 5 0.0000 0.0000 0.0000 0.0000 22.4767 0.0000
# 6 0.0000 0.0000 0.0000 0.0000 0.0000 19.9158
#
#
#
# Elastic Compliance Matrix: (Units=1/GPa)
#
#
# Indices 1 2 3 4 5 6 
#
# 1 0.034625 -0.007449 -0.005969 0.000000 0.000000 0.000000
# 2 -0.007449 0.013864 -0.007305 0.000000 0.000000 0.000000
# 3 -0.005969 -0.007305 0.015740 0.000000 0.000000 0.000000
# 4 0.000000 0.000000 0.000000 0.027932 0.000000 0.000000
# 5 0.000000 0.000000 0.000000 0.000000 0.044490 0.000000
# 6 0.000000 0.000000 0.000000 0.000000 0.000000 0.050212
#
#
# Mechanical properties :
#
#
# Convention : Reuss Voigt Hill
#
# Bulk Modulus (GPa) = 43.89503 68.92661 56.41082
# Shear Modulus (GPa) = 21.19512 24.72989 22.96251
#
# Velocity S-wave (km/s) = 3.50490 3.78589 3.64810
# Velocity P-wave (km/s) = 6.46682 7.68500 7.10208
#
# Compressibility (1/GPa) = 0.02278162
#
# Stress axis : x y z
#
# Youngs Moduli (GPa) = 28.88123 72.12899 63.53348
#
# Poissons Ratio (x) = 0.53729 0.37925
# Poissons Ratio (y) = 0.21514 0.46412
# Poissons Ratio (z) = 0.17240 0.52692
#
# Static dielectric constant tensor:
#      x y z
#    x 2.959640 0.000000 0.000000 
#    y 0.000000 3.210570 0.000000 
#    z 0.000000 0.000000 3.426280 
# 
# 
# High freq. dielectric constant tensor:
#      x y z
#    x 1.638560 0.000000 0.000000 
#    y 0.000000 1.663660 0.000000 
#    z 0.000000 0.000000 1.675230 
# 
# From -- ./inp_files/76813.got.cif
#   From: 2010.03.12/outbox.cif.g09.slc.cpg/sg65_39_cif.got.tgz:76813.got - 2010.04.10 20:52:16.
