data_PCOD8272831
_publ_section_title
;
Structure prediction by ZEFSAII (Michael W. Deem and Ramdas Pophale) SiO2 
 PCOD8272831
Probable space group: C M M M
;
_chemical_formula_sum "Si O2"
_cell_formula_units_Z 88
_cell_length_a 18.443843
_cell_length_b 9.047944
_cell_length_c 28.401295
_cell_angle_alpha 90.000000
_cell_angle_beta 90.000000
_cell_angle_gamma 90.000000
_cell_volume 4739.575693
_symmetry_space_group_name_H-M "C M M M"
_symmetry_group_IT_number 65
_symmetry_cell_setting 'orthorhombic'
loop_
_space_group_symop_operation_xyz
x,y,z
-x,-y,z
x,-y,-z
-x,y,-z
-x,-y,-z
x,y,-z
-x,y,z
x,-y,z
1/2+x,1/2+y,z
1/2-x,1/2-y,z
1/2+x,1/2-y,-z
1/2-x,1/2+y,-z
1/2-x,1/2-y,-z
1/2+x,1/2+y,-z
1/2-x,1/2+y,z
1/2+x,1/2-y,z
loop_
_atom_site_type_symbol
_atom_site_label
_atom_site_fract_x
_atom_site_fract_y
_atom_site_fract_z
Si Si1 0.173130 0.825796 0.000000
Si Si2 0.172335 0.175759 0.732852
Si Si3 0.417805 0.325996 0.357201
Si Si4 0.916174 0.829817 0.090527
Si Si5 0.086130 0.667067 0.551326
Si Si6 0.415171 0.171044 0.185803
O O1 0.250000 0.750000 0.000000
O O2 0.129562 0.774440 0.953955
O O3 0.183348 0.000000 0.000000
O O4 0.250000 0.250000 0.732561
O O5 0.130332 0.229187 0.686202
O O6 0.127922 0.230091 0.777553
O O7 0.180080 0.000000 0.735101
O O8 0.500000 0.267635 0.349556
O O9 0.417185 0.500000 0.361117
O O10 0.383096 0.263984 0.405665
O O11 0.893674 0.727044 0.134069
O O12 0.000000 0.809498 0.077367
O O13 0.899440 0.000000 0.103424
O O14 0.114126 0.724575 0.500000
O O15 0.112619 0.500000 0.559028
O O16 0.000000 0.675832 0.551559
O O17 0.500000 0.195149 0.195183
O O18 0.392911 0.000000 0.190639
#
# Coordination Sequence:
#
# PCOD8272831 Si02
#       6
#     8  16  16  16  16  16
#     4  10  21  35  53  79 109 142 178 216 260 310
#     4  11  23  38  55  76 105 140 177 218 265 316
#     4   9  18  32  51  75 101 131 168 210 257 309
#     4   9  18  35  58  80 104 138 179 219 258 304
#     4   8  14  25  43  70 102 132 163 203 252 303
#     4  10  21  37  58  84 110 137 174 218 264 316
#
# _framework density 18.567063000000001
#
# number of rings (size 3 to 8) (size 9 to 14) (size 15 to 20)
#    0.000    2.545    0.000    2.455    0.000    6.182 
#    0.000    5.455    0.000    3.273    0.000    0.000 
#    0.000    0.000    0.000    0.000    0.000    0.000 
#
# Total GULP energy -545566.844680 kJ/mol
# GULP energy per Si atom -12399.246470 kJ/mol
# Density = 1.852480 g / cm^3
# Si number density = 18.567063 Si / 1000 Ang^3
#
#
#
# Elastic Constant Matrix: (Units=GPa)
#
#
# Indices 1 2 3 4 5 6 
#
# 1 71.6883 36.8021 73.3914 0.0000 0.0000 0.0000
# 2 36.8021 57.2794 53.5903 0.0000 0.0000 0.0000
# 3 73.3914 53.5903 167.5240 0.0000 0.0000 0.0000
# 4 0.0000 0.0000 0.0000 32.1436 0.0000 0.0000
# 5 0.0000 0.0000 0.0000 0.0000 -0.3301 0.0000
# 6 0.0000 0.0000 0.0000 0.0000 0.0000 23.4805
#
#
#
# Elastic Compliance Matrix: (Units=1/GPa)
#
#
# Indices 1 2 3 4 5 6 
#
# 1 0.028480 -0.009455 -0.009452 0.000000 0.000000 0.000000
# 2 -0.009455 0.028054 -0.004832 0.000000 0.000000 0.000000
# 3 -0.009452 -0.004832 0.011656 0.000000 0.000000 0.000000
# 4 0.000000 0.000000 0.000000 0.031110 0.000000 0.000000
# 5 0.000000 0.000000 0.000000 0.000000 -3.029742 0.000000
# 6 0.000000 0.000000 0.000000 0.000000 0.000000 0.042589
#
#
# Mechanical properties :
#
#
# Convention : Reuss Voigt Hill
#
# Bulk Modulus (GPa) = 48.28298 69.33995 58.81146
# Shear Modulus (GPa) = -1.76462 19.90599 9.07068
#
# Velocity S-wave (km/s) = -0.97594 3.27787 2.21268
# Velocity P-wave (km/s) = 4.97907 7.19393 6.18643
#
# Compressibility (1/GPa) = 0.02071123
#
# Stress axis : x y z
#
# Youngs Moduli (GPa) = 35.11247 35.64544 85.79165
#
# Poissons Ratio (x) = 0.33702 0.81093
# Poissons Ratio (y) = 0.33198 0.41457
# Poissons Ratio (z) = 0.33189 0.17225
#
# Static dielectric constant tensor:
#      x y z
#    x 3.243020 0.000000 0.000000 
#    y 0.000000 3.387900 0.000000 
#    z 0.000000 0.000000 3.783260 
# 
# 
# High freq. dielectric constant tensor:
#      x y z
#    x 1.694480 0.000000 0.000000 
#    y 0.000000 1.717130 0.000000 
#    z 0.000000 0.000000 1.739080 
# 
# From -- ./inp_files/77940.got.cif
#   From: 2010.03.12/outbox.cif.g09.slc.cpg/sg65_39_cif.got.tgz:77940.got - 2010.04.10 20:52:16.
