data_PCOD8272635
_publ_section_title
;
Structure prediction by ZEFSAII (Michael W. Deem and Ramdas Pophale) SiO2 
 PCOD8272635
Probable space group: C M M M
;
_chemical_formula_sum "Si O2"
_cell_formula_units_Z 72
_cell_length_a 7.676020
_cell_length_b 19.147462
_cell_length_c 24.072900
_cell_angle_alpha 90.000000
_cell_angle_beta 90.000000
_cell_angle_gamma 90.000000
_cell_volume 3538.145803
_symmetry_space_group_name_H-M "C M M M"
_symmetry_group_IT_number 65
_symmetry_cell_setting 'orthorhombic'
loop_
_space_group_symop_operation_xyz
x,y,z
-x,-y,z
x,-y,-z
-x,y,-z
-x,-y,-z
x,y,-z
-x,y,z
x,-y,z
1/2+x,1/2+y,z
1/2-x,1/2-y,z
1/2+x,1/2-y,-z
1/2-x,1/2+y,-z
1/2-x,1/2-y,-z
1/2+x,1/2+y,-z
1/2-x,1/2+y,z
1/2+x,1/2-y,z
loop_
_atom_site_type_symbol
_atom_site_label
_atom_site_fract_x
_atom_site_fract_y
_atom_site_fract_z
Si Si1 0.000000 0.080360 0.565662
Si Si2 0.705327 0.828194 0.619676
Si Si3 0.798316 0.673206 0.747419
Si Si4 0.794781 0.172402 0.938459
Si Si5 0.199087 0.923725 0.843124
O O1 0.822908 0.117027 0.586489
O O2 0.000000 0.084853 0.500000
O O3 0.000000 0.000000 0.586052
O O4 0.500000 0.843979 0.610174
O O5 0.750000 0.750000 0.598981
O O6 0.761241 0.835533 0.683881
O O7 0.750000 0.750000 0.769317
O O8 0.704283 0.615587 0.784410
O O9 0.000000 0.659999 0.753942
O O10 0.750000 0.250000 0.918694
O O11 0.710163 0.120096 0.893025
O O12 0.000000 0.163083 0.940319
O O13 0.715730 0.157611 0.000000
O O14 0.000000 0.934092 0.859297
O O15 0.289499 0.000000 0.838218
#
# Coordination Sequence:
#
# PCOD8272635 Si02
#       5
#     8  16  16  16  16
#     4  11  26  44  64  96 135 173 210 256 317 372
#     4  10  21  41  67  96 126 163 215 264 311 368
#     4  10  21  36  59  85 113 147 187 238 289 341
#     4   9  18  33  52  73  99 134 181 233 283 338
#     4  10  21  34  50  77 110 146 186 227 282 345
#
# _framework density 20.349643
#
# number of rings (size 3 to 8) (size 9 to 14) (size 15 to 20)
#    0.000    2.111    1.111    1.333    3.111    5.778 
#    0.000    5.556    0.000    0.000    0.000    4.667 
#    0.000    0.000    0.000    0.000    0.000    0.000 
#
# Total GULP energy -446315.481988 kJ/mol
# GULP energy per Si atom -12397.652277 kJ/mol
# Density = 2.030333 g / cm^3
# Si number density = 20.349643 Si / 1000 Ang^3
#
#
#
# Elastic Constant Matrix: (Units=GPa)
#
#
# Indices 1 2 3 4 5 6 
#
# 1 67.5843 37.5346 26.7380 0.0000 0.0000 0.0000
# 2 37.5346 187.3061 83.5499 0.0000 0.0000 0.0000
# 3 26.7380 83.5499 97.4782 0.0000 0.0000 0.0000
# 4 0.0000 0.0000 0.0000 65.6673 0.0000 0.0000
# 5 0.0000 0.0000 0.0000 0.0000 17.6787 0.0000
# 6 0.0000 0.0000 0.0000 0.0000 0.0000 23.9953
#
#
#
# Elastic Compliance Matrix: (Units=1/GPa)
#
#
# Indices 1 2 3 4 5 6 
#
# 1 0.017122 -0.002163 -0.002842 0.000000 0.000000 0.000000
# 2 -0.002163 0.008917 -0.007049 0.000000 0.000000 0.000000
# 3 -0.002842 -0.007049 0.017080 0.000000 0.000000 0.000000
# 4 0.000000 0.000000 0.000000 0.015228 0.000000 0.000000
# 5 0.000000 0.000000 0.000000 0.000000 0.056565 0.000000
# 6 0.000000 0.000000 0.000000 0.000000 0.000000 0.041675
#
#
# Mechanical properties :
#
#
# Convention : Reuss Voigt Hill
#
# Bulk Modulus (GPa) = 52.60529 72.00151 62.30340
# Shear Modulus (GPa) = 26.73303 35.10465 30.91884
#
# Velocity S-wave (km/s) = 3.62841 4.15791 3.90215
# Velocity P-wave (km/s) = 6.59247 7.64918 7.14040
#
# Compressibility (1/GPa) = 0.01900949
#
# Stress axis : x y z
#
# Youngs Moduli (GPa) = 58.40335 112.14814 58.54652
#
# Poissons Ratio (x) = 0.24261 0.16641
# Poissons Ratio (y) = 0.12634 0.41271
# Poissons Ratio (z) = 0.16601 0.79057
#
# Static dielectric constant tensor:
#      x y z
#    x 3.580320 0.000000 0.000000 
#    y 0.000000 3.904150 0.000000 
#    z 0.000000 0.000000 3.821480 
# 
# 
# High freq. dielectric constant tensor:
#      x y z
#    x 1.789520 0.000000 0.000000 
#    y 0.000000 1.793580 0.000000 
#    z 0.000000 0.000000 1.795190 
# 
# From -- ./inp_files/67019.got.cif
#   From: 2010.03.12/outbox.cif.g09.slc.cpg/sg65_34_cif.got.tgz:67019.got - 2010.04.10 20:52:16.
