data_PCOD8272380
_publ_section_title
;
Structure prediction by ZEFSAII (Michael W. Deem and Ramdas Pophale) SiO2 
 PCOD8272380
Probable space group: C M M M
;
_chemical_formula_sum "Si O2"
_cell_formula_units_Z 88
_cell_length_a 27.874731
_cell_length_b 14.078979
_cell_length_c 11.783920
_cell_angle_alpha 90.000000
_cell_angle_beta 90.000000
_cell_angle_gamma 90.000000
_cell_volume 4624.572918
_symmetry_space_group_name_H-M "C M M M"
_symmetry_group_IT_number 65
_symmetry_cell_setting 'orthorhombic'
loop_
_space_group_symop_operation_xyz
x,y,z
-x,-y,z
x,-y,-z
-x,y,-z
-x,-y,-z
x,y,-z
-x,y,z
x,-y,z
1/2+x,1/2+y,z
1/2-x,1/2-y,z
1/2+x,1/2-y,-z
1/2-x,1/2+y,-z
1/2-x,1/2-y,-z
1/2+x,1/2+y,-z
1/2-x,1/2+y,z
1/2+x,1/2-y,z
loop_
_atom_site_type_symbol
_atom_site_label
_atom_site_fract_x
_atom_site_fract_y
_atom_site_fract_z
Si Si1 0.054935 0.361769 0.000000
Si Si2 0.366570 0.893453 0.178901
Si Si3 0.301716 0.730149 0.874344
Si Si4 0.000000 0.394058 0.632769
Si Si5 0.907184 0.721627 0.633540
Si Si6 0.445406 0.361840 0.000000
Si Si7 0.615993 0.607005 0.220776
O O1 0.082433 0.396928 0.887154
O O2 0.055015 0.249854 0.000000
O O3 0.000000 0.400575 0.000000
O O4 0.329214 0.830185 0.109192
O O5 0.367989 0.843004 0.302631
O O6 0.347031 0.000000 0.193840
O O7 0.250000 0.750000 0.815386
O O8 0.332054 0.652552 0.804761
O O9 0.293347 0.687653 0.000000
O O10 0.044472 0.331012 0.669917
O O11 0.000000 0.500000 0.689301
O O12 0.000000 0.409597 0.500000
O O13 0.896968 0.723287 0.500000
O O14 0.908822 0.829168 0.681286
O O15 0.417656 0.397968 0.110561
O O16 0.500000 0.401248 0.000000
O O17 0.623097 0.500000 0.266968
#
# Coordination Sequence:
#
# PCOD8272380 Si02
#       7
#     8  16  16   8  16   8  16
#     4  11  21  35  55  81 119 156 185 223 276 334
#     4  11  21  35  56  84 115 147 186 228 277 339
#     4  10  20  37  57  83 118 148 178 227 288 345
#     4   9  18  34  55  78 107 148 197 238 277 328
#     4  10  22  38  54  79 114 152 194 239 278 325
#     4  11  21  37  57  81 115 154 194 232 275 331
#     4  11  22  38  60  85 113 150 195 238 285 339
#
# _framework density 19.028784000000002
#
# number of rings (size 3 to 8) (size 9 to 14) (size 15 to 20)
#    0.000    1.545    5.455    1.091    2.545    3.636 
#    0.000    1.818    0.000   10.364    0.000   10.182 
#    0.000    0.000    0.000    0.000    0.000    0.000 
#
# Total GULP energy -545319.552001 kJ/mol
# GULP energy per Si atom -12393.626182 kJ/mol
# Density = 1.898547 g / cm^3
# Si number density = 19.028784 Si / 1000 Ang^3
#
#
#
# Elastic Constant Matrix: (Units=GPa)
#
#
# Indices 1 2 3 4 5 6 
#
# 1 114.6273 39.1058 22.2478 0.0000 0.0000 0.0000
# 2 39.1058 169.5465 31.9462 0.0000 0.0000 0.0000
# 3 22.2478 31.9462 100.8030 0.0000 0.0000 0.0000
# 4 0.0000 0.0000 0.0000 18.2703 0.0000 0.0000
# 5 0.0000 0.0000 0.0000 0.0000 16.6308 0.0000
# 6 0.0000 0.0000 0.0000 0.0000 0.0000 8.6354
#
#
#
# Elastic Compliance Matrix: (Units=1/GPa)
#
#
# Indices 1 2 3 4 5 6 
#
# 1 0.009683 -0.001947 -0.001520 0.000000 0.000000 0.000000
# 2 -0.001947 0.006664 -0.001682 0.000000 0.000000 0.000000
# 3 -0.001520 -0.001682 0.010789 0.000000 0.000000 0.000000
# 4 0.000000 0.000000 0.000000 0.054734 0.000000 0.000000
# 5 0.000000 0.000000 0.000000 0.000000 0.060129 0.000000
# 6 0.000000 0.000000 0.000000 0.000000 0.000000 0.115802
#
#
# Mechanical properties :
#
#
# Convention : Reuss Voigt Hill
#
# Bulk Modulus (GPa) = 59.39101 63.50850 61.44976
# Shear Modulus (GPa) = 18.26730 28.15242 23.20986
#
# Velocity S-wave (km/s) = 3.10172 3.85055 3.49624
# Velocity P-wave (km/s) = 6.64127 7.29496 6.97578
#
# Compressibility (1/GPa) = 0.01683756
#
# Stress axis : x y z
#
# Youngs Moduli (GPa) = 103.27175 150.05694 92.68721
#
# Poissons Ratio (x) = 0.29216 0.14089
# Poissons Ratio (y) = 0.20107 0.15592
# Poissons Ratio (z) = 0.15698 0.25244
#
# Static dielectric constant tensor:
#      x y z
#    x 3.631370 0.000000 0.000000 
#    y 0.000000 3.598610 0.000000 
#    z 0.000000 0.000000 3.290140 
# 
# 
# High freq. dielectric constant tensor:
#      x y z
#    x 1.723020 0.000000 0.000000 
#    y 0.000000 1.749270 0.000000 
#    z 0.000000 0.000000 1.721020 
# 
# From -- ./inp_files/32258.got.cif
#   From: 2010.03.12/outbox.cif.g09.slc.cpg/sg65_17_cif.got.tgz:32258.got - 2010.04.10 20:52:16.
