data_PCOD8272473
_publ_section_title
;
Structure prediction by ZEFSAII (Michael W. Deem and Ramdas Pophale) SiO2 
 PCOD8272473
Probable space group: C M M M
;
_chemical_formula_sum "Si O2"
_cell_formula_units_Z 64
_cell_length_a 35.648869
_cell_length_b 11.762819
_cell_length_c 8.023216
_cell_angle_alpha 90.000000
_cell_angle_beta 90.000000
_cell_angle_gamma 90.000000
_cell_volume 3364.384742
_symmetry_space_group_name_H-M "C M M M"
_symmetry_group_IT_number 65
_symmetry_cell_setting 'orthorhombic'
loop_
_space_group_symop_operation_xyz
x,y,z
-x,-y,z
x,-y,-z
-x,y,-z
-x,-y,-z
x,y,-z
-x,y,z
x,-y,z
1/2+x,1/2+y,z
1/2-x,1/2-y,z
1/2+x,1/2-y,-z
1/2-x,1/2+y,-z
1/2-x,1/2-y,-z
1/2+x,1/2+y,-z
1/2-x,1/2+y,z
1/2+x,1/2-y,z
loop_
_atom_site_type_symbol
_atom_site_label
_atom_site_fract_x
_atom_site_fract_y
_atom_site_fract_z
Si Si1 0.541450 0.633306 0.188778
Si Si2 0.904970 0.303014 0.313319
Si Si3 0.723519 0.136875 0.500000
Si Si4 0.958083 0.500000 0.804696
Si Si5 0.171071 0.369945 0.185398
O O1 0.500000 0.670694 0.251902
O O2 0.545209 0.500000 0.196716
O O3 0.574434 0.681936 0.304070
O O4 0.546965 0.677344 0.000000
O O5 0.892435 0.332252 0.500000
O O6 0.935863 0.390108 0.251468
O O7 0.867076 0.298584 0.205133
O O8 0.750000 0.250000 0.500000
O O9 0.700595 0.156994 0.669758
O O10 0.738514 0.000000 0.500000
O O11 0.000000 0.500000 0.725847
O O12 0.961466 0.500000 0.000000
O O13 0.158376 0.500000 0.198834
O O14 0.188035 0.343751 0.000000
#
# Coordination Sequence:
#
# PCOD8272473 Si02
#       5
#    16  16   8   8  16
#     4   9  19  36  54  71  99 146 201 251 299 352
#     4  12  22  33  53  81 113 147 195 246 295 350
#     4  10  22  42  68  98 128 159 194 240 295 366
#     4  11  23  35  49  75 113 155 199 248 299 345
#     4  10  20  37  62  90 121 158 195 236 290 357
#
# _framework density 19.022794999999999
#
# number of rings (size 3 to 8) (size 9 to 14) (size 15 to 20)
#    0.000    1.625    2.500    4.125    0.000    5.500 
#    0.000    2.500    0.000    1.500    0.000    0.000 
#    0.000    0.000    0.000    0.000    0.000    0.000 
#
# Total GULP energy -396484.889553 kJ/mol
# GULP energy per Si atom -12390.152799 kJ/mol
# Density = 1.897950 g / cm^3
# Si number density = 19.022795 Si / 1000 Ang^3
#
#
#
# Elastic Constant Matrix: (Units=GPa)
#
#
# Indices 1 2 3 4 5 6 
#
# 1 99.0966 49.9738 51.1825 0.0000 0.0000 0.0000
# 2 49.9738 70.2136 27.8826 0.0000 0.0000 0.0000
# 3 51.1825 27.8826 125.3351 0.0000 0.0000 0.0000
# 4 0.0000 0.0000 0.0000 -53.7076 0.0000 0.0000
# 5 0.0000 0.0000 0.0000 0.0000 27.9595 0.0000
# 6 0.0000 0.0000 0.0000 0.0000 0.0000 22.5934
#
#
#
# Elastic Compliance Matrix: (Units=1/GPa)
#
#
# Indices 1 2 3 4 5 6 
#
# 1 0.018204 -0.010974 -0.004993 0.000000 0.000000 0.000000
# 2 -0.010974 0.022238 -0.000466 0.000000 0.000000 0.000000
# 3 -0.004993 -0.000466 0.010121 0.000000 0.000000 0.000000
# 4 0.000000 0.000000 0.000000 -0.018619 0.000000 0.000000
# 5 0.000000 0.000000 0.000000 0.000000 0.035766 0.000000
# 6 0.000000 0.000000 0.000000 0.000000 0.000000 0.044261
#
#
# Mechanical properties :
#
#
# Convention : Reuss Voigt Hill
#
# Bulk Modulus (GPa) = 56.50254 61.41370 58.95812
# Shear Modulus (GPa) = 33.17114 10.40948 21.79031
#
# Velocity S-wave (km/s) = 4.18036 2.34179 3.38817
# Velocity P-wave (km/s) = 7.28475 6.29812 6.80933
#
# Compressibility (1/GPa) = 0.01769832
#
# Stress axis : x y z
#
# Youngs Moduli (GPa) = 54.93372 44.96864 98.80447
#
# Poissons Ratio (x) = 0.49348 0.49328
# Poissons Ratio (y) = 0.60283 0.04602
# Poissons Ratio (z) = 0.27426 0.02095
#
# Static dielectric constant tensor:
#      x y z
#    x 3.371470 0.000000 0.000000 
#    y 0.000000 3.667020 0.000000 
#    z 0.000000 0.000000 3.739360 
# 
# 
# High freq. dielectric constant tensor:
#      x y z
#    x 1.718690 0.000000 0.000000 
#    y 0.000000 1.729300 0.000000 
#    z 0.000000 0.000000 1.751860 
# 
# From -- ./inp_files/4974.got.cif
#   From: 2010.03.12/outbox.cif.g09.slc.cpg/sg65_3_cif.got.tgz:4974.got - 2010.04.10 20:52:16.
