data_PCOD8272578
_publ_section_title
;
Structure prediction by ZEFSAII (Michael W. Deem and Ramdas Pophale) SiO2 
 PCOD8272578
Probable space group: C M M M
;
_chemical_formula_sum "Si O2"
_cell_formula_units_Z 112
_cell_length_a 14.285091
_cell_length_b 24.585275
_cell_length_c 17.624489
_cell_angle_alpha 90.000000
_cell_angle_beta 90.000000
_cell_angle_gamma 90.000000
_cell_volume 6189.771483
_symmetry_space_group_name_H-M "C M M M"
_symmetry_group_IT_number 65
_symmetry_cell_setting 'orthorhombic'
loop_
_space_group_symop_operation_xyz
x,y,z
-x,-y,z
x,-y,-z
-x,y,-z
-x,-y,-z
x,y,-z
-x,y,z
x,-y,z
1/2+x,1/2+y,z
1/2-x,1/2-y,z
1/2+x,1/2-y,-z
1/2-x,1/2+y,-z
1/2-x,1/2-y,-z
1/2+x,1/2+y,-z
1/2-x,1/2+y,z
1/2+x,1/2-y,z
loop_
_atom_site_type_symbol
_atom_site_label
_atom_site_fract_x
_atom_site_fract_y
_atom_site_fract_z
Si Si1 0.892422 0.717893 0.414210
Si Si2 0.894108 0.733139 0.089525
Si Si3 0.278456 0.331217 0.145880
Si Si4 0.104055 0.438161 0.229539
Si Si5 0.223547 0.560760 0.086788
Si Si6 0.604748 0.654248 0.413496
Si Si7 0.765548 0.644475 0.690064
O O1 0.864757 0.700315 0.500000
O O2 0.876200 0.781775 0.404761
O O3 0.828110 0.687967 0.353883
O O4 0.000000 0.702666 0.398478
O O5 0.826677 0.687108 0.123082
O O6 0.858624 0.792786 0.113202
O O7 0.000000 0.724770 0.119969
O O8 0.890570 0.728917 0.000000
O O9 0.296507 0.392074 0.112509
O O10 0.282551 0.328334 0.236626
O O11 0.106372 0.500000 0.257329
O O12 0.133871 0.433611 0.141450
O O13 0.172375 0.406497 0.285701
O O14 0.000000 0.413766 0.235988
O O15 0.268457 0.500000 0.096069
O O16 0.191385 0.569988 0.000000
O O17 0.616970 0.635721 0.500000
O O18 0.500000 0.639920 0.385430
O O19 0.681020 0.622793 0.362825
#
# Coordination Sequence:
#
# PCOD8272578 Si02
#       7
#    16  16  16  16  16  16  16
#     4   9  18  31  48  72 101 131 162 196 236 289
#     4  10  21  36  51  66  95 140 175 204 247 298
#     4  10  21  33  48  76 104 128 168 214 251 300
#     4   9  19  34  49  71 103 132 162 202 248 298
#     4   9  17  31  53  75  97 131 172 215 260 300
#     4   9  19  34  51  73 101 131 163 202 245 290
#     4  11  20  30  50  75  98 132 163 198 248 298
#
# _framework density 18.094366999999998
#
# number of rings (size 3 to 8) (size 9 to 14) (size 15 to 20)
#    0.000    2.429    0.000    3.857    4.000    4.857 
#    0.000    1.429    0.000    2.571    0.000   12.000 
#    0.000    0.000    0.000    0.000    0.000    0.286 
#
# Total GULP energy -694217.572474 kJ/mol
# GULP energy per Si atom -12396.742366 kJ/mol
# Density = 1.805318 g / cm^3
# Si number density = 18.094367 Si / 1000 Ang^3
#
#
#
# Elastic Constant Matrix: (Units=GPa)
#
#
# Indices 1 2 3 4 5 6 
#
# 1 74.1515 11.3386 45.6788 0.0000 0.0000 0.0000
# 2 11.3386 57.3329 25.2389 0.0000 0.0000 0.0000
# 3 45.6788 25.2389 102.8623 0.0000 0.0000 0.0000
# 4 0.0000 0.0000 0.0000 24.6941 0.0000 0.0000
# 5 0.0000 0.0000 0.0000 0.0000 27.1664 0.0000
# 6 0.0000 0.0000 0.0000 0.0000 0.0000 18.6443
#
#
#
# Elastic Compliance Matrix: (Units=1/GPa)
#
#
# Indices 1 2 3 4 5 6 
#
# 1 0.018564 -0.000047 -0.008232 0.000000 0.000000 0.000000
# 2 -0.000047 0.019554 -0.004777 0.000000 0.000000 0.000000
# 3 -0.008232 -0.004777 0.014550 0.000000 0.000000 0.000000
# 4 0.000000 0.000000 0.000000 0.040495 0.000000 0.000000
# 5 0.000000 0.000000 0.000000 0.000000 0.036810 0.000000
# 6 0.000000 0.000000 0.000000 0.000000 0.000000 0.053636
#
#
# Mechanical properties :
#
#
# Convention : Reuss Voigt Hill
#
# Bulk Modulus (GPa) = 37.65777 44.31769 40.98773
# Shear Modulus (GPa) = 22.87546 24.24033 23.55789
#
# Velocity S-wave (km/s) = 3.55946 3.66411 3.61216
# Velocity P-wave (km/s) = 6.14411 6.51511 6.33233
#
# Compressibility (1/GPa) = 0.02655494
#
# Stress axis : x y z
#
# Youngs Moduli (GPa) = 53.86633 51.13976 68.73015
#
# Poissons Ratio (x) = 0.00242 0.56582
# Poissons Ratio (y) = 0.00255 0.32832
# Poissons Ratio (z) = 0.44345 0.24429
#
# Static dielectric constant tensor:
#      x y z
#    x 3.403870 0.000000 0.000000 
#    y 0.000000 3.321870 0.000000 
#    z 0.000000 0.000000 3.478770 
# 
# 
# High freq. dielectric constant tensor:
#      x y z
#    x 1.689420 0.000000 0.000000 
#    y 0.000000 1.681370 0.000000 
#    z 0.000000 0.000000 1.709100 
# 
# From -- ./inp_files/41161.got.cif
#   From: 2010.03.12/outbox.cif.g09.slc.cpg/sg65_21_cif.got.tgz:41161.got - 2010.04.10 20:52:16.
