data_PCOD8272980
_publ_section_title
;
Structure prediction by ZEFSAII (Michael W. Deem and Ramdas Pophale) SiO2 
 PCOD8272980
Probable space group: C M M M
;
_chemical_formula_sum "Si O2"
_cell_formula_units_Z 104
_cell_length_a 29.139293
_cell_length_b 8.554279
_cell_length_c 20.603613
_cell_angle_alpha 90.000000
_cell_angle_beta 90.000000
_cell_angle_gamma 90.000000
_cell_volume 5135.772826
_symmetry_space_group_name_H-M "C M M M"
_symmetry_group_IT_number 65
_symmetry_cell_setting 'orthorhombic'
loop_
_space_group_symop_operation_xyz
x,y,z
-x,-y,z
x,-y,-z
-x,y,-z
-x,-y,-z
x,y,-z
-x,y,z
x,-y,z
1/2+x,1/2+y,z
1/2-x,1/2-y,z
1/2+x,1/2-y,-z
1/2-x,1/2+y,-z
1/2-x,1/2-y,-z
1/2+x,1/2+y,-z
1/2-x,1/2+y,z
1/2+x,1/2-y,z
loop_
_atom_site_type_symbol
_atom_site_label
_atom_site_fract_x
_atom_site_fract_y
_atom_site_fract_z
Si Si1 0.299530 0.315004 0.269709
Si Si2 0.797615 0.316865 0.869823
Si Si3 0.551661 0.817138 0.320498
Si Si4 0.198897 0.181135 0.500000
Si Si5 0.449084 0.684754 0.184001
Si Si6 0.856773 0.681448 0.617772
Si Si7 0.382852 0.318272 0.072395
O O1 0.301733 0.500000 0.281061
O O2 0.250000 0.250000 0.289919
O O3 0.311107 0.274391 0.195715
O O4 0.336476 0.226843 0.313012
O O5 0.792835 0.500000 0.855263
O O6 0.750000 0.250000 0.897460
O O7 0.836155 0.280721 0.922882
O O8 0.500000 0.760878 0.340561
O O9 0.569051 0.734668 0.254624
O O10 0.588421 0.778415 0.377721
O O11 0.551744 0.000000 0.306210
O O12 0.250000 0.250000 0.500000
O O13 0.168910 0.223904 0.562326
O O14 0.207450 0.000000 0.500000
O O15 0.500000 0.754024 0.173955
O O16 0.449655 0.500000 0.180288
O O17 0.417988 0.750734 0.125609
O O18 0.849186 0.500000 0.602842
O O19 0.372178 0.500000 0.085491
O O20 0.403161 0.294329 0.000000
#
# Coordination Sequence:
#
# PCOD8272980 Si02
#       7
#    16  16  16   8  16  16  16
#     4  11  21  35  56  83 113 143 181 228 280 335
#     4  11  22  37  56  78 105 138 180 230 283 337
#     4   9  19  36  59  86 114 146 185 229 277 329
#     4  12  26  44  63  86 119 157 196 233 275 328
#     4   9  18  33  55  83 113 145 182 227 278 330
#     4  11  22  38  60  86 117 153 192 232 276 325
#     4  10  21  36  53  75 106 144 185 228 277 336
#
# _framework density 20.250115999999998
#
# number of rings (size 3 to 8) (size 9 to 14) (size 15 to 20)
#    0.000    1.692    0.000    6.231    0.000    5.231 
#    0.000    1.923    0.000    2.308    0.000    3.231 
#    0.000    0.000    0.000    0.000    0.000    0.000 
#
# Total GULP energy -644783.813094 kJ/mol
# GULP energy per Si atom -12399.688713 kJ/mol
# Density = 2.020403 g / cm^3
# Si number density = 20.250116 Si / 1000 Ang^3
#
#
#
# Elastic Constant Matrix: (Units=GPa)
#
#
# Indices 1 2 3 4 5 6 
#
# 1 123.5570 33.5268 65.6464 0.0000 0.0000 0.0000
# 2 33.5268 69.3895 24.5964 0.0000 0.0000 0.0000
# 3 65.6464 24.5964 78.7129 0.0000 0.0000 0.0000
# 4 0.0000 0.0000 0.0000 27.7134 0.0000 0.0000
# 5 0.0000 0.0000 0.0000 0.0000 28.8003 0.0000
# 6 0.0000 0.0000 0.0000 0.0000 0.0000 26.0223
#
#
#
# Elastic Compliance Matrix: (Units=1/GPa)
#
#
# Indices 1 2 3 4 5 6 
#
# 1 0.015137 -0.003192 -0.011627 0.000000 0.000000 0.000000
# 2 -0.003192 0.016880 -0.002612 0.000000 0.000000 0.000000
# 3 -0.011627 -0.002612 0.023217 0.000000 0.000000 0.000000
# 4 0.000000 0.000000 0.000000 0.036084 0.000000 0.000000
# 5 0.000000 0.000000 0.000000 0.000000 0.034722 0.000000
# 6 0.000000 0.000000 0.000000 0.000000 0.000000 0.038429
#
#
# Mechanical properties :
#
#
# Convention : Reuss Voigt Hill
#
# Bulk Modulus (GPa) = 49.08799 57.68873 53.38836
# Shear Modulus (GPa) = 24.25759 26.36651 25.31205
#
# Velocity S-wave (km/s) = 3.46482 3.61230 3.53933
# Velocity P-wave (km/s) = 6.34824 6.77851 6.56690
#
# Compressibility (1/GPa) = 0.02037158
#
# Stress axis : x y z
#
# Youngs Moduli (GPa) = 66.06342 59.24236 43.07146
#
# Poissons Ratio (x) = 0.18913 0.50078
# Poissons Ratio (y) = 0.21090 0.11251
# Poissons Ratio (z) = 0.76809 0.15475
#
# Static dielectric constant tensor:
#      x y z
#    x 2.681780 0.000000 0.000000 
#    y 0.000000 3.603150 0.000000 
#    z 0.000000 0.000000 3.546160 
# 
# 
# High freq. dielectric constant tensor:
#      x y z
#    x 1.803150 0.000000 0.000000 
#    y 0.000000 1.788400 0.000000 
#    z 0.000000 0.000000 1.775480 
# 
# From -- ./inp_files/65848.got.cif
#   From: 2010.03.12/outbox.cif.g09.slc.cpg/sg65_33_cif.got.tgz:65848.got - 2010.04.10 20:52:16.
