data_PCOD8272116
_publ_section_title
;
Structure prediction by ZEFSAII (Michael W. Deem and Ramdas Pophale) SiO2 
 PCOD8272116
Probable space group: C M M M
;
_chemical_formula_sum "Si O2"
_cell_formula_units_Z 96
_cell_length_a 29.257948
_cell_length_b 13.638919
_cell_length_c 11.638252
_cell_angle_alpha 90.000000
_cell_angle_beta 90.000000
_cell_angle_gamma 90.000000
_cell_volume 4644.207019
_symmetry_space_group_name_H-M "C M M M"
_symmetry_group_IT_number 65
_symmetry_cell_setting 'orthorhombic'
loop_
_space_group_symop_operation_xyz
x,y,z
-x,-y,z
x,-y,-z
-x,y,-z
-x,-y,-z
x,y,-z
-x,y,z
x,-y,z
1/2+x,1/2+y,z
1/2-x,1/2-y,z
1/2+x,1/2-y,-z
1/2-x,1/2+y,-z
1/2-x,1/2-y,-z
1/2+x,1/2+y,-z
1/2-x,1/2+y,z
1/2+x,1/2-y,z
loop_
_atom_site_type_symbol
_atom_site_label
_atom_site_fract_x
_atom_site_fract_y
_atom_site_fract_z
Si Si1 0.750000 0.250000 0.204956
Si Si2 0.860697 0.885209 0.000000
Si Si3 0.077893 0.699155 0.231465
Si Si4 0.409820 0.390987 0.632228
Si Si5 0.679985 0.391884 0.241009
Si Si6 0.500000 0.111821 0.376233
Si Si7 0.049859 0.229262 0.000000
Si Si8 0.831535 0.383775 0.869747
O O1 0.719827 0.320783 0.285102
O O2 0.783456 0.324246 0.134955
O O3 0.837991 0.845365 0.118287
O O4 0.913480 0.857270 0.000000
O O5 0.857978 0.000000 0.000000
O O6 0.070848 0.808801 0.283503
O O7 0.055156 0.699073 0.107553
O O8 0.130541 0.660752 0.220094
O O9 0.047277 0.630505 0.310106
O O10 0.418112 0.362135 0.500000
O O11 0.430858 0.500000 0.657942
O O12 0.356050 0.395957 0.657086
O O13 0.699283 0.500000 0.215740
O O14 0.500000 0.168332 0.500000
O O15 0.500000 0.000000 0.404584
O O16 0.000000 0.179580 0.000000
O O17 0.823854 0.500000 0.843101
O O18 0.850310 0.370382 0.000000
#
# Coordination Sequence:
#
# PCOD8272116 Si02
#       8
#     8   8  16  16  16   8   8  16
#     4  12  21  36  57  88 126 170 213 263 322 374
#     4  10  20  36  55  82 119 160 202 249 306 371
#     4  12  22  43  66  95 130 168 210 267 327 389
#     4  10  21  39  64  90 119 162 212 260 313 375
#     4  10  21  35  57  85 117 159 208 255 311 379
#     4  11  26  47  72  98 125 169 225 272 321 385
#     4  12  22  35  59  92 127 163 200 246 321 394
#     4  11  24  38  59  93 132 172 216 266 324 388
#
# _framework density 20.670912999999999
#
# number of rings (size 3 to 8) (size 9 to 14) (size 15 to 20)
#    0.000    1.083    5.000    1.750    2.333    0.167 
#    0.000    1.250    0.000    1.500    0.000    0.000 
#    0.000    0.000    0.000    0.000    0.000    0.000 
#
# Total GULP energy -594654.368342 kJ/mol
# GULP energy per Si atom -12388.632674 kJ/mol
# Density = 2.062387 g / cm^3
# Si number density = 20.670913 Si / 1000 Ang^3
#
#
#
# Elastic Constant Matrix: (Units=GPa)
#
#
# Indices 1 2 3 4 5 6 
#
# 1 104.5237 42.8109 23.2801 0.0000 0.0000 0.0000
# 2 42.8109 96.6603 37.0813 0.0000 0.0000 0.0000
# 3 23.2801 37.0813 99.2425 0.0000 0.0000 0.0000
# 4 0.0000 0.0000 0.0000 23.8953 0.0000 0.0000
# 5 0.0000 0.0000 0.0000 0.0000 7.4143 0.0000
# 6 0.0000 0.0000 0.0000 0.0000 0.0000 38.0222
#
#
#
# Elastic Compliance Matrix: (Units=1/GPa)
#
#
# Indices 1 2 3 4 5 6 
#
# 1 0.011763 -0.004846 -0.000949 0.000000 0.000000 0.000000
# 2 -0.004846 0.014073 -0.004121 0.000000 0.000000 0.000000
# 3 -0.000949 -0.004121 0.011839 0.000000 0.000000 0.000000
# 4 0.000000 0.000000 0.000000 0.041849 0.000000 0.000000
# 5 0.000000 0.000000 0.000000 0.000000 0.134874 0.000000
# 6 0.000000 0.000000 0.000000 0.000000 0.000000 0.026300
#
#
# Mechanical properties :
#
#
# Convention : Reuss Voigt Hill
#
# Bulk Modulus (GPa) = 56.04558 56.30790 56.17674
# Shear Modulus (GPa) = 18.76320 27.01663 22.88991
#
# Velocity S-wave (km/s) = 3.01609 3.61915 3.33130
# Velocity P-wave (km/s) = 6.26907 6.69056 6.48324
#
# Compressibility (1/GPa) = 0.01784262
#
# Stress axis : x y z
#
# Youngs Moduli (GPa) = 85.00966 71.05837 84.46770
#
# Poissons Ratio (x) = 0.34435 0.08014
# Poissons Ratio (y) = 0.41196 0.34813
# Poissons Ratio (z) = 0.08065 0.29287
#
# Static dielectric constant tensor:
#      x y z
#    x 3.709750 0.000000 0.000000 
#    y 0.000000 3.980610 0.000000 
#    z 0.000000 0.000000 3.719200 
# 
# 
# High freq. dielectric constant tensor:
#      x y z
#    x 1.800350 0.000000 0.000000 
#    y 0.000000 1.825970 0.000000 
#    z 0.000000 0.000000 1.785160 
# 
# From -- ./inp_files/33934.got.cif
#   From: 2010.03.12/outbox.cif.g09.slc.cpg/sg65_17_cif.got.tgz:33934.got - 2010.04.10 20:52:16.
