data_PCOD8272543
_publ_section_title
;
Structure prediction by ZEFSAII (Michael W. Deem and Ramdas Pophale) SiO2 
 PCOD8272543
Probable space group: C M M M
;
_chemical_formula_sum "Si O2"
_cell_formula_units_Z 72
_cell_length_a 15.958369
_cell_length_b 7.860385
_cell_length_c 28.046938
_cell_angle_alpha 90.000000
_cell_angle_beta 90.000000
_cell_angle_gamma 90.000000
_cell_volume 3518.177733
_symmetry_space_group_name_H-M "C M M M"
_symmetry_group_IT_number 65
_symmetry_cell_setting 'orthorhombic'
loop_
_space_group_symop_operation_xyz
x,y,z
-x,-y,z
x,-y,-z
-x,y,-z
-x,-y,-z
x,y,-z
-x,y,z
x,-y,z
1/2+x,1/2+y,z
1/2-x,1/2-y,z
1/2+x,1/2-y,-z
1/2-x,1/2+y,-z
1/2-x,1/2-y,-z
1/2+x,1/2+y,-z
1/2-x,1/2+y,z
1/2+x,1/2-y,z
loop_
_atom_site_type_symbol
_atom_site_label
_atom_site_fract_x
_atom_site_fract_y
_atom_site_fract_z
Si Si1 0.000000 0.704281 0.280759
Si Si2 0.659428 0.300953 0.446776
Si Si3 0.657488 0.801124 0.222211
Si Si4 0.342952 0.798432 0.886852
Si Si5 0.593460 0.500000 0.948846
Si Si6 0.500000 0.195372 0.386373
O O1 0.083647 0.777502 0.254880
O O2 0.000000 0.500000 0.279563
O O3 0.000000 0.782584 0.334288
O O4 0.651067 0.220836 0.500000
O O5 0.652275 0.500000 0.450091
O O6 0.750000 0.250000 0.424751
O O7 0.583997 0.237431 0.414628
O O8 0.750000 0.750000 0.240641
O O9 0.642049 0.743625 0.167923
O O10 0.651100 0.000000 0.225443
O O11 0.250000 0.750000 0.901802
O O12 0.396982 0.674975 0.919421
O O13 0.361771 0.000000 0.895490
O O14 0.500000 0.500000 0.965164
O O15 0.644522 0.500000 0.000000
O O16 0.500000 0.000000 0.375468
#
# Coordination Sequence:
#
# PCOD8272543 Si02
#       6
#     8  16  16  16   8   8
#     4   9  20  38  56  83 116 155 192 232 301 355
#     4  10  21  38  60  84 113 153 200 248 294 348
#     4   9  19  36  59  84 112 145 194 245 287 350
#     4  10  20  39  65  90 116 157 202 246 298 356
#     4  11  26  42  58  90 129 157 195 251 300 362
#     4  11  22  36  57  84 122 158 191 240 298 360
#
# _framework density 20.465140000000002
#
# number of rings (size 3 to 8) (size 9 to 14) (size 15 to 20)
#    0.000    2.111    1.111    1.333    3.111    4.889 
#    0.000    6.111    0.000    0.000    0.000    0.000 
#    0.000    0.000    0.000    0.000    0.000    0.000 
#
# Total GULP energy -446072.744029 kJ/mol
# GULP energy per Si atom -12390.909556 kJ/mol
# Density = 2.041856 g / cm^3
# Si number density = 20.465140 Si / 1000 Ang^3
#
#
#
# Elastic Constant Matrix: (Units=GPa)
#
#
# Indices 1 2 3 4 5 6 
#
# 1 165.9925 20.8785 89.9742 0.0000 0.0000 0.0000
# 2 20.8785 63.8809 33.8495 0.0000 0.0000 0.0000
# 3 89.9742 33.8495 131.7602 0.0000 0.0000 0.0000
# 4 0.0000 0.0000 0.0000 21.2467 0.0000 0.0000
# 5 0.0000 0.0000 0.0000 0.0000 6.2737 0.0000
# 6 0.0000 0.0000 0.0000 0.0000 0.0000 30.8114
#
#
#
# Elastic Compliance Matrix: (Units=1/GPa)
#
#
# Indices 1 2 3 4 5 6 
#
# 1 0.009573 0.000388 -0.006637 0.000000 0.000000 0.000000
# 2 0.000388 0.018137 -0.004924 0.000000 0.000000 0.000000
# 3 -0.006637 -0.004924 0.013386 0.000000 0.000000 0.000000
# 4 0.000000 0.000000 0.000000 0.047066 0.000000 0.000000
# 5 0.000000 0.000000 0.000000 0.000000 0.159396 0.000000
# 6 0.000000 0.000000 0.000000 0.000000 0.000000 0.032456
#
#
# Mechanical properties :
#
#
# Convention : Reuss Voigt Hill
#
# Bulk Modulus (GPa) = 53.33304 72.33755 62.83529
# Shear Modulus (GPa) = 16.20169 26.12846 21.16508
#
# Velocity S-wave (km/s) = 2.81672 3.57701 3.21939
# Velocity P-wave (km/s) = 6.05769 7.24455 6.67754
#
# Compressibility (1/GPa) = 0.01875010
#
# Stress axis : x y z
#
# Youngs Moduli (GPa) = 104.46188 55.13712 74.70225
#
# Poissons Ratio (x) = -0.02139 0.49577
# Poissons Ratio (y) = -0.04052 0.36785
# Poissons Ratio (z) = 0.69327 0.27151
#
# Static dielectric constant tensor:
#      x y z
#    x 4.061830 0.000000 0.000000 
#    y 0.000000 4.381650 0.000000 
#    z 0.000000 0.000000 4.133510 
# 
# 
# High freq. dielectric constant tensor:
#      x y z
#    x 1.806110 0.000000 0.000000 
#    y 0.000000 1.793940 0.000000 
#    z 0.000000 0.000000 1.797760 
# 
# From -- ./inp_files/74695.got.cif
#   From: 2010.03.12/outbox.cif.g09.slc.cpg/sg65_38_cif.got.tgz:74695.got - 2010.04.10 20:52:16.
