data_PCOD8272259
_publ_section_title
;
Structure prediction by ZEFSAII (Michael W. Deem and Ramdas Pophale) SiO2 
 PCOD8272259
Probable space group: C M M M
;
_chemical_formula_sum "Si O2"
_cell_formula_units_Z 104
_cell_length_a 18.954025
_cell_length_b 20.279402
_cell_length_c 14.287109
_cell_angle_alpha 90.000000
_cell_angle_beta 90.000000
_cell_angle_gamma 90.000000
_cell_volume 5491.625988
_symmetry_space_group_name_H-M "C M M M"
_symmetry_group_IT_number 65
_symmetry_cell_setting 'orthorhombic'
loop_
_space_group_symop_operation_xyz
x,y,z
-x,-y,z
x,-y,-z
-x,y,-z
-x,-y,-z
x,y,-z
-x,y,z
x,-y,z
1/2+x,1/2+y,z
1/2-x,1/2-y,z
1/2+x,1/2-y,-z
1/2-x,1/2+y,-z
1/2-x,1/2-y,-z
1/2+x,1/2+y,-z
1/2-x,1/2+y,z
1/2+x,1/2-y,z
loop_
_atom_site_type_symbol
_atom_site_label
_atom_site_fract_x
_atom_site_fract_y
_atom_site_fract_z
Si Si1 0.787666 0.923381 0.288136
Si Si2 0.920047 0.274853 0.738259
Si Si3 0.416850 0.574967 0.000000
Si Si4 0.082496 0.126818 0.202347
Si Si5 0.223194 0.573810 0.101383
Si Si6 0.575846 0.122144 0.895227
Si Si7 0.794709 0.686125 0.391190
O O1 0.872563 0.916285 0.277894
O O2 0.758541 0.891664 0.190397
O O3 0.750827 0.879531 0.367920
O O4 0.767435 0.000000 0.305739
O O5 0.900647 0.201130 0.768146
O O6 0.910806 0.314386 0.833171
O O7 0.869137 0.307548 0.661496
O O8 0.000000 0.278719 0.698765
O O9 0.391380 0.611576 0.095431
O O10 0.387560 0.500000 0.000000
O O11 0.500000 0.574586 0.000000
O O12 0.000000 0.108720 0.213878
O O13 0.252150 0.500000 0.098916
O O14 0.138790 0.570322 0.117295
O O15 0.242092 0.607380 0.000000
O O16 0.500000 0.088266 0.870765
O O17 0.574604 0.150080 0.000000
O O18 0.812734 0.683370 0.500000
O O19 0.750000 0.750000 0.364023
#
# Coordination Sequence:
#
# PCOD8272259 Si02
#       7
#    16  16   8  16  16  16  16
#     4  11  22  37  59  85 115 151 191 237 291 346
#     4  10  20  36  58  85 115 149 194 238 282 338
#     4   9  18  32  50  77 116 164 204 229 268 329
#     4  10  21  35  54  82 118 158 199 237 274 330
#     4   9  18  31  48  75 110 148 190 230 270 324
#     4   9  17  29  49  77 111 149 185 226 273 324
#     4  11  23  42  64  85 110 143 189 246 301 355
#
# _framework density 18.937925
#
# number of rings (size 3 to 8) (size 9 to 14) (size 15 to 20)
#    0.000    2.077    3.077    0.462    2.154    1.846 
#    0.000    1.538    0.000    4.615    0.000    2.154 
#    0.000    0.000    0.000    0.000    0.000    0.000 
#
# Total GULP energy -644289.106512 kJ/mol
# GULP energy per Si atom -12390.175125 kJ/mol
# Density = 1.889482 g / cm^3
# Si number density = 18.937925 Si / 1000 Ang^3
#
#
#
# Elastic Constant Matrix: (Units=GPa)
#
#
# Indices 1 2 3 4 5 6 
#
# 1 75.6372 27.3210 40.6504 0.0000 0.0000 0.0000
# 2 27.3210 79.3024 29.9038 0.0000 0.0000 0.0000
# 3 40.6504 29.9038 69.8661 0.0000 0.0000 0.0000
# 4 0.0000 0.0000 0.0000 23.8608 0.0000 0.0000
# 5 0.0000 0.0000 0.0000 0.0000 15.2430 0.0000
# 6 0.0000 0.0000 0.0000 0.0000 0.0000 22.6207
#
#
#
# Elastic Compliance Matrix: (Units=1/GPa)
#
#
# Indices 1 2 3 4 5 6 
#
# 1 0.019800 -0.002954 -0.010256 0.000000 0.000000 0.000000
# 2 -0.002954 0.015478 -0.004906 0.000000 0.000000 0.000000
# 3 -0.010256 -0.004906 0.022380 0.000000 0.000000 0.000000
# 4 0.000000 0.000000 0.000000 0.041910 0.000000 0.000000
# 5 0.000000 0.000000 0.000000 0.000000 0.065604 0.000000
# 6 0.000000 0.000000 0.000000 0.000000 0.000000 0.044207
#
#
# Mechanical properties :
#
#
# Convention : Reuss Voigt Hill
#
# Bulk Modulus (GPa) = 46.67227 46.72845 46.70036
# Shear Modulus (GPa) = 19.78220 20.80692 20.29456
#
# Velocity S-wave (km/s) = 3.23550 3.31825 3.27714
# Velocity P-wave (km/s) = 6.21742 6.27767 6.24762
#
# Compressibility (1/GPa) = 0.02142600
#
# Stress axis : x y z
#
# Youngs Moduli (GPa) = 50.50514 64.60939 44.68246
#
# Poissons Ratio (x) = 0.19086 0.45826
# Poissons Ratio (y) = 0.14919 0.21921
# Poissons Ratio (z) = 0.51798 0.31697
#
# Static dielectric constant tensor:
#      x y z
#    x 3.761410 0.000000 0.000000 
#    y 0.000000 3.270050 0.000000 
#    z 0.000000 0.000000 3.391150 
# 
# 
# High freq. dielectric constant tensor:
#      x y z
#    x 1.754550 0.000000 0.000000 
#    y 0.000000 1.716430 0.000000 
#    z 0.000000 0.000000 1.715740 
# 
# From -- ./inp_files/42828.got.cif
#   From: 2010.03.12/outbox.cif.g09.slc.cpg/sg65_22_cif.got.tgz:42828.got - 2010.04.10 20:52:16.
