data_PCOD8272991
_publ_section_title
;
Structure prediction by ZEFSAII (Michael W. Deem and Ramdas Pophale) SiO2 
 PCOD8272991
Probable space group: C M M M
;
_chemical_formula_sum "Si O2"
_cell_formula_units_Z 80
_cell_length_a 17.940151
_cell_length_b 8.995341
_cell_length_c 25.813970
_cell_angle_alpha 90.000000
_cell_angle_beta 90.000000
_cell_angle_gamma 90.000000
_cell_volume 4165.801064
_symmetry_space_group_name_H-M "C M M M"
_symmetry_group_IT_number 65
_symmetry_cell_setting 'orthorhombic'
loop_
_space_group_symop_operation_xyz
x,y,z
-x,-y,z
x,-y,-z
-x,y,-z
-x,-y,-z
x,y,-z
-x,y,z
x,-y,z
1/2+x,1/2+y,z
1/2-x,1/2-y,z
1/2+x,1/2-y,-z
1/2-x,1/2+y,-z
1/2-x,1/2-y,-z
1/2+x,1/2+y,-z
1/2-x,1/2+y,z
1/2+x,1/2-y,z
loop_
_atom_site_type_symbol
_atom_site_label
_atom_site_fract_x
_atom_site_fract_y
_atom_site_fract_z
Si Si1 0.085181 0.175317 0.712516
Si Si2 0.413209 0.829450 0.908703
Si Si3 0.170423 0.174227 0.611672
Si Si4 0.329731 0.675094 0.000000
Si Si5 0.827885 0.673315 0.195725
Si Si6 0.828039 0.827254 0.500000
O O1 0.112267 0.224493 0.655451
O O2 0.136201 0.259275 0.753228
O O3 0.000000 0.226665 0.718929
O O4 0.093594 0.000000 0.721202
O O5 0.500000 0.792485 0.908669
O O6 0.374117 0.721507 0.949042
O O7 0.382872 0.795759 0.851783
O O8 0.397956 0.000000 0.924840
O O9 0.250000 0.250000 0.620498
O O10 0.133119 0.215778 0.555066
O O11 0.185358 0.000000 0.615738
O O12 0.250000 0.750000 0.000000
O O13 0.318792 0.500000 0.000000
O O14 0.813963 0.500000 0.204807
O O15 0.750000 0.750000 0.182941
O O16 0.750000 0.750000 0.500000
O O17 0.812185 0.000000 0.500000
#
# Coordination Sequence:
#
# PCOD8272991 Si02
#       6
#    16  16  16   8  16   8
#     4  10  21  36  53  76 108 143 179 223 274 325
#     4  10  22  41  63  87 117 150 183 224 274 325
#     4   9  17  30  49  73 100 133 174 219 267 319
#     4  12  25  40  61  89 119 153 193 232 271 318
#     4  11  23  39  60  85 111 143 184 226 271 324
#     4   8  14  26  45  69  97 129 169 216 263 314
#
# _framework density 19.203990000000001
#
# number of rings (size 3 to 8) (size 9 to 14) (size 15 to 20)
#    0.000    2.000    0.000    3.600    0.000    8.400 
#    0.000    0.500    0.000    3.000    0.000    0.000 
#    0.000    9.600    0.000    0.000    0.000    0.000 
#
# Total GULP energy -495884.557331 kJ/mol
# GULP energy per Si atom -12397.113933 kJ/mol
# Density = 1.916028 g / cm^3
# Si number density = 19.203990 Si / 1000 Ang^3
#
#
#
# Elastic Constant Matrix: (Units=GPa)
#
#
# Indices 1 2 3 4 5 6 
#
# 1 111.8446 47.7312 48.3628 0.0000 0.0000 0.0000
# 2 47.7312 75.3534 54.0392 0.0000 0.0000 0.0000
# 3 48.3628 54.0392 133.9386 0.0000 0.0000 0.0000
# 4 0.0000 0.0000 0.0000 29.1906 0.0000 0.0000
# 5 0.0000 0.0000 0.0000 0.0000 34.8583 0.0000
# 6 0.0000 0.0000 0.0000 0.0000 0.0000 26.3373
#
#
#
# Elastic Compliance Matrix: (Units=1/GPa)
#
#
# Indices 1 2 3 4 5 6 
#
# 1 0.012577 -0.006627 -0.001867 0.000000 0.000000 0.000000
# 2 -0.006627 0.022166 -0.006550 0.000000 0.000000 0.000000
# 3 -0.001867 -0.006550 0.010783 0.000000 0.000000 0.000000
# 4 0.000000 0.000000 0.000000 0.034258 0.000000 0.000000
# 5 0.000000 0.000000 0.000000 0.000000 0.028688 0.000000
# 6 0.000000 0.000000 0.000000 0.000000 0.000000 0.037969
#
#
# Mechanical properties :
#
#
# Convention : Reuss Voigt Hill
#
# Bulk Modulus (GPa) = 64.78248 69.04477 66.91363
# Shear Modulus (GPa) = 27.52158 29.47746 28.49952
#
# Velocity S-wave (km/s) = 3.78976 3.92211 3.85651
# Velocity P-wave (km/s) = 7.27714 7.51944 7.39929
#
# Compressibility (1/GPa) = 0.01543627
#
# Stress axis : x y z
#
# Youngs Moduli (GPa) = 79.51170 45.11365 92.73736
#
# Poissons Ratio (x) = 0.29898 0.17317
# Poissons Ratio (y) = 0.52695 0.60745
# Poissons Ratio (z) = 0.14848 0.29550
#
# Static dielectric constant tensor:
#      x y z
#    x 3.516020 0.000000 0.000000 
#    y 0.000000 3.525900 0.000000 
#    z 0.000000 0.000000 4.022030 
# 
# 
# High freq. dielectric constant tensor:
#      x y z
#    x 1.738170 0.000000 0.000000 
#    y 0.000000 1.743110 0.000000 
#    z 0.000000 0.000000 1.772710 
# 
# From -- ./inp_files/75084.got.cif
#   From: 2010.03.12/outbox.cif.g09.slc.cpg/sg65_38_cif.got.tgz:75084.got - 2010.04.10 20:52:16.
