data_PCOD8272447
_publ_section_title
;
Structure prediction by ZEFSAII (Michael W. Deem and Ramdas Pophale) SiO2 
 PCOD8272447
Probable space group: C M M M
;
_chemical_formula_sum "Si O2"
_cell_formula_units_Z 56
_cell_length_a 15.220735
_cell_length_b 10.240242
_cell_length_c 17.136237
_cell_angle_alpha 90.000000
_cell_angle_beta 90.000000
_cell_angle_gamma 90.000000
_cell_volume 2670.922612
_symmetry_space_group_name_H-M "C M M M"
_symmetry_group_IT_number 65
_symmetry_cell_setting 'orthorhombic'
loop_
_space_group_symop_operation_xyz
x,y,z
-x,-y,z
x,-y,-z
-x,y,-z
-x,-y,-z
x,y,-z
-x,y,z
x,-y,z
1/2+x,1/2+y,z
1/2-x,1/2-y,z
1/2+x,1/2-y,-z
1/2-x,1/2+y,-z
1/2-x,1/2-y,-z
1/2+x,1/2+y,-z
1/2-x,1/2+y,z
1/2+x,1/2-y,z
loop_
_atom_site_type_symbol
_atom_site_label
_atom_site_fract_x
_atom_site_fract_y
_atom_site_fract_z
Si Si1 0.000000 0.143947 0.249743
Si Si2 0.671483 0.656143 0.665467
Si Si3 0.902772 0.847160 0.500000
Si Si4 0.000000 0.242450 0.913009
Si Si5 0.812531 0.641129 0.090332
O O1 0.910722 0.207268 0.282337
O O2 0.000000 0.135662 0.155334
O O3 0.000000 0.000000 0.285717
O O4 0.691843 0.500000 0.676148
O O5 0.750000 0.750000 0.693590
O O6 0.651319 0.694086 0.576173
O O7 0.000000 0.781201 0.500000
O O8 0.917175 0.000000 0.500000
O O9 0.915339 0.331999 0.900803
O O10 0.000000 0.177473 0.000000
O O11 0.792253 0.500000 0.129261
O O12 0.750000 0.750000 0.130971
O O13 0.786362 0.633666 0.000000
#
# Coordination Sequence:
#
# PCOD8272447 Si02
#       5
#     8  16   8   8  16
#     4  10  22  39  57  80 114 154 194 239 289 346
#     4  10  20  37  61  88 119 154 193 232 279 339
#     4   9  15  30  61  92 117 154 193 225 270 336
#     4  10  21  37  57  80 108 147 195 244 296 347
#     4   9  18  34  56  81 107 136 175 227 287 348
#
# _framework density 20.966536999999999
#
# number of rings (size 3 to 8) (size 9 to 14) (size 15 to 20)
#    0.000    2.429    1.429    0.857    0.000    4.286 
#    0.000    9.286    0.000    0.857    0.000    0.000 
#    0.000    0.000    0.000    0.000    0.000    0.000 
#
# Total GULP energy -346944.001079 kJ/mol
# GULP energy per Si atom -12390.857181 kJ/mol
# Density = 2.091882 g / cm^3
# Si number density = 20.966537 Si / 1000 Ang^3
#
#
#
# Elastic Constant Matrix: (Units=GPa)
#
#
# Indices 1 2 3 4 5 6 
#
# 1 179.8922 80.7959 37.0603 0.0000 0.0000 0.0000
# 2 80.7959 102.6897 18.5426 0.0000 0.0000 0.0000
# 3 37.0603 18.5426 108.3666 0.0000 0.0000 0.0000
# 4 0.0000 0.0000 0.0000 14.5060 0.0000 0.0000
# 5 0.0000 0.0000 0.0000 0.0000 8.9636 0.0000
# 6 0.0000 0.0000 0.0000 0.0000 0.0000 28.9505
#
#
#
# Elastic Compliance Matrix: (Units=1/GPa)
#
#
# Indices 1 2 3 4 5 6 
#
# 1 0.008967 -0.006709 -0.001919 0.000000 0.000000 0.000000
# 2 -0.006709 0.015068 -0.000284 0.000000 0.000000 0.000000
# 3 -0.001919 -0.000284 0.009933 0.000000 0.000000 0.000000
# 4 0.000000 0.000000 0.000000 0.068937 0.000000 0.000000
# 5 0.000000 0.000000 0.000000 0.000000 0.111562 0.000000
# 6 0.000000 0.000000 0.000000 0.000000 0.000000 0.034542
#
#
# Mechanical properties :
#
#
# Convention : Reuss Voigt Hill
#
# Bulk Modulus (GPa) = 61.93969 73.74958 67.84464
# Shear Modulus (GPa) = 18.36790 27.45400 22.91095
#
# Velocity S-wave (km/s) = 2.96304 3.62252 3.30925
# Velocity P-wave (km/s) = 6.42747 7.26279 6.85786
#
# Compressibility (1/GPa) = 0.01614474
#
# Stress axis : x y z
#
# Youngs Moduli (GPa) = 111.51404 66.36568 100.67739
#
# Poissons Ratio (x) = 0.44525 0.19318
# Poissons Ratio (y) = 0.74816 0.02858
# Poissons Ratio (z) = 0.21397 0.01884
#
# Static dielectric constant tensor:
#      x y z
#    x 3.869050 0.000000 0.000000 
#    y 0.000000 3.588770 0.000000 
#    z 0.000000 0.000000 3.773190 
# 
# 
# High freq. dielectric constant tensor:
#      x y z
#    x 1.834100 0.000000 0.000000 
#    y 0.000000 1.783480 0.000000 
#    z 0.000000 0.000000 1.814020 
# 
# From -- ./inp_files/50791.got.cif
#   From: 2010.03.12/outbox.cif.g09.slc.cpg/sg65_26_cif.got.tgz:50791.got - 2010.04.10 20:52:16.
