data_PCOD8272948
_publ_section_title
;
Structure prediction by ZEFSAII (Michael W. Deem and Ramdas Pophale) SiO2 
 PCOD8272948
Probable space group: C M M M
;
_chemical_formula_sum "Si O2"
_cell_formula_units_Z 104
_cell_length_a 19.867900
_cell_length_b 9.193942
_cell_length_c 32.408708
_cell_angle_alpha 90.000000
_cell_angle_beta 90.000000
_cell_angle_gamma 90.000000
_cell_volume 5919.914617
_symmetry_space_group_name_H-M "C M M M"
_symmetry_group_IT_number 65
_symmetry_cell_setting 'orthorhombic'
loop_
_space_group_symop_operation_xyz
x,y,z
-x,-y,z
x,-y,-z
-x,y,-z
-x,-y,-z
x,y,-z
-x,y,z
x,-y,z
1/2+x,1/2+y,z
1/2-x,1/2-y,z
1/2+x,1/2-y,-z
1/2-x,1/2+y,-z
1/2-x,1/2-y,-z
1/2+x,1/2+y,-z
1/2-x,1/2+y,z
1/2+x,1/2-y,z
loop_
_atom_site_type_symbol
_atom_site_label
_atom_site_fract_x
_atom_site_fract_y
_atom_site_fract_z
Si Si1 0.678844 0.328939 0.410653
Si Si2 0.318038 0.334037 0.500000
Si Si3 0.683181 0.169156 0.899200
Si Si4 0.921204 0.167073 0.748778
Si Si5 0.578068 0.666103 0.952561
Si Si6 0.182856 0.669593 0.196595
Si Si7 0.925650 0.172248 0.655702
O O1 0.690555 0.500000 0.403416
O O2 0.750000 0.250000 0.405647
O O3 0.645041 0.299149 0.456316
O O4 0.627528 0.263057 0.376979
O O5 0.296505 0.500000 0.500000
O O6 0.250000 0.250000 0.500000
O O7 0.750000 0.250000 0.914943
O O8 0.619317 0.225258 0.924131
O O9 0.670114 0.202305 0.851331
O O10 0.693131 0.000000 0.907937
O O11 0.881367 0.271367 0.779258
O O12 0.902990 0.213038 0.701978
O O13 0.000000 0.189255 0.757042
O O14 0.900713 0.000000 0.756940
O O15 0.500000 0.699825 0.945161
O O16 0.594444 0.500000 0.940353
O O17 0.597395 0.693932 0.000000
O O18 0.191706 0.500000 0.205587
O O19 0.250000 0.750000 0.212257
O O20 0.000000 0.237149 0.646520
O O21 0.929498 0.000000 0.651292
#
# Coordination Sequence:
#
# PCOD8272948 Si02
#       7
#    16   8  16  16  16  16  16
#     4   9  16  27  44  65  89 117 151 190 230 274
#     4   8  14  24  39  61  87 115 147 184 228 274
#     4  10  21  36  54  76 102 133 167 203 245 292
#     4   9  18  33  52  72  95 127 164 197 237 292
#     4   9  19  36  56  78 105 136 169 205 244 286
#     4  10  21  36  53  74 101 130 162 203 247 289
#     4   8  15  29  47  66  91 122 153 188 231 278
#
# _framework density 17.567820000000001
#
# number of rings (size 3 to 8) (size 9 to 14) (size 15 to 20)
#    0.000    2.923    0.000    2.308    0.000    4.308 
#    0.000    6.538    0.000    3.692    0.000    0.000 
#    0.000    6.154    0.000    0.000    0.000    0.000 
#
# Total GULP energy -644558.574547 kJ/mol
# GULP energy per Si atom -12395.357203 kJ/mol
# Density = 1.752783 g / cm^3
# Si number density = 17.567820 Si / 1000 Ang^3
#
#
#
# Elastic Constant Matrix: (Units=GPa)
#
#
# Indices 1 2 3 4 5 6 
#
# 1 91.2657 47.3870 66.6179 0.0000 0.0000 0.0000
# 2 47.3870 68.5320 51.4987 0.0000 0.0000 0.0000
# 3 66.6179 51.4987 96.6125 0.0000 0.0000 0.0000
# 4 0.0000 0.0000 0.0000 22.6472 0.0000 0.0000
# 5 0.0000 0.0000 0.0000 0.0000 28.0711 0.0000
# 6 0.0000 0.0000 0.0000 0.0000 0.0000 30.6040
#
#
#
# Elastic Compliance Matrix: (Units=1/GPa)
#
#
# Indices 1 2 3 4 5 6 
#
# 1 0.023868 -0.006900 -0.012780 0.000000 0.000000 0.000000
# 2 -0.006900 0.026337 -0.009281 0.000000 0.000000 0.000000
# 3 -0.012780 -0.009281 0.024110 0.000000 0.000000 0.000000
# 4 0.000000 0.000000 0.000000 0.044156 0.000000 0.000000
# 5 0.000000 0.000000 0.000000 0.000000 0.035624 0.000000
# 6 0.000000 0.000000 0.000000 0.000000 0.000000 0.032675
#
#
# Mechanical properties :
#
#
# Convention : Reuss Voigt Hill
#
# Bulk Modulus (GPa) = 61.00077 65.26859 63.13468
# Shear Modulus (GPa) = 19.98747 22.32489 21.15618
#
# Velocity S-wave (km/s) = 3.37669 3.56867 3.47401
# Velocity P-wave (km/s) = 7.07114 7.36299 7.21854
#
# Compressibility (1/GPa) = 0.01639324
#
# Stress axis : x y z
#
# Youngs Moduli (GPa) = 41.89649 37.96922 41.47686
#
# Poissons Ratio (x) = 0.26201 0.53007
# Poissons Ratio (y) = 0.28911 0.38493
# Poissons Ratio (z) = 0.53543 0.35238
#
# Static dielectric constant tensor:
#      x y z
#    x 3.224820 0.000000 0.000000 
#    y 0.000000 3.089630 0.000000 
#    z 0.000000 0.000000 3.557800 
# 
# 
# High freq. dielectric constant tensor:
#      x y z
#    x 1.669070 0.000000 0.000000 
#    y 0.000000 1.665120 0.000000 
#    z 0.000000 0.000000 1.687550 
# 
# From -- ./inp_files/75485.got.cif
#   From: 2010.03.12/outbox.cif.g09.slc.cpg/sg65_38_cif.got.tgz:75485.got - 2010.04.10 20:52:16.
