data_PCOD8272277
_publ_section_title
;
Structure prediction by ZEFSAII (Michael W. Deem and Ramdas Pophale) SiO2 
 PCOD8272277
Probable space group: C M M M
;
_chemical_formula_sum "Si O2"
_cell_formula_units_Z 88
_cell_length_a 8.925750
_cell_length_b 18.266808
_cell_length_c 28.140066
_cell_angle_alpha 90.000000
_cell_angle_beta 90.000000
_cell_angle_gamma 90.000000
_cell_volume 4588.095978
_symmetry_space_group_name_H-M "C M M M"
_symmetry_group_IT_number 65
_symmetry_cell_setting 'orthorhombic'
loop_
_space_group_symop_operation_xyz
x,y,z
-x,-y,z
x,-y,-z
-x,y,-z
-x,-y,-z
x,y,-z
-x,y,z
x,-y,z
1/2+x,1/2+y,z
1/2-x,1/2-y,z
1/2+x,1/2-y,-z
1/2-x,1/2+y,-z
1/2-x,1/2-y,-z
1/2+x,1/2+y,-z
1/2-x,1/2+y,z
1/2+x,1/2-y,z
loop_
_atom_site_type_symbol
_atom_site_label
_atom_site_fract_x
_atom_site_fract_y
_atom_site_fract_z
Si Si1 0.668935 0.087118 0.312925
Si Si2 0.172287 0.083868 0.055046
Si Si3 0.177363 0.171507 0.500000
Si Si4 0.670726 0.586943 0.218540
Si Si5 0.675374 0.415514 0.407772
Si Si6 0.323239 0.828359 0.865012
O O1 0.500000 0.116757 0.308641
O O2 0.764105 0.116707 0.268375
O O3 0.740639 0.116768 0.361692
O O4 0.673323 0.000000 0.313266
O O5 0.277252 0.137935 0.084408
O O6 0.000000 0.096309 0.070054
O O7 0.217878 0.000000 0.065273
O O8 0.195430 0.102784 0.000000
O O9 0.250000 0.250000 0.500000
O O10 0.232814 0.128291 0.546445
O O11 0.000000 0.178596 0.500000
O O12 0.500000 0.614023 0.213712
O O13 0.680810 0.500000 0.216003
O O14 0.769681 0.617885 0.176197
O O15 0.500000 0.405281 0.399057
O O16 0.715956 0.500000 0.416424
O O17 0.500000 0.819827 0.863078
O O18 0.250000 0.750000 0.857600
#
# Coordination Sequence:
#
# PCOD8272277 Si02
#       6
#    16  16   8  16  16  16
#     4   9  17  30  51  81 111 136 170 219 270 317
#     4   9  19  38  63  88 114 145 182 225 273 325
#     4  10  21  35  51  73 103 138 174 214 260 314
#     4  10  20  36  59  84 111 144 181 222 270 324
#     4   9  17  32  54  77 101 133 175 219 263 312
#     4  12  25  39  56  80 113 150 187 228 273 323
#
# _framework density 19.180067999999999
#
# number of rings (size 3 to 8) (size 9 to 14) (size 15 to 20)
#    0.000    2.182    0.000    4.091    0.000    8.364 
#    0.000    1.818    0.000    4.909    0.000    0.000 
#    0.000    0.000    0.000    0.000    0.000    0.000 
#
# Total GULP energy -545725.701595 kJ/mol
# GULP energy per Si atom -12402.856854 kJ/mol
# Density = 1.913641 g / cm^3
# Si number density = 19.180068 Si / 1000 Ang^3
#
#
#
# Elastic Constant Matrix: (Units=GPa)
#
#
# Indices 1 2 3 4 5 6 
#
# 1 121.4451 35.1761 59.4019 0.0000 0.0000 0.0000
# 2 35.1761 48.8515 35.8103 0.0000 0.0000 0.0000
# 3 59.4019 35.8103 131.4942 0.0000 0.0000 0.0000
# 4 0.0000 0.0000 0.0000 2.8755 0.0000 0.0000
# 5 0.0000 0.0000 0.0000 0.0000 30.2032 0.0000
# 6 0.0000 0.0000 0.0000 0.0000 0.0000 26.9962
#
#
#
# Elastic Compliance Matrix: (Units=1/GPa)
#
#
# Indices 1 2 3 4 5 6 
#
# 1 0.011713 -0.005691 -0.003741 0.000000 0.000000 0.000000
# 2 -0.005691 0.028342 -0.005147 0.000000 0.000000 0.000000
# 3 -0.003741 -0.005147 0.010697 0.000000 0.000000 0.000000
# 4 0.000000 0.000000 0.000000 0.347766 0.000000 0.000000
# 5 0.000000 0.000000 0.000000 0.000000 0.033109 0.000000
# 6 0.000000 0.000000 0.000000 0.000000 0.000000 0.037042
#
#
# Mechanical properties :
#
#
# Convention : Reuss Voigt Hill
#
# Bulk Modulus (GPa) = 46.31511 62.50746 54.41128
# Shear Modulus (GPa) = 9.90050 23.44182 16.67116
#
# Velocity S-wave (km/s) = 2.27444 3.49979 2.95140
# Velocity P-wave (km/s) = 5.57650 6.99942 6.32808
#
# Compressibility (1/GPa) = 0.02159122
#
# Stress axis : x y z
#
# Youngs Moduli (GPa) = 85.37867 35.28390 93.48649
#
# Poissons Ratio (x) = 0.20081 0.34975
# Poissons Ratio (y) = 0.48592 0.48121
# Poissons Ratio (z) = 0.31941 0.18162
#
# Static dielectric constant tensor:
#      x y z
#    x 3.567420 0.000000 0.000000 
#    y 0.000000 3.251660 0.000000 
#    z 0.000000 0.000000 3.723390 
# 
# 
# High freq. dielectric constant tensor:
#      x y z
#    x 1.747970 0.000000 0.000000 
#    y 0.000000 1.718650 0.000000 
#    z 0.000000 0.000000 1.764060 
# 
# From -- ./inp_files/76493.got.cif
#   From: 2010.03.12/outbox.cif.g09.slc.cpg/sg65_39_cif.got.tgz:76493.got - 2010.04.10 20:52:16.
