data_PCOD8272127
_publ_section_title
;
Structure prediction by ZEFSAII (Michael W. Deem and Ramdas Pophale) SiO2 
 PCOD8272127
Probable space group: C M M M
;
_chemical_formula_sum "Si O2"
_cell_formula_units_Z 104
_cell_length_a 17.418437
_cell_length_b 14.562976
_cell_length_c 20.122894
_cell_angle_alpha 90.000000
_cell_angle_beta 90.000000
_cell_angle_gamma 90.000000
_cell_volume 5104.459418
_symmetry_space_group_name_H-M "C M M M"
_symmetry_group_IT_number 65
_symmetry_cell_setting 'orthorhombic'
loop_
_space_group_symop_operation_xyz
x,y,z
-x,-y,z
x,-y,-z
-x,y,-z
-x,-y,-z
x,y,-z
-x,y,z
x,-y,z
1/2+x,1/2+y,z
1/2-x,1/2-y,z
1/2+x,1/2-y,-z
1/2-x,1/2+y,-z
1/2-x,1/2-y,-z
1/2+x,1/2+y,-z
1/2-x,1/2+y,z
1/2+x,1/2-y,z
loop_
_atom_site_type_symbol
_atom_site_label
_atom_site_fract_x
_atom_site_fract_y
_atom_site_fract_z
Si Si1 0.410907 0.231126 0.818569
Si Si2 0.091256 0.601464 0.700387
Si Si3 0.672970 0.605724 0.870262
Si Si4 0.415380 0.608644 0.000000
Si Si5 0.907987 0.292933 0.574201
Si Si6 0.657856 0.105356 0.077434
Si Si7 0.914688 0.903518 0.421316
O O1 0.500000 0.258287 0.810552
O O2 0.380073 0.169436 0.757693
O O3 0.359220 0.323987 0.814914
O O4 0.402078 0.172535 0.886660
O O5 0.125093 0.500000 0.714071
O O6 0.121162 0.633257 0.627743
O O7 0.000000 0.598389 0.700728
O O8 0.653666 0.500000 0.851317
O O9 0.762347 0.618607 0.883851
O O10 0.629077 0.641243 0.935391
O O11 0.419431 0.500000 0.000000
O O12 0.500000 0.652712 0.000000
O O13 0.878297 0.319631 0.500000
O O14 0.874427 0.192966 0.598530
O O15 0.000000 0.286797 0.573078
O O16 0.629849 0.000000 0.083435
O O17 0.666341 0.132508 0.000000
O O18 0.921533 0.901525 0.500000
O O19 0.000000 0.905699 0.390273
O O20 0.872582 0.000000 0.398928
#
# Coordination Sequence:
#
# PCOD8272127 Si02
#       7
#    16  16  16   8  16  16  16
#     4  11  23  35  51  75 107 146 180 211 260 327
#     4   9  18  32  45  60  91 133 172 211 261 318
#     4  10  20  36  56  78 104 134 173 223 271 315
#     4   9  16  28  49  76 104 132 161 201 260 318
#     4   8  13  22  39  62  85 116 165 215 254 302
#     4  10  21  38  58  79 104 135 177 227 270 306
#     4   7   9  14  26  47  76 106 137 180 234 288
#
# _framework density 20.374341999999999
#
# number of rings (size 3 to 8) (size 9 to 14) (size 15 to 20)
#    0.000    2.846    0.769    2.769    1.077    3.077 
#    0.000    3.077    0.000    2.769    0.000    0.000 
#    0.000    2.462    0.000    3.692    0.000    3.077 
#
# Total GULP energy -644183.235368 kJ/mol
# GULP energy per Si atom -12388.139142 kJ/mol
# Density = 2.032797 g / cm^3
# Si number density = 20.374342 Si / 1000 Ang^3
#
#
#
# Elastic Constant Matrix: (Units=GPa)
#
#
# Indices 1 2 3 4 5 6 
#
# 1 24.8514 8.3712 10.0590 0.0000 0.0000 0.0000
# 2 8.3712 133.1839 68.9889 0.0000 0.0000 0.0000
# 3 10.0590 68.9889 96.7826 0.0000 0.0000 0.0000
# 4 0.0000 0.0000 0.0000 27.5926 0.0000 0.0000
# 5 0.0000 0.0000 0.0000 0.0000 5.6372 0.0000
# 6 0.0000 0.0000 0.0000 0.0000 0.0000 20.5583
#
#
#
# Elastic Compliance Matrix: (Units=1/GPa)
#
#
# Indices 1 2 3 4 5 6 
#
# 1 0.042037 -0.000601 -0.003941 0.000000 0.000000 0.000000
# 2 -0.000601 0.011912 -0.008429 0.000000 0.000000 0.000000
# 3 -0.003941 -0.008429 0.016750 0.000000 0.000000 0.000000
# 4 0.000000 0.000000 0.000000 0.036242 0.000000 0.000000
# 5 0.000000 0.000000 0.000000 0.000000 0.177395 0.000000
# 6 0.000000 0.000000 0.000000 0.000000 0.000000 0.048642
#
#
# Mechanical properties :
#
#
# Convention : Reuss Voigt Hill
#
# Bulk Modulus (GPa) = 22.34228 47.73958 35.04093
# Shear Modulus (GPa) = 13.37477 21.91753 17.64615
#
# Velocity S-wave (km/s) = 2.56491 3.28341 2.94614
# Velocity P-wave (km/s) = 4.44538 6.15276 5.36739
#
# Compressibility (1/GPa) = 0.04475818
#
# Stress axis : x y z
#
# Youngs Moduli (GPa) = 23.78880 83.94646 59.70024
#
# Poissons Ratio (x) = 0.05045 0.23526
# Poissons Ratio (y) = 0.01430 0.50321
# Poissons Ratio (z) = 0.09374 0.70758
#
# Static dielectric constant tensor:
#      x y z
#    x 3.142320 0.000000 0.000000 
#    y 0.000000 4.200890 0.000000 
#    z 0.000000 0.000000 3.564480 
# 
# 
# High freq. dielectric constant tensor:
#      x y z
#    x 1.734290 0.000000 0.000000 
#    y 0.000000 1.816590 0.000000 
#    z 0.000000 0.000000 1.770580 
# 
# From -- ./inp_files/63826.got.cif
#   From: 2010.03.12/outbox.cif.g09.slc.cpg/sg65_32_cif.got.tgz:63826.got - 2010.04.10 20:52:16.
