data_PCOD8272859
_publ_section_title
;
Structure prediction by ZEFSAII (Michael W. Deem and Ramdas Pophale) SiO2 
 PCOD8272859
Probable space group: C M M M
;
_chemical_formula_sum "Si O2"
_cell_formula_units_Z 88
_cell_length_a 20.383856
_cell_length_b 9.039531
_cell_length_c 24.589152
_cell_angle_alpha 90.000000
_cell_angle_beta 90.000000
_cell_angle_gamma 90.000000
_cell_volume 4530.809398
_symmetry_space_group_name_H-M "C M M M"
_symmetry_group_IT_number 65
_symmetry_cell_setting 'orthorhombic'
loop_
_space_group_symop_operation_xyz
x,y,z
-x,-y,z
x,-y,-z
-x,y,-z
-x,-y,-z
x,y,-z
-x,y,z
x,-y,z
1/2+x,1/2+y,z
1/2-x,1/2-y,z
1/2+x,1/2-y,-z
1/2-x,1/2+y,-z
1/2-x,1/2-y,-z
1/2+x,1/2+y,-z
1/2-x,1/2+y,z
1/2+x,1/2-y,z
loop_
_atom_site_type_symbol
_atom_site_label
_atom_site_fract_x
_atom_site_fract_y
_atom_site_fract_z
Si Si1 0.822262 0.173619 0.500000
Si Si2 0.816203 0.670285 0.000000
Si Si3 0.182203 0.825001 0.220389
Si Si4 0.575273 0.827680 0.294169
Si Si5 0.635084 0.669339 0.898108
Si Si6 0.000000 0.166647 0.939383
Si Si7 0.925331 0.171817 0.592825
O O1 0.750000 0.250000 0.500000
O O2 0.867966 0.218840 0.551054
O O3 0.808298 0.000000 0.500000
O O4 0.750000 0.750000 0.000000
O O5 0.850251 0.716349 0.945103
O O6 0.804768 0.500000 0.000000
O O7 0.250000 0.750000 0.239311
O O8 0.122003 0.763594 0.254735
O O9 0.169291 0.783255 0.157685
O O10 0.186920 0.000000 0.229118
O O11 0.500000 0.799298 0.276649
O O12 0.586979 0.772719 0.355131
O O13 0.593365 0.000000 0.291068
O O14 0.654197 0.500000 0.913074
O O15 0.557763 0.695343 0.896515
O O16 0.000000 0.000000 0.958957
O O17 0.000000 0.250875 0.000000
O O18 0.000000 0.198252 0.569932
O O19 0.917588 0.000000 0.608664
#
# Coordination Sequence:
#
# PCOD8272859 Si02
#       7
#     8   8  16  16  16   8  16
#     4  10  21  35  55  87 123 158 196 244 298 346
#     4  12  24  37  56  79 109 146 186 230 283 346
#     4  11  24  40  62  87 117 154 198 245 294 353
#     4  10  22  40  62  89 122 157 196 245 299 352
#     4  10  21  38  60  85 113 146 186 231 283 344
#     4   9  16  32  60  86 112 142 176 221 276 339
#     4   9  18  36  61  86 115 155 204 248 288 341
#
# _framework density 19.422578000000001
#
# number of rings (size 3 to 8) (size 9 to 14) (size 15 to 20)
#    0.000    1.909    0.909    2.727    1.273    6.545 
#    0.000    2.727    0.000    2.727    0.000    0.000 
#    0.000    0.000    0.000    0.000    0.000    0.000 
#
# Total GULP energy -545128.925858 kJ/mol
# GULP energy per Si atom -12389.293769 kJ/mol
# Density = 1.937837 g / cm^3
# Si number density = 19.422578 Si / 1000 Ang^3
#
#
#
# Elastic Constant Matrix: (Units=GPa)
#
#
# Indices 1 2 3 4 5 6 
#
# 1 140.9836 63.0689 61.6951 0.0000 0.0000 0.0000
# 2 63.0689 106.4754 58.5540 0.0000 0.0000 0.0000
# 3 61.6951 58.5540 98.9976 0.0000 0.0000 0.0000
# 4 0.0000 0.0000 0.0000 46.9419 0.0000 0.0000
# 5 0.0000 0.0000 0.0000 0.0000 39.2146 0.0000
# 6 0.0000 0.0000 0.0000 0.0000 0.0000 30.8478
#
#
#
# Elastic Compliance Matrix: (Units=1/GPa)
#
#
# Indices 1 2 3 4 5 6 
#
# 1 0.010787 -0.003991 -0.004362 0.000000 0.000000 0.000000
# 2 -0.003991 0.015396 -0.006619 0.000000 0.000000 0.000000
# 3 -0.004362 -0.006619 0.016735 0.000000 0.000000 0.000000
# 4 0.000000 0.000000 0.000000 0.021303 0.000000 0.000000
# 5 0.000000 0.000000 0.000000 0.000000 0.025501 0.000000
# 6 0.000000 0.000000 0.000000 0.000000 0.000000 0.032417
#
#
# Mechanical properties :
#
#
# Convention : Reuss Voigt Hill
#
# Bulk Modulus (GPa) = 77.07905 79.23252 78.15578
# Shear Modulus (GPa) = 31.96789 34.27676 33.12233
#
# Velocity S-wave (km/s) = 4.06139 4.20550 4.13407
# Velocity P-wave (km/s) = 7.85905 8.02896 7.94446
#
# Compressibility (1/GPa) = 0.01297369
#
# Stress axis : x y z
#
# Youngs Moduli (GPa) = 92.70275 64.95321 59.75600
#
# Poissons Ratio (x) = 0.25921 0.26067
# Poissons Ratio (y) = 0.36995 0.39553
# Poissons Ratio (z) = 0.40438 0.42993
#
# Static dielectric constant tensor:
#      x y z
#    x 3.424890 0.000000 0.000000 
#    y 0.000000 3.387430 0.000000 
#    z 0.000000 0.000000 3.497460 
# 
# 
# High freq. dielectric constant tensor:
#      x y z
#    x 1.772170 0.000000 0.000000 
#    y 0.000000 1.747150 0.000000 
#    z 0.000000 0.000000 1.752970 
# 
# From -- ./inp_files/71116.got.cif
#   From: 2010.03.12/outbox.cif.g09.slc.cpg/sg65_36_cif.got.tgz:71116.got - 2010.04.10 20:52:16.
