data_PCOD8272487
_publ_section_title
;
Structure prediction by ZEFSAII (Michael W. Deem and Ramdas Pophale) SiO2 
 PCOD8272487
Probable space group: C M M M
;
_chemical_formula_sum "Si O2"
_cell_formula_units_Z 96
_cell_length_a 11.954291
_cell_length_b 29.134406
_cell_length_c 14.581230
_cell_angle_alpha 90.000000
_cell_angle_beta 90.000000
_cell_angle_gamma 90.000000
_cell_volume 5078.367807
_symmetry_space_group_name_H-M "C M M M"
_symmetry_group_IT_number 65
_symmetry_cell_setting 'orthorhombic'
loop_
_space_group_symop_operation_xyz
x,y,z
-x,-y,z
x,-y,-z
-x,y,-z
-x,-y,-z
x,y,-z
-x,y,z
x,-y,z
1/2+x,1/2+y,z
1/2-x,1/2-y,z
1/2+x,1/2-y,-z
1/2-x,1/2+y,-z
1/2-x,1/2-y,-z
1/2+x,1/2+y,-z
1/2-x,1/2+y,z
1/2+x,1/2-y,z
loop_
_atom_site_type_symbol
_atom_site_label
_atom_site_fract_x
_atom_site_fract_y
_atom_site_fract_z
Si Si1 0.871733 0.638037 0.395352
Si Si2 0.214269 0.800493 0.276807
Si Si3 0.236063 0.049969 0.346263
Si Si4 0.374208 0.550586 0.838147
Si Si5 0.500000 0.419300 0.601822
Si Si6 0.000000 0.181675 0.610892
Si Si7 0.628518 0.351224 0.899869
O O1 0.860690 0.654922 0.500000
O O2 0.813993 0.674848 0.330547
O O3 0.815052 0.588303 0.388059
O O4 0.000000 0.633345 0.365109
O O5 0.250000 0.750000 0.246398
O O6 0.109606 0.795290 0.345464
O O7 0.195732 0.828842 0.183385
O O8 0.222888 0.055459 0.237252
O O9 0.110538 0.051204 0.384360
O O10 0.286887 0.000000 0.371190
O O11 0.500000 0.554367 0.793131
O O12 0.363679 0.500000 0.886419
O O13 0.357294 0.593263 0.905769
O O14 0.500000 0.400264 0.500000
O O15 0.500000 0.370135 0.653674
O O16 0.000000 0.188038 0.500000
O O17 0.500000 0.337570 0.885526
O O18 0.670082 0.333241 0.000000
#
# Coordination Sequence:
#
# PCOD8272487 Si02
#       7
#    16  16  16  16   8   8  16
#     4  11  25  42  58  82 118 162 209 252 297 354
#     4  12  25  42  64  87 120 154 199 258 309 359
#     4  11  20  33  55  84 119 160 199 241 293 351
#     4   9  16  29  53  87 123 153 184 227 287 354
#     4  11  19  30  51  83 120 150 190 242 293 348
#     4  11  22  39  65  92 118 156 198 246 305 361
#     4  10  20  37  63  93 124 155 191 239 301 364
#
# _framework density 18.903711999999999
#
# number of rings (size 3 to 8) (size 9 to 14) (size 15 to 20)
#    0.000    1.333    5.000    1.250    1.167    4.000 
#    0.000    2.500    0.000    0.500    0.000    0.000 
#    0.000    2.667    0.000    0.000    0.000    0.000 
#
# Total GULP energy -594854.206985 kJ/mol
# GULP energy per Si atom -12392.795979 kJ/mol
# Density = 1.886069 g / cm^3
# Si number density = 18.903712 Si / 1000 Ang^3
#
#
#
# Elastic Constant Matrix: (Units=GPa)
#
#
# Indices 1 2 3 4 5 6 
#
# 1 101.5849 36.7448 43.4438 0.0000 0.0000 0.0000
# 2 36.7448 119.3257 40.6696 0.0000 0.0000 0.0000
# 3 43.4438 40.6696 104.2015 0.0000 0.0000 0.0000
# 4 0.0000 0.0000 0.0000 8.4557 0.0000 0.0000
# 5 0.0000 0.0000 0.0000 0.0000 14.6371 0.0000
# 6 0.0000 0.0000 0.0000 0.0000 0.0000 18.6792
#
#
#
# Elastic Compliance Matrix: (Units=1/GPa)
#
#
# Indices 1 2 3 4 5 6 
#
# 1 0.012549 -0.002400 -0.004295 0.000000 0.000000 0.000000
# 2 -0.002400 0.010125 -0.002951 0.000000 0.000000 0.000000
# 3 -0.004295 -0.002951 0.012539 0.000000 0.000000 0.000000
# 4 0.000000 0.000000 0.000000 0.118264 0.000000 0.000000
# 5 0.000000 0.000000 0.000000 0.000000 0.068319 0.000000
# 6 0.000000 0.000000 0.000000 0.000000 0.000000 0.053536
#
#
# Mechanical properties :
#
#
# Convention : Reuss Voigt Hill
#
# Bulk Modulus (GPa) = 62.81202 62.98092 62.89647
# Shear Modulus (GPa) = 16.67041 21.97133 19.32087
#
# Velocity S-wave (km/s) = 2.97283 3.41292 3.20045
# Velocity P-wave (km/s) = 6.71440 6.99426 6.85576
#
# Compressibility (1/GPa) = 0.01592052
#
# Stress axis : x y z
#
# Youngs Moduli (GPa) = 79.68704 98.76110 79.74907
#
# Poissons Ratio (x) = 0.23707 0.34253
# Poissons Ratio (y) = 0.19128 0.23535
# Poissons Ratio (z) = 0.34226 0.29146
#
# Static dielectric constant tensor:
#      x y z
#    x 3.094180 0.000000 0.000000 
#    y 0.000000 3.493360 0.000000 
#    z 0.000000 0.000000 3.398710 
# 
# 
# High freq. dielectric constant tensor:
#      x y z
#    x 1.701700 0.000000 0.000000 
#    y 0.000000 1.740320 0.000000 
#    z 0.000000 0.000000 1.730400 
# 
# From -- ./inp_files/38914.got.cif
#   From: 2010.03.12/outbox.cif.g09.slc.cpg/sg65_20_cif.got.tgz:38914.got - 2010.04.10 20:52:16.
