data_PCOD8272397
_publ_section_title
;
Structure prediction by ZEFSAII (Michael W. Deem and Ramdas Pophale) SiO2 
 PCOD8272397
Probable space group: C M M M
;
_chemical_formula_sum "Si O2"
_cell_formula_units_Z 88
_cell_length_a 24.811079
_cell_length_b 20.057092
_cell_length_c 9.529902
_cell_angle_alpha 90.000000
_cell_angle_beta 90.000000
_cell_angle_gamma 90.000000
_cell_volume 4742.442268
_symmetry_space_group_name_H-M "C M M M"
_symmetry_group_IT_number 65
_symmetry_cell_setting 'orthorhombic'
loop_
_space_group_symop_operation_xyz
x,y,z
-x,-y,z
x,-y,-z
-x,y,-z
-x,-y,-z
x,y,-z
-x,y,z
x,-y,z
1/2+x,1/2+y,z
1/2-x,1/2-y,z
1/2+x,1/2-y,-z
1/2-x,1/2+y,-z
1/2-x,1/2-y,-z
1/2+x,1/2+y,-z
1/2-x,1/2+y,z
1/2+x,1/2-y,z
loop_
_atom_site_type_symbol
_atom_site_label
_atom_site_fract_x
_atom_site_fract_y
_atom_site_fract_z
Si Si1 0.832395 0.000000 0.167382
Si Si2 0.147842 0.370636 0.165884
Si Si3 0.061108 0.576131 0.344432
Si Si4 0.209771 0.500000 0.834435
Si Si5 0.382238 0.381405 0.662872
Si Si6 0.814344 0.747568 0.343760
Si Si7 0.500000 0.424060 0.663162
O O1 0.770711 0.000000 0.215141
O O2 0.858196 0.934933 0.232403
O O3 0.839684 0.000000 0.000000
O O4 0.088567 0.376579 0.230546
O O5 0.181679 0.433529 0.224617
O O6 0.173073 0.303317 0.221107
O O7 0.144923 0.367920 0.000000
O O8 0.086514 0.584881 0.500000
O O9 0.066144 0.500000 0.294414
O O10 0.000000 0.599417 0.349516
O O11 0.204473 0.500000 0.000000
O O12 0.374789 0.402420 0.500000
O O13 0.348503 0.314088 0.692479
O O14 0.446467 0.380216 0.701985
O O15 0.832227 0.724080 0.500000
O O16 0.750000 0.750000 0.340726
O O17 0.500000 0.500000 0.731393
O O18 0.500000 0.436640 0.500000
#
# Coordination Sequence:
#
# PCOD8272397 Si02
#       7
#     8  16  16   8  16  16   8
#     4  11  21  34  56  84 113 140 181 230 279 340
#     4  11  21  36  57  80 113 150 189 232 283 346
#     4   9  18  34  56  81 109 141 181 230 279 328
#     4   9  20  35  51  79 113 149 185 224 275 342
#     4  10  20  37  59  81 109 146 187 229 283 343
#     4  10  22  39  57  81 114 149 192 242 289 342
#     4   9  16  32  60  86 108 137 182 229 271 341
#
# _framework density 18.55584
#
# number of rings (size 3 to 8) (size 9 to 14) (size 15 to 20)
#    0.000    2.091    1.818    2.455    0.000    1.455 
#    1.636    4.545    0.000    0.000    0.000    0.000 
#    0.000    0.000    0.000    0.000    0.000    0.000 
#
# Total GULP energy -545226.563298 kJ/mol
# GULP energy per Si atom -12391.512802 kJ/mol
# Density = 1.851361 g / cm^3
# Si number density = 18.555840 Si / 1000 Ang^3
#
#
#
# Elastic Constant Matrix: (Units=GPa)
#
#
# Indices 1 2 3 4 5 6 
#
# 1 122.9798 60.9949 46.3568 0.0000 0.0000 0.0000
# 2 60.9949 107.2202 51.6699 0.0000 0.0000 0.0000
# 3 46.3568 51.6699 95.5015 0.0000 0.0000 0.0000
# 4 0.0000 0.0000 0.0000 35.6227 0.0000 0.0000
# 5 0.0000 0.0000 0.0000 0.0000 25.4188 0.0000
# 6 0.0000 0.0000 0.0000 0.0000 0.0000 31.4927
#
#
#
# Elastic Compliance Matrix: (Units=1/GPa)
#
#
# Indices 1 2 3 4 5 6 
#
# 1 0.011876 -0.005381 -0.002853 0.000000 0.000000 0.000000
# 2 -0.005381 0.015054 -0.005533 0.000000 0.000000 0.000000
# 3 -0.002853 -0.005533 0.014850 0.000000 0.000000 0.000000
# 4 0.000000 0.000000 0.000000 0.028072 0.000000 0.000000
# 5 0.000000 0.000000 0.000000 0.000000 0.039341 0.000000
# 6 0.000000 0.000000 0.000000 0.000000 0.000000 0.031753
#
#
# Mechanical properties :
#
#
# Convention : Reuss Voigt Hill
#
# Bulk Modulus (GPa) = 70.19898 71.52720 70.86309
# Shear Modulus (GPa) = 28.86375 29.61885 29.24130
#
# Velocity S-wave (km/s) = 3.94827 3.99958 3.97401
# Velocity P-wave (km/s) = 7.66149 7.74336 7.70253
#
# Compressibility (1/GPa) = 0.01424522
#
# Stress axis : x y z
#
# Youngs Moduli (GPa) = 84.20564 66.42801 67.34218
#
# Poissons Ratio (x) = 0.35743 0.19215
# Poissons Ratio (y) = 0.45309 0.37260
# Poissons Ratio (z) = 0.24027 0.36754
#
# Static dielectric constant tensor:
#      x y z
#    x 3.791850 0.000000 0.000000 
#    y 0.000000 3.533990 0.000000 
#    z 0.000000 0.000000 3.285950 
# 
# 
# High freq. dielectric constant tensor:
#      x y z
#    x 1.733010 0.000000 0.000000 
#    y 0.000000 1.708890 0.000000 
#    z 0.000000 0.000000 1.707640 
# 
# From -- ./inp_files/14085.got.cif
#   From: 2010.03.12/outbox.cif.g09.slc.cpg/sg65_8_cif.got.tgz:14085.got - 2010.04.10 20:52:16.
