data_PCOD8272558
_publ_section_title
;
Structure prediction by ZEFSAII (Michael W. Deem and Ramdas Pophale) SiO2 
 PCOD8272558
Probable space group: C M M M
;
_chemical_formula_sum "Si O2"
_cell_formula_units_Z 88
_cell_length_a 20.985810
_cell_length_b 19.274529
_cell_length_c 11.225858
_cell_angle_alpha 90.000000
_cell_angle_beta 90.000000
_cell_angle_gamma 90.000000
_cell_volume 4540.765302
_symmetry_space_group_name_H-M "C M M M"
_symmetry_group_IT_number 65
_symmetry_cell_setting 'orthorhombic'
loop_
_space_group_symop_operation_xyz
x,y,z
-x,-y,z
x,-y,-z
-x,y,-z
-x,-y,-z
x,y,-z
-x,y,z
x,-y,z
1/2+x,1/2+y,z
1/2-x,1/2-y,z
1/2+x,1/2-y,-z
1/2-x,1/2+y,-z
1/2-x,1/2-y,-z
1/2+x,1/2+y,-z
1/2-x,1/2+y,z
1/2+x,1/2-y,z
loop_
_atom_site_type_symbol
_atom_site_label
_atom_site_fract_x
_atom_site_fract_y
_atom_site_fract_z
Si Si1 0.928195 0.288333 0.242607
Si Si2 0.127079 0.421970 0.137333
Si Si3 0.571926 0.173096 0.500000
Si Si4 0.500000 0.422177 0.858751
Si Si5 0.874002 0.156504 0.859893
Si Si6 0.694433 0.081572 0.500000
Si Si7 0.741819 0.420597 0.255312
O O1 0.913635 0.368469 0.214238
O O2 0.919212 0.278050 0.384246
O O3 0.881133 0.237918 0.170053
O O4 0.000000 0.271387 0.202169
O O5 0.106550 0.500000 0.174905
O O6 0.202031 0.412351 0.159782
O O7 0.112703 0.408119 0.000000
O O8 0.500000 0.140999 0.500000
O O9 0.623909 0.112671 0.500000
O O10 0.500000 0.500000 0.806271
O O11 0.562922 0.382851 0.813737
O O12 0.500000 0.423939 0.000000
O O13 0.815276 0.127841 0.785596
O O14 0.862159 0.145832 0.000000
O O15 0.733750 0.105423 0.384021
O O16 0.683951 0.000000 0.500000
O O17 0.717832 0.500000 0.261197
#
# Coordination Sequence:
#
# PCOD8272558 Si02
#       7
#    16  16   8   8  16   8  16
#     4  11  23  40  60  87 122 159 203 255 306 360
#     4  10  21  37  58  85 120 160 198 245 306 371
#     4  10  22  40  63  87 116 162 209 256 309 349
#     4   9  18  34  58  87 116 154 205 251 295 352
#     4  11  22  37  60  89 123 164 201 249 309 364
#     4  10  20  40  65  90 121 159 206 258 304 354
#     4  10  21  38  61  89 122 157 200 252 304 360
#
# _framework density 19.379992999999999
#
# number of rings (size 3 to 8) (size 9 to 14) (size 15 to 20)
#    0.000    1.727    2.727    1.636    0.000    4.909 
#    0.000    5.455    0.000    0.000    0.000    3.182 
#    0.000    0.000    0.000    0.000    0.000    0.000 
#
# Total GULP energy -545692.899412 kJ/mol
# GULP energy per Si atom -12402.111350 kJ/mol
# Density = 1.933588 g / cm^3
# Si number density = 19.379993 Si / 1000 Ang^3
#
#
#
# Elastic Constant Matrix: (Units=GPa)
#
#
# Indices 1 2 3 4 5 6 
#
# 1 102.5038 44.4708 43.5238 0.0000 0.0000 0.0000
# 2 44.4708 94.2978 33.0920 0.0000 0.0000 0.0000
# 3 43.5238 33.0920 87.9269 0.0000 0.0000 0.0000
# 4 0.0000 0.0000 0.0000 24.0220 0.0000 0.0000
# 5 0.0000 0.0000 0.0000 0.0000 28.8512 0.0000
# 6 0.0000 0.0000 0.0000 0.0000 0.0000 38.7202
#
#
#
# Elastic Compliance Matrix: (Units=1/GPa)
#
#
# Indices 1 2 3 4 5 6 
#
# 1 0.014022 -0.004813 -0.005129 0.000000 0.000000 0.000000
# 2 -0.004813 0.013870 -0.002838 0.000000 0.000000 0.000000
# 3 -0.005129 -0.002838 0.014980 0.000000 0.000000 0.000000
# 4 0.000000 0.000000 0.000000 0.041628 0.000000 0.000000
# 5 0.000000 0.000000 0.000000 0.000000 0.034661 0.000000
# 6 0.000000 0.000000 0.000000 0.000000 0.000000 0.025826
#
#
# Mechanical properties :
#
#
# Convention : Reuss Voigt Hill
#
# Bulk Modulus (GPa) = 57.76276 58.54463 58.15370
# Shear Modulus (GPa) = 28.35783 29.22814 28.79299
#
# Velocity S-wave (km/s) = 3.82940 3.88772 3.85867
# Velocity P-wave (km/s) = 7.03011 7.10119 7.06574
#
# Compressibility (1/GPa) = 0.01731219
#
# Stress axis : x y z
#
# Youngs Moduli (GPa) = 71.31842 72.09693 66.75449
#
# Poissons Ratio (x) = 0.34697 0.34242
# Poissons Ratio (y) = 0.34322 0.18945
# Poissons Ratio (z) = 0.36583 0.20461
#
# Static dielectric constant tensor:
#      x y z
#    x 3.467300 0.000000 0.000000 
#    y 0.000000 3.460790 0.000000 
#    z 0.000000 0.000000 3.641060 
# 
# 
# High freq. dielectric constant tensor:
#      x y z
#    x 1.753980 0.000000 0.000000 
#    y 0.000000 1.747310 0.000000 
#    z 0.000000 0.000000 1.754960 
# 
# From -- ./inp_files/28745.got.cif
#   From: 2010.03.12/outbox.cif.g09.slc.cpg/sg65_15_cif.got.tgz:28745.got - 2010.04.10 20:52:16.
