data_PCOD8272212
_publ_section_title
;
Structure prediction by ZEFSAII (Michael W. Deem and Ramdas Pophale) SiO2 
 PCOD8272212
Probable space group: C M M M
;
_chemical_formula_sum "Si O2"
_cell_formula_units_Z 72
_cell_length_a 8.958978
_cell_length_b 15.505608
_cell_length_c 27.765277
_cell_angle_alpha 90.000000
_cell_angle_beta 90.000000
_cell_angle_gamma 90.000000
_cell_volume 3856.996822
_symmetry_space_group_name_H-M "C M M M"
_symmetry_group_IT_number 65
_symmetry_cell_setting 'orthorhombic'
loop_
_space_group_symop_operation_xyz
x,y,z
-x,-y,z
x,-y,-z
-x,y,-z
-x,-y,-z
x,y,-z
-x,y,z
x,-y,z
1/2+x,1/2+y,z
1/2-x,1/2-y,z
1/2+x,1/2-y,-z
1/2-x,1/2+y,-z
1/2-x,1/2-y,-z
1/2+x,1/2+y,-z
1/2-x,1/2+y,z
1/2+x,1/2-y,z
loop_
_atom_site_type_symbol
_atom_site_label
_atom_site_fract_x
_atom_site_fract_y
_atom_site_fract_z
Si Si1 0.174502 0.662420 0.217209
Si Si2 0.829261 0.000000 0.943019
Si Si3 0.824206 0.662345 0.444854
Si Si4 0.824126 0.660696 0.105984
Si Si5 0.322185 0.000000 0.385219
Si Si6 0.822025 0.500000 0.723631
O O1 0.250000 0.750000 0.235287
O O2 0.212666 0.642861 0.161781
O O3 0.239397 0.584365 0.249072
O O4 0.000000 0.673412 0.225124
O O5 0.745722 0.915639 0.924569
O O6 0.000000 0.000000 0.924659
O O7 0.821818 0.000000 0.000000
O O8 0.778952 0.643516 0.500000
O O9 0.750000 0.750000 0.425972
O O10 0.761426 0.584485 0.412483
O O11 0.000000 0.672139 0.439278
O O12 0.750000 0.750000 0.088988
O O13 0.000000 0.665366 0.096358
O O14 0.500000 0.000000 0.386383
O O15 0.261117 0.000000 0.330804
O O16 0.000000 0.500000 0.725140
#
# Coordination Sequence:
#
# PCOD8272212 Si02
#       6
#    16   8  16  16   8   8
#     4   9  18  33  53  76 100 128 164 205 246 291
#     4  11  24  39  55  79 110 141 173 211 256 305
#     4   9  17  30  48  69  92 121 161 205 245 288
#     4  10  20  36  58  81 105 136 174 214 256 302
#     4   9  17  29  47  69  94 129 165 196 238 295
#     4   9  17  30  48  71 100 131 162 197 242 295
#
# _framework density 18.667373999999999
#
# number of rings (size 3 to 8) (size 9 to 14) (size 15 to 20)
#    0.000    2.556    0.000    2.000    0.000    6.222 
#    0.000    1.111    0.000    4.000    0.000    0.000 
#    0.000    0.000    0.000    0.000    0.000    0.000 
#
# Total GULP energy -446467.039168 kJ/mol
# GULP energy per Si atom -12401.862199 kJ/mol
# Density = 1.862489 g / cm^3
# Si number density = 18.667374 Si / 1000 Ang^3
#
#
#
# Elastic Constant Matrix: (Units=GPa)
#
#
# Indices 1 2 3 4 5 6 
#
# 1 52.8454 53.1413 36.0848 0.0000 0.0000 0.0000
# 2 53.1413 196.7433 87.7799 0.0000 0.0000 0.0000
# 3 36.0848 87.7799 95.3911 0.0000 0.0000 0.0000
# 4 0.0000 0.0000 0.0000 20.8931 0.0000 0.0000
# 5 0.0000 0.0000 0.0000 0.0000 16.5635 0.0000
# 6 0.0000 0.0000 0.0000 0.0000 0.0000 35.1102
#
#
#
# Elastic Compliance Matrix: (Units=1/GPa)
#
#
# Indices 1 2 3 4 5 6 
#
# 1 0.027958 -0.004806 -0.006153 0.000000 0.000000 0.000000
# 2 -0.004806 0.009449 -0.006877 0.000000 0.000000 0.000000
# 3 -0.006153 -0.006877 0.019139 0.000000 0.000000 0.000000
# 4 0.000000 0.000000 0.000000 0.047863 0.000000 0.000000
# 5 0.000000 0.000000 0.000000 0.000000 0.060374 0.000000
# 6 0.000000 0.000000 0.000000 0.000000 0.000000 0.028482
#
#
# Mechanical properties :
#
#
# Convention : Reuss Voigt Hill
#
# Bulk Modulus (GPa) = 47.90851 77.66576 62.78713
# Shear Modulus (GPa) = 21.19576 25.71160 23.45368
#
# Velocity S-wave (km/s) = 3.37329 3.71530 3.54842
# Velocity P-wave (km/s) = 6.39470 7.75242 7.10606
#
# Compressibility (1/GPa) = 0.02087312
#
# Stress axis : x y z
#
# Youngs Moduli (GPa) = 35.76802 105.82756 52.24825
#
# Poissons Ratio (x) = 0.50863 0.32150
# Poissons Ratio (y) = 0.17191 0.35933
# Poissons Ratio (z) = 0.22009 0.72781
#
# Static dielectric constant tensor:
#      x y z
#    x 3.215930 0.000000 0.000000 
#    y 0.000000 3.630100 0.000000 
#    z 0.000000 0.000000 3.468450 
# 
# 
# High freq. dielectric constant tensor:
#      x y z
#    x 1.701010 0.000000 0.000000 
#    y 0.000000 1.741630 0.000000 
#    z 0.000000 0.000000 1.719970 
# 
# From -- ./inp_files/72589.got.cif
#   From: 2010.03.12/outbox.cif.g09.slc.cpg/sg65_37_cif.got.tgz:72589.got - 2010.04.10 20:52:16.
