data_PCOD8272250
_publ_section_title
;
Structure prediction by ZEFSAII (Michael W. Deem and Ramdas Pophale) SiO2 
 PCOD8272250
Probable space group: C M M M
;
_chemical_formula_sum "Si O2"
_cell_formula_units_Z 80
_cell_length_a 18.399432
_cell_length_b 13.870168
_cell_length_c 14.333371
_cell_angle_alpha 90.000000
_cell_angle_beta 90.000000
_cell_angle_gamma 90.000000
_cell_volume 3657.922332
_symmetry_space_group_name_H-M "C M M M"
_symmetry_group_IT_number 65
_symmetry_cell_setting 'orthorhombic'
loop_
_space_group_symop_operation_xyz
x,y,z
-x,-y,z
x,-y,-z
-x,y,-z
-x,-y,-z
x,y,-z
-x,y,z
x,-y,z
1/2+x,1/2+y,z
1/2-x,1/2-y,z
1/2+x,1/2-y,-z
1/2-x,1/2+y,-z
1/2-x,1/2-y,-z
1/2+x,1/2+y,-z
1/2-x,1/2+y,z
1/2+x,1/2-y,z
loop_
_atom_site_type_symbol
_atom_site_label
_atom_site_fract_x
_atom_site_fract_y
_atom_site_fract_z
Si Si1 0.284561 0.886084 0.399953
Si Si2 0.621746 0.386035 0.394408
Si Si3 0.420120 0.304766 0.205271
Si Si4 0.221418 0.142698 0.895936
Si Si5 0.357822 0.105502 0.216125
O O1 0.316459 0.851639 0.500000
O O2 0.203740 0.843831 0.385734
O O3 0.338609 0.854188 0.318948
O O4 0.275114 0.000000 0.398972
O O5 0.592410 0.366279 0.500000
O O6 0.616924 0.500000 0.373300
O O7 0.577107 0.328104 0.315908
O O8 0.500000 0.331321 0.164932
O O9 0.356596 0.366458 0.155503
O O10 0.408974 0.190855 0.178728
O O11 0.250000 0.250000 0.900077
O O12 0.283236 0.085590 0.840288
O O13 0.212808 0.099913 0.000000
O O14 0.397388 0.000000 0.218338
#
# Coordination Sequence:
#
# PCOD8272250 Si02
#       5
#    16  16  16  16  16
#     4   8  14  27  51  80 105 135 180 231 277 317
#     4   9  18  34  56  82 113 148 188 236 286 334
#     4  11  23  36  54  84 119 154 188 224 278 344
#     4   9  19  37  59  81 105 138 184 235 282 326
#     4  10  20  36  58  83 113 149 191 235 275 326
#
# _framework density 21.870339999999999
#
# number of rings (size 3 to 8) (size 9 to 14) (size 15 to 20)
#    0.000    2.600    2.000    1.200    0.000    2.800 
#    0.000    3.000    0.000    0.000    0.000   12.600 
#    0.000    0.000    0.000    0.000    0.000    0.000 
#
# Total GULP energy -495552.537567 kJ/mol
# GULP energy per Si atom -12388.813439 kJ/mol
# Density = 2.182056 g / cm^3
# Si number density = 21.870340 Si / 1000 Ang^3
#
#
#
# Elastic Constant Matrix: (Units=GPa)
#
#
# Indices 1 2 3 4 5 6 
#
# 1 88.8973 0.2590 24.8867 0.0000 0.0000 0.0000
# 2 0.2590 60.0451 3.8657 0.0000 0.0000 0.0000
# 3 24.8867 3.8657 112.1092 0.0000 0.0000 0.0000
# 4 0.0000 0.0000 0.0000 127.5279 0.0000 0.0000
# 5 0.0000 0.0000 0.0000 0.0000 9.0004 0.0000
# 6 0.0000 0.0000 0.0000 0.0000 0.0000 12.9723
#
#
#
# Elastic Compliance Matrix: (Units=1/GPa)
#
#
# Indices 1 2 3 4 5 6 
#
# 1 0.011995 0.000120 -0.002667 0.000000 0.000000 0.000000
# 2 0.000120 0.016692 -0.000602 0.000000 0.000000 0.000000
# 3 -0.002667 -0.000602 0.009533 0.000000 0.000000 0.000000
# 4 0.000000 0.000000 0.000000 0.007841 0.000000 0.000000
# 5 0.000000 0.000000 0.000000 0.000000 0.111106 0.000000
# 6 0.000000 0.000000 0.000000 0.000000 0.000000 0.077087
#
#
# Mechanical properties :
#
#
# Convention : Reuss Voigt Hill
#
# Bulk Modulus (GPa) = 31.32642 35.45270 33.38956
# Shear Modulus (GPa) = 19.90492 45.36946 32.63719
#
# Velocity S-wave (km/s) = 3.02011 4.55958 3.86723
# Velocity P-wave (km/s) = 5.14939 6.63063 5.93639
#
# Compressibility (1/GPa) = 0.03192194
#
# Stress axis : x y z
#
# Youngs Moduli (GPa) = 83.36683 59.90748 104.90257
#
# Poissons Ratio (x) = -0.00719 0.27976
# Poissons Ratio (y) = -0.01000 0.06317
# Poissons Ratio (z) = 0.22233 0.03608
#
# Static dielectric constant tensor:
#      x y z
#    x 3.549620 0.000000 0.000000 
#    y 0.000000 3.686180 0.000000 
#    z 0.000000 0.000000 4.563400 
# 
# 
# High freq. dielectric constant tensor:
#      x y z
#    x 1.812460 0.000000 0.000000 
#    y 0.000000 1.862740 0.000000 
#    z 0.000000 0.000000 1.854740 
# 
# From -- ./inp_files/43901.got.cif
#   From: 2010.03.12/outbox.cif.g09.slc.cpg/sg65_22_cif.got.tgz:43901.got - 2010.04.10 20:52:16.
