data_PCOD8272872
_publ_section_title
;
Structure prediction by ZEFSAII (Michael W. Deem and Ramdas Pophale) SiO2 
 PCOD8272872
Probable space group: C M M M
;
_chemical_formula_sum "Si O2"
_cell_formula_units_Z 72
_cell_length_a 17.661647
_cell_length_b 21.540896
_cell_length_c 9.883037
_cell_angle_alpha 90.000000
_cell_angle_beta 90.000000
_cell_angle_gamma 90.000000
_cell_volume 3759.978708
_symmetry_space_group_name_H-M "C M M M"
_symmetry_group_IT_number 65
_symmetry_cell_setting 'orthorhombic'
loop_
_space_group_symop_operation_xyz
x,y,z
-x,-y,z
x,-y,-z
-x,y,-z
-x,-y,-z
x,y,-z
-x,y,z
x,-y,z
1/2+x,1/2+y,z
1/2-x,1/2-y,z
1/2+x,1/2-y,-z
1/2-x,1/2+y,-z
1/2-x,1/2-y,-z
1/2+x,1/2+y,-z
1/2-x,1/2+y,z
1/2+x,1/2-y,z
loop_
_atom_site_type_symbol
_atom_site_label
_atom_site_fract_x
_atom_site_fract_y
_atom_site_fract_z
Si Si1 0.084285 0.071900 0.500000
Si Si2 0.585722 0.566922 0.000000
Si Si3 0.585756 0.000000 0.840286
Si Si4 0.346726 0.369277 0.753243
Si Si5 0.661228 0.762525 0.653652
Si Si6 0.826606 0.624480 0.838996
O O1 0.136641 0.088710 0.625351
O O2 0.000000 0.103824 0.500000
O O3 0.069855 0.000000 0.500000
O O4 0.600501 0.608641 0.128239
O O5 0.630699 0.500000 0.000000
O O6 0.500000 0.548193 0.000000
O O7 0.630873 0.938475 0.793523
O O8 0.500000 0.000000 0.779990
O O9 0.580961 0.000000 0.000000
O O10 0.373098 0.299450 0.718745
O O11 0.260774 0.379429 0.799592
O O12 0.631334 0.774248 0.500000
O O13 0.750000 0.750000 0.648716
O O14 0.637517 0.819412 0.751231
O O15 0.835406 0.637371 0.000000
#
# Coordination Sequence:
#
# PCOD8272872 Si02
#       6
#     8   8   8  16  16  16
#     4  11  24  40  57  82 122 165 204 241 289 345
#     4  11  24  38  55  84 126 159 190 247 305 343
#     4   9  20  40  61  87 122 151 187 241 303 365
#     4  11  21  37  61  87 119 155 206 247 286 354
#     4   9  19  36  57  87 118 151 193 248 293 340
#     4  10  21  35  63  92 116 151 195 246 302 352
#
# _framework density 19.149045000000001
#
# number of rings (size 3 to 8) (size 9 to 14) (size 15 to 20)
#    0.000    1.889    2.222    1.333    6.222    3.111 
#    0.000    2.778    0.000    0.667    0.000    0.000 
#    0.000    0.000    0.000    0.000    0.000    0.000 
#
# Total GULP energy -446188.132682 kJ/mol
# GULP energy per Si atom -12394.114797 kJ/mol
# Density = 1.910546 g / cm^3
# Si number density = 19.149045 Si / 1000 Ang^3
#
#
#
# Elastic Constant Matrix: (Units=GPa)
#
#
# Indices 1 2 3 4 5 6 
#
# 1 55.5053 46.7790 29.5051 0.0000 0.0000 0.0000
# 2 46.7790 167.1067 80.8792 0.0000 0.0000 0.0000
# 3 29.5051 80.8792 158.1584 0.0000 0.0000 0.0000
# 4 0.0000 0.0000 0.0000 72.9871 0.0000 0.0000
# 5 0.0000 0.0000 0.0000 0.0000 -22.5580 0.0000
# 6 0.0000 0.0000 0.0000 0.0000 0.0000 10.0285
#
#
#
# Elastic Compliance Matrix: (Units=1/GPa)
#
#
# Indices 1 2 3 4 5 6 
#
# 1 0.023801 -0.005998 -0.001373 0.000000 0.000000 0.000000
# 2 -0.005998 0.009464 -0.003721 0.000000 0.000000 0.000000
# 3 -0.001373 -0.003721 0.008482 0.000000 0.000000 0.000000
# 4 0.000000 0.000000 0.000000 0.013701 0.000000 0.000000
# 5 0.000000 0.000000 0.000000 0.000000 -0.044330 0.000000
# 6 0.000000 0.000000 0.000000 0.000000 0.000000 0.099716
#
#
# Mechanical properties :
#
#
# Convention : Reuss Voigt Hill
#
# Bulk Modulus (GPa) = 51.11619 77.23297 64.17458
# Shear Modulus (GPa) = 35.83223 26.99864 31.41544
#
# Velocity S-wave (km/s) = 4.33046 3.75897 4.05479
# Velocity P-wave (km/s) = 7.19414 7.69804 7.45035
#
# Compressibility (1/GPa) = 0.01956327
#
# Stress axis : x y z
#
# Youngs Moduli (GPa) = 42.01432 105.66108 117.90207
#
# Poissons Ratio (x) = 0.63380 0.16185
# Poissons Ratio (y) = 0.25202 0.43869
# Poissons Ratio (z) = 0.05768 0.39314
#
# Static dielectric constant tensor:
#      x y z
#    x 3.370280 0.000000 0.000000 
#    y 0.000000 3.863530 0.000000 
#    z 0.000000 0.000000 3.670260 
# 
# 
# High freq. dielectric constant tensor:
#      x y z
#    x 1.722510 0.000000 0.000000 
#    y 0.000000 1.758270 0.000000 
#    z 0.000000 0.000000 1.749100 
# 
# From -- ./inp_files/11304.got.cif
#   From: 2010.03.12/outbox.cif.g09.slc.cpg/sg65_6_cif.got.tgz:11304.got - 2010.04.10 20:52:16.
