data_PCOD8272495
_publ_section_title
;
Structure prediction by ZEFSAII (Michael W. Deem and Ramdas Pophale) SiO2 
 PCOD8272495
Probable space group: C M M M
;
_chemical_formula_sum "Si O2"
_cell_formula_units_Z 64
_cell_length_a 14.731367
_cell_length_b 16.171400
_cell_length_c 14.130934
_cell_angle_alpha 90.000000
_cell_angle_beta 90.000000
_cell_angle_gamma 90.000000
_cell_volume 3366.367588
_symmetry_space_group_name_H-M "C M M M"
_symmetry_group_IT_number 65
_symmetry_cell_setting 'orthorhombic'
loop_
_space_group_symop_operation_xyz
x,y,z
-x,-y,z
x,-y,-z
-x,y,-z
-x,-y,-z
x,y,-z
-x,y,z
x,-y,z
1/2+x,1/2+y,z
1/2-x,1/2-y,z
1/2+x,1/2-y,-z
1/2-x,1/2+y,-z
1/2-x,1/2-y,-z
1/2+x,1/2+y,-z
1/2-x,1/2+y,z
1/2+x,1/2-y,z
loop_
_atom_site_type_symbol
_atom_site_label
_atom_site_fract_x
_atom_site_fract_y
_atom_site_fract_z
Si Si1 0.153138 0.140485 0.247775
Si Si2 0.000000 0.864645 0.394029
Si Si3 0.000000 0.329991 0.397077
Si Si4 0.000000 0.597147 0.894437
Si Si5 0.359998 0.832636 0.754059
Si Si6 0.606460 0.500000 0.894604
O O1 0.090756 0.108492 0.335605
O O2 0.259824 0.134962 0.268608
O O3 0.129886 0.235183 0.224327
O O4 0.136562 0.083531 0.157349
O O5 0.000000 0.767739 0.407580
O O6 0.000000 0.905477 0.500000
O O7 0.088838 0.358797 0.341404
O O8 0.000000 0.372347 0.500000
O O9 0.907237 0.624723 0.843413
O O10 0.000000 0.500000 0.898689
O O11 0.000000 0.634975 0.000000
O O12 0.500000 0.500000 0.902149
O O13 0.649686 0.500000 0.000000
#
# Coordination Sequence:
#
# PCOD8272495 Si02
#       6
#    16   8   8   8  16   8
#     4  10  20  38  56  83 114 145 186 225 274 329
#     4   9  17  32  56  84 114 146 181 223 269 323
#     4   8  15  31  56  86 112 140 181 224 269 325
#     4  10  22  38  56  81 108 141 187 234 281 331
#     4   9  20  36  59  82 111 147 181 228 277 325
#     4  11  24  38  56  79 108 147 187 230 277 325
#
# _framework density 19.011590000000002
#
# number of rings (size 3 to 8) (size 9 to 14) (size 15 to 20)
#    0.000    2.500    1.250    0.750    1.750    3.000 
#    0.000    8.750    0.000    6.000    0.000    0.000 
#    0.000    0.000    0.000    0.000    0.000    0.000 
#
# Total GULP energy -396601.662913 kJ/mol
# GULP energy per Si atom -12393.801966 kJ/mol
# Density = 1.896832 g / cm^3
# Si number density = 19.011590 Si / 1000 Ang^3
#
#
#
# Elastic Constant Matrix: (Units=GPa)
#
#
# Indices 1 2 3 4 5 6 
#
# 1 162.5734 33.9934 87.4786 0.0000 0.0000 0.0000
# 2 33.9934 52.2861 48.8503 0.0000 0.0000 0.0000
# 3 87.4786 48.8503 195.4522 0.0000 0.0000 0.0000
# 4 0.0000 0.0000 0.0000 20.5409 0.0000 0.0000
# 5 0.0000 0.0000 0.0000 0.0000 27.5788 0.0000
# 6 0.0000 0.0000 0.0000 0.0000 0.0000 15.1938
#
#
#
# Elastic Compliance Matrix: (Units=1/GPa)
#
#
# Indices 1 2 3 4 5 6 
#
# 1 0.008351 -0.002527 -0.003106 0.000000 0.000000 0.000000
# 2 -0.002527 0.025717 -0.005296 0.000000 0.000000 0.000000
# 3 -0.003106 -0.005296 0.007830 0.000000 0.000000 0.000000
# 4 0.000000 0.000000 0.000000 0.048683 0.000000 0.000000
# 5 0.000000 0.000000 0.000000 0.000000 0.036260 0.000000
# 6 0.000000 0.000000 0.000000 0.000000 0.000000 0.065816
#
#
# Mechanical properties :
#
#
# Convention : Reuss Voigt Hill
#
# Bulk Modulus (GPa) = 49.90350 83.43958 66.67154
# Shear Modulus (GPa) = 22.60436 28.66200 25.63318
#
# Velocity S-wave (km/s) = 3.45190 3.88700 3.67589
# Velocity P-wave (km/s) = 6.49565 8.00807 7.29118
#
# Compressibility (1/GPa) = 0.02003867
#
# Stress axis : x y z
#
# Youngs Moduli (GPa) = 119.74951 38.88469 127.71091
#
# Poissons Ratio (x) = 0.09828 0.39665
# Poissons Ratio (y) = 0.30266 0.67641
# Poissons Ratio (z) = 0.37193 0.20595
#
# Static dielectric constant tensor:
#      x y z
#    x 3.753820 0.000000 0.000000 
#    y 0.000000 3.299610 0.000000 
#    z 0.000000 0.000000 3.880700 
# 
# 
# High freq. dielectric constant tensor:
#      x y z
#    x 1.747620 0.000000 0.000000 
#    y 0.000000 1.725420 0.000000 
#    z 0.000000 0.000000 1.738090 
# 
# From -- ./inp_files/39717.got.cif
#   From: 2010.03.12/outbox.cif.g09.slc.cpg/sg65_20_cif.got.tgz:39717.got - 2010.04.10 20:52:16.
