data_PCOD8272802
_publ_section_title
;
Structure prediction by ZEFSAII (Michael W. Deem and Ramdas Pophale) SiO2 
 PCOD8272802
Probable space group: C M M M
;
_chemical_formula_sum "Si O2"
_cell_formula_units_Z 88
_cell_length_a 17.744306
_cell_length_b 10.661804
_cell_length_c 24.819845
_cell_angle_alpha 90.000000
_cell_angle_beta 90.000000
_cell_angle_gamma 90.000000
_cell_volume 4695.574957
_symmetry_space_group_name_H-M "C M M M"
_symmetry_group_IT_number 65
_symmetry_cell_setting 'orthorhombic'
loop_
_space_group_symop_operation_xyz
x,y,z
-x,-y,z
x,-y,-z
-x,y,-z
-x,-y,-z
x,y,-z
-x,y,z
x,-y,z
1/2+x,1/2+y,z
1/2-x,1/2-y,z
1/2+x,1/2-y,-z
1/2-x,1/2+y,-z
1/2-x,1/2-y,-z
1/2+x,1/2+y,-z
1/2-x,1/2+y,z
1/2+x,1/2-y,z
loop_
_atom_site_type_symbol
_atom_site_label
_atom_site_fract_x
_atom_site_fract_y
_atom_site_fract_z
Si Si1 0.090588 0.731677 0.368723
Si Si2 0.916787 0.000000 0.251336
Si Si3 0.082017 0.356548 0.155515
Si Si4 0.589537 0.000000 0.439599
Si Si5 0.918312 0.000000 0.621493
Si Si6 0.813755 0.645485 0.939216
Si Si7 0.839050 0.747088 0.745928
O O1 0.118607 0.623798 0.409008
O O2 0.124677 0.703190 0.310384
O O3 0.000000 0.736727 0.363256
O O4 0.121637 0.866520 0.392641
O O5 0.927550 0.000000 0.314824
O O6 0.869084 0.880513 0.233327
O O7 0.000000 0.000000 0.224369
O O8 0.066147 0.500000 0.145529
O O9 0.122236 0.306079 0.101739
O O10 0.135599 0.347371 0.207747
O O11 0.000000 0.289466 0.163774
O O12 0.500000 0.000000 0.440878
O O13 0.622682 0.000000 0.500000
O O14 0.000000 0.000000 0.592904
O O15 0.787401 0.500000 0.926506
O O16 0.750000 0.750000 0.931856
O O17 0.845605 0.650631 0.000000
O O18 0.750000 0.750000 0.738895
#
# Coordination Sequence:
#
# PCOD8272802 Si02
#       7
#    16   8  16   8   8  16  16
#     4   9  17  31  51  72 102 141 176 217 270 329
#     4   9  18  35  53  70 103 148 185 216 268 341
#     4  10  21  35  52  77 112 145 181 227 276 337
#     4   9  18  31  50  78 106 133 171 220 272 324
#     4   7  12  26  46  67  90 127 175 211 247 306
#     4   9  18  35  58  81 107 143 186 233 283 327
#     4  11  22  33  53  80 111 140 183 231 277 332
#
# _framework density 18.741047999999999
#
# number of rings (size 3 to 8) (size 9 to 14) (size 15 to 20)
#    0.000    2.636    0.000    3.273    2.545    0.364 
#    1.636    2.273    0.000    3.273    0.000    2.545 
#    0.000    0.000    0.000    0.000    0.000    0.182 
#
# Total GULP energy -545090.175410 kJ/mol
# GULP energy per Si atom -12388.413077 kJ/mol
# Density = 1.869839 g / cm^3
# Si number density = 18.741048 Si / 1000 Ang^3
#
#
#
# Elastic Constant Matrix: (Units=GPa)
#
#
# Indices 1 2 3 4 5 6 
#
# 1 87.2981 30.1663 43.7132 0.0000 0.0000 0.0000
# 2 30.1663 106.0580 51.8946 0.0000 0.0000 0.0000
# 3 43.7132 51.8946 124.0888 0.0000 0.0000 0.0000
# 4 0.0000 0.0000 0.0000 20.8246 0.0000 0.0000
# 5 0.0000 0.0000 0.0000 0.0000 17.9775 0.0000
# 6 0.0000 0.0000 0.0000 0.0000 0.0000 19.7974
#
#
#
# Elastic Compliance Matrix: (Units=1/GPa)
#
#
# Indices 1 2 3 4 5 6 
#
# 1 0.014240 -0.002006 -0.004177 0.000000 0.000000 0.000000
# 2 -0.002006 0.012137 -0.004369 0.000000 0.000000 0.000000
# 3 -0.004177 -0.004369 0.011357 0.000000 0.000000 0.000000
# 4 0.000000 0.000000 0.000000 0.048020 0.000000 0.000000
# 5 0.000000 0.000000 0.000000 0.000000 0.055625 0.000000
# 6 0.000000 0.000000 0.000000 0.000000 0.000000 0.050512
#
#
# Mechanical properties :
#
#
# Convention : Reuss Voigt Hill
#
# Bulk Modulus (GPa) = 60.13490 63.22145 61.67817
# Shear Modulus (GPa) = 22.87909 24.49797 23.68853
#
# Velocity S-wave (km/s) = 3.49779 3.61942 3.55912
# Velocity P-wave (km/s) = 6.96201 7.16061 7.06201
#
# Compressibility (1/GPa) = 0.01662928
#
# Stress axis : x y z
#
# Youngs Moduli (GPa) = 70.22452 82.39075 88.04770
#
# Poissons Ratio (x) = 0.16530 0.36780
# Poissons Ratio (y) = 0.14090 0.38469
# Poissons Ratio (z) = 0.29335 0.35997
#
# Static dielectric constant tensor:
#      x y z
#    x 3.489200 0.000000 0.000000 
#    y 0.000000 3.886360 0.000000 
#    z 0.000000 0.000000 3.340010 
# 
# 
# High freq. dielectric constant tensor:
#      x y z
#    x 1.700650 0.000000 0.000000 
#    y 0.000000 1.736390 0.000000 
#    z 0.000000 0.000000 1.711670 
# 
# From -- ./inp_files/63658.got.cif
#   From: 2010.03.12/outbox.cif.g09.slc.cpg/sg65_32_cif.got.tgz:63658.got - 2010.04.10 20:52:16.
