data_PCOD8272013
_publ_section_title
;
Structure prediction by ZEFSAII (Michael W. Deem and Ramdas Pophale) SiO2 
 PCOD8272013
Probable space group: C M M M
;
_chemical_formula_sum "Si O2"
_cell_formula_units_Z 120
_cell_length_a 24.924043
_cell_length_b 24.545127
_cell_length_c 9.985393
_cell_angle_alpha 90.000000
_cell_angle_beta 90.000000
_cell_angle_gamma 90.000000
_cell_volume 6108.701974
_symmetry_space_group_name_H-M "C M M M"
_symmetry_group_IT_number 65
_symmetry_cell_setting 'orthorhombic'
loop_
_space_group_symop_operation_xyz
x,y,z
-x,-y,z
x,-y,-z
-x,y,-z
-x,-y,-z
x,y,-z
-x,y,z
x,-y,z
1/2+x,1/2+y,z
1/2-x,1/2-y,z
1/2+x,1/2-y,-z
1/2-x,1/2+y,-z
1/2-x,1/2-y,-z
1/2+x,1/2+y,-z
1/2-x,1/2+y,z
1/2+x,1/2-y,z
loop_
_atom_site_type_symbol
_atom_site_label
_atom_site_fract_x
_atom_site_fract_y
_atom_site_fract_z
Si Si1 0.062893 0.130553 0.748817
Si Si2 0.234471 0.597511 0.158572
Si Si3 0.650944 0.439857 0.150066
Si Si4 0.936687 0.059956 0.500000
Si Si5 0.392889 0.255826 0.342484
Si Si6 0.852450 0.439652 0.652705
Si Si7 0.196638 0.716846 0.852164
Si Si8 0.058196 0.359343 0.656034
O O1 0.101068 0.103006 0.858966
O O2 0.082709 0.093765 0.625933
O O3 0.074873 0.193211 0.718050
O O4 0.000000 0.123883 0.785219
O O5 0.295702 0.588896 0.210644
O O6 0.198598 0.557852 0.249422
O O7 0.213623 0.657338 0.196807
O O8 0.227357 0.585841 0.000000
O O9 0.638112 0.500000 0.216472
O O10 0.666828 0.452546 0.000000
O O11 0.000000 0.055461 0.500000
O O12 0.910464 0.000000 0.500000
O O13 0.379969 0.264456 0.500000
O O14 0.338823 0.246742 0.259547
O O15 0.430301 0.203961 0.318335
O O16 0.836370 0.422206 0.500000
O O17 0.877828 0.500000 0.650363
O O18 0.896004 0.398072 0.717471
O O19 0.250000 0.750000 0.868740
O O20 0.168129 0.715180 0.000000
O O21 0.055953 0.372260 0.500000
O O22 0.000000 0.372316 0.720910
#
# Coordination Sequence:
#
# PCOD8272013 Si02
#       8
#    16  16  16   8  16  16  16  16
#     4  11  22  37  58  85 116 153 196 244 296 350
#     4  10  20  38  62  85 114 155 198 240 295 360
#     4  10  22  40  61  86 116 153 200 248 296 356
#     4   9  18  34  54  76 107 146 187 233 285 342
#     4  11  21  36  59  87 118 153 196 242 289 348
#     4  10  20  35  57  87 120 151 191 242 290 342
#     4  10  21  37  58  84 116 154 192 236 294 354
#     4   9  18  33  55  83 116 153 189 232 285 339
#
# _framework density 19.644109
#
# number of rings (size 3 to 8) (size 9 to 14) (size 15 to 20)
#    0.000    1.933    2.000    2.000    0.000    4.533 
#    1.200    2.000    0.000    2.400    0.000    0.933 
#    0.000    0.000    0.000    0.000    0.000    0.000 
#
# Total GULP energy -743449.678338 kJ/mol
# GULP energy per Si atom -12390.827972 kJ/mol
# Density = 1.959940 g / cm^3
# Si number density = 19.644109 Si / 1000 Ang^3
#
#
#
# Elastic Constant Matrix: (Units=GPa)
#
#
# Indices 1 2 3 4 5 6 
#
# 1 137.1451 52.6662 34.5245 0.0000 0.0000 0.0000
# 2 52.6662 125.1512 21.6810 0.0000 0.0000 0.0000
# 3 34.5245 21.6810 47.5942 0.0000 0.0000 0.0000
# 4 0.0000 0.0000 0.0000 30.5482 0.0000 0.0000
# 5 0.0000 0.0000 0.0000 0.0000 15.7744 0.0000
# 6 0.0000 0.0000 0.0000 0.0000 0.0000 30.6277
#
#
#
# Elastic Compliance Matrix: (Units=1/GPa)
#
#
# Indices 1 2 3 4 5 6 
#
# 1 0.009974 -0.003196 -0.005779 0.000000 0.000000 0.000000
# 2 -0.003196 0.009699 -0.002100 0.000000 0.000000 0.000000
# 3 -0.005779 -0.002100 0.026160 0.000000 0.000000 0.000000
# 4 0.000000 0.000000 0.000000 0.032735 0.000000 0.000000
# 5 0.000000 0.000000 0.000000 0.000000 0.063394 0.000000
# 6 0.000000 0.000000 0.000000 0.000000 0.000000 0.032650
#
#
# Mechanical properties :
#
#
# Convention : Reuss Voigt Hill
#
# Bulk Modulus (GPa) = 42.22515 58.62598 50.42557
# Shear Modulus (GPa) = 24.43133 28.79133 26.61133
#
# Velocity S-wave (km/s) = 3.53044 3.83253 3.68458
# Velocity P-wave (km/s) = 6.17741 7.03514 6.62018
#
# Compressibility (1/GPa) = 0.02368257
#
# Stress axis : x y z
#
# Youngs Moduli (GPa) = 100.26441 103.10273 38.22695
#
# Poissons Ratio (x) = 0.32951 0.22091
# Poissons Ratio (y) = 0.32044 0.08027
# Poissons Ratio (z) = 0.57942 0.21651
#
# Static dielectric constant tensor:
#      x y z
#    x 3.548390 0.000000 0.000000 
#    y 0.000000 3.634810 0.000000 
#    z 0.000000 0.000000 3.543430 
# 
# 
# High freq. dielectric constant tensor:
#      x y z
#    x 1.759120 0.000000 0.000000 
#    y 0.000000 1.783850 0.000000 
#    z 0.000000 0.000000 1.740870 
# 
# From -- ./inp_files/29442.got.cif
#   From: 2010.03.12/outbox.cif.g09.slc.cpg/sg65_15_cif.got.tgz:29442.got - 2010.04.10 20:52:16.
