data_PCOD8272071
_publ_section_title
;
Structure prediction by ZEFSAII (Michael W. Deem and Ramdas Pophale) SiO2 
 PCOD8272071
Probable space group: C M M M
;
_chemical_formula_sum "Si O2"
_cell_formula_units_Z 80
_cell_length_a 21.553252
_cell_length_b 21.720512
_cell_length_c 8.953765
_cell_angle_alpha 90.000000
_cell_angle_beta 90.000000
_cell_angle_gamma 90.000000
_cell_volume 4191.684211
_symmetry_space_group_name_H-M "C M M M"
_symmetry_group_IT_number 65
_symmetry_cell_setting 'orthorhombic'
loop_
_space_group_symop_operation_xyz
x,y,z
-x,-y,z
x,-y,-z
-x,y,-z
-x,-y,-z
x,y,-z
-x,y,z
x,-y,z
1/2+x,1/2+y,z
1/2-x,1/2-y,z
1/2+x,1/2-y,-z
1/2-x,1/2+y,-z
1/2-x,1/2-y,-z
1/2+x,1/2+y,-z
1/2-x,1/2+y,z
1/2+x,1/2-y,z
loop_
_atom_site_type_symbol
_atom_site_label
_atom_site_fract_x
_atom_site_fract_y
_atom_site_fract_z
Si Si1 0.000000 0.068231 0.177713
Si Si2 0.742262 0.428404 0.176296
Si Si3 0.071236 0.739847 0.323928
Si Si4 0.427394 0.000000 0.166171
Si Si5 0.865469 0.612301 0.676359
Si Si6 0.118478 0.858322 0.823292
O O1 0.939552 0.102843 0.237461
O O2 0.000000 0.000000 0.245766
O O3 0.000000 0.065389 0.000000
O O4 0.741052 0.500000 0.226148
O O5 0.796690 0.391569 0.257545
O O6 0.679479 0.394874 0.227973
O O7 0.751418 0.423366 0.000000
O O8 0.072381 0.748978 0.500000
O O9 0.102250 0.675774 0.276743
O O10 0.114594 0.791313 0.249631
O O11 0.000000 0.742528 0.264766
O O12 0.407588 0.940532 0.256060
O O13 0.500000 0.000000 0.150268
O O14 0.396691 0.000000 0.000000
O O15 0.862148 0.604200 0.500000
O O16 0.116450 0.850407 0.000000
#
# Coordination Sequence:
#
# PCOD8272071 Si02
#       6
#     8  16  16   8  16  16
#     4   9  16  30  55  87 117 146 193 246 293 345
#     4  10  21  38  59  86 122 157 194 245 303 354
#     4  10  22  40  59  82 117 157 196 245 301 351
#     4  11  23  39  61  91 121 150 191 248 307 353
#     4  11  23  39  61  86 116 158 203 244 291 355
#     4  10  20  35  59  88 116 153 198 245 295 355
#
# _framework density 19.085407
#
# number of rings (size 3 to 8) (size 9 to 14) (size 15 to 20)
#    0.000    1.800    2.000    2.100    0.000    7.200 
#    0.000    4.000    0.000    2.400    0.000    0.000 
#    0.000    0.000    0.000    0.000    0.000    0.000 
#
# Total GULP energy -496102.647984 kJ/mol
# GULP energy per Si atom -12402.566200 kJ/mol
# Density = 1.904197 g / cm^3
# Si number density = 19.085407 Si / 1000 Ang^3
#
#
#
# Elastic Constant Matrix: (Units=GPa)
#
#
# Indices 1 2 3 4 5 6 
#
# 1 133.8082 60.4431 32.9356 0.0000 0.0000 0.0000
# 2 60.4431 146.4749 38.5290 0.0000 0.0000 0.0000
# 3 32.9356 38.5290 33.3747 0.0000 0.0000 0.0000
# 4 0.0000 0.0000 0.0000 38.4214 0.0000 0.0000
# 5 0.0000 0.0000 0.0000 0.0000 24.2120 0.0000
# 6 0.0000 0.0000 0.0000 0.0000 0.0000 31.1712
#
#
#
# Elastic Compliance Matrix: (Units=1/GPa)
#
#
# Indices 1 2 3 4 5 6 
#
# 1 0.010376 -0.002281 -0.007606 0.000000 0.000000 0.000000
# 2 -0.002281 0.010306 -0.009646 0.000000 0.000000 0.000000
# 3 -0.007606 -0.009646 0.048605 0.000000 0.000000 0.000000
# 4 0.000000 0.000000 0.000000 0.026027 0.000000 0.000000
# 5 0.000000 0.000000 0.000000 0.000000 0.041302 0.000000
# 6 0.000000 0.000000 0.000000 0.000000 0.000000 0.032081
#
#
# Mechanical properties :
#
#
# Convention : Reuss Voigt Hill
#
# Bulk Modulus (GPa) = 33.09103 64.16368 48.62735
# Shear Modulus (GPa) = 22.95292 30.87759 26.91526
#
# Velocity S-wave (km/s) = 3.47168 4.02663 3.75941
# Velocity P-wave (km/s) = 5.78326 7.43711 6.66171
#
# Compressibility (1/GPa) = 0.03021967
#
# Stress axis : x y z
#
# Youngs Moduli (GPa) = 96.37731 97.03335 20.57392
#
# Poissons Ratio (x) = 0.22132 0.15649
# Poissons Ratio (y) = 0.21982 0.19847
# Poissons Ratio (z) = 0.73307 0.93603
#
# Static dielectric constant tensor:
#      x y z
#    x 3.676330 0.000000 0.000000 
#    y 0.000000 3.587540 0.000000 
#    z 0.000000 0.000000 3.333540 
# 
# 
# High freq. dielectric constant tensor:
#      x y z
#    x 1.755780 0.000000 0.000000 
#    y 0.000000 1.754340 0.000000 
#    z 0.000000 0.000000 1.726500 
# 
# From -- ./inp_files/13843.got.cif
#   From: 2010.03.12/outbox.cif.g09.slc.cpg/sg65_7_cif.got.tgz:13843.got - 2010.04.10 20:52:16.
