data_PCOD8272352
_publ_section_title
;
Structure prediction by ZEFSAII (Michael W. Deem and Ramdas Pophale) SiO2 
 PCOD8272352
Probable space group: C M M M
;
_chemical_formula_sum "Si O2"
_cell_formula_units_Z 112
_cell_length_a 13.746190
_cell_length_b 13.838252
_cell_length_c 27.287870
_cell_angle_alpha 90.000000
_cell_angle_beta 90.000000
_cell_angle_gamma 90.000000
_cell_volume 5190.787078
_symmetry_space_group_name_H-M "C M M M"
_symmetry_group_IT_number 65
_symmetry_cell_setting 'orthorhombic'
loop_
_space_group_symop_operation_xyz
x,y,z
-x,-y,z
x,-y,-z
-x,y,-z
-x,-y,-z
x,y,-z
-x,y,z
x,-y,z
1/2+x,1/2+y,z
1/2-x,1/2-y,z
1/2+x,1/2-y,-z
1/2-x,1/2+y,-z
1/2-x,1/2-y,-z
1/2+x,1/2+y,-z
1/2-x,1/2+y,z
1/2+x,1/2-y,z
loop_
_atom_site_type_symbol
_atom_site_label
_atom_site_fract_x
_atom_site_fract_y
_atom_site_fract_z
Si Si1 0.884384 0.707871 0.295986
Si Si2 0.610399 0.709544 0.943483
Si Si3 0.111361 0.611449 0.801584
Si Si4 0.291287 0.888542 0.096487
Si Si5 0.885837 0.893291 0.347510
Si Si6 0.294357 0.615033 0.553465
Si Si7 0.392811 0.113800 0.605148
O O1 0.844297 0.672066 0.243802
O O2 0.844688 0.816618 0.307541
O O3 0.852143 0.638683 0.340662
O O4 0.000000 0.706042 0.293059
O O5 0.500000 0.696278 0.925273
O O6 0.642460 0.821452 0.938230
O O7 0.678111 0.639517 0.910812
O O8 0.620968 0.679638 0.000000
O O9 0.114888 0.500000 0.786331
O O10 0.180275 0.632763 0.847574
O O11 0.000000 0.641080 0.814486
O O12 0.309626 0.000000 0.082357
O O13 0.865449 0.852451 0.402450
O O14 0.000000 0.900666 0.341097
O O15 0.838669 0.000000 0.339300
O O16 0.326047 0.656029 0.500000
O O17 0.294637 0.500000 0.551642
O O18 0.184840 0.653359 0.565404
O O19 0.500000 0.160132 0.595811
O O20 0.400419 0.000000 0.600907
#
# Coordination Sequence:
#
# PCOD8272352 Si02
#       7
#    16  16  16  16  16  16  16
#     4   9  17  31  52  77 104 135 171 214 268 324
#     4  10  22  39  59  87 125 168 211 253 298 349
#     4   9  17  31  56  89 118 143 177 227 287 346
#     4  10  20  36  60  90 123 158 201 253 303 353
#     4   9  18  33  52  73  98 130 172 219 259 304
#     4   9  18  32  49  70  97 129 164 203 254 315
#     4   9  17  30  49  72  97 124 157 201 253 314
#
# _framework density 21.576688999999998
#
# number of rings (size 3 to 8) (size 9 to 14) (size 15 to 20)
#    0.000    2.714    0.000    1.714    0.000    5.143 
#    0.000    8.571    0.000    9.429    0.000    4.000 
#    0.000    0.000    0.000    0.000    0.000    0.000 
#
# Total GULP energy -694080.408615 kJ/mol
# GULP energy per Si atom -12394.293011 kJ/mol
# Density = 2.152758 g / cm^3
# Si number density = 21.576689 Si / 1000 Ang^3
#
#
#
# Elastic Constant Matrix: (Units=GPa)
#
#
# Indices 1 2 3 4 5 6 
#
# 1 72.7819 16.0302 44.2865 0.0000 0.0000 0.0000
# 2 16.0302 65.1457 43.7737 0.0000 0.0000 0.0000
# 3 44.2865 43.7737 124.4785 0.0000 0.0000 0.0000
# 4 0.0000 0.0000 0.0000 32.8607 0.0000 0.0000
# 5 0.0000 0.0000 0.0000 0.0000 33.8144 0.0000
# 6 0.0000 0.0000 0.0000 0.0000 0.0000 18.5544
#
#
#
# Elastic Compliance Matrix: (Units=1/GPa)
#
#
# Indices 1 2 3 4 5 6 
#
# 1 0.017537 -0.000161 -0.006183 0.000000 0.000000 0.000000
# 2 -0.000161 0.020101 -0.007011 0.000000 0.000000 0.000000
# 3 -0.006183 -0.007011 0.012699 0.000000 0.000000 0.000000
# 4 0.000000 0.000000 0.000000 0.030431 0.000000 0.000000
# 5 0.000000 0.000000 0.000000 0.000000 0.029573 0.000000
# 6 0.000000 0.000000 0.000000 0.000000 0.000000 0.053896
#
#
# Mechanical properties :
#
#
# Convention : Reuss Voigt Hill
#
# Bulk Modulus (GPa) = 42.32464 52.28743 47.30603
# Shear Modulus (GPa) = 25.14798 27.60027 26.37413
#
# Velocity S-wave (km/s) = 3.41767 3.58043 3.50000
# Velocity P-wave (km/s) = 5.93569 6.43262 6.18914
#
# Compressibility (1/GPa) = 0.02362690
#
# Stress axis : x y z
#
# Youngs Moduli (GPa) = 57.02159 49.74868 78.74762
#
# Poissons Ratio (x) = 0.00801 0.48688
# Poissons Ratio (y) = 0.00918 0.55213
# Poissons Ratio (z) = 0.35255 0.34881
#
# Static dielectric constant tensor:
#      x y z
#    x 3.984900 0.000000 0.000000 
#    y 0.000000 4.054790 0.000000 
#    z 0.000000 0.000000 3.938820 
# 
# 
# High freq. dielectric constant tensor:
#      x y z
#    x 1.844960 0.000000 0.000000 
#    y 0.000000 1.845470 0.000000 
#    z 0.000000 0.000000 1.832720 
# 
# From -- ./inp_files/74866.got.cif
#   From: 2010.03.12/outbox.cif.g09.slc.cpg/sg65_38_cif.got.tgz:74866.got - 2010.04.10 20:52:16.
