data_PCOD8272513
_publ_section_title
;
Structure prediction by ZEFSAII (Michael W. Deem and Ramdas Pophale) SiO2 
 PCOD8272513
Probable space group: C M M M
;
_chemical_formula_sum "Si O2"
_cell_formula_units_Z 72
_cell_length_a 15.665769
_cell_length_b 9.123394
_cell_length_c 25.959360
_cell_angle_alpha 90.000000
_cell_angle_beta 90.000000
_cell_angle_gamma 90.000000
_cell_volume 3710.241084
_symmetry_space_group_name_H-M "C M M M"
_symmetry_group_IT_number 65
_symmetry_cell_setting 'orthorhombic'
loop_
_space_group_symop_operation_xyz
x,y,z
-x,-y,z
x,-y,-z
-x,y,-z
-x,-y,-z
x,y,-z
-x,y,z
x,-y,z
1/2+x,1/2+y,z
1/2-x,1/2-y,z
1/2+x,1/2-y,-z
1/2-x,1/2+y,-z
1/2-x,1/2-y,-z
1/2+x,1/2+y,-z
1/2-x,1/2+y,z
1/2+x,1/2-y,z
loop_
_atom_site_type_symbol
_atom_site_label
_atom_site_fract_x
_atom_site_fract_y
_atom_site_fract_z
Si Si1 0.500000 0.173487 0.377357
Si Si2 0.402593 0.664546 0.096713
Si Si3 0.165005 0.671791 0.440902
Si Si4 0.164937 0.827869 0.794263
Si Si5 0.000000 0.825859 0.731814
Si Si6 0.840240 0.673102 0.000000
O O1 0.583571 0.224673 0.408500
O O2 0.500000 0.254003 0.323537
O O3 0.500000 0.000000 0.369006
O O4 0.500000 0.665967 0.115228
O O5 0.377170 0.500000 0.078365
O O6 0.346635 0.712772 0.145581
O O7 0.391074 0.778519 0.050616
O O8 0.148245 0.716637 0.500000
O O9 0.179371 0.500000 0.435180
O O10 0.250000 0.750000 0.419420
O O11 0.250000 0.750000 0.773305
O O12 0.083958 0.770804 0.762014
O O13 0.175837 0.000000 0.787060
O O14 0.000000 0.000000 0.726716
O O15 0.750000 0.750000 0.000000
O O16 0.829769 0.500000 0.000000
#
# Coordination Sequence:
#
# PCOD8272513 Si02
#       6
#     8  16  16  16   8   8
#     4  10  21  36  56  82 113 149 190 233 283 335
#     4  10  20  38  62  84 111 147 184 225 281 343
#     4   9  18  34  56  82 114 151 190 232 278 331
#     4  10  21  39  62  85 110 146 189 234 282 338
#     4  10  22  41  59  80 113 150 189 235 286 337
#     4  12  25  38  53  81 117 149 185 229 278 337
#
# _framework density 19.405747000000002
#
# number of rings (size 3 to 8) (size 9 to 14) (size 15 to 20)
#    0.000    2.000    1.111    2.333    0.000    8.444 
#    0.000    4.444    0.000    3.333    0.000    0.000 
#    0.000    0.000    0.000    0.000    0.000    0.000 
#
# Total GULP energy -446499.819861 kJ/mol
# GULP energy per Si atom -12402.772774 kJ/mol
# Density = 1.936158 g / cm^3
# Si number density = 19.405747 Si / 1000 Ang^3
#
#
#
# Elastic Constant Matrix: (Units=GPa)
#
#
# Indices 1 2 3 4 5 6 
#
# 1 169.5074 49.4411 73.9521 0.0000 0.0000 0.0000
# 2 49.4411 63.2288 46.9542 0.0000 0.0000 0.0000
# 3 73.9521 46.9542 111.8181 0.0000 0.0000 0.0000
# 4 0.0000 0.0000 0.0000 31.6247 0.0000 0.0000
# 5 0.0000 0.0000 0.0000 0.0000 19.2921 0.0000
# 6 0.0000 0.0000 0.0000 0.0000 0.0000 35.3880
#
#
#
# Elastic Compliance Matrix: (Units=1/GPa)
#
#
# Indices 1 2 3 4 5 6 
#
# 1 0.008863 -0.003745 -0.004289 0.000000 0.000000 0.000000
# 2 -0.003745 0.024565 -0.007838 0.000000 0.000000 0.000000
# 3 -0.004289 -0.007838 0.015071 0.000000 0.000000 0.000000
# 4 0.000000 0.000000 0.000000 0.031621 0.000000 0.000000
# 5 0.000000 0.000000 0.000000 0.000000 0.051835 0.000000
# 6 0.000000 0.000000 0.000000 0.000000 0.000000 0.028258
#
#
# Mechanical properties :
#
#
# Convention : Reuss Voigt Hill
#
# Bulk Modulus (GPa) = 59.68714 76.13879 67.91296
# Shear Modulus (GPa) = 25.31104 28.87475 27.09290
#
# Velocity S-wave (km/s) = 3.61544 3.86158 3.74053
# Velocity P-wave (km/s) = 6.94642 7.69433 7.32992
#
# Compressibility (1/GPa) = 0.01675403
#
# Stress axis : x y z
#
# Youngs Moduli (GPa) = 112.82816 40.70848 66.35264
#
# Poissons Ratio (x) = 0.15247 0.28458
# Poissons Ratio (y) = 0.42258 0.52008
# Poissons Ratio (z) = 0.48391 0.31908
#
# Static dielectric constant tensor:
#      x y z
#    x 3.747630 0.000000 0.000000 
#    y 0.000000 3.428600 0.000000 
#    z 0.000000 0.000000 3.569100 
# 
# 
# High freq. dielectric constant tensor:
#      x y z
#    x 1.771360 0.000000 0.000000 
#    y 0.000000 1.741040 0.000000 
#    z 0.000000 0.000000 1.751650 
# 
# From -- ./inp_files/72575.got.cif
#   From: 2010.03.12/outbox.cif.g09.slc.cpg/sg65_37_cif.got.tgz:72575.got - 2010.04.10 20:52:16.
