data_PCOD8272612
_publ_section_title
;
Structure prediction by ZEFSAII (Michael W. Deem and Ramdas Pophale) SiO2 
 PCOD8272612
Probable space group: C M M M
;
_chemical_formula_sum "Si O2"
_cell_formula_units_Z 72
_cell_length_a 13.434661
_cell_length_b 17.834688
_cell_length_c 16.194933
_cell_angle_alpha 90.000000
_cell_angle_beta 90.000000
_cell_angle_gamma 90.000000
_cell_volume 3880.354326
_symmetry_space_group_name_H-M "C M M M"
_symmetry_group_IT_number 65
_symmetry_cell_setting 'orthorhombic'
loop_
_space_group_symop_operation_xyz
x,y,z
-x,-y,z
x,-y,-z
-x,y,-z
-x,-y,-z
x,y,-z
-x,y,z
x,-y,z
1/2+x,1/2+y,z
1/2-x,1/2-y,z
1/2+x,1/2-y,-z
1/2-x,1/2+y,-z
1/2-x,1/2-y,-z
1/2+x,1/2+y,-z
1/2-x,1/2+y,z
1/2+x,1/2-y,z
loop_
_atom_site_type_symbol
_atom_site_label
_atom_site_fract_x
_atom_site_fract_y
_atom_site_fract_z
Si Si1 0.254244 0.916743 0.906890
Si Si2 0.776778 0.833769 0.650676
Si Si3 0.614501 0.860011 0.774916
Si Si4 0.615582 0.588957 0.500000
Si Si5 0.113352 0.190633 0.812457
O O1 0.349500 0.916821 0.845741
O O2 0.174993 0.854190 0.880614
O O3 0.206395 0.000000 0.901773
O O4 0.289605 0.899246 0.000000
O O5 0.750000 0.750000 0.619455
O O6 0.676498 0.870370 0.689804
O O7 0.822158 0.882418 0.577834
O O8 0.861279 0.835956 0.720467
O O9 0.500000 0.873289 0.752574
O O10 0.636909 0.778897 0.815461
O O11 0.616312 0.500000 0.500000
O O12 0.500000 0.617883 0.500000
O O13 0.000000 0.173084 0.831997
#
# Coordination Sequence:
#
# PCOD8272612 Si02
#       5
#    16  16  16   8  16
#     4  10  21  34  48  72 107 142 174 210 255 310
#     4   9  18  35  56  78 104 135 171 210 254 305
#     4   9  19  36  57  78  99 130 175 221 260 300
#     4  11  23  36  53  81 113 139 166 205 254 308
#     4   9  18  34  56  78 100 130 171 217 262 306
#
# _framework density 18.555005999999999
#
# number of rings (size 3 to 8) (size 9 to 14) (size 15 to 20)
#    0.000    2.556    0.000    3.000    0.000    8.000 
#    0.000    5.000    0.000    0.667    0.000    0.000 
#    0.000    0.000    0.000    0.000    0.000    0.000 
#
# Total GULP energy -446221.600023 kJ/mol
# GULP energy per Si atom -12395.044445 kJ/mol
# Density = 1.851277 g / cm^3
# Si number density = 18.555006 Si / 1000 Ang^3
#
#
#
# Elastic Constant Matrix: (Units=GPa)
#
#
# Indices 1 2 3 4 5 6 
#
# 1 120.3023 38.2913 57.7208 0.0000 0.0000 0.0000
# 2 38.2913 61.9246 46.2843 0.0000 0.0000 0.0000
# 3 57.7208 46.2843 121.4609 0.0000 0.0000 0.0000
# 4 0.0000 0.0000 0.0000 12.1922 0.0000 0.0000
# 5 0.0000 0.0000 0.0000 0.0000 7.7867 0.0000
# 6 0.0000 0.0000 0.0000 0.0000 0.0000 21.4946
#
#
#
# Elastic Compliance Matrix: (Units=1/GPa)
#
#
# Indices 1 2 3 4 5 6 
#
# 1 0.011511 -0.004235 -0.003856 0.000000 0.000000 0.000000
# 2 -0.004235 0.024138 -0.007185 0.000000 0.000000 0.000000
# 3 -0.003856 -0.007185 0.012804 0.000000 0.000000 0.000000
# 4 0.000000 0.000000 0.000000 0.082020 0.000000 0.000000
# 5 0.000000 0.000000 0.000000 0.000000 0.128424 0.000000
# 6 0.000000 0.000000 0.000000 0.000000 0.000000 0.046523
#
#
# Mechanical properties :
#
#
# Convention : Reuss Voigt Hill
#
# Bulk Modulus (GPa) = 55.87027 65.36451 60.61739
# Shear Modulus (GPa) = 14.62245 19.05412 16.83828
#
# Velocity S-wave (km/s) = 2.81029 3.20800 3.01571
# Velocity P-wave (km/s) = 6.38015 7.00183 6.69820
#
# Compressibility (1/GPa) = 0.01789861
#
# Stress axis : x y z
#
# Youngs Moduli (GPa) = 86.87587 41.42796 78.10236
#
# Poissons Ratio (x) = 0.17547 0.30117
# Poissons Ratio (y) = 0.36796 0.56120
# Poissons Ratio (z) = 0.33500 0.29768
#
# Static dielectric constant tensor:
#      x y z
#    x 3.523030 0.000000 0.000000 
#    y 0.000000 3.446070 0.000000 
#    z 0.000000 0.000000 3.280630 
# 
# 
# High freq. dielectric constant tensor:
#      x y z
#    x 1.721520 0.000000 0.000000 
#    y 0.000000 1.715440 0.000000 
#    z 0.000000 0.000000 1.711540 
# 
# From -- ./inp_files/39798.got.cif
#   From: 2010.03.12/outbox.cif.g09.slc.cpg/sg65_20_cif.got.tgz:39798.got - 2010.04.10 20:52:16.
