data_PCOD8272093
_publ_section_title
;
Structure prediction by ZEFSAII (Michael W. Deem and Ramdas Pophale) SiO2 
 PCOD8272093
Probable space group: C M M M
;
_chemical_formula_sum "Si O2"
_cell_formula_units_Z 88
_cell_length_a 21.556185
_cell_length_b 17.430036
_cell_length_c 12.387969
_cell_angle_alpha 90.000000
_cell_angle_beta 90.000000
_cell_angle_gamma 90.000000
_cell_volume 4654.470651
_symmetry_space_group_name_H-M "C M M M"
_symmetry_group_IT_number 65
_symmetry_cell_setting 'orthorhombic'
loop_
_space_group_symop_operation_xyz
x,y,z
-x,-y,z
x,-y,-z
-x,y,-z
-x,-y,-z
x,y,-z
-x,y,z
x,-y,z
1/2+x,1/2+y,z
1/2-x,1/2-y,z
1/2+x,1/2-y,-z
1/2-x,1/2+y,-z
1/2-x,1/2-y,-z
1/2+x,1/2+y,-z
1/2-x,1/2+y,z
1/2+x,1/2-y,z
loop_
_atom_site_type_symbol
_atom_site_label
_atom_site_fract_x
_atom_site_fract_y
_atom_site_fract_z
Si Si1 0.246191 0.840753 0.804501
Si Si2 0.108475 0.816921 0.196128
Si Si3 0.429265 0.205920 0.375256
Si Si4 0.674614 0.087857 0.375105
Si Si5 0.822540 0.590558 0.000000
Si Si6 0.000000 0.910497 0.120624
Si Si7 0.426214 0.790963 0.000000
O O1 0.250000 0.750000 0.818169
O O2 0.173765 0.860479 0.814686
O O3 0.271680 0.867905 0.689142
O O4 0.284411 0.883980 0.895640
O O5 0.102686 0.775388 0.311227
O O6 0.096503 0.753608 0.105293
O O7 0.059526 0.884987 0.187229
O O8 0.426759 0.229559 0.500000
O O9 0.500000 0.192766 0.336179
O O10 0.391964 0.127349 0.353699
O O11 0.693446 0.093223 0.500000
O O12 0.669026 0.000000 0.336488
O O13 0.891063 0.627514 0.000000
O O14 0.831479 0.500000 0.000000
O O15 0.000000 0.000000 0.108589
O O16 0.000000 0.872448 0.000000
O O17 0.500000 0.804845 0.000000
#
# Coordination Sequence:
#
# PCOD8272093 Si02
#       7
#    16  16  16  16   8   8   8
#     4  12  23  38  63  88 117 161 205 243 295 359
#     4  12  21  39  63  86 117 155 200 253 289 350
#     4  10  20  35  61  91 118 157 201 241 295 356
#     4  10  22  40  60  89 126 157 197 253 303 353
#     4  12  26  41  59  92 132 156 192 248 306 360
#     4  11  24  40  61  91 119 150 198 255 307 348
#     4  12  21  38  66  90 116 160 201 240 295 352
#
# _framework density 18.906554
#
# number of rings (size 3 to 8) (size 9 to 14) (size 15 to 20)
#    0.000    0.818    6.364    1.364    0.000    3.091 
#    0.000    1.818    0.000    5.455    0.000    0.000 
#    0.000    0.000    0.000    0.000    0.000    0.000 
#
# Total GULP energy -545747.776374 kJ/mol
# GULP energy per Si atom -12403.358554 kJ/mol
# Density = 1.886352 g / cm^3
# Si number density = 18.906554 Si / 1000 Ang^3
#
#
#
# Elastic Constant Matrix: (Units=GPa)
#
#
# Indices 1 2 3 4 5 6 
#
# 1 156.7655 41.5473 43.2706 0.0000 0.0000 0.0000
# 2 41.5473 97.0380 37.0822 0.0000 0.0000 0.0000
# 3 43.2706 37.0822 82.0957 0.0000 0.0000 0.0000
# 4 0.0000 0.0000 0.0000 27.3915 0.0000 0.0000
# 5 0.0000 0.0000 0.0000 0.0000 16.9680 0.0000
# 6 0.0000 0.0000 0.0000 0.0000 0.0000-2243.2103
#
#
#
# Elastic Compliance Matrix: (Units=1/GPa)
#
#
# Indices 1 2 3 4 5 6 
#
# 1 0.007817 -0.002142 -0.003152 0.000000 0.000000 0.000000
# 2 -0.002142 0.013042 -0.004762 0.000000 0.000000 0.000000
# 3 -0.003152 -0.004762 0.015993 0.000000 0.000000 0.000000
# 4 0.000000 0.000000 0.000000 0.036508 0.000000 0.000000
# 5 0.000000 0.000000 0.000000 0.000000 0.058935 0.000000
# 6 0.000000 0.000000 0.000000 0.000000 0.000000 -0.000446
#
#
# Mechanical properties :
#
#
# Convention : Reuss Voigt Hill
#
# Bulk Modulus (GPa) = 59.73984 64.41103 62.07544
# Shear Modulus (GPa) = 31.73758 -425.50357 -196.88299
#
# Velocity S-wave (km/s) = 4.10158 -15.01815 -10.21572
# Velocity P-wave (km/s) = 7.35504 16.32741 10.30746
#
# Compressibility (1/GPa) = 0.01673925
#
# Stress axis : x y z
#
# Youngs Moduli (GPa) = 127.92909 76.67434 62.52546
#
# Poissons Ratio (x) = 0.16425 0.19711
# Poissons Ratio (y) = 0.27404 0.29775
# Poissons Ratio (z) = 0.40329 0.36512
#
# Static dielectric constant tensor:
#      x y z
#    x 3.963830 0.000000 0.000000 
#    y 0.000000 3.380020 0.000000 
#    z 0.000000 0.000000 3.649030 
# 
# 
# High freq. dielectric constant tensor:
#      x y z
#    x 1.747060 0.000000 0.000000 
#    y 0.000000 1.725430 0.000000 
#    z 0.000000 0.000000 1.743240 
# 
# From -- ./inp_files/28781.got.cif
#   From: 2010.03.12/outbox.cif.g09.slc.cpg/sg65_15_cif.got.tgz:28781.got - 2010.04.10 20:52:16.
