data_PCOD8272837
_publ_section_title
;
Structure prediction by ZEFSAII (Michael W. Deem and Ramdas Pophale) SiO2 
 PCOD8272837
Probable space group: C M M M
;
_chemical_formula_sum "Si O2"
_cell_formula_units_Z 64
_cell_length_a 8.705294
_cell_length_b 18.254223
_cell_length_c 20.410828
_cell_angle_alpha 90.000000
_cell_angle_beta 90.000000
_cell_angle_gamma 90.000000
_cell_volume 3243.451570
_symmetry_space_group_name_H-M "C M M M"
_symmetry_group_IT_number 65
_symmetry_cell_setting 'orthorhombic'
loop_
_space_group_symop_operation_xyz
x,y,z
-x,-y,z
x,-y,-z
-x,y,-z
-x,-y,-z
x,y,-z
-x,y,z
x,-y,z
1/2+x,1/2+y,z
1/2-x,1/2-y,z
1/2+x,1/2-y,-z
1/2-x,1/2+y,-z
1/2-x,1/2-y,-z
1/2+x,1/2+y,-z
1/2-x,1/2+y,z
1/2+x,1/2-y,z
loop_
_atom_site_type_symbol
_atom_site_label
_atom_site_fract_x
_atom_site_fract_y
_atom_site_fract_z
Si Si1 0.176654 0.915244 0.373240
Si Si2 0.677119 0.086508 0.000000
Si Si3 0.319126 0.670078 0.120076
Si Si4 0.682139 0.329721 0.500000
Si Si5 0.679092 0.915454 0.237031
O O1 0.241402 0.870891 0.435187
O O2 0.279306 0.893380 0.311021
O O3 0.000000 0.895774 0.357532
O O4 0.194704 0.000000 0.390923
O O5 0.756622 0.116980 0.064434
O O6 0.500000 0.110146 0.000000
O O7 0.696771 0.000000 0.000000
O O8 0.500000 0.676147 0.113969
O O9 0.250000 0.750000 0.110829
O O10 0.275330 0.636773 0.190029
O O11 0.500000 0.327964 0.500000
O O12 0.750000 0.250000 0.500000
O O13 0.500000 0.902009 0.224572
O O14 0.723977 0.000000 0.223736
#
# Coordination Sequence:
#
# PCOD8272837 Si02
#       5
#    16   8  16   8  16
#     4   9  18  35  58  81 107 145 193 238 280 333
#     4  11  24  43  66  91 121 155 192 237 286 337
#     4  12  25  41  62  88 120 156 195 238 286 341
#     4  10  21  35  53  79 111 146 184 232 288 344
#     4  10  21  38  60  87 118 151 190 237 288 342
#
# _framework density 19.732064999999999
#
# number of rings (size 3 to 8) (size 9 to 14) (size 15 to 20)
#    0.000    1.625    0.000    4.875    0.000    9.000 
#    0.000    2.500    0.000    3.750    0.000    0.000 
#    0.000    0.000    0.000    0.000    0.000    0.000 
#
# Total GULP energy -396977.091808 kJ/mol
# GULP energy per Si atom -12405.534119 kJ/mol
# Density = 1.968715 g / cm^3
# Si number density = 19.732065 Si / 1000 Ang^3
#
#
#
# Elastic Constant Matrix: (Units=GPa)
#
#
# Indices 1 2 3 4 5 6 
#
# 1 116.2444 50.6749 48.3017 0.0000 0.0000 0.0000
# 2 50.6749 85.4165 56.1577 0.0000 0.0000 0.0000
# 3 48.3017 56.1577 124.5202 0.0000 0.0000 0.0000
# 4 0.0000 0.0000 0.0000 10.3410 0.0000 0.0000
# 5 0.0000 0.0000 0.0000 0.0000 34.6640 0.0000
# 6 0.0000 0.0000 0.0000 0.0000 0.0000 34.2477
#
#
#
# Elastic Compliance Matrix: (Units=1/GPa)
#
#
# Indices 1 2 3 4 5 6 
#
# 1 0.011959 -0.005750 -0.002046 0.000000 0.000000 0.000000
# 2 -0.005750 0.019406 -0.006522 0.000000 0.000000 0.000000
# 3 -0.002046 -0.006522 0.011766 0.000000 0.000000 0.000000
# 4 0.000000 0.000000 0.000000 0.096703 0.000000 0.000000
# 5 0.000000 0.000000 0.000000 0.000000 0.028848 0.000000
# 6 0.000000 0.000000 0.000000 0.000000 0.000000 0.029199
#
#
# Mechanical properties :
#
#
# Convention : Reuss Voigt Hill
#
# Bulk Modulus (GPa) = 68.98341 70.71663 69.85002
# Shear Modulus (GPa) = 21.61242 27.25364 24.43303
#
# Velocity S-wave (km/s) = 3.31311 3.72046 3.52268
# Velocity P-wave (km/s) = 7.04781 7.37374 7.21261
#
# Compressibility (1/GPa) = 0.01449624
#
# Stress axis : x y z
#
# Youngs Moduli (GPa) = 83.61718 51.52943 84.99332
#
# Poissons Ratio (x) = 0.29630 0.17388
# Poissons Ratio (y) = 0.48080 0.55430
# Poissons Ratio (z) = 0.17106 0.33606
#
# Static dielectric constant tensor:
#      x y z
#    x 3.637940 0.000000 0.000000 
#    y 0.000000 3.603750 0.000000 
#    z 0.000000 0.000000 3.825100 
# 
# 
# High freq. dielectric constant tensor:
#      x y z
#    x 1.772270 0.000000 0.000000 
#    y 0.000000 1.771750 0.000000 
#    z 0.000000 0.000000 1.785480 
# 
# From -- ./inp_files/58896.got.cif
#   From: 2010.03.12/outbox.cif.g09.slc.cpg/sg65_30_cif.got.tgz:58896.got - 2010.04.10 20:52:16.
