data_PCOD8272969
_publ_section_title
;
Structure prediction by ZEFSAII (Michael W. Deem and Ramdas Pophale) SiO2 
 PCOD8272969
Probable space group: C M M M
;
_chemical_formula_sum "Si O2"
_cell_formula_units_Z 88
_cell_length_a 9.072954
_cell_length_b 28.138165
_cell_length_c 17.903742
_cell_angle_alpha 90.000000
_cell_angle_beta 90.000000
_cell_angle_gamma 90.000000
_cell_volume 4570.758671
_symmetry_space_group_name_H-M "C M M M"
_symmetry_group_IT_number 65
_symmetry_cell_setting 'orthorhombic'
loop_
_space_group_symop_operation_xyz
x,y,z
-x,-y,z
x,-y,-z
-x,y,-z
-x,-y,-z
x,y,-z
-x,y,z
x,-y,z
1/2+x,1/2+y,z
1/2-x,1/2-y,z
1/2+x,1/2-y,-z
1/2-x,1/2+y,-z
1/2-x,1/2-y,-z
1/2+x,1/2+y,-z
1/2-x,1/2+y,z
1/2+x,1/2-y,z
loop_
_atom_site_type_symbol
_atom_site_label
_atom_site_fract_x
_atom_site_fract_y
_atom_site_fract_z
Si Si1 0.670055 0.700547 0.000000
Si Si2 0.327762 0.300399 0.161481
Si Si3 0.835539 0.056431 0.917985
Si Si4 0.174464 0.863783 0.299770
Si Si5 0.829384 0.298207 0.412377
Si Si6 0.829447 0.555435 0.772784
O O1 0.750000 0.750000 0.000000
O O2 0.708265 0.674926 0.079633
O O3 0.500000 0.713266 0.000000
O O4 0.500000 0.290979 0.170673
O O5 0.250000 0.250000 0.170352
O O6 0.272593 0.334950 0.226607
O O7 0.721622 0.072966 0.854968
O O8 0.000000 0.075319 0.897319
O O9 0.838507 0.000000 0.922415
O O10 0.789945 0.076744 0.000000
O O11 0.250348 0.842100 0.372664
O O12 0.235630 0.917176 0.290071
O O13 0.000000 0.864540 0.310935
O O14 0.810198 0.306439 0.500000
O O15 0.750000 0.250000 0.386185
O O16 0.000000 0.295044 0.389097
O O17 0.797345 0.500000 0.761183
O O18 0.000000 0.567830 0.763866
#
# Coordination Sequence:
#
# PCOD8272969 Si02
#       6
#     8  16  16  16  16  16
#     4   8  14  28  46  64  93 132 173 213 254 301
#     4   9  18  31  49  73 101 136 175 216 262 313
#     4   8  14  27  48  71  95 128 173 226 283 337
#     4  11  22  35  54  82 111 143 184 227 276 330
#     4  10  21  38  61  89 120 151 180 215 266 327
#     4  10  21  36  53  74 104 143 186 234 286 335
#
# _framework density 19.252821999999998
#
# number of rings (size 3 to 8) (size 9 to 14) (size 15 to 20)
#    0.000    2.545    0.000    2.727    0.000    5.455 
#    1.636    1.818    0.000    0.545    0.000    3.818 
#    0.000    0.000    0.000    0.000    0.000    0.000 
#
# Total GULP energy -545401.847099 kJ/mol
# GULP energy per Si atom -12395.496525 kJ/mol
# Density = 1.920900 g / cm^3
# Si number density = 19.252822 Si / 1000 Ang^3
#
#
#
# Elastic Constant Matrix: (Units=GPa)
#
#
# Indices 1 2 3 4 5 6 
#
# 1 104.1428 48.1422 50.4381 0.0000 0.0000 0.0000
# 2 48.1422 60.4797 39.9110 0.0000 0.0000 0.0000
# 3 50.4381 39.9110 72.5963 0.0000 0.0000 0.0000
# 4 0.0000 0.0000 0.0000 31.0222 0.0000 0.0000
# 5 0.0000 0.0000 0.0000 0.0000 32.5894 0.0000
# 6 0.0000 0.0000 0.0000 0.0000 0.0000 28.2470
#
#
#
# Elastic Compliance Matrix: (Units=1/GPa)
#
#
# Indices 1 2 3 4 5 6 
#
# 1 0.017156 -0.009088 -0.006924 0.000000 0.000000 0.000000
# 2 -0.009088 0.030762 -0.010598 0.000000 0.000000 0.000000
# 3 -0.006924 -0.010598 0.024412 0.000000 0.000000 0.000000
# 4 0.000000 0.000000 0.000000 0.032235 0.000000 0.000000
# 5 0.000000 0.000000 0.000000 0.000000 0.030685 0.000000
# 6 0.000000 0.000000 0.000000 0.000000 0.000000 0.035402
#
#
# Mechanical properties :
#
#
# Convention : Reuss Voigt Hill
#
# Bulk Modulus (GPa) = 52.32518 57.13348 54.72933
# Shear Modulus (GPa) = 21.71635 24.95357 23.33496
#
# Velocity S-wave (km/s) = 3.36215 3.60404 3.48520
# Velocity P-wave (km/s) = 6.50454 6.85993 6.68460
#
# Compressibility (1/GPa) = 0.01911126
#
# Stress axis : x y z
#
# Youngs Moduli (GPa) = 58.28719 32.50770 40.96381
#
# Poissons Ratio (x) = 0.29541 0.28363
# Poissons Ratio (y) = 0.52969 0.43414
# Poissons Ratio (z) = 0.40357 0.34452
#
# Static dielectric constant tensor:
#      x y z
#    x 3.249300 0.000000 0.000000 
#    y 0.000000 3.303320 0.000000 
#    z 0.000000 0.000000 3.668590 
# 
# 
# High freq. dielectric constant tensor:
#      x y z
#    x 1.749580 0.000000 0.000000 
#    y 0.000000 1.735620 0.000000 
#    z 0.000000 0.000000 1.741000 
# 
# From -- ./inp_files/50416.got.cif
#   From: 2010.03.12/outbox.cif.g09.slc.cpg/sg65_26_cif.got.tgz:50416.got - 2010.04.10 20:52:16.
