data_PCOD8272998
_publ_section_title
;
Structure prediction by ZEFSAII (Michael W. Deem and Ramdas Pophale) SiO2 
 PCOD8272998
Probable space group: C M M M
;
_chemical_formula_sum "Si O2"
_cell_formula_units_Z 88
_cell_length_a 7.646594
_cell_length_b 18.118095
_cell_length_c 30.075722
_cell_angle_alpha 90.000000
_cell_angle_beta 90.000000
_cell_angle_gamma 90.000000
_cell_volume 4166.742151
_symmetry_space_group_name_H-M "C M M M"
_symmetry_group_IT_number 65
_symmetry_cell_setting 'orthorhombic'
loop_
_space_group_symop_operation_xyz
x,y,z
-x,-y,z
x,-y,-z
-x,y,-z
-x,-y,-z
x,y,-z
-x,y,z
x,-y,z
1/2+x,1/2+y,z
1/2-x,1/2-y,z
1/2+x,1/2-y,-z
1/2-x,1/2+y,-z
1/2-x,1/2-y,-z
1/2+x,1/2+y,-z
1/2-x,1/2+y,z
1/2+x,1/2-y,z
loop_
_atom_site_type_symbol
_atom_site_label
_atom_site_fract_x
_atom_site_fract_y
_atom_site_fract_z
Si Si1 0.701639 0.580544 0.868547
Si Si2 0.207208 0.417140 0.304449
Si Si3 0.794067 0.832876 0.951074
Si Si4 0.293937 0.835832 0.606144
Si Si5 0.500000 0.585021 0.447503
Si Si6 0.795759 0.665202 0.781751
O O1 0.500000 0.570182 0.879110
O O2 0.787168 0.500000 0.858891
O O3 0.790272 0.615388 0.912822
O O4 0.717235 0.634418 0.826958
O O5 0.283686 0.500000 0.308383
O O6 0.265517 0.369334 0.346703
O O7 0.284894 0.378926 0.260190
O O8 0.000000 0.419672 0.301728
O O9 0.750000 0.750000 0.937400
O O10 0.000000 0.843244 0.952668
O O11 0.714671 0.851864 0.000000
O O12 0.500000 0.849351 0.596318
O O13 0.250000 0.750000 0.606430
O O14 0.177516 0.875905 0.569076
O O15 0.500000 0.500000 0.431964
O O16 0.500000 0.592089 0.500000
O O17 0.750000 0.750000 0.776095
O O18 0.000000 0.652909 0.783496
#
# Coordination Sequence:
#
# PCOD8272998 Si02
#       6
#    16  16  16  16   8  16
#     4  10  21  36  53  77 109 140 181 232 283 344
#     4   9  19  36  60  88 121 159 201 247 300 362
#     4   9  18  33  53  75 100 135 177 223 276 334
#     4  11  22  42  68  98 133 175 219 272 325 384
#     4  11  26  46  68 100 137 173 223 277 329 393
#     4  11  22  37  57  81 113 152 192 238 290 349
#
# _framework density 21.119617999999999
#
# number of rings (size 3 to 8) (size 9 to 14) (size 15 to 20)
#    0.000    1.909    0.909    2.727    0.000    5.455 
#    3.273    2.727    0.000    0.000    0.000    3.818 
#    0.000    0.000    0.000    0.000    0.000    0.000 
#
# Total GULP energy -545506.784154 kJ/mol
# GULP energy per Si atom -12397.881458 kJ/mol
# Density = 2.107155 g / cm^3
# Si number density = 21.119618 Si / 1000 Ang^3
#
#
#
# Elastic Constant Matrix: (Units=GPa)
#
#
# Indices 1 2 3 4 5 6 
#
# 1 61.8384 24.2213 28.6079 0.0000 0.0000 0.0000
# 2 24.2213 183.0262 85.9204 0.0000 0.0000 0.0000
# 3 28.6079 85.9204 148.2017 0.0000 0.0000 0.0000
# 4 0.0000 0.0000 0.0000 47.0623 0.0000 0.0000
# 5 0.0000 0.0000 0.0000 0.0000 18.7579 0.0000
# 6 0.0000 0.0000 0.0000 0.0000 0.0000 10.3553
#
#
#
# Elastic Compliance Matrix: (Units=1/GPa)
#
#
# Indices 1 2 3 4 5 6 
#
# 1 0.017896 -0.001026 -0.002860 0.000000 0.000000 0.000000
# 2 -0.001026 0.007566 -0.004188 0.000000 0.000000 0.000000
# 3 -0.002860 -0.004188 0.009728 0.000000 0.000000 0.000000
# 4 0.000000 0.000000 0.000000 0.021248 0.000000 0.000000
# 5 0.000000 0.000000 0.000000 0.000000 0.053311 0.000000
# 6 0.000000 0.000000 0.000000 0.000000 0.000000 0.096569
#
#
# Mechanical properties :
#
#
# Convention : Reuss Voigt Hill
#
# Bulk Modulus (GPa) = 52.51625 74.50728 63.51176
# Shear Modulus (GPa) = 21.85198 32.18955 27.02076
#
# Velocity S-wave (km/s) = 3.22013 3.90828 3.58077
# Velocity P-wave (km/s) = 6.22461 7.46468 6.87267
#
# Compressibility (1/GPa) = 0.01904173
#
# Stress axis : x y z
#
# Youngs Moduli (GPa) = 55.87841 132.17828 102.79940
#
# Poissons Ratio (x) = 0.13559 0.29399
# Poissons Ratio (y) = 0.05732 0.43054
# Poissons Ratio (z) = 0.15980 0.55358
#
# Static dielectric constant tensor:
#      x y z
#    x 3.694500 0.000000 0.000000 
#    y 0.000000 4.103180 0.000000 
#    z 0.000000 0.000000 4.045260 
# 
# 
# High freq. dielectric constant tensor:
#      x y z
#    x 1.813270 0.000000 0.000000 
#    y 0.000000 1.839750 0.000000 
#    z 0.000000 0.000000 1.835910 
# 
# From -- ./inp_files/76468.got.cif
#   From: 2010.03.12/outbox.cif.g09.slc.cpg/sg65_39_cif.got.tgz:76468.got - 2010.04.10 20:52:16.
