data_PCOD8272112
_publ_section_title
;
Structure prediction by ZEFSAII (Michael W. Deem and Ramdas Pophale) SiO2 
 PCOD8272112
Probable space group: C M M M
;
_chemical_formula_sum "Si O2"
_cell_formula_units_Z 88
_cell_length_a 8.924788
_cell_length_b 28.905950
_cell_length_c 18.140922
_cell_angle_alpha 90.000000
_cell_angle_beta 90.000000
_cell_angle_gamma 90.000000
_cell_volume 4679.985546
_symmetry_space_group_name_H-M "C M M M"
_symmetry_group_IT_number 65
_symmetry_cell_setting 'orthorhombic'
loop_
_space_group_symop_operation_xyz
x,y,z
-x,-y,z
x,-y,-z
-x,y,-z
-x,-y,-z
x,y,-z
-x,y,z
x,-y,z
1/2+x,1/2+y,z
1/2-x,1/2-y,z
1/2+x,1/2-y,-z
1/2-x,1/2+y,-z
1/2-x,1/2-y,-z
1/2+x,1/2+y,-z
1/2-x,1/2+y,z
1/2+x,1/2-y,z
loop_
_atom_site_type_symbol
_atom_site_label
_atom_site_fract_x
_atom_site_fract_y
_atom_site_fract_z
Si Si1 0.178800 0.199928 0.500000
Si Si2 0.670674 0.948900 0.155095
Si Si3 0.322663 0.299811 0.211779
Si Si4 0.826674 0.644805 0.083460
Si Si5 0.822037 0.853192 0.356529
Si Si6 0.177227 0.050384 0.692264
O O1 0.250000 0.250000 0.500000
O O2 0.239990 0.172667 0.428542
O O3 0.000000 0.204161 0.500000
O O4 0.500000 0.945305 0.183297
O O5 0.704220 0.909956 0.094246
O O6 0.777084 0.939831 0.224143
O O7 0.701215 0.000000 0.120913
O O8 0.500000 0.294611 0.212763
O O9 0.250000 0.250000 0.215032
O O10 0.275378 0.325279 0.137202
O O11 0.263155 0.328195 0.282671
O O12 0.000000 0.656584 0.099082
O O13 0.782579 0.657506 0.000000
O O14 0.764369 0.906739 0.357568
O O15 0.000000 0.852087 0.357386
O O16 0.000000 0.049367 0.689813
O O17 0.240219 0.000000 0.665231
#
# Coordination Sequence:
#
# PCOD8272112 Si02
#       6
#     8  16  16  16  16  16
#     4  10  20  36  55  77 109 139 172 216 263 308
#     4   9  17  30  50  77 106 136 171 212 257 304
#     4  11  22  37  56  77 101 133 176 219 265 315
#     4  10  21  36  53  76 106 138 174 216 262 312
#     4   9  18  33  54  80 107 137 170 212 258 305
#     4   9  16  29  51  77 105 137 172 208 251 306
#
# _framework density 18.803477000000001
#
# number of rings (size 3 to 8) (size 9 to 14) (size 15 to 20)
#    0.000    2.364    1.818    1.091    0.000    1.091 
#    0.000    4.091    0.000    2.727    0.000    3.818 
#    0.000    3.636    0.000    0.000    0.000    0.000 
#
# Total GULP energy -545395.613464 kJ/mol
# GULP energy per Si atom -12395.354851 kJ/mol
# Density = 1.876068 g / cm^3
# Si number density = 18.803477 Si / 1000 Ang^3
#
#
#
# Elastic Constant Matrix: (Units=GPa)
#
#
# Indices 1 2 3 4 5 6 
#
# 1 28.4393 36.6655 25.2627 0.0000 0.0000 0.0000
# 2 36.6655 168.0950 81.7310 0.0000 0.0000 0.0000
# 3 25.2627 81.7310 127.9292 0.0000 0.0000 0.0000
# 4 0.0000 0.0000 0.0000 27.3939 0.0000 0.0000
# 5 0.0000 0.0000 0.0000 0.0000 18.0455 0.0000
# 6 0.0000 0.0000 0.0000 0.0000 0.0000 11.9398
#
#
#
# Elastic Compliance Matrix: (Units=1/GPa)
#
#
# Indices 1 2 3 4 5 6 
#
# 1 0.050467 -0.008939 -0.004255 0.000000 0.000000 0.000000
# 2 -0.008939 0.010213 -0.004760 0.000000 0.000000 0.000000
# 3 -0.004255 -0.004760 0.011698 0.000000 0.000000 0.000000
# 4 0.000000 0.000000 0.000000 0.036505 0.000000 0.000000
# 5 0.000000 0.000000 0.000000 0.000000 0.055416 0.000000
# 6 0.000000 0.000000 0.000000 0.000000 0.000000 0.083753
#
#
# Mechanical properties :
#
#
# Convention : Reuss Voigt Hill
#
# Bulk Modulus (GPa) = 27.41929 67.97575 47.69752
# Shear Modulus (GPa) = 16.88526 23.52945 20.20735
#
# Velocity S-wave (km/s) = 2.99989 3.54126 3.28176
# Velocity P-wave (km/s) = 5.15876 7.27666 6.30724
#
# Compressibility (1/GPa) = 0.03647068
#
# Stress axis : x y z
#
# Youngs Moduli (GPa) = 19.81479 97.91328 85.48552
#
# Poissons Ratio (x) = 0.87528 0.36373
# Poissons Ratio (y) = 0.17713 0.40688
# Poissons Ratio (z) = 0.08431 0.46603
#
# Static dielectric constant tensor:
#      x y z
#    x 3.236730 0.000000 0.000000 
#    y 0.000000 3.944470 0.000000 
#    z 0.000000 0.000000 3.456150 
# 
# 
# High freq. dielectric constant tensor:
#      x y z
#    x 1.704900 0.000000 0.000000 
#    y 0.000000 1.753500 0.000000 
#    z 0.000000 0.000000 1.711140 
# 
# From -- ./inp_files/50418.got.cif
#   From: 2010.03.12/outbox.cif.g09.slc.cpg/sg65_26_cif.got.tgz:50418.got - 2010.04.10 20:52:16.
