data_PCOD8272372
_publ_section_title
;
Structure prediction by ZEFSAII (Michael W. Deem and Ramdas Pophale) SiO2 
 PCOD8272372
Probable space group: C M M M
;
_chemical_formula_sum "Si O2"
_cell_formula_units_Z 56
_cell_length_a 16.949523
_cell_length_b 9.119743
_cell_length_c 16.692931
_cell_angle_alpha 90.000000
_cell_angle_beta 90.000000
_cell_angle_gamma 90.000000
_cell_volume 2580.314713
_symmetry_space_group_name_H-M "C M M M"
_symmetry_group_IT_number 65
_symmetry_cell_setting 'orthorhombic'
loop_
_space_group_symop_operation_xyz
x,y,z
-x,-y,z
x,-y,-z
-x,y,-z
-x,-y,-z
x,y,-z
-x,y,z
x,-y,z
1/2+x,1/2+y,z
1/2-x,1/2-y,z
1/2+x,1/2-y,-z
1/2-x,1/2+y,-z
1/2-x,1/2-y,-z
1/2+x,1/2+y,-z
1/2-x,1/2+y,z
1/2+x,1/2-y,z
loop_
_atom_site_type_symbol
_atom_site_label
_atom_site_fract_x
_atom_site_fract_y
_atom_site_fract_z
Si Si1 0.086146 0.771829 0.181575
Si Si2 0.625129 0.000000 0.906660
Si Si3 0.165208 0.676498 0.657499
Si Si4 0.306211 0.500000 0.096594
Si Si5 0.336365 0.321468 0.500000
O O1 0.075727 0.635072 0.124393
O O2 0.109780 0.718355 0.269314
O O3 0.153504 0.862818 0.138002
O O4 0.000000 0.850636 0.186311
O O5 0.715687 0.000000 0.875633
O O6 0.626733 0.000000 0.000000
O O7 0.172736 0.500000 0.647058
O O8 0.250000 0.750000 0.672175
O O9 0.123747 0.754162 0.580032
O O10 0.316883 0.500000 0.000000
O O11 0.336021 0.500000 0.500000
O O12 0.250000 0.250000 0.500000
#
# Coordination Sequence:
#
# PCOD8272372 Si02
#       5
#    16   8  16   8   8
#     4  12  26  41  63  96 134 172 213 264 328 390
#     4  11  23  43  69  94 125 166 221 271 318 381
#     4  11  22  39  66  95 131 172 219 268 319 383
#     4  11  25  45  67  94 125 170 221 273 326 385
#     4  10  20  36  63  98 131 167 218 270 318 376
#
# _framework density 21.702779
#
# number of rings (size 3 to 8) (size 9 to 14) (size 15 to 20)
#    0.000    0.857    1.429    8.143    4.000    5.714 
#    0.000    0.714    0.000    2.571    0.000    0.000 
#    0.000    0.000    0.000    0.000    0.000    0.000 
#
# Total GULP energy -346946.394999 kJ/mol
# GULP energy per Si atom -12390.942679 kJ/mol
# Density = 2.165338 g / cm^3
# Si number density = 21.702779 Si / 1000 Ang^3
#
#
#
# Elastic Constant Matrix: (Units=GPa)
#
#
# Indices 1 2 3 4 5 6 
#
# 1 92.5526 14.6184 46.2756 0.0000 0.0000 0.0000
# 2 14.6184 146.3873 47.0062 0.0000 0.0000 0.0000
# 3 46.2756 47.0062 92.5259 0.0000 0.0000 0.0000
# 4 0.0000 0.0000 0.0000 43.6551 0.0000 0.0000
# 5 0.0000 0.0000 0.0000 0.0000 -0.6638 0.0000
# 6 0.0000 0.0000 0.0000 0.0000 0.0000 352.9942
#
#
#
# Elastic Compliance Matrix: (Units=1/GPa)
#
#
# Indices 1 2 3 4 5 6 
#
# 1 0.014543 0.001055 -0.007810 0.000000 0.000000 0.000000
# 2 0.001055 0.008239 -0.004714 0.000000 0.000000 0.000000
# 3 -0.007810 -0.004714 0.017108 0.000000 0.000000 0.000000
# 4 0.000000 0.000000 0.000000 0.022907 0.000000 0.000000
# 5 0.000000 0.000000 0.000000 0.000000 -1.506522 0.000000
# 6 0.000000 0.000000 0.000000 0.000000 0.000000 0.002833
#
#
# Mechanical properties :
#
#
# Convention : Reuss Voigt Hill
#
# Bulk Modulus (GPa) = 58.98042 60.80735 59.89388
# Shear Modulus (GPa) = -3.54031 94.10148 45.28058
#
# Velocity S-wave (km/s) = -1.27860 6.59191 4.57266
# Velocity P-wave (km/s) = 5.00557 9.27452 7.45226
#
# Compressibility (1/GPa) = 0.01695478
#
# Stress axis : x y z
#
# Youngs Moduli (GPa) = 68.76318 121.36768 58.45094
#
# Poissons Ratio (x) = -0.12810 0.45647
# Poissons Ratio (y) = -0.07258 0.27552
# Poissons Ratio (z) = 0.53701 0.57210
#
# Static dielectric constant tensor:
#      x y z
#    x 4.324460 0.000000 0.000000 
#    y 0.000000 3.633350 0.000000 
#    z 0.000000 0.000000 4.678210 
# 
# 
# High freq. dielectric constant tensor:
#      x y z
#    x 1.834470 0.000000 0.000000 
#    y 0.000000 1.866290 0.000000 
#    z 0.000000 0.000000 1.877570 
# 
# From -- ./inp_files/53918.got.cif
#   From: 2010.03.12/outbox.cif.g09.slc.cpg/sg65_27_cif.got.tgz:53918.got - 2010.04.10 20:52:16.
