data_PCOD8272591
_publ_section_title
;
Structure prediction by ZEFSAII (Michael W. Deem and Ramdas Pophale) SiO2 
 PCOD8272591
Probable space group: C M M M
;
_chemical_formula_sum "Si O2"
_cell_formula_units_Z 96
_cell_length_a 16.120739
_cell_length_b 19.248563
_cell_length_c 14.166384
_cell_angle_alpha 90.000000
_cell_angle_beta 90.000000
_cell_angle_gamma 90.000000
_cell_volume 4395.843975
_symmetry_space_group_name_H-M "C M M M"
_symmetry_group_IT_number 65
_symmetry_cell_setting 'orthorhombic'
loop_
_space_group_symop_operation_xyz
x,y,z
-x,-y,z
x,-y,-z
-x,y,-z
-x,-y,-z
x,y,-z
-x,y,z
x,-y,z
1/2+x,1/2+y,z
1/2-x,1/2-y,z
1/2+x,1/2-y,-z
1/2-x,1/2+y,-z
1/2-x,1/2-y,-z
1/2+x,1/2+y,-z
1/2-x,1/2+y,z
1/2+x,1/2-y,z
loop_
_atom_site_type_symbol
_atom_site_label
_atom_site_fract_x
_atom_site_fract_y
_atom_site_fract_z
Si Si1 0.335078 0.079842 0.110264
Si Si2 0.500000 0.924952 0.195816
Si Si3 0.309293 0.419859 0.388062
Si Si4 0.667941 0.815424 0.394878
Si Si5 0.194318 0.182235 0.106321
Si Si6 0.596384 0.690553 0.712721
Si Si7 0.500000 0.105733 0.600187
O O1 0.415547 0.113805 0.163470
O O2 0.252114 0.118877 0.141583
O O3 0.323303 0.000000 0.139539
O O4 0.351270 0.090213 0.000000
O O5 0.500000 0.941581 0.307491
O O6 0.500000 0.000000 0.143601
O O7 0.321642 0.417035 0.500000
O O8 0.299603 0.500000 0.354912
O O9 0.228292 0.375879 0.354950
O O10 0.388429 0.383998 0.337571
O O11 0.696588 0.793802 0.500000
O O12 0.662704 0.745248 0.332539
O O13 0.576806 0.844146 0.396646
O O14 0.250000 0.250000 0.109220
O O15 0.115867 0.186411 0.175765
O O16 0.160740 0.169501 0.000000
O O17 0.500000 0.711776 0.699797
O O18 0.500000 0.062989 0.500000
#
# Coordination Sequence:
#
# PCOD8272591 Si02
#       7
#    16   8  16  16  16  16   8
#     4   9  19  38  63  90 121 157 200 251 306 368
#     4  10  21  33  58  95 125 161 202 247 302 362
#     4  10  23  42  65  95 129 165 208 262 318 367
#     4  10  21  41  66  92 123 163 211 257 306 370
#     4  10  23  42  62  89 124 162 203 253 315 373
#     4  12  25  40  66  94 123 166 212 261 311 371
#     4  10  22  36  55  88 129 167 205 244 296 368
#
# _framework density 21.838809999999999
#
# number of rings (size 3 to 8) (size 9 to 14) (size 15 to 20)
#    0.000    1.833    0.833    2.250    4.667    5.500 
#    0.000    2.500    0.000    0.000    0.000    3.500 
#    0.000    0.000    0.000    0.000    0.000    0.000 
#
# Total GULP energy -594985.567884 kJ/mol
# GULP energy per Si atom -12395.532664 kJ/mol
# Density = 2.178910 g / cm^3
# Si number density = 21.838810 Si / 1000 Ang^3
#
#
#
# Elastic Constant Matrix: (Units=GPa)
#
#
# Indices 1 2 3 4 5 6 
#
# 1 76.9991 40.6341 30.3160 0.0000 0.0000 0.0000
# 2 40.6341 120.8636 37.5815 0.0000 0.0000 0.0000
# 3 30.3160 37.5815 95.6313 0.0000 0.0000 0.0000
# 4 0.0000 0.0000 0.0000 -19.5399 0.0000 0.0000
# 5 0.0000 0.0000 0.0000 0.0000 34.1592 0.0000
# 6 0.0000 0.0000 0.0000 0.0000 0.0000 98.5259
#
#
#
# Elastic Compliance Matrix: (Units=1/GPa)
#
#
# Indices 1 2 3 4 5 6 
#
# 1 0.016775 -0.004541 -0.003533 0.000000 0.000000 0.000000
# 2 -0.004541 0.010655 -0.002748 0.000000 0.000000 0.000000
# 3 -0.003533 -0.002748 0.012657 0.000000 0.000000 0.000000
# 4 0.000000 0.000000 0.000000 -0.051177 0.000000 0.000000
# 5 0.000000 0.000000 0.000000 0.000000 0.029275 0.000000
# 6 0.000000 0.000000 0.000000 0.000000 0.000000 0.010150
#
#
# Mechanical properties :
#
#
# Convention : Reuss Voigt Hill
#
# Bulk Modulus (GPa) = 54.22258 56.72857 55.47558
# Shear Modulus (GPa) = 89.08823 34.95985 62.02404
#
# Velocity S-wave (km/s) = 6.39391 4.00536 5.33502
# Velocity P-wave (km/s) = 8.91021 6.88643 7.96288
#
# Compressibility (1/GPa) = 0.01844250
#
# Stress axis : x y z
#
# Youngs Moduli (GPa) = 59.61387 93.85436 79.00985
#
# Poissons Ratio (x) = 0.42619 0.27916
# Poissons Ratio (y) = 0.27071 0.21709
# Poissons Ratio (z) = 0.21063 0.25788
#
# Static dielectric constant tensor:
#      x y z
#    x 3.935610 0.000000 0.000000 
#    y 0.000000 3.961520 0.000000 
#    z 0.000000 0.000000 4.193780 
# 
# 
# High freq. dielectric constant tensor:
#      x y z
#    x 1.846270 0.000000 0.000000 
#    y 0.000000 1.851150 0.000000 
#    z 0.000000 0.000000 1.867400 
# 
# From -- ./inp_files/40466.got.cif
#   From: 2010.03.12/outbox.cif.g09.slc.cpg/sg65_21_cif.got.tgz:40466.got - 2010.04.10 20:52:16.
