data_PCOD8272279
_publ_section_title
;
Structure prediction by ZEFSAII (Michael W. Deem and Ramdas Pophale) SiO2 
 PCOD8272279
Probable space group: C M M M
;
_chemical_formula_sum "Si O2"
_cell_formula_units_Z 104
_cell_length_a 17.553813
_cell_length_b 17.722319
_cell_length_c 17.920307
_cell_angle_alpha 90.000000
_cell_angle_beta 90.000000
_cell_angle_gamma 90.000000
_cell_volume 5574.904890
_symmetry_space_group_name_H-M "C M M M"
_symmetry_group_IT_number 65
_symmetry_cell_setting 'orthorhombic'
loop_
_space_group_symop_operation_xyz
x,y,z
-x,-y,z
x,-y,-z
-x,y,-z
-x,-y,-z
x,y,-z
-x,y,z
x,-y,z
1/2+x,1/2+y,z
1/2-x,1/2-y,z
1/2+x,1/2-y,-z
1/2-x,1/2+y,-z
1/2-x,1/2-y,-z
1/2+x,1/2+y,-z
1/2-x,1/2+y,z
1/2+x,1/2-y,z
loop_
_atom_site_type_symbol
_atom_site_label
_atom_site_fract_x
_atom_site_fract_y
_atom_site_fract_z
Si Si1 0.000000 0.910356 0.582963
Si Si2 0.277888 0.834534 0.413068
Si Si3 0.913828 0.808480 0.785705
Si Si4 0.353542 0.588150 0.327957
Si Si5 0.411310 0.086199 0.843960
Si Si6 0.585222 0.157458 0.692692
Si Si7 0.836390 0.272261 0.086527
O O1 0.925332 0.880511 0.624844
O O2 0.000000 0.875481 0.500000
O O3 0.000000 0.000000 0.578953
O O4 0.281125 0.854330 0.500000
O O5 0.250000 0.750000 0.398428
O O6 0.222143 0.892561 0.372586
O O7 0.360717 0.848231 0.378607
O O8 0.857863 0.872979 0.753329
O O9 0.905141 0.737644 0.731692
O O10 0.889287 0.786143 0.868874
O O11 0.000000 0.838947 0.788696
O O12 0.358047 0.500000 0.314721
O O13 0.500000 0.107468 0.859932
O O14 0.395034 0.094830 0.755480
O O15 0.356172 0.141375 0.890874
O O16 0.394021 0.000000 0.867555
O O17 0.500000 0.145828 0.662063
O O18 0.750000 0.250000 0.106058
O O19 0.854049 0.261018 0.000000
#
# Coordination Sequence:
#
# PCOD8272279 Si02
#       7
#     8  16  16  16  16  16  16
#     4   9  18  34  54  78 113 145 174 229 297 345
#     4  11  23  37  54  80 116 154 195 243 292 346
#     4  10  20  36  59  84 111 148 193 232 276 342
#     4  11  22  36  56  83 111 146 193 243 292 341
#     4   9  19  36  61  91 117 147 191 241 290 340
#     4   9  19  36  57  82 114 152 192 234 284 342
#     4  10  22  38  58  87 123 157 188 230 285 345
#
# _framework density 18.655027
#
# number of rings (size 3 to 8) (size 9 to 14) (size 15 to 20)
#    0.000    2.077    2.308    1.846    4.308    3.385 
#    0.000    0.769    0.000    1.385    0.000    4.308 
#    0.000    0.000    0.000    0.000    0.000    0.000 
#
# Total GULP energy -644842.590664 kJ/mol
# GULP energy per Si atom -12400.819051 kJ/mol
# Density = 1.861257 g / cm^3
# Si number density = 18.655027 Si / 1000 Ang^3
#
#
#
# Elastic Constant Matrix: (Units=GPa)
#
#
# Indices 1 2 3 4 5 6 
#
# 1 114.9377 38.7388 62.3974 0.0000 0.0000 0.0000
# 2 38.7388 86.8100 47.7825 0.0000 0.0000 0.0000
# 3 62.3974 47.7825 112.2012 0.0000 0.0000 0.0000
# 4 0.0000 0.0000 0.0000 19.8343 0.0000 0.0000
# 5 0.0000 0.0000 0.0000 0.0000 31.6812 0.0000
# 6 0.0000 0.0000 0.0000 0.0000 0.0000 28.4784
#
#
#
# Elastic Compliance Matrix: (Units=1/GPa)
#
#
# Indices 1 2 3 4 5 6 
#
# 1 0.012819 -0.002347 -0.006130 0.000000 0.000000 0.000000
# 2 -0.002347 0.015476 -0.005286 0.000000 0.000000 0.000000
# 3 -0.006130 -0.005286 0.014572 0.000000 0.000000 0.000000
# 4 0.000000 0.000000 0.000000 0.050418 0.000000 0.000000
# 5 0.000000 0.000000 0.000000 0.000000 0.031564 0.000000
# 6 0.000000 0.000000 0.000000 0.000000 0.000000 0.035114
#
#
# Mechanical properties :
#
#
# Convention : Reuss Voigt Hill
#
# Bulk Modulus (GPa) = 65.17383 67.97626 66.57504
# Shear Modulus (GPa) = 25.96032 27.00079 26.48056
#
# Velocity S-wave (km/s) = 3.73446 3.80856 3.77169
# Velocity P-wave (km/s) = 7.32169 7.47381 7.39814
#
# Compressibility (1/GPa) = 0.01534358
#
# Stress axis : x y z
#
# Youngs Moduli (GPa) = 78.01021 64.61649 68.62334
#
# Poissons Ratio (x) = 0.15162 0.42063
# Poissons Ratio (y) = 0.18305 0.36272
# Poissons Ratio (z) = 0.47816 0.34154
#
# Static dielectric constant tensor:
#      x y z
#    x 3.510750 0.000000 0.000000 
#    y 0.000000 3.323240 0.000000 
#    z 0.000000 0.000000 3.378720 
# 
# 
# High freq. dielectric constant tensor:
#      x y z
#    x 1.728430 0.000000 0.000000 
#    y 0.000000 1.711420 0.000000 
#    z 0.000000 0.000000 1.715070 
# 
# From -- ./inp_files/54594.got.cif
#   From: 2010.03.12/outbox.cif.g09.slc.cpg/sg65_28_cif.got.tgz:54594.got - 2010.04.10 20:52:16.
