data_PCOD8272133
_publ_section_title
;
Structure prediction by ZEFSAII (Michael W. Deem and Ramdas Pophale) SiO2 
 PCOD8272133
Probable space group: C M M M
;
_chemical_formula_sum "Si O2"
_cell_formula_units_Z 88
_cell_length_a 22.730140
_cell_length_b 21.979055
_cell_length_c 9.506097
_cell_angle_alpha 90.000000
_cell_angle_beta 90.000000
_cell_angle_gamma 90.000000
_cell_volume 4749.122455
_symmetry_space_group_name_H-M "C M M M"
_symmetry_group_IT_number 65
_symmetry_cell_setting 'orthorhombic'
loop_
_space_group_symop_operation_xyz
x,y,z
-x,-y,z
x,-y,-z
-x,y,-z
-x,-y,-z
x,y,-z
-x,y,z
x,-y,z
1/2+x,1/2+y,z
1/2-x,1/2-y,z
1/2+x,1/2-y,-z
1/2-x,1/2+y,-z
1/2-x,1/2-y,-z
1/2+x,1/2+y,-z
1/2-x,1/2+y,z
1/2+x,1/2-y,z
loop_
_atom_site_type_symbol
_atom_site_label
_atom_site_fract_x
_atom_site_fract_y
_atom_site_fract_z
Si Si1 0.933031 0.000000 0.333676
Si Si2 0.746151 0.678329 0.661967
Si Si3 0.381684 0.371836 0.665209
Si Si4 0.933455 0.428432 0.655769
Si Si5 0.566479 0.731512 0.839219
Si Si6 0.143360 0.654354 0.166005
O O1 0.896352 0.059461 0.284154
O O2 0.937439 0.000000 0.500000
O O3 0.000000 0.000000 0.271804
O O4 0.760497 0.663542 0.500000
O O5 0.750000 0.750000 0.690133
O O6 0.684225 0.648427 0.705896
O O7 0.793529 0.647339 0.762206
O O8 0.392524 0.364291 0.500000
O O9 0.426791 0.327804 0.743842
O O10 0.911822 0.407359 0.500000
O O11 0.928875 0.500000 0.667862
O O12 0.894938 0.401436 0.780129
O O13 0.000000 0.406452 0.678015
O O14 0.500000 0.756167 0.823369
O O15 0.611508 0.783269 0.787536
O O16 0.580092 0.713702 0.000000
O O17 0.150587 0.649740 0.000000
#
# Coordination Sequence:
#
# PCOD8272133 Si02
#       6
#     8  16  16  16  16  16
#     4   9  18  34  57  85 111 137 180 233 282 333
#     4  10  20  36  56  79 109 143 186 232 276 334
#     4  10  20  36  58  81 108 143 184 231 281 330
#     4   9  19  37  59  82 110 145 185 229 278 332
#     4  10  21  35  52  79 113 144 177 221 276 337
#     4  11  22  35  55  81 113 148 185 228 279 338
#
# _framework density 18.529737999999998
#
# number of rings (size 3 to 8) (size 9 to 14) (size 15 to 20)
#    0.000    2.091    1.818    2.182    0.000    4.364 
#    1.636    1.364    0.000    1.636    0.000    0.000 
#    0.000    0.000    0.000    0.000    0.000    0.000 
#
# Total GULP energy -545607.793514 kJ/mol
# GULP energy per Si atom -12400.177125 kJ/mol
# Density = 1.848756 g / cm^3
# Si number density = 18.529738 Si / 1000 Ang^3
#
#
#
# Elastic Constant Matrix: (Units=GPa)
#
#
# Indices 1 2 3 4 5 6 
#
# 1 116.9777 53.7579 42.9198 0.0000 0.0000 0.0000
# 2 53.7579 75.2064 29.8493 0.0000 0.0000 0.0000
# 3 42.9198 29.8493 57.7152 0.0000 0.0000 0.0000
# 4 0.0000 0.0000 0.0000 24.5756 0.0000 0.0000
# 5 0.0000 0.0000 0.0000 0.0000 19.7220 0.0000
# 6 0.0000 0.0000 0.0000 0.0000 0.0000 33.1215
#
#
#
# Elastic Compliance Matrix: (Units=1/GPa)
#
#
# Indices 1 2 3 4 5 6 
#
# 1 0.014621 -0.007720 -0.006880 0.000000 0.000000 0.000000
# 2 -0.007720 0.020808 -0.005020 0.000000 0.000000 0.000000
# 3 -0.006880 -0.005020 0.025039 0.000000 0.000000 0.000000
# 4 0.000000 0.000000 0.000000 0.040691 0.000000 0.000000
# 5 0.000000 0.000000 0.000000 0.000000 0.050705 0.000000
# 6 0.000000 0.000000 0.000000 0.000000 0.000000 0.030192
#
#
# Mechanical properties :
#
#
# Convention : Reuss Voigt Hill
#
# Bulk Modulus (GPa) = 47.11046 55.88371 51.49708
# Shear Modulus (GPa) = 21.89413 23.70865 22.80139
#
# Velocity S-wave (km/s) = 3.44112 3.58088 3.51170
# Velocity P-wave (km/s) = 6.42401 6.87905 6.65542
#
# Compressibility (1/GPa) = 0.02122671
#
# Stress axis : x y z
#
# Youngs Moduli (GPa) = 68.39521 48.05872 39.93768
#
# Poissons Ratio (x) = 0.37104 0.27477
# Poissons Ratio (y) = 0.52804 0.20049
# Poissons Ratio (z) = 0.47055 0.24126
#
# Static dielectric constant tensor:
#      x y z
#    x 3.488380 0.000000 0.000000 
#    y 0.000000 3.365610 0.000000 
#    z 0.000000 0.000000 3.337010 
# 
# 
# High freq. dielectric constant tensor:
#      x y z
#    x 1.725700 0.000000 0.000000 
#    y 0.000000 1.712070 0.000000 
#    z 0.000000 0.000000 1.708520 
# 
# From -- ./inp_files/11756.got.cif
#   From: 2010.03.12/outbox.cif.g09.slc.cpg/sg65_6_cif.got.tgz:11756.got - 2010.04.10 20:52:16.
