data_PCOD8272708
_publ_section_title
;
Structure prediction by ZEFSAII (Michael W. Deem and Ramdas Pophale) SiO2 
 PCOD8272708
Probable space group: C M M M
;
_chemical_formula_sum "Si O2"
_cell_formula_units_Z 88
_cell_length_a 9.052437
_cell_length_b 31.469368
_cell_length_c 16.829405
_cell_angle_alpha 90.000000
_cell_angle_beta 90.000000
_cell_angle_gamma 90.000000
_cell_volume 4794.267851
_symmetry_space_group_name_H-M "C M M M"
_symmetry_group_IT_number 65
_symmetry_cell_setting 'orthorhombic'
loop_
_space_group_symop_operation_xyz
x,y,z
-x,-y,z
x,-y,-z
-x,y,-z
-x,-y,-z
x,y,-z
-x,y,z
x,-y,z
1/2+x,1/2+y,z
1/2-x,1/2-y,z
1/2+x,1/2-y,-z
1/2-x,1/2+y,-z
1/2-x,1/2-y,-z
1/2+x,1/2+y,-z
1/2-x,1/2+y,z
1/2+x,1/2-y,z
loop_
_atom_site_type_symbol
_atom_site_label
_atom_site_fract_x
_atom_site_fract_y
_atom_site_fract_z
Si Si1 0.673905 0.615753 0.201467
Si Si2 0.825768 0.791189 0.749317
Si Si3 0.171086 0.452212 0.906837
Si Si4 0.665832 0.098800 0.643066
Si Si5 0.165580 0.307068 0.589806
Si Si6 0.676356 0.953549 0.500000
O O1 0.500000 0.613354 0.192156
O O2 0.725382 0.665720 0.204203
O O3 0.743013 0.587355 0.131890
O O4 0.723525 0.595612 0.283873
O O5 0.750000 0.750000 0.791079
O O6 0.777975 0.790052 0.656411
O O7 0.000000 0.786447 0.753857
O O8 0.223331 0.500000 0.879393
O O9 0.000000 0.446920 0.885370
O O10 0.198299 0.448020 0.000000
O O11 0.500000 0.086554 0.671876
O O12 0.661447 0.142708 0.596718
O O13 0.736597 0.066672 0.580499
O O14 0.218407 0.294846 0.500000
O O15 0.000000 0.289030 0.605436
O O16 0.500000 0.949953 0.500000
O O17 0.740428 0.000000 0.500000
#
# Coordination Sequence:
#
# PCOD8272708 Si02
#       6
#    16  16  16  16  16   8
#     4  10  21  35  53  80 110 141 174 213 265 320
#     4  10  21  35  50  72 102 137 179 222 265 315
#     4   9  19  37  61  88 114 139 171 210 252 306
#     4   9  16  29  47  67  94 132 177 220 259 307
#     4   9  16  28  47  67  90 126 172 221 271 318
#     4   9  16  26  43  67  92 123 170 223 264 299
#
# _framework density 18.355253000000001
#
# number of rings (size 3 to 8) (size 9 to 14) (size 15 to 20)
#    0.000    2.636    0.909    1.636    0.000    4.364 
#    0.000    3.182    0.000    1.091    0.000    0.000 
#    0.000    0.000    0.000    0.000    0.000    0.000 
#
# Total GULP energy -545151.106244 kJ/mol
# GULP energy per Si atom -12389.797869 kJ/mol
# Density = 1.831348 g / cm^3
# Si number density = 18.355253 Si / 1000 Ang^3
#
#
#
# Elastic Constant Matrix: (Units=GPa)
#
#
# Indices 1 2 3 4 5 6 
#
# 1 65.7761 53.2391 33.0301 0.0000 0.0000 0.0000
# 2 53.2391 138.2633 54.9628 0.0000 0.0000 0.0000
# 3 33.0301 54.9628 64.0538 0.0000 0.0000 0.0000
# 4 0.0000 0.0000 0.0000 47.5209 0.0000 0.0000
# 5 0.0000 0.0000 0.0000 0.0000 11.0303 0.0000
# 6 0.0000 0.0000 0.0000 0.0000 0.0000 26.7115
#
#
#
# Elastic Compliance Matrix: (Units=1/GPa)
#
#
# Indices 1 2 3 4 5 6 
#
# 1 0.023844 -0.006516 -0.006704 0.000000 0.000000 0.000000
# 2 -0.006516 0.012758 -0.007587 0.000000 0.000000 0.000000
# 3 -0.006704 -0.007587 0.025579 0.000000 0.000000 0.000000
# 4 0.000000 0.000000 0.000000 0.021043 0.000000 0.000000
# 5 0.000000 0.000000 0.000000 0.000000 0.090659 0.000000
# 6 0.000000 0.000000 0.000000 0.000000 0.000000 0.037437
#
#
# Mechanical properties :
#
#
# Convention : Reuss Voigt Hill
#
# Bulk Modulus (GPa) = 48.62315 61.17302 54.89809
# Shear Modulus (GPa) = 19.24640 25.50996 22.37818
#
# Velocity S-wave (km/s) = 3.24164 3.73203 3.49545
# Velocity P-wave (km/s) = 6.36856 7.20905 6.80180
#
# Compressibility (1/GPa) = 0.02056633
#
# Stress axis : x y z
#
# Youngs Moduli (GPa) = 41.93976 78.38475 39.09483
#
# Poissons Ratio (x) = 0.51077 0.26209
# Poissons Ratio (y) = 0.27329 0.29660
# Poissons Ratio (z) = 0.28116 0.59469
#
# Static dielectric constant tensor:
#      x y z
#    x 3.217640 0.000000 0.000000 
#    y 0.000000 3.711370 0.000000 
#    z 0.000000 0.000000 3.156710 
# 
# 
# High freq. dielectric constant tensor:
#      x y z
#    x 1.696160 0.000000 0.000000 
#    y 0.000000 1.725330 0.000000 
#    z 0.000000 0.000000 1.683760 
# 
# From -- ./inp_files/50298.got.cif
#   From: 2010.03.12/outbox.cif.g09.slc.cpg/sg65_26_cif.got.tgz:50298.got - 2010.04.10 20:52:16.
