data_PCOD8272639
_publ_section_title
;
Structure prediction by ZEFSAII (Michael W. Deem and Ramdas Pophale) SiO2 
 PCOD8272639
Probable space group: C M M M
;
_chemical_formula_sum "Si O2"
_cell_formula_units_Z 80
_cell_length_a 18.127474
_cell_length_b 10.376114
_cell_length_c 22.933422
_cell_angle_alpha 90.000000
_cell_angle_beta 90.000000
_cell_angle_gamma 90.000000
_cell_volume 4313.610107
_symmetry_space_group_name_H-M "C M M M"
_symmetry_group_IT_number 65
_symmetry_cell_setting 'orthorhombic'
loop_
_space_group_symop_operation_xyz
x,y,z
-x,-y,z
x,-y,-z
-x,y,-z
-x,-y,-z
x,y,-z
-x,y,z
x,-y,z
1/2+x,1/2+y,z
1/2-x,1/2-y,z
1/2+x,1/2-y,-z
1/2-x,1/2+y,-z
1/2-x,1/2-y,-z
1/2+x,1/2+y,-z
1/2-x,1/2+y,z
1/2+x,1/2-y,z
loop_
_atom_site_type_symbol
_atom_site_label
_atom_site_fract_x
_atom_site_fract_y
_atom_site_fract_z
Si Si1 0.587786 0.354484 0.793492
Si Si2 0.162949 0.754601 0.565802
Si Si3 0.579616 0.645840 0.667997
Si Si4 0.082019 0.500000 0.568851
Si Si5 0.586078 0.853139 0.112923
Si Si6 0.183949 0.647634 0.000000
O O1 0.500000 0.356741 0.794098
O O2 0.618052 0.500000 0.807554
O O3 0.613228 0.300852 0.729109
O O4 0.616741 0.249605 0.839843
O O5 0.135769 0.788737 0.500000
O O6 0.250000 0.750000 0.566447
O O7 0.134773 0.855879 0.612949
O O8 0.128526 0.622145 0.589561
O O9 0.500000 0.711336 0.651748
O O10 0.563304 0.500000 0.683948
O O11 0.076324 0.500000 0.500000
O O12 0.000000 0.500000 0.596502
O O13 0.500000 0.829006 0.098931
O O14 0.632642 0.827403 0.055360
O O15 0.597649 0.000000 0.135683
O O16 0.250000 0.750000 0.000000
O O17 0.214351 0.500000 0.000000
#
# Coordination Sequence:
#
# PCOD8272639 Si02
#       6
#    16  16  16   8  16   8
#     4   8  15  30  51  75 104 135 167 209 260 310
#     4  10  21  34  51  73 101 134 171 215 265 319
#     4   9  18  33  53  76 101 129 164 208 258 312
#     4   9  18  34  52  70  97 133 169 208 261 321
#     4   9  17  32  55  80 104 134 176 219 257 300
#     4  10  21  35  51  75 111 146 174 212 260 306
#
# _framework density 18.545950999999999
#
# number of rings (size 3 to 8) (size 9 to 14) (size 15 to 20)
#    0.000    2.900    0.000    2.100    1.400    3.600 
#    1.800    2.000    0.000    5.400    0.000    0.000 
#    0.000    0.000    0.000    0.000    0.000    0.000 
#
# Total GULP energy -495530.732259 kJ/mol
# GULP energy per Si atom -12388.268306 kJ/mol
# Density = 1.850374 g / cm^3
# Si number density = 18.545951 Si / 1000 Ang^3
#
#
#
# Elastic Constant Matrix: (Units=GPa)
#
#
# Indices 1 2 3 4 5 6 
#
# 1 69.1035 36.6543 43.2709 0.0000 0.0000 0.0000
# 2 36.6543 88.0581 61.0044 0.0000 0.0000 0.0000
# 3 43.2709 61.0044 150.3299 0.0000 0.0000 0.0000
# 4 0.0000 0.0000 0.0000 30.7585 0.0000 0.0000
# 5 0.0000 0.0000 0.0000 0.0000 14.6824 0.0000
# 6 0.0000 0.0000 0.0000 0.0000 0.0000 25.9443
#
#
#
# Elastic Compliance Matrix: (Units=1/GPa)
#
#
# Indices 1 2 3 4 5 6 
#
# 1 0.019651 -0.005928 -0.003251 0.000000 0.000000 0.000000
# 2 -0.005928 0.017585 -0.005430 0.000000 0.000000 0.000000
# 3 -0.003251 -0.005430 0.009791 0.000000 0.000000 0.000000
# 4 0.000000 0.000000 0.000000 0.032511 0.000000 0.000000
# 5 0.000000 0.000000 0.000000 0.000000 0.068109 0.000000
# 6 0.000000 0.000000 0.000000 0.000000 0.000000 0.038544
#
#
# Mechanical properties :
#
#
# Convention : Reuss Voigt Hill
#
# Bulk Modulus (GPa) = 56.14653 65.48341 60.81497
# Shear Modulus (GPa) = 22.58919 25.38118 23.98519
#
# Velocity S-wave (km/s) = 3.49379 3.70341 3.60013
# Velocity P-wave (km/s) = 6.82755 7.32615 7.08124
#
# Compressibility (1/GPa) = 0.01781054
#
# Stress axis : x y z
#
# Youngs Moduli (GPa) = 50.88855 56.86588 102.13187
#
# Poissons Ratio (x) = 0.33708 0.33202
# Poissons Ratio (y) = 0.30164 0.55457
# Poissons Ratio (z) = 0.16543 0.30878
#
# Static dielectric constant tensor:
#      x y z
#    x 3.127770 0.000000 0.000000 
#    y 0.000000 3.541710 0.000000 
#    z 0.000000 0.000000 3.506050 
# 
# 
# High freq. dielectric constant tensor:
#      x y z
#    x 1.692870 0.000000 0.000000 
#    y 0.000000 1.714040 0.000000 
#    z 0.000000 0.000000 1.720440 
# 
# From -- ./inp_files/63541.got.cif
#   From: 2010.03.12/outbox.cif.g09.slc.cpg/sg65_32_cif.got.tgz:63541.got - 2010.04.10 20:52:16.
