data_PCOD8272955
_publ_section_title
;
Structure prediction by ZEFSAII (Michael W. Deem and Ramdas Pophale) SiO2 
 PCOD8272955
Probable space group: C M M M
;
_chemical_formula_sum "Si O2"
_cell_formula_units_Z 64
_cell_length_a 8.892760
_cell_length_b 40.864498
_cell_length_c 9.771650
_cell_angle_alpha 90.000000
_cell_angle_beta 90.000000
_cell_angle_gamma 90.000000
_cell_volume 3550.999759
_symmetry_space_group_name_H-M "C M M M"
_symmetry_group_IT_number 65
_symmetry_cell_setting 'orthorhombic'
loop_
_space_group_symop_operation_xyz
x,y,z
-x,-y,z
x,-y,-z
-x,y,-z
-x,-y,-z
x,y,-z
-x,y,z
x,-y,z
1/2+x,1/2+y,z
1/2-x,1/2-y,z
1/2+x,1/2-y,-z
1/2-x,1/2+y,-z
1/2-x,1/2-y,-z
1/2+x,1/2+y,-z
1/2-x,1/2+y,z
1/2+x,1/2-y,z
loop_
_atom_site_type_symbol
_atom_site_label
_atom_site_fract_x
_atom_site_fract_y
_atom_site_fract_z
Si Si1 0.324667 0.838382 0.658729
Si Si2 0.825319 0.906027 0.342171
Si Si3 0.323405 0.716138 0.843105
Si Si4 0.321345 0.536166 0.153596
O O1 0.289082 0.831445 0.500000
O O2 0.500000 0.835771 0.690936
O O3 0.267889 0.874209 0.700760
O O4 0.236377 0.812481 0.748412
O O5 0.801206 0.914914 0.500000
O O6 0.758347 0.936409 0.256264
O O7 0.000000 0.899382 0.309063
O O8 0.500000 0.719396 0.823534
O O9 0.250000 0.750000 0.794729
O O10 0.279913 0.708359 0.000000
O O11 0.500000 0.536027 0.160376
O O12 0.261769 0.500000 0.196156
O O13 0.267227 0.544550 0.000000
#
# Coordination Sequence:
#
# PCOD8272955 Si02
#       4
#    16  16  16  16
#     4  10  21  36  53  74 102 136 172 209 250 297
#     4   9  17  29  46  69  96 125 160 204 250 295
#     4  10  21  37  57  80 105 133 166 205 249 297
#     4   8  14  25  42  66  95 124 156 198 247 297
#
# _framework density 18.023094
#
# number of rings (size 3 to 8) (size 9 to 14) (size 15 to 20)
#    0.000    2.750    0.000    2.250    0.000    5.000 
#    0.000    5.000    0.000    0.750    0.000    5.250 
#    0.000    0.000    0.000    0.000    0.000    0.000 
#
# Total GULP energy -396791.856811 kJ/mol
# GULP energy per Si atom -12399.745525 kJ/mol
# Density = 1.798207 g / cm^3
# Si number density = 18.023094 Si / 1000 Ang^3
#
#
#
# Elastic Constant Matrix: (Units=GPa)
#
#
# Indices 1 2 3 4 5 6 
#
# 1 50.2171 40.9379 31.7660 0.0000 0.0000 0.0000
# 2 40.9379 150.4358 85.1937 0.0000 0.0000 0.0000
# 3 31.7660 85.1937 84.0440 0.0000 0.0000 0.0000
# 4 0.0000 0.0000 0.0000 42.6211 0.0000 0.0000
# 5 0.0000 0.0000 0.0000 0.0000 20.7056 0.0000
# 6 0.0000 0.0000 0.0000 0.0000 0.0000 24.1344
#
#
#
# Elastic Compliance Matrix: (Units=1/GPa)
#
#
# Indices 1 2 3 4 5 6 
#
# 1 0.027013 -0.003683 -0.006476 0.000000 0.000000 0.000000
# 2 -0.003683 0.016109 -0.014937 0.000000 0.000000 0.000000
# 3 -0.006476 -0.014937 0.029487 0.000000 0.000000 0.000000
# 4 0.000000 0.000000 0.000000 0.023463 0.000000 0.000000
# 5 0.000000 0.000000 0.000000 0.000000 0.048296 0.000000
# 6 0.000000 0.000000 0.000000 0.000000 0.000000 0.041435
#
#
# Mechanical properties :
#
#
# Convention : Reuss Voigt Hill
#
# Bulk Modulus (GPa) = 44.61062 66.72134 55.66598
# Shear Modulus (GPa) = 20.53666 25.94551 23.24108
#
# Velocity S-wave (km/s) = 3.37926 3.79828 3.59488
# Velocity P-wave (km/s) = 6.32704 7.50575 6.94146
#
# Compressibility (1/GPa) = 0.02241619
#
# Stress axis : x y z
#
# Youngs Moduli (GPa) = 37.01916 62.07888 33.91288
#
# Poissons Ratio (x) = 0.22866 0.21963
# Poissons Ratio (y) = 0.13636 0.50655
# Poissons Ratio (z) = 0.23975 0.92725
#
# Static dielectric constant tensor:
#      x y z
#    x 3.135510 0.000000 0.000000 
#    y 0.000000 3.655380 0.000000 
#    z 0.000000 0.000000 3.410680 
# 
# 
# High freq. dielectric constant tensor:
#      x y z
#    x 1.676180 0.000000 0.000000 
#    y 0.000000 1.708860 0.000000 
#    z 0.000000 0.000000 1.696340 
# 
# From -- ./inp_files/20912.got.cif
#   From: 2010.03.12/outbox.cif.g09.slc.cpg/sg65_11_cif.got.tgz:20912.got - 2010.04.10 20:52:16.
