data_PCOD8272946
_publ_section_title
;
Structure prediction by ZEFSAII (Michael W. Deem and Ramdas Pophale) SiO2 
 PCOD8272946
Probable space group: C M M M
;
_chemical_formula_sum "Si O2"
_cell_formula_units_Z 104
_cell_length_a 29.178562
_cell_length_b 9.039802
_cell_length_c 22.753864
_cell_angle_alpha 90.000000
_cell_angle_beta 90.000000
_cell_angle_gamma 90.000000
_cell_volume 6001.750827
_symmetry_space_group_name_H-M "C M M M"
_symmetry_group_IT_number 65
_symmetry_cell_setting 'orthorhombic'
loop_
_space_group_symop_operation_xyz
x,y,z
-x,-y,z
x,-y,-z
-x,y,-z
-x,-y,-z
x,y,-z
-x,y,z
x,-y,z
1/2+x,1/2+y,z
1/2-x,1/2-y,z
1/2+x,1/2-y,-z
1/2-x,1/2+y,-z
1/2-x,1/2-y,-z
1/2+x,1/2+y,-z
1/2-x,1/2+y,z
1/2+x,1/2-y,z
loop_
_atom_site_type_symbol
_atom_site_label
_atom_site_fract_x
_atom_site_fract_y
_atom_site_fract_z
Si Si1 0.895225 0.324429 0.107308
Si Si2 0.204422 0.672759 0.067432
Si Si3 0.946963 0.667325 0.670987
Si Si4 0.446040 0.326275 0.000000
Si Si5 0.206666 0.164535 0.569876
Si Si6 0.616171 0.826812 0.433971
Si Si7 0.446649 0.326954 0.211124
O O1 0.901564 0.500000 0.101327
O O2 0.841439 0.280960 0.102676
O O3 0.924355 0.246233 0.057129
O O4 0.914313 0.267713 0.168965
O O5 0.213065 0.500000 0.072313
O O6 0.250000 0.750000 0.093927
O O7 0.196987 0.722177 0.000000
O O8 0.932434 0.500000 0.688422
O O9 0.923736 0.718888 0.610501
O O10 0.933378 0.778159 0.723143
O O11 0.000000 0.676211 0.657158
O O12 0.435460 0.500000 0.000000
O O13 0.500000 0.295037 0.000000
O O14 0.210094 0.161111 0.500000
O O15 0.250000 0.250000 0.596954
O O16 0.161297 0.247844 0.590145
O O17 0.206078 0.000000 0.596133
O O18 0.603030 0.773782 0.500000
O O19 0.626048 0.000000 0.433969
O O20 0.500000 0.291035 0.197892
O O21 0.436601 0.500000 0.203081
#
# Coordination Sequence:
#
# PCOD8272946 Si02
#       7
#    16  16  16   8  16  16  16
#     4  11  21  35  54  77 104 134 170 210 253 300
#     4   9  18  33  51  75 104 133 168 206 246 296
#     4   9  18  33  52  73  98 132 172 208 247 298
#     4  11  23  35  48  73 108 139 168 205 250 299
#     4   9  16  26  42  65  94 127 161 196 238 292
#     4   9  17  29  47  73 103 131 162 205 254 302
#     4  10  21  36  53  74 100 132 172 213 252 300
#
# _framework density 17.328275999999999
#
# number of rings (size 3 to 8) (size 9 to 14) (size 15 to 20)
#    0.000    2.385    0.769    2.077    0.000    7.385 
#    0.000    1.538    0.000    0.923    0.000    8.615 
#    0.000    0.000    0.000    0.000    0.000    0.000 
#
# Total GULP energy -644766.957308 kJ/mol
# GULP energy per Si atom -12399.364564 kJ/mol
# Density = 1.728884 g / cm^3
# Si number density = 17.328276 Si / 1000 Ang^3
#
#
#
# Elastic Constant Matrix: (Units=GPa)
#
#
# Indices 1 2 3 4 5 6 
#
# 1 120.2557 59.1897 64.3799 0.0000 0.0000 0.0000
# 2 59.1897 74.4082 40.3200 0.0000 0.0000 0.0000
# 3 64.3799 40.3200 83.4667 0.0000 0.0000 0.0000
# 4 0.0000 0.0000 0.0000 20.2376 0.0000 0.0000
# 5 0.0000 0.0000 0.0000 0.0000 6.9634 0.0000
# 6 0.0000 0.0000 0.0000 0.0000 0.0000 31.3179
#
#
#
# Elastic Compliance Matrix: (Units=1/GPa)
#
#
# Indices 1 2 3 4 5 6 
#
# 1 0.017783 -0.009094 -0.009324 0.000000 0.000000 0.000000
# 2 -0.009094 0.022855 -0.004026 0.000000 0.000000 0.000000
# 3 -0.009324 -0.004026 0.021117 0.000000 0.000000 0.000000
# 4 0.000000 0.000000 0.000000 0.049413 0.000000 0.000000
# 5 0.000000 0.000000 0.000000 0.000000 0.143607 0.000000
# 6 0.000000 0.000000 0.000000 0.000000 0.000000 0.031931
#
#
# Mechanical properties :
#
#
# Convention : Reuss Voigt Hill
#
# Bulk Modulus (GPa) = 59.28353 67.32332 63.30342
# Shear Modulus (GPa) = 14.82729 19.31984 17.07357
#
# Velocity S-wave (km/s) = 2.92836 3.34268 3.14236
# Velocity P-wave (km/s) = 6.76166 7.33717 7.05528
#
# Compressibility (1/GPa) = 0.01686809
#
# Stress axis : x y z
#
# Youngs Moduli (GPa) = 56.23365 43.75437 47.35453
#
# Poissons Ratio (x) = 0.39789 0.44151
# Poissons Ratio (y) = 0.51137 0.19066
# Poissons Ratio (z) = 0.52430 0.17617
#
# Static dielectric constant tensor:
#      x y z
#    x 3.345490 0.000000 0.000000 
#    y 0.000000 3.340870 0.000000 
#    z 0.000000 0.000000 3.113280 
# 
# 
# High freq. dielectric constant tensor:
#      x y z
#    x 1.672670 0.000000 0.000000 
#    y 0.000000 1.676420 0.000000 
#    z 0.000000 0.000000 1.640720 
# 
# From -- ./inp_files/66391.got.cif
#   From: 2010.03.12/outbox.cif.g09.slc.cpg/sg65_34_cif.got.tgz:66391.got - 2010.04.10 20:52:16.
