data_PCOD8272105
_publ_section_title
;
Structure prediction by ZEFSAII (Michael W. Deem and Ramdas Pophale) SiO2 
 PCOD8272105
Probable space group: C M M M
;
_chemical_formula_sum "Si O2"
_cell_formula_units_Z 64
_cell_length_a 29.343648
_cell_length_b 13.925488
_cell_length_c 8.981940
_cell_angle_alpha 90.000000
_cell_angle_beta 90.000000
_cell_angle_gamma 90.000000
_cell_volume 3670.241802
_symmetry_space_group_name_H-M "C M M M"
_symmetry_group_IT_number 65
_symmetry_cell_setting 'orthorhombic'
loop_
_space_group_symop_operation_xyz
x,y,z
-x,-y,z
x,-y,-z
-x,y,-z
-x,-y,-z
x,y,-z
-x,y,z
x,-y,z
1/2+x,1/2+y,z
1/2-x,1/2-y,z
1/2+x,1/2-y,-z
1/2-x,1/2+y,-z
1/2-x,1/2-y,-z
1/2+x,1/2+y,-z
1/2-x,1/2+y,z
1/2+x,1/2-y,z
loop_
_atom_site_type_symbol
_atom_site_label
_atom_site_fract_x
_atom_site_fract_y
_atom_site_fract_z
Si Si1 0.081535 0.217227 0.665077
Si Si2 0.323731 0.724266 0.175986
Si Si3 0.000000 0.888908 0.824006
Si Si4 0.946087 0.608314 0.500000
Si Si5 0.737742 0.894619 0.176659
O O1 0.082205 0.170039 0.500000
O O2 0.129879 0.202366 0.740978
O O3 0.070040 0.331666 0.647011
O O4 0.044506 0.163383 0.763068
O O5 0.303459 0.826621 0.230010
O O6 0.287132 0.644286 0.225682
O O7 0.332631 0.722794 0.000000
O O8 0.000000 0.000000 0.774368
O O9 0.000000 0.878986 0.000000
O O10 0.925518 0.500000 0.500000
O O11 0.000000 0.602808 0.500000
O O12 0.730359 0.000000 0.246287
O O13 0.737026 0.897189 0.000000
#
# Coordination Sequence:
#
# PCOD8272105 Si02
#       5
#    16  16   8   8  16
#     4  10  20  36  54  81 107 146 174 216 265 319
#     4   9  17  30  51  76 103 135 179 226 264 311
#     4  11  23  39  59  82 108 138 175 219 263 313
#     4   9  18  36  58  75 100 144 184 210 261 322
#     4   8  15  29  48  71 102 140 178 220 268 311
#
# _framework density 17.437545
#
# number of rings (size 3 to 8) (size 9 to 14) (size 15 to 20)
#    0.750    2.000    1.250    2.625    0.000    3.000 
#    0.000    5.000    0.000    4.500    0.000    0.000 
#    0.000    0.000    0.000    0.000    0.000    0.000 
#
# Total GULP energy -396519.767380 kJ/mol
# GULP energy per Si atom -12391.242731 kJ/mol
# Density = 1.739786 g / cm^3
# Si number density = 17.437545 Si / 1000 Ang^3
#
#
#
# Elastic Constant Matrix: (Units=GPa)
#
#
# Indices 1 2 3 4 5 6 
#
# 1 131.2044 40.0853 36.5171 0.0000 0.0000 0.0000
# 2 40.0853 120.9913 27.9888 0.0000 0.0000 0.0000
# 3 36.5171 27.9888 55.2229 0.0000 0.0000 0.0000
# 4 0.0000 0.0000 0.0000 17.9421 0.0000 0.0000
# 5 0.0000 0.0000 0.0000 0.0000 -9.3624 0.0000
# 6 0.0000 0.0000 0.0000 0.0000 0.0000 11.4319
#
#
#
# Elastic Compliance Matrix: (Units=1/GPa)
#
#
# Indices 1 2 3 4 5 6 
#
# 1 0.009737 -0.001967 -0.005442 0.000000 0.000000 0.000000
# 2 -0.001967 0.009760 -0.003646 0.000000 0.000000 0.000000
# 3 -0.005442 -0.003646 0.023555 0.000000 0.000000 0.000000
# 4 0.000000 0.000000 0.000000 0.055735 0.000000 0.000000
# 5 0.000000 0.000000 0.000000 0.000000 -0.106810 0.000000
# 6 0.000000 0.000000 0.000000 0.000000 0.000000 0.087475
#
#
# Mechanical properties :
#
#
# Convention : Reuss Voigt Hill
#
# Bulk Modulus (GPa) = 47.75034 57.40012 52.57523
# Shear Modulus (GPa) = 46.06469 17.52414 31.79442
#
# Velocity S-wave (km/s) = 5.14532 3.17356 4.27468
# Velocity P-wave (km/s) = 7.92099 6.81305 7.38782
#
# Compressibility (1/GPa) = 0.02094226
#
# Stress axis : x y z
#
# Youngs Moduli (GPa) = 102.69781 102.45678 42.45398
#
# Poissons Ratio (x) = 0.20155 0.23103
# Poissons Ratio (y) = 0.20202 0.15479
# Poissons Ratio (z) = 0.55888 0.37356
#
# Static dielectric constant tensor:
#      x y z
#    x 3.165800 0.000000 0.000000 
#    y 0.000000 3.733310 0.000000 
#    z 0.000000 0.000000 2.932670 
# 
# 
# High freq. dielectric constant tensor:
#      x y z
#    x 1.680890 0.000000 0.000000 
#    y 0.000000 1.675230 0.000000 
#    z 0.000000 0.000000 1.642950 
# 
# From -- ./inp_files/17955.got.cif
#   From: 2010.03.12/outbox.cif.g09.slc.cpg/sg65_9_cif.got.tgz:17955.got - 2010.04.10 20:52:16.
