data_PCOD8272994
_publ_section_title
;
Structure prediction by ZEFSAII (Michael W. Deem and Ramdas Pophale) SiO2 
 PCOD8272994
Probable space group: C M M M
;
_chemical_formula_sum "Si O2"
_cell_formula_units_Z 104
_cell_length_a 18.192951
_cell_length_b 21.956908
_cell_length_c 13.187579
_cell_angle_alpha 90.000000
_cell_angle_beta 90.000000
_cell_angle_gamma 90.000000
_cell_volume 5267.922853
_symmetry_space_group_name_H-M "C M M M"
_symmetry_group_IT_number 65
_symmetry_cell_setting 'orthorhombic'
loop_
_space_group_symop_operation_xyz
x,y,z
-x,-y,z
x,-y,-z
-x,y,-z
-x,-y,-z
x,y,-z
-x,y,z
x,-y,z
1/2+x,1/2+y,z
1/2-x,1/2-y,z
1/2+x,1/2-y,-z
1/2-x,1/2+y,-z
1/2-x,1/2-y,-z
1/2+x,1/2+y,-z
1/2-x,1/2+y,z
1/2+x,1/2-y,z
loop_
_atom_site_type_symbol
_atom_site_label
_atom_site_fract_x
_atom_site_fract_y
_atom_site_fract_z
Si Si1 0.082892 0.136279 0.797967
Si Si2 0.583427 0.069942 0.294747
Si Si3 0.414379 0.565886 0.000000
Si Si4 0.809844 0.431357 0.884211
Si Si5 0.290121 0.140804 0.613103
Si Si6 0.731384 0.686684 0.194517
Si Si7 0.642521 0.571354 0.612101
O O1 0.143280 0.189355 0.787320
O O2 0.086410 0.095337 0.696946
O O3 0.000000 0.162341 0.808905
O O4 0.108188 0.100415 0.898305
O O5 0.500000 0.094772 0.293367
O O6 0.617379 0.078000 0.182719
O O7 0.630908 0.108729 0.374656
O O8 0.584976 0.000000 0.329785
O O9 0.373992 0.500000 0.000000
O O10 0.500000 0.554931 0.000000
O O11 0.776690 0.500000 0.863579
O O12 0.752432 0.376599 0.861582
O O13 0.834760 0.425744 0.000000
O O14 0.285637 0.168852 0.500000
O O15 0.276101 0.191923 0.698559
O O16 0.226290 0.091056 0.633873
O O17 0.750000 0.750000 0.135168
O O18 0.617788 0.594461 0.500000
O O19 0.640067 0.500000 0.617029
#
# Coordination Sequence:
#
# PCOD8272994 Si02
#       7
#    16  16   8  16  16  16  16
#     4  10  21  36  53  76 109 146 183 229 279 330
#     4   9  17  29  48  77 112 146 184 235 290 338
#     4   9  18  32  51  78 112 148 179 212 266 331
#     4   9  19  36  57  81 109 145 186 229 279 337
#     4   9  18  33  52  74 105 145 188 231 278 335
#     4  10  22  39  58  83 109 145 187 235 276 331
#     4   9  17  30  51  79 111 147 185 226 275 334
#
# _framework density 19.742127
#
# number of rings (size 3 to 8) (size 9 to 14) (size 15 to 20)
#    0.000    2.692    0.000    0.923    1.077    7.692 
#    0.000    6.154    0.000    0.000    0.000    0.000 
#    0.000    0.000    0.000    0.000    0.000    0.000 
#
# Total GULP energy -644269.712020 kJ/mol
# GULP energy per Si atom -12389.802154 kJ/mol
# Density = 1.969719 g / cm^3
# Si number density = 19.742127 Si / 1000 Ang^3
#
#
#
# Elastic Constant Matrix: (Units=GPa)
#
#
# Indices 1 2 3 4 5 6 
#
# 1 116.8971 32.3200 13.4893 0.0000 0.0000 0.0000
# 2 32.3200 86.0404 17.7144 0.0000 0.0000 0.0000
# 3 13.4893 17.7144 100.4378 0.0000 0.0000 0.0000
# 4 0.0000 0.0000 0.0000 11.0691 0.0000 0.0000
# 5 0.0000 0.0000 0.0000 0.0000 23.9959 0.0000
# 6 0.0000 0.0000 0.0000 0.0000 0.0000 14.2402
#
#
#
# Elastic Compliance Matrix: (Units=1/GPa)
#
#
# Indices 1 2 3 4 5 6 
#
# 1 0.009590 -0.003463 -0.000677 0.000000 0.000000 0.000000
# 2 -0.003463 0.013311 -0.001883 0.000000 0.000000 0.000000
# 3 -0.000677 -0.001883 0.010379 0.000000 0.000000 0.000000
# 4 0.000000 0.000000 0.000000 0.090342 0.000000 0.000000
# 5 0.000000 0.000000 0.000000 0.000000 0.041674 0.000000
# 6 0.000000 0.000000 0.000000 0.000000 0.000000 0.070224
#
#
# Mechanical properties :
#
#
# Convention : Reuss Voigt Hill
#
# Bulk Modulus (GPa) = 47.09242 47.82474 47.45858
# Shear Modulus (GPa) = 19.63530 25.85114 22.74322
#
# Velocity S-wave (km/s) = 3.15713 3.62254 3.39782
# Velocity P-wave (km/s) = 6.09881 6.46331 6.28371
#
# Compressibility (1/GPa) = 0.02123484
#
# Stress axis : x y z
#
# Youngs Moduli (GPa) = 104.27383 75.12664 96.34466
#
# Poissons Ratio (x) = 0.26016 0.06525
# Poissons Ratio (y) = 0.36110 0.18138
# Poissons Ratio (z) = 0.07062 0.14143
#
# Static dielectric constant tensor:
#      x y z
#    x 3.496100 0.000000 0.000000 
#    y 0.000000 3.291550 0.000000 
#    z 0.000000 0.000000 3.886900 
# 
# 
# High freq. dielectric constant tensor:
#      x y z
#    x 1.762150 0.000000 0.000000 
#    y 0.000000 1.735780 0.000000 
#    z 0.000000 0.000000 1.779190 
# 
# From -- ./inp_files/43097.got.cif
#   From: 2010.03.12/outbox.cif.g09.slc.cpg/sg65_22_cif.got.tgz:43097.got - 2010.04.10 20:52:16.
