data_PCOD8272431
_publ_section_title
;
Structure prediction by ZEFSAII (Michael W. Deem and Ramdas Pophale) SiO2 
 PCOD8272431
Probable space group: C M M M
;
_chemical_formula_sum "Si O2"
_cell_formula_units_Z 72
_cell_length_a 15.461188
_cell_length_b 8.985077
_cell_length_c 27.650971
_cell_angle_alpha 90.000000
_cell_angle_beta 90.000000
_cell_angle_gamma 90.000000
_cell_volume 3841.271915
_symmetry_space_group_name_H-M "C M M M"
_symmetry_group_IT_number 65
_symmetry_cell_setting 'orthorhombic'
loop_
_space_group_symop_operation_xyz
x,y,z
-x,-y,z
x,-y,-z
-x,y,-z
-x,-y,-z
x,y,-z
-x,y,z
x,-y,z
1/2+x,1/2+y,z
1/2-x,1/2-y,z
1/2+x,1/2-y,-z
1/2-x,1/2+y,-z
1/2-x,1/2-y,-z
1/2+x,1/2+y,-z
1/2-x,1/2+y,z
1/2+x,1/2-y,z
loop_
_atom_site_type_symbol
_atom_site_label
_atom_site_fract_x
_atom_site_fract_y
_atom_site_fract_z
Si Si1 0.837433 0.326172 0.217989
Si Si2 0.000000 0.823615 0.617163
Si Si3 0.000000 0.170243 0.942775
Si Si4 0.162689 0.175171 0.444880
Si Si5 0.660604 0.824241 0.106502
Si Si6 0.000000 0.323145 0.720864
O O1 0.824735 0.500000 0.224798
O O2 0.750000 0.250000 0.236512
O O3 0.857328 0.286200 0.162471
O O4 0.916133 0.265851 0.250230
O O5 0.083816 0.768841 0.587860
O O6 0.000000 0.747037 0.668536
O O7 0.000000 0.000000 0.623474
O O8 0.915630 0.254528 0.924395
O O9 0.000000 0.000000 0.924141
O O10 0.000000 0.176446 0.000000
O O11 0.144063 0.224558 0.500000
O O12 0.250000 0.250000 0.425109
O O13 0.174229 0.000000 0.441220
O O14 0.750000 0.750000 0.089343
O O15 0.665139 0.000000 0.097236
O O16 0.000000 0.500000 0.716917
#
# Coordination Sequence:
#
# PCOD8272431 Si02
#       6
#    16   8   8  16  16   8
#     4   9  19  36  57  80 105 136 175 218 262 310
#     4  10  21  35  51  74 104 137 172 208 253 309
#     4  11  24  39  55  80 114 149 184 222 267 321
#     4   9  18  34  55  76  99 130 169 213 258 304
#     4  10  20  37  61  85 109 140 181 227 273 320
#     4  10  21  36  52  74 108 143 172 208 258 310
#
# _framework density 18.743791000000002
#
# number of rings (size 3 to 8) (size 9 to 14) (size 15 to 20)
#    0.000    2.333    0.000    2.000    0.000    8.000 
#    0.000    5.556    0.000    3.333    0.000    0.000 
#    0.000    0.000    0.000    0.000    0.000    0.000 
#
# Total GULP energy -446512.011512 kJ/mol
# GULP energy per Si atom -12403.111431 kJ/mol
# Density = 1.870113 g / cm^3
# Si number density = 18.743791 Si / 1000 Ang^3
#
#
#
# Elastic Constant Matrix: (Units=GPa)
#
#
# Indices 1 2 3 4 5 6 
#
# 1 194.5885 62.2705 86.3106 0.0000 0.0000 0.0000
# 2 62.2705 61.6220 42.0718 0.0000 0.0000 0.0000
# 3 86.3106 42.0718 94.7896 0.0000 0.0000 0.0000
# 4 0.0000 0.0000 0.0000 31.7613 0.0000 0.0000
# 5 0.0000 0.0000 0.0000 0.0000 19.4477 0.0000
# 6 0.0000 0.0000 0.0000 0.0000 0.0000 36.9196
#
#
#
# Elastic Compliance Matrix: (Units=1/GPa)
#
#
# Indices 1 2 3 4 5 6 
#
# 1 0.009744 -0.005436 -0.006459 0.000000 0.000000 0.000000
# 2 -0.005436 0.026317 -0.006730 0.000000 0.000000 0.000000
# 3 -0.006459 -0.006730 0.019419 0.000000 0.000000 0.000000
# 4 0.000000 0.000000 0.000000 0.031485 0.000000 0.000000
# 5 0.000000 0.000000 0.000000 0.000000 0.051420 0.000000
# 6 0.000000 0.000000 0.000000 0.000000 0.000000 0.027086
#
#
# Mechanical properties :
#
#
# Convention : Reuss Voigt Hill
#
# Bulk Modulus (GPa) = 54.86447 81.36733 68.11590
# Shear Modulus (GPa) = 23.94665 28.31553 26.13109
#
# Velocity S-wave (km/s) = 3.57820 3.89094 3.73784
# Velocity P-wave (km/s) = 6.81217 7.98063 7.41944
#
# Compressibility (1/GPa) = 0.01822673
#
# Stress axis : x y z
#
# Youngs Moduli (GPa) = 102.62946 37.99873 51.49726
#
# Poissons Ratio (x) = 0.20657 0.33264
# Poissons Ratio (y) = 0.55792 0.34660
# Poissons Ratio (z) = 0.66292 0.25575
#
# Static dielectric constant tensor:
#      x y z
#    x 3.649410 0.000000 0.000000 
#    y 0.000000 3.407210 0.000000 
#    z 0.000000 0.000000 3.402510 
# 
# 
# High freq. dielectric constant tensor:
#      x y z
#    x 1.744800 0.000000 0.000000 
#    y 0.000000 1.724610 0.000000 
#    z 0.000000 0.000000 1.722530 
# 
# From -- ./inp_files/72603.got.cif
#   From: 2010.03.12/outbox.cif.g09.slc.cpg/sg65_37_cif.got.tgz:72603.got - 2010.04.10 20:52:16.
