data_PCOD8272314
_publ_section_title
;
Structure prediction by ZEFSAII (Michael W. Deem and Ramdas Pophale) SiO2 
 PCOD8272314
Probable space group: C M M M
;
_chemical_formula_sum "Si O2"
_cell_formula_units_Z 72
_cell_length_a 14.855163
_cell_length_b 8.449632
_cell_length_c 28.677926
_cell_angle_alpha 90.000000
_cell_angle_beta 90.000000
_cell_angle_gamma 90.000000
_cell_volume 3599.672218
_symmetry_space_group_name_H-M "C M M M"
_symmetry_group_IT_number 65
_symmetry_cell_setting 'orthorhombic'
loop_
_space_group_symop_operation_xyz
x,y,z
-x,-y,z
x,-y,-z
-x,y,-z
-x,-y,-z
x,y,-z
-x,y,z
x,-y,z
1/2+x,1/2+y,z
1/2-x,1/2-y,z
1/2+x,1/2-y,-z
1/2-x,1/2+y,-z
1/2-x,1/2-y,-z
1/2+x,1/2+y,-z
1/2-x,1/2+y,z
1/2+x,1/2-y,z
loop_
_atom_site_type_symbol
_atom_site_label
_atom_site_fract_x
_atom_site_fract_y
_atom_site_fract_z
Si Si1 0.000000 0.312040 0.448020
Si Si2 0.000000 0.183599 0.688971
Si Si3 0.657392 0.312100 0.850586
Si Si4 0.148237 0.686693 0.376302
Si Si5 0.500000 0.817160 0.789550
Si Si6 0.101250 0.187622 0.050076
O O1 0.090674 0.254634 0.421381
O O2 0.000000 0.500000 0.450063
O O3 0.000000 0.238702 0.500000
O O4 0.092256 0.258087 0.668847
O O5 0.000000 0.209248 0.743946
O O6 0.000000 0.000000 0.676880
O O7 0.644604 0.500000 0.846035
O O8 0.750000 0.250000 0.829283
O O9 0.584967 0.221965 0.820633
O O10 0.654663 0.252301 0.904599
O O11 0.154475 0.500000 0.375035
O O12 0.250000 0.750000 0.377416
O O13 0.500000 0.000000 0.774704
O O14 0.000000 0.252479 0.054345
O O15 0.099793 0.000000 0.050455
O O16 0.142469 0.247190 0.000000
#
# Coordination Sequence:
#
# PCOD8272314 Si02
#       6
#     8   8  16  16   8  16
#     4   8  16  32  54  83 123 168 209 248 290 337
#     4  11  23  41  64  87 112 146 190 241 298 355
#     4  11  22  38  59  86 116 150 188 230 280 339
#     4  10  20  36  59  88 122 159 201 247 294 344
#     4  12  25  43  63  85 114 147 186 236 292 349
#     4   8  14  28  53  81 109 145 185 225 272 327
#
# _framework density 20.001822000000001
#
# number of rings (size 3 to 8) (size 9 to 14) (size 15 to 20)
#    0.000    2.111    1.111    4.667    0.000    1.778 
#    0.000    4.444    0.000   14.000    0.000    0.000 
#    0.000    0.000    0.000    0.000    0.000    0.000 
#
# Total GULP energy -446151.074079 kJ/mol
# GULP energy per Si atom -12393.085391 kJ/mol
# Density = 1.995630 g / cm^3
# Si number density = 20.001822 Si / 1000 Ang^3
#
#
#
# Elastic Constant Matrix: (Units=GPa)
#
#
# Indices 1 2 3 4 5 6 
#
# 1 168.0340 29.5963 59.0488 0.0000 0.0000 0.0000
# 2 29.5963 66.1790 17.9039 0.0000 0.0000 0.0000
# 3 59.0488 17.9039 129.0627 0.0000 0.0000 0.0000
# 4 0.0000 0.0000 0.0000 21.7456 0.0000 0.0000
# 5 0.0000 0.0000 0.0000 0.0000 73.7416 0.0000
# 6 0.0000 0.0000 0.0000 0.0000 0.0000 30.2507
#
#
#
# Elastic Compliance Matrix: (Units=1/GPa)
#
#
# Indices 1 2 3 4 5 6 
#
# 1 0.007472 -0.002511 -0.003070 0.000000 0.000000 0.000000
# 2 -0.002511 0.016544 -0.001146 0.000000 0.000000 0.000000
# 3 -0.003070 -0.001146 0.009312 0.000000 0.000000 0.000000
# 4 0.000000 0.000000 0.000000 0.045986 0.000000 0.000000
# 5 0.000000 0.000000 0.000000 0.000000 0.013561 0.000000
# 6 0.000000 0.000000 0.000000 0.000000 0.000000 0.033057
#
#
# Mechanical properties :
#
#
# Convention : Reuss Voigt Hill
#
# Bulk Modulus (GPa) = 50.32030 64.04152 57.18091
# Shear Modulus (GPa) = 34.24381 42.26271 38.25326
#
# Velocity S-wave (km/s) = 4.14216 4.60166 4.37795
# Velocity P-wave (km/s) = 6.93463 7.76666 7.36241
#
# Compressibility (1/GPa) = 0.01987270
#
# Stress axis : x y z
#
# Youngs Moduli (GPa) = 133.82492 60.44633 107.38886
#
# Poissons Ratio (x) = 0.15179 0.32973
# Poissons Ratio (y) = 0.33605 0.12308
# Poissons Ratio (z) = 0.41090 0.06928
#
# Static dielectric constant tensor:
#      x y z
#    x 3.578120 0.000000 0.000000 
#    y 0.000000 3.369790 0.000000 
#    z 0.000000 0.000000 3.999790 
# 
# 
# High freq. dielectric constant tensor:
#      x y z
#    x 1.784430 0.000000 0.000000 
#    y 0.000000 1.760100 0.000000 
#    z 0.000000 0.000000 1.784860 
# 
# From -- ./inp_files/74648.got.cif
#   From: 2010.03.12/outbox.cif.g09.slc.cpg/sg65_38_cif.got.tgz:74648.got - 2010.04.10 20:52:16.
