data_PCOD8272500
_publ_section_title
;
Structure prediction by ZEFSAII (Michael W. Deem and Ramdas Pophale) SiO2 
 PCOD8272500
Probable space group: C M M M
;
_chemical_formula_sum "Si O2"
_cell_formula_units_Z 72
_cell_length_a 30.073216
_cell_length_b 14.309081
_cell_length_c 9.144505
_cell_angle_alpha 90.000000
_cell_angle_beta 90.000000
_cell_angle_gamma 90.000000
_cell_volume 3935.064157
_symmetry_space_group_name_H-M "C M M M"
_symmetry_group_IT_number 65
_symmetry_cell_setting 'orthorhombic'
loop_
_space_group_symop_operation_xyz
x,y,z
-x,-y,z
x,-y,-z
-x,y,-z
-x,-y,-z
x,y,-z
-x,y,z
x,-y,z
1/2+x,1/2+y,z
1/2-x,1/2-y,z
1/2+x,1/2-y,-z
1/2-x,1/2+y,-z
1/2-x,1/2-y,-z
1/2+x,1/2+y,-z
1/2-x,1/2+y,z
1/2+x,1/2-y,z
loop_
_atom_site_type_symbol
_atom_site_label
_atom_site_fract_x
_atom_site_fract_y
_atom_site_fract_z
Si Si1 0.709282 0.182163 0.329455
Si Si2 0.625553 0.305700 0.330064
Si Si3 0.049135 0.500000 0.173252
Si Si4 0.831998 0.000000 0.671461
Si Si5 0.551642 0.201862 0.828373
Si Si6 0.262066 0.000000 0.825782
O O1 0.710275 0.154185 0.500000
O O2 0.750000 0.250000 0.292148
O O3 0.664346 0.234707 0.284456
O O4 0.711658 0.090346 0.230872
O O5 0.615764 0.299094 0.500000
O O6 0.639272 0.410103 0.285597
O O7 0.579963 0.281754 0.248875
O O8 0.071170 0.401145 0.221564
O O9 0.000000 0.500000 0.240915
O O10 0.045208 0.500000 0.000000
O O11 0.787486 0.000000 0.764476
O O12 0.818748 0.000000 0.500000
O O13 0.500000 0.211934 0.783193
O O14 0.557128 0.215065 0.000000
O O15 0.261238 0.000000 0.000000
#
# Coordination Sequence:
#
# PCOD8272500 Si02
#       6
#    16  16   8   8  16   8
#     4  10  20  38  60  79 107 149 189 227 274 333
#     4  10  21  36  59  83 104 140 190 238 275 321
#     4   7  12  27  51  74  98 138 180 205 248 323
#     4  10  20  40  60  76 104 148 195 228 277 340
#     4   9  18  34  56  81 113 149 181 221 277 337
#     4  12  24  35  55  87 119 146 181 233 284 333
#
# _framework density 18.297032999999999
#
# number of rings (size 3 to 8) (size 9 to 14) (size 15 to 20)
#    0.000    2.333    2.222    2.333    0.000    3.556 
#    0.000    3.333    0.000    5.333    0.000    0.000 
#    0.000    0.000    0.000    0.000    0.000    0.000 
#
# Total GULP energy -446244.783012 kJ/mol
# GULP energy per Si atom -12395.688417 kJ/mol
# Density = 1.825539 g / cm^3
# Si number density = 18.297033 Si / 1000 Ang^3
#
#
#
# Elastic Constant Matrix: (Units=GPa)
#
#
# Indices 1 2 3 4 5 6 
#
# 1 105.0045 72.3393 45.5101 0.0000 0.0000 0.0000
# 2 72.3393 163.2516 64.5288 0.0000 0.0000 0.0000
# 3 45.5101 64.5288 62.1987 0.0000 0.0000 0.0000
# 4 0.0000 0.0000 0.0000 19.0691 0.0000 0.0000
# 5 0.0000 0.0000 0.0000 0.0000 29.7583 0.0000
# 6 0.0000 0.0000 0.0000 0.0000 0.0000 28.5995
#
#
#
# Elastic Compliance Matrix: (Units=1/GPa)
#
#
# Indices 1 2 3 4 5 6 
#
# 1 0.015349 -0.004004 -0.007076 0.000000 0.000000 0.000000
# 2 -0.004004 0.011428 -0.008927 0.000000 0.000000 0.000000
# 3 -0.007076 -0.008927 0.030516 0.000000 0.000000 0.000000
# 4 0.000000 0.000000 0.000000 0.052441 0.000000 0.000000
# 5 0.000000 0.000000 0.000000 0.000000 0.033604 0.000000
# 6 0.000000 0.000000 0.000000 0.000000 0.000000 0.034966
#
#
# Mechanical properties :
#
#
# Convention : Reuss Voigt Hill
#
# Bulk Modulus (GPa) = 57.87361 77.24568 67.55965
# Shear Modulus (GPa) = 22.31364 25.35716 23.83540
#
# Velocity S-wave (km/s) = 3.49595 3.72675 3.61320
# Velocity P-wave (km/s) = 6.92779 7.79920 7.37638
#
# Compressibility (1/GPa) = 0.01727903
#
# Stress axis : x y z
#
# Youngs Moduli (GPa) = 65.15079 87.50225 32.76946
#
# Poissons Ratio (x) = 0.35038 0.23189
# Poissons Ratio (y) = 0.26088 0.29252
# Poissons Ratio (z) = 0.46104 0.78109
#
# Static dielectric constant tensor:
#      x y z
#    x 3.226650 0.000000 0.000000 
#    y 0.000000 2.664820 0.000000 
#    z 0.000000 0.000000 3.098630 
# 
# 
# High freq. dielectric constant tensor:
#      x y z
#    x 1.698150 0.000000 0.000000 
#    y 0.000000 1.722130 0.000000 
#    z 0.000000 0.000000 1.687370 
# 
# From -- ./inp_files/15828.got.cif
#   From: 2010.03.12/outbox.cif.g09.slc.cpg/sg65_8_cif.got.tgz:15828.got - 2010.04.10 20:52:16.
