data_PCOD8272891
_publ_section_title
;
Structure prediction by ZEFSAII (Michael W. Deem and Ramdas Pophale) SiO2 
 PCOD8272891
Probable space group: C M M M
;
_chemical_formula_sum "Si O2"
_cell_formula_units_Z 72
_cell_length_a 18.560996
_cell_length_b 9.023242
_cell_length_c 23.374800
_cell_angle_alpha 90.000000
_cell_angle_beta 90.000000
_cell_angle_gamma 90.000000
_cell_volume 3914.819888
_symmetry_space_group_name_H-M "C M M M"
_symmetry_group_IT_number 65
_symmetry_cell_setting 'orthorhombic'
loop_
_space_group_symop_operation_xyz
x,y,z
-x,-y,z
x,-y,-z
-x,y,-z
-x,-y,-z
x,y,-z
-x,y,z
x,-y,z
1/2+x,1/2+y,z
1/2-x,1/2-y,z
1/2+x,1/2-y,-z
1/2-x,1/2+y,-z
1/2-x,1/2-y,-z
1/2+x,1/2+y,-z
1/2-x,1/2+y,z
1/2+x,1/2-y,z
loop_
_atom_site_type_symbol
_atom_site_label
_atom_site_fract_x
_atom_site_fract_y
_atom_site_fract_z
Si Si1 0.172267 0.175357 0.500000
Si Si2 0.177002 0.826592 0.935030
Si Si3 0.078498 0.674953 0.722644
Si Si4 0.914243 0.667346 0.845309
Si Si5 0.914215 0.328546 0.401715
O O1 0.250000 0.250000 0.500000
O O2 0.127509 0.222767 0.555461
O O3 0.182159 0.000000 0.500000
O O4 0.250000 0.750000 0.913931
O O5 0.112415 0.775964 0.894577
O O6 0.187747 0.000000 0.929634
O O7 0.158345 0.779499 0.000000
O O8 0.067799 0.500000 0.724774
O O9 0.117333 0.720458 0.782664
O O10 0.116246 0.714758 0.662071
O O11 0.000000 0.751198 0.721481
O O12 0.888749 0.500000 0.859194
O O13 0.000000 0.675431 0.843048
O O14 0.897021 0.500000 0.416098
O O15 0.000000 0.301717 0.405947
#
# Coordination Sequence:
#
# PCOD8272891 Si02
#       5
#     8  16  16  16  16
#     4  12  25  38  51  71 103 137 171 212 255 296
#     4  10  21  36  52  70  96 132 173 214 254 298
#     4   7  12  26  50  78 104 130 161 198 240 290
#     4   9  17  31  53  80 107 133 163 201 246 296
#     4   9  17  33  58  82 103 131 167 203 244 298
#
# _framework density 18.391649999999998
#
# number of rings (size 3 to 8) (size 9 to 14) (size 15 to 20)
#    0.000    2.889    0.000    4.667    0.000    4.000 
#    0.000    4.444    0.000    4.000    0.000    0.000 
#    0.000    0.000    0.000    0.000    0.000    0.000 
#
# Total GULP energy -445972.112272 kJ/mol
# GULP energy per Si atom -12388.114230 kJ/mol
# Density = 1.834979 g / cm^3
# Si number density = 18.391650 Si / 1000 Ang^3
#
#
#
# Elastic Constant Matrix: (Units=GPa)
#
#
# Indices 1 2 3 4 5 6 
#
# 1 50.7062 32.3781 47.5084 0.0000 0.0000 0.0000
# 2 32.3781 77.5182 52.5549 0.0000 0.0000 0.0000
# 3 47.5084 52.5549 152.4587 0.0000 0.0000 0.0000
# 4 0.0000 0.0000 0.0000 17.6808 0.0000 0.0000
# 5 0.0000 0.0000 0.0000 0.0000 -1.1163 0.0000
# 6 0.0000 0.0000 0.0000 0.0000 0.0000 28.1141
#
#
#
# Elastic Compliance Matrix: (Units=1/GPa)
#
#
# Indices 1 2 3 4 5 6 
#
# 1 0.031654 -0.008527 -0.006925 0.000000 0.000000 0.000000
# 2 -0.008527 0.019131 -0.003938 0.000000 0.000000 0.000000
# 3 -0.006925 -0.003938 0.010074 0.000000 0.000000 0.000000
# 4 0.000000 0.000000 0.000000 0.056559 0.000000 0.000000
# 5 0.000000 0.000000 0.000000 0.000000 -0.895796 0.000000
# 6 0.000000 0.000000 0.000000 0.000000 0.000000 0.035569
#
#
# Mechanical properties :
#
#
# Convention : Reuss Voigt Hill
#
# Bulk Modulus (GPa) = 45.28671 60.61842 52.95256
# Shear Modulus (GPa) = -7.17701 18.81849 5.82074
#
# Velocity S-wave (km/s) = -1.97757 3.20223 1.78094
# Velocity P-wave (km/s) = 4.41164 6.83401 5.75179
#
# Compressibility (1/GPa) = 0.02208153
#
# Stress axis : x y z
#
# Youngs Moduli (GPa) = 31.59153 52.27004 99.26173
#
# Poissons Ratio (x) = 0.44569 0.68734
# Poissons Ratio (y) = 0.26937 0.39088
# Poissons Ratio (z) = 0.21876 0.20583
#
# Static dielectric constant tensor:
#      x y z
#    x 3.031470 0.000000 0.000000 
#    y 0.000000 3.144080 0.000000 
#    z 0.000000 0.000000 3.939010 
# 
# 
# High freq. dielectric constant tensor:
#      x y z
#    x 1.675160 0.000000 0.000000 
#    y 0.000000 1.687220 0.000000 
#    z 0.000000 0.000000 1.740340 
# 
# From -- ./inp_files/70356.got.cif
#   From: 2010.03.12/outbox.cif.g09.slc.cpg/sg65_36_cif.got.tgz:70356.got - 2010.04.10 20:52:16.
