data_PCOD8272977
_publ_section_title
;
Structure prediction by ZEFSAII (Michael W. Deem and Ramdas Pophale) SiO2 
 PCOD8272977
Probable space group: C M M M
;
_chemical_formula_sum "Si O2"
_cell_formula_units_Z 88
_cell_length_a 9.297097
_cell_length_b 16.248763
_cell_length_c 29.809875
_cell_angle_alpha 90.000000
_cell_angle_beta 90.000000
_cell_angle_gamma 90.000000
_cell_volume 4503.268287
_symmetry_space_group_name_H-M "C M M M"
_symmetry_group_IT_number 65
_symmetry_cell_setting 'orthorhombic'
loop_
_space_group_symop_operation_xyz
x,y,z
-x,-y,z
x,-y,-z
-x,y,-z
-x,-y,-z
x,y,-z
-x,y,z
x,-y,z
1/2+x,1/2+y,z
1/2-x,1/2-y,z
1/2+x,1/2-y,-z
1/2-x,1/2+y,-z
1/2-x,1/2-y,-z
1/2+x,1/2+y,-z
1/2-x,1/2+y,z
1/2+x,1/2-y,z
loop_
_atom_site_type_symbol
_atom_site_label
_atom_site_fract_x
_atom_site_fract_y
_atom_site_fract_z
Si Si1 0.166440 0.170093 0.797547
Si Si2 0.157980 0.904950 0.707280
Si Si3 0.170402 0.164572 0.101359
Si Si4 0.667108 0.334534 0.550765
Si Si5 0.842320 0.594935 0.372316
Si Si6 0.329495 0.500000 0.948932
O O1 0.250000 0.250000 0.782417
O O2 0.206538 0.103631 0.759331
O O3 0.211100 0.141086 0.847356
O O4 0.000000 0.192037 0.798204
O O5 0.267299 0.863387 0.671541
O O6 0.000000 0.864263 0.700966
O O7 0.147875 0.000000 0.695653
O O8 0.250000 0.250000 0.086936
O O9 0.000000 0.178211 0.094329
O O10 0.227231 0.085194 0.073478
O O11 0.685280 0.367370 0.500000
O O12 0.500000 0.323102 0.562831
O O13 0.750000 0.250000 0.557600
O O14 0.740847 0.398503 0.584212
O O15 0.865673 0.500000 0.362368
O O16 0.000000 0.636081 0.379840
O O17 0.500000 0.500000 0.944875
O O18 0.275792 0.500000 0.000000
#
# Coordination Sequence:
#
# PCOD8272977 Si02
#       6
#    16  16  16  16  16   8
#     4   9  18  31  49  73  99 130 168 211 259 310
#     4   9  18  32  50  71  96 128 168 210 252 300
#     4   9  18  33  53  77 108 142 181 229 277 329
#     4  10  21  37  57  79 102 130 167 211 258 307
#     4  10  21  36  53  75 105 138 171 208 254 307
#     4   9  18  32  53  81 109 143 187 229 274 331
#
# _framework density 19.541363
#
# number of rings (size 3 to 8) (size 9 to 14) (size 15 to 20)
#    0.000    2.636    0.000    1.091    1.273    4.364 
#    0.000    4.091    0.000    0.545    0.000    0.000 
#    0.000    0.000    0.000    0.000    0.000    0.000 
#
# Total GULP energy -545225.771899 kJ/mol
# GULP energy per Si atom -12391.494816 kJ/mol
# Density = 1.949689 g / cm^3
# Si number density = 19.541363 Si / 1000 Ang^3
#
#
#
# Elastic Constant Matrix: (Units=GPa)
#
#
# Indices 1 2 3 4 5 6 
#
# 1 94.1544 35.2470 60.8903 0.0000 0.0000 0.0000
# 2 35.2470 71.8372 50.0347 0.0000 0.0000 0.0000
# 3 60.8903 50.0347 138.3218 0.0000 0.0000 0.0000
# 4 0.0000 0.0000 0.0000 24.9172 0.0000 0.0000
# 5 0.0000 0.0000 0.0000 0.0000 15.2283 0.0000
# 6 0.0000 0.0000 0.0000 0.0000 0.0000 26.6095
#
#
#
# Elastic Compliance Matrix: (Units=1/GPa)
#
#
# Indices 1 2 3 4 5 6 
#
# 1 0.015601 -0.003838 -0.005479 0.000000 0.000000 0.000000
# 2 -0.003838 0.019553 -0.005383 0.000000 0.000000 0.000000
# 3 -0.005479 -0.005383 0.011589 0.000000 0.000000 0.000000
# 4 0.000000 0.000000 0.000000 0.040133 0.000000 0.000000
# 5 0.000000 0.000000 0.000000 0.000000 0.065667 0.000000
# 6 0.000000 0.000000 0.000000 0.000000 0.000000 0.037581
#
#
# Mechanical properties :
#
#
# Convention : Reuss Voigt Hill
#
# Bulk Modulus (GPa) = 57.66576 66.29526 61.98051
# Shear Modulus (GPa) = 22.19203 23.89377 23.04290
#
# Velocity S-wave (km/s) = 3.37359 3.50055 3.43765
# Velocity P-wave (km/s) = 6.68943 7.09491 6.89515
#
# Compressibility (1/GPa) = 0.01734131
#
# Stress axis : x y z
#
# Youngs Moduli (GPa) = 64.09712 51.14283 86.29010
#
# Poissons Ratio (x) = 0.19631 0.47282
# Poissons Ratio (y) = 0.24603 0.46451
# Poissons Ratio (z) = 0.35121 0.27531
#
# Static dielectric constant tensor:
#      x y z
#    x 3.815260 0.000000 0.000000 
#    y 0.000000 3.439250 0.000000 
#    z 0.000000 0.000000 3.740600 
# 
# 
# High freq. dielectric constant tensor:
#      x y z
#    x 1.753360 0.000000 0.000000 
#    y 0.000000 1.737670 0.000000 
#    z 0.000000 0.000000 1.769550 
# 
# From -- ./inp_files/76449.got.cif
#   From: 2010.03.12/outbox.cif.g09.slc.cpg/sg65_39_cif.got.tgz:76449.got - 2010.04.10 20:52:16.
