data_PCOD8272300
_publ_section_title
;
Structure prediction by ZEFSAII (Michael W. Deem and Ramdas Pophale) SiO2 
 PCOD8272300
Probable space group: C M M M
;
_chemical_formula_sum "Si O2"
_cell_formula_units_Z 88
_cell_length_a 19.773422
_cell_length_b 13.548828
_cell_length_c 15.122854
_cell_angle_alpha 90.000000
_cell_angle_beta 90.000000
_cell_angle_gamma 90.000000
_cell_volume 4051.513814
_symmetry_space_group_name_H-M "C M M M"
_symmetry_group_IT_number 65
_symmetry_cell_setting 'orthorhombic'
loop_
_space_group_symop_operation_xyz
x,y,z
-x,-y,z
x,-y,-z
-x,y,-z
-x,-y,-z
x,y,-z
-x,y,z
x,-y,z
1/2+x,1/2+y,z
1/2-x,1/2-y,z
1/2+x,1/2-y,-z
1/2-x,1/2+y,-z
1/2-x,1/2-y,-z
1/2+x,1/2+y,-z
1/2-x,1/2+y,z
1/2+x,1/2-y,z
loop_
_atom_site_type_symbol
_atom_site_label
_atom_site_fract_x
_atom_site_fract_y
_atom_site_fract_z
Si Si1 0.924076 0.116329 0.247058
Si Si2 0.656488 0.312678 0.400418
Si Si3 0.923200 0.381863 0.000000
Si Si4 0.820003 0.385880 0.855465
Si Si5 0.797897 0.387571 0.345954
Si Si6 0.825890 0.883159 0.097465
O O1 0.909486 0.164188 0.342871
O O2 0.875490 0.162719 0.171540
O O3 0.000000 0.143776 0.220048
O O4 0.913884 0.000000 0.255174
O O5 0.648363 0.353596 0.500000
O O6 0.717416 0.369000 0.349699
O O7 0.667499 0.194139 0.408302
O O8 0.882561 0.342071 0.912690
O O9 0.927045 0.500000 0.000000
O O10 0.000000 0.339201 0.000000
O O11 0.816493 0.500000 0.878278
O O12 0.828400 0.368395 0.751218
O O13 0.748972 0.339118 0.887226
O O14 0.813511 0.500000 0.376996
O O15 0.825731 0.000000 0.108488
O O16 0.851992 0.852957 0.000000
#
# Coordination Sequence:
#
# PCOD8272300 Si02
#       6
#    16  16   8  16  16  16
#     4  10  21  37  58  86 121 160 200 248 305 365
#     4  11  23  37  58  88 119 154 196 251 313 364
#     4   9  16  26  46  81 117 151 200 247 282 339
#     4   9  15  27  50  78 111 154 192 232 290 345
#     4  10  20  36  59  86 116 153 198 247 300 360
#     4   9  15  27  52  84 116 155 199 238 290 355
#
# _framework density 21.720276999999999
#
# number of rings (size 3 to 8) (size 9 to 14) (size 15 to 20)
#    0.000    2.273    2.727    1.636    0.000    3.273 
#    0.000    3.636    2.000    3.818    0.000    1.273 
#    0.000    0.000    0.000    0.000    0.000    0.364 
#
# Total GULP energy -545373.167123 kJ/mol
# GULP energy per Si atom -12394.844707 kJ/mol
# Density = 2.167084 g / cm^3
# Si number density = 21.720277 Si / 1000 Ang^3
#
#
#
# Elastic Constant Matrix: (Units=GPa)
#
#
# Indices 1 2 3 4 5 6 
#
# 1 140.2023 14.3226 75.5413 0.0000 0.0000 0.0000
# 2 14.3226 54.7375 8.2555 0.0000 0.0000 0.0000
# 3 75.5413 8.2555 137.2047 0.0000 0.0000 0.0000
# 4 0.0000 0.0000 0.0000 26.5706 0.0000 0.0000
# 5 0.0000 0.0000 0.0000 0.0000 23.1071 0.0000
# 6 0.0000 0.0000 0.0000 0.0000 0.0000 -0.2159
#
#
#
# Elastic Compliance Matrix: (Units=1/GPa)
#
#
# Indices 1 2 3 4 5 6 
#
# 1 0.010325 -0.001861 -0.005573 0.000000 0.000000 0.000000
# 2 -0.001861 0.018772 -0.000105 0.000000 0.000000 0.000000
# 3 -0.005573 -0.000105 0.010363 0.000000 0.000000 0.000000
# 4 0.000000 0.000000 0.000000 0.037636 0.000000 0.000000
# 5 0.000000 0.000000 0.000000 0.000000 0.043277 0.000000
# 6 0.000000 0.000000 0.000000 0.000000 0.000000 -4.632769
#
#
# Mechanical properties :
#
#
# Convention : Reuss Voigt Hill
#
# Bulk Modulus (GPa) = 41.01313 58.70926 49.86119
# Shear Modulus (GPa) = -1.11379 25.49404 12.19013
#
# Velocity S-wave (km/s) = -0.71687 3.42971 2.37160
# Velocity P-wave (km/s) = 4.27062 6.54005 5.52315
#
# Compressibility (1/GPa) = 0.02438244
#
# Stress axis : x y z
#
# Youngs Moduli (GPa) = 96.84883 53.27133 96.49745
#
# Poissons Ratio (x) = 0.09915 0.53777
# Poissons Ratio (y) = 0.18026 0.01011
# Poissons Ratio (z) = 0.53973 0.00558
#
# Static dielectric constant tensor:
#      x y z
#    x 3.824220 0.000000 0.000000 
#    y 0.000000 3.777450 0.000000 
#    z 0.000000 0.000000 3.875450 
# 
# 
# High freq. dielectric constant tensor:
#      x y z
#    x 1.817370 0.000000 0.000000 
#    y 0.000000 1.854430 0.000000 
#    z 0.000000 0.000000 1.855910 
# 
# From -- ./inp_files/44006.got.cif
#   From: 2010.03.12/outbox.cif.g09.slc.cpg/sg65_23_cif.got.tgz:44006.got - 2010.04.10 20:52:16.
