data_PCOD8272778
_publ_section_title
;
Structure prediction by ZEFSAII (Michael W. Deem and Ramdas Pophale) SiO2 
 PCOD8272778
Probable space group: C M M M
;
_chemical_formula_sum "Si O2"
_cell_formula_units_Z 64
_cell_length_a 17.211237
_cell_length_b 20.761687
_cell_length_c 10.281670
_cell_angle_alpha 90.000000
_cell_angle_beta 90.000000
_cell_angle_gamma 90.000000
_cell_volume 3673.993511
_symmetry_space_group_name_H-M "C M M M"
_symmetry_group_IT_number 65
_symmetry_cell_setting 'orthorhombic'
loop_
_space_group_symop_operation_xyz
x,y,z
-x,-y,z
x,-y,-z
-x,y,-z
-x,-y,-z
x,y,-z
-x,y,z
x,-y,z
1/2+x,1/2+y,z
1/2-x,1/2-y,z
1/2+x,1/2-y,-z
1/2-x,1/2+y,-z
1/2-x,1/2-y,-z
1/2+x,1/2+y,-z
1/2-x,1/2+y,z
1/2+x,1/2-y,z
loop_
_atom_site_type_symbol
_atom_site_label
_atom_site_fract_x
_atom_site_fract_y
_atom_site_fract_z
Si Si1 0.089069 0.927606 0.500000
Si Si2 0.301550 0.186202 0.648212
Si Si3 0.085604 0.000000 0.854543
Si Si4 0.341964 0.624163 0.249545
Si Si5 0.091090 0.745809 0.148456
O O1 0.110271 0.881975 0.381328
O O2 0.000000 0.941303 0.500000
O O3 0.129282 0.000000 0.500000
O O4 0.328377 0.168633 0.500000
O O5 0.250000 0.250000 0.643276
O O6 0.249053 0.129827 0.711910
O O7 0.374485 0.196152 0.744894
O O8 0.141048 0.060263 0.830473
O O9 0.000000 0.000000 0.778265
O O10 0.059178 0.000000 0.000000
O O11 0.370721 0.684435 0.165871
O O12 0.000000 0.750705 0.173650
O O13 0.108692 0.722834 0.000000
#
# Coordination Sequence:
#
# PCOD8272778 Si02
#       5
#     8  16   8  16  16
#     4  11  20  30  47  72 101 139 176 204 239 291
#     4   9  19  34  50  72 100 130 170 214 254 299
#     4  11  22  33  47  73 108 142 176 209 243 294
#     4  11  20  33  50  71 104 137 170 209 248 297
#     4  10  21  35  52  74 100 133 172 212 258 307
#
# _framework density 17.419737000000001
#
# number of rings (size 3 to 8) (size 9 to 14) (size 15 to 20)
#    0.000    1.750    2.500    3.000    1.750    8.000 
#    0.000    0.000    0.000    0.000    0.000    0.875 
#    0.000    6.000    0.000    0.000    0.000    0.000 
#
# Total GULP energy -396504.072536 kJ/mol
# GULP energy per Si atom -12390.752267 kJ/mol
# Density = 1.738009 g / cm^3
# Si number density = 17.419737 Si / 1000 Ang^3
#
#
#
# Elastic Constant Matrix: (Units=GPa)
#
#
# Indices 1 2 3 4 5 6 
#
# 1 77.3408 37.1241 53.1718 0.0000 0.0000 0.0000
# 2 37.1241 62.7175 24.5034 0.0000 0.0000 0.0000
# 3 53.1718 24.5034 121.5082 0.0000 0.0000 0.0000
# 4 0.0000 0.0000 0.0000 32.2832 0.0000 0.0000
# 5 0.0000 0.0000 0.0000 0.0000 31.2515 0.0000
# 6 0.0000 0.0000 0.0000 0.0000 0.0000 41.8206
#
#
#
# Elastic Compliance Matrix: (Units=1/GPa)
#
#
# Indices 1 2 3 4 5 6 
#
# 1 0.023805 -0.010878 -0.008223 0.000000 0.000000 0.000000
# 2 -0.010878 0.022279 0.000267 0.000000 0.000000 0.000000
# 3 -0.008223 0.000267 0.011774 0.000000 0.000000 0.000000
# 4 0.000000 0.000000 0.000000 0.030976 0.000000 0.000000
# 5 0.000000 0.000000 0.000000 0.000000 0.031998 0.000000
# 6 0.000000 0.000000 0.000000 0.000000 0.000000 0.023912
#
#
# Mechanical properties :
#
#
# Convention : Reuss Voigt Hill
#
# Bulk Modulus (GPa) = 49.52800 54.57389 52.05095
# Shear Modulus (GPa) = 26.43520 30.85555 28.64537
#
# Velocity S-wave (km/s) = 3.89979 4.21325 4.05954
# Velocity P-wave (km/s) = 6.98367 7.42060 7.20545
#
# Compressibility (1/GPa) = 0.02019060
#
# Stress axis : x y z
#
# Youngs Moduli (GPa) = 42.00852 44.88546 84.92951
#
# Poissons Ratio (x) = 0.48826 0.69840
# Poissons Ratio (y) = 0.45696 -0.02270
# Poissons Ratio (z) = 0.34545 -0.01200
#
# Static dielectric constant tensor:
#      x y z
#    x 3.209210 0.000000 0.000000 
#    y 0.000000 3.230000 0.000000 
#    z 0.000000 0.000000 3.552110 
# 
# 
# High freq. dielectric constant tensor:
#      x y z
#    x 1.652780 0.000000 0.000000 
#    y 0.000000 1.638850 0.000000 
#    z 0.000000 0.000000 1.697130 
# 
# From -- ./inp_files/26471.got.cif
#   From: 2010.03.12/outbox.cif.g09.slc.cpg/sg65_14_cif.got.tgz:26471.got - 2010.04.10 20:52:16.
