data_PCOD8272232
_publ_section_title
;
Structure prediction by ZEFSAII (Michael W. Deem and Ramdas Pophale) SiO2 
 PCOD8272232
Probable space group: C M M M
;
_chemical_formula_sum "Si O2"
_cell_formula_units_Z 112
_cell_length_a 13.604144
_cell_length_b 14.551455
_cell_length_c 26.929528
_cell_angle_alpha 90.000000
_cell_angle_beta 90.000000
_cell_angle_gamma 90.000000
_cell_volume 5330.971766
_symmetry_space_group_name_H-M "C M M M"
_symmetry_group_IT_number 65
_symmetry_cell_setting 'orthorhombic'
loop_
_space_group_symop_operation_xyz
x,y,z
-x,-y,z
x,-y,-z
-x,y,-z
-x,-y,-z
x,y,-z
-x,y,z
x,-y,z
1/2+x,1/2+y,z
1/2-x,1/2-y,z
1/2+x,1/2-y,-z
1/2-x,1/2+y,-z
1/2-x,1/2-y,-z
1/2+x,1/2+y,-z
1/2-x,1/2+y,z
1/2+x,1/2-y,z
loop_
_atom_site_type_symbol
_atom_site_label
_atom_site_fract_x
_atom_site_fract_y
_atom_site_fract_z
Si Si1 0.779174 0.649425 0.292183
Si Si2 0.611373 0.723278 0.942949
Si Si3 0.108736 0.603369 0.805068
Si Si4 0.282291 0.889278 0.097262
Si Si5 0.108462 0.898069 0.356892
Si Si6 0.383785 0.723625 0.554475
Si Si7 0.384307 0.102061 0.610126
O O1 0.750000 0.750000 0.275003
O O2 0.832832 0.602014 0.246557
O O3 0.677483 0.600494 0.308334
O O4 0.853608 0.648474 0.338224
O O5 0.500000 0.719969 0.923565
O O6 0.650144 0.828972 0.939918
O O7 0.671667 0.649308 0.909715
O O8 0.619007 0.692205 0.000000
O O9 0.086786 0.500000 0.820030
O O10 0.179220 0.642029 0.848232
O O11 0.000000 0.652698 0.801708
O O12 0.287429 0.000000 0.087307
O O13 0.159766 0.840080 0.401501
O O14 0.000000 0.858817 0.342728
O O15 0.097351 0.000000 0.377745
O O16 0.341500 0.697806 0.500000
O O17 0.500000 0.710213 0.554814
O O18 0.353576 0.829437 0.565473
O O19 0.500000 0.091331 0.611168
O O20 0.336308 0.000000 0.603334
#
# Coordination Sequence:
#
# PCOD8272232 Si02
#       7
#    16  16  16  16  16  16  16
#     4  12  23  36  59  85 112 148 188 234 290 348
#     4  10  22  39  61  93 133 175 220 267 314 366
#     4  10  22  40  62  89 119 152 196 248 301 361
#     4  10  21  39  63  91 126 168 214 266 319 371
#     4  10  21  38  57  78 110 148 186 230 278 337
#     4   9  18  34  55  81 111 141 181 229 279 340
#     4  10  20  36  58  82 110 142 180 230 286 343
#
# _framework density 21.009302999999999
#
# number of rings (size 3 to 8) (size 9 to 14) (size 15 to 20)
#    0.000    1.857    1.429    3.000    2.000    4.571 
#    0.000    6.429    0.000    2.571    0.000    0.000 
#    0.000    0.000    0.000    0.000    0.000    0.000 
#
# Total GULP energy -693856.634353 kJ/mol
# GULP energy per Si atom -12390.297042 kJ/mol
# Density = 2.096149 g / cm^3
# Si number density = 21.009303 Si / 1000 Ang^3
#
#
#
# Elastic Constant Matrix: (Units=GPa)
#
#
# Indices 1 2 3 4 5 6 
#
# 1 128.4278 34.8824 52.6373 0.0000 0.0000 0.0000
# 2 34.8824 98.9661 22.8161 0.0000 0.0000 0.0000
# 3 52.6373 22.8161 105.2250 0.0000 0.0000 0.0000
# 4 0.0000 0.0000 0.0000 250.4473 0.0000 0.0000
# 5 0.0000 0.0000 0.0000 0.0000 25.4135 0.0000
# 6 0.0000 0.0000 0.0000 0.0000 0.0000 18.6799
#
#
#
# Elastic Compliance Matrix: (Units=1/GPa)
#
#
# Indices 1 2 3 4 5 6 
#
# 1 0.010391 -0.002594 -0.004635 0.000000 0.000000 0.000000
# 2 -0.002594 0.011284 -0.001149 0.000000 0.000000 0.000000
# 3 -0.004635 -0.001149 0.012071 0.000000 0.000000 0.000000
# 4 0.000000 0.000000 0.000000 0.003993 0.000000 0.000000
# 5 0.000000 0.000000 0.000000 0.000000 0.039349 0.000000
# 6 0.000000 0.000000 0.000000 0.000000 0.000000 0.053533
#
#
# Mechanical properties :
#
#
# Convention : Reuss Voigt Hill
#
# Bulk Modulus (GPa) = 58.86106 61.47671 60.16888
# Shear Modulus (GPa) = 32.67097 73.72704 53.19900
#
# Velocity S-wave (km/s) = 3.94772 5.93032 5.03752
# Velocity P-wave (km/s) = 6.98976 8.73023 7.90802
#
# Compressibility (1/GPa) = 0.01698916
#
# Stress axis : x y z
#
# Youngs Moduli (GPa) = 96.23847 88.62401 82.84012
#
# Poissons Ratio (x) = 0.22987 0.38400
# Poissons Ratio (y) = 0.24962 0.09520
# Poissons Ratio (z) = 0.44611 0.10184
#
# Static dielectric constant tensor:
#      x y z
#    x 4.059430 0.000000 0.000000 
#    y 0.000000 3.930980 0.000000 
#    z 0.000000 0.000000 3.674540 
# 
# 
# High freq. dielectric constant tensor:
#      x y z
#    x 1.839590 0.000000 0.000000 
#    y 0.000000 1.817330 0.000000 
#    z 0.000000 0.000000 1.804870 
# 
# From -- ./inp_files/74868.got.cif
#   From: 2010.03.12/outbox.cif.g09.slc.cpg/sg65_38_cif.got.tgz:74868.got - 2010.04.10 20:52:16.
