data_PCOD8272669
_publ_section_title
;
Structure prediction by ZEFSAII (Michael W. Deem and Ramdas Pophale) SiO2 
 PCOD8272669
Probable space group: C M M M
;
_chemical_formula_sum "Si O2"
_cell_formula_units_Z 112
_cell_length_a 9.739213
_cell_length_b 18.634101
_cell_length_c 36.125000
_cell_angle_alpha 90.000000
_cell_angle_beta 90.000000
_cell_angle_gamma 90.000000
_cell_volume 6556.018418
_symmetry_space_group_name_H-M "C M M M"
_symmetry_group_IT_number 65
_symmetry_cell_setting 'orthorhombic'
loop_
_space_group_symop_operation_xyz
x,y,z
-x,-y,z
x,-y,-z
-x,y,-z
-x,-y,-z
x,y,-z
-x,y,z
x,-y,z
1/2+x,1/2+y,z
1/2-x,1/2-y,z
1/2+x,1/2-y,-z
1/2-x,1/2+y,-z
1/2-x,1/2-y,-z
1/2+x,1/2+y,-z
1/2-x,1/2+y,z
1/2+x,1/2-y,z
loop_
_atom_site_type_symbol
_atom_site_label
_atom_site_fract_x
_atom_site_fract_y
_atom_site_fract_z
Si Si1 0.841947 0.180758 0.458761
Si Si2 0.847060 0.085483 0.313859
Si Si3 0.153961 0.914790 0.040874
Si Si4 0.340982 0.082832 0.752546
Si Si5 0.340939 0.917114 0.893084
Si Si6 0.839574 0.321458 0.822797
Si Si7 0.837081 0.078944 0.394671
O O1 0.829257 0.147009 0.500000
O O2 0.750000 0.250000 0.455546
O O3 0.781370 0.126160 0.428496
O O4 0.000000 0.200883 0.450256
O O5 0.743838 0.113057 0.282376
O O6 0.797138 0.112682 0.354475
O O7 0.000000 0.114524 0.304734
O O8 0.849358 0.000000 0.315335
O O9 0.257416 0.885532 0.071952
O O10 0.000000 0.888544 0.050416
O O11 0.159474 0.000000 0.040483
O O12 0.197005 0.886177 0.000000
O O13 0.500000 0.090384 0.742452
O O14 0.300581 0.130999 0.787397
O O15 0.303992 0.000000 0.761551
O O16 0.500000 0.909972 0.903095
O O17 0.300679 0.869427 0.858053
O O18 0.303020 0.000000 0.884408
O O19 0.750000 0.250000 0.822913
O O20 0.000000 0.300777 0.822829
O O21 0.000000 0.072830 0.396710
O O22 0.771293 0.000000 0.399128
#
# Coordination Sequence:
#
# PCOD8272669 Si02
#       7
#    16  16  16  16  16  16  16
#     4   9  17  29  45  64  87 117 151 185 222 265
#     4   8  14  26  45  68  92 116 143 179 223 267
#     4   8  14  25  42  67  98 125 148 181 226 269
#     4   9  17  31  51  71  91 117 150 186 223 266
#     4   9  17  30  49  71  93 119 153 189 224 266
#     4  10  21  35  49  67  93 123 152 186 229 270
#     4   8  14  26  45  68  91 114 144 184 225 262
#
# _framework density 17.083538999999998
#
# number of rings (size 3 to 8) (size 9 to 14) (size 15 to 20)
#    0.000    3.286    0.000    1.714    0.000    3.429 
#    0.000    4.286    0.000    9.429    0.000    2.000 
#    0.000    0.000    0.000    0.000    0.000    0.000 
#
# Total GULP energy -694068.922180 kJ/mol
# GULP energy per Si atom -12394.087896 kJ/mol
# Density = 1.704466 g / cm^3
# Si number density = 17.083539 Si / 1000 Ang^3
#
#
#
# Elastic Constant Matrix: (Units=GPa)
#
#
# Indices 1 2 3 4 5 6 
#
# 1 63.9685 39.3974 73.8624 0.0000 0.0000 0.0000
# 2 39.3974 63.0648 64.1120 0.0000 0.0000 0.0000
# 3 73.8624 64.1120 181.1886 0.0000 0.0000 0.0000
# 4 0.0000 0.0000 0.0000 2.8236 0.0000 0.0000
# 5 0.0000 0.0000 0.0000 0.0000 28.7903 0.0000
# 6 0.0000 0.0000 0.0000 0.0000 0.0000 20.4566
#
#
#
# Elastic Compliance Matrix: (Units=1/GPa)
#
#
# Indices 1 2 3 4 5 6 
#
# 1 0.033895 -0.011132 -0.009879 0.000000 0.000000 0.000000
# 2 -0.011132 0.028421 -0.005519 0.000000 0.000000 0.000000
# 3 -0.009879 -0.005519 0.011499 0.000000 0.000000 0.000000
# 4 0.000000 0.000000 0.000000 0.354160 0.000000 0.000000
# 5 0.000000 0.000000 0.000000 0.000000 0.034734 0.000000
# 6 0.000000 0.000000 0.000000 0.000000 0.000000 0.048884
#
#
# Mechanical properties :
#
#
# Convention : Reuss Voigt Hill
#
# Bulk Modulus (GPa) = 48.17692 73.66284 60.91988
# Shear Modulus (GPa) = 8.74781 19.13743 13.94262
#
# Velocity S-wave (km/s) = 2.26533 3.35061 2.85992
# Velocity P-wave (km/s) = 5.92489 7.62768 6.82956
#
# Compressibility (1/GPa) = 0.02075683
#
# Stress axis : x y z
#
# Youngs Moduli (GPa) = 29.50250 35.18481 86.96541
#
# Poissons Ratio (x) = 0.39169 0.85909
# Poissons Ratio (y) = 0.32843 0.47992
# Poissons Ratio (z) = 0.29144 0.19417
#
# Static dielectric constant tensor:
#      x y z
#    x 3.119950 0.000000 0.000000 
#    y 0.000000 2.944270 0.000000 
#    z 0.000000 0.000000 3.627600 
# 
# 
# High freq. dielectric constant tensor:
#      x y z
#    x 1.642910 0.000000 0.000000 
#    y 0.000000 1.620890 0.000000 
#    z 0.000000 0.000000 1.676410 
# 
# From -- ./inp_files/77422.got.cif
#   From: 2010.03.12/outbox.cif.g09.slc.cpg/sg65_39_cif.got.tgz:77422.got - 2010.04.10 20:52:16.
