data_PCOD8272839
_publ_section_title
;
Structure prediction by ZEFSAII (Michael W. Deem and Ramdas Pophale) SiO2 
 PCOD8272839
Probable space group: C M M M
;
_chemical_formula_sum "Si O2"
_cell_formula_units_Z 64
_cell_length_a 12.313457
_cell_length_b 13.511587
_cell_length_c 18.012146
_cell_angle_alpha 90.000000
_cell_angle_beta 90.000000
_cell_angle_gamma 90.000000
_cell_volume 2996.759002
_symmetry_space_group_name_H-M "C M M M"
_symmetry_group_IT_number 65
_symmetry_cell_setting 'orthorhombic'
loop_
_space_group_symop_operation_xyz
x,y,z
-x,-y,z
x,-y,-z
-x,y,-z
-x,-y,-z
x,y,-z
-x,y,z
x,-y,z
1/2+x,1/2+y,z
1/2-x,1/2-y,z
1/2+x,1/2-y,-z
1/2-x,1/2+y,-z
1/2-x,1/2-y,-z
1/2+x,1/2+y,-z
1/2-x,1/2+y,z
1/2+x,1/2-y,z
loop_
_atom_site_type_symbol
_atom_site_label
_atom_site_fract_x
_atom_site_fract_y
_atom_site_fract_z
Si Si1 0.623229 0.615615 0.583301
Si Si2 0.250000 0.250000 0.694385
Si Si3 0.628487 0.195330 0.831531
Si Si4 0.628164 0.000000 0.086057
Si Si5 0.872469 0.111020 0.915290
O O1 0.664682 0.639538 0.500000
O O2 0.500000 0.652744 0.592100
O O3 0.630392 0.500000 0.599144
O O4 0.696439 0.668088 0.643385
O O5 0.337969 0.192193 0.745186
O O6 0.500000 0.192459 0.839691
O O7 0.674194 0.301440 0.862458
O O8 0.676601 0.101230 0.877466
O O9 0.500000 0.000000 0.099216
O O10 0.658632 0.000000 0.000000
O O11 0.000000 0.100985 0.899757
O O12 0.820486 0.000000 0.900565
O O13 0.852468 0.143435 0.000000
#
# Coordination Sequence:
#
# PCOD8272839 Si02
#       5
#    16   8  16   8  16
#     4   9  20  41  67  92 119 156 198 234 281 358
#     4  12  23  34  59  90 128 150 186 238 309 348
#     4  10  21  35  53  81 114 152 196 242 296 354
#     4   9  18  36  58  72 100 157 212 250 286 339
#     4   8  14  28  51  75 102 142 194 249 299 345
#
# _framework density 21.356406
#
# number of rings (size 3 to 8) (size 9 to 14) (size 15 to 20)
#    0.000    2.625    0.000    3.375    1.750    4.000 
#    0.000    5.000    0.000    0.000    0.000    5.250 
#    0.000    0.000    0.000    0.000    0.000    0.000 
#
# Total GULP energy -396906.116570 kJ/mol
# GULP energy per Si atom -12403.316143 kJ/mol
# Density = 2.130780 g / cm^3
# Si number density = 21.356406 Si / 1000 Ang^3
#
#
#
# Elastic Constant Matrix: (Units=GPa)
#
#
# Indices 1 2 3 4 5 6 
#
# 1 57.4563 75.6900 42.0900 0.0000 0.0000 0.0000
# 2 75.6900 152.5028 95.9741 0.0000 0.0000 0.0000
# 3 42.0900 95.9741 154.5499 0.0000 0.0000 0.0000
# 4 0.0000 0.0000 0.0000 56.3092 0.0000 0.0000
# 5 0.0000 0.0000 0.0000 0.0000 33.5613 0.0000
# 6 0.0000 0.0000 0.0000 0.0000 0.0000 48.4003
#
#
#
# Elastic Compliance Matrix: (Units=1/GPa)
#
#
# Indices 1 2 3 4 5 6 
#
# 1 0.051116 -0.027264 0.003010 0.000000 0.000000 0.000000
# 2 -0.027264 0.025306 -0.008290 0.000000 0.000000 0.000000
# 3 0.003010 -0.008290 0.010798 0.000000 0.000000 0.000000
# 4 0.000000 0.000000 0.000000 0.017759 0.000000 0.000000
# 5 0.000000 0.000000 0.000000 0.000000 0.029796 0.000000
# 6 0.000000 0.000000 0.000000 0.000000 0.000000 0.020661
#
#
# Mechanical properties :
#
#
# Convention : Reuss Voigt Hill
#
# Bulk Modulus (GPa) = 45.18222 88.00190 66.59206
# Shear Modulus (GPa) = 21.93936 37.70449 29.82193
#
# Velocity S-wave (km/s) = 3.20862 4.20633 3.74089
# Velocity P-wave (km/s) = 5.91010 8.05523 7.06456
#
# Compressibility (1/GPa) = 0.02213260
#
# Stress axis : x y z
#
# Youngs Moduli (GPa) = 19.56347 39.51686 92.60561
#
# Poissons Ratio (x) = 1.07738 -0.27872
# Poissons Ratio (y) = 0.53337 0.76766
# Poissons Ratio (z) = -0.05888 0.32758
#
# Static dielectric constant tensor:
#      x y z
#    x 4.248230 0.000000 0.000000 
#    y 0.000000 4.236070 0.000000 
#    z 0.000000 0.000000 3.677830 
# 
# 
# High freq. dielectric constant tensor:
#      x y z
#    x 1.888570 0.000000 0.000000 
#    y 0.000000 1.852300 0.000000 
#    z 0.000000 0.000000 1.816580 
# 
# From -- ./inp_files/50902.got.cif
#   From: 2010.03.12/outbox.cif.g09.slc.cpg/sg65_26_cif.got.tgz:50902.got - 2010.04.10 20:52:16.
