data_PCOD8272401
_publ_section_title
;
Structure prediction by ZEFSAII (Michael W. Deem and Ramdas Pophale) SiO2 
 PCOD8272401
Probable space group: C M M M
;
_chemical_formula_sum "Si O2"
_cell_formula_units_Z 112
_cell_length_a 15.631359
_cell_length_b 28.489834
_cell_length_c 12.756044
_cell_angle_alpha 90.000000
_cell_angle_beta 90.000000
_cell_angle_gamma 90.000000
_cell_volume 5680.710598
_symmetry_space_group_name_H-M "C M M M"
_symmetry_group_IT_number 65
_symmetry_cell_setting 'orthorhombic'
loop_
_space_group_symop_operation_xyz
x,y,z
-x,-y,z
x,-y,-z
-x,y,-z
-x,-y,-z
x,y,-z
-x,y,z
x,-y,z
1/2+x,1/2+y,z
1/2-x,1/2-y,z
1/2+x,1/2-y,-z
1/2-x,1/2+y,-z
1/2-x,1/2-y,-z
1/2+x,1/2+y,-z
1/2-x,1/2+y,z
1/2+x,1/2-y,z
loop_
_atom_site_type_symbol
_atom_site_label
_atom_site_fract_x
_atom_site_fract_y
_atom_site_fract_z
Si Si1 0.364017 0.552739 0.623509
Si Si2 0.151997 0.236083 0.618348
Si Si3 0.598486 0.902889 0.386619
Si Si4 0.097351 0.682724 0.751266
Si Si5 0.795273 0.448887 0.232180
Si Si6 0.904431 0.853498 0.272374
Si Si7 0.746305 0.142399 0.878566
O O1 0.360659 0.561998 0.500000
O O2 0.402119 0.500000 0.645540
O O3 0.270708 0.556531 0.672662
O O4 0.416567 0.594156 0.679684
O O5 0.123099 0.247667 0.500000
O O6 0.250000 0.250000 0.635739
O O7 0.097220 0.265396 0.702571
O O8 0.132536 0.181359 0.638896
O O9 0.644545 0.910843 0.500000
O O10 0.500000 0.904528 0.408366
O O11 0.626474 0.852287 0.341628
O O12 0.617498 0.941289 0.296769
O O13 0.169327 0.676965 0.841662
O O14 0.000000 0.672051 0.792283
O O15 0.793300 0.500000 0.178651
O O16 0.782140 0.411438 0.140221
O O17 0.837763 0.849548 0.176488
O O18 0.000000 0.838709 0.234587
O O19 0.761041 0.151627 0.000000
#
# Coordination Sequence:
#
# PCOD8272401 Si02
#       7
#    16  16  16  16  16  16  16
#     4   9  18  33  54  81 115 154 190 227 278 341
#     4  11  22  37  60  90 124 159 188 222 272 332
#     4   9  17  28  46  75 111 150 186 222 271 336
#     4  10  20  37  59  83 112 148 191 234 279 333
#     4   9  18  32  51  77 107 143 187 236 287 343
#     4  11  23  39  59  86 118 152 194 240 286 339
#     4  10  22  41  61  81 108 144 191 248 299 342
#
# _framework density 19.715844000000001
#
# number of rings (size 3 to 8) (size 9 to 14) (size 15 to 20)
#    0.000    2.143    1.429    1.714    0.000    4.857 
#    0.000    2.857    0.000    1.714    0.000    8.000 
#    0.000    0.000    0.000    0.000    0.000    0.000 
#
# Total GULP energy -693886.083898 kJ/mol
# GULP energy per Si atom -12390.822927 kJ/mol
# Density = 1.967097 g / cm^3
# Si number density = 19.715844 Si / 1000 Ang^3
#
#
#
# Elastic Constant Matrix: (Units=GPa)
#
#
# Indices 1 2 3 4 5 6 
#
# 1 70.5162 33.9360 50.3665 0.0000 0.0000 0.0000
# 2 33.9360 99.8557 34.1399 0.0000 0.0000 0.0000
# 3 50.3665 34.1399 109.6436 0.0000 0.0000 0.0000
# 4 0.0000 0.0000 0.0000 10.8700 0.0000 0.0000
# 5 0.0000 0.0000 0.0000 0.0000 13.5207 0.0000
# 6 0.0000 0.0000 0.0000 0.0000 0.0000 20.5937
#
#
#
# Elastic Compliance Matrix: (Units=1/GPa)
#
#
# Indices 1 2 3 4 5 6 
#
# 1 0.022912 -0.004687 -0.009065 0.000000 0.000000 0.000000
# 2 -0.004687 0.012166 -0.001635 0.000000 0.000000 0.000000
# 3 -0.009065 -0.001635 0.013794 0.000000 0.000000 0.000000
# 4 0.000000 0.000000 0.000000 0.091996 0.000000 0.000000
# 5 0.000000 0.000000 0.000000 0.000000 0.073961 0.000000
# 6 0.000000 0.000000 0.000000 0.000000 0.000000 0.048559
#
#
# Mechanical properties :
#
#
# Convention : Reuss Voigt Hill
#
# Bulk Modulus (GPa) = 55.25881 57.43337 56.34609
# Shear Modulus (GPa) = 16.65578 19.76841 18.21210
#
# Velocity S-wave (km/s) = 2.90968 3.16993 3.04259
# Velocity P-wave (km/s) = 6.27509 6.52623 6.40189
#
# Compressibility (1/GPa) = 0.01809666
#
# Stress axis : x y z
#
# Youngs Moduli (GPa) = 43.64534 82.19329 72.49542
#
# Poissons Ratio (x) = 0.38526 0.65721
# Poissons Ratio (y) = 0.20458 0.11854
# Poissons Ratio (z) = 0.39567 0.13440
#
# Static dielectric constant tensor:
#      x y z
#    x 3.558600 0.000000 0.000000 
#    y 0.000000 3.745560 0.000000 
#    z 0.000000 0.000000 2.700590 
# 
# 
# High freq. dielectric constant tensor:
#      x y z
#    x 1.770300 0.000000 0.000000 
#    y 0.000000 1.773060 0.000000 
#    z 0.000000 0.000000 1.734110 
# 
# From -- ./inp_files/25557.got.cif
#   From: 2010.03.12/outbox.cif.g09.slc.cpg/sg65_13_cif.got.tgz:25557.got - 2010.04.10 20:52:16.
