data_PCOD8272553
_publ_section_title
;
Structure prediction by ZEFSAII (Michael W. Deem and Ramdas Pophale) SiO2 
 PCOD8272553
Probable space group: C M M M
;
_chemical_formula_sum "Si O2"
_cell_formula_units_Z 64
_cell_length_a 16.950237
_cell_length_b 10.890458
_cell_length_c 15.687555
_cell_angle_alpha 90.000000
_cell_angle_beta 90.000000
_cell_angle_gamma 90.000000
_cell_volume 2895.857458
_symmetry_space_group_name_H-M "C M M M"
_symmetry_group_IT_number 65
_symmetry_cell_setting 'orthorhombic'
loop_
_space_group_symop_operation_xyz
x,y,z
-x,-y,z
x,-y,-z
-x,y,-z
-x,-y,-z
x,y,-z
-x,y,z
x,-y,z
1/2+x,1/2+y,z
1/2-x,1/2-y,z
1/2+x,1/2-y,-z
1/2-x,1/2+y,-z
1/2-x,1/2-y,-z
1/2+x,1/2+y,-z
1/2-x,1/2+y,z
1/2+x,1/2-y,z
loop_
_atom_site_type_symbol
_atom_site_label
_atom_site_fract_x
_atom_site_fract_y
_atom_site_fract_z
Si Si1 0.682536 0.000000 0.096759
Si Si2 0.908009 0.000000 0.347772
Si Si3 0.407991 0.238251 0.156591
Si Si4 0.841388 0.752688 0.343172
Si Si5 0.085392 0.361770 0.500000
Si Si6 0.852767 0.000000 0.155974
O O1 0.633008 0.876366 0.110775
O O2 0.757778 0.000000 0.159729
O O3 0.713869 0.000000 0.000000
O O4 0.866104 0.881251 0.386996
O O5 0.892735 0.000000 0.247420
O O6 0.000000 0.000000 0.368809
O O7 0.500000 0.223856 0.140868
O O8 0.390414 0.230107 0.257226
O O9 0.380470 0.369594 0.114611
O O10 0.750000 0.750000 0.318862
O O11 0.862517 0.655850 0.415330
O O12 0.060935 0.500000 0.500000
O O13 0.000000 0.289489 0.500000
#
# Coordination Sequence:
#
# PCOD8272553 Si02
#       6
#     8   8  16  16   8   8
#     4  12  27  44  64  97 135 171 214 266 324 392
#     4  10  20  39  67  94 124 161 217 269 312 377
#     4  11  23  42  70  97 130 171 217 268 325 389
#     4  11  23  40  65  94 127 167 215 265 320 373
#     4  11  25  41  59  89 135 173 213 263 311 375
#     4  10  20  41  67  95 125 166 214 265 321 379
#
# _framework density 22.100536000000002
#
# number of rings (size 3 to 8) (size 9 to 14) (size 15 to 20)
#    0.000    1.125    0.000    9.375    3.500    3.500 
#    0.000    1.250    0.000    4.125    0.000    0.000 
#    0.000    0.000    0.000    0.000    0.000    0.000 
#
# Total GULP energy -396636.537930 kJ/mol
# GULP energy per Si atom -12394.891810 kJ/mol
# Density = 2.205023 g / cm^3
# Si number density = 22.100536 Si / 1000 Ang^3
#
#
#
# Elastic Constant Matrix: (Units=GPa)
#
#
# Indices 1 2 3 4 5 6 
#
# 1 145.2368 40.2301 -7.9680 0.0000 0.0000 0.0000
# 2 40.2301 146.8354 16.7122 0.0000 0.0000 0.0000
# 3 -7.9680 16.7122 53.8714 0.0000 0.0000 0.0000
# 4 0.0000 0.0000 0.0000 14.4657 0.0000 0.0000
# 5 0.0000 0.0000 0.0000 0.0000 2.4755 0.0000
# 6 0.0000 0.0000 0.0000 0.0000 0.0000 39.9866
#
#
#
# Elastic Compliance Matrix: (Units=1/GPa)
#
#
# Indices 1 2 3 4 5 6 
#
# 1 0.007623 -0.002298 0.001840 0.000000 0.000000 0.000000
# 2 -0.002298 0.007752 -0.002745 0.000000 0.000000 0.000000
# 3 0.001840 -0.002745 0.019686 0.000000 0.000000 0.000000
# 4 0.000000 0.000000 0.000000 0.069129 0.000000 0.000000
# 5 0.000000 0.000000 0.000000 0.000000 0.403964 0.000000
# 6 0.000000 0.000000 0.000000 0.000000 0.000000 0.025008
#
#
# Mechanical properties :
#
#
# Convention : Reuss Voigt Hill
#
# Bulk Modulus (GPa) = 34.89591 49.32137 42.10864
# Shear Modulus (GPa) = 9.10548 31.18351 20.14449
#
# Velocity S-wave (km/s) = 2.03199 3.76038 3.02237
# Velocity P-wave (km/s) = 4.61835 6.42022 5.59234
#
# Compressibility (1/GPa) = 0.02865665
#
# Stress axis : x y z
#
# Youngs Moduli (GPa) = 131.18535 128.99302 50.79640
#
# Poissons Ratio (x) = 0.29642 -0.09348
# Poissons Ratio (y) = 0.30146 0.13943
# Poissons Ratio (z) = -0.24143 0.35407
#
# Static dielectric constant tensor:
#      x y z
#    x 3.984940 0.000000 0.000000 
#    y 0.000000 0.047250 0.000000 
#    z 0.000000 0.000000 3.589330 
# 
# 
# High freq. dielectric constant tensor:
#      x y z
#    x 1.883830 0.000000 0.000000 
#    y 0.000000 1.890120 0.000000 
#    z 0.000000 0.000000 1.842440 
# 
# From -- ./inp_files/52560.got.cif
#   From: 2010.03.12/outbox.cif.g09.slc.cpg/sg65_27_cif.got.tgz:52560.got - 2010.04.10 20:52:16.
