data_PCOD8272151
_publ_section_title
;
Structure prediction by ZEFSAII (Michael W. Deem and Ramdas Pophale) SiO2 
 PCOD8272151
Probable space group: C M M M
;
_chemical_formula_sum "Si O2"
_cell_formula_units_Z 80
_cell_length_a 19.669070
_cell_length_b 8.053473
_cell_length_c 27.049929
_cell_angle_alpha 90.000000
_cell_angle_beta 90.000000
_cell_angle_gamma 90.000000
_cell_volume 4284.825722
_symmetry_space_group_name_H-M "C M M M"
_symmetry_group_IT_number 65
_symmetry_cell_setting 'orthorhombic'
loop_
_space_group_symop_operation_xyz
x,y,z
-x,-y,z
x,-y,-z
-x,y,-z
-x,-y,-z
x,y,-z
-x,y,z
x,-y,z
1/2+x,1/2+y,z
1/2-x,1/2-y,z
1/2+x,1/2-y,-z
1/2-x,1/2+y,-z
1/2-x,1/2-y,-z
1/2+x,1/2+y,-z
1/2-x,1/2+y,z
1/2+x,1/2-y,z
loop_
_atom_site_type_symbol
_atom_site_label
_atom_site_fract_x
_atom_site_fract_y
_atom_site_fract_z
Si Si1 0.823192 0.304084 0.306568
Si Si2 0.823510 0.695140 0.416883
Si Si3 0.077663 0.303971 0.222656
Si Si4 0.919230 0.815061 0.883020
Si Si5 0.581125 0.000000 0.056119
Si Si6 0.075767 0.806318 0.500000
O O1 0.828624 0.500000 0.308825
O O2 0.750000 0.250000 0.286175
O O3 0.834731 0.229992 0.361725
O O4 0.879465 0.234184 0.268910
O O5 0.825127 0.500000 0.415451
O O6 0.750000 0.750000 0.437939
O O7 0.884226 0.755252 0.451091
O O8 0.086335 0.500000 0.215182
O O9 0.104876 0.215967 0.173100
O O10 0.000000 0.256282 0.233445
O O11 0.889992 0.668149 0.918009
O O12 0.000000 0.806337 0.885038
O O13 0.894344 0.000000 0.899926
O O14 0.500000 0.000000 0.058882
O O15 0.607281 0.000000 0.000000
O O16 0.000000 0.724812 0.500000
O O17 0.067451 0.000000 0.500000
#
# Coordination Sequence:
#
# PCOD8272151 Si02
#       6
#    16  16  16  16   8   8
#     4   9  19  33  51  75 102 132 163 206 254 298
#     4  10  20  36  57  78 101 133 172 208 254 310
#     4   9  16  29  48  68  95 133 169 203 249 303
#     4   9  16  26  41  63  91 127 169 208 252 306
#     4   9  16  26  40  60  92 132 168 209 258 302
#     4  11  24  39  54  75 103 133 166 213 264 305
#
# _framework density 18.670535999999998
#
# number of rings (size 3 to 8) (size 9 to 14) (size 15 to 20)
#    0.000    2.600    1.000    1.200    0.000    3.600 
#    0.000    4.000    0.000    2.400    0.000    0.000 
#    0.000    0.800    0.400    0.000    0.000    0.000 
#
# Total GULP energy -495830.433286 kJ/mol
# GULP energy per Si atom -12395.760832 kJ/mol
# Density = 1.862804 g / cm^3
# Si number density = 18.670536 Si / 1000 Ang^3
#
#
#
# Elastic Constant Matrix: (Units=GPa)
#
#
# Indices 1 2 3 4 5 6 
#
# 1 91.9945 27.6551 66.8325 0.0000 0.0000 0.0000
# 2 27.6551 83.4354 52.8231 0.0000 0.0000 0.0000
# 3 66.8325 52.8231 138.7373 0.0000 0.0000 0.0000
# 4 0.0000 0.0000 0.0000 15.1568 0.0000 0.0000
# 5 0.0000 0.0000 0.0000 0.0000 12.5794 0.0000
# 6 0.0000 0.0000 0.0000 0.0000 0.0000 17.5423
#
#
#
# Elastic Compliance Matrix: (Units=1/GPa)
#
#
# Indices 1 2 3 4 5 6 
#
# 1 0.016744 -0.000584 -0.007844 0.000000 0.000000 0.000000
# 2 -0.000584 0.015812 -0.005739 0.000000 0.000000 0.000000
# 3 -0.007844 -0.005739 0.013171 0.000000 0.000000 0.000000
# 4 0.000000 0.000000 0.000000 0.065977 0.000000 0.000000
# 5 0.000000 0.000000 0.000000 0.000000 0.079495 0.000000
# 6 0.000000 0.000000 0.000000 0.000000 0.000000 0.057005
#
#
# Mechanical properties :
#
#
# Convention : Reuss Voigt Hill
#
# Bulk Modulus (GPa) = 57.49007 67.64316 62.56661
# Shear Modulus (GPa) = 17.70940 20.17948 18.94444
#
# Velocity S-wave (km/s) = 3.08315 3.29115 3.18884
# Velocity P-wave (km/s) = 6.59796 7.12396 6.86600
#
# Compressibility (1/GPa) = 0.01739431
#
# Stress axis : x y z
#
# Youngs Moduli (GPa) = 59.72283 63.24181 75.92251
#
# Poissons Ratio (x) = 0.03694 0.59550
# Poissons Ratio (y) = 0.03489 0.43572
# Poissons Ratio (z) = 0.46844 0.36295
#
# Static dielectric constant tensor:
#      x y z
#    x 3.033570 0.000000 0.000000 
#    y 0.000000 3.516590 0.000000 
#    z 0.000000 0.000000 3.344450 
# 
# 
# High freq. dielectric constant tensor:
#      x y z
#    x 1.680400 0.000000 0.000000 
#    y 0.000000 1.729410 0.000000 
#    z 0.000000 0.000000 1.727740 
# 
# From -- ./inp_files/75089.got.cif
#   From: 2010.03.12/outbox.cif.g09.slc.cpg/sg65_38_cif.got.tgz:75089.got - 2010.04.10 20:52:16.
