data_PCOD8272234
_publ_section_title
;
Structure prediction by ZEFSAII (Michael W. Deem and Ramdas Pophale) SiO2 
 PCOD8272234
Probable space group: C M M M
;
_chemical_formula_sum "Si O2"
_cell_formula_units_Z 80
_cell_length_a 25.783030
_cell_length_b 8.820626
_cell_length_c 18.075298
_cell_angle_alpha 90.000000
_cell_angle_beta 90.000000
_cell_angle_gamma 90.000000
_cell_volume 4110.728823
_symmetry_space_group_name_H-M "C M M M"
_symmetry_group_IT_number 65
_symmetry_cell_setting 'orthorhombic'
loop_
_space_group_symop_operation_xyz
x,y,z
-x,-y,z
x,-y,-z
-x,y,-z
-x,-y,-z
x,y,-z
-x,y,z
x,-y,z
1/2+x,1/2+y,z
1/2-x,1/2-y,z
1/2+x,1/2-y,-z
1/2-x,1/2+y,-z
1/2-x,1/2-y,-z
1/2+x,1/2+y,-z
1/2-x,1/2+y,z
1/2+x,1/2-y,z
loop_
_atom_site_type_symbol
_atom_site_label
_atom_site_fract_x
_atom_site_fract_y
_atom_site_fract_z
Si Si1 0.695761 0.321016 0.351943
Si Si2 0.000000 0.180003 0.330528
Si Si3 0.404760 0.174331 0.414380
Si Si4 0.196684 0.178130 0.817849
Si Si5 0.897233 0.819157 0.083491
Si Si6 0.500000 0.680373 0.837989
O O1 0.697825 0.500000 0.363859
O O2 0.750000 0.250000 0.378638
O O3 0.650571 0.251534 0.401447
O O4 0.684851 0.276991 0.266753
O O5 0.948438 0.240917 0.368284
O O6 0.000000 0.237216 0.246186
O O7 0.000000 0.000000 0.335962
O O8 0.419527 0.188756 0.500000
O O9 0.402267 0.000000 0.389368
O O10 0.250000 0.250000 0.846013
O O11 0.150880 0.243494 0.868895
O O12 0.201763 0.000000 0.826611
O O13 0.949657 0.755096 0.120075
O O14 0.897839 0.000000 0.084615
O O15 0.892648 0.757595 0.000000
O O16 0.500000 0.500000 0.840168
#
# Coordination Sequence:
#
# PCOD8272234 Si02
#       6
#    16   8  16  16  16   8
#     4  10  20  36  58  82 110 144 183 226 269 318
#     4  11  22  37  59  83 108 141 182 226 270 321
#     4  11  24  40  57  80 111 143 177 221 272 326
#     4   9  18  32  50  75 105 137 176 218 258 305
#     4   9  16  27  46  73 105 138 171 211 260 311
#     4   9  17  30  49  75 104 133 170 216 264 313
#
# _framework density 19.461269999999999
#
# number of rings (size 3 to 8) (size 9 to 14) (size 15 to 20)
#    0.000    2.200    0.000    3.300    0.000    8.800 
#    0.000    0.000    0.000    0.000    0.000    0.000 
#    0.000    6.400    0.000    0.000    0.000    0.000 
#
# Total GULP energy -496118.910536 kJ/mol
# GULP energy per Si atom -12402.972763 kJ/mol
# Density = 1.941698 g / cm^3
# Si number density = 19.461270 Si / 1000 Ang^3
#
#
#
# Elastic Constant Matrix: (Units=GPa)
#
#
# Indices 1 2 3 4 5 6 
#
# 1 130.2758 29.1715 37.6537 0.0000 0.0000 0.0000
# 2 29.1715 57.7835 24.7236 0.0000 0.0000 0.0000
# 3 37.6537 24.7236 81.0830 0.0000 0.0000 0.0000
# 4 0.0000 0.0000 0.0000 15.0955 0.0000 0.0000
# 5 0.0000 0.0000 0.0000 0.0000 108.7296 0.0000
# 6 0.0000 0.0000 0.0000 0.0000 0.0000 35.6396
#
#
#
# Elastic Compliance Matrix: (Units=1/GPa)
#
#
# Indices 1 2 3 4 5 6 
#
# 1 0.009384 -0.003304 -0.003350 0.000000 0.000000 0.000000
# 2 -0.003304 0.021066 -0.004889 0.000000 0.000000 0.000000
# 3 -0.003350 -0.004889 0.015380 0.000000 0.000000 0.000000
# 4 0.000000 0.000000 0.000000 0.066245 0.000000 0.000000
# 5 0.000000 0.000000 0.000000 0.000000 0.009197 0.000000
# 6 0.000000 0.000000 0.000000 0.000000 0.000000 0.028059
#
#
# Mechanical properties :
#
#
# Convention : Reuss Voigt Hill
#
# Bulk Modulus (GPa) = 43.96992 50.24889 47.10940
# Shear Modulus (GPa) = 27.77807 43.73251 35.75529
#
# Velocity S-wave (km/s) = 3.78213 4.74556 4.29097
# Velocity P-wave (km/s) = 6.45874 7.47684 6.98636
#
# Compressibility (1/GPa) = 0.02274282
#
# Stress axis : x y z
#
# Youngs Moduli (GPa) = 106.56161 47.47030 65.02084
#
# Poissons Ratio (x) = 0.15684 0.21785
# Poissons Ratio (y) = 0.35208 0.31789
# Poissons Ratio (z) = 0.35703 0.23208
#
# Static dielectric constant tensor:
#      x y z
#    x 3.760110 0.000000 0.000000 
#    y 0.000000 3.277000 0.000000 
#    z 0.000000 0.000000 3.664010 
# 
# 
# High freq. dielectric constant tensor:
#      x y z
#    x 1.775520 0.000000 0.000000 
#    y 0.000000 1.729560 0.000000 
#    z 0.000000 0.000000 1.762040 
# 
# From -- ./inp_files/57317.got.cif
#   From: 2010.03.12/outbox.cif.g09.slc.cpg/sg65_29_cif.got.tgz:57317.got - 2010.04.10 20:52:16.
