data_PCOD8272402
_publ_section_title
;
Structure prediction by ZEFSAII (Michael W. Deem and Ramdas Pophale) SiO2 
 PCOD8272402
Probable space group: C M M M
;
_chemical_formula_sum "Si O2"
_cell_formula_units_Z 104
_cell_length_a 23.691882
_cell_length_b 25.257934
_cell_length_c 8.870958
_cell_angle_alpha 90.000000
_cell_angle_beta 90.000000
_cell_angle_gamma 90.000000
_cell_volume 5308.452163
_symmetry_space_group_name_H-M "C M M M"
_symmetry_group_IT_number 65
_symmetry_cell_setting 'orthorhombic'
loop_
_space_group_symop_operation_xyz
x,y,z
-x,-y,z
x,-y,-z
-x,y,-z
-x,-y,-z
x,y,-z
-x,y,z
x,-y,z
1/2+x,1/2+y,z
1/2-x,1/2-y,z
1/2+x,1/2-y,-z
1/2-x,1/2+y,-z
1/2-x,1/2-y,-z
1/2+x,1/2+y,-z
1/2-x,1/2+y,z
1/2+x,1/2-y,z
loop_
_atom_site_type_symbol
_atom_site_label
_atom_site_fract_x
_atom_site_fract_y
_atom_site_fract_z
Si Si1 0.884222 0.248346 0.177620
Si Si2 0.000000 0.608157 0.320589
Si Si3 0.500000 0.562947 0.168862
Si Si4 0.887643 0.059325 0.674948
Si Si5 0.614629 0.058352 0.678523
Si Si6 0.815914 0.342561 0.323274
Si Si7 0.314490 0.657451 0.324962
Si Si8 0.500000 0.771043 0.320890
O O1 0.852016 0.300487 0.232037
O O2 0.848131 0.197201 0.219924
O O3 0.944792 0.242403 0.256398
O O4 0.892511 0.251126 0.000000
O O5 0.944959 0.578785 0.255403
O O6 0.000000 0.607491 0.500000
O O7 0.000000 0.668443 0.264198
O O8 0.500000 0.500000 0.177181
O O9 0.556679 0.583991 0.247802
O O10 0.500000 0.584827 0.000000
O O11 0.901599 0.056792 0.500000
O O12 0.834838 0.097536 0.708417
O O13 0.873140 0.000000 0.735269
O O14 0.609664 0.055125 0.500000
O O15 0.664092 0.098732 0.724688
O O16 0.628231 0.000000 0.744835
O O17 0.826690 0.332428 0.500000
O O18 0.750712 0.337753 0.280576
O O19 0.323902 0.672343 0.500000
O O20 0.500000 0.766214 0.500000
#
# Coordination Sequence:
#
# PCOD8272402 Si02
#       8
#    16   8   8  16  16  16  16   8
#     4  12  25  40  59  85 115 148 192 240 291 344
#     4   9  15  27  51  83 117 148 182 226 282 341
#     4   9  17  30  51  78 106 140 180 219 265 329
#     4   9  18  34  56  82 112 144 179 226 286 343
#     4   9  16  27  50  87 122 149 187 240 289 337
#     4  10  20  37  59  83 113 154 198 238 284 338
#     4  10  22  38  58  83 113 151 195 239 285 340
#     4  11  21  39  66  89 115 151 190 235 294 351
#
# _framework density 19.591398999999999
#
# number of rings (size 3 to 8) (size 9 to 14) (size 15 to 20)
#    0.000    2.077    1.538    2.538    0.000    6.154 
#    0.000    3.846    0.000    0.462    0.000    3.231 
#    0.000    0.000    0.000    0.000    0.000    0.000 
#
# Total GULP energy -644833.086817 kJ/mol
# GULP energy per Si atom -12400.636285 kJ/mol
# Density = 1.954681 g / cm^3
# Si number density = 19.591399 Si / 1000 Ang^3
#
#
#
# Elastic Constant Matrix: (Units=GPa)
#
#
# Indices 1 2 3 4 5 6 
#
# 1 149.1499 56.1583 49.6433 0.0000 0.0000 0.0000
# 2 56.1583 106.4018 34.5101 0.0000 0.0000 0.0000
# 3 49.6433 34.5101 71.0504 0.0000 0.0000 0.0000
# 4 0.0000 0.0000 0.0000 10.3764 0.0000 0.0000
# 5 0.0000 0.0000 0.0000 0.0000 11.4781 0.0000
# 6 0.0000 0.0000 0.0000 0.0000 0.0000 29.3823
#
#
#
# Elastic Compliance Matrix: (Units=1/GPa)
#
#
# Indices 1 2 3 4 5 6 
#
# 1 0.009708 -0.003471 -0.005097 0.000000 0.000000 0.000000
# 2 -0.003471 0.012396 -0.003596 0.000000 0.000000 0.000000
# 3 -0.005097 -0.003596 0.019383 0.000000 0.000000 0.000000
# 4 0.000000 0.000000 0.000000 0.096373 0.000000 0.000000
# 5 0.000000 0.000000 0.000000 0.000000 0.087122 0.000000
# 6 0.000000 0.000000 0.000000 0.000000 0.000000 0.034034
#
#
# Mechanical properties :
#
#
# Convention : Reuss Voigt Hill
#
# Bulk Modulus (GPa) = 58.27841 67.46949 62.87395
# Shear Modulus (GPa) = 17.29718 22.66671 19.98195
#
# Velocity S-wave (km/s) = 2.97458 3.40512 3.19711
# Velocity P-wave (km/s) = 6.45051 7.06915 6.76690
#
# Compressibility (1/GPa) = 0.01715901
#
# Stress axis : x y z
#
# Youngs Moduli (GPa) = 103.00751 80.66808 51.59218
#
# Poissons Ratio (x) = 0.27997 0.26298
# Poissons Ratio (y) = 0.35750 0.18554
# Poissons Ratio (z) = 0.52506 0.29010
#
# Static dielectric constant tensor:
#      x y z
#    x 3.705440 0.000000 0.000000 
#    y 0.000000 3.760970 0.000000 
#    z 0.000000 0.000000 3.251020 
# 
# 
# High freq. dielectric constant tensor:
#      x y z
#    x 1.772020 0.000000 0.000000 
#    y 0.000000 1.767690 0.000000 
#    z 0.000000 0.000000 1.726670 
# 
# From -- ./inp_files/12481.got.cif
#   From: 2010.03.12/outbox.cif.g09.slc.cpg/sg65_7_cif.got.tgz:12481.got - 2010.04.10 20:52:16.
