data_PCOD8272971
_publ_section_title
;
Structure prediction by ZEFSAII (Michael W. Deem and Ramdas Pophale) SiO2 
 PCOD8272971
Probable space group: C M M M
;
_chemical_formula_sum "Si O2"
_cell_formula_units_Z 104
_cell_length_a 9.195525
_cell_length_b 20.057648
_cell_length_c 29.441254
_cell_angle_alpha 90.000000
_cell_angle_beta 90.000000
_cell_angle_gamma 90.000000
_cell_volume 5430.162659
_symmetry_space_group_name_H-M "C M M M"
_symmetry_group_IT_number 65
_symmetry_cell_setting 'orthorhombic'
loop_
_space_group_symop_operation_xyz
x,y,z
-x,-y,z
x,-y,-z
-x,y,-z
-x,-y,-z
x,y,-z
-x,y,z
x,-y,z
1/2+x,1/2+y,z
1/2-x,1/2-y,z
1/2+x,1/2-y,-z
1/2-x,1/2+y,-z
1/2-x,1/2-y,-z
1/2+x,1/2+y,-z
1/2-x,1/2+y,z
1/2+x,1/2-y,z
loop_
_atom_site_type_symbol
_atom_site_label
_atom_site_fract_x
_atom_site_fract_y
_atom_site_fract_z
Si Si1 0.332401 0.185039 0.856905
Si Si2 0.170084 0.422790 0.611722
Si Si3 0.339774 0.078862 0.287067
Si Si4 0.159755 0.000000 0.946308
Si Si5 0.669050 0.421683 0.199767
Si Si6 0.165140 0.372917 0.050551
Si Si7 0.831585 0.816311 0.446734
O O1 0.500000 0.188012 0.841649
O O2 0.250000 0.250000 0.838110
O O3 0.259376 0.118480 0.837560
O O4 0.318721 0.184991 0.912026
O O5 0.213068 0.500000 0.605551
O O6 0.207397 0.397138 0.662765
O O7 0.265684 0.380913 0.577072
O O8 0.000000 0.412300 0.601459
O O9 0.500000 0.107674 0.274527
O O10 0.222922 0.101698 0.249617
O O11 0.350838 0.000000 0.288682
O O12 0.241381 0.934116 0.930369
O O13 0.000000 0.000000 0.923632
O O14 0.149111 0.000000 0.000000
O O15 0.500000 0.404114 0.195652
O O16 0.698428 0.500000 0.191611
O O17 0.000000 0.398150 0.047772
O O18 0.216019 0.348569 0.000000
O O19 0.808040 0.826442 0.500000
O O20 0.750000 0.750000 0.429559
O O21 0.000000 0.809169 0.433875
#
# Coordination Sequence:
#
# PCOD8272971 Si02
#       7
#    16  16  16   8  16  16  16
#     4  11  24  40  58  80 110 146 181 222 272 322
#     4   9  18  33  55  83 113 144 179 223 275 328
#     4   8  15  31  55  82 111 142 178 221 269 324
#     4   9  17  29  49  79 109 135 167 213 261 299
#     4  10  21  37  59  86 113 143 180 223 268 321
#     4   9  19  36  56  78 106 141 179 217 262 319
#     4  10  21  36  53  74 105 147 192 236 280 327
#
# _framework density 19.152280000000001
#
# number of rings (size 3 to 8) (size 9 to 14) (size 15 to 20)
#    0.000    2.538    0.000    2.538    1.077    5.538 
#    0.000    3.846    0.000    3.692    0.000    0.000 
#    0.000    0.000    0.000    0.000    0.000    0.000 
#
# Total GULP energy -644654.145588 kJ/mol
# GULP energy per Si atom -12397.195107 kJ/mol
# Density = 1.910869 g / cm^3
# Si number density = 19.152280 Si / 1000 Ang^3
#
#
#
# Elastic Constant Matrix: (Units=GPa)
#
#
# Indices 1 2 3 4 5 6 
#
# 1 130.6213 60.1991 53.6799 0.0000 0.0000 0.0000
# 2 60.1991 80.2343 42.1491 0.0000 0.0000 0.0000
# 3 53.6799 42.1491 80.2491 0.0000 0.0000 0.0000
# 4 0.0000 0.0000 0.0000 13.2932 0.0000 0.0000
# 5 0.0000 0.0000 0.0000 0.0000 28.6793 0.0000
# 6 0.0000 0.0000 0.0000 0.0000 0.0000 29.7956
#
#
#
# Elastic Compliance Matrix: (Units=1/GPa)
#
#
# Indices 1 2 3 4 5 6 
#
# 1 0.012973 -0.007147 -0.004924 0.000000 0.000000 0.000000
# 2 -0.007147 0.021150 -0.006328 0.000000 0.000000 0.000000
# 3 -0.004924 -0.006328 0.019079 0.000000 0.000000 0.000000
# 4 0.000000 0.000000 0.000000 0.075226 0.000000 0.000000
# 5 0.000000 0.000000 0.000000 0.000000 0.034868 0.000000
# 6 0.000000 0.000000 0.000000 0.000000 0.000000 0.033562
#
#
# Mechanical properties :
#
#
# Convention : Reuss Voigt Hill
#
# Bulk Modulus (GPa) = 60.96142 67.01788 63.98965
# Shear Modulus (GPa) = 20.90964 23.35874 22.13419
#
# Velocity S-wave (km/s) = 3.30776 3.49611 3.40324
# Velocity P-wave (km/s) = 6.81816 7.16695 6.99473
#
# Compressibility (1/GPa) = 0.01640382
#
# Stress axis : x y z
#
# Youngs Moduli (GPa) = 77.08274 47.28162 52.41453
#
# Poissons Ratio (x) = 0.33791 0.25810
# Poissons Ratio (y) = 0.55089 0.33168
# Poissons Ratio (z) = 0.37957 0.29919
#
# Static dielectric constant tensor:
#      x y z
#    x 3.636540 0.000000 0.000000 
#    y 0.000000 3.180350 0.000000 
#    z 0.000000 0.000000 3.598320 
# 
# 
# High freq. dielectric constant tensor:
#      x y z
#    x 1.750670 0.000000 0.000000 
#    y 0.000000 1.718100 0.000000 
#    z 0.000000 0.000000 1.744640 
# 
# From -- ./inp_files/73307.got.cif
#   From: 2010.03.12/outbox.cif.g09.slc.cpg/sg65_37_cif.got.tgz:73307.got - 2010.04.10 20:52:16.
