data_PCOD8272430
_publ_section_title
;
Structure prediction by ZEFSAII (Michael W. Deem and Ramdas Pophale) SiO2 
 PCOD8272430
Probable space group: C M M M
;
_chemical_formula_sum "Si O2"
_cell_formula_units_Z 80
_cell_length_a 20.953694
_cell_length_b 8.104395
_cell_length_c 23.699713
_cell_angle_alpha 90.000000
_cell_angle_beta 90.000000
_cell_angle_gamma 90.000000
_cell_volume 4024.614468
_symmetry_space_group_name_H-M "C M M M"
_symmetry_group_IT_number 65
_symmetry_cell_setting 'orthorhombic'
loop_
_space_group_symop_operation_xyz
x,y,z
-x,-y,z
x,-y,-z
-x,y,-z
-x,-y,-z
x,y,-z
-x,y,z
x,-y,z
1/2+x,1/2+y,z
1/2-x,1/2-y,z
1/2+x,1/2-y,-z
1/2-x,1/2+y,-z
1/2-x,1/2-y,-z
1/2+x,1/2+y,-z
1/2-x,1/2+y,z
1/2+x,1/2-y,z
loop_
_atom_site_type_symbol
_atom_site_label
_atom_site_fract_x
_atom_site_fract_y
_atom_site_fract_z
Si Si1 0.000000 0.305030 0.061759
Si Si2 0.575302 0.318090 0.369939
Si Si3 0.423893 0.000000 0.564393
Si Si4 0.317276 0.311870 0.175745
Si Si5 0.071680 0.688864 0.250065
Si Si6 0.862014 0.305008 0.935099
O O1 0.067301 0.252168 0.089156
O O2 0.000000 0.500000 0.056036
O O3 0.000000 0.225733 0.000000
O O4 0.500000 0.314742 0.378256
O O5 0.601581 0.500000 0.388787
O O6 0.604444 0.167008 0.406644
O O7 0.592160 0.295777 0.304104
O O8 0.500000 0.000000 0.569515
O O9 0.400959 0.000000 0.500000
O O10 0.326512 0.500000 0.191999
O O11 0.250000 0.250000 0.201131
O O12 0.376585 0.211061 0.200973
O O13 0.314391 0.285549 0.107759
O O14 0.070982 0.500000 0.269682
O O15 0.000000 0.737888 0.228665
O O16 0.851778 0.500000 0.931326
O O17 0.851122 0.246457 0.000000
#
# Coordination Sequence:
#
# PCOD8272430 Si02
#       6
#     8  16   8  16  16  16
#     4   7  12  26  51  79 103 129 165 209 255 318
#     4   9  16  28  47  73 107 148 194 238 281 334
#     4   9  16  26  42  70 112 156 193 233 284 338
#     4  12  26  41  56  79 112 145 183 235 287 340
#     4  10  20  37  61  84 109 147 190 234 288 346
#     4   9  18  35  58  81 106 139 178 220 276 342
#
# _framework density 19.877680999999999
#
# number of rings (size 3 to 8) (size 9 to 14) (size 15 to 20)
#    0.000    2.400    1.000    3.600    1.400    2.400 
#    0.000    2.000    0.000    1.800    0.000    0.000 
#    0.000    0.800    0.400    0.000    0.000    0.000 
#
# Total GULP energy -495573.486822 kJ/mol
# GULP energy per Si atom -12389.337171 kJ/mol
# Density = 1.983244 g / cm^3
# Si number density = 19.877681 Si / 1000 Ang^3
#
#
#
# Elastic Constant Matrix: (Units=GPa)
#
#
# Indices 1 2 3 4 5 6 
#
# 1 74.8649 18.9849 33.6891 0.0000 0.0000 0.0000
# 2 18.9849 109.6267 42.6820 0.0000 0.0000 0.0000
# 3 33.6891 42.6820 86.1070 0.0000 0.0000 0.0000
# 4 0.0000 0.0000 0.0000 25.1723 0.0000 0.0000
# 5 0.0000 0.0000 0.0000 0.0000 7.4362 0.0000
# 6 0.0000 0.0000 0.0000 0.0000 0.0000 17.3456
#
#
#
# Elastic Compliance Matrix: (Units=1/GPa)
#
#
# Indices 1 2 3 4 5 6 
#
# 1 0.016227 -0.000419 -0.006141 0.000000 0.000000 0.000000
# 2 -0.000419 0.011314 -0.005444 0.000000 0.000000 0.000000
# 3 -0.006141 -0.005444 0.016715 0.000000 0.000000 0.000000
# 4 0.000000 0.000000 0.000000 0.039726 0.000000 0.000000
# 5 0.000000 0.000000 0.000000 0.000000 0.134478 0.000000
# 6 0.000000 0.000000 0.000000 0.000000 0.000000 0.057651
#
#
# Mechanical properties :
#
#
# Convention : Reuss Voigt Hill
#
# Bulk Modulus (GPa) = 49.38991 51.25676 50.32334
# Shear Modulus (GPa) = 16.29357 21.67365 18.98361
#
# Velocity S-wave (km/s) = 2.86613 3.30563 3.09369
# Velocity P-wave (km/s) = 5.98781 6.35702 6.17517
#
# Compressibility (1/GPa) = 0.02024705
#
# Stress axis : x y z
#
# Youngs Moduli (GPa) = 61.62506 88.38513 59.82743
#
# Poissons Ratio (x) = 0.03705 0.36740
# Poissons Ratio (y) = 0.02584 0.32571
# Poissons Ratio (z) = 0.37844 0.48119
#
# Static dielectric constant tensor:
#      x y z
#    x 3.386800 0.000000 0.000000 
#    y 0.000000 3.640300 0.000000 
#    z 0.000000 0.000000 3.417420 
# 
# 
# High freq. dielectric constant tensor:
#      x y z
#    x 1.732290 0.000000 0.000000 
#    y 0.000000 1.774970 0.000000 
#    z 0.000000 0.000000 1.754580 
# 
# From -- ./inp_files/71346.got.cif
#   From: 2010.03.12/outbox.cif.g09.slc.cpg/sg65_36_cif.got.tgz:71346.got - 2010.04.10 20:52:16.
