data_PCOD8272429
_publ_section_title
;
Structure prediction by ZEFSAII (Michael W. Deem and Ramdas Pophale) SiO2 
 PCOD8272429
Probable space group: C M M M
;
_chemical_formula_sum "Si O2"
_cell_formula_units_Z 88
_cell_length_a 22.340756
_cell_length_b 17.729942
_cell_length_c 11.234224
_cell_angle_alpha 90.000000
_cell_angle_beta 90.000000
_cell_angle_gamma 90.000000
_cell_volume 4449.879588
_symmetry_space_group_name_H-M "C M M M"
_symmetry_group_IT_number 65
_symmetry_cell_setting 'orthorhombic'
loop_
_space_group_symop_operation_xyz
x,y,z
-x,-y,z
x,-y,-z
-x,y,-z
-x,-y,-z
x,y,-z
-x,y,z
x,-y,z
1/2+x,1/2+y,z
1/2-x,1/2-y,z
1/2+x,1/2-y,-z
1/2-x,1/2+y,-z
1/2-x,1/2-y,-z
1/2+x,1/2+y,-z
1/2-x,1/2+y,z
1/2+x,1/2-y,z
loop_
_atom_site_type_symbol
_atom_site_label
_atom_site_fract_x
_atom_site_fract_y
_atom_site_fract_z
Si Si1 0.932989 0.269019 0.242733
Si Si2 0.115147 0.414938 0.137770
Si Si3 0.567873 0.189342 0.500000
Si Si4 0.433156 0.500000 0.858822
Si Si5 0.855662 0.140934 0.860285
Si Si6 0.681727 0.088768 0.500000
Si Si7 0.761046 0.413133 0.253953
O O1 0.924606 0.357389 0.213476
O O2 0.922630 0.258071 0.383948
O O3 0.886427 0.220485 0.166999
O O4 0.000000 0.244504 0.206510
O O5 0.097427 0.500000 0.176725
O O6 0.185228 0.401689 0.161392
O O7 0.101896 0.401500 0.000000
O O8 0.500000 0.156001 0.500000
O O9 0.615350 0.122100 0.500000
O O10 0.500000 0.500000 0.803915
O O11 0.398743 0.574259 0.814093
O O12 0.436832 0.500000 0.000000
O O13 0.793606 0.138188 0.789258
O O14 0.842520 0.133412 0.000000
O O15 0.718587 0.115071 0.384238
O O16 0.672386 0.000000 0.500000
O O17 0.740109 0.500000 0.256642
#
# Coordination Sequence:
#
# PCOD8272429 Si02
#       7
#    16  16   8   8  16   8  16
#     4  11  24  41  61  88 122 160 208 261 308 360
#     4  10  21  37  59  86 122 163 198 245 310 376
#     4  10  22  42  63  84 119 165 208 257 312 360
#     4   9  18  34  58  87 117 157 207 251 298 358
#     4  11  22  37  61  90 124 165 203 251 311 369
#     4  10  20  38  65  93 120 158 207 263 309 354
#     4  10  20  37  60  90 124 156 198 251 305 365
#
# _framework density 19.775815999999999
#
# number of rings (size 3 to 8) (size 9 to 14) (size 15 to 20)
#    0.000    1.727    2.727    1.636    0.000    4.909 
#    0.000    5.455    0.000    0.000    0.000    3.182 
#    0.000    0.000    0.000    0.000    0.000    0.000 
#
# Total GULP energy -545723.495507 kJ/mol
# GULP energy per Si atom -12402.806716 kJ/mol
# Density = 1.973080 g / cm^3
# Si number density = 19.775816 Si / 1000 Ang^3
#
#
#
# Elastic Constant Matrix: (Units=GPa)
#
#
# Indices 1 2 3 4 5 6 
#
# 1 107.8776 31.8360 39.2376 0.0000 0.0000 0.0000
# 2 31.8360 73.3133 23.0605 0.0000 0.0000 0.0000
# 3 39.2376 23.0605 87.1892 0.0000 0.0000 0.0000
# 4 0.0000 0.0000 0.0000 22.2929 0.0000 0.0000
# 5 0.0000 0.0000 0.0000 0.0000 29.3427 0.0000
# 6 0.0000 0.0000 0.0000 0.0000 0.0000 35.3008
#
#
#
# Elastic Compliance Matrix: (Units=1/GPa)
#
#
# Indices 1 2 3 4 5 6 
#
# 1 0.011995 -0.003829 -0.004385 0.000000 0.000000 0.000000
# 2 -0.003829 0.016100 -0.002535 0.000000 0.000000 0.000000
# 3 -0.004385 -0.002535 0.014113 0.000000 0.000000 0.000000
# 4 0.000000 0.000000 0.000000 0.044857 0.000000 0.000000
# 5 0.000000 0.000000 0.000000 0.000000 0.034080 0.000000
# 6 0.000000 0.000000 0.000000 0.000000 0.000000 0.028328
#
#
# Mechanical properties :
#
#
# Convention : Reuss Voigt Hill
#
# Bulk Modulus (GPa) = 48.28751 50.73869 49.51310
# Shear Modulus (GPa) = 28.10946 29.00369 28.55657
#
# Velocity S-wave (km/s) = 3.77424 3.83381 3.80414
# Velocity P-wave (km/s) = 6.59270 6.73128 6.66235
#
# Compressibility (1/GPa) = 0.02070929
#
# Stress axis : x y z
#
# Youngs Moduli (GPa) = 83.36912 62.11041 70.85534
#
# Poissons Ratio (x) = 0.23784 0.31071
# Poissons Ratio (y) = 0.31925 0.17962
# Poissons Ratio (z) = 0.36559 0.15745
#
# Static dielectric constant tensor:
#      x y z
#    x 3.586150 0.000000 0.000000 
#    y 0.000000 3.410110 0.000000 
#    z 0.000000 0.000000 3.673450 
# 
# 
# High freq. dielectric constant tensor:
#      x y z
#    x 1.775990 0.000000 0.000000 
#    y 0.000000 1.755440 0.000000 
#    z 0.000000 0.000000 1.769750 
# 
# From -- ./inp_files/28746.got.cif
#   From: 2010.03.12/outbox.cif.g09.slc.cpg/sg65_15_cif.got.tgz:28746.got - 2010.04.10 20:52:16.
