data_PCOD8272826
_publ_section_title
;
Structure prediction by ZEFSAII (Michael W. Deem and Ramdas Pophale) SiO2 
 PCOD8272826
Probable space group: C M M M
;
_chemical_formula_sum "Si O2"
_cell_formula_units_Z 104
_cell_length_a 9.021090
_cell_length_b 26.317430
_cell_length_c 22.651754
_cell_angle_alpha 90.000000
_cell_angle_beta 90.000000
_cell_angle_gamma 90.000000
_cell_volume 5377.796060
_symmetry_space_group_name_H-M "C M M M"
_symmetry_group_IT_number 65
_symmetry_cell_setting 'orthorhombic'
loop_
_space_group_symop_operation_xyz
x,y,z
-x,-y,z
x,-y,-z
-x,y,-z
-x,-y,-z
x,y,-z
-x,y,z
x,-y,z
1/2+x,1/2+y,z
1/2-x,1/2-y,z
1/2+x,1/2-y,-z
1/2-x,1/2+y,-z
1/2-x,1/2-y,-z
1/2+x,1/2+y,-z
1/2-x,1/2+y,z
1/2+x,1/2-y,z
loop_
_atom_site_type_symbol
_atom_site_label
_atom_site_fract_x
_atom_site_fract_y
_atom_site_fract_z
Si Si1 0.676049 0.598010 0.877478
Si Si2 0.168422 0.500000 0.069660
Si Si3 0.329976 0.299687 0.322294
Si Si4 0.826979 0.697362 0.930569
Si Si5 0.170424 0.901560 0.258312
Si Si6 0.333264 0.057864 0.365958
Si Si7 0.324814 0.358413 0.434055
O O1 0.500000 0.600447 0.888754
O O2 0.745032 0.550362 0.911086
O O3 0.748453 0.650487 0.898402
O O4 0.714600 0.589559 0.809037
O O5 0.000000 0.500000 0.094995
O O6 0.162758 0.500000 0.000000
O O7 0.500000 0.285859 0.327154
O O8 0.250000 0.250000 0.298961
O O9 0.298536 0.343072 0.274525
O O10 0.269914 0.316189 0.387192
O O11 0.750000 0.750000 0.910341
O O12 0.000000 0.699266 0.913197
O O13 0.805942 0.689188 0.000000
O O14 0.266333 0.937529 0.300266
O O15 0.000000 0.915393 0.269922
O O16 0.500000 0.078990 0.363996
O O17 0.243141 0.087836 0.415675
O O18 0.328540 0.000000 0.386054
O O19 0.273300 0.343116 0.500000
O O20 0.500000 0.364873 0.430041
#
# Coordination Sequence:
#
# PCOD8272826 Si02
#       7
#    16   8  16  16  16  16  16
#     4  11  23  39  61  89 117 151 197 246 294 347
#     4  11  25  43  61  85 121 161 196 237 294 357
#     4   9  18  34  54  77 107 142 179 222 270 324
#     4  10  21  38  60  86 117 154 194 238 290 347
#     4   9  21  39  56  78 109 144 183 225 272 329
#     4  10  21  35  53  79 108 139 176 224 280 329
#     4   9  19  36  55  76 105 143 186 226 269 330
#
# _framework density 19.338777
#
# number of rings (size 3 to 8) (size 9 to 14) (size 15 to 20)
#    0.000    2.231    0.000    3.000    1.077    9.846 
#    0.000    3.077    0.000    0.000    0.000    0.000 
#    0.000    0.000    0.000    0.000    0.000    0.000 
#
# Total GULP energy -644811.733313 kJ/mol
# GULP energy per Si atom -12400.225641 kJ/mol
# Density = 1.929476 g / cm^3
# Si number density = 19.338777 Si / 1000 Ang^3
#
#
#
# Elastic Constant Matrix: (Units=GPa)
#
#
# Indices 1 2 3 4 5 6 
#
# 1 72.4675 32.0651 22.7021 0.0000 0.0000 0.0000
# 2 32.0651 84.0625 6.8959 0.0000 0.0000 0.0000
# 3 22.7021 6.8959 63.5794 0.0000 0.0000 0.0000
# 4 0.0000 0.0000 0.0000 11.1849 0.0000 0.0000
# 5 0.0000 0.0000 0.0000 0.0000 20.7312 0.0000
# 6 0.0000 0.0000 0.0000 0.0000 0.0000 36.7227
#
#
#
# Elastic Compliance Matrix: (Units=1/GPa)
#
#
# Indices 1 2 3 4 5 6 
#
# 1 0.018573 -0.006599 -0.005916 0.000000 0.000000 0.000000
# 2 -0.006599 0.014347 0.000800 0.000000 0.000000 0.000000
# 3 -0.005916 0.000800 0.017754 0.000000 0.000000 0.000000
# 4 0.000000 0.000000 0.000000 0.089406 0.000000 0.000000
# 5 0.000000 0.000000 0.000000 0.000000 0.048237 0.000000
# 6 0.000000 0.000000 0.000000 0.000000 0.000000 0.027231
#
#
# Mechanical properties :
#
#
# Convention : Reuss Voigt Hill
#
# Bulk Modulus (GPa) = 36.70491 38.15953 37.43222
# Shear Modulus (GPa) = 20.15653 24.29084 22.22368
#
# Velocity S-wave (km/s) = 3.23195 3.54795 3.39363
# Velocity P-wave (km/s) = 5.74008 6.04640 5.89523
#
# Compressibility (1/GPa) = 0.02724431
#
# Stress axis : x y z
#
# Youngs Moduli (GPa) = 53.84301 69.69879 56.32550
#
# Poissons Ratio (x) = 0.45995 0.33322
# Poissons Ratio (y) = 0.35531 -0.04507
# Poissons Ratio (z) = 0.31853 -0.05577
#
# Static dielectric constant tensor:
#      x y z
#    x 3.645310 0.000000 0.000000 
#    y 0.000000 3.485130 0.000000 
#    z 0.000000 0.000000 3.738970 
# 
# 
# High freq. dielectric constant tensor:
#      x y z
#    x 1.758500 0.000000 0.000000 
#    y 0.000000 1.755420 0.000000 
#    z 0.000000 0.000000 1.752150 
# 
# From -- ./inp_files/65917.got.cif
#   From: 2010.03.12/outbox.cif.g09.slc.cpg/sg65_33_cif.got.tgz:65917.got - 2010.04.10 20:52:16.
