data_PCOD8272613
_publ_section_title
;
Structure prediction by ZEFSAII (Michael W. Deem and Ramdas Pophale) SiO2 
 PCOD8272613
Probable space group: C M M M
;
_chemical_formula_sum "Si O2"
_cell_formula_units_Z 120
_cell_length_a 22.666205
_cell_length_b 21.561059
_cell_length_c 13.638377
_cell_angle_alpha 90.000000
_cell_angle_beta 90.000000
_cell_angle_gamma 90.000000
_cell_volume 6665.175536
_symmetry_space_group_name_H-M "C M M M"
_symmetry_group_IT_number 65
_symmetry_cell_setting 'orthorhombic'
loop_
_space_group_symop_operation_xyz
x,y,z
-x,-y,z
x,-y,-z
-x,y,-z
-x,-y,-z
x,y,-z
-x,y,z
x,-y,z
1/2+x,1/2+y,z
1/2-x,1/2-y,z
1/2+x,1/2-y,-z
1/2-x,1/2+y,-z
1/2-x,1/2-y,-z
1/2+x,1/2+y,-z
1/2-x,1/2+y,z
1/2+x,1/2-y,z
loop_
_atom_site_type_symbol
_atom_site_label
_atom_site_fract_x
_atom_site_fract_y
_atom_site_fract_z
Si Si1 0.567630 0.897775 0.111864
Si Si2 0.167496 0.568498 0.244760
Si Si3 0.276557 0.571470 0.887933
Si Si4 0.828708 0.186770 0.386991
Si Si5 0.566111 0.756612 0.112468
Si Si6 0.885546 0.859762 0.201401
Si Si7 0.808459 0.672872 0.387912
Si Si8 0.500000 0.573800 0.883447
O O1 0.500000 0.906544 0.143754
O O2 0.608178 0.938777 0.181389
O O3 0.588002 0.826665 0.124325
O O4 0.575860 0.919478 0.000000
O O5 0.180733 0.500000 0.289146
O O6 0.220387 0.591135 0.175368
O O7 0.158055 0.619233 0.328729
O O8 0.293533 0.500000 0.871665
O O9 0.332019 0.611782 0.857987
O O10 0.260259 0.585249 0.000000
O O11 0.847578 0.175603 0.500000
O O12 0.870626 0.143801 0.318104
O O13 0.833431 0.259506 0.358807
O O14 0.761322 0.166727 0.370245
O O15 0.500000 0.749205 0.154681
O O16 0.609384 0.711742 0.170602
O O17 0.566301 0.736281 0.000000
O O18 0.943688 0.898694 0.173753
O O19 0.823607 0.660365 0.500000
O O20 0.500000 0.500000 0.871858
O O21 0.500000 0.591806 0.000000
#
# Coordination Sequence:
#
# PCOD8272613 Si02
#       8
#    16  16  16  16  16  16  16   8
#     4   9  19  35  53  75 108 146 181 217 262 319
#     4  11  21  34  53  80 110 140 181 224 265 320
#     4  10  21  34  48  72 110 149 181 222 270 315
#     4   9  19  35  59  84 107 138 178 227 281 336
#     4   9  17  30  49  75 104 136 179 227 267 308
#     4  12  19  33  57  78 107 144 190 230 273 329
#     4   9  18  37  59  82 110 138 175 223 277 334
#     4  11  24  38  55  81 113 155 201 234 266 324
#
# _framework density 18.004027000000001
#
# number of rings (size 3 to 8) (size 9 to 14) (size 15 to 20)
#    0.000    2.067    2.000    4.400    0.000    2.400 
#    0.000    1.000    0.000    5.600    0.000    0.933 
#    0.000    0.000    0.000    0.000    0.000    0.000 
#
# Total GULP energy -743850.097230 kJ/mol
# GULP energy per Si atom -12397.501621 kJ/mol
# Density = 1.796305 g / cm^3
# Si number density = 18.004027 Si / 1000 Ang^3
#
#
#
# Elastic Constant Matrix: (Units=GPa)
#
#
# Indices 1 2 3 4 5 6 
#
# 1 76.3478 22.3603 30.9642 0.0000 0.0000 0.0000
# 2 22.3603 62.5135 35.0876 0.0000 0.0000 0.0000
# 3 30.9642 35.0876 80.7853 0.0000 0.0000 0.0000
# 4 0.0000 0.0000 0.0000 28.2256 0.0000 0.0000
# 5 0.0000 0.0000 0.0000 0.0000 25.9049 0.0000
# 6 0.0000 0.0000 0.0000 0.0000 0.0000 27.2927
#
#
#
# Elastic Compliance Matrix: (Units=1/GPa)
#
#
# Indices 1 2 3 4 5 6 
#
# 1 0.015924 -0.003002 -0.004800 0.000000 0.000000 0.000000
# 2 -0.003002 0.021719 -0.008283 0.000000 0.000000 0.000000
# 3 -0.004800 -0.008283 0.017816 0.000000 0.000000 0.000000
# 4 0.000000 0.000000 0.000000 0.035429 0.000000 0.000000
# 5 0.000000 0.000000 0.000000 0.000000 0.038603 0.000000
# 6 0.000000 0.000000 0.000000 0.000000 0.000000 0.036640
#
#
# Mechanical properties :
#
#
# Convention : Reuss Voigt Hill
#
# Bulk Modulus (GPa) = 42.93664 44.05232 43.49448
# Shear Modulus (GPa) = 24.26458 25.03361 24.64909
#
# Velocity S-wave (km/s) = 3.67513 3.73291 3.70413
# Velocity P-wave (km/s) = 6.47371 6.56511 6.51957
#
# Compressibility (1/GPa) = 0.02329013
#
# Stress axis : x y z
#
# Youngs Moduli (GPa) = 62.79954 46.04220 56.13048
#
# Poissons Ratio (x) = 0.13821 0.26941
# Poissons Ratio (y) = 0.18851 0.46492
# Poissons Ratio (z) = 0.30142 0.38136
#
# Static dielectric constant tensor:
#      x y z
#    x 3.240750 0.000000 0.000000 
#    y 0.000000 3.337380 0.000000 
#    z 0.000000 0.000000 3.228700 
# 
# 
# High freq. dielectric constant tensor:
#      x y z
#    x 1.686480 0.000000 0.000000 
#    y 0.000000 1.703020 0.000000 
#    z 0.000000 0.000000 1.683640 
# 
# From -- ./inp_files/31131.got.cif
#   From: 2010.03.12/outbox.cif.g09.slc.cpg/sg65_16_cif.got.tgz:31131.got - 2010.04.10 20:52:16.
