data_PCOD8272385
_publ_section_title
;
Structure prediction by ZEFSAII (Michael W. Deem and Ramdas Pophale) SiO2 
 PCOD8272385
Probable space group: C M M M
;
_chemical_formula_sum "Si O2"
_cell_formula_units_Z 64
_cell_length_a 8.871448
_cell_length_b 14.372186
_cell_length_c 26.104448
_cell_angle_alpha 90.000000
_cell_angle_beta 90.000000
_cell_angle_gamma 90.000000
_cell_volume 3328.371959
_symmetry_space_group_name_H-M "C M M M"
_symmetry_group_IT_number 65
_symmetry_cell_setting 'orthorhombic'
loop_
_space_group_symop_operation_xyz
x,y,z
-x,-y,z
x,-y,-z
-x,y,-z
-x,-y,-z
x,y,-z
-x,y,z
x,-y,z
1/2+x,1/2+y,z
1/2-x,1/2-y,z
1/2+x,1/2-y,-z
1/2-x,1/2+y,-z
1/2-x,1/2-y,-z
1/2+x,1/2+y,-z
1/2-x,1/2+y,z
1/2+x,1/2-y,z
loop_
_atom_site_type_symbol
_atom_site_label
_atom_site_fract_x
_atom_site_fract_y
_atom_site_fract_z
Si Si1 0.171413 0.000000 0.213502
Si Si2 0.324208 0.350319 0.871681
Si Si3 0.673400 0.652413 0.500000
Si Si4 0.825927 0.500000 0.939677
Si Si5 0.323220 0.000000 0.319852
Si Si6 0.322378 0.350835 0.389599
O O1 0.202300 0.092247 0.180372
O O2 0.287625 0.000000 0.259937
O O3 0.000000 0.000000 0.234069
O O4 0.500000 0.338581 0.883646
O O5 0.250000 0.250000 0.865438
O O6 0.250783 0.406454 0.918490
O O7 0.500000 0.676758 0.500000
O O8 0.750000 0.750000 0.500000
O O9 0.711805 0.601276 0.445929
O O10 0.000000 0.500000 0.923255
O O11 0.804596 0.500000 0.000000
O O12 0.252715 0.090799 0.345071
O O13 0.500000 0.000000 0.328571
O O14 0.500000 0.344967 0.379179
O O15 0.250000 0.250000 0.387528
#
# Coordination Sequence:
#
# PCOD8272385 Si02
#       6
#     8  16   8   8   8  16
#     4   9  21  41  59  79 109 145 187 238 287 330
#     4  10  21  38  62  88 115 150 192 235 282 335
#     4   8  16  31  54  79 104 138 176 217 270 327
#     4  10  21  37  58  87 124 161 196 236 279 323
#     4  12  25  38  55  82 112 146 185 227 279 335
#     4  10  20  37  58  81 110 142 179 225 275 332
#
# _framework density 19.228621
#
# number of rings (size 3 to 8) (size 9 to 14) (size 15 to 20)
#    0.000    2.125    0.000    3.750    0.000    7.000 
#    0.000    5.000    0.000    0.000    0.000    0.000 
#    0.000    0.000    0.000    0.000    0.000    0.000 
#
# Total GULP energy -396640.876640 kJ/mol
# GULP energy per Si atom -12395.027395 kJ/mol
# Density = 1.918486 g / cm^3
# Si number density = 19.228621 Si / 1000 Ang^3
#
#
#
# Elastic Constant Matrix: (Units=GPa)
#
#
# Indices 1 2 3 4 5 6 
#
# 1 140.7604 66.5908 69.5222 0.0000 0.0000 0.0000
# 2 66.5908 136.9311 54.2508 0.0000 0.0000 0.0000
# 3 69.5222 54.2508 116.7028 0.0000 0.0000 0.0000
# 4 0.0000 0.0000 0.0000 19.0986 0.0000 0.0000
# 5 0.0000 0.0000 0.0000 0.0000 30.8094 0.0000
# 6 0.0000 0.0000 0.0000 0.0000 0.0000 35.3805
#
#
#
# Elastic Compliance Matrix: (Units=1/GPa)
#
#
# Indices 1 2 3 4 5 6 
#
# 1 0.011257 -0.003454 -0.005101 0.000000 0.000000 0.000000
# 2 -0.003454 0.010011 -0.002596 0.000000 0.000000 0.000000
# 3 -0.005101 -0.002596 0.012814 0.000000 0.000000 0.000000
# 4 0.000000 0.000000 0.000000 0.052360 0.000000 0.000000
# 5 0.000000 0.000000 0.000000 0.000000 0.032458 0.000000
# 6 0.000000 0.000000 0.000000 0.000000 0.000000 0.028264
#
#
# Mechanical properties :
#
#
# Convention : Reuss Voigt Hill
#
# Bulk Modulus (GPa) = 84.88069 86.12468 85.50268
# Shear Modulus (GPa) = 28.83613 30.65973 29.74793
#
# Velocity S-wave (km/s) = 3.87673 3.99743 3.93754
# Velocity P-wave (km/s) = 8.01732 8.13591 8.07683
#
# Compressibility (1/GPa) = 0.01178124
#
# Stress axis : x y z
#
# Youngs Moduli (GPa) = 88.83001 99.88835 78.03737
#
# Poissons Ratio (x) = 0.34499 0.39805
# Poissons Ratio (y) = 0.30679 0.20261
# Poissons Ratio (z) = 0.45310 0.25935
#
# Static dielectric constant tensor:
#      x y z
#    x 3.706890 0.000000 0.000000 
#    y 0.000000 3.409500 0.000000 
#    z 0.000000 0.000000 3.673570 
# 
# 
# High freq. dielectric constant tensor:
#      x y z
#    x 1.761460 0.000000 0.000000 
#    y 0.000000 1.744100 0.000000 
#    z 0.000000 0.000000 1.754020 
# 
# From -- ./inp_files/66918.got.cif
#   From: 2010.03.12/outbox.cif.g09.slc.cpg/sg65_34_cif.got.tgz:66918.got - 2010.04.10 20:52:16.
