data_PCOD8272124
_publ_section_title
;
Structure prediction by ZEFSAII (Michael W. Deem and Ramdas Pophale) SiO2 
 PCOD8272124
Probable space group: C M M M
;
_chemical_formula_sum "Si O2"
_cell_formula_units_Z 88
_cell_length_a 27.363501
_cell_length_b 19.133305
_cell_length_c 8.776610
_cell_angle_alpha 90.000000
_cell_angle_beta 90.000000
_cell_angle_gamma 90.000000
_cell_volume 4595.031119
_symmetry_space_group_name_H-M "C M M M"
_symmetry_group_IT_number 65
_symmetry_cell_setting 'orthorhombic'
loop_
_space_group_symop_operation_xyz
x,y,z
-x,-y,z
x,-y,-z
-x,y,-z
-x,-y,-z
x,y,-z
-x,y,z
x,-y,z
1/2+x,1/2+y,z
1/2-x,1/2-y,z
1/2+x,1/2-y,-z
1/2-x,1/2+y,-z
1/2-x,1/2-y,-z
1/2+x,1/2+y,-z
1/2-x,1/2+y,z
1/2+x,1/2-y,z
loop_
_atom_site_type_symbol
_atom_site_label
_atom_site_fract_x
_atom_site_fract_y
_atom_site_fract_z
Si Si1 0.812798 0.581118 0.175195
Si Si2 0.595690 0.149387 0.319877
Si Si3 0.945268 0.922818 0.681311
Si Si4 0.623850 0.303002 0.320265
Si Si5 0.225228 0.824371 0.829174
Si Si6 0.500000 0.080627 0.819243
O O1 0.802167 0.500000 0.192005
O O2 0.858949 0.600402 0.277938
O O3 0.764419 0.620250 0.235439
O O4 0.823709 0.602461 0.000000
O O5 0.587659 0.148727 0.500000
O O6 0.607073 0.227447 0.257146
O O7 0.547419 0.120189 0.241414
O O8 0.944342 0.919533 0.500000
O O9 0.910758 0.862919 0.751356
O O10 0.000000 0.908851 0.740893
O O11 0.927604 0.000000 0.735027
O O12 0.619390 0.301666 0.500000
O O13 0.678788 0.322795 0.279012
O O14 0.250000 0.750000 0.827998
O O15 0.208816 0.844971 0.000000
O O16 0.500000 0.000000 0.762910
O O17 0.500000 0.083602 0.000000
#
# Coordination Sequence:
#
# PCOD8272124 Si02
#       6
#    16  16  16  16  16   8
#     4  10  21  38  59  81 108 147 192 231 273 331
#     4  11  23  37  57  86 117 146 180 229 283 331
#     4   8  15  30  53  79 108 143 180 217 262 320
#     4  10  21  34  55  85 115 144 180 228 278 326
#     4  10  20  36  56  77 106 144 185 225 270 325
#     4  11  25  43  61  81 110 149 190 230 273 331
#
# _framework density 19.151122000000001
#
# number of rings (size 3 to 8) (size 9 to 14) (size 15 to 20)
#    0.000    2.091    1.818    1.909    1.273    5.818 
#    0.000    0.000    0.000    0.000    0.000    1.273 
#    0.000    0.000    0.000    0.000    0.000    0.000 
#
# Total GULP energy -545601.520927 kJ/mol
# GULP energy per Si atom -12400.034567 kJ/mol
# Density = 1.910753 g / cm^3
# Si number density = 19.151122 Si / 1000 Ang^3
#
#
#
# Elastic Constant Matrix: (Units=GPa)
#
#
# Indices 1 2 3 4 5 6 
#
# 1 145.1950 82.3760 26.8921 0.0000 0.0000 0.0000
# 2 82.3760 131.8469 25.1822 0.0000 0.0000 0.0000
# 3 26.8921 25.1822 32.1341 0.0000 0.0000 0.0000
# 4 0.0000 0.0000 0.0000 20.6140 0.0000 0.0000
# 5 0.0000 0.0000 0.0000 0.0000 16.6048 0.0000
# 6 0.0000 0.0000 0.0000 0.0000 0.0000 38.8596
#
#
#
# Elastic Compliance Matrix: (Units=1/GPa)
#
#
# Indices 1 2 3 4 5 6 
#
# 1 0.011214 -0.006132 -0.004580 0.000000 0.000000 0.000000
# 2 -0.006132 0.012272 -0.004486 0.000000 0.000000 0.000000
# 3 -0.004580 -0.004486 0.038468 0.000000 0.000000 0.000000
# 4 0.000000 0.000000 0.000000 0.048511 0.000000 0.000000
# 5 0.000000 0.000000 0.000000 0.000000 0.060224 0.000000
# 6 0.000000 0.000000 0.000000 0.000000 0.000000 0.025734
#
#
# Mechanical properties :
#
#
# Convention : Reuss Voigt Hill
#
# Bulk Modulus (GPa) = 31.68613 64.23076 47.95844
# Shear Modulus (GPa) = 21.06708 26.86405 23.96556
#
# Velocity S-wave (km/s) = 3.32029 3.74938 3.54134
# Velocity P-wave (km/s) = 5.59288 7.23571 6.46668
#
# Compressibility (1/GPa) = 0.03155955
#
# Stress axis : x y z
#
# Youngs Moduli (GPa) = 89.17074 81.48332 25.99596
#
# Poissons Ratio (x) = 0.49965 0.11905
# Poissons Ratio (y) = 0.54679 0.11661
# Poissons Ratio (z) = 0.40838 0.36552
#
# Static dielectric constant tensor:
#      x y z
#    x 3.560730 0.000000 0.000000 
#    y 0.000000 3.897650 0.000000 
#    z 0.000000 0.000000 3.272910 
# 
# 
# High freq. dielectric constant tensor:
#      x y z
#    x 1.752100 0.000000 0.000000 
#    y 0.000000 1.761000 0.000000 
#    z 0.000000 0.000000 1.716810 
# 
# From -- ./inp_files/13977.got.cif
#   From: 2010.03.12/outbox.cif.g09.slc.cpg/sg65_7_cif.got.tgz:13977.got - 2010.04.10 20:52:16.
