data_PCOD8272730
_publ_section_title
;
Structure prediction by ZEFSAII (Michael W. Deem and Ramdas Pophale) SiO2 
 PCOD8272730
Probable space group: C M M M
;
_chemical_formula_sum "Si O2"
_cell_formula_units_Z 88
_cell_length_a 20.350970
_cell_length_b 8.326412
_cell_length_c 28.936256
_cell_angle_alpha 90.000000
_cell_angle_beta 90.000000
_cell_angle_gamma 90.000000
_cell_volume 4903.264807
_symmetry_space_group_name_H-M "C M M M"
_symmetry_group_IT_number 65
_symmetry_cell_setting 'orthorhombic'
loop_
_space_group_symop_operation_xyz
x,y,z
-x,-y,z
x,-y,-z
-x,y,-z
-x,-y,-z
x,y,-z
-x,y,z
x,-y,z
1/2+x,1/2+y,z
1/2-x,1/2-y,z
1/2+x,1/2-y,-z
1/2-x,1/2+y,-z
1/2-x,1/2-y,-z
1/2+x,1/2+y,-z
1/2-x,1/2+y,z
1/2+x,1/2-y,z
loop_
_atom_site_type_symbol
_atom_site_label
_atom_site_fract_x
_atom_site_fract_y
_atom_site_fract_z
Si Si1 0.318501 0.312868 0.379108
Si Si2 0.681633 0.686599 0.276592
Si Si3 0.922056 0.320161 0.104176
Si Si4 0.078120 0.000000 0.947202
Si Si5 0.925450 0.688693 0.552007
Si Si6 0.573901 0.185287 0.209354
O O1 0.312711 0.500000 0.374629
O O2 0.250000 0.250000 0.400475
O O3 0.330041 0.237187 0.327795
O O4 0.378563 0.273599 0.412034
O O5 0.688869 0.500000 0.281779
O O6 0.750000 0.750000 0.255009
O O7 0.621069 0.721499 0.243512
O O8 0.896409 0.500000 0.088006
O O9 0.901078 0.290494 0.157032
O O10 0.000000 0.324083 0.099970
O O11 0.894019 0.166887 0.075292
O O12 0.000000 0.000000 0.942406
O O13 0.101324 0.000000 0.000000
O O14 0.907997 0.744832 0.500000
O O15 0.916285 0.500000 0.556342
O O16 0.000000 0.738272 0.563924
O O17 0.500000 0.254294 0.214748
O O18 0.574919 0.000000 0.223034
#
# Coordination Sequence:
#
# PCOD8272730 Si02
#       6
#    16  16  16   8  16  16
#     4  10  21  36  53  74 100 131 167 203 249 301
#     4  10  21  35  51  72 100 133 165 207 253 297
#     4   8  15  27  41  61  92 128 165 207 252 300
#     4   9  16  24  38  62  92 130 170 206 252 306
#     4   9  19  36  56  77 101 130 164 203 248 296
#     4   9  18  32  50  72  98 132 170 206 250 302
#
# _framework density 17.947225
#
# number of rings (size 3 to 8) (size 9 to 14) (size 15 to 20)
#    0.000    2.818    0.000    2.727    1.273    4.727 
#    0.000    6.364    0.000    0.000    0.000    0.000 
#    0.000    0.727    0.364    0.000    0.000    0.000 
#
# Total GULP energy -545291.257027 kJ/mol
# GULP energy per Si atom -12392.983114 kJ/mol
# Density = 1.790638 g / cm^3
# Si number density = 17.947225 Si / 1000 Ang^3
#
#
#
# Elastic Constant Matrix: (Units=GPa)
#
#
# Indices 1 2 3 4 5 6 
#
# 1 74.4953 37.3001 50.8794 0.0000 0.0000 0.0000
# 2 37.3001 92.7034 55.1092 0.0000 0.0000 0.0000
# 3 50.8794 55.1092 95.3510 0.0000 0.0000 0.0000
# 4 0.0000 0.0000 0.0000 29.3058 0.0000 0.0000
# 5 0.0000 0.0000 0.0000 0.0000 12.4585 0.0000
# 6 0.0000 0.0000 0.0000 0.0000 0.0000 26.7265
#
#
#
# Elastic Compliance Matrix: (Units=1/GPa)
#
#
# Indices 1 2 3 4 5 6 
#
# 1 0.021588 -0.002800 -0.009901 0.000000 0.000000 0.000000
# 2 -0.002800 0.016796 -0.008213 0.000000 0.000000 0.000000
# 3 -0.009901 -0.008213 0.020518 0.000000 0.000000 0.000000
# 4 0.000000 0.000000 0.000000 0.034123 0.000000 0.000000
# 5 0.000000 0.000000 0.000000 0.000000 0.080266 0.000000
# 6 0.000000 0.000000 0.000000 0.000000 0.000000 0.037416
#
#
# Mechanical properties :
#
#
# Convention : Reuss Voigt Hill
#
# Bulk Modulus (GPa) = 58.57255 61.01411 59.79333
# Shear Modulus (GPa) = 19.36273 21.64888 20.50581
#
# Velocity S-wave (km/s) = 3.28818 3.47688 3.38385
# Velocity P-wave (km/s) = 6.86462 7.08438 6.97537
#
# Compressibility (1/GPa) = 0.01707284
#
# Stress axis : x y z
#
# Youngs Moduli (GPa) = 46.32197 59.53632 48.73831
#
# Poissons Ratio (x) = 0.16672 0.48255
# Poissons Ratio (y) = 0.12972 0.40031
# Poissons Ratio (z) = 0.45863 0.48900
#
# Static dielectric constant tensor:
#      x y z
#    x 3.019240 0.000000 0.000000 
#    y 0.000000 3.514580 0.000000 
#    z 0.000000 0.000000 3.771390 
# 
# 
# High freq. dielectric constant tensor:
#      x y z
#    x 1.659410 0.000000 0.000000 
#    y 0.000000 1.704040 0.000000 
#    z 0.000000 0.000000 1.690410 
# 
# From -- ./inp_files/67457.got.cif
#   From: 2010.03.12/outbox.cif.g09.slc.cpg/sg65_34_cif.got.tgz:67457.got - 2010.04.10 20:52:16.
