data_PCOD8272491
_publ_section_title
;
Structure prediction by ZEFSAII (Michael W. Deem and Ramdas Pophale) SiO2 
 PCOD8272491
Probable space group: C M M M
;
_chemical_formula_sum "Si O2"
_cell_formula_units_Z 64
_cell_length_a 14.270930
_cell_length_b 15.059811
_cell_length_c 14.704257
_cell_angle_alpha 90.000000
_cell_angle_beta 90.000000
_cell_angle_gamma 90.000000
_cell_volume 3160.202280
_symmetry_space_group_name_H-M "C M M M"
_symmetry_group_IT_number 65
_symmetry_cell_setting 'orthorhombic'
loop_
_space_group_symop_operation_xyz
x,y,z
-x,-y,z
x,-y,-z
-x,y,-z
-x,-y,-z
x,y,-z
-x,y,z
x,-y,z
1/2+x,1/2+y,z
1/2-x,1/2-y,z
1/2+x,1/2-y,-z
1/2-x,1/2+y,-z
1/2-x,1/2-y,-z
1/2+x,1/2+y,-z
1/2-x,1/2+y,z
1/2+x,1/2-y,z
loop_
_atom_site_type_symbol
_atom_site_label
_atom_site_fract_x
_atom_site_fract_y
_atom_site_fract_z
Si Si1 0.303040 0.500000 0.601630
Si Si2 0.396203 0.000000 0.339567
Si Si3 0.895940 0.329740 0.214879
Si Si4 0.892434 0.136235 0.734935
Si Si5 0.236197 0.100808 0.897932
O O1 0.345742 0.500000 0.500000
O O2 0.189856 0.500000 0.590335
O O3 0.335797 0.587995 0.654754
O O4 0.383781 0.086305 0.278582
O O5 0.500000 0.000000 0.386469
O O6 0.879397 0.242024 0.276193
O O7 0.819952 0.334370 0.134502
O O8 0.000000 0.326643 0.171296
O O9 0.854309 0.108581 0.833801
O O10 0.000000 0.106357 0.728868
O O11 0.273853 0.000000 0.895110
O O12 0.207098 0.128305 0.000000
#
# Coordination Sequence:
#
# PCOD8272491 Si02
#       5
#     8   8  16  16  16
#     4  12  25  43  68  93 121 161 206 256 315 374
#     4  10  20  40  65  92 123 155 193 247 309 369
#     4  10  20  37  64  90 122 163 203 251 311 367
#     4  11  23  40  62  89 123 164 209 259 309 362
#     4  11  22  37  61  91 126 169 211 251 306 371
#
# _framework density 20.251868999999999
#
# number of rings (size 3 to 8) (size 9 to 14) (size 15 to 20)
#    0.000    1.250    5.000    1.125    0.000    4.250 
#    0.000    7.500    0.000    4.500    0.000    0.000 
#    0.000    0.000    0.000    0.000    0.000    0.000 
#
# Total GULP energy -396753.943442 kJ/mol
# GULP energy per Si atom -12398.560733 kJ/mol
# Density = 2.020577 g / cm^3
# Si number density = 20.251869 Si / 1000 Ang^3
#
#
#
# Elastic Constant Matrix: (Units=GPa)
#
#
# Indices 1 2 3 4 5 6 
#
# 1 145.5981 33.1083 54.8498 0.0000 0.0000 0.0000
# 2 33.1083 127.3567 46.1864 0.0000 0.0000 0.0000
# 3 54.8498 46.1864 127.0812 0.0000 0.0000 0.0000
# 4 0.0000 0.0000 0.0000 13.5046 0.0000 0.0000
# 5 0.0000 0.0000 0.0000 0.0000 11.6655 0.0000
# 6 0.0000 0.0000 0.0000 0.0000 0.0000 23.8689
#
#
#
# Elastic Compliance Matrix: (Units=1/GPa)
#
#
# Indices 1 2 3 4 5 6 
#
# 1 0.008309 -0.000990 -0.003226 0.000000 0.000000 0.000000
# 2 -0.000990 0.009162 -0.002903 0.000000 0.000000 0.000000
# 3 -0.003226 -0.002903 0.010316 0.000000 0.000000 0.000000
# 4 0.000000 0.000000 0.000000 0.074049 0.000000 0.000000
# 5 0.000000 0.000000 0.000000 0.000000 0.085723 0.000000
# 6 0.000000 0.000000 0.000000 0.000000 0.000000 0.041895
#
#
# Mechanical properties :
#
#
# Convention : Reuss Voigt Hill
#
# Bulk Modulus (GPa) = 73.80394 74.25832 74.03113
# Shear Modulus (GPa) = 20.14440 27.53392 23.83916
#
# Velocity S-wave (km/s) = 3.15730 3.69124 3.43466
# Velocity P-wave (km/s) = 7.05787 7.41040 7.23628
#
# Compressibility (1/GPa) = 0.01354941
#
# Stress axis : x y z
#
# Youngs Moduli (GPa) = 120.35466 109.14731 96.93272
#
# Poissons Ratio (x) = 0.10805 0.31274
# Poissons Ratio (y) = 0.11914 0.28135
# Poissons Ratio (z) = 0.38831 0.31680
#
# Static dielectric constant tensor:
#      x y z
#    x 3.990780 0.000000 0.000000 
#    y 0.000000 4.014070 0.000000 
#    z 0.000000 0.000000 3.299080 
# 
# 
# High freq. dielectric constant tensor:
#      x y z
#    x 1.805100 0.000000 0.000000 
#    y 0.000000 1.811730 0.000000 
#    z 0.000000 0.000000 1.751210 
# 
# From -- ./inp_files/39692.got.cif
#   From: 2010.03.12/outbox.cif.g09.slc.cpg/sg65_20_cif.got.tgz:39692.got - 2010.04.10 20:52:16.
