data_PCOD8272145
_publ_section_title
;
Structure prediction by ZEFSAII (Michael W. Deem and Ramdas Pophale) SiO2 
 PCOD8272145
Probable space group: C M M M
;
_chemical_formula_sum "Si O2"
_cell_formula_units_Z 104
_cell_length_a 28.652902
_cell_length_b 9.050485
_cell_length_c 20.239813
_cell_angle_alpha 90.000000
_cell_angle_beta 90.000000
_cell_angle_gamma 90.000000
_cell_volume 5248.642140
_symmetry_space_group_name_H-M "C M M M"
_symmetry_group_IT_number 65
_symmetry_cell_setting 'orthorhombic'
loop_
_space_group_symop_operation_xyz
x,y,z
-x,-y,z
x,-y,-z
-x,y,-z
-x,-y,-z
x,y,-z
-x,y,z
x,-y,z
1/2+x,1/2+y,z
1/2-x,1/2-y,z
1/2+x,1/2-y,-z
1/2-x,1/2+y,-z
1/2-x,1/2-y,-z
1/2+x,1/2+y,-z
1/2-x,1/2+y,z
1/2+x,1/2-y,z
loop_
_atom_site_type_symbol
_atom_site_label
_atom_site_fract_x
_atom_site_fract_y
_atom_site_fract_z
Si Si1 0.447665 0.675471 0.572835
Si Si2 0.613638 0.830199 0.925866
Si Si3 0.705121 0.665661 0.921285
Si Si4 0.797745 0.668752 0.500000
Si Si5 0.800322 0.325618 0.643922
Si Si6 0.553664 0.170598 0.196708
Si Si7 0.886891 0.175613 0.305818
O O1 0.430293 0.728392 0.500000
O O2 0.500000 0.735853 0.585602
O O3 0.448402 0.500000 0.575318
O O4 0.414107 0.736755 0.629691
O O5 0.657620 0.741264 0.896650
O O6 0.569182 0.804271 0.879110
O O7 0.629150 0.000000 0.926889
O O8 0.600206 0.777273 0.000000
O O9 0.706155 0.500000 0.893561
O O10 0.750000 0.750000 0.891775
O O11 0.706844 0.669332 0.000000
O O12 0.783603 0.500000 0.500000
O O13 0.750000 0.750000 0.500000
O O14 0.822488 0.706687 0.429957
O O15 0.795673 0.500000 0.657938
O O16 0.750000 0.250000 0.652557
O O17 0.836050 0.251822 0.695497
O O18 0.500000 0.218454 0.202741
O O19 0.584470 0.276158 0.241957
O O20 0.560805 0.000000 0.217500
O O21 0.881052 0.000000 0.306132
#
# Coordination Sequence:
#
# PCOD8272145 Si02
#       7
#    16  16  16   8  16  16  16
#     4   8  15  29  49  75 106 138 177 226 273 316
#     4   9  18  34  57  84 112 143 184 232 280 335
#     4   9  16  27  47  77 113 149 181 216 262 317
#     4   8  16  30  50  76 107 144 183 226 276 327
#     4  10  20  36  56  81 114 151 190 235 282 334
#     4  10  22  40  60  82 111 147 185 230 286 344
#     4  11  22  35  56  83 111 149 190 230 278 336
#
# _framework density 19.814647999999998
#
# number of rings (size 3 to 8) (size 9 to 14) (size 15 to 20)
#    0.000    2.615    0.000    2.308    1.077    4.308 
#    0.000    2.308    0.000    3.692    0.000    6.462 
#    0.000    0.000    0.000    0.000    0.000    0.000 
#
# Total GULP energy -644530.854551 kJ/mol
# GULP energy per Si atom -12394.824126 kJ/mol
# Density = 1.976955 g / cm^3
# Si number density = 19.814648 Si / 1000 Ang^3
#
#
#
# Elastic Constant Matrix: (Units=GPa)
#
#
# Indices 1 2 3 4 5 6 
#
# 1 121.9870 51.8906 53.4711 0.0000 0.0000 0.0000
# 2 51.8906 85.1241 34.8503 0.0000 0.0000 0.0000
# 3 53.4711 34.8503 80.5471 0.0000 0.0000 0.0000
# 4 0.0000 0.0000 0.0000 23.3132 0.0000 0.0000
# 5 0.0000 0.0000 0.0000 0.0000 31.0480 0.0000
# 6 0.0000 0.0000 0.0000 0.0000 0.0000 27.1825
#
#
#
# Elastic Compliance Matrix: (Units=1/GPa)
#
#
# Indices 1 2 3 4 5 6 
#
# 1 0.013389 -0.005497 -0.006510 0.000000 0.000000 0.000000
# 2 -0.005497 0.016533 -0.003504 0.000000 0.000000 0.000000
# 3 -0.006510 -0.003504 0.018253 0.000000 0.000000 0.000000
# 4 0.000000 0.000000 0.000000 0.042894 0.000000 0.000000
# 5 0.000000 0.000000 0.000000 0.000000 0.032208 0.000000
# 6 0.000000 0.000000 0.000000 0.000000 0.000000 0.036788
#
#
# Mechanical properties :
#
#
# Convention : Reuss Voigt Hill
#
# Bulk Modulus (GPa) = 58.29917 63.12026 60.70971
# Shear Modulus (GPa) = 25.40562 26.13848 25.77205
#
# Velocity S-wave (km/s) = 3.58462 3.63595 3.61037
# Velocity P-wave (km/s) = 6.82779 7.03927 6.93434
#
# Compressibility (1/GPa) = 0.01715290
#
# Stress axis : x y z
#
# Youngs Moduli (GPa) = 74.68554 60.48515 54.78486
#
# Poissons Ratio (x) = 0.33247 0.35667
# Poissons Ratio (y) = 0.41052 0.19199
# Poissons Ratio (z) = 0.48623 0.21196
#
# Static dielectric constant tensor:
#      x y z
#    x 3.553250 0.000000 0.000000 
#    y 0.000000 3.415930 0.000000 
#    z 0.000000 0.000000 3.134410 
# 
# 
# High freq. dielectric constant tensor:
#      x y z
#    x 1.770310 0.000000 0.000000 
#    y 0.000000 1.759750 0.000000 
#    z 0.000000 0.000000 1.758260 
# 
# From -- ./inp_files/65901.got.cif
#   From: 2010.03.12/outbox.cif.g09.slc.cpg/sg65_33_cif.got.tgz:65901.got - 2010.04.10 20:52:16.
