data_PCOD8272298
_publ_section_title
;
Structure prediction by ZEFSAII (Michael W. Deem and Ramdas Pophale) SiO2 
 PCOD8272298
Probable space group: C M M M
;
_chemical_formula_sum "Si O2"
_cell_formula_units_Z 72
_cell_length_a 8.852245
_cell_length_b 18.120688
_cell_length_c 22.991137
_cell_angle_alpha 90.000000
_cell_angle_beta 90.000000
_cell_angle_gamma 90.000000
_cell_volume 3687.980001
_symmetry_space_group_name_H-M "C M M M"
_symmetry_group_IT_number 65
_symmetry_cell_setting 'orthorhombic'
loop_
_space_group_symop_operation_xyz
x,y,z
-x,-y,z
x,-y,-z
-x,y,-z
-x,-y,-z
x,y,-z
-x,y,z
x,-y,z
1/2+x,1/2+y,z
1/2-x,1/2-y,z
1/2+x,1/2-y,-z
1/2-x,1/2+y,-z
1/2-x,1/2-y,-z
1/2+x,1/2+y,-z
1/2-x,1/2+y,z
1/2+x,1/2-y,z
loop_
_atom_site_type_symbol
_atom_site_label
_atom_site_fract_x
_atom_site_fract_y
_atom_site_fract_z
Si Si1 0.678368 0.829610 0.721479
Si Si2 0.670652 0.087826 0.500000
Si Si3 0.176865 0.915451 0.174931
Si Si4 0.672090 0.412332 0.383090
Si Si5 0.823586 0.174367 0.935263
O O1 0.500000 0.821805 0.720696
O O2 0.750000 0.750000 0.713346
O O3 0.728522 0.864882 0.782042
O O4 0.730165 0.881902 0.669511
O O5 0.500000 0.118755 0.500000
O O6 0.757833 0.117494 0.443308
O O7 0.669773 0.000000 0.500000
O O8 0.216622 0.891198 0.109144
O O9 0.000000 0.905076 0.188623
O O10 0.226144 0.000000 0.182464
O O11 0.500000 0.384304 0.378383
O O12 0.679383 0.500000 0.380244
O O13 0.750000 0.250000 0.913036
O O14 0.000000 0.188847 0.936608
O O15 0.764632 0.152811 0.000000
#
# Coordination Sequence:
#
# PCOD8272298 Si02
#       5
#    16   8  16  16  16
#     4  12  25  40  58  80 109 145 186 231 281 335
#     4   9  17  31  54  85 118 151 188 227 269 321
#     4  10  21  37  57  82 112 145 183 229 279 330
#     4  10  20  36  59  86 116 149 186 228 275 327
#     4   9  18  33  54  80 110 146 186 226 271 325
#
# _framework density 19.522881999999999
#
# number of rings (size 3 to 8) (size 9 to 14) (size 15 to 20)
#    0.000    1.889    0.000    4.333    0.000    8.889 
#    0.000    2.778    0.000    0.000    0.000    4.667 
#    0.000    0.000    0.000    0.000    0.000    0.000 
#
# Total GULP energy -446495.401352 kJ/mol
# GULP energy per Si atom -12402.650038 kJ/mol
# Density = 1.947845 g / cm^3
# Si number density = 19.522882 Si / 1000 Ang^3
#
#
#
# Elastic Constant Matrix: (Units=GPa)
#
#
# Indices 1 2 3 4 5 6 
#
# 1 109.6737 26.0499 46.5773 0.0000 0.0000 0.0000
# 2 26.0499 36.3472 18.5208 0.0000 0.0000 0.0000
# 3 46.5773 18.5208 114.3402 0.0000 0.0000 0.0000
# 4 0.0000 0.0000 0.0000 3.8443 0.0000 0.0000
# 5 0.0000 0.0000 0.0000 0.0000 27.4959 0.0000
# 6 0.0000 0.0000 0.0000 0.0000 0.0000 27.3559
#
#
#
# Elastic Compliance Matrix: (Units=1/GPa)
#
#
# Indices 1 2 3 4 5 6 
#
# 1 0.012433 -0.006899 -0.003947 0.000000 0.000000 0.000000
# 2 -0.006899 0.033816 -0.002667 0.000000 0.000000 0.000000
# 3 -0.003947 -0.002667 0.010786 0.000000 0.000000 0.000000
# 4 0.000000 0.000000 0.000000 0.260126 0.000000 0.000000
# 5 0.000000 0.000000 0.000000 0.000000 0.036369 0.000000
# 6 0.000000 0.000000 0.000000 0.000000 0.000000 0.036555
#
#
# Mechanical properties :
#
#
# Convention : Reuss Voigt Hill
#
# Bulk Modulus (GPa) = 33.32462 49.18412 41.25437
# Shear Modulus (GPa) = 11.70646 23.02009 17.36327
#
# Velocity S-wave (km/s) = 2.45139 3.43758 2.98548
# Velocity P-wave (km/s) = 5.01188 6.40341 5.74990
#
# Compressibility (1/GPa) = 0.03000784
#
# Stress axis : x y z
#
# Youngs Moduli (GPa) = 80.43097 29.57162 92.71517
#
# Poissons Ratio (x) = 0.20403 0.36596
# Poissons Ratio (y) = 0.55493 0.24727
# Poissons Ratio (z) = 0.31747 0.07887
#
# Static dielectric constant tensor:
#      x y z
#    x 3.678440 0.000000 0.000000 
#    y 0.000000 3.507420 0.000000 
#    z 0.000000 0.000000 3.883870 
# 
# 
# High freq. dielectric constant tensor:
#      x y z
#    x 1.763470 0.000000 0.000000 
#    y 0.000000 1.743940 0.000000 
#    z 0.000000 0.000000 1.778490 
# 
# From -- ./inp_files/67016.got.cif
#   From: 2010.03.12/outbox.cif.g09.slc.cpg/sg65_34_cif.got.tgz:67016.got - 2010.04.10 20:52:16.
