data_PCOD8272283
_publ_section_title
;
Structure prediction by ZEFSAII (Michael W. Deem and Ramdas Pophale) SiO2 
 PCOD8272283
Probable space group: C M M M
;
_chemical_formula_sum "Si O2"
_cell_formula_units_Z 88
_cell_length_a 8.880430
_cell_length_b 23.252546
_cell_length_c 22.350019
_cell_angle_alpha 90.000000
_cell_angle_beta 90.000000
_cell_angle_gamma 90.000000
_cell_volume 4615.113691
_symmetry_space_group_name_H-M "C M M M"
_symmetry_group_IT_number 65
_symmetry_cell_setting 'orthorhombic'
loop_
_space_group_symop_operation_xyz
x,y,z
-x,-y,z
x,-y,-z
-x,y,-z
-x,-y,-z
x,y,-z
-x,y,z
x,-y,z
1/2+x,1/2+y,z
1/2-x,1/2-y,z
1/2+x,1/2-y,-z
1/2-x,1/2+y,-z
1/2-x,1/2-y,-z
1/2+x,1/2+y,-z
1/2-x,1/2+y,z
1/2+x,1/2-y,z
loop_
_atom_site_type_symbol
_atom_site_label
_atom_site_fract_x
_atom_site_fract_y
_atom_site_fract_z
Si Si1 0.173374 0.882133 0.834954
Si Si2 0.325463 0.688587 0.717508
Si Si3 0.175981 0.309307 0.068653
Si Si4 0.679471 0.500000 0.358530
Si Si5 0.320900 0.500000 0.222032
Si Si6 0.178661 0.616433 0.614995
Si Si7 0.823216 0.688241 0.500000
O O1 0.193373 0.833660 0.784689
O O2 0.265242 0.863034 0.893147
O O3 0.238396 0.943234 0.812073
O O4 0.000000 0.888967 0.853260
O O5 0.500000 0.692379 0.698882
O O6 0.250000 0.750000 0.711027
O O7 0.241154 0.644313 0.675117
O O8 0.250000 0.250000 0.090887
O O9 0.000000 0.302550 0.078229
O O10 0.218842 0.321772 0.000000
O O11 0.500000 0.500000 0.361724
O O12 0.738835 0.500000 0.289979
O O13 0.745457 0.554607 0.393112
O O14 0.500000 0.500000 0.224559
O O15 0.229865 0.654255 0.558636
O O16 0.000000 0.610025 0.618982
O O17 0.750000 0.750000 0.500000
O O18 0.000000 0.696893 0.500000
#
# Coordination Sequence:
#
# PCOD8272283 Si02
#       7
#    16  16  16   8   8  16   8
#     4  10  20  36  59  84 113 150 191 237 287 340
#     4  11  22  36  56  85 118 151 189 242 296 349
#     4  10  21  37  57  83 116 152 192 239 288 341
#     4  11  21  40  64  88 119 154 194 242 292 347
#     4   9  18  37  59  83 115 151 188 234 285 334
#     4  11  23  40  61  87 117 154 197 242 292 349
#     4  10  24  43  62  85 119 156 196 244 293 348
#
# _framework density 19.067786000000002
#
# number of rings (size 3 to 8) (size 9 to 14) (size 15 to 20)
#    0.000    1.636    1.818    3.000    0.000    7.273 
#    0.000    2.727    0.000    2.727    0.000    0.000 
#    0.000    0.000    0.000    0.000    0.000    0.000 
#
# Total GULP energy -545813.157279 kJ/mol
# GULP energy per Si atom -12404.844484 kJ/mol
# Density = 1.902439 g / cm^3
# Si number density = 19.067786 Si / 1000 Ang^3
#
#
#
# Elastic Constant Matrix: (Units=GPa)
#
#
# Indices 1 2 3 4 5 6 
#
# 1 79.6600 49.6961 42.6219 0.0000 0.0000 0.0000
# 2 49.6961 150.6643 48.6739 0.0000 0.0000 0.0000
# 3 42.6219 48.6739 91.8135 0.0000 0.0000 0.0000
# 4 0.0000 0.0000 0.0000 33.8226 0.0000 0.0000
# 5 0.0000 0.0000 0.0000 0.0000 28.5469 0.0000
# 6 0.0000 0.0000 0.0000 0.0000 0.0000 35.1140
#
#
#
# Elastic Compliance Matrix: (Units=1/GPa)
#
#
# Indices 1 2 3 4 5 6 
#
# 1 0.018521 -0.004020 -0.006467 0.000000 0.000000 0.000000
# 2 -0.004020 0.008881 -0.002842 0.000000 0.000000 0.000000
# 3 -0.006467 -0.002842 0.015400 0.000000 0.000000 0.000000
# 4 0.000000 0.000000 0.000000 0.029566 0.000000 0.000000
# 5 0.000000 0.000000 0.000000 0.000000 0.035030 0.000000
# 6 0.000000 0.000000 0.000000 0.000000 0.000000 0.028479
#
#
# Mechanical properties :
#
#
# Convention : Reuss Voigt Hill
#
# Bulk Modulus (GPa) = 61.93834 67.12462 64.53148
# Shear Modulus (GPa) = 29.77645 31.57310 30.67478
#
# Velocity S-wave (km/s) = 3.95601 4.07361 4.01524
# Velocity P-wave (km/s) = 7.30893 7.57663 7.44398
#
# Compressibility (1/GPa) = 0.01614509
#
# Stress axis : x y z
#
# Youngs Moduli (GPa) = 53.99180 112.59394 64.93302
#
# Poissons Ratio (x) = 0.45263 0.41991
# Poissons Ratio (y) = 0.21705 0.18455
# Poissons Ratio (z) = 0.34916 0.32002
#
# Static dielectric constant tensor:
#      x y z
#    x 3.440400 0.000000 0.000000 
#    y 0.000000 3.574100 0.000000 
#    z 0.000000 0.000000 3.504770 
# 
# 
# High freq. dielectric constant tensor:
#      x y z
#    x 1.739460 0.000000 0.000000 
#    y 0.000000 1.751750 0.000000 
#    z 0.000000 0.000000 1.740860 
# 
# From -- ./inp_files/59859.got.cif
#   From: 2010.03.12/outbox.cif.g09.slc.cpg/sg65_30_cif.got.tgz:59859.got - 2010.04.10 20:52:16.
