data_PCOD8272263
_publ_section_title
;
Structure prediction by ZEFSAII (Michael W. Deem and Ramdas Pophale) SiO2 
 PCOD8272263
Probable space group: C M M M
;
_chemical_formula_sum "Si O2"
_cell_formula_units_Z 72
_cell_length_a 9.113005
_cell_length_b 15.863068
_cell_length_c 26.009843
_cell_angle_alpha 90.000000
_cell_angle_beta 90.000000
_cell_angle_gamma 90.000000
_cell_volume 3759.988574
_symmetry_space_group_name_H-M "C M M M"
_symmetry_group_IT_number 65
_symmetry_cell_setting 'orthorhombic'
loop_
_space_group_symop_operation_xyz
x,y,z
-x,-y,z
x,-y,-z
-x,y,-z
-x,-y,-z
x,y,-z
-x,y,z
x,-y,z
1/2+x,1/2+y,z
1/2-x,1/2-y,z
1/2+x,1/2-y,-z
1/2-x,1/2+y,-z
1/2-x,1/2-y,-z
1/2+x,1/2+y,-z
1/2-x,1/2+y,z
1/2+x,1/2-y,z
loop_
_atom_site_type_symbol
_atom_site_label
_atom_site_fract_x
_atom_site_fract_y
_atom_site_fract_z
Si Si1 0.172374 0.335738 0.090173
Si Si2 0.826045 0.000000 0.379756
Si Si3 0.828056 0.165802 0.440803
Si Si4 0.342865 0.592781 0.000000
Si Si5 0.325719 0.000000 0.729358
Si Si6 0.171564 0.336670 0.207659
O O1 0.250000 0.250000 0.074925
O O2 0.208827 0.360465 0.148871
O O3 0.000000 0.329463 0.081093
O O4 0.243630 0.400029 0.050831
O O5 0.774257 0.916565 0.410151
O O6 0.748051 0.000000 0.325562
O O7 0.000000 0.000000 0.372528
O O8 0.784547 0.151163 0.500000
O O9 0.750000 0.250000 0.419042
O O10 0.000000 0.179472 0.434068
O O11 0.400235 0.500000 0.000000
O O12 0.500000 0.645503 0.000000
O O13 0.272623 0.915696 0.758817
O O14 0.500000 0.000000 0.723969
O O15 0.250000 0.250000 0.224929
O O16 0.000000 0.321042 0.215311
#
# Coordination Sequence:
#
# PCOD8272263 Si02
#       6
#    16   8  16   8   8  16
#     4  10  20  36  59  80 103 136 175 217 265 324
#     4  10  21  36  54  80 111 147 186 225 273 327
#     4   9  18  34  56  81 111 147 186 227 271 321
#     4  11  24  37  50  77 113 141 170 213 264 319
#     4  10  22  39  57  80 111 146 183 229 278 323
#     4   9  20  38  60  82 107 140 182 228 274 326
#
# _framework density 19.148993999999998
#
# number of rings (size 3 to 8) (size 9 to 14) (size 15 to 20)
#    0.000    2.333    0.000    1.667    1.556    5.778 
#    0.000    4.444    0.000    3.333    0.000    0.000 
#    0.000    0.000    0.000    0.000    0.000    0.000 
#
# Total GULP energy -446238.445117 kJ/mol
# GULP energy per Si atom -12395.512364 kJ/mol
# Density = 1.910541 g / cm^3
# Si number density = 19.148994 Si / 1000 Ang^3
#
#
#
# Elastic Constant Matrix: (Units=GPa)
#
#
# Indices 1 2 3 4 5 6 
#
# 1 68.4636 52.8812 47.1234 0.0000 0.0000 0.0000
# 2 52.8812 166.9328 86.0905 0.0000 0.0000 0.0000
# 3 47.1234 86.0905 116.5340 0.0000 0.0000 0.0000
# 4 0.0000 0.0000 0.0000 17.9147 0.0000 0.0000
# 5 0.0000 0.0000 0.0000 0.0000 35.9911 0.0000
# 6 0.0000 0.0000 0.0000 0.0000 0.0000 29.3769
#
#
#
# Elastic Compliance Matrix: (Units=1/GPa)
#
#
# Indices 1 2 3 4 5 6 
#
# 1 0.021622 -0.003781 -0.005950 0.000000 0.000000 0.000000
# 2 -0.003781 0.010339 -0.006109 0.000000 0.000000 0.000000
# 3 -0.005950 -0.006109 0.015500 0.000000 0.000000 0.000000
# 4 0.000000 0.000000 0.000000 0.055820 0.000000 0.000000
# 5 0.000000 0.000000 0.000000 0.000000 0.027785 0.000000
# 6 0.000000 0.000000 0.000000 0.000000 0.000000 0.034040
#
#
# Mechanical properties :
#
#
# Convention : Reuss Voigt Hill
#
# Bulk Modulus (GPa) = 63.36706 80.45787 71.91246
# Shear Modulus (GPa) = 24.74676 27.71223 26.22949
#
# Velocity S-wave (km/s) = 3.59879 3.80832 3.70504
# Velocity P-wave (km/s) = 7.10154 7.83873 7.47922
#
# Compressibility (1/GPa) = 0.01578107
#
# Stress axis : x y z
#
# Youngs Moduli (GPa) = 46.24875 96.72515 64.51472
#
# Poissons Ratio (x) = 0.36570 0.38389
# Poissons Ratio (y) = 0.17486 0.39411
# Poissons Ratio (z) = 0.27520 0.59088
#
# Static dielectric constant tensor:
#      x y z
#    x 3.438730 0.000000 0.000000 
#    y 0.000000 3.669410 0.000000 
#    z 0.000000 0.000000 3.486180 
# 
# 
# High freq. dielectric constant tensor:
#      x y z
#    x 1.745160 0.000000 0.000000 
#    y 0.000000 1.750070 0.000000 
#    z 0.000000 0.000000 1.741790 
# 
# From -- ./inp_files/72600.got.cif
#   From: 2010.03.12/outbox.cif.g09.slc.cpg/sg65_37_cif.got.tgz:72600.got - 2010.04.10 20:52:16.
