data_PCOD8272481
_publ_section_title
;
Structure prediction by ZEFSAII (Michael W. Deem and Ramdas Pophale) SiO2 
 PCOD8272481
Probable space group: C M M M
;
_chemical_formula_sum "Si O2"
_cell_formula_units_Z 64
_cell_length_a 18.913380
_cell_length_b 7.503501
_cell_length_c 23.992062
_cell_angle_alpha 90.000000
_cell_angle_beta 90.000000
_cell_angle_gamma 90.000000
_cell_volume 3404.871044
_symmetry_space_group_name_H-M "C M M M"
_symmetry_group_IT_number 65
_symmetry_cell_setting 'orthorhombic'
loop_
_space_group_symop_operation_xyz
x,y,z
-x,-y,z
x,-y,-z
-x,y,-z
-x,-y,-z
x,y,-z
-x,y,z
x,-y,z
1/2+x,1/2+y,z
1/2-x,1/2-y,z
1/2+x,1/2-y,-z
1/2-x,1/2+y,-z
1/2-x,1/2-y,-z
1/2+x,1/2+y,-z
1/2-x,1/2+y,z
1/2+x,1/2-y,z
loop_
_atom_site_type_symbol
_atom_site_label
_atom_site_fract_x
_atom_site_fract_y
_atom_site_fract_z
Si Si1 0.583580 0.500000 0.251771
Si Si2 0.583101 0.795990 0.664216
Si Si3 0.915496 0.000000 0.874195
Si Si4 0.328915 0.794429 0.935107
Si Si5 0.171040 0.708028 0.561232
O O1 0.500000 0.500000 0.249271
O O2 0.609735 0.322508 0.283863
O O3 0.613012 0.500000 0.189205
O O4 0.500000 0.778779 0.655472
O O5 0.618126 0.716847 0.607955
O O6 0.605966 0.000000 0.676058
O O7 0.886295 0.177606 0.902968
O O8 0.000000 0.000000 0.878603
O O9 0.250000 0.750000 0.913829
O O10 0.346669 0.000000 0.923483
O O11 0.334717 0.746297 0.000000
O O12 0.156846 0.795543 0.500000
O O13 0.158559 0.500000 0.556185
O O14 0.250000 0.750000 0.581205
#
# Coordination Sequence:
#
# PCOD8272481 Si02
#       5
#     8  16   8  16  16
#     4   9  20  37  55  77 107 145 183 222 274 320
#     4   9  18  34  55  75  99 135 179 222 264 320
#     4  11  23  38  59  89 123 155 195 247 289 333
#     4  10  20  37  63  89 118 158 194 231 289 351
#     4   9  18  31  49  73 101 133 165 210 275 331
#
# _framework density 18.796600999999999
#
# number of rings (size 3 to 8) (size 9 to 14) (size 15 to 20)
#    0.000    2.500    1.250    0.375    1.750    3.000 
#    0.000    7.500    0.000    2.250    0.000    0.000 
#    0.000    0.000    0.000    0.000    0.000    0.000 
#
# Total GULP energy -396726.352575 kJ/mol
# GULP energy per Si atom -12397.698518 kJ/mol
# Density = 1.875382 g / cm^3
# Si number density = 18.796601 Si / 1000 Ang^3
#
#
#
# Elastic Constant Matrix: (Units=GPa)
#
#
# Indices 1 2 3 4 5 6 
#
# 1 76.6254 40.5424 58.9838 0.0000 0.0000 0.0000
# 2 40.5424 102.3034 65.8235 0.0000 0.0000 0.0000
# 3 58.9838 65.8235 133.0686 0.0000 0.0000 0.0000
# 4 0.0000 0.0000 0.0000 13.8887 0.0000 0.0000
# 5 0.0000 0.0000 0.0000 0.0000 17.0995 0.0000
# 6 0.0000 0.0000 0.0000 0.0000 0.0000 27.5781
#
#
#
# Elastic Compliance Matrix: (Units=1/GPa)
#
#
# Indices 1 2 3 4 5 6 
#
# 1 0.020564 -0.003351 -0.007458 0.000000 0.000000 0.000000
# 2 -0.003351 0.014884 -0.005877 0.000000 0.000000 0.000000
# 3 -0.007458 -0.005877 0.013728 0.000000 0.000000 0.000000
# 4 0.000000 0.000000 0.000000 0.072001 0.000000 0.000000
# 5 0.000000 0.000000 0.000000 0.000000 0.058481 0.000000
# 6 0.000000 0.000000 0.000000 0.000000 0.000000 0.036261
#
#
# Mechanical properties :
#
#
# Convention : Reuss Voigt Hill
#
# Bulk Modulus (GPa) = 63.27359 71.41073 67.34216
# Shear Modulus (GPa) = 19.64178 21.48977 20.56577
#
# Velocity S-wave (km/s) = 3.23610 3.38491 3.31134
# Velocity P-wave (km/s) = 6.90641 7.30415 7.10806
#
# Compressibility (1/GPa) = 0.01580438
#
# Stress axis : x y z
#
# Youngs Moduli (GPa) = 48.62810 67.18428 72.84492
#
# Poissons Ratio (x) = 0.22515 0.54325
# Poissons Ratio (y) = 0.16296 0.42813
# Poissons Ratio (z) = 0.36265 0.39486
#
# Static dielectric constant tensor:
#      x y z
#    x 3.213490 0.000000 0.000000 
#    y 0.000000 3.553900 0.000000 
#    z 0.000000 0.000000 3.789980 
# 
# 
# High freq. dielectric constant tensor:
#      x y z
#    x 1.711020 0.000000 0.000000 
#    y 0.000000 1.738620 0.000000 
#    z 0.000000 0.000000 1.727650 
# 
# From -- ./inp_files/63270.got.cif
#   From: 2010.03.12/outbox.cif.g09.slc.cpg/sg65_32_cif.got.tgz:63270.got - 2010.04.10 20:52:16.
