data_PCOD8272744
_publ_section_title
;
Structure prediction by ZEFSAII (Michael W. Deem and Ramdas Pophale) SiO2 
 PCOD8272744
Probable space group: C M M M
;
_chemical_formula_sum "Si O2"
_cell_formula_units_Z 112
_cell_length_a 26.587550
_cell_length_b 13.563945
_cell_length_c 15.990337
_cell_angle_alpha 90.000000
_cell_angle_beta 90.000000
_cell_angle_gamma 90.000000
_cell_volume 5766.628267
_symmetry_space_group_name_H-M "C M M M"
_symmetry_group_IT_number 65
_symmetry_cell_setting 'orthorhombic'
loop_
_space_group_symop_operation_xyz
x,y,z
-x,-y,z
x,-y,-z
-x,y,-z
-x,-y,-z
x,y,-z
-x,y,z
x,-y,z
1/2+x,1/2+y,z
1/2-x,1/2-y,z
1/2+x,1/2-y,-z
1/2-x,1/2+y,-z
1/2-x,1/2-y,-z
1/2+x,1/2+y,-z
1/2-x,1/2+y,z
1/2+x,1/2-y,z
loop_
_atom_site_type_symbol
_atom_site_label
_atom_site_fract_x
_atom_site_fract_y
_atom_site_fract_z
Si Si1 0.718089 0.888391 0.405336
Si Si2 0.382905 0.882995 0.090722
Si Si3 0.554451 0.392461 0.403134
Si Si4 0.706387 0.615454 0.747737
Si Si5 0.228925 0.616338 0.905761
Si Si6 0.943501 0.616678 0.755080
Si Si7 0.366327 0.753206 0.337360
O O1 0.740044 0.875468 0.500000
O O2 0.760169 0.868183 0.335429
O O3 0.674007 0.809309 0.394256
O O4 0.697467 0.000000 0.393567
O O5 0.327154 0.844855 0.116182
O O6 0.426188 0.847519 0.153154
O O7 0.380745 0.000000 0.088229
O O8 0.397422 0.840474 0.000000
O O9 0.547463 0.406217 0.500000
O O10 0.500000 0.354843 0.366557
O O11 0.566949 0.500000 0.363224
O O12 0.600682 0.320218 0.391326
O O13 0.691028 0.500000 0.755661
O O14 0.733925 0.653793 0.832557
O O15 0.658629 0.687462 0.736655
O O16 0.228911 0.500000 0.903652
O O17 0.245187 0.651782 0.000000
O O18 0.940575 0.500000 0.745078
O O19 0.904028 0.662759 0.692542
O O20 0.000000 0.654885 0.739069
#
# Coordination Sequence:
#
# PCOD8272744 Si02
#       7
#    16  16  16  16  16  16  16
#     4  10  22  38  54  75 106 142 177 213 253 301
#     4   8  14  27  49  73  96 128 170 212 254 300
#     4   9  19  36  56  77 100 127 165 217 271 314
#     4  10  21  35  52  77 108 140 175 214 256 306
#     4   8  14  28  51  76 103 136 171 208 252 302
#     4  10  21  35  51  73 101 133 169 211 259 308
#     4  12  21  33  53  77 104 136 173 210 254 309
#
# _framework density 19.422094999999999
#
# number of rings (size 3 to 8) (size 9 to 14) (size 15 to 20)
#    0.000    2.429    0.000    4.286    0.000    4.286 
#    0.000    3.571    0.000    3.429    0.000    6.000 
#    0.000    0.000    0.000   12.857    0.000    2.571 
#
# Total GULP energy -693739.930661 kJ/mol
# GULP energy per Si atom -12388.213048 kJ/mol
# Density = 1.937789 g / cm^3
# Si number density = 19.422095 Si / 1000 Ang^3
#
#
#
# Elastic Constant Matrix: (Units=GPa)
#
#
# Indices 1 2 3 4 5 6 
#
# 1 82.3407 36.7324 33.7872 0.0000 0.0000 0.0000
# 2 36.7324 66.0262 14.3348 0.0000 0.0000 0.0000
# 3 33.7872 14.3348 95.5058 0.0000 0.0000 0.0000
# 4 0.0000 0.0000 0.0000 -13.7851 0.0000 0.0000
# 5 0.0000 0.0000 0.0000 0.0000 22.3045 0.0000
# 6 0.0000 0.0000 0.0000 0.0000 0.0000 33.5587
#
#
#
# Elastic Compliance Matrix: (Units=1/GPa)
#
#
# Indices 1 2 3 4 5 6 
#
# 1 0.018284 -0.009063 -0.005108 0.000000 0.000000 0.000000
# 2 -0.009063 0.020148 0.000182 0.000000 0.000000 0.000000
# 3 -0.005108 0.000182 0.012250 0.000000 0.000000 0.000000
# 4 0.000000 0.000000 0.000000 -0.072542 0.000000 0.000000
# 5 0.000000 0.000000 0.000000 0.000000 0.044834 0.000000
# 6 0.000000 0.000000 0.000000 0.000000 0.000000 0.029799
#
#
# Mechanical properties :
#
#
# Convention : Reuss Voigt Hill
#
# Bulk Modulus (GPa) = 44.04416 45.95350 44.99883
# Shear Modulus (GPa) = 56.61424 19.01686 37.81555
#
# Velocity S-wave (km/s) = 5.40488 3.13251 4.41731
# Velocity P-wave (km/s) = 7.85346 6.06591 7.01684
#
# Compressibility (1/GPa) = 0.02270449
#
# Stress axis : x y z
#
# Youngs Moduli (GPa) = 54.69408 49.63313 81.63084
#
# Poissons Ratio (x) = 0.44981 0.41696
# Poissons Ratio (y) = 0.49568 -0.01486
# Poissons Ratio (z) = 0.27937 -0.00904
#
# Static dielectric constant tensor:
#      x y z
#    x 3.634160 0.000000 0.000000 
#    y 0.000000 3.580660 0.000000 
#    z 0.000000 0.000000 3.730750 
# 
# 
# High freq. dielectric constant tensor:
#      x y z
#    x 1.745340 0.000000 0.000000 
#    y 0.000000 1.752680 0.000000 
#    z 0.000000 0.000000 1.748670 
# 
# From -- ./inp_files/47071.got.cif
#   From: 2010.03.12/outbox.cif.g09.slc.cpg/sg65_24_cif.got.tgz:47071.got - 2010.04.10 20:52:16.
