data_PCOD8272958
_publ_section_title
;
Structure prediction by ZEFSAII (Michael W. Deem and Ramdas Pophale) SiO2 
 PCOD8272958
Probable space group: C M M M
;
_chemical_formula_sum "Si O2"
_cell_formula_units_Z 104
_cell_length_a 8.932117
_cell_length_b 19.657356
_cell_length_c 32.403886
_cell_angle_alpha 90.000000
_cell_angle_beta 90.000000
_cell_angle_gamma 90.000000
_cell_volume 5689.532751
_symmetry_space_group_name_H-M "C M M M"
_symmetry_group_IT_number 65
_symmetry_cell_setting 'orthorhombic'
loop_
_space_group_symop_operation_xyz
x,y,z
-x,-y,z
x,-y,-z
-x,y,-z
-x,-y,-z
x,y,-z
-x,y,z
x,-y,z
1/2+x,1/2+y,z
1/2-x,1/2-y,z
1/2+x,1/2-y,-z
1/2-x,1/2+y,-z
1/2-x,1/2-y,-z
1/2+x,1/2+y,-z
1/2-x,1/2+y,z
1/2+x,1/2-y,z
loop_
_atom_site_type_symbol
_atom_site_label
_atom_site_fract_x
_atom_site_fract_y
_atom_site_fract_z
Si Si1 0.175586 0.079921 0.589065
Si Si2 0.174418 0.319011 0.649728
Si Si3 0.174102 0.420576 0.891240
Si Si4 0.325960 0.579571 0.806556
Si Si5 0.326168 0.680352 0.951686
Si Si6 0.324251 0.819785 0.254780
Si Si7 0.673789 0.579241 0.500000
O O1 0.265447 0.117015 0.624703
O O2 0.236402 0.107246 0.543932
O O3 0.000000 0.095336 0.593781
O O4 0.206680 0.000000 0.593601
O O5 0.250000 0.250000 0.633511
O O6 0.213778 0.331729 0.697391
O O7 0.000000 0.311402 0.642279
O O8 0.201366 0.500000 0.898768
O O9 0.252486 0.396063 0.849250
O O10 0.248255 0.382595 0.929489
O O11 0.000000 0.402391 0.888384
O O12 0.500000 0.598393 0.807644
O O13 0.298986 0.500000 0.799479
O O14 0.246222 0.617174 0.769071
O O15 0.500000 0.683218 0.940034
O O16 0.250000 0.750000 0.936578
O O17 0.300433 0.669247 0.000000
O O18 0.500000 0.816004 0.246302
O O19 0.250000 0.750000 0.238933
O O20 0.704592 0.500000 0.500000
O O21 0.500000 0.594683 0.500000
#
# Coordination Sequence:
#
# PCOD8272958 Si02
#       7
#    16  16  16  16  16  16   8
#     4   9  17  31  53  78 103 133 170 211 255 306
#     4  10  21  36  53  74 103 137 172 213 259 307
#     4  10  21  37  57  81 110 143 178 217 262 312
#     4  10  21  37  57  81 109 139 173 215 260 308
#     4  10  21  37  57  81 110 143 180 223 267 311
#     4  10  21  37  56  77 103 136 174 215 259 309
#     4   7  12  26  48  73 100 131 167 207 252 301
#
# _framework density 18.279181999999999
#
# number of rings (size 3 to 8) (size 9 to 14) (size 15 to 20)
#    0.000    2.385    0.000    3.231    0.000    6.462 
#    0.000    8.462    0.000    1.385    0.000    0.000 
#    0.000    0.000    0.000    0.000    0.000    0.000 
#
# Total GULP energy -644771.008027 kJ/mol
# GULP energy per Si atom -12399.442462 kJ/mol
# Density = 1.823758 g / cm^3
# Si number density = 18.279182 Si / 1000 Ang^3
#
#
#
# Elastic Constant Matrix: (Units=GPa)
#
#
# Indices 1 2 3 4 5 6 
#
# 1 108.1328 51.9307 60.0793 0.0000 0.0000 0.0000
# 2 51.9307 74.0679 57.6632 0.0000 0.0000 0.0000
# 3 60.0793 57.6632 91.2177 0.0000 0.0000 0.0000
# 4 0.0000 0.0000 0.0000 18.1947 0.0000 0.0000
# 5 0.0000 0.0000 0.0000 0.0000 30.9320 0.0000
# 6 0.0000 0.0000 0.0000 0.0000 0.0000 35.7421
#
#
#
# Elastic Compliance Matrix: (Units=1/GPa)
#
#
# Indices 1 2 3 4 5 6 
#
# 1 0.015776 -0.005851 -0.006692 0.000000 0.000000 0.000000
# 2 -0.005851 0.028754 -0.014323 0.000000 0.000000 0.000000
# 3 -0.006692 -0.014323 0.024425 0.000000 0.000000 0.000000
# 4 0.000000 0.000000 0.000000 0.054961 0.000000 0.000000
# 5 0.000000 0.000000 0.000000 0.000000 0.032329 0.000000
# 6 0.000000 0.000000 0.000000 0.000000 0.000000 0.027978
#
#
# Mechanical properties :
#
#
# Convention : Reuss Voigt Hill
#
# Bulk Modulus (GPa) = 65.69203 68.08499 66.88851
# Shear Modulus (GPa) = 20.57359 23.89011 22.23185
#
# Velocity S-wave (km/s) = 3.35852 3.61911 3.49124
# Velocity P-wave (km/s) = 7.14533 7.40217 7.27488
#
# Compressibility (1/GPa) = 0.01522255
#
# Stress axis : x y z
#
# Youngs Moduli (GPa) = 63.38786 34.77717 40.94212
#
# Poissons Ratio (x) = 0.20349 0.27398
# Poissons Ratio (y) = 0.37089 0.58643
# Poissons Ratio (z) = 0.42418 0.49813
#
# Static dielectric constant tensor:
#      x y z
#    x 3.419390 0.000000 0.000000 
#    y 0.000000 3.244220 0.000000 
#    z 0.000000 0.000000 3.512160 
# 
# 
# High freq. dielectric constant tensor:
#      x y z
#    x 1.713810 0.000000 0.000000 
#    y 0.000000 1.699410 0.000000 
#    z 0.000000 0.000000 1.716550 
# 
# From -- ./inp_files/73315.got.cif
#   From: 2010.03.12/outbox.cif.g09.slc.cpg/sg65_37_cif.got.tgz:73315.got - 2010.04.10 20:52:16.
