data_PCOD8272537
_publ_section_title
;
Structure prediction by ZEFSAII (Michael W. Deem and Ramdas Pophale) SiO2 
 PCOD8272537
Probable space group: C M M M
;
_chemical_formula_sum "Si O2"
_cell_formula_units_Z 88
_cell_length_a 7.872092
_cell_length_b 18.715423
_cell_length_c 29.879276
_cell_angle_alpha 90.000000
_cell_angle_beta 90.000000
_cell_angle_gamma 90.000000
_cell_volume 4402.099740
_symmetry_space_group_name_H-M "C M M M"
_symmetry_group_IT_number 65
_symmetry_cell_setting 'orthorhombic'
loop_
_space_group_symop_operation_xyz
x,y,z
-x,-y,z
x,-y,-z
-x,y,-z
-x,-y,-z
x,y,-z
-x,y,z
x,-y,z
1/2+x,1/2+y,z
1/2-x,1/2-y,z
1/2+x,1/2-y,-z
1/2-x,1/2+y,-z
1/2-x,1/2-y,-z
1/2+x,1/2+y,-z
1/2-x,1/2+y,z
1/2+x,1/2-y,z
loop_
_atom_site_type_symbol
_atom_site_label
_atom_site_fract_x
_atom_site_fract_y
_atom_site_fract_z
Si Si1 0.300264 0.333154 0.400849
Si Si2 0.000000 0.417583 0.447132
Si Si3 0.305743 0.330062 0.301748
Si Si4 0.799205 0.170880 0.950452
Si Si5 0.694921 0.422052 0.129001
Si Si6 0.809301 0.331605 0.209057
O O1 0.500000 0.342151 0.414817
O O2 0.250000 0.250000 0.404817
O O3 0.274220 0.365179 0.350382
O O4 0.173491 0.379338 0.431100
O O5 0.000000 0.500000 0.430998
O O6 0.000000 0.412587 0.500000
O O7 0.500000 0.333630 0.287231
O O8 0.250000 0.250000 0.309012
O O9 0.205075 0.364221 0.259634
O O10 0.750000 0.250000 0.935492
O O11 0.718256 0.118425 0.913137
O O12 0.000000 0.164046 0.951393
O O13 0.724840 0.153197 0.000000
O O14 0.500000 0.432486 0.116920
O O15 0.781873 0.500000 0.134926
O O16 0.701286 0.377805 0.174768
O O17 0.750000 0.250000 0.209668
O O18 0.000000 0.336213 0.191994
#
# Coordination Sequence:
#
# PCOD8272537 Si02
#       6
#    16   8  16  16  16  16
#     4  10  20  38  66  97 125 161 209 265 313 369
#     4  11  26  44  62  90 131 173 211 259 319 377
#     4   9  17  30  55  87 116 144 185 236 290 337
#     4   9  18  33  54  78 100 128 170 218 269 326
#     4  10  21  36  52  72 105 143 178 222 272 323
#     4  11  21  33  54  81 109 144 183 226 273 331
#
# _framework density 19.990461
#
# number of rings (size 3 to 8) (size 9 to 14) (size 15 to 20)
#    0.000    2.091    0.909    3.818    2.545    4.000 
#    0.000    3.636    0.000    1.091    0.000    3.818 
#    0.000    0.000    0.000    0.000    0.000    0.000 
#
# Total GULP energy -545180.565687 kJ/mol
# GULP energy per Si atom -12390.467402 kJ/mol
# Density = 1.994496 g / cm^3
# Si number density = 19.990461 Si / 1000 Ang^3
#
#
#
# Elastic Constant Matrix: (Units=GPa)
#
#
# Indices 1 2 3 4 5 6 
#
# 1 82.3384 31.4036 31.4016 0.0000 0.0000 0.0000
# 2 31.4036 107.9593 67.0382 0.0000 0.0000 0.0000
# 3 31.4016 67.0382 126.9432 0.0000 0.0000 0.0000
# 4 0.0000 0.0000 0.0000 3.6668 0.0000 0.0000
# 5 0.0000 0.0000 0.0000 0.0000 18.9222 0.0000
# 6 0.0000 0.0000 0.0000 0.0000 0.0000 19.4301
#
#
#
# Elastic Compliance Matrix: (Units=1/GPa)
#
#
# Indices 1 2 3 4 5 6 
#
# 1 0.013978 -0.002855 -0.001950 0.000000 0.000000 0.000000
# 2 -0.002855 0.014366 -0.006880 0.000000 0.000000 0.000000
# 3 -0.001950 -0.006880 0.011993 0.000000 0.000000 0.000000
# 4 0.000000 0.000000 0.000000 0.272721 0.000000 0.000000
# 5 0.000000 0.000000 0.000000 0.000000 0.052848 0.000000
# 6 0.000000 0.000000 0.000000 0.000000 0.000000 0.051467
#
#
# Mechanical properties :
#
#
# Convention : Reuss Voigt Hill
#
# Bulk Modulus (GPa) = 58.94060 64.10305 61.52183
# Shear Modulus (GPa) = 11.20079 20.89697 16.04888
#
# Velocity S-wave (km/s) = 2.36965 3.23669 2.83649
# Velocity P-wave (km/s) = 6.08567 6.79004 6.44748
#
# Compressibility (1/GPa) = 0.01696623
#
# Stress axis : x y z
#
# Youngs Moduli (GPa) = 71.54338 69.61121 83.38039
#
# Poissons Ratio (x) = 0.19874 0.16258
# Poissons Ratio (y) = 0.20426 0.57367
# Poissons Ratio (z) = 0.13950 0.47893
#
# Static dielectric constant tensor:
#      x y z
#    x 3.595190 0.000000 0.000000 
#    y 0.000000 3.537160 0.000000 
#    z 0.000000 0.000000 4.027710 
# 
# 
# High freq. dielectric constant tensor:
#      x y z
#    x 1.779560 0.000000 0.000000 
#    y 0.000000 1.745160 0.000000 
#    z 0.000000 0.000000 1.794630 
# 
# From -- ./inp_files/76603.got.cif
#   From: 2010.03.12/outbox.cif.g09.slc.cpg/sg65_39_cif.got.tgz:76603.got - 2010.04.10 20:52:16.
