data_PCOD8272308
_publ_section_title
;
Structure prediction by ZEFSAII (Michael W. Deem and Ramdas Pophale) SiO2 
 PCOD8272308
Probable space group: C M M M
;
_chemical_formula_sum "Si O2"
_cell_formula_units_Z 56
_cell_length_a 17.050384
_cell_length_b 22.037987
_cell_length_c 7.462503
_cell_angle_alpha 90.000000
_cell_angle_beta 90.000000
_cell_angle_gamma 90.000000
_cell_volume 2804.081329
_symmetry_space_group_name_H-M "C M M M"
_symmetry_group_IT_number 65
_symmetry_cell_setting 'orthorhombic'
loop_
_space_group_symop_operation_xyz
x,y,z
-x,-y,z
x,-y,-z
-x,y,-z
-x,-y,-z
x,y,-z
-x,y,z
x,-y,z
1/2+x,1/2+y,z
1/2-x,1/2-y,z
1/2+x,1/2-y,-z
1/2-x,1/2+y,-z
1/2-x,1/2-y,-z
1/2+x,1/2+y,-z
1/2-x,1/2+y,z
1/2+x,1/2-y,z
loop_
_atom_site_type_symbol
_atom_site_label
_atom_site_fract_x
_atom_site_fract_y
_atom_site_fract_z
Si Si1 0.500000 0.932177 0.712595
Si Si2 0.263008 0.428125 0.000000
Si Si3 0.409852 0.645928 0.000000
Si Si4 0.842994 0.630303 0.290467
Si Si5 0.589631 0.257661 0.297130
O O1 0.500000 0.929640 0.500000
O O2 0.422392 0.899744 0.784286
O O3 0.500000 0.000000 0.787971
O O4 0.355807 0.413670 0.000000
O O5 0.227865 0.397688 0.178302
O O6 0.249642 0.500000 0.000000
O O7 0.389384 0.685891 0.826570
O O8 0.500000 0.624393 0.000000
O O9 0.828664 0.616025 0.500000
O O10 0.851254 0.702306 0.256632
O O11 0.600834 0.280099 0.500000
O O12 0.500000 0.235427 0.265071
#
# Coordination Sequence:
#
# PCOD8272308 Si02
#       5
#     8   8   8  16  16
#     4   9  16  29  51  79 116 163 195 207 244 319
#     4  12  27  41  55  81 114 152 201 247 287 332
#     4  10  23  42  62  82 107 145 193 250 305 348
#     4  10  20  36  59  87 121 156 187 226 275 334
#     4   9  17  34  62  92 119 147 183 229 283 345
#
# _framework density 19.970890000000001
#
# number of rings (size 3 to 8) (size 9 to 14) (size 15 to 20)
#    0.000    2.143    1.429    1.714    0.000    6.000 
#    0.000    4.286    0.000    0.000    0.000    6.000 
#    0.000    0.000    0.000    0.000    0.000    0.000 
#
# Total GULP energy -347214.458642 kJ/mol
# GULP energy per Si atom -12400.516380 kJ/mol
# Density = 1.992544 g / cm^3
# Si number density = 19.970890 Si / 1000 Ang^3
#
#
#
# Elastic Constant Matrix: (Units=GPa)
#
#
# Indices 1 2 3 4 5 6 
#
# 1 100.6393 39.1310 36.7861 0.0000 0.0000 0.0000
# 2 39.1310 55.9469 30.6878 0.0000 0.0000 0.0000
# 3 36.7861 30.6878 96.0410 0.0000 0.0000 0.0000
# 4 0.0000 0.0000 0.0000 14.9142 0.0000 0.0000
# 5 0.0000 0.0000 0.0000 0.0000 21.4962 0.0000
# 6 0.0000 0.0000 0.0000 0.0000 0.0000 33.5287
#
#
#
# Elastic Compliance Matrix: (Units=1/GPa)
#
#
# Indices 1 2 3 4 5 6 
#
# 1 0.014224 -0.008439 -0.002751 0.000000 0.000000 0.000000
# 2 -0.008439 0.026680 -0.005293 0.000000 0.000000 0.000000
# 3 -0.002751 -0.005293 0.013157 0.000000 0.000000 0.000000
# 4 0.000000 0.000000 0.000000 0.067050 0.000000 0.000000
# 5 0.000000 0.000000 0.000000 0.000000 0.046520 0.000000
# 6 0.000000 0.000000 0.000000 0.000000 0.000000 0.029825
#
#
# Mechanical properties :
#
#
# Convention : Reuss Voigt Hill
#
# Bulk Modulus (GPa) = 47.40627 51.75965 49.58296
# Shear Modulus (GPa) = 21.05678 23.72265 22.38971
#
# Velocity S-wave (km/s) = 3.25063 3.45028 3.35194
# Velocity P-wave (km/s) = 6.15451 6.46888 6.31365
#
# Compressibility (1/GPa) = 0.02109425
#
# Stress axis : x y z
#
# Youngs Moduli (GPa) = 70.30598 37.48164 76.00416
#
# Poissons Ratio (x) = 0.31631 0.20912
# Poissons Ratio (y) = 0.59332 0.40225
# Poissons Ratio (z) = 0.19344 0.19837
#
# Static dielectric constant tensor:
#      x y z
#    x 3.482290 0.000000 0.000000 
#    y 0.000000 3.420510 0.000000 
#    z 0.000000 0.000000 3.639600 
# 
# 
# High freq. dielectric constant tensor:
#      x y z
#    x 1.764120 0.000000 0.000000 
#    y 0.000000 1.759340 0.000000 
#    z 0.000000 0.000000 1.785250 
# 
# From -- ./inp_files/6300.got.cif
#   From: 2010.03.12/outbox.cif.g09.slc.cpg/sg65_4_cif.got.tgz:6300.got - 2010.04.10 20:52:16.
