data_PCOD8272722
_publ_section_title
;
Structure prediction by ZEFSAII (Michael W. Deem and Ramdas Pophale) SiO2 
 PCOD8272722
Probable space group: C M M M
;
_chemical_formula_sum "Si O2"
_cell_formula_units_Z 72
_cell_length_a 18.226498
_cell_length_b 9.317493
_cell_length_c 23.367100
_cell_angle_alpha 90.000000
_cell_angle_beta 90.000000
_cell_angle_gamma 90.000000
_cell_volume 3968.324009
_symmetry_space_group_name_H-M "C M M M"
_symmetry_group_IT_number 65
_symmetry_cell_setting 'orthorhombic'
loop_
_space_group_symop_operation_xyz
x,y,z
-x,-y,z
x,-y,-z
-x,y,-z
-x,-y,-z
x,y,-z
-x,y,z
x,-y,z
1/2+x,1/2+y,z
1/2-x,1/2-y,z
1/2+x,1/2-y,-z
1/2-x,1/2+y,-z
1/2-x,1/2-y,-z
1/2+x,1/2+y,-z
1/2-x,1/2+y,z
1/2+x,1/2-y,z
loop_
_atom_site_type_symbol
_atom_site_label
_atom_site_fract_x
_atom_site_fract_y
_atom_site_fract_z
Si Si1 0.914871 0.333759 0.611576
Si Si2 0.412375 0.161820 0.830171
Si Si3 0.912748 0.838808 0.936725
Si Si4 0.412641 0.662262 0.721649
Si Si5 0.674331 0.168298 0.500000
O O1 0.902137 0.500000 0.626629
O O2 0.884548 0.240582 0.664418
O O3 0.871352 0.285268 0.555527
O O4 0.000000 0.302723 0.599705
O O5 0.500000 0.162679 0.830111
O O6 0.381152 0.231955 0.888617
O O7 0.381894 0.252645 0.776596
O O8 0.382321 0.000000 0.825815
O O9 0.000000 0.837842 0.934416
O O10 0.884546 0.000000 0.924115
O O11 0.886387 0.788655 0.000000
O O12 0.500000 0.663204 0.723019
O O13 0.382205 0.500000 0.722827
O O14 0.750000 0.250000 0.500000
O O15 0.689764 0.000000 0.500000
#
# Coordination Sequence:
#
# PCOD8272722 Si02
#       5
#    16  16  16  16   8
#     4   9  17  31  50  69  89 115 149 185 220 260
#     4   9  15  21  30  45  66  93 126 166 210 254
#     4   8  13  20  28  38  56  86 124 165 208 252
#     4   9  16  25  38  57  79 102 131 171 218 261
#     4  10  21  35  51  71  95 122 148 178 218 264
#
# _framework density 18.14368
#
# number of rings (size 3 to 8) (size 9 to 14) (size 15 to 20)
#    0.000    3.111    0.000    2.333    0.000    8.000 
#    0.000    2.222    0.000    3.333    0.000    0.000 
#    0.000    0.000    0.000    0.000    0.000    1.111 
#
# Total GULP energy -446285.109294 kJ/mol
# GULP energy per Si atom -12396.808592 kJ/mol
# Density = 1.810238 g / cm^3
# Si number density = 18.143680 Si / 1000 Ang^3
#
#
#
# Elastic Constant Matrix: (Units=GPa)
#
#
# Indices 1 2 3 4 5 6 
#
# 1 23.4253 22.3365 29.8084 0.0000 0.0000 0.0000
# 2 22.3365 139.5333 110.0928 0.0000 0.0000 0.0000
# 3 29.8084 110.0928 202.4090 0.0000 0.0000 0.0000
# 4 0.0000 0.0000 0.0000 39.9239 0.0000 0.0000
# 5 0.0000 0.0000 0.0000 0.0000 -0.0670 0.0000
# 6 0.0000 0.0000 0.0000 0.0000 0.0000 12.2677
#
#
#
# Elastic Compliance Matrix: (Units=1/GPa)
#
#
# Indices 1 2 3 4 5 6 
#
# 1 0.053866 -0.004141 -0.005680 0.000000 0.000000 0.000000
# 2 -0.004141 0.012873 -0.006392 0.000000 0.000000 0.000000
# 3 -0.005680 -0.006392 0.009254 0.000000 0.000000 0.000000
# 4 0.000000 0.000000 0.000000 0.025048 0.000000 0.000000
# 5 0.000000 0.000000 0.000000 0.000000-14.923232 0.000000
# 6 0.000000 0.000000 0.000000 0.000000 0.000000 0.081515
#
#
# Mechanical properties :
#
#
# Convention : Reuss Voigt Hill
#
# Bulk Modulus (GPa) = 22.95381 76.64921 49.80151
# Shear Modulus (GPa) = -0.34028 23.96693 11.81332
#
# Velocity S-wave (km/s) = -0.43354 3.63843 2.55443
# Velocity P-wave (km/s) = 3.52534 7.74521 6.01732
#
# Compressibility (1/GPa) = 0.04356576
#
# Stress axis : x y z
#
# Youngs Moduli (GPa) = 18.56470 77.68274 108.06550
#
# Poissons Ratio (x) = 0.32168 0.61385
# Poissons Ratio (y) = 0.07688 0.69074
# Poissons Ratio (z) = 0.10545 0.49654
#
# Static dielectric constant tensor:
#      x y z
#    x 2.564610 0.000000 0.000000 
#    y 0.000000 3.502400 0.000000 
#    z 0.000000 0.000000 3.685420 
# 
# 
# High freq. dielectric constant tensor:
#      x y z
#    x 1.615810 0.000000 0.000000 
#    y 0.000000 1.708180 0.000000 
#    z 0.000000 0.000000 1.723860 
# 
# From -- ./inp_files/67125.got.cif
#   From: 2010.03.12/outbox.cif.g09.slc.cpg/sg65_34_cif.got.tgz:67125.got - 2010.04.10 20:52:16.
