data_PCOD8272244
_publ_section_title
;
Structure prediction by ZEFSAII (Michael W. Deem and Ramdas Pophale) SiO2 
 PCOD8272244
Probable space group: C M M M
;
_chemical_formula_sum "Si O2"
_cell_formula_units_Z 72
_cell_length_a 18.993059
_cell_length_b 8.688559
_cell_length_c 22.566101
_cell_angle_alpha 90.000000
_cell_angle_beta 90.000000
_cell_angle_gamma 90.000000
_cell_volume 3723.910198
_symmetry_space_group_name_H-M "C M M M"
_symmetry_group_IT_number 65
_symmetry_cell_setting 'orthorhombic'
loop_
_space_group_symop_operation_xyz
x,y,z
-x,-y,z
x,-y,-z
-x,y,-z
-x,-y,-z
x,y,-z
-x,y,z
x,-y,z
1/2+x,1/2+y,z
1/2-x,1/2-y,z
1/2+x,1/2-y,-z
1/2-x,1/2+y,-z
1/2-x,1/2-y,-z
1/2+x,1/2+y,-z
1/2-x,1/2+y,z
1/2+x,1/2-y,z
loop_
_atom_site_type_symbol
_atom_site_label
_atom_site_fract_x
_atom_site_fract_y
_atom_site_fract_z
Si Si1 0.325630 0.182829 0.898160
Si Si2 0.419501 0.320535 0.662375
Si Si3 0.176086 0.818181 0.228105
Si Si4 0.177392 0.319341 0.432996
Si Si5 0.082844 0.820284 0.000000
O O1 0.250000 0.250000 0.917284
O O2 0.347163 0.239419 0.832967
O O3 0.321374 0.000000 0.899970
O O4 0.385345 0.241957 0.941971
O O5 0.500000 0.270190 0.668865
O O6 0.410974 0.500000 0.649581
O O7 0.381647 0.274371 0.723258
O O8 0.387628 0.231459 0.606850
O O9 0.250000 0.750000 0.250364
O O10 0.183252 0.000000 0.218135
O O11 0.163858 0.260461 0.500000
O O12 0.184857 0.500000 0.430834
O O13 0.250000 0.250000 0.407685
O O14 0.000000 0.790003 0.000000
O O15 0.101140 0.000000 0.000000
#
# Coordination Sequence:
#
# PCOD8272244 Si02
#       5
#    16  16  16  16   8
#     4  11  22  38  61  87 115 147 188 233 277 328
#     4  10  22  38  56  81 114 151 187 226 276 333
#     4  10  20  36  58  83 111 145 188 233 278 328
#     4  10  21  37  58  83 110 143 185 232 280 331
#     4  11  24  41  60  83 115 153 188 227 280 335
#
# _framework density 19.334516000000001
#
# number of rings (size 3 to 8) (size 9 to 14) (size 15 to 20)
#    0.000    1.667    0.000    6.000    0.000    7.556 
#    0.000    4.444    0.000    0.000    0.000    0.000 
#    0.000    0.000    0.000    0.000    0.000    0.000 
#
# Total GULP energy -446586.361931 kJ/mol
# GULP energy per Si atom -12405.176720 kJ/mol
# Density = 1.929051 g / cm^3
# Si number density = 19.334516 Si / 1000 Ang^3
#
#
#
# Elastic Constant Matrix: (Units=GPa)
#
#
# Indices 1 2 3 4 5 6 
#
# 1 142.8162 63.8989 90.1995 0.0000 0.0000 0.0000
# 2 63.8989 118.1346 63.3417 0.0000 0.0000 0.0000
# 3 90.1995 63.3417 122.5487 0.0000 0.0000 0.0000
# 4 0.0000 0.0000 0.0000 27.0880 0.0000 0.0000
# 5 0.0000 0.0000 0.0000 0.0000 5.1643 0.0000
# 6 0.0000 0.0000 0.0000 0.0000 0.0000 32.6834
#
#
#
# Elastic Compliance Matrix: (Units=1/GPa)
#
#
# Indices 1 2 3 4 5 6 
#
# 1 0.013712 -0.002774 -0.008658 0.000000 0.000000 0.000000
# 2 -0.002774 0.012272 -0.004301 0.000000 0.000000 0.000000
# 3 -0.008658 -0.004301 0.016756 0.000000 0.000000 0.000000
# 4 0.000000 0.000000 0.000000 0.036917 0.000000 0.000000
# 5 0.000000 0.000000 0.000000 0.000000 0.193637 0.000000
# 6 0.000000 0.000000 0.000000 0.000000 0.000000 0.030597
#
#
# Mechanical properties :
#
#
# Convention : Reuss Voigt Hill
#
# Bulk Modulus (GPa) = 88.71371 90.93108 89.82240
# Shear Modulus (GPa) = 14.74432 24.05775 19.40104
#
# Velocity S-wave (km/s) = 2.76450 3.53128 3.17115
# Velocity P-wave (km/s) = 7.49488 7.98493 7.74378
#
# Compressibility (1/GPa) = 0.01127221
#
# Stress axis : x y z
#
# Youngs Moduli (GPa) = 72.93106 81.48929 59.68097
#
# Poissons Ratio (x) = 0.22607 0.51673
# Poissons Ratio (y) = 0.20232 0.25668
# Poissons Ratio (z) = 0.63145 0.35048
#
# Static dielectric constant tensor:
#      x y z
#    x 3.405980 0.000000 0.000000 
#    y 0.000000 3.610910 0.000000 
#    z 0.000000 0.000000 3.655620 
# 
# 
# High freq. dielectric constant tensor:
#      x y z
#    x 1.749300 0.000000 0.000000 
#    y 0.000000 1.764330 0.000000 
#    z 0.000000 0.000000 1.764810 
# 
# From -- ./inp_files/70360.got.cif
#   From: 2010.03.12/outbox.cif.g09.slc.cpg/sg65_36_cif.got.tgz:70360.got - 2010.04.10 20:52:16.
