data_PCOD8272900
_publ_section_title
;
Structure prediction by ZEFSAII (Michael W. Deem and Ramdas Pophale) SiO2 
 PCOD8272900
Probable space group: C M M M
;
_chemical_formula_sum "Si O2"
_cell_formula_units_Z 104
_cell_length_a 19.964381
_cell_length_b 9.103599
_cell_length_c 32.462012
_cell_angle_alpha 90.000000
_cell_angle_beta 90.000000
_cell_angle_gamma 90.000000
_cell_volume 5899.896632
_symmetry_space_group_name_H-M "C M M M"
_symmetry_group_IT_number 65
_symmetry_cell_setting 'orthorhombic'
loop_
_space_group_symop_operation_xyz
x,y,z
-x,-y,z
x,-y,-z
-x,y,-z
-x,-y,-z
x,y,-z
-x,y,z
x,-y,z
1/2+x,1/2+y,z
1/2-x,1/2-y,z
1/2+x,1/2-y,-z
1/2-x,1/2+y,-z
1/2-x,1/2-y,-z
1/2+x,1/2+y,-z
1/2-x,1/2+y,z
1/2+x,1/2-y,z
loop_
_atom_site_type_symbol
_atom_site_label
_atom_site_fract_x
_atom_site_fract_y
_atom_site_fract_z
Si Si1 0.921626 0.169143 0.703402
Si Si2 0.922224 0.170470 0.000000
Si Si3 0.817444 0.671436 0.145887
Si Si4 0.078825 0.173102 0.089170
Si Si5 0.818425 0.172492 0.546838
Si Si6 0.183048 0.670644 0.758220
Si Si7 0.426216 0.325818 0.389177
O O1 0.881381 0.270566 0.734510
O O2 0.902971 0.217237 0.656817
O O3 0.000000 0.193714 0.711496
O O4 0.902140 0.000000 0.711038
O O5 0.894712 0.231041 0.956123
O O6 0.000000 0.202636 0.000000
O O7 0.907514 0.000000 0.000000
O O8 0.810985 0.500000 0.136248
O O9 0.750000 0.750000 0.129968
O O10 0.881828 0.736726 0.123306
O O11 0.828488 0.703567 0.193867
O O12 0.000000 0.205143 0.094506
O O13 0.092794 0.000000 0.094344
O O14 0.839181 0.209787 0.500000
O O15 0.750000 0.250000 0.559289
O O16 0.875200 0.237576 0.576966
O O17 0.808565 0.000000 0.553177
O O18 0.191686 0.500000 0.749092
O O19 0.250000 0.750000 0.742094
O O20 0.500000 0.259984 0.398245
O O21 0.430108 0.500000 0.392572
#
# Coordination Sequence:
#
# PCOD8272900 Si02
#       7
#    16   8  16  16  16  16  16
#     4   9  18  33  52  73  99 129 159 196 242 290
#     4   7  12  26  48  73 100 129 161 197 236 279
#     4  10  21  36  52  71  98 130 163 202 246 289
#     4   9  17  31  53  78 102 130 164 200 239 286
#     4   9  17  29  46  68  94 124 157 194 235 278
#     4  10  21  36  53  72  96 127 163 203 244 289
#     4   8  15  29  48  70  95 122 155 195 235 275
#
# _framework density 17.627427999999998
#
# number of rings (size 3 to 8) (size 9 to 14) (size 15 to 20)
#    0.000    3.000    0.000    2.769    0.000    4.000 
#    0.000    7.692    0.000    2.769    0.000    2.154 
#    0.000    0.000    0.000    0.000    0.000    0.000 
#
# Total GULP energy -644536.304222 kJ/mol
# GULP energy per Si atom -12394.928927 kJ/mol
# Density = 1.758731 g / cm^3
# Si number density = 17.627428 Si / 1000 Ang^3
#
#
#
# Elastic Constant Matrix: (Units=GPa)
#
#
# Indices 1 2 3 4 5 6 
#
# 1 102.0710 50.0098 73.4854 0.0000 0.0000 0.0000
# 2 50.0098 62.7804 50.3291 0.0000 0.0000 0.0000
# 3 73.4854 50.3291 99.0877 0.0000 0.0000 0.0000
# 4 0.0000 0.0000 0.0000 20.7678 0.0000 0.0000
# 5 0.0000 0.0000 0.0000 0.0000 22.2193 0.0000
# 6 0.0000 0.0000 0.0000 0.0000 0.0000 31.1978
#
#
#
# Elastic Compliance Matrix: (Units=1/GPa)
#
#
# Indices 1 2 3 4 5 6 
#
# 1 0.023122 -0.007881 -0.013145 0.000000 0.000000 0.000000
# 2 -0.007881 0.029555 -0.009168 0.000000 0.000000 0.000000
# 3 -0.013145 -0.009168 0.024497 0.000000 0.000000 0.000000
# 4 0.000000 0.000000 0.000000 0.048152 0.000000 0.000000
# 5 0.000000 0.000000 0.000000 0.000000 0.045006 0.000000
# 6 0.000000 0.000000 0.000000 0.000000 0.000000 0.032054
#
#
# Mechanical properties :
#
#
# Convention : Reuss Voigt Hill
#
# Bulk Modulus (GPa) = 59.56545 67.95417 63.75981
# Shear Modulus (GPa) = 18.63122 20.84464 19.73793
#
# Velocity S-wave (km/s) = 3.25460 3.44250 3.34986
# Velocity P-wave (km/s) = 6.92733 7.37801 7.15622
#
# Compressibility (1/GPa) = 0.01678825
#
# Stress axis : x y z
#
# Youngs Moduli (GPa) = 43.24938 33.83473 40.82150
#
# Poissons Ratio (x) = 0.26664 0.53659
# Poissons Ratio (y) = 0.34083 0.37423
# Poissons Ratio (z) = 0.56850 0.31018
#
# Static dielectric constant tensor:
#      x y z
#    x 3.314620 0.000000 0.000000 
#    y 0.000000 3.027220 0.000000 
#    z 0.000000 0.000000 3.483950 
# 
# 
# High freq. dielectric constant tensor:
#      x y z
#    x 1.675900 0.000000 0.000000 
#    y 0.000000 1.657840 0.000000 
#    z 0.000000 0.000000 1.689620 
# 
# From -- ./inp_files/78164.got.cif
#   From: 2010.03.12/outbox.cif.g09.slc.cpg/sg65_40_cif.got.tgz:78164.got - 2010.04.10 20:52:16.
