data_PCOD8272542
_publ_section_title
;
Structure prediction by ZEFSAII (Michael W. Deem and Ramdas Pophale) SiO2 
 PCOD8272542
Probable space group: C M M M
;
_chemical_formula_sum "Si O2"
_cell_formula_units_Z 72
_cell_length_a 17.432302
_cell_length_b 23.299648
_cell_length_c 9.221580
_cell_angle_alpha 90.000000
_cell_angle_beta 90.000000
_cell_angle_gamma 90.000000
_cell_volume 3745.496877
_symmetry_space_group_name_H-M "C M M M"
_symmetry_group_IT_number 65
_symmetry_cell_setting 'orthorhombic'
loop_
_space_group_symop_operation_xyz
x,y,z
-x,-y,z
x,-y,-z
-x,y,-z
-x,-y,-z
x,y,-z
-x,y,z
x,-y,z
1/2+x,1/2+y,z
1/2-x,1/2-y,z
1/2+x,1/2-y,-z
1/2-x,1/2+y,-z
1/2-x,1/2-y,-z
1/2+x,1/2+y,-z
1/2-x,1/2+y,z
1/2+x,1/2-y,z
loop_
_atom_site_type_symbol
_atom_site_label
_atom_site_fract_x
_atom_site_fract_y
_atom_site_fract_z
Si Si1 0.089403 0.644393 0.668768
Si Si2 0.663368 0.247342 0.165903
Si Si3 0.296451 0.933799 0.831036
Si Si4 0.500000 0.434482 0.670284
Si Si5 0.136550 0.877896 0.164438
O O1 0.109642 0.646582 0.500000
O O2 0.113591 0.704646 0.738337
O O3 0.132871 0.590935 0.740522
O O4 0.000000 0.634421 0.696393
O O5 0.750000 0.250000 0.225166
O O6 0.626313 0.309870 0.177724
O O7 0.663717 0.224867 0.000000
O O8 0.221230 0.897617 0.788228
O O9 0.283523 0.000000 0.788963
O O10 0.315466 0.926694 0.000000
O O11 0.500000 0.500000 0.719183
O O12 0.500000 0.426649 0.500000
O O13 0.423796 0.405950 0.729869
O O14 0.120510 0.898257 0.000000
#
# Coordination Sequence:
#
# PCOD8272542 Si02
#       5
#    16  16  16   8  16
#     4  11  25  41  58  87 126 164 199 241 298 359
#     4  10  20  39  65  90 116 148 194 248 298 350
#     4  10  21  40  66  91 115 151 202 254 301 353
#     4  11  25  41  57  85 127 167 200 241 294 355
#     4  10  21  39  64  91 117 153 200 250 301 352
#
# _framework density 19.223084
#
# number of rings (size 3 to 8) (size 9 to 14) (size 15 to 20)
#    0.000    1.667    2.222    1.667    1.556    6.667 
#    0.000    2.222    0.000    0.000    0.000    0.000 
#    0.000    0.000    0.000    0.000    0.000    0.000 
#
# Total GULP energy -446599.871575 kJ/mol
# GULP energy per Si atom -12405.551988 kJ/mol
# Density = 1.917933 g / cm^3
# Si number density = 19.223084 Si / 1000 Ang^3
#
#
#
# Elastic Constant Matrix: (Units=GPa)
#
#
# Indices 1 2 3 4 5 6 
#
# 1 91.0546 31.2293 46.7585 0.0000 0.0000 0.0000
# 2 31.2293 100.9042 40.2734 0.0000 0.0000 0.0000
# 3 46.7585 40.2734 65.3148 0.0000 0.0000 0.0000
# 4 0.0000 0.0000 0.0000 25.8824 0.0000 0.0000
# 5 0.0000 0.0000 0.0000 0.0000 42.8841 0.0000
# 6 0.0000 0.0000 0.0000 0.0000 0.0000 25.1517
#
#
#
# Elastic Compliance Matrix: (Units=1/GPa)
#
#
# Indices 1 2 3 4 5 6 
#
# 1 0.017390 -0.000548 -0.012111 0.000000 0.000000 0.000000
# 2 -0.000548 0.013163 -0.007724 0.000000 0.000000 0.000000
# 3 -0.012111 -0.007724 0.028743 0.000000 0.000000 0.000000
# 4 0.000000 0.000000 0.000000 0.038636 0.000000 0.000000
# 5 0.000000 0.000000 0.000000 0.000000 0.023319 0.000000
# 6 0.000000 0.000000 0.000000 0.000000 0.000000 0.039759
#
#
# Mechanical properties :
#
#
# Convention : Reuss Voigt Hill
#
# Bulk Modulus (GPa) = 53.96793 54.86623 54.41708
# Shear Modulus (GPa) = 24.04392 28.05115 26.04754
#
# Velocity S-wave (km/s) = 3.54048 3.82415 3.68504
# Velocity P-wave (km/s) = 6.69693 6.93561 6.81731
#
# Compressibility (1/GPa) = 0.01852952
#
# Stress axis : x y z
#
# Youngs Moduli (GPa) = 57.50494 75.97156 34.79055
#
# Poissons Ratio (x) = 0.04164 0.42136
# Poissons Ratio (y) = 0.03152 0.26872
# Poissons Ratio (z) = 0.69646 0.58679
#
# Static dielectric constant tensor:
#      x y z
#    x 3.450960 0.000000 0.000000 
#    y 0.000000 3.618650 0.000000 
#    z 0.000000 0.000000 3.470100 
# 
# 
# High freq. dielectric constant tensor:
#      x y z
#    x 1.752950 0.000000 0.000000 
#    y 0.000000 1.761830 0.000000 
#    z 0.000000 0.000000 1.741520 
# 
# From -- ./inp_files/9204.got.cif
#   From: 2010.03.12/outbox.cif.g09.slc.cpg/sg65_5_cif.got.tgz:9204.got - 2010.04.10 20:52:16.
