data_PCOD8272809
_publ_section_title
;
Structure prediction by ZEFSAII (Michael W. Deem and Ramdas Pophale) SiO2 
 PCOD8272809
Probable space group: C M M M
;
_chemical_formula_sum "Si O2"
_cell_formula_units_Z 88
_cell_length_a 20.621445
_cell_length_b 9.297070
_cell_length_c 24.086302
_cell_angle_alpha 90.000000
_cell_angle_beta 90.000000
_cell_angle_gamma 90.000000
_cell_volume 4617.802159
_symmetry_space_group_name_H-M "C M M M"
_symmetry_group_IT_number 65
_symmetry_cell_setting 'orthorhombic'
loop_
_space_group_symop_operation_xyz
x,y,z
-x,-y,z
x,-y,-z
-x,y,-z
-x,-y,-z
x,y,-z
-x,y,z
x,-y,z
1/2+x,1/2+y,z
1/2-x,1/2-y,z
1/2+x,1/2-y,-z
1/2-x,1/2+y,-z
1/2-x,1/2-y,-z
1/2+x,1/2+y,-z
1/2-x,1/2+y,z
1/2+x,1/2-y,z
loop_
_atom_site_type_symbol
_atom_site_label
_atom_site_fract_x
_atom_site_fract_y
_atom_site_fract_z
Si Si1 0.929031 0.330074 0.753692
Si Si2 0.122919 0.335314 0.937767
Si Si3 0.812440 0.334026 0.827327
Si Si4 0.000000 0.840270 0.934160
Si Si5 0.313669 0.665630 0.565699
Si Si6 0.924942 0.332725 0.626967
O O1 0.933041 0.500000 0.760114
O O2 0.874652 0.268519 0.795295
O O3 0.911232 0.290070 0.690685
O O4 0.000000 0.265065 0.769280
O O5 0.099521 0.500000 0.938255
O O6 0.180748 0.312941 0.893936
O O7 0.063641 0.242529 0.914240
O O8 0.145319 0.288359 0.000000
O O9 0.802929 0.500000 0.811820
O O10 0.750000 0.250000 0.806118
O O11 0.000000 0.000000 0.908650
O O12 0.000000 0.844747 0.000000
O O13 0.318372 0.678007 0.500000
O O14 0.308481 0.500000 0.584949
O O15 0.250000 0.750000 0.587675
O O16 0.378907 0.735324 0.589527
O O17 0.908969 0.500000 0.616341
O O18 0.000000 0.301363 0.611772
#
# Coordination Sequence:
#
# PCOD8272809 Si02
#       6
#    16  16  16   8  16  16
#     4   8  16  33  56  78 100 133 177 217 258 311
#     4   9  18  32  50  73 100 133 173 210 250 309
#     4  10  21  35  53  75 103 137 172 214 261 310
#     4   9  17  29  47  73 101 127 157 201 254 299
#     4  10  21  36  54  78 110 147 184 221 262 311
#     4   9  18  34  56  81 108 139 177 220 265 316
#
# _framework density 19.056683
#
# number of rings (size 3 to 8) (size 9 to 14) (size 15 to 20)
#    0.000    2.818    0.000    1.909    1.273    4.727 
#    0.000    4.545    0.000    1.091    0.000    0.000 
#    0.000    0.000    0.000    0.000    0.000    0.000 
#
# Total GULP energy -545446.545178 kJ/mol
# GULP energy per Si atom -12396.512390 kJ/mol
# Density = 1.901331 g / cm^3
# Si number density = 19.056683 Si / 1000 Ang^3
#
#
#
# Elastic Constant Matrix: (Units=GPa)
#
#
# Indices 1 2 3 4 5 6 
#
# 1 132.6323 61.2236 47.9142 0.0000 0.0000 0.0000
# 2 61.2236 82.9462 32.8345 0.0000 0.0000 0.0000
# 3 47.9142 32.8345 51.6361 0.0000 0.0000 0.0000
# 4 0.0000 0.0000 0.0000 16.4747 0.0000 0.0000
# 5 0.0000 0.0000 0.0000 0.0000 22.1395 0.0000
# 6 0.0000 0.0000 0.0000 0.0000 0.0000 31.9097
#
#
#
# Elastic Compliance Matrix: (Units=1/GPa)
#
#
# Indices 1 2 3 4 5 6 
#
# 1 0.013711 -0.006794 -0.008403 0.000000 0.000000 0.000000
# 2 -0.006794 0.019478 -0.006081 0.000000 0.000000 0.000000
# 3 -0.008403 -0.006081 0.031030 0.000000 0.000000 0.000000
# 4 0.000000 0.000000 0.000000 0.060699 0.000000 0.000000
# 5 0.000000 0.000000 0.000000 0.000000 0.045168 0.000000
# 6 0.000000 0.000000 0.000000 0.000000 0.000000 0.031338
#
#
# Mechanical properties :
#
#
# Convention : Reuss Voigt Hill
#
# Bulk Modulus (GPa) = 46.16089 61.23991 53.70040
# Shear Modulus (GPa) = 19.90417 22.45428 21.17923
#
# Velocity S-wave (km/s) = 3.23534 3.43635 3.33735
# Velocity P-wave (km/s) = 6.18321 6.92460 6.56438
#
# Compressibility (1/GPa) = 0.02166336
#
# Stress axis : x y z
#
# Youngs Moduli (GPa) = 72.93154 51.33920 32.22653
#
# Poissons Ratio (x) = 0.34882 0.27079
# Poissons Ratio (y) = 0.49552 0.19598
# Poissons Ratio (z) = 0.61283 0.31221
#
# Static dielectric constant tensor:
#      x y z
#    x 3.626730 0.000000 0.000000 
#    y 0.000000 3.354560 0.000000 
#    z 0.000000 0.000000 3.445590 
# 
# 
# High freq. dielectric constant tensor:
#      x y z
#    x 1.740020 0.000000 0.000000 
#    y 0.000000 1.717620 0.000000 
#    z 0.000000 0.000000 1.734290 
# 
# From -- ./inp_files/70955.got.cif
#   From: 2010.03.12/outbox.cif.g09.slc.cpg/sg65_36_cif.got.tgz:70955.got - 2010.04.10 20:52:16.
