data_PCOD8272873
_publ_section_title
;
Structure prediction by ZEFSAII (Michael W. Deem and Ramdas Pophale) SiO2 
 PCOD8272873
Probable space group: C M M M
;
_chemical_formula_sum "Si O2"
_cell_formula_units_Z 104
_cell_length_a 30.105501
_cell_length_b 22.963052
_cell_length_c 8.829195
_cell_angle_alpha 90.000000
_cell_angle_beta 90.000000
_cell_angle_gamma 90.000000
_cell_volume 6103.747745
_symmetry_space_group_name_H-M "C M M M"
_symmetry_group_IT_number 65
_symmetry_cell_setting 'orthorhombic'
loop_
_space_group_symop_operation_xyz
x,y,z
-x,-y,z
x,-y,-z
-x,y,-z
-x,-y,-z
x,y,-z
-x,y,z
x,-y,z
1/2+x,1/2+y,z
1/2-x,1/2-y,z
1/2+x,1/2-y,-z
1/2-x,1/2+y,-z
1/2-x,1/2-y,-z
1/2+x,1/2+y,-z
1/2-x,1/2+y,z
1/2+x,1/2-y,z
loop_
_atom_site_type_symbol
_atom_site_label
_atom_site_fract_x
_atom_site_fract_y
_atom_site_fract_z
Si Si1 0.550922 0.162542 0.323414
Si Si2 0.599056 0.390311 0.678986
Si Si3 0.447709 0.500000 0.825032
Si Si4 0.448711 0.283663 0.176763
Si Si5 0.308319 0.434832 0.319563
Si Si6 0.118284 0.565085 0.318786
Si Si7 0.713873 0.930840 0.334011
O O1 0.559368 0.175024 0.500000
O O2 0.500000 0.145170 0.293080
O O3 0.564642 0.219351 0.229888
O O4 0.580821 0.109505 0.261602
O O5 0.594573 0.395654 0.500000
O O6 0.571028 0.442120 0.750015
O O7 0.581368 0.328568 0.732916
O O8 0.650709 0.394277 0.730861
O O9 0.500000 0.500000 0.801176
O O10 0.434442 0.500000 0.000000
O O11 0.500000 0.296306 0.215654
O O12 0.439245 0.290188 0.000000
O O13 0.303746 0.436219 0.500000
O O14 0.318609 0.500000 0.259703
O O15 0.260491 0.411500 0.252510
O O16 0.120887 0.564483 0.500000
O O17 0.106214 0.500000 0.260833
O O18 0.166951 0.585054 0.252209
O O19 0.712690 0.901669 0.500000
O O20 0.715991 0.000000 0.350450
#
# Coordination Sequence:
#
# PCOD8272873 Si02
#       7
#    16  16   8  16  16  16  16
#     4   9  17  29  46  69  96 123 153 190 227 267
#     4  11  20  31  49  71  92 115 151 198 242 277
#     4  11  23  35  45  63  95 129 155 183 228 283
#     4  10  21  36  50  63  84 119 161 196 229 276
#     4   8  13  23  39  63  93 118 143 181 231 274
#     4   8  13  22  40  70 102 126 148 178 225 275
#     4   7  10  18  35  60  93 125 146 173 218 270
#
# _framework density 17.038710999999999
#
# number of rings (size 3 to 8) (size 9 to 14) (size 15 to 20)
#    0.000    3.000    0.769    3.462    0.000    3.692 
#    0.000    1.538    0.000    1.385    0.000   10.769 
#    0.000    0.000    0.000    0.000    0.000    0.000 
#
# Total GULP energy -644233.180130 kJ/mol
# GULP energy per Si atom -12389.099618 kJ/mol
# Density = 1.699993 g / cm^3
# Si number density = 17.038711 Si / 1000 Ang^3
#
#
#
# Elastic Constant Matrix: (Units=GPa)
#
#
# Indices 1 2 3 4 5 6 
#
# 1 142.5421 80.6894 35.9766 0.0000 0.0000 0.0000
# 2 80.6894 90.7868 23.5056 0.0000 0.0000 0.0000
# 3 35.9766 23.5056 35.4030 0.0000 0.0000 0.0000
# 4 0.0000 0.0000 0.0000 -1.2379 0.0000 0.0000
# 5 0.0000 0.0000 0.0000 0.0000 5.4219 0.0000
# 6 0.0000 0.0000 0.0000 0.0000 0.0000 12.4533
#
#
#
# Elastic Compliance Matrix: (Units=1/GPa)
#
#
# Indices 1 2 3 4 5 6 
#
# 1 0.015857 -0.011981 -0.008159 0.000000 0.000000 0.000000
# 2 -0.011981 0.022353 -0.002667 0.000000 0.000000 0.000000
# 3 -0.008159 -0.002667 0.038308 0.000000 0.000000 0.000000
# 4 0.000000 0.000000 0.000000 -0.807803 0.000000 0.000000
# 5 0.000000 0.000000 0.000000 0.000000 0.184438 0.000000
# 6 0.000000 0.000000 0.000000 0.000000 0.000000 0.080300
#
#
# Mechanical properties :
#
#
# Convention : Reuss Voigt Hill
#
# Bulk Modulus (GPa) = 32.35699 61.00835 46.68267
# Shear Modulus (GPa) = -12.17634 11.89813 -0.13911
#
# Velocity S-wave (km/s) = -2.67615 2.64540 -0.28604
# Velocity P-wave (km/s) = 3.07936 6.72416 5.22957
#
# Compressibility (1/GPa) = 0.03090522
#
# Stress axis : x y z
#
# Youngs Moduli (GPa) = 63.06478 44.73593 26.10421
#
# Poissons Ratio (x) = 0.53596 0.21299
# Poissons Ratio (y) = 0.75556 0.06961
# Poissons Ratio (z) = 0.51455 0.11930
#
# Static dielectric constant tensor:
#      x y z
#    x 3.729480 0.000000 0.000000 
#    y 0.000000 3.008000 0.000000 
#    z 0.000000 0.000000 2.820980 
# 
# 
# High freq. dielectric constant tensor:
#      x y z
#    x 1.676140 0.000000 0.000000 
#    y 0.000000 1.628440 0.000000 
#    z 0.000000 0.000000 1.614740 
# 
# From -- ./inp_files/18888.got.cif
#   From: 2010.03.12/outbox.cif.g09.slc.cpg/sg65_10_cif.got.tgz:18888.got - 2010.04.10 20:52:16.
