data_PCOD8272090
_publ_section_title
;
Structure prediction by ZEFSAII (Michael W. Deem and Ramdas Pophale) SiO2 
 PCOD8272090
Probable space group: C M M M
;
_chemical_formula_sum "Si O2"
_cell_formula_units_Z 72
_cell_length_a 14.170769
_cell_length_b 9.839783
_cell_length_c 27.703670
_cell_angle_alpha 90.000000
_cell_angle_beta 90.000000
_cell_angle_gamma 90.000000
_cell_volume 3862.924721
_symmetry_space_group_name_H-M "C M M M"
_symmetry_group_IT_number 65
_symmetry_cell_setting 'orthorhombic'
loop_
_space_group_symop_operation_xyz
x,y,z
-x,-y,z
x,-y,-z
-x,y,-z
-x,-y,-z
x,y,-z
-x,y,z
x,-y,z
1/2+x,1/2+y,z
1/2-x,1/2-y,z
1/2+x,1/2-y,-z
1/2-x,1/2+y,-z
1/2-x,1/2-y,-z
1/2+x,1/2+y,-z
1/2-x,1/2+y,z
1/2+x,1/2-y,z
loop_
_atom_site_type_symbol
_atom_site_label
_atom_site_fract_x
_atom_site_fract_y
_atom_site_fract_z
Si Si1 0.000000 0.147708 0.794317
Si Si2 0.189879 0.000000 0.054323
Si Si3 0.146485 0.773190 0.129245
Si Si4 0.500000 0.844476 0.294891
Si Si5 0.500000 0.838749 0.553904
Si Si6 0.399048 0.000000 0.917818
Si Si7 0.656878 0.159367 0.372488
O O1 0.091180 0.155583 0.828032
O O2 0.000000 0.259552 0.753521
O O3 0.000000 0.000000 0.769190
O O4 0.151767 0.133088 0.081354
O O5 0.304581 0.000000 0.050006
O O6 0.149550 0.000000 0.000000
O O7 0.250000 0.750000 0.150389
O O8 0.098473 0.631515 0.116235
O O9 0.405893 0.812432 0.325222
O O10 0.500000 0.000000 0.278877
O O11 0.500000 0.776441 0.500000
O O12 0.595073 0.792399 0.581395
O O13 0.500000 0.000000 0.552987
O O14 0.500000 0.000000 0.946885
O O15 0.750000 0.250000 0.369958
O O16 0.683921 0.000000 0.376123
#
# Coordination Sequence:
#
# PCOD8272090 Si02
#       7
#     8   8  16   8   8   8  16
#     4  12  23  39  61  84 109 142 182 225 276 340
#     4  10  22  42  60  78 115 151 174 215 271 324
#     4  10  22  39  59  84 113 142 174 218 271 324
#     4   9  22  39  56  81 109 145 186 232 286 342
#     4   8  15  30  53  81 117 165 205 237 284 339
#     4  10  20  35  61  85 112 138 179 223 255 309
#     4   9  18  35  56  81 117 151 194 244 286 337
#
# _framework density 18.638726999999999
#
# number of rings (size 3 to 8) (size 9 to 14) (size 15 to 20)
#    0.000    2.333    2.222    1.333    1.556    6.444 
#    0.000    5.000    0.000    0.667    0.000    0.000 
#    0.000    0.000    0.000    0.000    0.000    0.000 
#
# Total GULP energy -446239.735557 kJ/mol
# GULP energy per Si atom -12395.548210 kJ/mol
# Density = 1.859630 g / cm^3
# Si number density = 18.638727 Si / 1000 Ang^3
#
#
#
# Elastic Constant Matrix: (Units=GPa)
#
#
# Indices 1 2 3 4 5 6 
#
# 1 145.2362 61.1744 65.0918 0.0000 0.0000 0.0000
# 2 61.1744 110.2489 53.9837 0.0000 0.0000 0.0000
# 3 65.0918 53.9837 137.2216 0.0000 0.0000 0.0000
# 4 0.0000 0.0000 0.0000 22.8401 0.0000 0.0000
# 5 0.0000 0.0000 0.0000 0.0000 13.1061 0.0000
# 6 0.0000 0.0000 0.0000 0.0000 0.0000 -128.9923
#
#
#
# Elastic Compliance Matrix: (Units=1/GPa)
#
#
# Indices 1 2 3 4 5 6 
#
# 1 0.009985 -0.003990 -0.003167 0.000000 0.000000 0.000000
# 2 -0.003990 0.012829 -0.003154 0.000000 0.000000 0.000000
# 3 -0.003167 -0.003154 0.010031 0.000000 0.000000 0.000000
# 4 0.000000 0.000000 0.000000 0.043783 0.000000 0.000000
# 5 0.000000 0.000000 0.000000 0.000000 0.076300 0.000000
# 6 0.000000 0.000000 0.000000 0.000000 0.000000 -0.007752
#
#
# Mechanical properties :
#
#
# Convention : Reuss Voigt Hill
#
# Bulk Modulus (GPa) = 81.81634 83.68961 82.75298
# Shear Modulus (GPa) = 29.43397 -4.44544 12.49426
#
# Velocity S-wave (km/s) = 3.97821 -1.54604 2.59190
# Velocity P-wave (km/s) = 8.06800 6.46618 7.31109
#
# Compressibility (1/GPa) = 0.01222250
#
# Stress axis : x y z
#
# Youngs Moduli (GPa) = 100.14783 77.94984 99.69451
#
# Poissons Ratio (x) = 0.31101 0.31572
# Poissons Ratio (y) = 0.39958 0.31447
# Poissons Ratio (z) = 0.31716 0.24588
#
# Static dielectric constant tensor:
#      x y z
#    x 3.535300 0.000000 0.000000 
#    y 0.000000 3.401970 0.000000 
#    z 0.000000 0.000000 3.307110 
# 
# 
# High freq. dielectric constant tensor:
#      x y z
#    x 1.733960 0.000000 0.000000 
#    y 0.000000 1.723410 0.000000 
#    z 0.000000 0.000000 1.704360 
# 
# From -- ./inp_files/77584.got.cif
#   From: 2010.03.12/outbox.cif.g09.slc.cpg/sg65_39_cif.got.tgz:77584.got - 2010.04.10 20:52:16.
