data_PCOD8272525
_publ_section_title
;
Structure prediction by ZEFSAII (Michael W. Deem and Ramdas Pophale) SiO2 
 PCOD8272525
Probable space group: C M M M
;
_chemical_formula_sum "Si O2"
_cell_formula_units_Z 96
_cell_length_a 15.227544
_cell_length_b 15.344622
_cell_length_c 18.654170
_cell_angle_alpha 90.000000
_cell_angle_beta 90.000000
_cell_angle_gamma 90.000000
_cell_volume 4358.750275
_symmetry_space_group_name_H-M "C M M M"
_symmetry_group_IT_number 65
_symmetry_cell_setting 'orthorhombic'
loop_
_space_group_symop_operation_xyz
x,y,z
-x,-y,z
x,-y,-z
-x,y,-z
-x,-y,-z
x,y,-z
-x,y,z
x,-y,z
1/2+x,1/2+y,z
1/2-x,1/2-y,z
1/2+x,1/2-y,-z
1/2-x,1/2+y,-z
1/2-x,1/2-y,-z
1/2+x,1/2+y,-z
1/2-x,1/2+y,z
1/2+x,1/2-y,z
loop_
_atom_site_type_symbol
_atom_site_label
_atom_site_fract_x
_atom_site_fract_y
_atom_site_fract_z
Si Si1 0.597371 0.319768 0.810381
Si Si2 0.595167 0.500000 0.109876
Si Si3 0.500000 0.169830 0.418513
Si Si4 0.821545 0.397358 0.419973
Si Si5 0.295256 0.000000 0.921330
Si Si6 0.603462 0.832498 0.916296
Si Si7 0.665778 0.401777 0.675509
Si Si8 0.000000 0.874461 0.582434
O O1 0.500000 0.289945 0.787052
O O2 0.593731 0.414993 0.842875
O O3 0.633833 0.250371 0.868422
O O4 0.654683 0.330730 0.738799
O O5 0.500000 0.500000 0.065720
O O6 0.689052 0.500000 0.069270
O O7 0.500000 0.135272 0.500000
O O8 0.587447 0.131319 0.382039
O O9 0.500000 0.271869 0.413069
O O10 0.812770 0.356445 0.500000
O O11 0.815130 0.500000 0.424838
O O12 0.744666 0.361089 0.370305
O O13 0.336229 0.087672 0.886054
O O14 0.337294 0.000000 0.000000
O O15 0.500000 0.853673 0.906408
O O16 0.623277 0.810584 0.000000
O O17 0.686460 0.500000 0.705176
O O18 0.583603 0.411885 0.623070
O O19 0.000000 0.906869 0.500000
#
# Coordination Sequence:
#
# PCOD8272525 Si02
#       8
#    16   8   8  16   8  16  16   8
#     4  10  20  38  64  88 123 170 213 256 318 383
#     4  10  22  38  59  84 126 175 218 254 304 367
#     4   9  19  37  55  79 121 162 201 257 318 374
#     4   9  18  34  60  89 117 156 209 263 318 377
#     4  10  21  39  64  97 131 166 204 258 327 376
#     4   9  19  38  67  99 129 161 208 264 320 382
#     4  11  21  36  62  86 121 164 207 257 315 378
#     4  11  23  35  55  89 126 161 204 259 317 376
#
# _framework density 22.024661999999999
#
# number of rings (size 3 to 8) (size 9 to 14) (size 15 to 20)
#    0.000    2.167    1.667    1.250    0.000    5.500 
#    0.000    9.167    0.000    0.000    4.333    0.000 
#    0.000    0.000    0.000    0.083    0.000    0.667 
#
# Total GULP energy -594755.478999 kJ/mol
# GULP energy per Si atom -12390.739146 kJ/mol
# Density = 2.197453 g / cm^3
# Si number density = 22.024662 Si / 1000 Ang^3
#
#
#
# Elastic Constant Matrix: (Units=GPa)
#
#
# Indices 1 2 3 4 5 6 
#
# 1 158.1224 50.7864 57.2187 0.0000 0.0000 0.0000
# 2 50.7864 103.0256 54.5183 0.0000 0.0000 0.0000
# 3 57.2187 54.5183 108.2368 0.0000 0.0000 0.0000
# 4 0.0000 0.0000 0.0000 18.4773 0.0000 0.0000
# 5 0.0000 0.0000 0.0000 0.0000 671.3850 0.0000
# 6 0.0000 0.0000 0.0000 0.0000 0.0000 41.0957
#
#
#
# Elastic Compliance Matrix: (Units=1/GPa)
#
#
# Indices 1 2 3 4 5 6 
#
# 1 0.008231 -0.002393 -0.003146 0.000000 0.000000 0.000000
# 2 -0.002393 0.013929 -0.005751 0.000000 0.000000 0.000000
# 3 -0.003146 -0.005751 0.013799 0.000000 0.000000 0.000000
# 4 0.000000 0.000000 0.000000 0.054120 0.000000 0.000000
# 5 0.000000 0.000000 0.000000 0.000000 0.001489 0.000000
# 6 0.000000 0.000000 0.000000 0.000000 0.000000 0.024333
#
#
# Mechanical properties :
#
#
# Convention : Reuss Voigt Hill
#
# Bulk Modulus (GPa) = 74.74221 77.15907 75.95064
# Shear Modulus (GPa) = 34.97907 159.98236 97.48072
#
# Velocity S-wave (km/s) = 3.98952 8.53203 6.66002
# Velocity P-wave (km/s) = 7.43176 11.49651 9.67990
#
# Compressibility (1/GPa) = 0.01337932
#
# Stress axis : x y z
#
# Youngs Moduli (GPa) = 121.48895 71.79185 72.46875
#
# Poissons Ratio (x) = 0.17178 0.22800
# Poissons Ratio (y) = 0.29069 0.41678
# Poissons Ratio (z) = 0.38223 0.41289
#
# Static dielectric constant tensor:
#      x y z
#    x 4.291710 0.000000 0.000000 
#    y 0.000000 3.878520 0.000000 
#    z 0.000000 0.000000 3.889850 
# 
# 
# High freq. dielectric constant tensor:
#      x y z
#    x 1.873730 0.000000 0.000000 
#    y 0.000000 1.866200 0.000000 
#    z 0.000000 0.000000 1.839800 
# 
# From -- ./inp_files/62720.got.cif
#   From: 2010.03.12/outbox.cif.g09.slc.cpg/sg65_32_cif.got.tgz:62720.got - 2010.04.10 20:52:16.
