data_PCOD8272066
_publ_section_title
;
Structure prediction by ZEFSAII (Michael W. Deem and Ramdas Pophale) SiO2 
 PCOD8272066
Probable space group: C M M M
;
_chemical_formula_sum "Si O2"
_cell_formula_units_Z 104
_cell_length_a 14.431594
_cell_length_b 18.274585
_cell_length_c 20.998850
_cell_angle_alpha 90.000000
_cell_angle_beta 90.000000
_cell_angle_gamma 90.000000
_cell_volume 5538.055925
_symmetry_space_group_name_H-M "C M M M"
_symmetry_group_IT_number 65
_symmetry_cell_setting 'orthorhombic'
loop_
_space_group_symop_operation_xyz
x,y,z
-x,-y,z
x,-y,-z
-x,y,-z
-x,-y,-z
x,y,-z
-x,y,z
x,-y,z
1/2+x,1/2+y,z
1/2-x,1/2-y,z
1/2+x,1/2-y,-z
1/2-x,1/2+y,-z
1/2-x,1/2-y,-z
1/2+x,1/2+y,-z
1/2-x,1/2+y,z
1/2+x,1/2-y,z
loop_
_atom_site_type_symbol
_atom_site_label
_atom_site_fract_x
_atom_site_fract_y
_atom_site_fract_z
Si Si1 0.605196 0.154795 0.073838
Si Si2 0.740580 0.418995 0.850186
Si Si3 0.605261 0.215562 0.296600
Si Si4 0.226140 0.580687 0.705203
Si Si5 0.893967 0.860951 0.634209
Si Si6 0.609691 0.582047 0.500000
Si Si7 0.106549 0.787409 0.834025
O O1 0.500000 0.126965 0.085549
O O2 0.676581 0.095235 0.100205
O O3 0.622070 0.231294 0.108977
O O4 0.624689 0.168366 0.000000
O O5 0.700222 0.500000 0.864614
O O6 0.784693 0.416591 0.780598
O O7 0.658913 0.360402 0.855106
O O8 0.500000 0.190910 0.284187
O O9 0.661023 0.144998 0.321662
O O10 0.613502 0.274507 0.352959
O O11 0.645972 0.251477 0.231416
O O12 0.195244 0.500000 0.680474
O O13 0.332348 0.594011 0.684371
O O14 0.856191 0.875552 0.562973
O O15 0.000000 0.888071 0.643012
O O16 0.651154 0.500000 0.500000
O O17 0.500000 0.578993 0.500000
O O18 0.000000 0.808870 0.823296
#
# Coordination Sequence:
#
# PCOD8272066 Si02
#       7
#    16  16  16  16  16   8  16
#     4  10  22  40  62  85 109 146 197 243 285 337
#     4  11  23  35  54  84 116 150 186 232 289 345
#     4  10  20  36  57  80 110 151 194 237 279 333
#     4  11  22  34  53  83 117 151 189 235 286 341
#     4  10  20  35  59  87 115 154 193 230 283 338
#     4   9  18  34  55  84 124 158 189 235 284 334
#     4  10  20  37  59  81 111 148 189 235 281 339
#
# _framework density 18.779153000000001
#
# number of rings (size 3 to 8) (size 9 to 14) (size 15 to 20)
#    0.000    1.769    3.077    1.385    0.000    3.385 
#    0.000    5.385    0.000    0.000    0.000    3.231 
#    0.000    4.923    0.000    0.000    0.000    0.000 
#
# Total GULP energy -644803.085739 kJ/mol
# GULP energy per Si atom -12400.059341 kJ/mol
# Density = 1.873641 g / cm^3
# Si number density = 18.779153 Si / 1000 Ang^3
#
#
#
# Elastic Constant Matrix: (Units=GPa)
#
#
# Indices 1 2 3 4 5 6 
#
# 1 78.1500 58.2768 33.8500 0.0000 0.0000 0.0000
# 2 58.2768 136.3702 46.8444 0.0000 0.0000 0.0000
# 3 33.8500 46.8444 105.2087 0.0000 0.0000 0.0000
# 4 0.0000 0.0000 0.0000 19.1466 0.0000 0.0000
# 5 0.0000 0.0000 0.0000 0.0000 20.2670 0.0000
# 6 0.0000 0.0000 0.0000 0.0000 0.0000 22.5955
#
#
#
# Elastic Compliance Matrix: (Units=1/GPa)
#
#
# Indices 1 2 3 4 5 6 
#
# 1 0.019570 -0.007320 -0.003037 0.000000 0.000000 0.000000
# 2 -0.007320 0.011395 -0.002719 0.000000 0.000000 0.000000
# 3 -0.003037 -0.002719 0.011693 0.000000 0.000000 0.000000
# 4 0.000000 0.000000 0.000000 0.052228 0.000000 0.000000
# 5 0.000000 0.000000 0.000000 0.000000 0.049341 0.000000
# 6 0.000000 0.000000 0.000000 0.000000 0.000000 0.044257
#
#
# Mechanical properties :
#
#
# Convention : Reuss Voigt Hill
#
# Bulk Modulus (GPa) = 60.58338 66.40792 63.49565
# Shear Modulus (GPa) = 22.71316 24.45234 23.58275
#
# Velocity S-wave (km/s) = 3.48154 3.61238 3.54756
# Velocity P-wave (km/s) = 6.96366 7.26900 7.11797
#
# Compressibility (1/GPa) = 0.01650618
#
# Stress axis : x y z
#
# Youngs Moduli (GPa) = 51.09916 87.75922 85.52433
#
# Poissons Ratio (x) = 0.64237 0.25977
# Poissons Ratio (y) = 0.37403 0.23250
# Poissons Ratio (z) = 0.15520 0.23858
#
# Static dielectric constant tensor:
#      x y z
#    x 3.414670 0.000000 0.000000 
#    y 0.000000 3.572470 0.000000 
#    z 0.000000 0.000000 3.476710 
# 
# 
# High freq. dielectric constant tensor:
#      x y z
#    x 1.719950 0.000000 0.000000 
#    y 0.000000 1.730620 0.000000 
#    z 0.000000 0.000000 1.715870 
# 
# From -- ./inp_files/62841.got.cif
#   From: 2010.03.12/outbox.cif.g09.slc.cpg/sg65_32_cif.got.tgz:62841.got - 2010.04.10 20:52:16.
