data_PCOD8272147
_publ_section_title
;
Structure prediction by ZEFSAII (Michael W. Deem and Ramdas Pophale) SiO2 
 PCOD8272147
Probable space group: C M M M
;
_chemical_formula_sum "Si O2"
_cell_formula_units_Z 64
_cell_length_a 14.342786
_cell_length_b 16.047541
_cell_length_c 12.847499
_cell_angle_alpha 90.000000
_cell_angle_beta 90.000000
_cell_angle_gamma 90.000000
_cell_volume 2957.063190
_symmetry_space_group_name_H-M "C M M M"
_symmetry_group_IT_number 65
_symmetry_cell_setting 'orthorhombic'
loop_
_space_group_symop_operation_xyz
x,y,z
-x,-y,z
x,-y,-z
-x,y,-z
-x,-y,-z
x,y,-z
-x,y,z
x,-y,z
1/2+x,1/2+y,z
1/2-x,1/2-y,z
1/2+x,1/2-y,-z
1/2-x,1/2+y,-z
1/2-x,1/2-y,-z
1/2+x,1/2+y,-z
1/2-x,1/2+y,z
1/2+x,1/2-y,z
loop_
_atom_site_type_symbol
_atom_site_label
_atom_site_fract_x
_atom_site_fract_y
_atom_site_fract_z
Si Si1 0.894299 0.335222 0.768882
Si Si2 0.222825 0.903136 0.694038
Si Si3 0.609227 0.000000 0.111295
Si Si4 0.896841 0.901234 0.500000
Si Si5 0.606960 0.338184 0.120302
O O1 0.813553 0.341196 0.681186
O O2 0.861025 0.417056 0.830570
O O3 0.883236 0.257840 0.845303
O O4 0.000000 0.341659 0.724079
O O5 0.154210 0.870281 0.604113
O O6 0.171115 0.894207 0.805569
O O7 0.249765 0.000000 0.676859
O O8 0.500000 0.000000 0.095972
O O9 0.659872 0.000000 0.000000
O O10 0.000000 0.861209 0.500000
O O11 0.903726 0.000000 0.500000
O O12 0.500000 0.367590 0.132340
O O13 0.638849 0.346177 0.000000
#
# Coordination Sequence:
#
# PCOD8272147 Si02
#       5
#    16  16   8   8  16
#     4  10  20  36  56  83 120 156 192 234 283 348
#     4  11  22  38  61  89 114 150 197 246 294 349
#     4   9  16  28  50  77 107 150 196 229 264 324
#     4   9  20  40  64  85 111 150 199 248 292 344
#     4  10  22  39  58  84 121 160 195 237 292 348
#
# _framework density 21.643094999999999
#
# number of rings (size 3 to 8) (size 9 to 14) (size 15 to 20)
#    0.000    2.000    1.250    2.250    0.000    8.000 
#    0.000    4.375    0.000    5.250    0.000    0.000 
#    0.000    0.000    0.000    0.000    0.000    0.000 
#
# Total GULP energy -396560.246110 kJ/mol
# GULP energy per Si atom -12392.507691 kJ/mol
# Density = 2.159383 g / cm^3
# Si number density = 21.643095 Si / 1000 Ang^3
#
#
#
# Elastic Constant Matrix: (Units=GPa)
#
#
# Indices 1 2 3 4 5 6 
#
# 1 161.4623 9.8334 77.5355 0.0000 0.0000 0.0000
# 2 9.8334 38.9272 6.5353 0.0000 0.0000 0.0000
# 3 77.5355 6.5353 118.0343 0.0000 0.0000 0.0000
# 4 0.0000 0.0000 0.0000 22.9541 0.0000 0.0000
# 5 0.0000 0.0000 0.0000 0.0000 31.6740 0.0000
# 6 0.0000 0.0000 0.0000 0.0000 0.0000 31.0570
#
#
#
# Elastic Compliance Matrix: (Units=1/GPa)
#
#
# Indices 1 2 3 4 5 6 
#
# 1 0.009113 -0.001309 -0.005914 0.000000 0.000000 0.000000
# 2 -0.001309 0.026118 -0.000586 0.000000 0.000000 0.000000
# 3 -0.005914 -0.000586 0.012389 0.000000 0.000000 0.000000
# 4 0.000000 0.000000 0.000000 0.043565 0.000000 0.000000
# 5 0.000000 0.000000 0.000000 0.000000 0.031572 0.000000
# 6 0.000000 0.000000 0.000000 0.000000 0.000000 0.032199
#
#
# Mechanical properties :
#
#
# Convention : Reuss Voigt Hill
#
# Bulk Modulus (GPa) = 31.24779 56.24802 43.74790
# Shear Modulus (GPa) = 27.58752 32.10499 29.84625
#
# Velocity S-wave (km/s) = 3.57411 3.85565 3.71754
# Velocity P-wave (km/s) = 5.61261 6.77249 6.21965
#
# Compressibility (1/GPa) = 0.03200226
#
# Stress axis : x y z
#
# Youngs Moduli (GPa) = 109.73403 38.28758 80.71529
#
# Poissons Ratio (x) = 0.05013 0.47733
# Poissons Ratio (y) = 0.14366 0.04731
# Poissons Ratio (z) = 0.64894 0.02244
#
# Static dielectric constant tensor:
#      x y z
#    x 4.250300 0.000000 0.000000 
#    y 0.000000 3.817460 0.000000 
#    z 0.000000 0.000000 3.888360 
# 
# 
# High freq. dielectric constant tensor:
#      x y z
#    x 1.870630 0.000000 0.000000 
#    y 0.000000 1.840940 0.000000 
#    z 0.000000 0.000000 1.823460 
# 
# From -- ./inp_files/23934.got.cif
#   From: 2010.03.12/outbox.cif.g09.slc.cpg/sg65_12_cif.got.tgz:23934.got - 2010.04.10 20:52:16.
