data_PCOD8272373
_publ_section_title
;
Structure prediction by ZEFSAII (Michael W. Deem and Ramdas Pophale) SiO2 
 PCOD8272373
Probable space group: C M M M
;
_chemical_formula_sum "Si O2"
_cell_formula_units_Z 56
_cell_length_a 15.217606
_cell_length_b 9.648160
_cell_length_c 22.945023
_cell_angle_alpha 90.000000
_cell_angle_beta 90.000000
_cell_angle_gamma 90.000000
_cell_volume 3368.831815
_symmetry_space_group_name_H-M "C M M M"
_symmetry_group_IT_number 65
_symmetry_cell_setting 'orthorhombic'
loop_
_space_group_symop_operation_xyz
x,y,z
-x,-y,z
x,-y,-z
-x,y,-z
-x,-y,-z
x,y,-z
-x,y,z
x,-y,z
1/2+x,1/2+y,z
1/2-x,1/2-y,z
1/2+x,1/2-y,-z
1/2-x,1/2+y,-z
1/2-x,1/2-y,-z
1/2+x,1/2+y,-z
1/2-x,1/2+y,z
1/2+x,1/2-y,z
loop_
_atom_site_type_symbol
_atom_site_label
_atom_site_fract_x
_atom_site_fract_y
_atom_site_fract_z
Si Si1 0.104340 0.500000 0.065474
Si Si2 0.168560 0.840321 0.433052
Si Si3 0.167016 0.652810 0.168623
Si Si4 0.500000 0.338893 0.642842
Si Si5 0.500000 0.834631 0.759368
O O1 0.138068 0.636654 0.100470
O O2 0.000000 0.500000 0.065141
O O3 0.142540 0.500000 0.000000
O O4 0.146157 0.805240 0.500000
O O5 0.250000 0.750000 0.410230
O O6 0.084558 0.801256 0.395167
O O7 0.194734 0.000000 0.425569
O O8 0.192008 0.500000 0.193325
O O9 0.250000 0.750000 0.175464
O O10 0.085916 0.714637 0.205173
O O11 0.500000 0.500000 0.661418
O O12 0.500000 0.241081 0.698216
O O13 0.500000 0.000000 0.751581
#
# Coordination Sequence:
#
# PCOD8272373 Si02
#       5
#     8  16  16   8   8
#     4   9  16  32  58  79 101 135 171 208 245 306
#     4   9  18  34  54  75 102 131 163 207 259 309
#     4   9  18  34  52  74 102 134 169 206 252 301
#     4  10  21  34  52  76 100 131 174 212 252 298
#     4  10  20  37  51  69 101 138 178 206 244 302
#
# _framework density 16.622973000000002
#
# number of rings (size 3 to 8) (size 9 to 14) (size 15 to 20)
#    0.857    1.857    1.429    0.429    0.000    5.714 
#    0.000    5.714    0.000    4.286    0.000    3.000 
#    0.000    0.000    0.000    0.000    0.000    0.000 
#
# Total GULP energy -347031.485768 kJ/mol
# GULP energy per Si atom -12393.981635 kJ/mol
# Density = 1.658514 g / cm^3
# Si number density = 16.622973 Si / 1000 Ang^3
#
#
#
# Elastic Constant Matrix: (Units=GPa)
#
#
# Indices 1 2 3 4 5 6 
#
# 1 158.3422 67.9281 76.6445 0.0000 0.0000 0.0000
# 2 67.9281 53.2803 45.4040 0.0000 0.0000 0.0000
# 3 76.6445 45.4040 115.1698 0.0000 0.0000 0.0000
# 4 0.0000 0.0000 0.0000 24.7080 0.0000 0.0000
# 5 0.0000 0.0000 0.0000 0.0000 17.3044 0.0000
# 6 0.0000 0.0000 0.0000 0.0000 0.0000 36.2027
#
#
#
# Elastic Compliance Matrix: (Units=1/GPa)
#
#
# Indices 1 2 3 4 5 6 
#
# 1 0.014895 -0.015876 -0.003653 0.000000 0.000000 0.000000
# 2 -0.015876 0.045187 -0.007249 0.000000 0.000000 0.000000
# 3 -0.003653 -0.007249 0.013972 0.000000 0.000000 0.000000
# 4 0.000000 0.000000 0.000000 0.040473 0.000000 0.000000
# 5 0.000000 0.000000 0.000000 0.000000 0.057789 0.000000
# 6 0.000000 0.000000 0.000000 0.000000 0.000000 0.027622
#
#
# Mechanical properties :
#
#
# Convention : Reuss Voigt Hill
#
# Bulk Modulus (GPa) = 48.78843 78.52729 63.65786
# Shear Modulus (GPa) = 19.20676 24.76409 21.98542
#
# Velocity S-wave (km/s) = 3.40286 3.86392 3.64069
# Velocity P-wave (km/s) = 6.69724 8.20056 7.48673
#
# Compressibility (1/GPa) = 0.02049666
#
# Stress axis : x y z
#
# Youngs Moduli (GPa) = 67.13860 22.13043 71.57297
#
# Poissons Ratio (x) = 0.35135 0.26147
# Poissons Ratio (y) = 1.06590 0.51881
# Poissons Ratio (z) = 0.24527 0.16042
#
# Static dielectric constant tensor:
#      x y z
#    x 3.112030 0.000000 0.000000 
#    y 0.000000 2.921920 0.000000 
#    z 0.000000 0.000000 3.188460 
# 
# 
# High freq. dielectric constant tensor:
#      x y z
#    x 1.648500 0.000000 0.000000 
#    y 0.000000 1.620000 0.000000 
#    z 0.000000 0.000000 1.637790 
# 
# From -- ./inp_files/69456.got.cif
#   From: 2010.03.12/outbox.cif.g09.slc.cpg/sg65_35_cif.got.tgz:69456.got - 2010.04.10 20:52:16.
