data_PCOD8272909
_publ_section_title
;
Structure prediction by ZEFSAII (Michael W. Deem and Ramdas Pophale) SiO2 
 PCOD8272909
Probable space group: C M M M
;
_chemical_formula_sum "Si O2"
_cell_formula_units_Z 72
_cell_length_a 8.868732
_cell_length_b 29.170502
_cell_length_c 15.092508
_cell_angle_alpha 90.000000
_cell_angle_beta 90.000000
_cell_angle_gamma 90.000000
_cell_volume 3904.512784
_symmetry_space_group_name_H-M "C M M M"
_symmetry_group_IT_number 65
_symmetry_cell_setting 'orthorhombic'
loop_
_space_group_symop_operation_xyz
x,y,z
-x,-y,z
x,-y,-z
-x,y,-z
-x,-y,-z
x,y,-z
-x,y,z
x,-y,z
1/2+x,1/2+y,z
1/2-x,1/2-y,z
1/2+x,1/2-y,-z
1/2-x,1/2+y,-z
1/2-x,1/2-y,-z
1/2+x,1/2+y,-z
1/2-x,1/2+y,z
1/2+x,1/2-y,z
loop_
_atom_site_type_symbol
_atom_site_label
_atom_site_fract_x
_atom_site_fract_y
_atom_site_fract_z
Si Si1 0.176719 0.798120 0.397423
Si Si2 0.677071 0.797079 0.900434
Si Si3 0.321583 0.862648 0.744876
Si Si4 0.821997 0.052439 0.680371
Si Si5 0.331980 0.945960 0.500000
O O1 0.210047 0.809299 0.500000
O O2 0.250000 0.750000 0.369626
O O3 0.250945 0.837927 0.340005
O O4 0.000000 0.795413 0.377545
O O5 0.500000 0.789880 0.897238
O O6 0.750000 0.750000 0.866836
O O7 0.728138 0.837498 0.835134
O O8 0.731809 0.809320 0.000000
O O9 0.500000 0.864572 0.733971
O O10 0.254744 0.914173 0.752402
O O11 0.760669 0.069584 0.585688
O O12 0.000000 0.058366 0.681056
O O13 0.775417 0.000000 0.701328
O O14 0.500000 0.923906 0.500000
O O15 0.346836 0.000000 0.500000
#
# Coordination Sequence:
#
# PCOD8272909 Si02
#       5
#    16  16  16  16   8
#     4  10  21  36  52  72 104 143 179 216 259 311
#     4   9  19  36  57  82 110 138 171 215 268 321
#     4  11  22  34  54  80 106 139 178 222 267 320
#     4  10  21  36  53  74 104 141 180 224 271 317
#     4   9  17  31  51  73  98 131 174 221 265 309
#
# _framework density 18.440200999999998
#
# number of rings (size 3 to 8) (size 9 to 14) (size 15 to 20)
#    0.000    2.111    0.000    3.000    1.556    7.556 
#    0.000    0.000    0.000    0.667    0.000    4.667 
#    0.000    0.000    0.000    0.000    0.000    0.000 
#
# Total GULP energy -446459.300517 kJ/mol
# GULP energy per Si atom -12401.647237 kJ/mol
# Density = 1.839823 g / cm^3
# Si number density = 18.440201 Si / 1000 Ang^3
#
#
#
# Elastic Constant Matrix: (Units=GPa)
#
#
# Indices 1 2 3 4 5 6 
#
# 1 85.7150 55.2697 43.9767 0.0000 0.0000 0.0000
# 2 55.2697 134.3245 71.8203 0.0000 0.0000 0.0000
# 3 43.9767 71.8203 89.4946 0.0000 0.0000 0.0000
# 4 0.0000 0.0000 0.0000 31.6134 0.0000 0.0000
# 5 0.0000 0.0000 0.0000 0.0000 20.8959 0.0000
# 6 0.0000 0.0000 0.0000 0.0000 0.0000 34.7440
#
#
#
# Elastic Compliance Matrix: (Units=1/GPa)
#
#
# Indices 1 2 3 4 5 6 
#
# 1 0.016978 -0.004423 -0.004793 0.000000 0.000000 0.000000
# 2 -0.004423 0.014192 -0.009216 0.000000 0.000000 0.000000
# 3 -0.004793 -0.009216 0.020925 0.000000 0.000000 0.000000
# 4 0.000000 0.000000 0.000000 0.031632 0.000000 0.000000
# 5 0.000000 0.000000 0.000000 0.000000 0.047856 0.000000
# 6 0.000000 0.000000 0.000000 0.000000 0.000000 0.028782
#
#
# Mechanical properties :
#
#
# Convention : Reuss Voigt Hill
#
# Bulk Modulus (GPa) = 65.65669 72.40750 69.03209
# Shear Modulus (GPa) = 24.71502 26.68183 25.69842
#
# Velocity S-wave (km/s) = 3.66495 3.80799 3.73716
# Velocity P-wave (km/s) = 7.32063 7.66066 7.49258
#
# Compressibility (1/GPa) = 0.01523074
#
# Stress axis : x y z
#
# Youngs Moduli (GPa) = 58.90086 70.46199 47.78948
#
# Poissons Ratio (x) = 0.31164 0.22907
# Poissons Ratio (y) = 0.26051 0.44042
# Poissons Ratio (z) = 0.28233 0.64937
#
# Static dielectric constant tensor:
#      x y z
#    x 3.474110 0.000000 0.000000 
#    y 0.000000 3.523460 0.000000 
#    z 0.000000 0.000000 3.442730 
# 
# 
# High freq. dielectric constant tensor:
#      x y z
#    x 1.727210 0.000000 0.000000 
#    y 0.000000 1.715520 0.000000 
#    z 0.000000 0.000000 1.693360 
# 
# From -- ./inp_files/36607.got.cif
#   From: 2010.03.12/outbox.cif.g09.slc.cpg/sg65_19_cif.got.tgz:36607.got - 2010.04.10 20:52:16.
