data_PCOD8272496
_publ_section_title
;
Structure prediction by ZEFSAII (Michael W. Deem and Ramdas Pophale) SiO2 
 PCOD8272496
Probable space group: C M M M
;
_chemical_formula_sum "Si O2"
_cell_formula_units_Z 88
_cell_length_a 28.672089
_cell_length_b 17.918493
_cell_length_c 9.053237
_cell_angle_alpha 90.000000
_cell_angle_beta 90.000000
_cell_angle_gamma 90.000000
_cell_volume 4651.196709
_symmetry_space_group_name_H-M "C M M M"
_symmetry_group_IT_number 65
_symmetry_cell_setting 'orthorhombic'
loop_
_space_group_symop_operation_xyz
x,y,z
-x,-y,z
x,-y,-z
-x,y,-z
-x,-y,-z
x,y,-z
-x,y,z
x,-y,z
1/2+x,1/2+y,z
1/2-x,1/2-y,z
1/2+x,1/2-y,-z
1/2-x,1/2+y,-z
1/2-x,1/2-y,-z
1/2+x,1/2+y,-z
1/2-x,1/2+y,z
1/2+x,1/2-y,z
loop_
_atom_site_type_symbol
_atom_site_label
_atom_site_fract_x
_atom_site_fract_y
_atom_site_fract_z
Si Si1 0.220963 0.175283 0.669206
Si Si2 0.112680 0.371990 0.326781
Si Si3 0.616586 0.297115 0.328003
Si Si4 0.294422 0.087951 0.166411
Si Si5 0.552822 0.416717 0.173560
Si Si6 0.945225 0.500000 0.173648
O O1 0.220435 0.147905 0.500000
O O2 0.250000 0.250000 0.687036
O O3 0.169207 0.191278 0.729443
O O4 0.244338 0.111835 0.769616
O O5 0.111225 0.390951 0.500000
O O6 0.098301 0.286545 0.295106
O O7 0.165281 0.381240 0.271693
O O8 0.077090 0.425773 0.242196
O O9 0.614579 0.313711 0.500000
O O10 0.583990 0.355114 0.248251
O O11 0.297080 0.000000 0.165344
O O12 0.300698 0.119117 0.000000
O O13 0.500000 0.405672 0.228329
O O14 0.570057 0.500000 0.217005
O O15 0.555924 0.405625 0.000000
O O16 0.000000 0.500000 0.208281
O O17 0.934644 0.500000 0.000000
#
# Coordination Sequence:
#
# PCOD8272496 Si02
#       6
#    16  16  16  16  16   8
#     4  10  20  38  58  80 116 156 195 236 287 345
#     4  11  22  39  62  85 115 157 201 244 297 359
#     4  10  22  38  60  91 121 152 197 249 294 349
#     4  11  23  37  56  85 118 152 198 246 290 346
#     4   9  20  40  63  86 116 155 194 235 293 362
#     4  11  25  43  61  87 123 157 199 257 308 355
#
# _framework density 18.919862999999999
#
# number of rings (size 3 to 8) (size 9 to 14) (size 15 to 20)
#    0.000    1.727    2.727    1.909    0.000    6.545 
#    0.000    8.182    0.000    0.000    0.000    0.000 
#    0.000    0.000    0.000    0.000    0.000    0.000 
#
# Total GULP energy -545681.194990 kJ/mol
# GULP energy per Si atom -12401.845341 kJ/mol
# Density = 1.887680 g / cm^3
# Si number density = 18.919863 Si / 1000 Ang^3
#
#
#
# Elastic Constant Matrix: (Units=GPa)
#
#
# Indices 1 2 3 4 5 6 
#
# 1 122.2626 70.6503 59.8940 0.0000 0.0000 0.0000
# 2 70.6503 107.7803 67.9991 0.0000 0.0000 0.0000
# 3 59.8940 67.9991 88.2225 0.0000 0.0000 0.0000
# 4 0.0000 0.0000 0.0000 48.0744 0.0000 0.0000
# 5 0.0000 0.0000 0.0000 0.0000 32.1122 0.0000
# 6 0.0000 0.0000 0.0000 0.0000 0.0000 39.4615
#
#
#
# Elastic Compliance Matrix: (Units=1/GPa)
#
#
# Indices 1 2 3 4 5 6 
#
# 1 0.014130 -0.006249 -0.004776 0.000000 0.000000 0.000000
# 2 -0.006249 0.020824 -0.011808 0.000000 0.000000 0.000000
# 3 -0.004776 -0.011808 0.023679 0.000000 0.000000 0.000000
# 4 0.000000 0.000000 0.000000 0.020801 0.000000 0.000000
# 5 0.000000 0.000000 0.000000 0.000000 0.031141 0.000000
# 6 0.000000 0.000000 0.000000 0.000000 0.000000 0.025341
#
#
# Mechanical properties :
#
#
# Convention : Reuss Voigt Hill
#
# Bulk Modulus (GPa) = 77.12349 79.48358 78.30353
# Shear Modulus (GPa) = 26.89544 31.91107 29.40326
#
# Velocity S-wave (km/s) = 3.77443 4.11133 3.94648
# Velocity P-wave (km/s) = 7.73607 8.03985 7.88943
#
# Compressibility (1/GPa) = 0.01296622
#
# Stress axis : x y z
#
# Youngs Moduli (GPa) = 70.77232 48.02133 42.23124
#
# Poissons Ratio (x) = 0.30007 0.20171
# Poissons Ratio (y) = 0.44223 0.49868
# Poissons Ratio (z) = 0.33804 0.56705
#
# Static dielectric constant tensor:
#      x y z
#    x 2.629700 0.000000 0.000000 
#    y 0.000000 3.503500 0.000000 
#    z 0.000000 0.000000 3.572330 
# 
# 
# High freq. dielectric constant tensor:
#      x y z
#    x 1.735450 0.000000 0.000000 
#    y 0.000000 1.743290 0.000000 
#    z 0.000000 0.000000 1.738130 
# 
# From -- ./inp_files/18280.got.cif
#   From: 2010.03.12/outbox.cif.g09.slc.cpg/sg65_10_cif.got.tgz:18280.got - 2010.04.10 20:52:16.
