data_PCOD8272774
_publ_section_title
;
Structure prediction by ZEFSAII (Michael W. Deem and Ramdas Pophale) SiO2 
 PCOD8272774
Probable space group: C M M M
;
_chemical_formula_sum "Si O2"
_cell_formula_units_Z 96
_cell_length_a 23.131462
_cell_length_b 25.008727
_cell_length_c 9.198386
_cell_angle_alpha 90.000000
_cell_angle_beta 90.000000
_cell_angle_gamma 90.000000
_cell_volume 5321.159768
_symmetry_space_group_name_H-M "C M M M"
_symmetry_group_IT_number 65
_symmetry_cell_setting 'orthorhombic'
loop_
_space_group_symop_operation_xyz
x,y,z
-x,-y,z
x,-y,-z
-x,y,-z
-x,-y,-z
x,y,-z
-x,y,z
x,-y,z
1/2+x,1/2+y,z
1/2-x,1/2-y,z
1/2+x,1/2-y,-z
1/2-x,1/2+y,-z
1/2-x,1/2-y,-z
1/2+x,1/2+y,-z
1/2-x,1/2+y,z
1/2+x,1/2-y,z
loop_
_atom_site_type_symbol
_atom_site_label
_atom_site_fract_x
_atom_site_fract_y
_atom_site_fract_z
Si Si1 0.566604 0.250735 0.167347
Si Si2 0.566236 0.937924 0.667813
Si Si3 0.123090 0.846654 0.331075
Si Si4 0.139426 0.648608 0.827671
Si Si5 0.566297 0.438506 0.833235
Si Si6 0.751603 0.688749 0.330865
O O1 0.500000 0.236752 0.192724
O O2 0.583059 0.302308 0.258587
O O3 0.602667 0.199950 0.222234
O O4 0.580016 0.263446 0.000000
O O5 0.576924 0.923015 0.500000
O O6 0.500000 0.925252 0.710802
O O7 0.609198 0.904458 0.768078
O O8 0.579823 0.000000 0.695020
O O9 0.109318 0.845292 0.500000
O O10 0.107931 0.904541 0.268786
O O11 0.189920 0.836853 0.298289
O O12 0.203032 0.654368 0.760973
O O13 0.143919 0.643824 0.000000
O O14 0.500000 0.427935 0.789574
O O15 0.582647 0.500000 0.808902
O O16 0.576168 0.421882 0.000000
O O17 0.768787 0.686050 0.500000
O O18 0.750000 0.750000 0.276975
#
# Coordination Sequence:
#
# PCOD8272774 Si02
#       6
#    16  16  16  16  16  16
#     4  10  21  35  51  76 112 146 174 214 272 334
#     4   9  19  37  60  84 112 149 188 225 274 335
#     4  11  22  35  55  82 108 139 183 231 272 315
#     4  11  22  35  56  84 112 143 186 233 277 326
#     4   9  19  37  59  81 109 146 180 214 268 333
#     4  10  21  39  57  75 108 151 190 227 273 328
#
# _framework density 18.041180000000001
#
# number of rings (size 3 to 8) (size 9 to 14) (size 15 to 20)
#    0.000    2.000    1.667    3.000    0.000    6.667 
#    0.000    2.500    0.000    1.000    0.000    0.000 
#    0.000    0.000    0.000    0.000    0.000    0.000 
#
# Total GULP energy -595425.956368 kJ/mol
# GULP energy per Si atom -12404.707424 kJ/mol
# Density = 1.800012 g / cm^3
# Si number density = 18.041180 Si / 1000 Ang^3
#
#
#
# Elastic Constant Matrix: (Units=GPa)
#
#
# Indices 1 2 3 4 5 6 
#
# 1 84.5689 46.9930 46.6496 0.0000 0.0000 0.0000
# 2 46.9930 91.5767 41.2993 0.0000 0.0000 0.0000
# 3 46.6496 41.2993 65.4929 0.0000 0.0000 0.0000
# 4 0.0000 0.0000 0.0000 33.5881 0.0000 0.0000
# 5 0.0000 0.0000 0.0000 0.0000 29.2416 0.0000
# 6 0.0000 0.0000 0.0000 0.0000 0.0000 29.3138
#
#
#
# Elastic Compliance Matrix: (Units=1/GPa)
#
#
# Indices 1 2 3 4 5 6 
#
# 1 0.021447 -0.005752 -0.011649 0.000000 0.000000 0.000000
# 2 -0.005752 0.016802 -0.006498 0.000000 0.000000 0.000000
# 3 -0.011649 -0.006498 0.027664 0.000000 0.000000 0.000000
# 4 0.000000 0.000000 0.000000 0.029772 0.000000 0.000000
# 5 0.000000 0.000000 0.000000 0.000000 0.034198 0.000000
# 6 0.000000 0.000000 0.000000 0.000000 0.000000 0.034114
#
#
# Mechanical properties :
#
#
# Convention : Reuss Voigt Hill
#
# Bulk Modulus (GPa) = 55.20489 56.83581 56.02035
# Shear Modulus (GPa) = 22.95336 25.54180 24.24758
#
# Velocity S-wave (km/s) = 3.57077 3.76673 3.67006
# Velocity P-wave (km/s) = 6.90408 7.10559 7.00556
#
# Compressibility (1/GPa) = 0.01811434
#
# Stress axis : x y z
#
# Youngs Moduli (GPa) = 46.62719 59.51668 36.14819
#
# Poissons Ratio (x) = 0.34234 0.42109
# Poissons Ratio (y) = 0.26820 0.23490
# Poissons Ratio (z) = 0.54316 0.38675
#
# Static dielectric constant tensor:
#      x y z
#    x 3.300570 0.000000 0.000000 
#    y 0.000000 3.301730 0.000000 
#    z 0.000000 0.000000 3.317550 
# 
# 
# High freq. dielectric constant tensor:
#      x y z
#    x 1.699440 0.000000 0.000000 
#    y 0.000000 1.699790 0.000000 
#    z 0.000000 0.000000 1.699720 
# 
# From -- ./inp_files/12257.got.cif
#   From: 2010.03.12/outbox.cif.g09.slc.cpg/sg65_7_cif.got.tgz:12257.got - 2010.04.10 20:52:16.
