data_PCOD8272549
_publ_section_title
;
Structure prediction by ZEFSAII (Michael W. Deem and Ramdas Pophale) SiO2 
 PCOD8272549
Probable space group: C M M M
;
_chemical_formula_sum "Si O2"
_cell_formula_units_Z 72
_cell_length_a 17.229338
_cell_length_b 17.150820
_cell_length_c 11.914698
_cell_angle_alpha 90.000000
_cell_angle_beta 90.000000
_cell_angle_gamma 90.000000
_cell_volume 3520.760789
_symmetry_space_group_name_H-M "C M M M"
_symmetry_group_IT_number 65
_symmetry_cell_setting 'orthorhombic'
loop_
_space_group_symop_operation_xyz
x,y,z
-x,-y,z
x,-y,-z
-x,y,-z
-x,-y,-z
x,y,-z
-x,y,z
x,-y,z
1/2+x,1/2+y,z
1/2-x,1/2-y,z
1/2+x,1/2-y,-z
1/2-x,1/2+y,-z
1/2-x,1/2-y,-z
1/2+x,1/2+y,-z
1/2-x,1/2+y,z
1/2+x,1/2-y,z
loop_
_atom_site_type_symbol
_atom_site_label
_atom_site_fract_x
_atom_site_fract_y
_atom_site_fract_z
Si Si1 0.842201 0.907451 0.742231
Si Si2 0.841198 0.091214 0.500000
Si Si3 0.837017 0.407500 0.500000
Si Si4 0.409916 0.274475 0.129653
Si Si5 0.090861 0.500000 0.876792
Si Si6 0.837751 0.637370 0.741038
O O1 0.876938 0.880508 0.619168
O O2 0.892144 0.864074 0.837087
O O3 0.752488 0.883263 0.749263
O O4 0.849781 0.000000 0.761123
O O5 0.752261 0.115266 0.500000
O O6 0.848110 0.000000 0.500000
O O7 0.852415 0.500000 0.500000
O O8 0.870966 0.368896 0.386571
O O9 0.500000 0.255142 0.149503
O O10 0.355205 0.222506 0.209445
O O11 0.387506 0.261421 0.000000
O O12 0.114923 0.422629 0.814427
O O13 0.000000 0.500000 0.888915
O O14 0.129707 0.500000 0.000000
#
# Coordination Sequence:
#
# PCOD8272549 Si02
#       6
#    16   8   8  16   8  16
#     4  10  20  39  66  94 117 153 202 252 300 355
#     4   7  14  31  59  89 120 146 181 238 303 359
#     4   9  16  33  60  92 126 155 189 243 306 359
#     4  11  26  44  58  80 123 168 203 248 305 360
#     4  11  22  35  55  83 120 163 197 234 291 352
#     4  11  20  39  63  90 121 156 199 246 297 360
#
# _framework density 20.450126000000001
#
# number of rings (size 3 to 8) (size 9 to 14) (size 15 to 20)
#    0.000    1.889    2.222    3.333    0.000    6.222 
#    0.000    8.889    0.000    2.000    0.000    0.000 
#    0.000    0.000    0.000    0.000    0.000    0.000 
#
# Total GULP energy -446139.923704 kJ/mol
# GULP energy per Si atom -12392.775658 kJ/mol
# Density = 2.040358 g / cm^3
# Si number density = 20.450126 Si / 1000 Ang^3
#
#
#
# Elastic Constant Matrix: (Units=GPa)
#
#
# Indices 1 2 3 4 5 6 
#
# 1 24.9265 15.1761 27.3745 0.0000 0.0000 0.0000
# 2 15.1761 103.5720 57.4894 0.0000 0.0000 0.0000
# 3 27.3745 57.4894 171.9227 0.0000 0.0000 0.0000
# 4 0.0000 0.0000 0.0000 41.1691 0.0000 0.0000
# 5 0.0000 0.0000 0.0000 0.0000 49.3754 0.0000
# 6 0.0000 0.0000 0.0000 0.0000 0.0000 230.4071
#
#
#
# Elastic Compliance Matrix: (Units=1/GPa)
#
#
# Indices 1 2 3 4 5 6 
#
# 1 0.049658 -0.003545 -0.006721 0.000000 0.000000 0.000000
# 2 -0.003545 0.012109 -0.003485 0.000000 0.000000 0.000000
# 3 -0.006721 -0.003485 0.008052 0.000000 0.000000 0.000000
# 4 0.000000 0.000000 0.000000 0.024290 0.000000 0.000000
# 5 0.000000 0.000000 0.000000 0.000000 0.020253 0.000000
# 6 0.000000 0.000000 0.000000 0.000000 0.000000 0.004340
#
#
# Mechanical properties :
#
#
# Convention : Reuss Voigt Hill
#
# Bulk Modulus (GPa) = 23.63165 55.61124 39.62145
# Shear Modulus (GPa) = 31.18963 77.54908 54.36935
#
# Velocity S-wave (km/s) = 3.90956 6.16469 5.16179
# Velocity P-wave (km/s) = 5.65335 8.82745 7.41229
#
# Compressibility (1/GPa) = 0.04231613
#
# Stress axis : x y z
#
# Youngs Moduli (GPa) = 20.13779 82.58473 124.19350
#
# Poissons Ratio (x) = 0.29280 0.83473
# Poissons Ratio (y) = 0.07140 0.43276
# Poissons Ratio (z) = 0.13535 0.28777
#
# Static dielectric constant tensor:
#      x y z
#    x 3.351370 0.000000 0.000000 
#    y 0.000000 3.797350 0.000000 
#    z 0.000000 0.000000 4.419590 
# 
# 
# High freq. dielectric constant tensor:
#      x y z
#    x 1.767010 0.000000 0.000000 
#    y 0.000000 1.795590 0.000000 
#    z 0.000000 0.000000 1.822580 
# 
# From -- ./inp_files/26391.got.cif
#   From: 2010.03.12/outbox.cif.g09.slc.cpg/sg65_14_cif.got.tgz:26391.got - 2010.04.10 20:52:16.
