data_PCOD8272043
_publ_section_title
;
Structure prediction by ZEFSAII (Michael W. Deem and Ramdas Pophale) SiO2 
 PCOD8272043
Probable space group: C M M M
;
_chemical_formula_sum "Si O2"
_cell_formula_units_Z 96
_cell_length_a 11.250113
_cell_length_b 17.620060
_cell_length_c 25.513619
_cell_angle_alpha 90.000000
_cell_angle_beta 90.000000
_cell_angle_gamma 90.000000
_cell_volume 5057.505147
_symmetry_space_group_name_H-M "C M M M"
_symmetry_group_IT_number 65
_symmetry_cell_setting 'orthorhombic'
loop_
_space_group_symop_operation_xyz
x,y,z
-x,-y,z
x,-y,-z
-x,y,-z
-x,-y,-z
x,y,-z
-x,y,z
x,-y,z
1/2+x,1/2+y,z
1/2-x,1/2-y,z
1/2+x,1/2-y,-z
1/2-x,1/2+y,-z
1/2-x,1/2-y,-z
1/2+x,1/2+y,-z
1/2-x,1/2+y,z
1/2+x,1/2-y,z
loop_
_atom_site_type_symbol
_atom_site_label
_atom_site_fract_x
_atom_site_fract_y
_atom_site_fract_z
Si Si1 0.862466 0.583459 0.161958
Si Si2 0.747210 0.909189 0.056733
Si Si3 0.364667 0.413083 0.652085
Si Si4 0.269460 0.338693 0.750266
Si Si5 0.500000 0.586878 0.795732
Si Si6 0.134812 0.198975 0.439846
Si Si7 0.500000 0.415416 0.080641
O O1 0.801254 0.500000 0.168441
O O2 0.820903 0.623766 0.107594
O O3 0.838045 0.632046 0.213865
O O4 0.000000 0.572541 0.156659
O O5 0.881108 0.875483 0.059185
O O6 0.745199 0.000000 0.061232
O O7 0.691933 0.884501 0.000000
O O8 0.500000 0.404075 0.674072
O O9 0.328993 0.500000 0.645042
O O10 0.271861 0.374960 0.692292
O O11 0.353533 0.375610 0.595273
O O12 0.250000 0.250000 0.743153
O O13 0.387991 0.363456 0.779546
O O14 0.500000 0.500000 0.772137
O O15 0.500000 0.582127 0.857307
O O16 0.145895 0.173596 0.500000
O O17 0.250000 0.250000 0.425058
O O18 0.000000 0.235386 0.430657
O O19 0.500000 0.500000 0.057771
#
# Coordination Sequence:
#
# PCOD8272043 Si02
#       7
#    16  16  16  16   8  16   8
#     4  10  21  36  53  75 108 148 184 224 283 354
#     4   9  16  27  47  77 107 134 173 230 285 334
#     4  10  20  35  58  86 115 152 198 246 294 347
#     4  12  24  36  57  82 112 144 189 241 292 349
#     4  11  20  37  62  83 106 147 192 235 288 348
#     4   9  18  34  57  87 123 162 201 247 300 352
#     4   9  15  26  49  80 106 130 173 232 286 331
#
# _framework density 18.981691999999999
#
# number of rings (size 3 to 8) (size 9 to 14) (size 15 to 20)
#    0.000    2.000    2.500    2.250    1.167    1.667 
#    0.000    4.167    0.000    2.000    0.000    2.333 
#    0.000    0.000    0.000    0.000    0.000    0.000 
#
# Total GULP energy -594656.845241 kJ/mol
# GULP energy per Si atom -12388.684276 kJ/mol
# Density = 1.893849 g / cm^3
# Si number density = 18.981692 Si / 1000 Ang^3
#
#
#
# Elastic Constant Matrix: (Units=GPa)
#
#
# Indices 1 2 3 4 5 6 
#
# 1 81.4899 39.7612 37.2360 0.0000 0.0000 0.0000
# 2 39.7612 103.8358 53.3373 0.0000 0.0000 0.0000
# 3 37.2360 53.3373 121.2953 0.0000 0.0000 0.0000
# 4 0.0000 0.0000 0.0000 12.6070 0.0000 0.0000
# 5 0.0000 0.0000 0.0000 0.0000 15.7618 0.0000
# 6 0.0000 0.0000 0.0000 0.0000 0.0000 36.0975
#
#
#
# Elastic Compliance Matrix: (Units=1/GPa)
#
#
# Indices 1 2 3 4 5 6 
#
# 1 0.015809 -0.004600 -0.002831 0.000000 0.000000 0.000000
# 2 -0.004600 0.013779 -0.004647 0.000000 0.000000 0.000000
# 3 -0.002831 -0.004647 0.011157 0.000000 0.000000 0.000000
# 4 0.000000 0.000000 0.000000 0.079321 0.000000 0.000000
# 5 0.000000 0.000000 0.000000 0.000000 0.063444 0.000000
# 6 0.000000 0.000000 0.000000 0.000000 0.000000 0.027703
#
#
# Mechanical properties :
#
#
# Convention : Reuss Voigt Hill
#
# Bulk Modulus (GPa) = 60.27619 63.03221 61.65420
# Shear Modulus (GPa) = 20.75571 24.64571 22.70071
#
# Velocity S-wave (km/s) = 3.31034 3.60723 3.46197
# Velocity P-wave (km/s) = 6.81432 7.11537 6.96647
#
# Compressibility (1/GPa) = 0.01659030
#
# Stress axis : x y z
#
# Youngs Moduli (GPa) = 63.25434 72.57447 89.63221
#
# Poissons Ratio (x) = 0.33382 0.25371
# Poissons Ratio (y) = 0.29095 0.41652
# Poissons Ratio (z) = 0.17905 0.33725
#
# Static dielectric constant tensor:
#      x y z
#    x 3.814030 0.000000 0.000000 
#    y 0.000000 3.136300 0.000000 
#    z 0.000000 0.000000 3.670620 
# 
# 
# High freq. dielectric constant tensor:
#      x y z
#    x 1.733060 0.000000 0.000000 
#    y 0.000000 1.690910 0.000000 
#    z 0.000000 0.000000 1.758040 
# 
# From -- ./inp_files/69056.got.cif
#   From: 2010.03.12/outbox.cif.g09.slc.cpg/sg65_35_cif.got.tgz:69056.got - 2010.04.10 20:52:16.
