data_PCOD8272424
_publ_section_title
;
Structure prediction by ZEFSAII (Michael W. Deem and Ramdas Pophale) SiO2 
 PCOD8272424
Probable space group: C M M M
;
_chemical_formula_sum "Si O2"
_cell_formula_units_Z 64
_cell_length_a 24.438204
_cell_length_b 8.844616
_cell_length_c 14.891733
_cell_angle_alpha 90.000000
_cell_angle_beta 90.000000
_cell_angle_gamma 90.000000
_cell_volume 3218.796415
_symmetry_space_group_name_H-M "C M M M"
_symmetry_group_IT_number 65
_symmetry_cell_setting 'orthorhombic'
loop_
_space_group_symop_operation_xyz
x,y,z
-x,-y,z
x,-y,-z
-x,y,-z
-x,-y,-z
x,y,-z
-x,y,z
x,-y,z
1/2+x,1/2+y,z
1/2-x,1/2-y,z
1/2+x,1/2-y,-z
1/2-x,1/2+y,-z
1/2-x,1/2-y,-z
1/2+x,1/2+y,-z
1/2-x,1/2+y,z
1/2+x,1/2-y,z
loop_
_atom_site_type_symbol
_atom_site_label
_atom_site_fract_x
_atom_site_fract_y
_atom_site_fract_z
Si Si1 0.388098 0.179148 0.857438
Si Si2 0.308733 0.821996 0.500000
Si Si3 0.609371 0.176908 0.349093
Si Si4 0.809904 0.819398 0.000000
Si Si5 0.000000 0.828850 0.859109
Si Si6 0.000000 0.168209 0.646164
O O1 0.378855 0.223707 0.753506
O O2 0.446327 0.240691 0.893495
O O3 0.385752 0.000000 0.873293
O O4 0.340242 0.261182 0.911176
O O5 0.250000 0.750000 0.500000
O O6 0.340473 0.767789 0.410589
O O7 0.301870 0.000000 0.500000
O O8 0.554354 0.250183 0.388714
O O9 0.600198 0.000000 0.356932
O O10 0.750000 0.750000 0.000000
O O11 0.807166 0.000000 0.000000
O O12 0.000000 0.829172 0.752834
O O13 0.000000 0.000000 0.897320
O O14 0.000000 0.000000 0.607250
#
# Coordination Sequence:
#
# PCOD8272424 Si02
#       6
#    16   8  16   8   8   8
#     4  10  20  37  60  86 114 147 185 229 278 330
#     4  10  22  39  56  79 109 146 190 232 273 324
#     4   9  19  36  58  82 113 149 183 222 275 331
#     4  12  26  43  60  81 110 146 188 234 278 330
#     4   9  17  32  55  86 118 148 182 224 275 333
#     4   9  17  30  53  84 115 144 181 226 273 325
#
# _framework density 19.883209000000001
#
# number of rings (size 3 to 8) (size 9 to 14) (size 15 to 20)
#    0.000    2.250    0.000    2.625    0.000    7.000 
#    0.000    7.500    0.000    0.000    0.000    0.000 
#    0.000    0.000    0.000    0.000    0.000    0.000 
#
# Total GULP energy -396827.166988 kJ/mol
# GULP energy per Si atom -12400.848968 kJ/mol
# Density = 1.983795 g / cm^3
# Si number density = 19.883209 Si / 1000 Ang^3
#
#
#
# Elastic Constant Matrix: (Units=GPa)
#
#
# Indices 1 2 3 4 5 6 
#
# 1 209.0456 77.2914 79.7885 0.0000 0.0000 0.0000
# 2 77.2914 107.2910 47.0564 0.0000 0.0000 0.0000
# 3 79.7885 47.0564 103.3284 0.0000 0.0000 0.0000
# 4 0.0000 0.0000 0.0000 19.9712 0.0000 0.0000
# 5 0.0000 0.0000 0.0000 0.0000 49.2770 0.0000
# 6 0.0000 0.0000 0.0000 0.0000 0.0000 43.1764
#
#
#
# Elastic Compliance Matrix: (Units=1/GPa)
#
#
# Indices 1 2 3 4 5 6 
#
# 1 0.007819 -0.003729 -0.004339 0.000000 0.000000 0.000000
# 2 -0.003729 0.013426 -0.003234 0.000000 0.000000 0.000000
# 3 -0.004339 -0.003234 0.014501 0.000000 0.000000 0.000000
# 4 0.000000 0.000000 0.000000 0.050072 0.000000 0.000000
# 5 0.000000 0.000000 0.000000 0.000000 0.020293 0.000000
# 6 0.000000 0.000000 0.000000 0.000000 0.000000 0.023161
#
#
# Mechanical properties :
#
#
# Convention : Reuss Voigt Hill
#
# Bulk Modulus (GPa) = 76.10310 91.99306 84.04808
# Shear Modulus (GPa) = 31.99845 36.85350 34.42597
#
# Velocity S-wave (km/s) = 4.01599 4.30990 4.16553
# Velocity P-wave (km/s) = 7.73708 8.43410 8.09310
#
# Compressibility (1/GPa) = 0.01314007
#
# Stress axis : x y z
#
# Youngs Moduli (GPa) = 127.89890 74.48448 68.95924
#
# Poissons Ratio (x) = 0.27779 0.29922
# Poissons Ratio (y) = 0.47699 0.22303
# Poissons Ratio (z) = 0.55496 0.24090
#
# Static dielectric constant tensor:
#      x y z
#    x 3.963600 0.000000 0.000000 
#    y 0.000000 3.694760 0.000000 
#    z 0.000000 0.000000 3.707700 
# 
# 
# High freq. dielectric constant tensor:
#      x y z
#    x 1.776560 0.000000 0.000000 
#    y 0.000000 1.779150 0.000000 
#    z 0.000000 0.000000 1.776540 
# 
# From -- ./inp_files/45131.got.cif
#   From: 2010.03.12/outbox.cif.g09.slc.cpg/sg65_23_cif.got.tgz:45131.got - 2010.04.10 20:52:16.
