data_PCOD8272609
_publ_section_title
;
Structure prediction by ZEFSAII (Michael W. Deem and Ramdas Pophale) SiO2 
 PCOD8272609
Probable space group: C M M M
;
_chemical_formula_sum "Si O2"
_cell_formula_units_Z 112
_cell_length_a 19.175722
_cell_length_b 20.215617
_cell_length_c 15.359236
_cell_angle_alpha 90.000000
_cell_angle_beta 90.000000
_cell_angle_gamma 90.000000
_cell_volume 5953.993269
_symmetry_space_group_name_H-M "C M M M"
_symmetry_group_IT_number 65
_symmetry_cell_setting 'orthorhombic'
loop_
_space_group_symop_operation_xyz
x,y,z
-x,-y,z
x,-y,-z
-x,y,-z
-x,-y,-z
x,y,-z
-x,y,z
x,-y,z
1/2+x,1/2+y,z
1/2-x,1/2-y,z
1/2+x,1/2-y,-z
1/2-x,1/2+y,-z
1/2-x,1/2-y,-z
1/2+x,1/2+y,-z
1/2-x,1/2+y,z
1/2+x,1/2-y,z
loop_
_atom_site_type_symbol
_atom_site_label
_atom_site_fract_x
_atom_site_fract_y
_atom_site_fract_z
Si Si1 0.706483 0.077746 0.902805
Si Si2 0.280420 0.423510 0.272581
Si Si3 0.920678 0.339678 0.150325
Si Si4 0.281999 0.818821 0.402087
Si Si5 0.079328 0.861681 0.267500
Si Si6 0.923743 0.716018 0.339478
Si Si7 0.581738 0.700969 0.906105
O O1 0.761103 0.099049 0.826643
O O2 0.628803 0.100677 0.877403
O O3 0.702910 0.000000 0.906882
O O4 0.728296 0.104557 0.000000
O O5 0.260786 0.500000 0.287876
O O6 0.236839 0.379115 0.339468
O O7 0.362598 0.414486 0.296859
O O8 0.918824 0.327891 0.253199
O O9 0.886962 0.274296 0.105481
O O10 0.000000 0.355385 0.119847
O O11 0.255359 0.833608 0.500000
O O12 0.250000 0.750000 0.366027
O O13 0.365499 0.809611 0.405570
O O14 0.087098 0.793713 0.319808
O O15 0.102948 0.850527 0.167529
O O16 0.000000 0.889746 0.276102
O O17 0.000000 0.706540 0.382446
O O18 0.500000 0.713123 0.895508
O O19 0.602786 0.671234 0.000000
#
# Coordination Sequence:
#
# PCOD8272609 Si02
#       7
#    16  16  16  16  16  16  16
#     4  10  21  34  48  71 105 149 197 235 273 325
#     4  11  23  39  58  80 115 155 188 236 285 328
#     4   9  16  28  49  74 104 143 184 229 282 334
#     4  11  22  38  63  90 113 146 190 232 278 340
#     4   9  18  33  55  80 108 145 185 227 280 339
#     4   9  17  33  58  86 114 142 178 232 285 330
#     4   8  14  25  44  73 104 133 174 229 279 321
#
# _framework density 18.810904000000001
#
# number of rings (size 3 to 8) (size 9 to 14) (size 15 to 20)
#    0.000    2.429    2.857    2.143    0.000    2.571 
#    0.000    0.714    0.000    3.857    0.000    6.000 
#    0.000    0.000    0.000    0.000    0.000    0.000 
#
# Total GULP energy -693853.678848 kJ/mol
# GULP energy per Si atom -12390.244265 kJ/mol
# Density = 1.876809 g / cm^3
# Si number density = 18.810904 Si / 1000 Ang^3
#
#
#
# Elastic Constant Matrix: (Units=GPa)
#
#
# Indices 1 2 3 4 5 6 
#
# 1 114.5457 39.6378 24.4127 0.0000 0.0000 0.0000
# 2 39.6378 47.2905 39.4773 0.0000 0.0000 0.0000
# 3 24.4127 39.4773 69.8314 0.0000 0.0000 0.0000
# 4 0.0000 0.0000 0.0000 17.2608 0.0000 0.0000
# 5 0.0000 0.0000 0.0000 0.0000 17.7087 0.0000
# 6 0.0000 0.0000 0.0000 0.0000 0.0000 23.7877
#
#
#
# Elastic Compliance Matrix: (Units=1/GPa)
#
#
# Indices 1 2 3 4 5 6 
#
# 1 0.012613 -0.013050 0.002968 0.000000 0.000000 0.000000
# 2 -0.013050 0.053544 -0.025708 0.000000 0.000000 0.000000
# 3 0.002968 -0.025708 0.027816 0.000000 0.000000 0.000000
# 4 0.000000 0.000000 0.000000 0.057935 0.000000 0.000000
# 5 0.000000 0.000000 0.000000 0.000000 0.056470 0.000000
# 6 0.000000 0.000000 0.000000 0.000000 0.000000 0.042039
#
#
# Mechanical properties :
#
#
# Convention : Reuss Voigt Hill
#
# Bulk Modulus (GPa) = 44.65446 48.74700 46.70073
# Shear Modulus (GPa) = 15.17635 20.29408 17.73522
#
# Velocity S-wave (km/s) = 2.84348 3.28814 3.07386
# Velocity P-wave (km/s) = 5.87968 6.35502 6.12197
#
# Compressibility (1/GPa) = 0.02239418
#
# Stress axis : x y z
#
# Youngs Moduli (GPa) = 79.28092 18.67621 35.95073
#
# Poissons Ratio (x) = 0.24372 -0.10669
# Poissons Ratio (y) = 1.03458 0.92421
# Poissons Ratio (z) = -0.23528 0.48012
#
# Static dielectric constant tensor:
#      x y z
#    x 3.457930 0.000000 0.000000 
#    y 0.000000 3.116440 0.000000 
#    z 0.000000 0.000000 3.509180 
# 
# 
# High freq. dielectric constant tensor:
#      x y z
#    x 1.730760 0.000000 0.000000 
#    y 0.000000 1.699520 0.000000 
#    z 0.000000 0.000000 1.721090 
# 
# From -- ./inp_files/54884.got.cif
#   From: 2010.03.12/outbox.cif.g09.slc.cpg/sg65_28_cif.got.tgz:54884.got - 2010.04.10 20:52:16.
