data_PCOD8272569
_publ_section_title
;
Structure prediction by ZEFSAII (Michael W. Deem and Ramdas Pophale) SiO2 
 PCOD8272569
Probable space group: C M M M
;
_chemical_formula_sum "Si O2"
_cell_formula_units_Z 128
_cell_length_a 18.694730
_cell_length_b 23.064177
_cell_length_c 17.968627
_cell_angle_alpha 90.000000
_cell_angle_beta 90.000000
_cell_angle_gamma 90.000000
_cell_volume 7747.686745
_symmetry_space_group_name_H-M "C M M M"
_symmetry_group_IT_number 65
_symmetry_cell_setting 'orthorhombic'
loop_
_space_group_symop_operation_xyz
x,y,z
-x,-y,z
x,-y,-z
-x,y,-z
-x,-y,-z
x,y,-z
-x,y,z
x,-y,z
1/2+x,1/2+y,z
1/2-x,1/2-y,z
1/2+x,1/2-y,-z
1/2-x,1/2+y,-z
1/2-x,1/2-y,-z
1/2+x,1/2+y,-z
1/2-x,1/2+y,z
1/2+x,1/2-y,z
loop_
_atom_site_type_symbol
_atom_site_label
_atom_site_fract_x
_atom_site_fract_y
_atom_site_fract_z
Si Si1 0.919320 0.669040 0.414588
Si Si2 0.316015 0.433305 0.585913
Si Si3 0.578836 0.433465 0.156756
Si Si4 0.793275 0.374384 0.218288
Si Si5 0.829843 0.735998 0.703694
Si Si6 0.862083 0.863579 0.282221
Si Si7 0.657705 0.065751 0.643298
Si Si8 0.726951 0.567738 0.914939
O O1 0.908316 0.685752 0.500000
O O2 0.865776 0.707097 0.366786
O O3 0.901963 0.601673 0.400957
O O4 0.000000 0.681505 0.388963
O O5 0.330916 0.418984 0.500000
O O6 0.335724 0.500000 0.604658
O O7 0.365959 0.389785 0.634172
O O8 0.233203 0.422090 0.603804
O O9 0.500000 0.424913 0.118898
O O10 0.589089 0.500000 0.181271
O O11 0.578977 0.394148 0.230853
O O12 0.643843 0.415609 0.101851
O O13 0.824942 0.308617 0.225597
O O14 0.714488 0.380166 0.250573
O O15 0.841527 0.416566 0.269139
O O16 0.785604 0.395884 0.133040
O O17 0.750000 0.750000 0.677110
O O18 0.873666 0.794186 0.722795
O O19 0.633644 0.000000 0.637170
O O20 0.739587 0.500000 0.898994
O O21 0.742369 0.583859 0.000000
#
# Coordination Sequence:
#
# PCOD8272569 Si02
#       8
#    16  16  16  16  16  16  16  16
#     4  10  21  33  42  59  90 119 144 184 232 266
#     4   9  16  25  40  64  88 106 133 182 237 275
#     4   9  17  28  42  61  86 116 147 177 211 258
#     4   8  15  28  43  63  90 110 134 178 219 251
#     4   9  18  31  48  65  82 112 155 192 221 260
#     4   9  16  27  44  61  79 108 148 185 219 259
#     4   9  16  27  44  62  81 111 145 171 205 260
#     4   9  16  26  44  70  95 116 137 167 216 271
#
# _framework density 16.521059999999999
#
# number of rings (size 3 to 8) (size 9 to 14) (size 15 to 20)
#    0.000    3.000    0.000    1.875    0.000    5.500 
#    0.000    1.875    0.000    9.750    0.000    1.750 
#    0.000    8.000    0.000   27.500    0.000    0.000 
#
# Total GULP energy -793146.251622 kJ/mol
# GULP energy per Si atom -12392.910182 kJ/mol
# Density = 1.648346 g / cm^3
# Si number density = 16.521060 Si / 1000 Ang^3
#
#
#
# Elastic Constant Matrix: (Units=GPa)
#
#
# Indices 1 2 3 4 5 6 
#
# 1 34.2779 25.2036 24.4560 0.0000 0.0000 0.0000
# 2 25.2036 90.1966 40.7877 0.0000 0.0000 0.0000
# 3 24.4560 40.7877 96.1212 0.0000 0.0000 0.0000
# 4 0.0000 0.0000 0.0000 18.7244 0.0000 0.0000
# 5 0.0000 0.0000 0.0000 0.0000 15.0194 0.0000
# 6 0.0000 0.0000 0.0000 0.0000 0.0000 12.1907
#
#
#
# Elastic Compliance Matrix: (Units=1/GPa)
#
#
# Indices 1 2 3 4 5 6 
#
# 1 0.039936 -0.008123 -0.006714 0.000000 0.000000 0.000000
# 2 -0.008123 0.015372 -0.004456 0.000000 0.000000 0.000000
# 3 -0.006714 -0.004456 0.014003 0.000000 0.000000 0.000000
# 4 0.000000 0.000000 0.000000 0.053406 0.000000 0.000000
# 5 0.000000 0.000000 0.000000 0.000000 0.066581 0.000000
# 6 0.000000 0.000000 0.000000 0.000000 0.000000 0.082030
#
#
# Mechanical properties :
#
#
# Convention : Reuss Voigt Hill
#
# Bulk Modulus (GPa) = 32.54758 44.61004 38.57881
# Shear Modulus (GPa) = 15.61741 17.86345 16.74043
#
# Velocity S-wave (km/s) = 3.07791 3.29181 3.18666
# Velocity P-wave (km/s) = 5.68989 6.44271 6.07797
#
# Compressibility (1/GPa) = 0.03072425
#
# Stress axis : x y z
#
# Youngs Moduli (GPa) = 25.03983 65.05401 71.41525
#
# Poissons Ratio (x) = 0.52845 0.47948
# Poissons Ratio (y) = 0.20341 0.31823
# Poissons Ratio (z) = 0.16812 0.28988
#
# Static dielectric constant tensor:
#      x y z
#    x 2.879380 0.000000 0.000000 
#    y 0.000000 3.266090 0.000000 
#    z 0.000000 0.000000 3.055610 
# 
# 
# High freq. dielectric constant tensor:
#      x y z
#    x 1.603350 0.000000 0.000000 
#    y 0.000000 1.637640 0.000000 
#    z 0.000000 0.000000 1.617380 
# 
# From -- ./inp_files/55143.got.cif
#   From: 2010.03.12/outbox.cif.g09.slc.cpg/sg65_28_cif.got.tgz:55143.got - 2010.04.10 20:52:16.
