data_PCOD8272865
_publ_section_title
;
Structure prediction by ZEFSAII (Michael W. Deem and Ramdas Pophale) SiO2 
 PCOD8272865
Probable space group: C M M M
;
_chemical_formula_sum "Si O2"
_cell_formula_units_Z 88
_cell_length_a 7.858765
_cell_length_b 19.404098
_cell_length_c 29.386585
_cell_angle_alpha 90.000000
_cell_angle_beta 90.000000
_cell_angle_gamma 90.000000
_cell_volume 4481.226355
_symmetry_space_group_name_H-M "C M M M"
_symmetry_group_IT_number 65
_symmetry_cell_setting 'orthorhombic'
loop_
_space_group_symop_operation_xyz
x,y,z
-x,-y,z
x,-y,-z
-x,y,-z
-x,-y,-z
x,y,-z
-x,y,z
x,-y,z
1/2+x,1/2+y,z
1/2-x,1/2-y,z
1/2+x,1/2-y,-z
1/2-x,1/2+y,-z
1/2-x,1/2-y,-z
1/2+x,1/2+y,-z
1/2-x,1/2+y,z
1/2+x,1/2-y,z
loop_
_atom_site_type_symbol
_atom_site_label
_atom_site_fract_x
_atom_site_fract_y
_atom_site_fract_z
Si Si1 0.309746 0.178423 0.303637
Si Si2 0.806333 0.081238 0.227758
Si Si3 0.294781 0.827957 0.595373
Si Si4 0.699250 0.174199 0.949253
Si Si5 0.697209 0.425349 0.870801
Si Si6 0.000000 0.079758 0.446231
O O1 0.500000 0.189985 0.317961
O O2 0.250000 0.250000 0.280875
O O3 0.297435 0.117354 0.267403
O O4 0.225423 0.162597 0.352453
O O5 0.730599 0.102565 0.177648
O O6 0.000000 0.105809 0.233064
O O7 0.787398 0.000000 0.233852
O O8 0.500000 0.842690 0.588359
O O9 0.250000 0.750000 0.579336
O O10 0.175863 0.882160 0.568648
O O11 0.500000 0.164726 0.949016
O O12 0.750000 0.250000 0.933554
O O13 0.779171 0.123430 0.913323
O O14 0.772109 0.159132 0.000000
O O15 0.500000 0.436029 0.861470
O O16 0.779204 0.500000 0.882541
O O17 0.000000 0.079945 0.500000
O O18 0.000000 0.000000 0.428235
#
# Coordination Sequence:
#
# PCOD8272865 Si02
#       6
#    16  16  16  16  16   8
#     4  10  21  35  57  85 115 149 190 237 285 335
#     4   9  19  35  54  78 109 146 184 223 272 331
#     4  10  21  41  66  94 126 165 215 264 309 373
#     4  10  21  36  54  76 101 132 172 219 273 330
#     4   9  19  36  55  76 105 140 179 221 267 326
#     4  11  26  44  64  96 133 169 211 261 321 377
#
# _framework density 19.637483
#
# number of rings (size 3 to 8) (size 9 to 14) (size 15 to 20)
#    0.000    2.273    0.909    2.182    2.545    5.455 
#    0.000    6.364    0.000    0.000    0.000    0.000 
#    0.000    0.000    0.000    0.000    0.000    0.000 
#
# Total GULP energy -545139.782807 kJ/mol
# GULP energy per Si atom -12389.540518 kJ/mol
# Density = 1.959279 g / cm^3
# Si number density = 19.637483 Si / 1000 Ang^3
#
#
#
# Elastic Constant Matrix: (Units=GPa)
#
#
# Indices 1 2 3 4 5 6 
#
# 1 70.5120 31.7326 24.2913 0.0000 0.0000 0.0000
# 2 31.7326 108.2534 66.1671 0.0000 0.0000 0.0000
# 3 24.2913 66.1671 107.1419 0.0000 0.0000 0.0000
# 4 0.0000 0.0000 0.0000 49.0508 0.0000 0.0000
# 5 0.0000 0.0000 0.0000 0.0000 26.7070 0.0000
# 6 0.0000 0.0000 0.0000 0.0000 0.0000 27.9354
#
#
#
# Elastic Compliance Matrix: (Units=1/GPa)
#
#
# Indices 1 2 3 4 5 6 
#
# 1 0.016434 -0.004080 -0.001206 0.000000 0.000000 0.000000
# 2 -0.004080 0.015852 -0.008864 0.000000 0.000000 0.000000
# 3 -0.001206 -0.008864 0.015081 0.000000 0.000000 0.000000
# 4 0.000000 0.000000 0.000000 0.020387 0.000000 0.000000
# 5 0.000000 0.000000 0.000000 0.000000 0.037443 0.000000
# 6 0.000000 0.000000 0.000000 0.000000 0.000000 0.035797
#
#
# Mechanical properties :
#
#
# Convention : Reuss Voigt Hill
#
# Bulk Modulus (GPa) = 52.45113 58.92103 55.68608
# Shear Modulus (GPa) = 28.46564 31.65306 30.05935
#
# Velocity S-wave (km/s) = 3.81143 4.01917 3.91668
# Velocity P-wave (km/s) = 6.79243 7.18385 6.99088
#
# Compressibility (1/GPa) = 0.01906537
#
# Stress axis : x y z
#
# Youngs Moduli (GPa) = 60.85084 63.08456 66.30739
#
# Poissons Ratio (x) = 0.25738 0.07998
# Poissons Ratio (y) = 0.24827 0.58778
# Poissons Ratio (z) = 0.07340 0.55921
#
# Static dielectric constant tensor:
#      x y z
#    x 3.614950 0.000000 0.000000 
#    y 0.000000 3.511640 0.000000 
#    z 0.000000 0.000000 3.705820 
# 
# 
# High freq. dielectric constant tensor:
#      x y z
#    x 1.764370 0.000000 0.000000 
#    y 0.000000 1.757670 0.000000 
#    z 0.000000 0.000000 1.770540 
# 
# From -- ./inp_files/76627.got.cif
#   From: 2010.03.12/outbox.cif.g09.slc.cpg/sg65_39_cif.got.tgz:76627.got - 2010.04.10 20:52:16.
