data_PCOD8272292
_publ_section_title
;
Structure prediction by ZEFSAII (Michael W. Deem and Ramdas Pophale) SiO2 
 PCOD8272292
Probable space group: C M M M
;
_chemical_formula_sum "Si O2"
_cell_formula_units_Z 72
_cell_length_a 8.785245
_cell_length_b 15.800362
_cell_length_c 24.865813
_cell_angle_alpha 90.000000
_cell_angle_beta 90.000000
_cell_angle_gamma 90.000000
_cell_volume 3451.624777
_symmetry_space_group_name_H-M "C M M M"
_symmetry_group_IT_number 65
_symmetry_cell_setting 'orthorhombic'
loop_
_space_group_symop_operation_xyz
x,y,z
-x,-y,z
x,-y,-z
-x,y,-z
-x,-y,-z
x,y,-z
-x,y,z
x,-y,z
1/2+x,1/2+y,z
1/2-x,1/2-y,z
1/2+x,1/2-y,-z
1/2-x,1/2+y,-z
1/2-x,1/2-y,-z
1/2+x,1/2+y,-z
1/2-x,1/2+y,z
1/2+x,1/2-y,z
loop_
_atom_site_type_symbol
_atom_site_label
_atom_site_fract_x
_atom_site_fract_y
_atom_site_fract_z
Si Si1 0.825849 0.000000 0.436402
Si Si2 0.326710 0.600562 0.724634
Si Si3 0.332380 0.097490 0.830045
Si Si4 0.819901 0.341373 0.942073
Si Si5 0.679783 0.838917 0.619445
O O1 0.745463 0.915611 0.415441
O O2 0.816347 0.000000 0.500000
O O3 0.000000 0.000000 0.415704
O O4 0.500000 0.628359 0.714814
O O5 0.308109 0.500000 0.718428
O O6 0.277429 0.634196 0.783797
O O7 0.220023 0.646857 0.681804
O O8 0.500000 0.140704 0.826596
O O9 0.260072 0.108049 0.889821
O O10 0.351462 0.000000 0.817998
O O11 0.750000 0.250000 0.938239
O O12 0.000000 0.335154 0.939727
O O13 0.772209 0.383274 0.000000
O O14 0.500000 0.835728 0.611885
O O15 0.750000 0.750000 0.599174
#
# Coordination Sequence:
#
# PCOD8272292 Si02
#       5
#     8  16  16  16  16
#     4  11  25  47  73 101 137 177 216 263 316 369
#     4  10  20  36  59  85 120 159 199 249 309 373
#     4   9  18  32  51  76 106 141 186 236 290 355
#     4   9  18  32  49  69  96 134 178 229 289 352
#     4  12  25  42  68  99 133 173 219 267 317 376
#
# _framework density 20.859739999999999
#
# number of rings (size 3 to 8) (size 9 to 14) (size 15 to 20)
#    0.000    1.889    1.111    3.000    0.000    4.444 
#    0.000    4.444    0.000    0.000    0.000    6.222 
#    0.000    0.000    0.000    0.000    0.000    0.000 
#
# Total GULP energy -446192.070454 kJ/mol
# GULP energy per Si atom -12394.224179 kJ/mol
# Density = 2.081226 g / cm^3
# Si number density = 20.859740 Si / 1000 Ang^3
#
#
#
# Elastic Constant Matrix: (Units=GPa)
#
#
# Indices 1 2 3 4 5 6 
#
# 1 124.1043 52.6122 52.8244 0.0000 0.0000 0.0000
# 2 52.6122 89.6870 41.6069 0.0000 0.0000 0.0000
# 3 52.8244 41.6069 122.9414 0.0000 0.0000 0.0000
# 4 0.0000 0.0000 0.0000 12.2217 0.0000 0.0000
# 5 0.0000 0.0000 0.0000 0.0000 28.4384 0.0000
# 6 0.0000 0.0000 0.0000 0.0000 0.0000 30.0563
#
#
#
# Elastic Compliance Matrix: (Units=1/GPa)
#
#
# Indices 1 2 3 4 5 6 
#
# 1 0.011703 -0.005377 -0.003209 0.000000 0.000000 0.000000
# 2 -0.005377 0.015697 -0.003002 0.000000 0.000000 0.000000
# 3 -0.003209 -0.003002 0.010529 0.000000 0.000000 0.000000
# 4 0.000000 0.000000 0.000000 0.081822 0.000000 0.000000
# 5 0.000000 0.000000 0.000000 0.000000 0.035164 0.000000
# 6 0.000000 0.000000 0.000000 0.000000 0.000000 0.033271
#
#
# Mechanical properties :
#
#
# Convention : Reuss Voigt Hill
#
# Bulk Modulus (GPa) = 67.78125 70.09108 68.93617
# Shear Modulus (GPa) = 23.11851 26.78921 24.95386
#
# Velocity S-wave (km/s) = 3.33270 3.58754 3.46246
# Velocity P-wave (km/s) = 6.88284 7.12984 7.00743
#
# Compressibility (1/GPa) = 0.01475334
#
# Stress axis : x y z
#
# Youngs Moduli (GPa) = 85.44924 63.70832 94.97885
#
# Poissons Ratio (x) = 0.34253 0.30477
# Poissons Ratio (y) = 0.45942 0.28513
# Poissons Ratio (z) = 0.27419 0.19125
#
# Static dielectric constant tensor:
#      x y z
#    x 3.840500 0.000000 0.000000 
#    y 0.000000 3.622120 0.000000 
#    z 0.000000 0.000000 4.199120 
# 
# 
# High freq. dielectric constant tensor:
#      x y z
#    x 1.813330 0.000000 0.000000 
#    y 0.000000 1.798240 0.000000 
#    z 0.000000 0.000000 1.833740 
# 
# From -- ./inp_files/72528.got.cif
#   From: 2010.03.12/outbox.cif.g09.slc.cpg/sg65_37_cif.got.tgz:72528.got - 2010.04.10 20:52:16.
