data_PCOD8272249
_publ_section_title
;
Structure prediction by ZEFSAII (Michael W. Deem and Ramdas Pophale) SiO2 
 PCOD8272249
Probable space group: C M M M
;
_chemical_formula_sum "Si O2"
_cell_formula_units_Z 88
_cell_length_a 22.286962
_cell_length_b 22.059425
_cell_length_c 9.158477
_cell_angle_alpha 90.000000
_cell_angle_beta 90.000000
_cell_angle_gamma 90.000000
_cell_volume 4502.651347
_symmetry_space_group_name_H-M "C M M M"
_symmetry_group_IT_number 65
_symmetry_cell_setting 'orthorhombic'
loop_
_space_group_symop_operation_xyz
x,y,z
-x,-y,z
x,-y,-z
-x,y,-z
-x,-y,-z
x,y,-z
-x,y,z
x,-y,z
1/2+x,1/2+y,z
1/2-x,1/2-y,z
1/2+x,1/2-y,-z
1/2-x,1/2+y,-z
1/2-x,1/2-y,-z
1/2+x,1/2+y,-z
1/2-x,1/2+y,z
1/2+x,1/2-y,z
loop_
_atom_site_type_symbol
_atom_site_label
_atom_site_fract_x
_atom_site_fract_y
_atom_site_fract_z
Si Si1 0.340379 0.602336 0.168151
Si Si2 0.068821 0.000000 0.173475
Si Si3 0.382788 0.290284 0.671325
Si Si4 0.500000 0.709959 0.837055
Si Si5 0.618641 0.150876 0.328803
Si Si6 0.206897 0.568029 0.164788
Si Si7 0.500000 0.853496 0.836614
O O1 0.394613 0.559567 0.226491
O O2 0.333509 0.663887 0.263905
O O3 0.278115 0.567293 0.188387
O O4 0.350961 0.620507 0.000000
O O5 0.000000 0.000000 0.234183
O O6 0.068559 0.000000 0.000000
O O7 0.389550 0.298513 0.500000
O O8 0.442981 0.313335 0.749398
O O9 0.367823 0.220878 0.711486
O O10 0.500000 0.781767 0.843907
O O11 0.500000 0.681778 0.000000
O O12 0.607909 0.143209 0.500000
O O13 0.675718 0.112712 0.278847
O O14 0.559458 0.125174 0.248444
O O15 0.183362 0.500000 0.192265
O O16 0.191096 0.589109 0.000000
O O17 0.500000 0.881394 0.000000
#
# Coordination Sequence:
#
# PCOD8272249 Si02
#       7
#    16   8  16   8  16  16   8
#     4  10  20  36  58  83 112 149 194 239 285 339
#     4   9  18  34  57  85 115 148 192 241 284 328
#     4  10  21  35  52  81 118 150 182 231 288 338
#     4   9  17  31  53  79 109 147 189 224 269 336
#     4  10  21  37  58  84 117 153 187 228 282 343
#     4  10  21  39  60  81 110 148 192 241 289 337
#     4   9  17  33  58  86 114 144 181 227 278 330
#
# _framework density 19.544039999999999
#
# number of rings (size 3 to 8) (size 9 to 14) (size 15 to 20)
#    0.000    2.273    0.909    1.636    1.273    6.182 
#    0.000    4.545    0.000    3.273    0.000    0.000 
#    0.000    0.000    0.000    0.000    0.000    0.000 
#
# Total GULP energy -545555.988050 kJ/mol
# GULP energy per Si atom -12398.999728 kJ/mol
# Density = 1.949956 g / cm^3
# Si number density = 19.544040 Si / 1000 Ang^3
#
#
#
# Elastic Constant Matrix: (Units=GPa)
#
#
# Indices 1 2 3 4 5 6 
#
# 1 89.1702 44.4009 39.4866 0.0000 0.0000 0.0000
# 2 44.4009 92.6060 50.0815 0.0000 0.0000 0.0000
# 3 39.4866 50.0815 95.8654 0.0000 0.0000 0.0000
# 4 0.0000 0.0000 0.0000 25.3138 0.0000 0.0000
# 5 0.0000 0.0000 0.0000 0.0000 27.6235 0.0000
# 6 0.0000 0.0000 0.0000 0.0000 0.0000 30.9536
#
#
#
# Elastic Compliance Matrix: (Units=1/GPa)
#
#
# Indices 1 2 3 4 5 6 
#
# 1 0.015528 -0.005556 -0.003493 0.000000 0.000000 0.000000
# 2 -0.005556 0.017038 -0.006613 0.000000 0.000000 0.000000
# 3 -0.003493 -0.006613 0.015325 0.000000 0.000000 0.000000
# 4 0.000000 0.000000 0.000000 0.039504 0.000000 0.000000
# 5 0.000000 0.000000 0.000000 0.000000 0.036201 0.000000
# 6 0.000000 0.000000 0.000000 0.000000 0.000000 0.032306
#
#
# Mechanical properties :
#
#
# Convention : Reuss Voigt Hill
#
# Bulk Modulus (GPa) = 60.36013 60.61997 60.49005
# Shear Modulus (GPa) = 25.94048 26.35635 26.14841
#
# Velocity S-wave (km/s) = 3.64714 3.67626 3.66173
# Velocity P-wave (km/s) = 6.97759 7.00745 6.99253
#
# Compressibility (1/GPa) = 0.01656723
#
# Stress axis : x y z
#
# Youngs Moduli (GPa) = 64.40029 58.69117 65.25354
#
# Poissons Ratio (x) = 0.32607 0.22796
# Poissons Ratio (y) = 0.35779 0.43150
# Poissons Ratio (z) = 0.22498 0.38811
#
# Static dielectric constant tensor:
#      x y z
#    x 3.542140 0.000000 0.000000 
#    y 0.000000 3.384390 0.000000 
#    z 0.000000 0.000000 3.467140 
# 
# 
# High freq. dielectric constant tensor:
#      x y z
#    x 1.757110 0.000000 0.000000 
#    y 0.000000 1.751860 0.000000 
#    z 0.000000 0.000000 1.751310 
# 
# From -- ./inp_files/11893.got.cif
#   From: 2010.03.12/outbox.cif.g09.slc.cpg/sg65_6_cif.got.tgz:11893.got - 2010.04.10 20:52:16.
