data_PCOD8272478
_publ_section_title
;
Structure prediction by ZEFSAII (Michael W. Deem and Ramdas Pophale) SiO2 
 PCOD8272478
Probable space group: C M M M
;
_chemical_formula_sum "Si O2"
_cell_formula_units_Z 56
_cell_length_a 18.155385
_cell_length_b 16.314627
_cell_length_c 10.120543
_cell_angle_alpha 90.000000
_cell_angle_beta 90.000000
_cell_angle_gamma 90.000000
_cell_volume 2997.687979
_symmetry_space_group_name_H-M "C M M M"
_symmetry_group_IT_number 65
_symmetry_cell_setting 'orthorhombic'
loop_
_space_group_symop_operation_xyz
x,y,z
-x,-y,z
x,-y,-z
-x,y,-z
-x,-y,-z
x,y,-z
-x,y,z
x,-y,z
1/2+x,1/2+y,z
1/2-x,1/2-y,z
1/2+x,1/2-y,-z
1/2-x,1/2+y,-z
1/2-x,1/2-y,-z
1/2+x,1/2+y,-z
1/2-x,1/2+y,z
1/2+x,1/2-y,z
loop_
_atom_site_type_symbol
_atom_site_label
_atom_site_fract_x
_atom_site_fract_y
_atom_site_fract_z
Si Si1 0.822162 0.655415 0.657809
Si Si2 0.158849 0.833349 0.739102
Si Si3 0.921388 0.906417 0.500000
Si Si4 0.087476 0.096486 0.000000
Si Si5 0.417286 0.000000 0.656323
O O1 0.807762 0.656439 0.500000
O O2 0.860792 0.739352 0.703479
O O3 0.745932 0.648920 0.737287
O O4 0.873983 0.580826 0.703471
O O5 0.124231 0.889969 0.629579
O O6 0.123895 0.858230 0.876952
O O7 0.000000 0.858142 0.500000
O O8 0.940624 0.000000 0.500000
O O9 0.000000 0.110373 0.000000
O O10 0.106444 0.000000 0.000000
O O11 0.500000 0.000000 0.716628
O O12 0.422314 0.000000 0.500000
#
# Coordination Sequence:
#
# PCOD8272478 Si02
#       5
#    16  16   8   8   8
#     4  10  20  37  62  95 121 151 208 257 297 366
#     4  11  21  39  62  85 120 163 200 254 308 358
#     4  11  22  33  56  91 117 152 205 254 310 364
#     4  11  26  43  58  87 127 166 207 250 304 370
#     4   9  20  34  54  89 128 159 187 243 319 369
#
# _framework density 18.681063000000002
#
# number of rings (size 3 to 8) (size 9 to 14) (size 15 to 20)
#    0.000    1.571    2.857    2.571    4.000    6.857 
#    0.000    0.000    0.000    0.000    0.000    3.000 
#    0.000    0.000    0.000    0.000    0.000    0.000 
#
# Total GULP energy -347160.390887 kJ/mol
# GULP energy per Si atom -12398.585389 kJ/mol
# Density = 1.863854 g / cm^3
# Si number density = 18.681063 Si / 1000 Ang^3
#
#
#
# Elastic Constant Matrix: (Units=GPa)
#
#
# Indices 1 2 3 4 5 6 
#
# 1 106.2022 67.2125 36.3679 0.0000 0.0000 0.0000
# 2 67.2125 139.2474 37.0866 0.0000 0.0000 0.0000
# 3 36.3679 37.0866 116.8660 0.0000 0.0000 0.0000
# 4 0.0000 0.0000 0.0000 4.5033 0.0000 0.0000
# 5 0.0000 0.0000 0.0000 0.0000 586.3576 0.0000
# 6 0.0000 0.0000 0.0000 0.0000 0.0000 73.4414
#
#
#
# Elastic Compliance Matrix: (Units=1/GPa)
#
#
# Indices 1 2 3 4 5 6 
#
# 1 0.014170 -0.006188 -0.002446 0.000000 0.000000 0.000000
# 2 -0.006188 0.010547 -0.001421 0.000000 0.000000 0.000000
# 3 -0.002446 -0.001421 0.009769 0.000000 0.000000 0.000000
# 4 0.000000 0.000000 0.000000 0.222061 0.000000 0.000000
# 5 0.000000 0.000000 0.000000 0.000000 0.001705 0.000000
# 6 0.000000 0.000000 0.000000 0.000000 0.000000 0.013616
#
#
# Mechanical properties :
#
#
# Convention : Reuss Voigt Hill
#
# Bulk Modulus (GPa) = 69.56391 71.51664 70.54027
# Shear Modulus (GPa) = 16.84804 147.63701 82.24252
#
# Velocity S-wave (km/s) = 3.00639 8.89954 6.64230
# Velocity P-wave (km/s) = 7.02635 11.99869 9.83204
#
# Compressibility (1/GPa) = 0.01437527
#
# Stress axis : x y z
#
# Youngs Moduli (GPa) = 70.57231 94.81436 102.36504
#
# Poissons Ratio (x) = 0.58673 0.25036
# Poissons Ratio (y) = 0.43671 0.14549
# Poissons Ratio (z) = 0.17261 0.13476
#
# Static dielectric constant tensor:
#      x y z
#    x 3.675580 0.000000 0.000000 
#    y 0.000000 3.639670 0.000000 
#    z 0.000000 0.000000 3.164540 
# 
# 
# High freq. dielectric constant tensor:
#      x y z
#    x 1.738330 0.000000 0.000000 
#    y 0.000000 1.738220 0.000000 
#    z 0.000000 0.000000 1.698780 
# 
# From -- ./inp_files/8528.got.cif
#   From: 2010.03.12/outbox.cif.g09.slc.cpg/sg65_5_cif.got.tgz:8528.got - 2010.04.10 20:52:16.
