data_PCOD8272137
_publ_section_title
;
Structure prediction by ZEFSAII (Michael W. Deem and Ramdas Pophale) SiO2 
 PCOD8272137
Probable space group: C M M M
;
_chemical_formula_sum "Si O2"
_cell_formula_units_Z 120
_cell_length_a 7.989911
_cell_length_b 28.411015
_cell_length_c 25.702115
_cell_angle_alpha 90.000000
_cell_angle_beta 90.000000
_cell_angle_gamma 90.000000
_cell_volume 5834.418177
_symmetry_space_group_name_H-M "C M M M"
_symmetry_group_IT_number 65
_symmetry_cell_setting 'orthorhombic'
loop_
_space_group_symop_operation_xyz
x,y,z
-x,-y,z
x,-y,-z
-x,y,-z
-x,-y,-z
x,y,-z
-x,y,z
x,-y,z
1/2+x,1/2+y,z
1/2-x,1/2-y,z
1/2+x,1/2-y,-z
1/2-x,1/2+y,-z
1/2-x,1/2-y,-z
1/2+x,1/2+y,-z
1/2-x,1/2+y,z
1/2+x,1/2-y,z
loop_
_atom_site_type_symbol
_atom_site_label
_atom_site_fract_x
_atom_site_fract_y
_atom_site_fract_z
Si Si1 0.307307 0.382936 0.060870
Si Si2 0.194722 0.197199 0.860607
Si Si3 0.698210 0.303404 0.655275
Si Si4 0.807334 0.142923 0.443277
Si Si5 0.500000 0.947435 0.938429
Si Si6 0.804639 0.148613 0.241389
Si Si7 0.301922 0.051832 0.273828
Si Si8 0.804486 0.447045 0.608291
O O1 0.500000 0.398908 0.073769
O O2 0.258777 0.334691 0.089872
O O3 0.172055 0.421829 0.079679
O O4 0.287893 0.372694 0.000000
O O5 0.250000 0.250000 0.871782
O O6 0.278156 0.175097 0.808272
O O7 0.000000 0.197069 0.851311
O O8 0.500000 0.309232 0.654344
O O9 0.750000 0.250000 0.659186
O O10 0.777115 0.325846 0.602542
O O11 0.774539 0.330421 0.705456
O O12 0.723222 0.152922 0.500000
O O13 0.792034 0.087892 0.429834
O O14 0.000000 0.156499 0.447301
O O15 0.500000 0.000000 0.914191
O O16 0.500000 0.950508 0.000000
O O17 0.771221 0.092630 0.237026
O O18 0.000000 0.158191 0.241524
O O19 0.500000 0.053417 0.272090
O O20 0.239343 0.060359 0.332779
O O21 0.240239 0.000000 0.254796
O O22 0.765513 0.500000 0.589849
O O23 0.000000 0.436165 0.605031
#
# Coordination Sequence:
#
# PCOD8272137 Si02
#       8
#    16  16  16  16   8  16  16  16
#     4   9  19  37  59  86 123 162 202 250 300 353
#     4  10  22  37  56  84 115 151 194 238 288 341
#     4  10  21  36  54  75  99 131 170 213 264 318
#     4  10  21  36  52  73 101 130 165 210 256 308
#     4   9  18  34  60  92 122 160 210 254 298 356
#     4  10  20  36  56  80 109 140 179 224 270 327
#     4   9  18  33  54  80 107 137 175 216 263 321
#     4   9  18  33  53  77 104 133 167 207 252 308
#
# _framework density 20.567603999999999
#
# number of rings (size 3 to 8) (size 9 to 14) (size 15 to 20)
#    0.000    2.467    1.333    1.200    0.933    3.467 
#    0.000    4.667    0.000    2.400    0.000    0.000 
#    0.000    0.000    0.000    0.000    0.000    0.000 
#
# Total GULP energy -743695.339300 kJ/mol
# GULP energy per Si atom -12394.922322 kJ/mol
# Density = 2.052079 g / cm^3
# Si number density = 20.567604 Si / 1000 Ang^3
#
#
#
# Elastic Constant Matrix: (Units=GPa)
#
#
# Indices 1 2 3 4 5 6 
#
# 1 40.9387 32.3927 31.0040 0.0000 0.0000 0.0000
# 2 32.3927 170.6775 67.2421 0.0000 0.0000 0.0000
# 3 31.0040 67.2421 97.9372 0.0000 0.0000 0.0000
# 4 0.0000 0.0000 0.0000 32.1977 0.0000 0.0000
# 5 0.0000 0.0000 0.0000 0.0000 13.0457 0.0000
# 6 0.0000 0.0000 0.0000 0.0000 0.0000 34.1556
#
#
#
# Elastic Compliance Matrix: (Units=1/GPa)
#
#
# Indices 1 2 3 4 5 6 
#
# 1 0.033186 -0.002960 -0.008473 0.000000 0.000000 0.000000
# 2 -0.002960 0.008296 -0.004758 0.000000 0.000000 0.000000
# 3 -0.008473 -0.004758 0.016160 0.000000 0.000000 0.000000
# 4 0.000000 0.000000 0.000000 0.031058 0.000000 0.000000
# 5 0.000000 0.000000 0.000000 0.000000 0.076653 0.000000
# 6 0.000000 0.000000 0.000000 0.000000 0.000000 0.029278
#
#
# Mechanical properties :
#
#
# Convention : Reuss Voigt Hill
#
# Bulk Modulus (GPa) = 39.59170 63.42566 51.50868
# Shear Modulus (GPa) = 21.23737 27.80744 24.52241
#
# Velocity S-wave (km/s) = 3.21684 3.68095 3.45669
# Velocity P-wave (km/s) = 5.75228 6.99789 6.40543
#
# Compressibility (1/GPa) = 0.02525782
#
# Stress axis : x y z
#
# Youngs Moduli (GPa) = 30.13317 120.54722 61.88069
#
# Poissons Ratio (x) = 0.35683 0.52434
# Poissons Ratio (y) = 0.08920 0.29446
# Poissons Ratio (z) = 0.25533 0.57362
#
# Static dielectric constant tensor:
#      x y z
#    x 3.523690 0.000000 0.000000 
#    y 0.000000 3.824830 0.000000 
#    z 0.000000 0.000000 3.910870 
# 
# 
# High freq. dielectric constant tensor:
#      x y z
#    x 1.783980 0.000000 0.000000 
#    y 0.000000 1.807810 0.000000 
#    z 0.000000 0.000000 1.794540 
# 
# From -- ./inp_files/73932.got.cif
#   From: 2010.03.12/outbox.cif.g09.slc.cpg/sg65_37_cif.got.tgz:73932.got - 2010.04.10 20:52:16.
