data_PCOD8272115
_publ_section_title
;
Structure prediction by ZEFSAII (Michael W. Deem and Ramdas Pophale) SiO2 
 PCOD8272115
Probable space group: C M M M
;
_chemical_formula_sum "Si O2"
_cell_formula_units_Z 104
_cell_length_a 15.233515
_cell_length_b 17.842135
_cell_length_c 20.348513
_cell_angle_alpha 90.000000
_cell_angle_beta 90.000000
_cell_angle_gamma 90.000000
_cell_volume 5530.693910
_symmetry_space_group_name_H-M "C M M M"
_symmetry_group_IT_number 65
_symmetry_cell_setting 'orthorhombic'
loop_
_space_group_symop_operation_xyz
x,y,z
-x,-y,z
x,-y,-z
-x,y,-z
-x,-y,-z
x,y,-z
-x,y,z
x,-y,z
1/2+x,1/2+y,z
1/2-x,1/2-y,z
1/2+x,1/2-y,-z
1/2-x,1/2+y,-z
1/2-x,1/2-y,-z
1/2+x,1/2+y,-z
1/2-x,1/2+y,z
1/2+x,1/2-y,z
loop_
_atom_site_type_symbol
_atom_site_label
_atom_site_fract_x
_atom_site_fract_y
_atom_site_fract_z
Si Si1 0.095947 0.812423 0.180602
Si Si2 0.103952 0.000000 0.427202
Si Si3 0.899348 0.417406 0.272631
Si Si4 0.762845 0.415081 0.155080
Si Si5 0.838834 0.705792 0.071674
Si Si6 0.652605 0.237718 0.308945
Si Si7 0.396424 0.338667 0.575620
O O1 0.172423 0.873532 0.174206
O O2 0.102393 0.746581 0.126382
O O3 0.092989 0.774865 0.252831
O O4 0.000000 0.850819 0.171272
O O5 0.133145 0.079120 0.394611
O O6 0.143729 0.000000 0.500000
O O7 0.000000 0.000000 0.432282
O O8 0.887125 0.500000 0.306227
O O9 0.832404 0.410018 0.213151
O O10 0.874722 0.349149 0.321439
O O11 0.000000 0.409168 0.248219
O O12 0.738401 0.500000 0.137070
O O13 0.811892 0.377970 0.093355
O O14 0.750000 0.750000 0.063801
O O15 0.886429 0.702245 0.000000
O O16 0.750000 0.250000 0.281362
O O17 0.647564 0.276041 0.379973
O O18 0.365562 0.329539 0.500000
O O19 0.500000 0.329569 0.580181
#
# Coordination Sequence:
#
# PCOD8272115 Si02
#       7
#    16   8  16  16  16  16  16
#     4  11  21  36  56  81 115 153 191 232 282 341
#     4   7  12  28  50  74 108 142 174 214 266 337
#     4  10  20  36  58  79 105 146 189 231 283 341
#     4  10  20  36  55  81 115 147 185 232 285 344
#     4   9  18  34  55  79 107 143 187 229 271 324
#     4  12  21  36  55  81 113 146 191 246 291 337
#     4   9  18  33  55  82 111 147 189 232 283 345
#
# _framework density 18.804151999999998
#
# number of rings (size 3 to 8) (size 9 to 14) (size 15 to 20)
#    0.000    2.077    3.077    2.769    0.000    1.231 
#    2.769    0.000    0.000    0.462    0.000    9.692 
#    0.000    0.000    0.000    0.000    0.000    0.000 
#
# Total GULP energy -644193.407507 kJ/mol
# GULP energy per Si atom -12388.334760 kJ/mol
# Density = 1.876135 g / cm^3
# Si number density = 18.804152 Si / 1000 Ang^3
#
#
#
# Elastic Constant Matrix: (Units=GPa)
#
#
# Indices 1 2 3 4 5 6 
#
# 1 98.7128 43.2250 18.4730 0.0000 0.0000 0.0000
# 2 43.2250 167.1378 51.0268 0.0000 0.0000 0.0000
# 3 18.4730 51.0268 87.4012 0.0000 0.0000 0.0000
# 4 0.0000 0.0000 0.0000 45.6407 0.0000 0.0000
# 5 0.0000 0.0000 0.0000 0.0000 1.6366 0.0000
# 6 0.0000 0.0000 0.0000 0.0000 0.0000 23.0597
#
#
#
# Elastic Compliance Matrix: (Units=1/GPa)
#
#
# Indices 1 2 3 4 5 6 
#
# 1 0.011475 -0.002710 -0.000843 0.000000 0.000000 0.000000
# 2 -0.002710 0.007921 -0.004052 0.000000 0.000000 0.000000
# 3 -0.000843 -0.004052 0.013985 0.000000 0.000000 0.000000
# 4 0.000000 0.000000 0.000000 0.021910 0.000000 0.000000
# 5 0.000000 0.000000 0.000000 0.000000 0.611023 0.000000
# 6 0.000000 0.000000 0.000000 0.000000 0.000000 0.043366
#
#
# Mechanical properties :
#
#
# Convention : Reuss Voigt Hill
#
# Bulk Modulus (GPa) = 55.03204 64.30016 59.66610
# Shear Modulus (GPa) = 6.84045 30.10254 18.47149
#
# Velocity S-wave (km/s) = 1.90935 4.00540 3.13758
# Velocity P-wave (km/s) = 5.84724 7.46055 6.70262
#
# Compressibility (1/GPa) = 0.01817123
#
# Stress axis : x y z
#
# Youngs Moduli (GPa) = 87.14636 126.24743 71.50481
#
# Poissons Ratio (x) = 0.34216 0.06028
# Poissons Ratio (y) = 0.23619 0.28971
# Poissons Ratio (z) = 0.07347 0.51150
#
# Static dielectric constant tensor:
#      x y z
#    x 3.364680 0.000000 0.000000 
#    y 0.000000 3.855290 0.000000 
#    z 0.000000 0.000000 3.433830 
# 
# 
# High freq. dielectric constant tensor:
#      x y z
#    x 1.721360 0.000000 0.000000 
#    y 0.000000 1.737320 0.000000 
#    z 0.000000 0.000000 1.703690 
# 
# From -- ./inp_files/62824.got.cif
#   From: 2010.03.12/outbox.cif.g09.slc.cpg/sg65_32_cif.got.tgz:62824.got - 2010.04.10 20:52:16.
