data_PCOD8272226
_publ_section_title
;
Structure prediction by ZEFSAII (Michael W. Deem and Ramdas Pophale) SiO2 
 PCOD8272226
Probable space group: C M M M
;
_chemical_formula_sum "Si O2"
_cell_formula_units_Z 96
_cell_length_a 8.796733
_cell_length_b 29.962103
_cell_length_c 18.944257
_cell_angle_alpha 90.000000
_cell_angle_beta 90.000000
_cell_angle_gamma 90.000000
_cell_volume 4993.111678
_symmetry_space_group_name_H-M "C M M M"
_symmetry_group_IT_number 65
_symmetry_cell_setting 'orthorhombic'
loop_
_space_group_symop_operation_xyz
x,y,z
-x,-y,z
x,-y,-z
-x,y,-z
-x,-y,-z
x,y,-z
-x,y,z
x,-y,z
1/2+x,1/2+y,z
1/2-x,1/2-y,z
1/2+x,1/2-y,-z
1/2-x,1/2+y,-z
1/2-x,1/2-y,-z
1/2+x,1/2+y,-z
1/2-x,1/2+y,z
1/2+x,1/2-y,z
loop_
_atom_site_type_symbol
_atom_site_label
_atom_site_fract_x
_atom_site_fract_y
_atom_site_fract_z
Si Si1 0.323710 0.374222 0.918635
Si Si2 0.680530 0.297265 0.313316
Si Si3 0.678879 0.949451 0.666084
Si Si4 0.678112 0.550385 0.188667
Si Si5 0.679921 0.797217 0.164703
Si Si6 0.677342 0.374111 0.580388
O O1 0.500000 0.362634 0.904956
O O2 0.273477 0.418289 0.876086
O O3 0.221544 0.332681 0.895190
O O4 0.291267 0.384450 0.000000
O O5 0.500000 0.293021 0.306389
O O6 0.750000 0.250000 0.336178
O O7 0.748821 0.313214 0.238795
O O8 0.731012 0.332624 0.372226
O O9 0.500000 0.946796 0.669214
O O10 0.742720 0.931641 0.740510
O O11 0.737532 0.919058 0.602602
O O12 0.735351 0.000000 0.652340
O O13 0.500000 0.552377 0.202420
O O14 0.731509 0.500000 0.170770
O O15 0.500000 0.792503 0.172406
O O16 0.750000 0.750000 0.141705
O O17 0.720019 0.362812 0.500000
O O18 0.500000 0.382854 0.590152
#
# Coordination Sequence:
#
# PCOD8272226 Si02
#       6
#    16  16  16  16  16  16
#     4  10  21  36  54  79 112 145 176 216 266 316
#     4  10  20  36  58  82 108 138 176 220 264 313
#     4  10  21  36  55  80 108 139 178 224 270 314
#     4   9  18  34  57  82 107 140 181 220 260 311
#     4  11  22  37  58  81 106 138 179 223 266 315
#     4  10  22  38  55  78 109 144 179 216 262 317
#
# _framework density 19.226486999999999
#
# number of rings (size 3 to 8) (size 9 to 14) (size 15 to 20)
#    0.000    2.000    0.000    4.500    0.000    9.000 
#    0.000    3.333    0.000    0.000    0.000    3.500 
#    0.000    0.000    0.000    0.000    0.000    0.000 
#
# Total GULP energy -595412.338195 kJ/mol
# GULP energy per Si atom -12404.423712 kJ/mol
# Density = 1.918273 g / cm^3
# Si number density = 19.226487 Si / 1000 Ang^3
#
#
#
# Elastic Constant Matrix: (Units=GPa)
#
#
# Indices 1 2 3 4 5 6 
#
# 1 63.6046 29.2613 22.1170 0.0000 0.0000 0.0000
# 2 29.2613 88.8053 44.3283 0.0000 0.0000 0.0000
# 3 22.1170 44.3283 82.9403 0.0000 0.0000 0.0000
# 4 0.0000 0.0000 0.0000 22.5187 0.0000 0.0000
# 5 0.0000 0.0000 0.0000 0.0000 18.8475 0.0000
# 6 0.0000 0.0000 0.0000 0.0000 0.0000 30.4904
#
#
#
# Elastic Compliance Matrix: (Units=1/GPa)
#
#
# Indices 1 2 3 4 5 6 
#
# 1 0.018855 -0.005050 -0.002329 0.000000 0.000000 0.000000
# 2 -0.005050 0.016711 -0.007584 0.000000 0.000000 0.000000
# 3 -0.002329 -0.007584 0.016731 0.000000 0.000000 0.000000
# 4 0.000000 0.000000 0.000000 0.044407 0.000000 0.000000
# 5 0.000000 0.000000 0.000000 0.000000 0.053057 0.000000
# 6 0.000000 0.000000 0.000000 0.000000 0.000000 0.032797
#
#
# Mechanical properties :
#
#
# Convention : Reuss Voigt Hill
#
# Bulk Modulus (GPa) = 44.70229 47.41816 46.06023
# Shear Modulus (GPa) = 22.73314 23.68089 23.20701
#
# Velocity S-wave (km/s) = 3.44232 3.51334 3.47801
# Velocity P-wave (km/s) = 6.25302 6.41674 6.33541
#
# Compressibility (1/GPa) = 0.02237022
#
# Stress axis : x y z
#
# Youngs Moduli (GPa) = 53.03533 59.84249 59.76784
#
# Poissons Ratio (x) = 0.30223 0.13919
# Poissons Ratio (y) = 0.26785 0.45330
# Poissons Ratio (z) = 0.12351 0.45387
#
# Static dielectric constant tensor:
#      x y z
#    x 3.460320 0.000000 0.000000 
#    y 0.000000 3.676500 0.000000 
#    z 0.000000 0.000000 3.491810 
# 
# 
# High freq. dielectric constant tensor:
#      x y z
#    x 1.746370 0.000000 0.000000 
#    y 0.000000 1.757410 0.000000 
#    z 0.000000 0.000000 1.743530 
# 
# From -- ./inp_files/60212.got.cif
#   From: 2010.03.12/outbox.cif.g09.slc.cpg/sg65_31_cif.got.tgz:60212.got - 2010.04.10 20:52:16.
