data_PCOD8272833
_publ_section_title
;
Structure prediction by ZEFSAII (Michael W. Deem and Ramdas Pophale) SiO2 
 PCOD8272833
Probable space group: C M M M
;
_chemical_formula_sum "Si O2"
_cell_formula_units_Z 104
_cell_length_a 31.711867
_cell_length_b 18.889977
_cell_length_c 9.027899
_cell_angle_alpha 90.000000
_cell_angle_beta 90.000000
_cell_angle_gamma 90.000000
_cell_volume 5408.040462
_symmetry_space_group_name_H-M "C M M M"
_symmetry_group_IT_number 65
_symmetry_cell_setting 'orthorhombic'
loop_
_space_group_symop_operation_xyz
x,y,z
-x,-y,z
x,-y,-z
-x,y,-z
-x,-y,-z
x,y,-z
-x,y,z
x,-y,z
1/2+x,1/2+y,z
1/2-x,1/2-y,z
1/2+x,1/2-y,-z
1/2-x,1/2+y,-z
1/2-x,1/2-y,-z
1/2+x,1/2+y,-z
1/2-x,1/2+y,z
1/2+x,1/2-y,z
loop_
_atom_site_type_symbol
_atom_site_label
_atom_site_fract_x
_atom_site_fract_y
_atom_site_fract_z
Si Si1 0.747185 0.578834 0.675679
Si Si2 0.404279 0.312325 0.169328
Si Si3 0.167916 0.649924 0.674455
Si Si4 0.000000 0.583604 0.672606
Si Si5 0.581096 0.848201 0.174035
Si Si6 0.179802 0.809740 0.325415
Si Si7 0.549331 0.422634 0.337486
O O1 0.743278 0.580304 0.500000
O O2 0.735917 0.500000 0.735879
O O3 0.795286 0.595973 0.720491
O O4 0.715948 0.638872 0.742768
O O5 0.422288 0.235115 0.207851
O O6 0.364919 0.336416 0.267792
O O7 0.440238 0.368153 0.207418
O O8 0.390563 0.316505 0.000000
O O9 0.157919 0.648671 0.500000
O O10 0.125779 0.625430 0.760053
O O11 0.184658 0.727790 0.723751
O O12 0.957992 0.614177 0.747433
O O13 0.000000 0.500000 0.695878
O O14 0.000000 0.604304 0.500000
O O15 0.579539 0.865407 0.000000
O O16 0.181424 0.815728 0.500000
O O17 0.565281 0.396367 0.500000
O O18 0.500000 0.430459 0.341310
O O19 0.569215 0.500000 0.303024
#
# Coordination Sequence:
#
# PCOD8272833 Si02
#       7
#    16  16  16   8  16  16  16
#     4   9  17  29  49  78 106 134 175 228 277 317
#     4  10  21  35  53  79 110 143 181 223 270 322
#     4   9  17  32  54  78 105 139 181 225 268 318
#     4  11  25  43  63  87 112 141 180 225 273 324
#     4  10  22  39  58  83 114 146 181 221 272 332
#     4   9  17  31  51  74 102 138 179 220 268 321
#     4   9  19  35  53  75 103 137 179 224 270 321
#
# _framework density 19.230625
#
# number of rings (size 3 to 8) (size 9 to 14) (size 15 to 20)
#    0.000    2.538    0.000    2.077    1.077    6.154 
#    0.000    4.615    0.000    4.615    0.000    0.000 
#    0.000    0.000    0.000    0.000    0.000    0.000 
#
# Total GULP energy -644575.926150 kJ/mol
# GULP energy per Si atom -12395.690887 kJ/mol
# Density = 1.918685 g / cm^3
# Si number density = 19.230625 Si / 1000 Ang^3
#
#
#
# Elastic Constant Matrix: (Units=GPa)
#
#
# Indices 1 2 3 4 5 6 
#
# 1 119.4860 64.7622 40.4454 0.0000 0.0000 0.0000
# 2 64.7622 91.4148 36.1016 0.0000 0.0000 0.0000
# 3 40.4454 36.1016 41.3520 0.0000 0.0000 0.0000
# 4 0.0000 0.0000 0.0000 20.4094 0.0000 0.0000
# 5 0.0000 0.0000 0.0000 0.0000 10.0377 0.0000
# 6 0.0000 0.0000 0.0000 0.0000 0.0000 24.6201
#
#
#
# Elastic Compliance Matrix: (Units=1/GPa)
#
#
# Indices 1 2 3 4 5 6 
#
# 1 0.015280 -0.007513 -0.008386 0.000000 0.000000 0.000000
# 2 -0.007513 0.020390 -0.010452 0.000000 0.000000 0.000000
# 3 -0.008386 -0.010452 0.041509 0.000000 0.000000 0.000000
# 4 0.000000 0.000000 0.000000 0.048997 0.000000 0.000000
# 5 0.000000 0.000000 0.000000 0.000000 0.099624 0.000000
# 6 0.000000 0.000000 0.000000 0.000000 0.000000 0.040617
#
#
# Mechanical properties :
#
#
# Convention : Reuss Voigt Hill
#
# Bulk Modulus (GPa) = 40.85493 59.43013 50.14253
# Shear Modulus (GPa) = 15.27749 18.40968 16.84359
#
# Velocity S-wave (km/s) = 2.82163 3.09740 2.96273
# Velocity P-wave (km/s) = 5.64857 6.61535 6.15098
#
# Compressibility (1/GPa) = 0.02447685
#
# Stress axis : x y z
#
# Youngs Moduli (GPa) = 65.44537 49.04426 24.09088
#
# Poissons Ratio (x) = 0.36849 0.20201
# Poissons Ratio (y) = 0.49171 0.25180
# Poissons Ratio (z) = 0.54879 0.51262
#
# Static dielectric constant tensor:
#      x y z
#    x 3.537430 0.000000 0.000000 
#    y 0.000000 3.684490 0.000000 
#    z 0.000000 0.000000 3.321710 
# 
# 
# High freq. dielectric constant tensor:
#      x y z
#    x 1.749920 0.000000 0.000000 
#    y 0.000000 1.750320 0.000000 
#    z 0.000000 0.000000 1.723980 
# 
# From -- ./inp_files/18703.got.cif
#   From: 2010.03.12/outbox.cif.g09.slc.cpg/sg65_10_cif.got.tgz:18703.got - 2010.04.10 20:52:16.
