data_PCOD8272794
_publ_section_title
;
Structure prediction by ZEFSAII (Michael W. Deem and Ramdas Pophale) SiO2 
 PCOD8272794
Probable space group: C M M M
;
_chemical_formula_sum "Si O2"
_cell_formula_units_Z 104
_cell_length_a 19.029866
_cell_length_b 9.097153
_cell_length_c 32.362160
_cell_angle_alpha 90.000000
_cell_angle_beta 90.000000
_cell_angle_gamma 90.000000
_cell_volume 5602.459553
_symmetry_space_group_name_H-M "C M M M"
_symmetry_group_IT_number 65
_symmetry_cell_setting 'orthorhombic'
loop_
_space_group_symop_operation_xyz
x,y,z
-x,-y,z
x,-y,-z
-x,y,-z
-x,-y,-z
x,y,-z
-x,y,z
x,-y,z
1/2+x,1/2+y,z
1/2-x,1/2-y,z
1/2+x,1/2-y,-z
1/2-x,1/2+y,-z
1/2-x,1/2-y,-z
1/2+x,1/2+y,-z
1/2-x,1/2+y,z
1/2+x,1/2-y,z
loop_
_atom_site_type_symbol
_atom_site_label
_atom_site_fract_x
_atom_site_fract_y
_atom_site_fract_z
Si Si1 0.919055 0.828582 0.077187
Si Si2 0.824985 0.173034 0.000000
Si Si3 0.178974 0.829142 0.318320
Si Si4 0.320397 0.828376 0.453539
Si Si5 0.678976 0.671292 0.222237
Si Si6 0.082763 0.667776 0.839849
Si Si7 0.580919 0.828584 0.379916
O O1 0.893580 0.737132 0.116733
O O2 0.000000 0.793626 0.065651
O O3 0.909794 0.000000 0.087209
O O4 0.869732 0.777785 0.039733
O O5 0.750000 0.250000 0.000000
O O6 0.812635 0.000000 0.000000
O O7 0.250000 0.750000 0.333198
O O8 0.164580 0.799511 0.270296
O O9 0.113179 0.763822 0.342596
O O10 0.187297 0.000000 0.328313
O O11 0.340503 0.777417 0.500000
O O12 0.250000 0.750000 0.437855
O O13 0.383603 0.784136 0.423314
O O14 0.305180 0.000000 0.452160
O O15 0.685380 0.500000 0.212094
O O16 0.750000 0.750000 0.207576
O O17 0.614667 0.740669 0.197661
O O18 0.109052 0.500000 0.838246
O O19 0.000000 0.679119 0.834592
O O20 0.500000 0.785565 0.383765
O O21 0.591560 0.000000 0.370136
#
# Coordination Sequence:
#
# PCOD8272794 Si02
#       7
#    16   8  16  16  16  16  16
#     4   9  18  35  57  77 101 138 182 221 257 305
#     4  10  21  35  53  79 107 136 172 216 266 314
#     4  10  21  37  57  79 104 137 177 219 263 314
#     4   9  18  33  53  76 102 135 176 218 259 308
#     4  10  21  37  57  80 106 138 176 218 265 315
#     4  10  21  36  55  81 111 142 177 217 262 313
#     4  10  21  35  52  77 108 141 176 216 264 313
#
# _framework density 18.563275999999998
#
# number of rings (size 3 to 8) (size 9 to 14) (size 15 to 20)
#    0.000    2.308    0.000    2.077    0.000    8.000 
#    0.000    6.154    0.000    2.308    0.000    3.231 
#    0.000    0.000    0.000    0.000    0.000    0.000 
#
# Total GULP energy -645009.862637 kJ/mol
# GULP energy per Si atom -12404.035820 kJ/mol
# Density = 1.852103 g / cm^3
# Si number density = 18.563276 Si / 1000 Ang^3
#
#
#
# Elastic Constant Matrix: (Units=GPa)
#
#
# Indices 1 2 3 4 5 6 
#
# 1 118.9513 57.7037 74.1381 0.0000 0.0000 0.0000
# 2 57.7037 90.2249 63.2927 0.0000 0.0000 0.0000
# 3 74.1381 63.2927 107.5624 0.0000 0.0000 0.0000
# 4 0.0000 0.0000 0.0000 30.0688 0.0000 0.0000
# 5 0.0000 0.0000 0.0000 0.0000 35.7530 0.0000
# 6 0.0000 0.0000 0.0000 0.0000 0.0000 34.4118
#
#
#
# Elastic Compliance Matrix: (Units=1/GPa)
#
#
# Indices 1 2 3 4 5 6 
#
# 1 0.015598 -0.004145 -0.008312 0.000000 0.000000 0.000000
# 2 -0.004145 0.019976 -0.008897 0.000000 0.000000 0.000000
# 3 -0.008312 -0.008897 0.020262 0.000000 0.000000 0.000000
# 4 0.000000 0.000000 0.000000 0.033257 0.000000 0.000000
# 5 0.000000 0.000000 0.000000 0.000000 0.027970 0.000000
# 6 0.000000 0.000000 0.000000 0.000000 0.000000 0.029060
#
#
# Mechanical properties :
#
#
# Convention : Reuss Voigt Hill
#
# Bulk Modulus (GPa) = 76.18091 78.55640 77.36866
# Shear Modulus (GPa) = 25.87901 28.15368 27.01635
#
# Velocity S-wave (km/s) = 3.73781 3.89862 3.81906
# Velocity P-wave (km/s) = 7.73020 7.91680 7.82405
#
# Compressibility (1/GPa) = 0.01312665
#
# Stress axis : x y z
#
# Youngs Moduli (GPa) = 64.11006 50.06044 49.35429
#
# Poissons Ratio (x) = 0.20749 0.41024
# Poissons Ratio (y) = 0.26573 0.43913
# Poissons Ratio (z) = 0.53289 0.44541
#
# Static dielectric constant tensor:
#      x y z
#    x 3.377840 0.000000 0.000000 
#    y 0.000000 3.454440 0.000000 
#    z 0.000000 0.000000 3.509460 
# 
# 
# High freq. dielectric constant tensor:
#      x y z
#    x 1.716430 0.000000 0.000000 
#    y 0.000000 1.722840 0.000000 
#    z 0.000000 0.000000 1.728740 
# 
# From -- ./inp_files/75524.got.cif
#   From: 2010.03.12/outbox.cif.g09.slc.cpg/sg65_38_cif.got.tgz:75524.got - 2010.04.10 20:52:16.
