data_PCOD8272378
_publ_section_title
;
Structure prediction by ZEFSAII (Michael W. Deem and Ramdas Pophale) SiO2 
 PCOD8272378
Probable space group: C M M M
;
_chemical_formula_sum "Si O2"
_cell_formula_units_Z 96
_cell_length_a 25.513745
_cell_length_b 21.857351
_cell_length_c 9.091806
_cell_angle_alpha 90.000000
_cell_angle_beta 90.000000
_cell_angle_gamma 90.000000
_cell_volume 5070.162716
_symmetry_space_group_name_H-M "C M M M"
_symmetry_group_IT_number 65
_symmetry_cell_setting 'orthorhombic'
loop_
_space_group_symop_operation_xyz
x,y,z
-x,-y,z
x,-y,-z
-x,y,-z
-x,-y,-z
x,y,-z
-x,y,z
x,-y,z
1/2+x,1/2+y,z
1/2-x,1/2-y,z
1/2+x,1/2-y,-z
1/2-x,1/2+y,-z
1/2-x,1/2-y,-z
1/2+x,1/2+y,-z
1/2-x,1/2+y,z
1/2+x,1/2-y,z
loop_
_atom_site_type_symbol
_atom_site_label
_atom_site_fract_x
_atom_site_fract_y
_atom_site_fract_z
Si Si1 0.142694 0.343063 0.671725
Si Si2 0.799351 0.000000 0.325932
Si Si3 0.919180 0.000000 0.674049
Si Si4 0.142134 0.201036 0.671226
Si Si5 0.942157 0.121053 0.166843
Si Si6 0.242642 0.872618 0.674803
Si Si7 0.440075 0.069743 0.172974
O O1 0.140523 0.358300 0.500000
O O2 0.133465 0.272017 0.702650
O O3 0.200058 0.357636 0.738515
O O4 0.098365 0.383255 0.748062
O O5 0.859052 0.000000 0.277084
O O6 0.772648 0.939103 0.261047
O O7 0.794326 0.000000 0.500000
O O8 0.946047 0.059227 0.740747
O O9 0.926835 0.000000 0.500000
O O10 0.134650 0.184703 0.500000
O O11 0.098224 0.167563 0.763243
O O12 0.199784 0.178226 0.723325
O O13 0.000000 0.151221 0.170656
O O14 0.924961 0.106595 0.000000
O O15 0.245225 0.873259 0.500000
O O16 0.500000 0.084276 0.219462
O O17 0.425990 0.000000 0.218507
O O18 0.433385 0.078081 0.000000
#
# Coordination Sequence:
#
# PCOD8272378 Si02
#       7
#    16   8   8  16  16  16  16
#     4  10  21  34  58  90 115 142 180 231 282 328
#     4   9  16  28  54  85 109 141 182 222 267 327
#     4  11  20  36  61  86 110 145 191 235 283 335
#     4  10  20  37  57  80 112 151 191 227 271 332
#     4  11  24  39  55  79 112 150 192 238 286 331
#     4   9  17  32  54  83 116 145 180 226 277 329
#     4   9  20  40  61  79 107 148 186 222 273 339
#
# _framework density 18.934303
#
# number of rings (size 3 to 8) (size 9 to 14) (size 15 to 20)
#    0.000    2.167    1.667    2.000    1.167    6.333 
#    0.000    5.000    0.000    2.000    0.000    0.000 
#    0.000    0.000    0.000    0.000    0.000    0.000 
#
# Total GULP energy -595119.299052 kJ/mol
# GULP energy per Si atom -12398.318730 kJ/mol
# Density = 1.889121 g / cm^3
# Si number density = 18.934303 Si / 1000 Ang^3
#
#
#
# Elastic Constant Matrix: (Units=GPa)
#
#
# Indices 1 2 3 4 5 6 
#
# 1 159.5421 81.3947 57.4676 0.0000 0.0000 0.0000
# 2 81.3947 116.0888 53.3764 0.0000 0.0000 0.0000
# 3 57.4676 53.3764 62.3788 0.0000 0.0000 0.0000
# 4 0.0000 0.0000 0.0000 19.8061 0.0000 0.0000
# 5 0.0000 0.0000 0.0000 0.0000 -34.2206 0.0000
# 6 0.0000 0.0000 0.0000 0.0000 0.0000 11.9715
#
#
#
# Elastic Compliance Matrix: (Units=1/GPa)
#
#
# Indices 1 2 3 4 5 6 
#
# 1 0.010887 -0.004982 -0.005767 0.000000 0.000000 0.000000
# 2 -0.004982 0.016481 -0.009513 0.000000 0.000000 0.000000
# 3 -0.005767 -0.009513 0.029484 0.000000 0.000000 0.000000
# 4 0.000000 0.000000 0.000000 0.050490 0.000000 0.000000
# 5 0.000000 0.000000 0.000000 0.000000 -0.029222 0.000000
# 6 0.000000 0.000000 0.000000 0.000000 0.000000 0.083532
#
#
# Mechanical properties :
#
#
# Convention : Reuss Voigt Hill
#
# Bulk Modulus (GPa) = 61.24210 80.27631 70.75921
# Shear Modulus (GPa) = 24.08284 9.22946 16.65615
#
# Velocity S-wave (km/s) = 3.57026 2.21021 2.96916
# Velocity P-wave (km/s) = 7.02926 7.00019 7.01474
#
# Compressibility (1/GPa) = 0.01632864
#
# Stress axis : x y z
#
# Youngs Moduli (GPa) = 91.85549 60.67653 33.91653
#
# Poissons Ratio (x) = 0.30226 0.19559
# Poissons Ratio (y) = 0.45758 0.32265
# Poissons Ratio (z) = 0.52973 0.57722
#
# Static dielectric constant tensor:
#      x y z
#    x 3.658710 0.000000 0.000000 
#    y 0.000000 3.703220 0.000000 
#    z 0.000000 0.000000 3.177950 
# 
# 
# High freq. dielectric constant tensor:
#      x y z
#    x 1.750240 0.000000 0.000000 
#    y 0.000000 1.742510 0.000000 
#    z 0.000000 0.000000 1.704270 
# 
# From -- ./inp_files/14414.got.cif
#   From: 2010.03.12/outbox.cif.g09.slc.cpg/sg65_8_cif.got.tgz:14414.got - 2010.04.10 20:52:16.
