data_PCOD8272997
_publ_section_title
;
Structure prediction by ZEFSAII (Michael W. Deem and Ramdas Pophale) SiO2 
 PCOD8272997
Probable space group: C M M M
;
_chemical_formula_sum "Si O2"
_cell_formula_units_Z 120
_cell_length_a 27.015783
_cell_length_b 27.522341
_cell_length_c 8.830811
_cell_angle_alpha 90.000000
_cell_angle_beta 90.000000
_cell_angle_gamma 90.000000
_cell_volume 6566.039947
_symmetry_space_group_name_H-M "C M M M"
_symmetry_group_IT_number 65
_symmetry_cell_setting 'orthorhombic'
loop_
_space_group_symop_operation_xyz
x,y,z
-x,-y,z
x,-y,-z
-x,y,-z
-x,-y,-z
x,y,-z
-x,y,z
x,-y,z
1/2+x,1/2+y,z
1/2-x,1/2-y,z
1/2+x,1/2-y,-z
1/2-x,1/2+y,-z
1/2-x,1/2-y,-z
1/2+x,1/2+y,-z
1/2-x,1/2+y,z
1/2+x,1/2-y,z
loop_
_atom_site_type_symbol
_atom_site_label
_atom_site_fract_x
_atom_site_fract_y
_atom_site_fract_z
Si Si1 0.399874 0.787105 0.321919
Si Si2 0.302196 0.266783 0.321629
Si Si3 0.555075 0.696185 0.824810
Si Si4 0.907854 0.390140 0.820829
Si Si5 0.285715 0.445333 0.823866
Si Si6 0.000000 0.557448 0.325536
Si Si7 0.848835 0.143437 0.175811
Si Si8 0.317264 0.943680 0.676736
O O1 0.404303 0.796846 0.500000
O O2 0.344421 0.771533 0.273261
O O3 0.436967 0.744045 0.275693
O O4 0.415097 0.835111 0.232923
O O5 0.299233 0.270551 0.500000
O O6 0.250000 0.250000 0.251849
O O7 0.312836 0.320141 0.261395
O O8 0.500000 0.675922 0.793685
O O9 0.593896 0.653631 0.778664
O O10 0.562078 0.710863 0.000000
O O11 0.951102 0.422721 0.753101
O O12 0.855253 0.410388 0.767109
O O13 0.910912 0.392287 0.000000
O O14 0.302024 0.500000 0.782444
O O15 0.332283 0.411128 0.780405
O O16 0.237889 0.429566 0.728100
O O17 0.271675 0.440752 0.000000
O O18 0.000000 0.500000 0.308720
O O19 0.000000 0.573674 0.500000
O O20 0.840991 0.152956 0.000000
O O21 0.322960 0.932362 0.500000
O O22 0.328200 0.000000 0.713172
#
# Coordination Sequence:
#
# PCOD8272997 Si02
#       8
#    16  16  16  16  16   8  16  16
#     4  10  21  36  53  77 108 140 177 219 266 317
#     4   9  19  34  51  74 104 139 174 215 265 316
#     4   9  18  34  55  76 104 139 178 224 270 323
#     4  12  25  39  58  82 109 140 177 221 272 326
#     4   9  18  33  53  79 111 144 179 219 265 319
#     4  11  25  45  65  83 105 137 181 231 280 325
#     4   9  18  32  51  77 104 138 179 219 268 321
#     4  10  21  37  56  78 105 139 179 221 266 316
#
# _framework density 18.275856000000001
#
# number of rings (size 3 to 8) (size 9 to 14) (size 15 to 20)
#    0.000    2.200    0.000    2.600    2.800    4.533 
#    0.000    0.000    0.000    0.400    0.000    2.800 
#    0.000    0.000    0.000   10.000    0.000   10.400 
#
# Total GULP energy -744061.121040 kJ/mol
# GULP energy per Si atom -12401.018684 kJ/mol
# Density = 1.823426 g / cm^3
# Si number density = 18.275856 Si / 1000 Ang^3
#
#
#
# Elastic Constant Matrix: (Units=GPa)
#
#
# Indices 1 2 3 4 5 6 
#
# 1 125.9960 59.2844 30.9437 0.0000 0.0000 0.0000
# 2 59.2844 92.9022 33.1690 0.0000 0.0000 0.0000
# 3 30.9437 33.1690 66.9453 0.0000 0.0000 0.0000
# 4 0.0000 0.0000 0.0000 23.8796 0.0000 0.0000
# 5 0.0000 0.0000 0.0000 0.0000 24.5762 0.0000
# 6 0.0000 0.0000 0.0000 0.0000 0.0000 23.4099
#
#
#
# Elastic Compliance Matrix: (Units=1/GPa)
#
#
# Indices 1 2 3 4 5 6 
#
# 1 0.011570 -0.006650 -0.002053 0.000000 0.000000 0.000000
# 2 -0.006650 0.016900 -0.005299 0.000000 0.000000 0.000000
# 3 -0.002053 -0.005299 0.018512 0.000000 0.000000 0.000000
# 4 0.000000 0.000000 0.000000 0.041877 0.000000 0.000000
# 5 0.000000 0.000000 0.000000 0.000000 0.040690 0.000000
# 6 0.000000 0.000000 0.000000 0.000000 0.000000 0.042717
#
#
# Mechanical properties :
#
#
# Convention : Reuss Voigt Hill
#
# Bulk Modulus (GPa) = 52.69590 59.18197 55.93893
# Shear Modulus (GPa) = 24.20178 25.20292 24.70235
#
# Velocity S-wave (km/s) = 3.64297 3.71756 3.68045
# Velocity P-wave (km/s) = 6.82577 7.13301 6.98108
#
# Compressibility (1/GPa) = 0.01897681
#
# Stress axis : x y z
#
# Youngs Moduli (GPa) = 86.42961 59.17206 54.01862
#
# Poissons Ratio (x) = 0.39351 0.11090
# Poissons Ratio (y) = 0.57479 0.28626
# Poissons Ratio (z) = 0.17744 0.31357
#
# Static dielectric constant tensor:
#      x y z
#    x 3.646570 0.000000 0.000000 
#    y 0.000000 3.394170 0.000000 
#    z 0.000000 0.000000 3.425960 
# 
# 
# High freq. dielectric constant tensor:
#      x y z
#    x 1.709820 0.000000 0.000000 
#    y 0.000000 1.700850 0.000000 
#    z 0.000000 0.000000 1.711080 
# 
# From -- ./inp_files/17120.got.cif
#   From: 2010.03.12/outbox.cif.g09.slc.cpg/sg65_9_cif.got.tgz:17120.got - 2010.04.10 20:52:16.
