data_PCOD8272763
_publ_section_title
;
Structure prediction by ZEFSAII (Michael W. Deem and Ramdas Pophale) SiO2 
 PCOD8272763
Probable space group: C M M M
;
_chemical_formula_sum "Si O2"
_cell_formula_units_Z 80
_cell_length_a 9.139348
_cell_length_b 18.047519
_cell_length_c 25.687196
_cell_angle_alpha 90.000000
_cell_angle_beta 90.000000
_cell_angle_gamma 90.000000
_cell_volume 4236.911782
_symmetry_space_group_name_H-M "C M M M"
_symmetry_group_IT_number 65
_symmetry_cell_setting 'orthorhombic'
loop_
_space_group_symop_operation_xyz
x,y,z
-x,-y,z
x,-y,-z
-x,y,-z
-x,-y,-z
x,y,-z
-x,y,z
x,-y,z
1/2+x,1/2+y,z
1/2-x,1/2-y,z
1/2+x,1/2-y,-z
1/2-x,1/2+y,-z
1/2-x,1/2-y,-z
1/2+x,1/2+y,-z
1/2-x,1/2+y,z
1/2+x,1/2-y,z
loop_
_atom_site_type_symbol
_atom_site_label
_atom_site_fract_x
_atom_site_fract_y
_atom_site_fract_z
Si Si1 0.670741 0.914731 0.398546
Si Si2 0.669011 0.913304 0.103595
Si Si3 0.170893 0.327789 0.000000
Si Si4 0.326628 0.328510 0.193145
Si Si5 0.828476 0.915534 0.295654
Si Si6 0.326601 0.827796 0.500000
O O1 0.500000 0.902911 0.389584
O O2 0.751565 0.884081 0.347378
O O3 0.727066 0.871204 0.448947
O O4 0.710678 0.000000 0.407995
O O5 0.500000 0.896087 0.117129
O O6 0.772646 0.884058 0.148956
O O7 0.695692 0.000000 0.096519
O O8 0.717748 0.874111 0.050433
O O9 0.250000 0.250000 0.000000
O O10 0.000000 0.311955 0.000000
O O11 0.500000 0.318608 0.188481
O O12 0.250000 0.250000 0.186110
O O13 0.280041 0.363702 0.248155
O O14 0.000000 0.912009 0.304973
O O15 0.777969 0.000000 0.284091
O O16 0.500000 0.818551 0.500000
O O17 0.250000 0.750000 0.500000
#
# Coordination Sequence:
#
# PCOD8272763 Si02
#       6
#    16  16   8  16  16   8
#     4   9  18  34  56  78 101 134 176 218 259 309
#     4  10  21  38  60  84 111 145 185 227 271 322
#     4  10  21  37  57  83 115 148 181 222 272 322
#     4  11  23  38  56  80 112 147 183 225 273 323
#     4   9  19  36  56  78 105 137 174 219 269 318
#     4  10  21  35  51  75 107 138 170 212 262 312
#
# _framework density 18.881677
#
# number of rings (size 3 to 8) (size 9 to 14) (size 15 to 20)
#    0.000    2.200    0.000    2.400    0.000    9.200 
#    0.000    6.000    0.000    4.800    0.000    0.000 
#    0.000    0.000    0.000    0.000    0.000    0.000 
#
# Total GULP energy -496146.767372 kJ/mol
# GULP energy per Si atom -12403.669184 kJ/mol
# Density = 1.883870 g / cm^3
# Si number density = 18.881677 Si / 1000 Ang^3
#
#
#
# Elastic Constant Matrix: (Units=GPa)
#
#
# Indices 1 2 3 4 5 6 
#
# 1 48.6352 41.5191 58.2676 0.0000 0.0000 0.0000
# 2 41.5191 114.0126 74.0210 0.0000 0.0000 0.0000
# 3 58.2676 74.0210 171.0586 0.0000 0.0000 0.0000
# 4 0.0000 0.0000 0.0000 17.2589 0.0000 0.0000
# 5 0.0000 0.0000 0.0000 0.0000 22.3123 0.0000
# 6 0.0000 0.0000 0.0000 0.0000 0.0000 30.7647
#
#
#
# Elastic Compliance Matrix: (Units=1/GPa)
#
#
# Indices 1 2 3 4 5 6 
#
# 1 0.039147 -0.007786 -0.009966 0.000000 0.000000 0.000000
# 2 -0.007786 0.013746 -0.003296 0.000000 0.000000 0.000000
# 3 -0.009966 -0.003296 0.010667 0.000000 0.000000 0.000000
# 4 0.000000 0.000000 0.000000 0.057941 0.000000 0.000000
# 5 0.000000 0.000000 0.000000 0.000000 0.044818 0.000000
# 6 0.000000 0.000000 0.000000 0.000000 0.000000 0.032505
#
#
# Mechanical properties :
#
#
# Convention : Reuss Voigt Hill
#
# Bulk Modulus (GPa) = 46.58755 75.70241 61.14498
# Shear Modulus (GPa) = 20.15518 24.72709 22.44114
#
# Velocity S-wave (km/s) = 3.27072 3.62274 3.45122
# Velocity P-wave (km/s) = 6.24424 7.59467 6.95232
#
# Compressibility (1/GPa) = 0.02146496
#
# Stress axis : x y z
#
# Youngs Moduli (GPa) = 25.54464 72.74664 93.74841
#
# Poissons Ratio (x) = 0.56640 0.93425
# Poissons Ratio (y) = 0.19889 0.30902
# Poissons Ratio (z) = 0.25457 0.23979
#
# Static dielectric constant tensor:
#      x y z
#    x 3.421410 0.000000 0.000000 
#    y 0.000000 3.499590 0.000000 
#    z 0.000000 0.000000 3.721480 
# 
# 
# High freq. dielectric constant tensor:
#      x y z
#    x 1.726300 0.000000 0.000000 
#    y 0.000000 1.737820 0.000000 
#    z 0.000000 0.000000 1.749680 
# 
# From -- ./inp_files/72863.got.cif
#   From: 2010.03.12/outbox.cif.g09.slc.cpg/sg65_37_cif.got.tgz:72863.got - 2010.04.10 20:52:16.
