data_PCOD8272010
_publ_section_title
;
Structure prediction by ZEFSAII (Michael W. Deem and Ramdas Pophale) SiO2 
 PCOD8272010
Probable space group: C M M M
;
_chemical_formula_sum "Si O2"
_cell_formula_units_Z 88
_cell_length_a 21.986927
_cell_length_b 8.775050
_cell_length_c 24.646192
_cell_angle_alpha 90.000000
_cell_angle_beta 90.000000
_cell_angle_gamma 90.000000
_cell_volume 4755.147158
_symmetry_space_group_name_H-M "C M M M"
_symmetry_group_IT_number 65
_symmetry_cell_setting 'orthorhombic'
loop_
_space_group_symop_operation_xyz
x,y,z
-x,-y,z
x,-y,-z
-x,y,-z
-x,-y,-z
x,y,-z
-x,y,z
x,-y,z
1/2+x,1/2+y,z
1/2-x,1/2-y,z
1/2+x,1/2-y,-z
1/2-x,1/2+y,-z
1/2-x,1/2-y,-z
1/2+x,1/2+y,-z
1/2-x,1/2+y,z
1/2+x,1/2-y,z
loop_
_atom_site_type_symbol
_atom_site_label
_atom_site_fract_x
_atom_site_fract_y
_atom_site_fract_z
Si Si1 0.000000 0.821456 0.439420
Si Si2 0.615079 0.820255 0.605433
Si Si3 0.812608 0.176969 0.697666
Si Si4 0.814105 0.678803 0.500000
Si Si5 0.184714 0.177734 0.175495
Si Si6 0.928866 0.169044 0.000000
Si Si7 0.429113 0.180747 0.112311
O O1 0.053434 0.766036 0.402196
O O2 0.000000 0.746493 0.500000
O O3 0.000000 0.000000 0.445973
O O4 0.637295 0.766851 0.664051
O O5 0.655053 0.762571 0.554938
O O6 0.606089 0.000000 0.605080
O O7 0.750000 0.250000 0.678508
O O8 0.823719 0.204864 0.760877
O O9 0.812833 0.000000 0.682451
O O10 0.810265 0.500000 0.500000
O O11 0.750000 0.750000 0.500000
O O12 0.250000 0.250000 0.156248
O O13 0.123128 0.250795 0.151045
O O14 0.186959 0.000000 0.160154
O O15 0.909446 0.263493 0.947247
O O16 0.000000 0.146838 0.000000
O O17 0.898216 0.000000 0.000000
O O18 0.500000 0.230960 0.126364
O O19 0.425059 0.000000 0.114796
#
# Coordination Sequence:
#
# PCOD8272010 Si02
#       7
#     8  16  16   8  16   8  16
#     4  11  23  39  59  81 107 143 179 218 269 330
#     4  11  22  38  58  80 108 143 180 222 271 328
#     4  10  21  38  59  84 111 144 185 230 277 331
#     4  10  22  35  52  79 107 134 170 216 267 320
#     4  10  21  38  60  84 115 154 193 238 289 344
#     4   9  17  31  54  83 116 155 196 237 287 341
#     4  10  20  35  57  86 119 154 196 242 286 338
#
# _framework density 18.506260999999999
#
# number of rings (size 3 to 8) (size 9 to 14) (size 15 to 20)
#    0.000    1.818    0.909    3.273    0.000    7.636 
#    1.636    0.455    0.000    0.000    0.000    0.000 
#    0.000    0.000    0.000    0.000    0.000    0.000 
#
# Total GULP energy -545314.923977 kJ/mol
# GULP energy per Si atom -12393.520999 kJ/mol
# Density = 1.846414 g / cm^3
# Si number density = 18.506261 Si / 1000 Ang^3
#
#
#
# Elastic Constant Matrix: (Units=GPa)
#
#
# Indices 1 2 3 4 5 6 
#
# 1 140.3865 54.7784 52.8381 0.0000 0.0000 0.0000
# 2 54.7784 97.4823 41.4793 0.0000 0.0000 0.0000
# 3 52.8381 41.4793 77.2803 0.0000 0.0000 0.0000
# 4 0.0000 0.0000 0.0000 39.9165 0.0000 0.0000
# 5 0.0000 0.0000 0.0000 0.0000 34.8563 0.0000
# 6 0.0000 0.0000 0.0000 0.0000 0.0000 36.2129
#
#
#
# Elastic Compliance Matrix: (Units=1/GPa)
#
#
# Indices 1 2 3 4 5 6 
#
# 1 0.010528 -0.003698 -0.005214 0.000000 0.000000 0.000000
# 2 -0.003698 0.014593 -0.005305 0.000000 0.000000 0.000000
# 3 -0.005214 -0.005305 0.019352 0.000000 0.000000 0.000000
# 4 0.000000 0.000000 0.000000 0.025052 0.000000 0.000000
# 5 0.000000 0.000000 0.000000 0.000000 0.028689 0.000000
# 6 0.000000 0.000000 0.000000 0.000000 0.000000 0.027614
#
#
# Mechanical properties :
#
#
# Convention : Reuss Voigt Hill
#
# Bulk Modulus (GPa) = 62.33877 68.14896 65.24387
# Shear Modulus (GPa) = 31.32663 33.26736 32.29700
#
# Velocity S-wave (km/s) = 4.11878 4.24444 4.18208
# Velocity P-wave (km/s) = 7.50849 7.80546 7.65841
#
# Compressibility (1/GPa) = 0.01604138
#
# Stress axis : x y z
#
# Youngs Moduli (GPa) = 94.98146 68.52471 51.67481
#
# Poissons Ratio (x) = 0.25339 0.26942
# Poissons Ratio (y) = 0.35122 0.27411
# Poissons Ratio (z) = 0.49521 0.36349
#
# Static dielectric constant tensor:
#      x y z
#    x 3.442810 0.000000 0.000000 
#    y 0.000000 3.576760 0.000000 
#    z 0.000000 0.000000 3.438170 
# 
# 
# High freq. dielectric constant tensor:
#      x y z
#    x 1.717400 0.000000 0.000000 
#    y 0.000000 1.732270 0.000000 
#    z 0.000000 0.000000 1.717090 
# 
# From -- ./inp_files/71050.got.cif
#   From: 2010.03.12/outbox.cif.g09.slc.cpg/sg65_36_cif.got.tgz:71050.got - 2010.04.10 20:52:16.
