data_PCOD8272218
_publ_section_title
;
Structure prediction by ZEFSAII (Michael W. Deem and Ramdas Pophale) SiO2 
 PCOD8272218
Probable space group: C M M M
;
_chemical_formula_sum "Si O2"
_cell_formula_units_Z 80
_cell_length_a 9.027383
_cell_length_b 23.684071
_cell_length_c 20.246383
_cell_angle_alpha 90.000000
_cell_angle_beta 90.000000
_cell_angle_gamma 90.000000
_cell_volume 4328.781560
_symmetry_space_group_name_H-M "C M M M"
_symmetry_group_IT_number 65
_symmetry_cell_setting 'orthorhombic'
loop_
_space_group_symop_operation_xyz
x,y,z
-x,-y,z
x,-y,-z
-x,y,-z
-x,-y,-z
x,y,-z
-x,y,z
x,-y,z
1/2+x,1/2+y,z
1/2-x,1/2-y,z
1/2+x,1/2-y,-z
1/2-x,1/2+y,-z
1/2-x,1/2-y,-z
1/2+x,1/2+y,-z
1/2-x,1/2+y,z
1/2+x,1/2-y,z
loop_
_atom_site_type_symbol
_atom_site_label
_atom_site_fract_x
_atom_site_fract_y
_atom_site_fract_z
Si Si1 0.324638 0.500000 0.624627
Si Si2 0.327702 0.380079 0.576010
Si Si3 0.826667 0.612154 0.809158
Si Si4 0.673079 0.192607 0.925603
Si Si5 0.325185 0.190362 0.686042
Si Si6 0.824606 0.000000 0.774085
O O1 0.500000 0.500000 0.622440
O O2 0.266639 0.443639 0.588276
O O3 0.264441 0.500000 0.699184
O O4 0.303906 0.364185 0.500000
O O5 0.500000 0.375872 0.596369
O O6 0.234764 0.335592 0.618097
O O7 0.777862 0.643671 0.875921
O O8 0.781619 0.649157 0.745863
O O9 0.735623 0.554726 0.810899
O O10 0.000000 0.598198 0.808327
O O11 0.500000 0.203866 0.920230
O O12 0.750000 0.250000 0.903060
O O13 0.719970 0.175233 0.000000
O O14 0.500000 0.199171 0.680439
O O15 0.250000 0.250000 0.700096
O O16 0.000000 0.000000 0.776599
#
# Coordination Sequence:
#
# PCOD8272218 Si02
#       6
#     8  16  16  16  16   8
#     4   9  17  33  56  82 106 132 172 219 266 317
#     4  10  20  36  58  81 107 139 176 221 271 323
#     4  10  21  37  56  81 112 144 179 222 270 321
#     4   9  18  34  57  84 113 146 183 223 268 317
#     4  11  23  37  55  78 107 141 179 222 269 322
#     4  11  21  34  58  84 108 142 181 223 269 319
#
# _framework density 18.48095
#
# number of rings (size 3 to 8) (size 9 to 14) (size 15 to 20)
#    0.000    2.000    2.000    1.800    0.000    3.600 
#    0.000    1.000    0.000    4.200    0.000    0.000 
#    0.000    0.000    0.000    0.000    0.000    0.000 
#
# Total GULP energy -496134.061872 kJ/mol
# GULP energy per Si atom -12403.351547 kJ/mol
# Density = 1.843889 g / cm^3
# Si number density = 18.480950 Si / 1000 Ang^3
#
#
#
# Elastic Constant Matrix: (Units=GPa)
#
#
# Indices 1 2 3 4 5 6 
#
# 1 60.0652 59.4860 44.5574 0.0000 0.0000 0.0000
# 2 59.4860 148.1246 68.3109 0.0000 0.0000 0.0000
# 3 44.5574 68.3109 114.0721 0.0000 0.0000 0.0000
# 4 0.0000 0.0000 0.0000 12.0538 0.0000 0.0000
# 5 0.0000 0.0000 0.0000 0.0000 24.4070 0.0000
# 6 0.0000 0.0000 0.0000 0.0000 0.0000 27.1486
#
#
#
# Elastic Compliance Matrix: (Units=1/GPa)
#
#
# Indices 1 2 3 4 5 6 
#
# 1 0.030652 -0.009378 -0.006357 0.000000 0.000000 0.000000
# 2 -0.009378 0.012196 -0.003640 0.000000 0.000000 0.000000
# 3 -0.006357 -0.003640 0.013429 0.000000 0.000000 0.000000
# 4 0.000000 0.000000 0.000000 0.082961 0.000000 0.000000
# 5 0.000000 0.000000 0.000000 0.000000 0.040972 0.000000
# 6 0.000000 0.000000 0.000000 0.000000 0.000000 0.036834
#
#
# Mechanical properties :
#
#
# Convention : Reuss Voigt Hill
#
# Bulk Modulus (GPa) = 57.05561 74.10785 65.58173
# Shear Modulus (GPa) = 19.11041 22.71572 20.91307
#
# Velocity S-wave (km/s) = 3.21917 3.50972 3.36758
# Velocity P-wave (km/s) = 6.69007 7.52401 7.11926
#
# Compressibility (1/GPa) = 0.01752676
#
# Stress axis : x y z
#
# Youngs Moduli (GPa) = 32.62455 81.99381 74.46316
#
# Poissons Ratio (x) = 0.76893 0.47336
# Poissons Ratio (y) = 0.30595 0.27107
# Poissons Ratio (z) = 0.20739 0.29849
#
# Static dielectric constant tensor:
#      x y z
#    x 3.256150 0.000000 0.000000 
#    y 0.000000 3.446160 0.000000 
#    z 0.000000 0.000000 3.530470 
# 
# 
# High freq. dielectric constant tensor:
#      x y z
#    x 1.704890 0.000000 0.000000 
#    y 0.000000 1.721310 0.000000 
#    z 0.000000 0.000000 1.721020 
# 
# From -- ./inp_files/59635.got.cif
#   From: 2010.03.12/outbox.cif.g09.slc.cpg/sg65_30_cif.got.tgz:59635.got - 2010.04.10 20:52:16.
