data_PCOD8272094
_publ_section_title
;
Structure prediction by ZEFSAII (Michael W. Deem and Ramdas Pophale) SiO2 
 PCOD8272094
Probable space group: C M M M
;
_chemical_formula_sum "Si O2"
_cell_formula_units_Z 76
_cell_length_a 11.586652
_cell_length_b 28.505261
_cell_length_c 12.422554
_cell_angle_alpha 90.000000
_cell_angle_beta 90.000000
_cell_angle_gamma 90.000000
_cell_volume 4102.927836
_symmetry_space_group_name_H-M "C M M M"
_symmetry_group_IT_number 65
_symmetry_cell_setting 'orthorhombic'
loop_
_space_group_symop_operation_xyz
x,y,z
-x,-y,z
x,-y,-z
-x,y,-z
-x,-y,-z
x,y,-z
-x,y,z
x,-y,z
1/2+x,1/2+y,z
1/2-x,1/2-y,z
1/2+x,1/2-y,-z
1/2-x,1/2+y,-z
1/2-x,1/2-y,-z
1/2+x,1/2+y,-z
1/2-x,1/2+y,z
1/2+x,1/2-y,z
loop_
_atom_site_type_symbol
_atom_site_label
_atom_site_fract_x
_atom_site_fract_y
_atom_site_fract_z
Si Si1 0.000000 0.347062 0.000000
Si Si2 0.245376 0.305068 0.000000
Si Si3 0.500000 0.919381 0.810348
Si Si4 0.000000 0.648924 0.623551
Si Si5 0.757287 0.447726 0.124516
Si Si6 0.864031 0.142899 0.804514
Si Si7 0.759971 0.696233 0.374837
O O1 0.889097 0.314951 0.000000
O O2 0.000000 0.376530 0.108142
O O3 0.250000 0.250000 0.000000
O O4 0.305384 0.325614 0.894831
O O5 0.500000 0.899133 0.689947
O O6 0.613526 0.950336 0.828528
O O7 0.889340 0.680202 0.652137
O O8 0.000000 0.633281 0.500000
O O9 0.703845 0.500000 0.135680
O O10 0.679510 0.410876 0.189320
O O11 0.762086 0.431644 0.000000
O O12 0.830846 0.164059 0.688890
O O13 0.000000 0.143360 0.820503
O O14 0.729026 0.690567 0.500000
O O15 0.750000 0.750000 0.337770
#
# Coordination Sequence:
#
# PCOD8272094 Si02
#       7
#     4   8   8   8  16  16  16
#     4  12  20  36  65  82 112 158 189 248 298 338
#     4  12  25  40  57  86 121 160 197 235 290 360
#     4  12  17  37  60  88 123 142 194 247 303 345
#     4  10  20  35  62  88 120 156 190 245 300 344
#     4  11  22  38  62  90 117 153 198 247 300 354
#     4  12  24  40  59  86 124 159 196 243 293 353
#     4  10  22  40  62  89 118 157 205 247 289 341
#
# _framework density 18.523357000000001
#
# number of rings (size 3 to 8) (size 9 to 14) (size 15 to 20)
#    0.000    0.842    6.316    1.263    2.947    1.684 
#    0.000    1.053    0.000    3.158    0.000    1.474 
#    0.000    0.000    0.000    0.000    0.000    0.000 
#
# Total GULP energy -471366.215873 kJ/mol
# GULP energy per Si atom -12404.374102 kJ/mol
# Density = 1.848120 g / cm^3
# Si number density = 18.523357 Si / 1000 Ang^3
#
#
#
# Elastic Constant Matrix: (Units=GPa)
#
#
# Indices 1 2 3 4 5 6 
#
# 1 135.9186 46.4094 32.4711 0.0000 0.0000 0.0000
# 2 46.4094 126.9768 47.1158 0.0000 0.0000 0.0000
# 3 32.4711 47.1158 79.7319 0.0000 0.0000 0.0000
# 4 0.0000 0.0000 0.0000 28.3694 0.0000 0.0000
# 5 0.0000 0.0000 0.0000 0.0000 66.6055 0.0000
# 6 0.0000 0.0000 0.0000 0.0000 0.0000 11.0246
#
#
#
# Elastic Compliance Matrix: (Units=1/GPa)
#
#
# Indices 1 2 3 4 5 6 
#
# 1 0.008679 -0.002383 -0.002126 0.000000 0.000000 0.000000
# 2 -0.002383 0.010742 -0.005377 0.000000 0.000000 0.000000
# 3 -0.002126 -0.005377 0.016585 0.000000 0.000000 0.000000
# 4 0.000000 0.000000 0.000000 0.035249 0.000000 0.000000
# 5 0.000000 0.000000 0.000000 0.000000 0.015014 0.000000
# 6 0.000000 0.000000 0.000000 0.000000 0.000000 0.090706
#
#
# Mechanical properties :
#
#
# Convention : Reuss Voigt Hill
#
# Bulk Modulus (GPa) = 61.60220 66.06888 63.83554
# Shear Modulus (GPa) = 24.73301 35.64197 30.18749
#
# Velocity S-wave (km/s) = 3.65805 4.39129 4.04133
# Velocity P-wave (km/s) = 7.15335 7.83942 7.50423
#
# Compressibility (1/GPa) = 0.01623319
#
# Stress axis : x y z
#
# Youngs Moduli (GPa) = 115.22002 93.09542 60.29405
#
# Poissons Ratio (x) = 0.22186 0.12820
# Poissons Ratio (y) = 0.27459 0.32420
# Poissons Ratio (z) = 0.24499 0.50057
#
# Static dielectric constant tensor:
#      x y z
#    x 2.679600 0.000000 0.000000 
#    y 0.000000 3.381300 0.000000 
#    z 0.000000 0.000000 3.452750 
# 
# 
# High freq. dielectric constant tensor:
#      x y z
#    x 1.723190 0.000000 0.000000 
#    y 0.000000 1.721120 0.000000 
#    z 0.000000 0.000000 1.714730 
# 
# From -- ./inp_files/22965.got.cif
#   From: 2010.03.12/outbox.cif.g09.slc.cpg/sg65_12_cif.got.tgz:22965.got - 2010.04.10 20:52:16.
