data_PCOD8272848
_publ_section_title
;
Structure prediction by ZEFSAII (Michael W. Deem and Ramdas Pophale) SiO2 
 PCOD8272848
Probable space group: C M M M
;
_chemical_formula_sum "Si O2"
_cell_formula_units_Z 88
_cell_length_a 24.628971
_cell_length_b 19.072817
_cell_length_c 9.872647
_cell_angle_alpha 90.000000
_cell_angle_beta 90.000000
_cell_angle_gamma 90.000000
_cell_volume 4637.615278
_symmetry_space_group_name_H-M "C M M M"
_symmetry_group_IT_number 65
_symmetry_cell_setting 'orthorhombic'
loop_
_space_group_symop_operation_xyz
x,y,z
-x,-y,z
x,-y,-z
-x,y,-z
-x,-y,-z
x,y,-z
-x,y,z
x,-y,z
1/2+x,1/2+y,z
1/2-x,1/2-y,z
1/2+x,1/2-y,-z
1/2-x,1/2+y,-z
1/2-x,1/2-y,-z
1/2+x,1/2+y,-z
1/2-x,1/2+y,z
1/2+x,1/2-y,z
loop_
_atom_site_type_symbol
_atom_site_label
_atom_site_fract_x
_atom_site_fract_y
_atom_site_fract_z
Si Si1 0.169431 0.311507 0.500000
Si Si2 0.114554 0.682333 0.781346
Si Si3 0.653016 0.581719 0.249514
Si Si4 0.938106 0.819560 0.157477
Si Si5 0.227866 0.079504 0.000000
Si Si6 0.198098 0.298035 0.000000
Si Si7 0.564050 0.082646 0.000000
Si Si8 0.294178 0.347179 0.500000
O O1 0.135618 0.338094 0.368467
O O2 0.229039 0.344870 0.500000
O O3 0.176255 0.227858 0.500000
O O4 0.069752 0.743609 0.772375
O O5 0.090356 0.615945 0.863799
O O6 0.164480 0.716804 0.863979
O O7 0.639263 0.500000 0.261325
O O8 0.596280 0.621676 0.234517
O O9 0.691470 0.599923 0.125916
O O10 0.687084 0.608053 0.374432
O O11 0.000000 0.842505 0.174955
O O12 0.921639 0.814414 0.000000
O O13 0.284115 0.121053 0.000000
O O14 0.246753 0.000000 0.000000
O O15 0.250000 0.250000 0.000000
O O16 0.500000 0.098537 0.000000
O O17 0.575956 0.000000 0.000000
#
# Coordination Sequence:
#
# PCOD8272848 Si02
#       8
#     8  16  16  16   8   8   8   8
#     4  11  24  38  64  90 124 166 209 250 300 374
#     4  11  22  39  60  93 125 159 202 255 306 373
#     4  11  22  39  58  84 122 164 208 254 307 361
#     4  11  21  37  62  90 120 156 205 260 314 361
#     4  10  21  35  54  81 113 150 198 251 301 359
#     4  11  21  31  57  83 117 152 203 253 305 360
#     4  10  22  44  72  96 121 157 197 249 325 388
#     4  11  23  40  58  86 124 168 209 244 304 361
#
# _framework density 18.975269999999998
#
# number of rings (size 3 to 8) (size 9 to 14) (size 15 to 20)
#    0.000    1.182    4.545    3.000    2.545    1.818 
#    0.000    6.364    0.000    2.182    0.000    0.000 
#    0.000    0.000    0.000    0.000    0.000    0.000 
#
# Total GULP energy -545680.535670 kJ/mol
# GULP energy per Si atom -12401.830356 kJ/mol
# Density = 1.893208 g / cm^3
# Si number density = 18.975270 Si / 1000 Ang^3
#
#
#
# Elastic Constant Matrix: (Units=GPa)
#
#
# Indices 1 2 3 4 5 6 
#
# 1 87.0175 39.2943 52.9281 0.0000 0.0000 0.0000
# 2 39.2943 87.8787 40.6868 0.0000 0.0000 0.0000
# 3 52.9281 40.6868 152.4463 0.0000 0.0000 0.0000
# 4 0.0000 0.0000 0.0000 27.1259 0.0000 0.0000
# 5 0.0000 0.0000 0.0000 0.0000 29.7660 0.0000
# 6 0.0000 0.0000 0.0000 0.0000 0.0000 29.1659
#
#
#
# Elastic Compliance Matrix: (Units=1/GPa)
#
#
# Indices 1 2 3 4 5 6 
#
# 1 0.016552 -0.005409 -0.004303 0.000000 0.000000 0.000000
# 2 -0.005409 0.014751 -0.002059 0.000000 0.000000 0.000000
# 3 -0.004303 -0.002059 0.008603 0.000000 0.000000 0.000000
# 4 0.000000 0.000000 0.000000 0.036865 0.000000 0.000000
# 5 0.000000 0.000000 0.000000 0.000000 0.033595 0.000000
# 6 0.000000 0.000000 0.000000 0.000000 0.000000 0.034287
#
#
# Mechanical properties :
#
#
# Convention : Reuss Voigt Hill
#
# Bulk Modulus (GPa) = 61.10864 65.90675 63.50770
# Shear Modulus (GPa) = 28.79362 30.17379 29.48370
#
# Velocity S-wave (km/s) = 3.89964 3.99201 3.94610
# Velocity P-wave (km/s) = 7.24918 7.48709 7.36910
#
# Compressibility (1/GPa) = 0.01636430
#
# Stress axis : x y z
#
# Youngs Moduli (GPa) = 60.41697 67.79144 116.23536
#
# Poissons Ratio (x) = 0.36666 0.50017
# Poissons Ratio (y) = 0.32678 0.23934
# Poissons Ratio (z) = 0.25998 0.13959
#
# Static dielectric constant tensor:
#      x y z
#    x 3.509600 0.000000 0.000000 
#    y 0.000000 3.525890 0.000000 
#    z 0.000000 0.000000 3.473870 
# 
# 
# High freq. dielectric constant tensor:
#      x y z
#    x 1.743750 0.000000 0.000000 
#    y 0.000000 1.736510 0.000000 
#    z 0.000000 0.000000 1.734710 
# 
# From -- ./inp_files/14103.got.cif
#   From: 2010.03.12/outbox.cif.g09.slc.cpg/sg65_8_cif.got.tgz:14103.got - 2010.04.10 20:52:16.
