data_PCOD8272649
_publ_section_title
;
Structure prediction by ZEFSAII (Michael W. Deem and Ramdas Pophale) SiO2 
 PCOD8272649
Probable space group: C M M M
;
_chemical_formula_sum "Si O2"
_cell_formula_units_Z 88
_cell_length_a 27.191401
_cell_length_b 17.633963
_cell_length_c 9.594115
_cell_angle_alpha 90.000000
_cell_angle_beta 90.000000
_cell_angle_gamma 90.000000
_cell_volume 4600.302917
_symmetry_space_group_name_H-M "C M M M"
_symmetry_group_IT_number 65
_symmetry_cell_setting 'orthorhombic'
loop_
_space_group_symop_operation_xyz
x,y,z
-x,-y,z
x,-y,-z
-x,y,-z
-x,-y,-z
x,y,-z
-x,y,z
x,-y,z
1/2+x,1/2+y,z
1/2-x,1/2-y,z
1/2+x,1/2-y,-z
1/2-x,1/2+y,-z
1/2-x,1/2-y,-z
1/2+x,1/2+y,-z
1/2-x,1/2+y,z
1/2+x,1/2-y,z
loop_
_atom_site_type_symbol
_atom_site_label
_atom_site_fract_x
_atom_site_fract_y
_atom_site_fract_z
Si Si1 0.624272 0.320787 0.159485
Si Si2 0.604999 0.853650 0.161699
Si Si3 0.310754 0.087601 0.344905
Si Si4 0.500000 0.085696 0.835874
Si Si5 0.279573 0.411203 0.161853
Si Si6 0.557779 0.584105 0.655418
O O1 0.623708 0.231464 0.185083
O O2 0.674685 0.359625 0.210134
O O3 0.578905 0.353643 0.243047
O O4 0.614972 0.341347 0.000000
O O5 0.638532 0.904181 0.261349
O O6 0.548571 0.867429 0.210553
O O7 0.611548 0.877957 0.000000
O O8 0.313071 0.125625 0.500000
O O9 0.265781 0.120339 0.253180
O O10 0.300467 0.000000 0.365023
O O11 0.500000 0.000000 0.771931
O O12 0.500000 0.078493 0.000000
O O13 0.291409 0.500000 0.188481
O O14 0.266546 0.397352 0.000000
O O15 0.578453 0.597323 0.500000
O O16 0.500000 0.593724 0.655646
O O17 0.572687 0.500000 0.706942
#
# Coordination Sequence:
#
# PCOD8272649 Si02
#       6
#    16  16  16   8  16  16
#     4  10  21  34  53  82 113 143 180 230 276 322
#     4  10  21  36  56  82 111 144 179 223 279 333
#     4  10  21  37  57  81 107 138 182 230 273 324
#     4   9  18  34  57  81 104 137 182 222 263 325
#     4   9  18  34  55  78 107 144 182 220 268 325
#     4   9  19  35  53  74 104 146 191 229 270 325
#
# _framework density 19.129173999999999
#
# number of rings (size 3 to 8) (size 9 to 14) (size 15 to 20)
#    0.000    2.455    0.000    2.182    1.273    5.455 
#    0.000    6.818    0.000    1.636    0.000    0.000 
#    0.000    0.000    0.000    0.000    0.000    0.000 
#
# Total GULP energy -545499.499156 kJ/mol
# GULP energy per Si atom -12397.715890 kJ/mol
# Density = 1.908564 g / cm^3
# Si number density = 19.129174 Si / 1000 Ang^3
#
#
#
# Elastic Constant Matrix: (Units=GPa)
#
#
# Indices 1 2 3 4 5 6 
#
# 1 111.8037 43.6022 48.4036 0.0000 0.0000 0.0000
# 2 43.6022 53.1801 28.4450 0.0000 0.0000 0.0000
# 3 48.4036 28.4450 76.0266 0.0000 0.0000 0.0000
# 4 0.0000 0.0000 0.0000 20.3961 0.0000 0.0000
# 5 0.0000 0.0000 0.0000 0.0000 22.2345 0.0000
# 6 0.0000 0.0000 0.0000 0.0000 0.0000 19.1443
#
#
#
# Elastic Compliance Matrix: (Units=1/GPa)
#
#
# Indices 1 2 3 4 5 6 
#
# 1 0.015218 -0.009120 -0.006277 0.000000 0.000000 0.000000
# 2 -0.009120 0.028974 -0.005034 0.000000 0.000000 0.000000
# 3 -0.006277 -0.005034 0.019033 0.000000 0.000000 0.000000
# 4 0.000000 0.000000 0.000000 0.049029 0.000000 0.000000
# 5 0.000000 0.000000 0.000000 0.000000 0.044975 0.000000
# 6 0.000000 0.000000 0.000000 0.000000 0.000000 0.052235
#
#
# Mechanical properties :
#
#
# Convention : Reuss Voigt Hill
#
# Bulk Modulus (GPa) = 44.71555 53.54577 49.13066
# Shear Modulus (GPa) = 19.39628 20.39230 19.89429
#
# Velocity S-wave (km/s) = 3.18773 3.26856 3.22840
# Velocity P-wave (km/s) = 6.08072 6.50362 6.29572
#
# Compressibility (1/GPa) = 0.02236359
#
# Stress axis : x y z
#
# Youngs Moduli (GPa) = 65.70957 34.51331 52.54035
#
# Poissons Ratio (x) = 0.31477 0.32978
# Poissons Ratio (y) = 0.59929 0.26449
# Poissons Ratio (z) = 0.41245 0.17374
#
# Static dielectric constant tensor:
#      x y z
#    x 3.488880 0.000000 0.000000 
#    y 0.000000 3.432100 0.000000 
#    z 0.000000 0.000000 3.580120 
# 
# 
# High freq. dielectric constant tensor:
#      x y z
#    x 1.748680 0.000000 0.000000 
#    y 0.000000 1.734340 0.000000 
#    z 0.000000 0.000000 1.733050 
# 
# From -- ./inp_files/11738.got.cif
#   From: 2010.03.12/outbox.cif.g09.slc.cpg/sg65_6_cif.got.tgz:11738.got - 2010.04.10 20:52:16.
