data_PCOD8272947
_publ_section_title
;
Structure prediction by ZEFSAII (Michael W. Deem and Ramdas Pophale) SiO2 
 PCOD8272947
Probable space group: C M M M
;
_chemical_formula_sum "Si O2"
_cell_formula_units_Z 104
_cell_length_a 9.088527
_cell_length_b 28.584696
_cell_length_c 22.875785
_cell_angle_alpha 90.000000
_cell_angle_beta 90.000000
_cell_angle_gamma 90.000000
_cell_volume 5942.963811
_symmetry_space_group_name_H-M "C M M M"
_symmetry_group_IT_number 65
_symmetry_cell_setting 'orthorhombic'
loop_
_space_group_symop_operation_xyz
x,y,z
-x,-y,z
x,-y,-z
-x,y,-z
-x,-y,-z
x,y,-z
-x,y,z
x,-y,z
1/2+x,1/2+y,z
1/2-x,1/2-y,z
1/2+x,1/2-y,-z
1/2-x,1/2+y,-z
1/2-x,1/2-y,-z
1/2+x,1/2+y,-z
1/2-x,1/2+y,z
1/2+x,1/2-y,z
loop_
_atom_site_type_symbol
_atom_site_label
_atom_site_fract_x
_atom_site_fract_y
_atom_site_fract_z
Si Si1 0.325487 0.397039 0.108390
Si Si2 0.664413 0.555044 0.331545
Si Si3 0.828590 0.204039 0.933242
Si Si4 0.160734 0.707281 0.430906
Si Si5 0.330180 0.944555 0.000000
Si Si6 0.674008 0.103930 0.433081
Si Si7 0.328000 0.944987 0.784302
O O1 0.500000 0.405268 0.105038
O O2 0.286486 0.342020 0.103549
O O3 0.262192 0.415631 0.168802
O O4 0.249960 0.425472 0.056845
O O5 0.500000 0.576562 0.325932
O O6 0.653474 0.500000 0.330759
O O7 0.737987 0.568836 0.392491
O O8 0.766732 0.571929 0.278251
O O9 0.750000 0.250000 0.906706
O O10 0.000000 0.214033 0.930253
O O11 0.777152 0.195433 0.000000
O O12 0.149083 0.714041 0.500000
O O13 0.250000 0.750000 0.402114
O O14 0.229951 0.656473 0.417667
O O15 0.000000 0.709735 0.402478
O O16 0.500000 0.928426 0.000000
O O17 0.318061 0.000000 0.000000
O O18 0.711707 0.091399 0.500000
O O19 0.500000 0.099625 0.422472
O O20 0.500000 0.932839 0.788121
O O21 0.300732 0.000000 0.794804
#
# Coordination Sequence:
#
# PCOD8272947 Si02
#       7
#    16  16  16  16   8  16  16
#     4  11  21  35  54  78 107 137 171 212 260 307
#     4  10  21  36  53  74 100 132 172 215 258 304
#     4   9  18  33  51  75 105 137 174 212 253 304
#     4   8  14  25  42  66  96 128 161 196 237 290
#     4  11  23  35  48  73 108 141 174 211 252 301
#     4   9  18  32  50  74 104 136 169 207 255 309
#     4  10  21  37  56  77 101 133 174 213 252 308
#
# _framework density 17.499686000000001
#
# number of rings (size 3 to 8) (size 9 to 14) (size 15 to 20)
#    0.000    2.385    0.769    3.000    0.000    6.769 
#    0.000    3.077    0.000    0.923    0.000    6.462 
#    0.000    0.000    0.000    0.000    0.000    0.000 
#
# Total GULP energy -644675.169059 kJ/mol
# GULP energy per Si atom -12397.599405 kJ/mol
# Density = 1.745986 g / cm^3
# Si number density = 17.499686 Si / 1000 Ang^3
#
#
#
# Elastic Constant Matrix: (Units=GPa)
#
#
# Indices 1 2 3 4 5 6 
#
# 1 100.1016 49.5763 52.7554 0.0000 0.0000 0.0000
# 2 49.5763 64.5992 44.6829 0.0000 0.0000 0.0000
# 3 52.7554 44.6829 94.2225 0.0000 0.0000 0.0000
# 4 0.0000 0.0000 0.0000 -60.2766 0.0000 0.0000
# 5 0.0000 0.0000 0.0000 0.0000 28.7911 0.0000
# 6 0.0000 0.0000 0.0000 0.0000 0.0000 32.5027
#
#
#
# Elastic Compliance Matrix: (Units=1/GPa)
#
#
# Indices 1 2 3 4 5 6 
#
# 1 0.017646 -0.009983 -0.005146 0.000000 0.000000 0.000000
# 2 -0.009983 0.028684 -0.008013 0.000000 0.000000 0.000000
# 3 -0.005146 -0.008013 0.017294 0.000000 0.000000 0.000000
# 4 0.000000 0.000000 0.000000 -0.016590 0.000000 0.000000
# 5 0.000000 0.000000 0.000000 0.000000 0.034733 0.000000
# 6 0.000000 0.000000 0.000000 0.000000 0.000000 0.030767
#
#
# Mechanical properties :
#
#
# Convention : Reuss Voigt Hill
#
# Bulk Modulus (GPa) = 57.66882 61.43915 59.55398
# Shear Modulus (GPa) = 30.37694 7.66402 19.02048
#
# Velocity S-wave (km/s) = 4.17088 2.09500 3.30040
# Velocity P-wave (km/s) = 7.49805 6.40601 6.97344
#
# Compressibility (1/GPa) = 0.01734039
#
# Stress axis : x y z
#
# Youngs Moduli (GPa) = 56.67024 34.86239 57.82190
#
# Poissons Ratio (x) = 0.34803 0.29754
# Poissons Ratio (y) = 0.56574 0.46335
# Poissons Ratio (z) = 0.29162 0.27936
#
# Static dielectric constant tensor:
#      x y z
#    x 3.454660 0.000000 0.000000 
#    y 0.000000 3.335030 0.000000 
#    z 0.000000 0.000000 3.185850 
# 
# 
# High freq. dielectric constant tensor:
#      x y z
#    x 1.685630 0.000000 0.000000 
#    y 0.000000 1.675240 0.000000 
#    z 0.000000 0.000000 1.650490 
# 
# From -- ./inp_files/60861.got.cif
#   From: 2010.03.12/outbox.cif.g09.slc.cpg/sg65_31_cif.got.tgz:60861.got - 2010.04.10 20:52:16.
