data_PCOD8272143
_publ_section_title
;
Structure prediction by ZEFSAII (Michael W. Deem and Ramdas Pophale) SiO2 
 PCOD8272143
Probable space group: C M M M
;
_chemical_formula_sum "Si O2"
_cell_formula_units_Z 88
_cell_length_a 22.031352
_cell_length_b 8.962522
_cell_length_c 24.742989
_cell_angle_alpha 90.000000
_cell_angle_beta 90.000000
_cell_angle_gamma 90.000000
_cell_volume 4885.663438
_symmetry_space_group_name_H-M "C M M M"
_symmetry_group_IT_number 65
_symmetry_cell_setting 'orthorhombic'
loop_
_space_group_symop_operation_xyz
x,y,z
-x,-y,z
x,-y,-z
-x,y,-z
-x,-y,-z
x,y,-z
-x,y,z
x,-y,z
1/2+x,1/2+y,z
1/2-x,1/2-y,z
1/2+x,1/2-y,-z
1/2-x,1/2+y,-z
1/2-x,1/2-y,-z
1/2+x,1/2+y,-z
1/2-x,1/2+y,z
1/2+x,1/2-y,z
loop_
_atom_site_type_symbol
_atom_site_label
_atom_site_fract_x
_atom_site_fract_y
_atom_site_fract_z
Si Si1 0.884876 0.676920 0.394629
Si Si2 0.500000 0.676718 0.438650
Si Si3 0.312863 0.825930 0.500000
Si Si4 0.188078 0.824853 0.304006
Si Si5 0.569965 0.676675 0.109794
Si Si6 0.813368 0.826377 0.821438
Si Si7 0.071212 0.665217 0.000000
O O1 0.892376 0.500000 0.390857
O O2 0.845042 0.727471 0.445573
O O3 0.862878 0.741761 0.337902
O O4 0.946661 0.759015 0.403805
O O5 0.500000 0.500000 0.439118
O O6 0.500000 0.739640 0.500000
O O7 0.250000 0.750000 0.500000
O O8 0.304409 0.000000 0.500000
O O9 0.250000 0.750000 0.323377
O O10 0.176050 0.791962 0.241342
O O11 0.189654 0.000000 0.316948
O O12 0.500000 0.727380 0.126099
O O13 0.570112 0.500000 0.104558
O O14 0.623625 0.730366 0.150642
O O15 0.591071 0.744916 0.052950
O O16 0.750000 0.750000 0.841648
O O17 0.804149 0.000000 0.832989
O O18 0.101294 0.500000 0.000000
O O19 0.000000 0.647654 0.000000
#
# Coordination Sequence:
#
# PCOD8272143 Si02
#       7
#    16   8   8  16  16  16   8
#     4  11  22  38  57  78 106 141 175 215 264 317
#     4  11  23  39  59  81 105 139 175 212 259 320
#     4  10  22  35  52  77 103 132 166 212 261 308
#     4  10  20  36  56  81 108 139 179 221 267 318
#     4   9  17  32  54  78 105 141 183 223 266 320
#     4   9  19  35  55  79 108 144 182 223 272 322
#     4   9  17  29  48  77 110 141 175 221 272 317
#
# _framework density 18.011884999999999
#
# number of rings (size 3 to 8) (size 9 to 14) (size 15 to 20)
#    0.000    2.182    0.909    2.182    0.000    5.818 
#    1.636    0.455    0.000    0.000    0.000    0.000 
#    0.000    0.000    0.000    0.000    0.000    0.000 
#
# Total GULP energy -545292.241972 kJ/mol
# GULP energy per Si atom -12393.005499 kJ/mol
# Density = 1.797089 g / cm^3
# Si number density = 18.011885 Si / 1000 Ang^3
#
#
#
# Elastic Constant Matrix: (Units=GPa)
#
#
# Indices 1 2 3 4 5 6 
#
# 1 147.3611 44.6019 66.4037 0.0000 0.0000 0.0000
# 2 44.6019 56.6468 37.6877 0.0000 0.0000 0.0000
# 3 66.4037 37.6877 93.8355 0.0000 0.0000 0.0000
# 4 0.0000 0.0000 0.0000 27.2558 0.0000 0.0000
# 5 0.0000 0.0000 0.0000 0.0000 35.4576 0.0000
# 6 0.0000 0.0000 0.0000 0.0000 0.0000 31.6786
#
#
#
# Elastic Compliance Matrix: (Units=1/GPa)
#
#
# Indices 1 2 3 4 5 6 
#
# 1 0.010796 -0.004664 -0.005767 0.000000 0.000000 0.000000
# 2 -0.004664 0.026105 -0.007184 0.000000 0.000000 0.000000
# 3 -0.005767 -0.007184 0.017624 0.000000 0.000000 0.000000
# 4 0.000000 0.000000 0.000000 0.036689 0.000000 0.000000
# 5 0.000000 0.000000 0.000000 0.000000 0.028203 0.000000
# 6 0.000000 0.000000 0.000000 0.000000 0.000000 0.031567
#
#
# Mechanical properties :
#
#
# Convention : Reuss Voigt Hill
#
# Bulk Modulus (GPa) = 51.82776 66.13668 58.98222
# Shear Modulus (GPa) = 25.95429 28.82175 27.38802
#
# Velocity S-wave (km/s) = 3.80011 4.00453 3.90366
# Velocity P-wave (km/s) = 6.93477 7.62756 7.28940
#
# Compressibility (1/GPa) = 0.01929468
#
# Stress axis : x y z
#
# Youngs Moduli (GPa) = 92.62350 38.30645 56.74236
#
# Poissons Ratio (x) = 0.17866 0.32723
# Poissons Ratio (y) = 0.43199 0.40766
# Poissons Ratio (z) = 0.53416 0.27521
#
# Static dielectric constant tensor:
#      x y z
#    x 3.425700 0.000000 0.000000 
#    y 0.000000 3.423020 0.000000 
#    z 0.000000 0.000000 3.344250 
# 
# 
# High freq. dielectric constant tensor:
#      x y z
#    x 1.697690 0.000000 0.000000 
#    y 0.000000 1.701490 0.000000 
#    z 0.000000 0.000000 1.695300 
# 
# From -- ./inp_files/71051.got.cif
#   From: 2010.03.12/outbox.cif.g09.slc.cpg/sg65_36_cif.got.tgz:71051.got - 2010.04.10 20:52:16.
