data_PCOD8272670
_publ_section_title
;
Structure prediction by ZEFSAII (Michael W. Deem and Ramdas Pophale) SiO2 
 PCOD8272670
Probable space group: C M M M
;
_chemical_formula_sum "Si O2"
_cell_formula_units_Z 88
_cell_length_a 9.902895
_cell_length_b 18.579024
_cell_length_c 28.040139
_cell_angle_alpha 90.000000
_cell_angle_beta 90.000000
_cell_angle_gamma 90.000000
_cell_volume 5158.996488
_symmetry_space_group_name_H-M "C M M M"
_symmetry_group_IT_number 65
_symmetry_cell_setting 'orthorhombic'
loop_
_space_group_symop_operation_xyz
x,y,z
-x,-y,z
x,-y,-z
-x,y,-z
-x,-y,-z
x,y,-z
-x,y,z
x,-y,z
1/2+x,1/2+y,z
1/2-x,1/2-y,z
1/2+x,1/2-y,-z
1/2-x,1/2+y,-z
1/2-x,1/2-y,-z
1/2+x,1/2+y,-z
1/2-x,1/2+y,z
1/2+x,1/2-y,z
loop_
_atom_site_type_symbol
_atom_site_label
_atom_site_fract_x
_atom_site_fract_y
_atom_site_fract_z
Si Si1 0.344283 0.083312 0.409240
Si Si2 0.848155 0.085499 0.220714
Si Si3 0.848967 0.085466 0.326381
Si Si4 0.654580 0.815310 0.946032
Si Si5 0.845589 0.416736 0.139413
Si Si6 0.657024 0.820096 0.500000
O O1 0.500000 0.091209 0.394704
O O2 0.256561 0.114354 0.365345
O O3 0.307783 0.131211 0.454608
O O4 0.309658 0.000000 0.420903
O O5 0.809674 0.114518 0.273599
O O6 0.745861 0.117559 0.181443
O O7 0.000000 0.109741 0.207522
O O8 0.837229 0.000000 0.220963
O O9 0.000000 0.111698 0.339930
O O10 0.844565 0.000000 0.325432
O O11 0.500000 0.789778 0.940493
O O12 0.750000 0.750000 0.931489
O O13 0.688543 0.880658 0.910983
O O14 0.683842 0.841424 0.000000
O O15 0.812160 0.500000 0.132128
O O16 0.000000 0.404070 0.154611
O O17 0.500000 0.796863 0.500000
O O18 0.750000 0.750000 0.500000
#
# Coordination Sequence:
#
# PCOD8272670 Si02
#       6
#    16  16  16  16  16   8
#     4   9  17  30  49  71  93 118 150 188 226 263
#     4   8  14  25  41  63  93 124 148 175 218 268
#     4   8  14  25  42  66  94 120 147 181 221 264
#     4   9  18  32  48  65  87 117 151 186 225 268
#     4   9  17  28  44  68  94 118 147 184 223 264
#     4  10  21  35  49  67  93 124 154 184 224 272
#
# _framework density 17.057580999999999
#
# number of rings (size 3 to 8) (size 9 to 14) (size 15 to 20)
#    0.000    3.273    0.000    1.364    0.000    3.636 
#    0.000    5.455    0.000    3.818    0.000    5.091 
#    0.000    0.000    0.000    0.000    0.000    0.000 
#
# Total GULP energy -545399.080614 kJ/mol
# GULP energy per Si atom -12395.433650 kJ/mol
# Density = 1.701876 g / cm^3
# Si number density = 17.057581 Si / 1000 Ang^3
#
#
#
# Elastic Constant Matrix: (Units=GPa)
#
#
# Indices 1 2 3 4 5 6 
#
# 1 99.2779 44.0358 91.7603 0.0000 0.0000 0.0000
# 2 44.0358 47.4708 50.6073 0.0000 0.0000 0.0000
# 3 91.7603 50.6073 150.6182 0.0000 0.0000 0.0000
# 4 0.0000 0.0000 0.0000 3.0117 0.0000 0.0000
# 5 0.0000 0.0000 0.0000 0.0000 34.6491 0.0000
# 6 0.0000 0.0000 0.0000 0.0000 0.0000 21.3141
#
#
#
# Elastic Compliance Matrix: (Units=1/GPa)
#
#
# Indices 1 2 3 4 5 6 
#
# 1 0.026559 -0.011511 -0.012313 0.000000 0.000000 0.000000
# 2 -0.011511 0.037811 -0.005692 0.000000 0.000000 0.000000
# 3 -0.012313 -0.005692 0.016053 0.000000 0.000000 0.000000
# 4 0.000000 0.000000 0.000000 0.332034 0.000000 0.000000
# 5 0.000000 0.000000 0.000000 0.000000 0.028861 0.000000
# 6 0.000000 0.000000 0.000000 0.000000 0.000000 0.046917
#
#
# Mechanical properties :
#
#
# Convention : Reuss Voigt Hill
#
# Bulk Modulus (GPa) = 46.74541 74.46373 60.60457
# Shear Modulus (GPa) = 9.01881 19.19256 14.10569
#
# Velocity S-wave (km/s) = 2.30190 3.35798 2.87879
# Velocity P-wave (km/s) = 5.87614 7.66706 6.83055
#
# Compressibility (1/GPa) = 0.02139247
#
# Stress axis : x y z
#
# Youngs Moduli (GPa) = 37.65234 26.44706 62.29390
#
# Poissons Ratio (x) = 0.30443 0.76700
# Poissons Ratio (y) = 0.43341 0.35457
# Poissons Ratio (z) = 0.46360 0.15053
#
# Static dielectric constant tensor:
#      x y z
#    x 3.346580 0.000000 0.000000 
#    y 0.000000 2.765210 0.000000 
#    z 0.000000 0.000000 3.519080 
# 
# 
# High freq. dielectric constant tensor:
#      x y z
#    x 1.661480 0.000000 0.000000 
#    y 0.000000 1.609520 0.000000 
#    z 0.000000 0.000000 1.669680 
# 
# From -- ./inp_files/61461.got.cif
#   From: 2010.03.12/outbox.cif.g09.slc.cpg/sg65_31_cif.got.tgz:61461.got - 2010.04.10 20:52:16.
