data_PCOD8272408
_publ_section_title
;
Structure prediction by ZEFSAII (Michael W. Deem and Ramdas Pophale) SiO2 
 PCOD8272408
Probable space group: C M M M
;
_chemical_formula_sum "Si O2"
_cell_formula_units_Z 88
_cell_length_a 8.652758
_cell_length_b 23.549617
_cell_length_c 22.710151
_cell_angle_alpha 90.000000
_cell_angle_beta 90.000000
_cell_angle_gamma 90.000000
_cell_volume 4627.627868
_symmetry_space_group_name_H-M "C M M M"
_symmetry_group_IT_number 65
_symmetry_cell_setting 'orthorhombic'
loop_
_space_group_symop_operation_xyz
x,y,z
-x,-y,z
x,-y,-z
-x,y,-z
-x,-y,-z
x,y,-z
-x,y,z
x,-y,z
1/2+x,1/2+y,z
1/2-x,1/2-y,z
1/2+x,1/2-y,-z
1/2-x,1/2+y,-z
1/2-x,1/2-y,-z
1/2+x,1/2+y,-z
1/2-x,1/2+y,z
1/2+x,1/2-y,z
loop_
_atom_site_type_symbol
_atom_site_label
_atom_site_fract_x
_atom_site_fract_y
_atom_site_fract_z
Si Si1 0.181239 0.935386 0.432891
Si Si2 0.316697 0.811912 0.000000
Si Si3 0.317861 0.885063 0.675755
Si Si4 0.817747 0.500000 0.135838
Si Si5 0.317367 0.311834 0.225416
Si Si6 0.316204 0.000000 0.265834
Si Si7 0.683378 0.123522 0.114989
O O1 0.221121 0.919596 0.500000
O O2 0.268744 0.888696 0.392683
O O3 0.000000 0.930905 0.421213
O O4 0.237970 0.000000 0.419685
O O5 0.250000 0.750000 0.000000
O O6 0.254420 0.842824 0.058401
O O7 0.500000 0.810809 0.000000
O O8 0.500000 0.876967 0.681871
O O9 0.237718 0.833428 0.710483
O O10 0.254365 0.943827 0.702628
O O11 0.744964 0.500000 0.200775
O O12 0.766817 0.442124 0.103211
O O13 0.000000 0.500000 0.142546
O O14 0.500000 0.308182 0.224013
O O15 0.250000 0.250000 0.212638
O O16 0.260018 0.354123 0.174566
O O17 0.500000 0.000000 0.266066
O O18 0.500000 0.129539 0.122642
#
# Coordination Sequence:
#
# PCOD8272408 Si02
#       7
#    16   8  16   8  16   8  16
#     4   9  18  32  50  78 118 157 191 230 276 328
#     4  10  22  37  57  81 109 148 195 238 281 328
#     4  11  20  34  56  83 114 149 188 232 280 334
#     4   9  16  31  56  82 115 146 176 220 278 335
#     4  12  25  40  58  82 109 144 187 235 284 336
#     4   9  16  28  50  81 112 146 177 217 275 332
#     4  10  20  37  59  85 114 147 184 229 280 337
#
# _framework density 19.016223
#
# number of rings (size 3 to 8) (size 9 to 14) (size 15 to 20)
#    0.000    1.818    2.727    3.273    0.000    2.909 
#    0.000    4.091    0.000    0.545    0.000    1.909 
#    0.000    0.000    0.000    0.000    0.000    0.000 
#
# Total GULP energy -545536.506067 kJ/mol
# GULP energy per Si atom -12398.556956 kJ/mol
# Density = 1.897294 g / cm^3
# Si number density = 19.016223 Si / 1000 Ang^3
#
#
#
# Elastic Constant Matrix: (Units=GPa)
#
#
# Indices 1 2 3 4 5 6 
#
# 1 69.7266 34.6532 32.7157 0.0000 0.0000 0.0000
# 2 34.6532 124.2242 52.3280 0.0000 0.0000 0.0000
# 3 32.7157 52.3280 121.3793 0.0000 0.0000 0.0000
# 4 0.0000 0.0000 0.0000 28.6350 0.0000 0.0000
# 5 0.0000 0.0000 0.0000 0.0000 25.4082 0.0000
# 6 0.0000 0.0000 0.0000 0.0000 0.0000 24.4367
#
#
#
# Elastic Compliance Matrix: (Units=1/GPa)
#
#
# Indices 1 2 3 4 5 6 
#
# 1 0.017620 -0.003561 -0.003214 0.000000 0.000000 0.000000
# 2 -0.003561 0.010556 -0.003591 0.000000 0.000000 0.000000
# 3 -0.003214 -0.003591 0.010653 0.000000 0.000000 0.000000
# 4 0.000000 0.000000 0.000000 0.034922 0.000000 0.000000
# 5 0.000000 0.000000 0.000000 0.000000 0.039357 0.000000
# 6 0.000000 0.000000 0.000000 0.000000 0.000000 0.040922
#
#
# Mechanical properties :
#
#
# Convention : Reuss Voigt Hill
#
# Bulk Modulus (GPa) = 55.25917 61.63599 58.44758
# Shear Modulus (GPa) = 27.65571 28.73819 28.19695
#
# Velocity S-wave (km/s) = 3.81769 3.89169 3.85487
# Velocity P-wave (km/s) = 6.96815 7.25785 7.11447
#
# Compressibility (1/GPa) = 0.01809654
#
# Stress axis : x y z
#
# Youngs Moduli (GPa) = 56.75517 94.73234 93.87092
#
# Poissons Ratio (x) = 0.33738 0.30167
# Poissons Ratio (y) = 0.20213 0.33708
# Poissons Ratio (z) = 0.18239 0.34018
#
# Static dielectric constant tensor:
#      x y z
#    x 3.230730 0.000000 0.000000 
#    y 0.000000 3.554800 0.000000 
#    z 0.000000 0.000000 3.625280 
# 
# 
# High freq. dielectric constant tensor:
#      x y z
#    x 1.719110 0.000000 0.000000 
#    y 0.000000 1.730550 0.000000 
#    z 0.000000 0.000000 1.744090 
# 
# From -- ./inp_files/59944.got.cif
#   From: 2010.03.12/outbox.cif.g09.slc.cpg/sg65_30_cif.got.tgz:59944.got - 2010.04.10 20:52:16.
