data_PCOD8272120
_publ_section_title
;
Structure prediction by ZEFSAII (Michael W. Deem and Ramdas Pophale) SiO2 
 PCOD8272120
Probable space group: C M M M
;
_chemical_formula_sum "Si O2"
_cell_formula_units_Z 72
_cell_length_a 8.862657
_cell_length_b 15.896126
_cell_length_c 24.914375
_cell_angle_alpha 90.000000
_cell_angle_beta 90.000000
_cell_angle_gamma 90.000000
_cell_volume 3509.984795
_symmetry_space_group_name_H-M "C M M M"
_symmetry_group_IT_number 65
_symmetry_cell_setting 'orthorhombic'
loop_
_space_group_symop_operation_xyz
x,y,z
-x,-y,z
x,-y,-z
-x,y,-z
-x,-y,-z
x,y,-z
-x,y,z
x,-y,z
1/2+x,1/2+y,z
1/2-x,1/2-y,z
1/2+x,1/2-y,-z
1/2-x,1/2+y,-z
1/2-x,1/2-y,-z
1/2+x,1/2+y,-z
1/2-x,1/2+y,z
1/2+x,1/2-y,z
loop_
_atom_site_type_symbol
_atom_site_label
_atom_site_fract_x
_atom_site_fract_y
_atom_site_fract_z
Si Si1 0.823295 0.841201 0.558200
Si Si2 0.679585 0.500000 0.938997
Si Si3 0.830613 0.904341 0.764025
Si Si4 0.322643 0.841326 0.337789
Si Si5 0.678106 0.336587 0.876702
O O1 0.796049 0.886349 0.500000
O O2 0.750000 0.750000 0.555523
O O3 0.744622 0.888026 0.608711
O O4 0.000000 0.833065 0.569870
O O5 0.500000 0.500000 0.935389
O O6 0.742618 0.415579 0.910487
O O7 0.737211 0.500000 0.000000
O O8 0.717071 0.894901 0.714520
O O9 0.777812 0.847985 0.814132
O O10 0.000000 0.878815 0.745793
O O11 0.828272 0.000000 0.784279
O O12 0.500000 0.833841 0.343927
O O13 0.250000 0.750000 0.331038
O O14 0.500000 0.330868 0.883916
O O15 0.750000 0.250000 0.898139
#
# Coordination Sequence:
#
# PCOD8272120 Si02
#       5
#    16   8  16  16  16
#     4   9  16  27  45  69  98 133 174 221 274 332
#     4   9  18  36  61  87 119 159 200 237 280 341
#     4  10  20  36  56  76 105 143 184 230 284 346
#     4  11  21  32  49  75 106 138 177 225 278 338
#     4  10  20  36  59  87 116 153 196 239 288 342
#
# _framework density 20.512909000000001
#
# number of rings (size 3 to 8) (size 9 to 14) (size 15 to 20)
#    0.000    2.111    1.111    4.667    0.000    4.889 
#    0.000    0.556    0.000    1.333    0.000    4.667 
#    0.000    0.000    0.000    0.000    0.000    0.000 
#
# Total GULP energy -446218.626993 kJ/mol
# GULP energy per Si atom -12394.961861 kJ/mol
# Density = 2.046622 g / cm^3
# Si number density = 20.512909 Si / 1000 Ang^3
#
#
#
# Elastic Constant Matrix: (Units=GPa)
#
#
# Indices 1 2 3 4 5 6 
#
# 1 101.0944 26.6680 52.3031 0.0000 0.0000 0.0000
# 2 26.6680 100.6696 55.3110 0.0000 0.0000 0.0000
# 3 52.3031 55.3110 145.7697 0.0000 0.0000 0.0000
# 4 0.0000 0.0000 0.0000 21.0311 0.0000 0.0000
# 5 0.0000 0.0000 0.0000 0.0000 16.2271 0.0000
# 6 0.0000 0.0000 0.0000 0.0000 0.0000 23.9252
#
#
#
# Elastic Compliance Matrix: (Units=1/GPa)
#
#
# Indices 1 2 3 4 5 6 
#
# 1 0.012233 -0.001047 -0.003992 0.000000 0.000000 0.000000
# 2 -0.001047 0.012640 -0.004420 0.000000 0.000000 0.000000
# 3 -0.003992 -0.004420 0.009970 0.000000 0.000000 0.000000
# 4 0.000000 0.000000 0.000000 0.047549 0.000000 0.000000
# 5 0.000000 0.000000 0.000000 0.000000 0.061625 0.000000
# 6 0.000000 0.000000 0.000000 0.000000 0.000000 0.041797
#
#
# Mechanical properties :
#
#
# Convention : Reuss Voigt Hill
#
# Bulk Modulus (GPa) = 62.80012 68.45531 65.62771
# Shear Modulus (GPa) = 23.80499 26.45348 25.12923
#
# Velocity S-wave (km/s) = 3.41029 3.59500 3.50386
# Velocity P-wave (km/s) = 6.79619 7.11873 6.95933
#
# Compressibility (1/GPa) = 0.01592354
#
# Stress axis : x y z
#
# Youngs Moduli (GPa) = 81.74364 79.11697 100.30415
#
# Poissons Ratio (x) = 0.08286 0.40041
# Poissons Ratio (y) = 0.08562 0.44336
# Poissons Ratio (z) = 0.32632 0.34971
#
# Static dielectric constant tensor:
#      x y z
#    x 3.514360 0.000000 0.000000 
#    y 0.000000 3.476080 0.000000 
#    z 0.000000 0.000000 4.264280 
# 
# 
# High freq. dielectric constant tensor:
#      x y z
#    x 1.784140 0.000000 0.000000 
#    y 0.000000 1.773650 0.000000 
#    z 0.000000 0.000000 1.817400 
# 
# From -- ./inp_files/72477.got.cif
#   From: 2010.03.12/outbox.cif.g09.slc.cpg/sg65_37_cif.got.tgz:72477.got - 2010.04.10 20:52:16.
