data_PCOD8272870
_publ_section_title
;
Structure prediction by ZEFSAII (Michael W. Deem and Ramdas Pophale) SiO2 
 PCOD8272870
Probable space group: C M M M
;
_chemical_formula_sum "Si O2"
_cell_formula_units_Z 72
_cell_length_a 12.266658
_cell_length_b 17.300334
_cell_length_c 17.713560
_cell_angle_alpha 90.000000
_cell_angle_beta 90.000000
_cell_angle_gamma 90.000000
_cell_volume 3759.123531
_symmetry_space_group_name_H-M "C M M M"
_symmetry_group_IT_number 65
_symmetry_cell_setting 'orthorhombic'
loop_
_space_group_symop_operation_xyz
x,y,z
-x,-y,z
x,-y,-z
-x,y,-z
-x,-y,-z
x,y,-z
-x,y,z
x,-y,z
1/2+x,1/2+y,z
1/2-x,1/2-y,z
1/2+x,1/2-y,-z
1/2-x,1/2+y,-z
1/2-x,1/2-y,-z
1/2+x,1/2+y,-z
1/2-x,1/2+y,z
1/2+x,1/2-y,z
loop_
_atom_site_type_symbol
_atom_site_label
_atom_site_fract_x
_atom_site_fract_y
_atom_site_fract_z
Si Si1 0.000000 0.412291 0.798407
Si Si2 0.724987 0.838901 0.797528
Si Si3 0.620647 0.409043 0.917842
Si Si4 0.000000 0.412414 0.620342
Si Si5 0.121270 0.090538 0.500000
Si Si6 0.727726 0.160372 0.622444
O O1 0.104375 0.363021 0.824906
O O2 0.000000 0.500000 0.832498
O O3 0.000000 0.418824 0.709316
O O4 0.750000 0.750000 0.812389
O O5 0.806713 0.886742 0.847690
O O6 0.743430 0.860678 0.710177
O O7 0.500000 0.374334 0.905008
O O8 0.614142 0.500000 0.919834
O O9 0.665313 0.379671 0.000000
O O10 0.892869 0.364975 0.593841
O O11 0.000000 0.500000 0.586152
O O12 0.182796 0.114448 0.424105
O O13 0.000000 0.127464 0.500000
O O14 0.111866 0.000000 0.500000
O O15 0.750000 0.250000 0.606982
#
# Coordination Sequence:
#
# PCOD8272870 Si02
#       6
#     8  16  16   8   8  16
#     4   9  18  34  54  82 117 146 180 238 294 334
#     4  10  21  35  59  86 113 150 193 237 289 348
#     4   9  19  36  57  82 114 153 195 236 280 338
#     4   9  18  35  60  84 108 144 194 240 276 335
#     4  11  25  41  57  83 119 151 187 239 289 339
#     4  10  22  39  59  84 115 151 191 237 293 348
#
# _framework density 19.153400999999999
#
# number of rings (size 3 to 8) (size 9 to 14) (size 15 to 20)
#    0.000    2.333    0.000    2.333    3.111    4.444 
#    0.000    3.889    0.000    2.000    0.000    0.000 
#    0.000    0.000    0.000    0.000    0.000    0.000 
#
# Total GULP energy -446242.022015 kJ/mol
# GULP energy per Si atom -12395.611723 kJ/mol
# Density = 1.910981 g / cm^3
# Si number density = 19.153401 Si / 1000 Ang^3
#
#
#
# Elastic Constant Matrix: (Units=GPa)
#
#
# Indices 1 2 3 4 5 6 
#
# 1 175.1575 73.2086 62.9568 0.0000 0.0000 0.0000
# 2 73.2086 99.5976 30.1202 0.0000 0.0000 0.0000
# 3 62.9568 30.1202 76.7313 0.0000 0.0000 0.0000
# 4 0.0000 0.0000 0.0000 35.4653 0.0000 0.0000
# 5 0.0000 0.0000 0.0000 0.0000 81.0869 0.0000
# 6 0.0000 0.0000 0.0000 0.0000 0.0000 37.4122
#
#
#
# Elastic Compliance Matrix: (Units=1/GPa)
#
#
# Indices 1 2 3 4 5 6 
#
# 1 0.010340 -0.005713 -0.006241 0.000000 0.000000 0.000000
# 2 -0.005713 0.014549 -0.001024 0.000000 0.000000 0.000000
# 3 -0.006241 -0.001024 0.018555 0.000000 0.000000 0.000000
# 4 0.000000 0.000000 0.000000 0.028197 0.000000 0.000000
# 5 0.000000 0.000000 0.000000 0.000000 0.012332 0.000000
# 6 0.000000 0.000000 0.000000 0.000000 0.000000 0.026729
#
#
# Mechanical properties :
#
#
# Convention : Reuss Voigt Hill
#
# Bulk Modulus (GPa) = 57.18038 76.00639 66.59339
# Shear Modulus (GPa) = 35.09031 43.13958 39.11494
#
# Velocity S-wave (km/s) = 4.28491 4.75101 4.52397
# Velocity P-wave (km/s) = 7.37559 8.35854 7.88240
#
# Compressibility (1/GPa) = 0.01748852
#
# Stress axis : x y z
#
# Youngs Moduli (GPa) = 96.70859 68.73153 53.89270
#
# Poissons Ratio (x) = 0.39267 0.33637
# Poissons Ratio (y) = 0.55250 0.05517
# Poissons Ratio (z) = 0.60360 0.07036
#
# Static dielectric constant tensor:
#      x y z
#    x 3.977360 0.000000 0.000000 
#    y 0.000000 3.110280 0.000000 
#    z 0.000000 0.000000 3.447290 
# 
# 
# High freq. dielectric constant tensor:
#      x y z
#    x 1.752980 0.000000 0.000000 
#    y 0.000000 1.744790 0.000000 
#    z 0.000000 0.000000 1.737280 
# 
# From -- ./inp_files/51163.got.cif
#   From: 2010.03.12/outbox.cif.g09.slc.cpg/sg65_26_cif.got.tgz:51163.got - 2010.04.10 20:52:16.
