data_PCOD8272762
_publ_section_title
;
Structure prediction by ZEFSAII (Michael W. Deem and Ramdas Pophale) SiO2 
 PCOD8272762
Probable space group: C M M M
;
_chemical_formula_sum "Si O2"
_cell_formula_units_Z 72
_cell_length_a 18.582886
_cell_length_b 9.164644
_cell_length_c 22.833196
_cell_angle_alpha 90.000000
_cell_angle_beta 90.000000
_cell_angle_gamma 90.000000
_cell_volume 3888.619653
_symmetry_space_group_name_H-M "C M M M"
_symmetry_group_IT_number 65
_symmetry_cell_setting 'orthorhombic'
loop_
_space_group_symop_operation_xyz
x,y,z
-x,-y,z
x,-y,-z
-x,y,-z
-x,-y,-z
x,y,-z
-x,y,z
x,-y,z
1/2+x,1/2+y,z
1/2-x,1/2-y,z
1/2+x,1/2-y,-z
1/2-x,1/2+y,-z
1/2-x,1/2-y,-z
1/2+x,1/2+y,-z
1/2-x,1/2+y,z
1/2+x,1/2-y,z
loop_
_atom_site_type_symbol
_atom_site_label
_atom_site_fract_x
_atom_site_fract_y
_atom_site_fract_z
Si Si1 0.325862 0.672539 0.838763
Si Si2 0.917649 0.328805 0.611074
Si Si3 0.082285 0.829552 0.727045
Si Si4 0.174045 0.327316 0.500000
Si Si5 0.417178 0.166825 0.932072
O O1 0.315129 0.500000 0.842052
O O2 0.250000 0.750000 0.834796
O O3 0.371082 0.721083 0.782149
O O4 0.367298 0.723523 0.896511
O O5 0.910659 0.500000 0.620706
O O6 0.888376 0.251620 0.669508
O O7 0.869953 0.275406 0.556816
O O8 0.000000 0.283497 0.598304
O O9 0.000000 0.784731 0.739939
O O10 0.089875 0.000000 0.715404
O O11 0.184958 0.500000 0.500000
O O12 0.250000 0.250000 0.500000
O O13 0.500000 0.205387 0.919250
O O14 0.401047 0.000000 0.913810
O O15 0.399340 0.189970 0.000000
#
# Coordination Sequence:
#
# PCOD8272762 Si02
#       5
#    16  16  16   8  16
#     4  11  23  37  54  78 110 146 181 219 265 316
#     4   9  18  34  56  78 100 132 174 216 257 304
#     4   9  19  36  56  78 104 134 172 219 266 312
#     4  10  21  35  51  75 107 138 170 210 256 308
#     4   9  19  37  60  84 109 138 175 220 267 316
#
# _framework density 18.515567999999998
#
# number of rings (size 3 to 8) (size 9 to 14) (size 15 to 20)
#    0.000    2.444    0.000    2.333    0.000    7.111 
#    0.000    7.778    0.000    3.333    0.000    0.000 
#    0.000    0.000    0.000    0.000    0.000    0.000 
#
# Total GULP energy -446513.981965 kJ/mol
# GULP energy per Si atom -12403.166166 kJ/mol
# Density = 1.847343 g / cm^3
# Si number density = 18.515568 Si / 1000 Ang^3
#
#
#
# Elastic Constant Matrix: (Units=GPa)
#
#
# Indices 1 2 3 4 5 6 
#
# 1 117.2973 52.3037 84.8217 0.0000 0.0000 0.0000
# 2 52.3037 59.4835 59.0592 0.0000 0.0000 0.0000
# 3 84.8217 59.0592 143.0663 0.0000 0.0000 0.0000
# 4 0.0000 0.0000 0.0000 36.4270 0.0000 0.0000
# 5 0.0000 0.0000 0.0000 0.0000 9.4380 0.0000
# 6 0.0000 0.0000 0.0000 0.0000 0.0000 14.2481
#
#
#
# Elastic Compliance Matrix: (Units=1/GPa)
#
#
# Indices 1 2 3 4 5 6 
#
# 1 0.017096 -0.008420 -0.006660 0.000000 0.000000 0.000000
# 2 -0.008420 0.032634 -0.008480 0.000000 0.000000 0.000000
# 3 -0.006660 -0.008480 0.014439 0.000000 0.000000 0.000000
# 4 0.000000 0.000000 0.000000 0.027452 0.000000 0.000000
# 5 0.000000 0.000000 0.000000 0.000000 0.105955 0.000000
# 6 0.000000 0.000000 0.000000 0.000000 0.000000 0.070185
#
#
# Mechanical properties :
#
#
# Convention : Reuss Voigt Hill
#
# Bulk Modulus (GPa) = 58.65198 79.13514 68.89356
# Shear Modulus (GPa) = 15.59754 20.26678 17.93216
#
# Velocity S-wave (km/s) = 2.90556 3.31203 3.11543
# Velocity P-wave (km/s) = 6.55761 7.58015 7.08735
#
# Compressibility (1/GPa) = 0.01704972
#
# Stress axis : x y z
#
# Youngs Moduli (GPa) = 58.49333 30.64274 69.25698
#
# Poissons Ratio (x) = 0.25801 0.46126
# Poissons Ratio (y) = 0.49250 0.58728
# Poissons Ratio (z) = 0.38957 0.25984
#
# Static dielectric constant tensor:
#      x y z
#    x 3.399060 0.000000 0.000000 
#    y 0.000000 3.313930 0.000000 
#    z 0.000000 0.000000 3.525370 
# 
# 
# High freq. dielectric constant tensor:
#      x y z
#    x 1.716800 0.000000 0.000000 
#    y 0.000000 1.713740 0.000000 
#    z 0.000000 0.000000 1.729570 
# 
# From -- ./inp_files/64324.got.cif
#   From: 2010.03.12/outbox.cif.g09.slc.cpg/sg65_33_cif.got.tgz:64324.got - 2010.04.10 20:52:16.
