data_PCOD8272643
_publ_section_title
;
Structure prediction by ZEFSAII (Michael W. Deem and Ramdas Pophale) SiO2 
 PCOD8272643
Probable space group: C M M M
;
_chemical_formula_sum "Si O2"
_cell_formula_units_Z 104
_cell_length_a 8.083115
_cell_length_b 18.772790
_cell_length_c 35.099090
_cell_angle_alpha 90.000000
_cell_angle_beta 90.000000
_cell_angle_gamma 90.000000
_cell_volume 5326.027892
_symmetry_space_group_name_H-M "C M M M"
_symmetry_group_IT_number 65
_symmetry_cell_setting 'orthorhombic'
loop_
_space_group_symop_operation_xyz
x,y,z
-x,-y,z
x,-y,-z
-x,y,-z
-x,-y,-z
x,y,-z
-x,y,z
x,-y,z
1/2+x,1/2+y,z
1/2-x,1/2-y,z
1/2+x,1/2-y,-z
1/2-x,1/2+y,-z
1/2-x,1/2-y,-z
1/2+x,1/2+y,-z
1/2-x,1/2+y,z
1/2+x,1/2-y,z
loop_
_atom_site_type_symbol
_atom_site_label
_atom_site_fract_x
_atom_site_fract_y
_atom_site_fract_z
Si Si1 0.804025 0.420160 0.819920
Si Si2 0.500000 0.084224 0.542456
Si Si3 0.806444 0.918792 0.956868
Si Si4 0.811444 0.329196 0.888447
Si Si5 0.193150 0.169530 0.331442
Si Si6 0.809258 0.083752 0.593384
Si Si7 0.304172 0.580290 0.261577
O O1 0.731165 0.500000 0.824351
O O2 0.724301 0.372237 0.853754
O O3 0.750089 0.387889 0.779224
O O4 0.000000 0.422310 0.822772
O O5 0.500000 0.117284 0.500000
O O6 0.671885 0.108782 0.562550
O O7 0.500000 0.000000 0.540364
O O8 0.708781 0.868089 0.928632
O O9 0.000000 0.908355 0.950229
O O10 0.754427 0.000000 0.948715
O O11 0.758328 0.897914 0.000000
O O12 0.750000 0.250000 0.892302
O O13 0.000000 0.325367 0.877416
O O14 0.250000 0.250000 0.335560
O O15 0.242338 0.125391 0.368729
O O16 0.273007 0.130712 0.294532
O O17 0.000000 0.169075 0.325852
O O18 0.000000 0.101723 0.580459
O O19 0.794594 0.000000 0.601820
O O20 0.500000 0.578658 0.264532
O O21 0.233193 0.500000 0.266516
#
# Coordination Sequence:
#
# PCOD8272643 Si02
#       7
#    16   8  16  16  16  16  16
#     4   9  19  36  55  76 102 134 174 220 266 313
#     4   9  18  32  54  86 114 138 179 231 279 331
#     4   9  19  37  60  84 108 134 169 216 266 320
#     4  11  23  37  54  77 108 144 180 219 265 316
#     4  10  21  34  51  77 106 142 178 220 269 319
#     4   9  18  34  55  79 109 145 182 226 277 326
#     4   9  18  34  55  77 103 136 177 221 265 318
#
# _framework density 19.526748000000001
#
# number of rings (size 3 to 8) (size 9 to 14) (size 15 to 20)
#    0.000    2.538    0.000    1.846    1.077    6.154 
#    0.000    6.923    0.000    0.462    0.000    0.000 
#    0.000    0.000    0.000    0.000    0.000    0.000 
#
# Total GULP energy -644598.474111 kJ/mol
# GULP energy per Si atom -12396.124502 kJ/mol
# Density = 1.948230 g / cm^3
# Si number density = 19.526748 Si / 1000 Ang^3
#
#
#
# Elastic Constant Matrix: (Units=GPa)
#
#
# Indices 1 2 3 4 5 6 
#
# 1 48.7643 25.8205 45.4390 0.0000 0.0000 0.0000
# 2 25.8205 94.4319 73.5615 0.0000 0.0000 0.0000
# 3 45.4390 73.5615 166.6350 0.0000 0.0000 0.0000
# 4 0.0000 0.0000 0.0000 14.5051 0.0000 0.0000
# 5 0.0000 0.0000 0.0000 0.0000 29.7437 0.0000
# 6 0.0000 0.0000 0.0000 0.0000 0.0000 13.9249
#
#
#
# Elastic Compliance Matrix: (Units=1/GPa)
#
#
# Indices 1 2 3 4 5 6 
#
# 1 0.027903 -0.002595 -0.006463 0.000000 0.000000 0.000000
# 2 -0.002595 0.016381 -0.006524 0.000000 0.000000 0.000000
# 3 -0.006463 -0.006524 0.010644 0.000000 0.000000 0.000000
# 4 0.000000 0.000000 0.000000 0.068941 0.000000 0.000000
# 5 0.000000 0.000000 0.000000 0.000000 0.033621 0.000000
# 6 0.000000 0.000000 0.000000 0.000000 0.000000 0.071814
#
#
# Mechanical properties :
#
#
# Convention : Reuss Voigt Hill
#
# Bulk Modulus (GPa) = 42.08037 66.60813 54.34425
# Shear Modulus (GPa) = 18.62963 22.63541 20.63252
#
# Velocity S-wave (km/s) = 3.09213 3.40840 3.25411
# Velocity P-wave (km/s) = 5.86048 7.04804 6.48152
#
# Compressibility (1/GPa) = 0.02376405
#
# Stress axis : x y z
#
# Youngs Moduli (GPa) = 35.83798 61.04541 93.95261
#
# Poissons Ratio (x) = 0.15839 0.60726
# Poissons Ratio (y) = 0.09299 0.61295
# Poissons Ratio (z) = 0.23164 0.39826
#
# Static dielectric constant tensor:
#      x y z
#    x 3.476770 0.000000 0.000000 
#    y 0.000000 3.303410 0.000000 
#    z 0.000000 0.000000 3.801790 
# 
# 
# High freq. dielectric constant tensor:
#      x y z
#    x 1.751670 0.000000 0.000000 
#    y 0.000000 1.745140 0.000000 
#    z 0.000000 0.000000 1.767700 
# 
# From -- ./inp_files/76908.got.cif
#   From: 2010.03.12/outbox.cif.g09.slc.cpg/sg65_39_cif.got.tgz:76908.got - 2010.04.10 20:52:16.
