data_PCOD8272364
_publ_section_title
;
Structure prediction by ZEFSAII (Michael W. Deem and Ramdas Pophale) SiO2 
 PCOD8272364
Probable space group: C M M M
;
_chemical_formula_sum "Si O2"
_cell_formula_units_Z 64
_cell_length_a 8.365380
_cell_length_b 12.827088
_cell_length_c 26.833765
_cell_angle_alpha 90.000000
_cell_angle_beta 90.000000
_cell_angle_gamma 90.000000
_cell_volume 2879.355975
_symmetry_space_group_name_H-M "C M M M"
_symmetry_group_IT_number 65
_symmetry_cell_setting 'orthorhombic'
loop_
_space_group_symop_operation_xyz
x,y,z
-x,-y,z
x,-y,-z
-x,y,-z
-x,-y,-z
x,y,-z
-x,y,z
x,-y,z
1/2+x,1/2+y,z
1/2-x,1/2-y,z
1/2+x,1/2-y,-z
1/2-x,1/2+y,-z
1/2-x,1/2-y,-z
1/2+x,1/2+y,-z
1/2-x,1/2+y,z
1/2+x,1/2-y,z
loop_
_atom_site_type_symbol
_atom_site_label
_atom_site_fract_x
_atom_site_fract_y
_atom_site_fract_z
Si Si1 0.176389 0.623941 0.845469
Si Si2 0.676989 0.622392 0.054547
Si Si3 0.500000 0.878959 0.441360
Si Si4 0.750000 0.750000 0.617745
Si Si5 0.500000 0.622829 0.322038
Si Si6 0.500000 0.623537 0.793837
O O1 0.177918 0.500000 0.838991
O O2 0.197116 0.658577 0.903301
O O3 0.333516 0.670844 0.816875
O O4 0.000000 0.664533 0.826476
O O5 0.500000 0.667422 0.065510
O O6 0.663692 0.500000 0.056139
O O7 0.739197 0.659018 0.000000
O O8 0.500000 0.861405 0.500000
O O9 0.346289 0.825242 0.418305
O O10 0.500000 0.000000 0.427156
O O11 0.653949 0.673512 0.653377
O O12 0.500000 0.500000 0.331964
O O13 0.500000 0.650028 0.264085
O O14 0.500000 0.500000 0.804117
#
# Coordination Sequence:
#
# PCOD8272364 Si02
#       6
#    16  16   8   8   8   8
#     4   9  15  23  36  56  83 121 174 230 288 359
#     4   8  12  18  29  45  72 115 162 212 279 354
#     4  10  20  36  61  94 131 169 210 258 308 363
#     4  10  21  38  60  90 126 168 215 256 310 370
#     4  10  21  39  61  85 121 166 211 264 319 366
#     4   9  17  31  46  65  97 138 186 243 302 357
#
# _framework density 22.227194000000001
#
# number of rings (size 3 to 8) (size 9 to 14) (size 15 to 20)
#    0.000    2.875    1.250    1.875    0.000    0.500 
#    4.500    2.500    0.000    6.000    0.000    0.000 
#    0.000    0.000    0.000    4.500    0.000   11.250 
#
# Total GULP energy -396513.844072 kJ/mol
# GULP energy per Si atom -12391.057627 kJ/mol
# Density = 2.217660 g / cm^3
# Si number density = 22.227194 Si / 1000 Ang^3
#
#
#
# Elastic Constant Matrix: (Units=GPa)
#
#
# Indices 1 2 3 4 5 6 
#
# 1 199.2520 77.5637 100.9413 0.0000 0.0000 0.0000
# 2 77.5637 85.3279 51.6333 0.0000 0.0000 0.0000
# 3 100.9413 51.6333 153.5962 0.0000 0.0000 0.0000
# 4 0.0000 0.0000 0.0000 80.4584 0.0000 0.0000
# 5 0.0000 0.0000 0.0000 0.0000 53.9967 0.0000
# 6 0.0000 0.0000 0.0000 0.0000 0.0000 32.8765
#
#
#
# Elastic Compliance Matrix: (Units=1/GPa)
#
#
# Indices 1 2 3 4 5 6 
#
# 1 0.009532 -0.006119 -0.004208 0.000000 0.000000 0.000000
# 2 -0.006119 0.018640 -0.002245 0.000000 0.000000 0.000000
# 3 -0.004208 -0.002245 0.010030 0.000000 0.000000 0.000000
# 4 0.000000 0.000000 0.000000 0.012429 0.000000 0.000000
# 5 0.000000 0.000000 0.000000 0.000000 0.018520 0.000000
# 6 0.000000 0.000000 0.000000 0.000000 0.000000 0.030417
#
#
# Mechanical properties :
#
#
# Convention : Reuss Voigt Hill
#
# Bulk Modulus (GPa) = 76.56899 99.82807 88.19853
# Shear Modulus (GPa) = 38.74062 47.33550 43.03806
#
# Velocity S-wave (km/s) = 4.17938 4.61979 4.40509
# Velocity P-wave (km/s) = 7.60347 8.57127 8.10183
#
# Compressibility (1/GPa) = 0.01306012
#
# Stress axis : x y z
#
# Youngs Moduli (GPa) = 104.90756 53.64826 99.69759
#
# Poissons Ratio (x) = 0.32826 0.41948
# Poissons Ratio (y) = 0.64191 0.22381
# Poissons Ratio (z) = 0.44140 0.12043
#
# Static dielectric constant tensor:
#      x y z
#    x 4.424660 0.000000 0.000000 
#    y 0.000000 4.167470 0.000000 
#    z 0.000000 0.000000 3.996940 
# 
# 
# High freq. dielectric constant tensor:
#      x y z
#    x 1.885390 0.000000 0.000000 
#    y 0.000000 1.905450 0.000000 
#    z 0.000000 0.000000 1.856340 
# 
# From -- ./inp_files/72410.got.cif
#   From: 2010.03.12/outbox.cif.g09.slc.cpg/sg65_37_cif.got.tgz:72410.got - 2010.04.10 20:52:16.
