data_PCOD8272165
_publ_section_title
;
Structure prediction by ZEFSAII (Michael W. Deem and Ramdas Pophale) SiO2 
 PCOD8272165
Probable space group: C M M M
;
_chemical_formula_sum "Si O2"
_cell_formula_units_Z 96
_cell_length_a 8.806032
_cell_length_b 25.917104
_cell_length_c 23.542120
_cell_angle_alpha 90.000000
_cell_angle_beta 90.000000
_cell_angle_gamma 90.000000
_cell_volume 5372.943823
_symmetry_space_group_name_H-M "C M M M"
_symmetry_group_IT_number 65
_symmetry_cell_setting 'orthorhombic'
loop_
_space_group_symop_operation_xyz
x,y,z
-x,-y,z
x,-y,-z
-x,y,-z
-x,-y,-z
x,y,-z
-x,y,z
x,-y,z
1/2+x,1/2+y,z
1/2-x,1/2-y,z
1/2+x,1/2-y,-z
1/2-x,1/2+y,-z
1/2-x,1/2-y,-z
1/2+x,1/2+y,-z
1/2-x,1/2+y,z
1/2+x,1/2-y,z
loop_
_atom_site_type_symbol
_atom_site_label
_atom_site_fract_x
_atom_site_fract_y
_atom_site_fract_z
Si Si1 0.680492 0.058243 0.938088
Si Si2 0.174667 0.901426 0.566890
Si Si3 0.819641 0.500000 0.375301
Si Si4 0.680571 0.000000 0.753765
Si Si5 0.820674 0.696014 0.375982
Si Si6 0.821339 0.303134 0.754349
Si Si7 0.181164 0.401173 0.178773
O O1 0.500000 0.057288 0.936842
O O2 0.740006 0.094121 0.886516
O O3 0.740425 0.000000 0.928757
O O4 0.736661 0.079020 0.000000
O O5 0.191012 0.907232 0.500000
O O6 0.258814 0.949185 0.594920
O O7 0.252422 0.848587 0.585540
O O8 0.000000 0.901232 0.586069
O O9 0.761347 0.500000 0.310647
O O10 0.000000 0.500000 0.378779
O O11 0.744574 0.949377 0.785239
O O12 0.500000 0.000000 0.755966
O O13 0.750000 0.750000 0.396470
O O14 0.775825 0.685152 0.310618
O O15 0.000000 0.698087 0.384532
O O16 0.750000 0.250000 0.776097
O O17 0.754731 0.348719 0.793742
O O18 0.000000 0.298475 0.760716
O O19 0.000000 0.401053 0.181367
#
# Coordination Sequence:
#
# PCOD8272165 Si02
#       7
#    16  16   8   8  16  16  16
#     4   8  12  18  31  56  91 127 158 190 235 286
#     4  11  24  40  56  75 101 134 169 204 246 298
#     4  11  22  36  55  77 102 133 170 209 250 300
#     4   9  16  26  43  69  95 118 148 193 248 296
#     4  10  20  36  57  80 103 128 163 207 254 304
#     4   9  18  31  48  70  95 126 162 196 238 288
#     4   9  14  23  40  63  93 125 156 194 239 288
#
# _framework density 17.867301000000001
#
# number of rings (size 3 to 8) (size 9 to 14) (size 15 to 20)
#    0.000    2.500    0.833    3.000    0.000    6.000 
#    0.000    0.000    0.000    0.500    0.000    0.000 
#    0.000    0.000    0.000    1.833    0.000    1.667 
#
# Total GULP energy -595077.400520 kJ/mol
# GULP energy per Si atom -12397.445844 kJ/mol
# Density = 1.782663 g / cm^3
# Si number density = 17.867301 Si / 1000 Ang^3
#
#
#
# Elastic Constant Matrix: (Units=GPa)
#
#
# Indices 1 2 3 4 5 6 
#
# 1 44.8744 31.7173 32.3467 0.0000 0.0000 0.0000
# 2 31.7173 128.5825 64.0285 0.0000 0.0000 0.0000
# 3 32.3467 64.0285 114.1790 0.0000 0.0000 0.0000
# 4 0.0000 0.0000 0.0000 69.9886 0.0000 0.0000
# 5 0.0000 0.0000 0.0000 0.0000 9.1536 0.0000
# 6 0.0000 0.0000 0.0000 0.0000 0.0000 25.2697
#
#
#
# Elastic Compliance Matrix: (Units=1/GPa)
#
#
# Indices 1 2 3 4 5 6 
#
# 1 0.029655 -0.004345 -0.005965 0.000000 0.000000 0.000000
# 2 -0.004345 0.011427 -0.005177 0.000000 0.000000 0.000000
# 3 -0.005965 -0.005177 0.013351 0.000000 0.000000 0.000000
# 4 0.000000 0.000000 0.000000 0.014288 0.000000 0.000000
# 5 0.000000 0.000000 0.000000 0.000000 0.109247 0.000000
# 6 0.000000 0.000000 0.000000 0.000000 0.000000 0.039573
#
#
# Mechanical properties :
#
#
# Convention : Reuss Voigt Hill
#
# Bulk Modulus (GPa) = 42.62619 60.42456 51.52537
# Shear Modulus (GPa) = 19.50585 31.51860 25.51222
#
# Velocity S-wave (km/s) = 3.30768 4.20460 3.78282
# Velocity P-wave (km/s) = 6.20456 7.58047 6.92676
#
# Compressibility (1/GPa) = 0.02345976
#
# Stress axis : x y z
#
# Youngs Moduli (GPa) = 33.72132 87.51426 74.90040
#
# Poissons Ratio (x) = 0.38023 0.44676
# Poissons Ratio (y) = 0.14651 0.38775
# Poissons Ratio (z) = 0.20114 0.45306
#
# Static dielectric constant tensor:
#      x y z
#    x 2.978890 0.000000 0.000000 
#    y 0.000000 3.366660 0.000000 
#    z 0.000000 0.000000 3.630330 
# 
# 
# High freq. dielectric constant tensor:
#      x y z
#    x 1.654710 0.000000 0.000000 
#    y 0.000000 1.691130 0.000000 
#    z 0.000000 0.000000 1.697690 
# 
# From -- ./inp_files/67868.got.cif
#   From: 2010.03.12/outbox.cif.g09.slc.cpg/sg65_34_cif.got.tgz:67868.got - 2010.04.10 20:52:16.
