data_PCOD8272243
_publ_section_title
;
Structure prediction by ZEFSAII (Michael W. Deem and Ramdas Pophale) SiO2 
 PCOD8272243
Probable space group: C M M M
;
_chemical_formula_sum "Si O2"
_cell_formula_units_Z 72
_cell_length_a 7.955673
_cell_length_b 15.522041
_cell_length_c 28.398012
_cell_angle_alpha 90.000000
_cell_angle_beta 90.000000
_cell_angle_gamma 90.000000
_cell_volume 3506.821728
_symmetry_space_group_name_H-M "C M M M"
_symmetry_group_IT_number 65
_symmetry_cell_setting 'orthorhombic'
loop_
_space_group_symop_operation_xyz
x,y,z
-x,-y,z
x,-y,-z
-x,y,-z
-x,-y,-z
x,y,-z
-x,y,z
x,-y,z
1/2+x,1/2+y,z
1/2-x,1/2-y,z
1/2+x,1/2-y,-z
1/2-x,1/2+y,-z
1/2-x,1/2-y,-z
1/2+x,1/2+y,-z
1/2-x,1/2+y,z
1/2+x,1/2-y,z
loop_
_atom_site_type_symbol
_atom_site_label
_atom_site_fract_x
_atom_site_fract_y
_atom_site_fract_z
Si Si1 0.798319 0.500000 0.780120
Si Si2 0.693395 0.000000 0.115603
Si Si3 0.500000 0.602487 0.447121
Si Si4 0.697019 0.343022 0.947411
Si Si5 0.191835 0.602216 0.383786
Si Si6 0.803028 0.656259 0.718636
O O1 0.720211 0.500000 0.832924
O O2 0.726074 0.584384 0.753453
O O3 0.000000 0.500000 0.780066
O O4 0.736852 0.084924 0.087102
O O5 0.500000 0.000000 0.126050
O O6 0.500000 0.500000 0.447400
O O7 0.500000 0.639598 0.500000
O O8 0.327721 0.635001 0.422160
O O9 0.500000 0.350797 0.950127
O O10 0.750000 0.250000 0.927270
O O11 0.773990 0.355841 0.000000
O O12 0.194581 0.500000 0.378733
O O13 0.257760 0.642063 0.334816
O O14 0.000000 0.632001 0.396829
O O15 0.750000 0.750000 0.737070
O O16 0.000000 0.645673 0.719540
#
# Coordination Sequence:
#
# PCOD8272243 Si02
#       6
#     8   8   8  16  16  16
#     4   9  20  40  58  79 118 153 188 234 297 351
#     4  11  22  36  59  86 118 160 191 238 302 362
#     4   9  18  30  50  84 118 145 185 239 285 346
#     4  10  21  38  60  85 116 154 200 249 291 345
#     4   9  17  32  55  78 109 151 187 232 289 344
#     4  10  20  36  58  83 108 144 192 239 284 344
#
# _framework density 20.531412
#
# number of rings (size 3 to 8) (size 9 to 14) (size 15 to 20)
#    0.000    2.333    1.111    1.333    1.556    4.000 
#    0.000    7.222    0.000    0.667    0.000    0.000 
#    0.000    0.000    0.000    0.000    0.000    0.000 
#
# Total GULP energy -446294.711464 kJ/mol
# GULP energy per Si atom -12397.075318 kJ/mol
# Density = 2.048468 g / cm^3
# Si number density = 20.531412 Si / 1000 Ang^3
#
#
#
# Elastic Constant Matrix: (Units=GPa)
#
#
# Indices 1 2 3 4 5 6 
#
# 1 65.8359 22.0559 46.5570 0.0000 0.0000 0.0000
# 2 22.0559 133.1317 87.8438 0.0000 0.0000 0.0000
# 3 46.5570 87.8438 169.3218 0.0000 0.0000 0.0000
# 4 0.0000 0.0000 0.0000 26.6653 0.0000 0.0000
# 5 0.0000 0.0000 0.0000 0.0000 18.8834 0.0000
# 6 0.0000 0.0000 0.0000 0.0000 0.0000 28.1798
#
#
#
# Elastic Compliance Matrix: (Units=1/GPa)
#
#
# Indices 1 2 3 4 5 6 
#
# 1 0.018874 0.000452 -0.005424 0.000000 0.000000 0.000000
# 2 0.000452 0.011432 -0.006055 0.000000 0.000000 0.000000
# 3 -0.005424 -0.006055 0.010539 0.000000 0.000000 0.000000
# 4 0.000000 0.000000 0.000000 0.037502 0.000000 0.000000
# 5 0.000000 0.000000 0.000000 0.000000 0.052957 0.000000
# 6 0.000000 0.000000 0.000000 0.000000 0.000000 0.035486
#
#
# Mechanical properties :
#
#
# Convention : Reuss Voigt Hill
#
# Bulk Modulus (GPa) = 53.21988 75.68920 64.45454
# Shear Modulus (GPa) = 25.62706 28.86789 27.24748
#
# Velocity S-wave (km/s) = 3.53680 3.75378 3.64691
# Velocity P-wave (km/s) = 6.53116 7.46545 7.01388
#
# Compressibility (1/GPa) = 0.01878997
#
# Stress axis : x y z
#
# Youngs Moduli (GPa) = 52.98427 87.47561 94.88831
#
# Poissons Ratio (x) = -0.03956 0.51468
# Poissons Ratio (y) = -0.02396 0.57456
# Poissons Ratio (z) = 0.28739 0.52967
#
# Static dielectric constant tensor:
#      x y z
#    x 3.701100 0.000000 0.000000 
#    y 0.000000 3.382500 0.000000 
#    z 0.000000 0.000000 4.176600 
# 
# 
# High freq. dielectric constant tensor:
#      x y z
#    x 1.795760 0.000000 0.000000 
#    y 0.000000 1.797840 0.000000 
#    z 0.000000 0.000000 1.797220 
# 
# From -- ./inp_files/72583.got.cif
#   From: 2010.03.12/outbox.cif.g09.slc.cpg/sg65_37_cif.got.tgz:72583.got - 2010.04.10 20:52:16.
