data_PCOD8272906
_publ_section_title
;
Structure prediction by ZEFSAII (Michael W. Deem and Ramdas Pophale) SiO2 
 PCOD8272906
Probable space group: C M M M
;
_chemical_formula_sum "Si O2"
_cell_formula_units_Z 64
_cell_length_a 20.766392
_cell_length_b 18.490721
_cell_length_c 8.751243
_cell_angle_alpha 90.000000
_cell_angle_beta 90.000000
_cell_angle_gamma 90.000000
_cell_volume 3360.350950
_symmetry_space_group_name_H-M "C M M M"
_symmetry_group_IT_number 65
_symmetry_cell_setting 'orthorhombic'
loop_
_space_group_symop_operation_xyz
x,y,z
-x,-y,z
x,-y,-z
-x,y,-z
-x,-y,-z
x,y,-z
-x,y,z
x,-y,z
1/2+x,1/2+y,z
1/2-x,1/2-y,z
1/2+x,1/2-y,-z
1/2-x,1/2+y,-z
1/2-x,1/2-y,-z
1/2+x,1/2+y,-z
1/2-x,1/2+y,z
1/2+x,1/2-y,z
loop_
_atom_site_type_symbol
_atom_site_label
_atom_site_fract_x
_atom_site_fract_y
_atom_site_fract_z
Si Si1 0.753147 0.416711 0.676386
Si Si2 0.500000 0.325466 0.666721
Si Si3 0.868403 0.339527 0.820560
Si Si4 0.862595 0.815383 0.317393
Si Si5 0.500000 0.154188 0.668879
O O1 0.768570 0.398765 0.500000
O O2 0.734978 0.500000 0.699251
O O3 0.814657 0.398215 0.778386
O O4 0.692341 0.370409 0.734905
O O5 0.500000 0.362464 0.500000
O O6 0.568007 0.345434 0.748592
O O7 0.500000 0.239553 0.652132
O O8 0.846967 0.263388 0.748049
O O9 0.936138 0.370224 0.758669
O O10 0.873831 0.329657 0.000000
O O11 0.867563 0.808484 0.500000
O O12 0.500000 0.118468 0.500000
#
# Coordination Sequence:
#
# PCOD8272906 Si02
#       5
#    16   8  16  16   8
#     4  10  21  36  52  72 102 142 185 223 259 304
#     4   7  12  25  48  76 100 124 159 206 256 297
#     4  11  21  33  53  81 108 134 169 214 264 316
#     4   9  17  32  54  77 103 138 178 217 258 308
#     4   9  17  33  56  79 104 133 167 210 258 309
#
# _framework density 19.045629999999999
#
# number of rings (size 3 to 8) (size 9 to 14) (size 15 to 20)
#    0.000    2.500    0.000    4.875    0.000    4.500 
#    0.000    1.250    0.000    7.500    0.000    0.000 
#    0.000    8.000    0.000    0.000    0.000    0.000 
#
# Total GULP energy -396632.961140 kJ/mol
# GULP energy per Si atom -12394.780036 kJ/mol
# Density = 1.900228 g / cm^3
# Si number density = 19.045630 Si / 1000 Ang^3
#
#
#
# Elastic Constant Matrix: (Units=GPa)
#
#
# Indices 1 2 3 4 5 6 
#
# 1 139.0169 28.0242 28.9704 0.0000 0.0000 0.0000
# 2 28.0242 46.8881 12.7028 0.0000 0.0000 0.0000
# 3 28.9704 12.7028 65.2512 0.0000 0.0000 0.0000
# 4 0.0000 0.0000 0.0000 9.1720 0.0000 0.0000
# 5 0.0000 0.0000 0.0000 0.0000 15.2563 0.0000
# 6 0.0000 0.0000 0.0000 0.0000 0.0000 6.4775
#
#
#
# Elastic Compliance Matrix: (Units=1/GPa)
#
#
# Indices 1 2 3 4 5 6 
#
# 1 0.008705 -0.004387 -0.003011 0.000000 0.000000 0.000000
# 2 -0.004387 0.024726 -0.002866 0.000000 0.000000 0.000000
# 3 -0.003011 -0.002866 0.017220 0.000000 0.000000 0.000000
# 4 0.000000 0.000000 0.000000 0.109027 0.000000 0.000000
# 5 0.000000 0.000000 0.000000 0.000000 0.065547 0.000000
# 6 0.000000 0.000000 0.000000 0.000000 0.000000 0.154380
#
#
# Mechanical properties :
#
#
# Convention : Reuss Voigt Hill
#
# Bulk Modulus (GPa) = 33.19660 43.39458 38.29559
# Shear Modulus (GPa) = 12.18997 18.27843 15.23420
#
# Velocity S-wave (km/s) = 2.53265 3.10129 2.83128
# Velocity P-wave (km/s) = 5.10101 5.97143 5.55330
#
# Compressibility (1/GPa) = 0.03012357
#
# Stress axis : x y z
#
# Youngs Moduli (GPa) = 114.87326 40.44342 58.07188
#
# Poissons Ratio (x) = 0.17744 0.17485
# Poissons Ratio (y) = 0.50398 0.16641
# Poissons Ratio (z) = 0.34587 0.11590
#
# Static dielectric constant tensor:
#      x y z
#    x 4.078730 0.000000 0.000000 
#    y 0.000000 3.081040 0.000000 
#    z 0.000000 0.000000 3.300810 
# 
# 
# High freq. dielectric constant tensor:
#      x y z
#    x 1.766410 0.000000 0.000000 
#    y 0.000000 1.699770 0.000000 
#    z 0.000000 0.000000 1.716070 
# 
# From -- ./inp_files/8861.got.cif
#   From: 2010.03.12/outbox.cif.g09.slc.cpg/sg65_5_cif.got.tgz:8861.got - 2010.04.10 20:52:16.
