data_PCOD8272417
_publ_section_title
;
Structure prediction by ZEFSAII (Michael W. Deem and Ramdas Pophale) SiO2 
 PCOD8272417
Probable space group: C M M M
;
_chemical_formula_sum "Si O2"
_cell_formula_units_Z 56
_cell_length_a 8.920990
_cell_length_b 15.142350
_cell_length_c 21.320136
_cell_angle_alpha 90.000000
_cell_angle_beta 90.000000
_cell_angle_gamma 90.000000
_cell_volume 2880.025304
_symmetry_space_group_name_H-M "C M M M"
_symmetry_group_IT_number 65
_symmetry_cell_setting 'orthorhombic'
loop_
_space_group_symop_operation_xyz
x,y,z
-x,-y,z
x,-y,-z
-x,y,-z
-x,-y,-z
x,y,-z
-x,y,z
x,-y,z
1/2+x,1/2+y,z
1/2-x,1/2-y,z
1/2+x,1/2-y,-z
1/2-x,1/2+y,-z
1/2-x,1/2-y,-z
1/2+x,1/2+y,-z
1/2-x,1/2+y,z
1/2+x,1/2-y,z
loop_
_atom_site_type_symbol
_atom_site_label
_atom_site_fract_x
_atom_site_fract_y
_atom_site_fract_z
Si Si1 0.671916 0.658285 0.500000
Si Si2 0.677043 0.346458 0.363895
Si Si3 0.828583 0.500000 0.709820
Si Si4 0.674765 0.657663 0.927927
Si Si5 0.171280 0.500000 0.141877
O O1 0.500000 0.682215 0.500000
O O2 0.750000 0.750000 0.500000
O O3 0.710776 0.610841 0.566294
O O4 0.500000 0.338453 0.351579
O O5 0.750000 0.250000 0.356488
O O6 0.747623 0.411963 0.313825
O O7 0.817301 0.500000 0.783969
O O8 0.000000 0.500000 0.686717
O O9 0.500000 0.664779 0.913181
O O10 0.750000 0.750000 0.911340
O O11 0.746994 0.585881 0.883444
O O12 0.703946 0.631039 0.000000
O O13 0.000000 0.500000 0.118737
#
# Coordination Sequence:
#
# PCOD8272417 Si02
#       5
#     8  16   8  16   8
#     4   8  16  31  54  83 110 138 178 227 282 339
#     4  10  20  37  60  84 112 146 184 232 286 338
#     4  11  25  41  55  79 113 152 197 234 273 331
#     4  10  21  38  62  91 119 147 183 228 278 332
#     4  11  24  40  58  81 114 154 193 234 277 326
#
# _framework density 19.444272000000002
#
# number of rings (size 3 to 8) (size 9 to 14) (size 15 to 20)
#    0.000    2.000    0.000    3.000    0.000    8.571 
#    0.000    2.857    0.000    0.000    0.000    0.000 
#    0.000    0.000    0.000    0.000    0.000    0.000 
#
# Total GULP energy -347072.338680 kJ/mol
# GULP energy per Si atom -12395.440667 kJ/mol
# Density = 1.940002 g / cm^3
# Si number density = 19.444272 Si / 1000 Ang^3
#
#
#
# Elastic Constant Matrix: (Units=GPa)
#
#
# Indices 1 2 3 4 5 6 
#
# 1 134.8549 72.9334 62.3358 0.0000 0.0000 0.0000
# 2 72.9334 120.9341 58.8300 0.0000 0.0000 0.0000
# 3 62.3358 58.8300 86.4733 0.0000 0.0000 0.0000
# 4 0.0000 0.0000 0.0000 41.3769 0.0000 0.0000
# 5 0.0000 0.0000 0.0000 0.0000 30.8823 0.0000
# 6 0.0000 0.0000 0.0000 0.0000 0.0000 34.7490
#
#
#
# Elastic Compliance Matrix: (Units=1/GPa)
#
#
# Indices 1 2 3 4 5 6 
#
# 1 0.012755 -0.004812 -0.005921 0.000000 0.000000 0.000000
# 2 -0.004812 0.014175 -0.006175 0.000000 0.000000 0.000000
# 3 -0.005921 -0.006175 0.020033 0.000000 0.000000 0.000000
# 4 0.000000 0.000000 0.000000 0.024168 0.000000 0.000000
# 5 0.000000 0.000000 0.000000 0.000000 0.032381 0.000000
# 6 0.000000 0.000000 0.000000 0.000000 0.000000 0.028778
#
#
# Mechanical properties :
#
#
# Convention : Reuss Voigt Hill
#
# Bulk Modulus (GPa) = 76.05816 81.16229 78.61022
# Shear Modulus (GPa) = 29.32785 31.27919 30.30352
#
# Velocity S-wave (km/s) = 3.88790 4.01516 3.95204
# Velocity P-wave (km/s) = 7.70424 7.95782 7.83206
#
# Compressibility (1/GPa) = 0.01314783
#
# Stress axis : x y z
#
# Youngs Moduli (GPa) = 78.40306 70.54838 49.91728
#
# Poissons Ratio (x) = 0.33947 0.29555
# Poissons Ratio (y) = 0.37726 0.30822
# Poissons Ratio (z) = 0.46421 0.43561
#
# Static dielectric constant tensor:
#      x y z
#    x 3.706280 0.000000 0.000000 
#    y 0.000000 3.385870 0.000000 
#    z 0.000000 0.000000 3.959700 
# 
# 
# High freq. dielectric constant tensor:
#      x y z
#    x 1.775560 0.000000 0.000000 
#    y 0.000000 1.753080 0.000000 
#    z 0.000000 0.000000 1.763080 
# 
# From -- ./inp_files/58613.got.cif
#   From: 2010.03.12/outbox.cif.g09.slc.cpg/sg65_30_cif.got.tgz:58613.got - 2010.04.10 20:52:16.
