data_PCOD8272888
_publ_section_title
;
Structure prediction by ZEFSAII (Michael W. Deem and Ramdas Pophale) SiO2 
 PCOD8272888
Probable space group: C M M M
;
_chemical_formula_sum "Si O2"
_cell_formula_units_Z 64
_cell_length_a 8.214440
_cell_length_b 36.912193
_cell_length_c 12.593042
_cell_angle_alpha 90.000000
_cell_angle_beta 90.000000
_cell_angle_gamma 90.000000
_cell_volume 3818.373977
_symmetry_space_group_name_H-M "C M M M"
_symmetry_group_IT_number 65
_symmetry_cell_setting 'orthorhombic'
loop_
_space_group_symop_operation_xyz
x,y,z
-x,-y,z
x,-y,-z
-x,y,-z
-x,-y,-z
x,y,-z
-x,y,z
x,-y,z
1/2+x,1/2+y,z
1/2-x,1/2-y,z
1/2+x,1/2-y,-z
1/2-x,1/2+y,-z
1/2-x,1/2-y,-z
1/2+x,1/2+y,-z
1/2-x,1/2+y,z
1/2+x,1/2-y,z
loop_
_atom_site_type_symbol
_atom_site_label
_atom_site_fract_x
_atom_site_fract_y
_atom_site_fract_z
Si Si1 0.691884 0.211028 0.120526
Si Si2 0.814413 0.834097 0.692624
Si Si3 0.685979 0.586187 0.374987
Si Si4 0.500000 0.040570 0.625853
Si Si5 0.817145 0.710239 0.500000
O O1 0.500000 0.208765 0.128213
O O2 0.750000 0.250000 0.164097
O O3 0.768624 0.179096 0.189959
O O4 0.753791 0.205593 0.000000
O O5 0.778308 0.876742 0.686875
O O6 0.717062 0.812437 0.604931
O O7 0.000000 0.826008 0.667368
O O8 0.700923 0.593690 0.500000
O O9 0.500000 0.571915 0.349795
O O10 0.830173 0.559248 0.336067
O O11 0.500000 0.039637 0.500000
O O12 0.500000 0.000000 0.672981
O O13 0.750000 0.750000 0.500000
O O14 0.000000 0.719694 0.500000
#
# Coordination Sequence:
#
# PCOD8272888 Si02
#       5
#    16  16  16   8   8
#     4  10  21  36  52  70  94 128 170 215 262 306
#     4  11  21  34  51  71  98 130 168 211 253 305
#     4   9  18  31  48  71 101 134 167 204 251 298
#     4   9  18  30  48  72 101 135 173 205 240 303
#     4  12  24  34  48  68  96 131 168 211 253 301
#
# _framework density 16.761060000000001
#
# number of rings (size 3 to 8) (size 9 to 14) (size 15 to 20)
#    0.000    1.875    1.250    3.375    3.500    2.000 
#    0.000    2.500    0.000    0.000    0.000    0.000 
#    0.000    2.000    0.000    5.500    0.000    0.250 
#
# Total GULP energy -396681.370137 kJ/mol
# GULP energy per Si atom -12396.292817 kJ/mol
# Density = 1.672291 g / cm^3
# Si number density = 16.761060 Si / 1000 Ang^3
#
#
#
# Elastic Constant Matrix: (Units=GPa)
#
#
# Indices 1 2 3 4 5 6 
#
# 1 121.5135 73.0114 18.6942 0.0000 0.0000 0.0000
# 2 73.0114 114.9911 40.5154 0.0000 0.0000 0.0000
# 3 18.6942 40.5154 52.7852 0.0000 0.0000 0.0000
# 4 0.0000 0.0000 0.0000 9.3915 0.0000 0.0000
# 5 0.0000 0.0000 0.0000 0.0000 21.7678 0.0000
# 6 0.0000 0.0000 0.0000 0.0000 0.0000 31.5006
#
#
#
# Elastic Compliance Matrix: (Units=1/GPa)
#
#
# Indices 1 2 3 4 5 6 
#
# 1 0.013537 -0.009466 0.002471 0.000000 0.000000 0.000000
# 2 -0.009466 0.018539 -0.010877 0.000000 0.000000 0.000000
# 3 0.002471 -0.010877 0.026418 0.000000 0.000000 0.000000
# 4 0.000000 0.000000 0.000000 0.106480 0.000000 0.000000
# 5 0.000000 0.000000 0.000000 0.000000 0.045939 0.000000
# 6 0.000000 0.000000 0.000000 0.000000 0.000000 0.031745
#
#
# Mechanical properties :
#
#
# Convention : Reuss Voigt Hill
#
# Bulk Modulus (GPa) = 43.95468 61.52578 52.74023
# Shear Modulus (GPa) = 17.48345 23.00324 20.24334
#
# Velocity S-wave (km/s) = 3.23321 3.70864 3.47905
# Velocity P-wave (km/s) = 6.34188 7.42468 6.90454
#
# Compressibility (1/GPa) = 0.02275071
#
# Stress axis : x y z
#
# Youngs Moduli (GPa) = 73.87286 53.94109 37.85258
#
# Poissons Ratio (x) = 0.51059 -0.09354
# Poissons Ratio (y) = 0.69925 0.41173
# Poissons Ratio (z) = -0.18256 0.58673
#
# Static dielectric constant tensor:
#      x y z
#    x 3.470690 0.000000 0.000000 
#    y 0.000000 3.183230 0.000000 
#    z 0.000000 0.000000 3.047790 
# 
# 
# High freq. dielectric constant tensor:
#      x y z
#    x 1.671510 0.000000 0.000000 
#    y 0.000000 1.633380 0.000000 
#    z 0.000000 0.000000 1.609630 
# 
# From -- ./inp_files/20960.got.cif
#   From: 2010.03.12/outbox.cif.g09.slc.cpg/sg65_11_cif.got.tgz:20960.got - 2010.04.10 20:52:16.
