data_PCOD8272407
_publ_section_title
;
Structure prediction by ZEFSAII (Michael W. Deem and Ramdas Pophale) SiO2 
 PCOD8272407
Probable space group: C M M M
;
_chemical_formula_sum "Si O2"
_cell_formula_units_Z 88
_cell_length_a 27.352926
_cell_length_b 18.828655
_cell_length_c 9.175278
_cell_angle_alpha 90.000000
_cell_angle_beta 90.000000
_cell_angle_gamma 90.000000
_cell_volume 4725.440728
_symmetry_space_group_name_H-M "C M M M"
_symmetry_group_IT_number 65
_symmetry_cell_setting 'orthorhombic'
loop_
_space_group_symop_operation_xyz
x,y,z
-x,-y,z
x,-y,-z
-x,y,-z
-x,-y,-z
x,y,-z
-x,y,z
x,-y,z
1/2+x,1/2+y,z
1/2-x,1/2-y,z
1/2+x,1/2-y,-z
1/2-x,1/2+y,-z
1/2-x,1/2-y,-z
1/2+x,1/2+y,-z
1/2-x,1/2+y,z
1/2+x,1/2-y,z
loop_
_atom_site_type_symbol
_atom_site_label
_atom_site_fract_x
_atom_site_fract_y
_atom_site_fract_z
Si Si1 0.942824 0.080412 0.334192
Si Si2 0.121806 0.191101 0.827775
Si Si3 0.600303 0.150695 0.826509
Si Si4 0.810172 0.417023 0.333145
Si Si5 0.500000 0.919775 0.172925
Si Si6 0.231179 0.170504 0.166005
O O1 0.927806 0.096927 0.500000
O O2 0.915916 0.133473 0.227741
O O3 0.000000 0.091569 0.311836
O O4 0.928052 0.000000 0.293517
O O5 0.106804 0.268896 0.769445
O O6 0.175818 0.169890 0.774508
O O7 0.119812 0.192336 0.000000
O O8 0.641851 0.102006 0.757557
O O9 0.547891 0.121967 0.771770
O O10 0.605609 0.145687 0.000000
O O11 0.817478 0.393228 0.500000
O O12 0.800586 0.500000 0.320089
O O13 0.762515 0.379147 0.269741
O O14 0.500000 0.000000 0.236227
O O15 0.500000 0.922490 0.000000
O O16 0.250000 0.250000 0.173811
O O17 0.234584 0.142231 0.000000
#
# Coordination Sequence:
#
# PCOD8272407 Si02
#       6
#    16  16  16  16   8  16
#     4   9  20  39  59  80 112 154 193 227 273 338
#     4  10  21  35  58  88 114 143 186 239 287 332
#     4  10  20  37  59  84 115 151 190 233 280 332
#     4  11  24  39  57  85 117 150 190 231 277 335
#     4   9  18  32  55  85 112 145 190 232 275 331
#     4  10  20  39  60  81 111 147 189 232 280 334
#
# _framework density 18.622602000000001
#
# number of rings (size 3 to 8) (size 9 to 14) (size 15 to 20)
#    0.000    2.091    1.818    1.636    1.273    5.455 
#    0.000    5.000    0.000    1.636    0.000    0.000 
#    0.000    0.000    0.000    0.000    0.000    0.000 
#
# Total GULP energy -545696.522078 kJ/mol
# GULP energy per Si atom -12402.193684 kJ/mol
# Density = 1.858022 g / cm^3
# Si number density = 18.622602 Si / 1000 Ang^3
#
#
#
# Elastic Constant Matrix: (Units=GPa)
#
#
# Indices 1 2 3 4 5 6 
#
# 1 125.0713 67.5849 37.4221 0.0000 0.0000 0.0000
# 2 67.5849 96.7082 32.1282 0.0000 0.0000 0.0000
# 3 37.4221 32.1282 33.4489 0.0000 0.0000 0.0000
# 4 0.0000 0.0000 0.0000 24.2823 0.0000 0.0000
# 5 0.0000 0.0000 0.0000 0.0000 21.3160 0.0000
# 6 0.0000 0.0000 0.0000 0.0000 0.0000 37.8362
#
#
#
# Elastic Compliance Matrix: (Units=1/GPa)
#
#
# Indices 1 2 3 4 5 6 
#
# 1 0.014706 -0.007066 -0.009665 0.000000 0.000000 0.000000
# 2 -0.007066 0.018582 -0.009942 0.000000 0.000000 0.000000
# 3 -0.009665 -0.009942 0.050260 0.000000 0.000000 0.000000
# 4 0.000000 0.000000 0.000000 0.041182 0.000000 0.000000
# 5 0.000000 0.000000 0.000000 0.000000 0.046913 0.000000
# 6 0.000000 0.000000 0.000000 0.000000 0.000000 0.026430
#
#
# Mechanical properties :
#
#
# Convention : Reuss Voigt Hill
#
# Bulk Modulus (GPa) = 33.11356 58.83320 45.97338
# Shear Modulus (GPa) = 19.12143 24.55977 21.84060
#
# Velocity S-wave (km/s) = 3.20783 3.63549 3.42833
# Velocity P-wave (km/s) = 5.61607 7.02021 6.35702
#
# Compressibility (1/GPa) = 0.03019911
#
# Stress axis : x y z
#
# Youngs Moduli (GPa) = 68.00068 53.81652 19.89662
#
# Poissons Ratio (x) = 0.38027 0.19231
# Poissons Ratio (y) = 0.48050 0.19782
# Poissons Ratio (z) = 0.65726 0.53507
#
# Static dielectric constant tensor:
#      x y z
#    x 3.493110 0.000000 0.000000 
#    y 0.000000 3.771790 0.000000 
#    z 0.000000 0.000000 3.279720 
# 
# 
# High freq. dielectric constant tensor:
#      x y z
#    x 1.735370 0.000000 0.000000 
#    y 0.000000 1.731220 0.000000 
#    z 0.000000 0.000000 1.704750 
# 
# From -- ./inp_files/13990.got.cif
#   From: 2010.03.12/outbox.cif.g09.slc.cpg/sg65_7_cif.got.tgz:13990.got - 2010.04.10 20:52:16.
