data_PCOD8272614
_publ_section_title
;
Structure prediction by ZEFSAII (Michael W. Deem and Ramdas Pophale) SiO2 
 PCOD8272614
Probable space group: C M M M
;
_chemical_formula_sum "Si O2"
_cell_formula_units_Z 104
_cell_length_a 20.232300
_cell_length_b 31.950045
_cell_length_c 9.124242
_cell_angle_alpha 90.000000
_cell_angle_beta 90.000000
_cell_angle_gamma 90.000000
_cell_volume 5898.118932
_symmetry_space_group_name_H-M "C M M M"
_symmetry_group_IT_number 65
_symmetry_cell_setting 'orthorhombic'
loop_
_space_group_symop_operation_xyz
x,y,z
-x,-y,z
x,-y,-z
-x,y,-z
-x,-y,-z
x,y,-z
-x,y,z
x,-y,z
1/2+x,1/2+y,z
1/2-x,1/2-y,z
1/2+x,1/2-y,-z
1/2-x,1/2+y,-z
1/2-x,1/2-y,-z
1/2+x,1/2+y,-z
1/2-x,1/2+y,z
1/2+x,1/2-y,z
loop_
_atom_site_type_symbol
_atom_site_label
_atom_site_fract_x
_atom_site_fract_y
_atom_site_fract_z
Si Si1 0.572160 0.500000 0.825210
Si Si2 0.844731 0.924776 0.833452
Si Si3 0.925231 0.784298 0.829112
Si Si4 0.075635 0.686857 0.833839
Si Si5 0.176170 0.843737 0.327366
Si Si6 0.303601 0.047321 0.166552
Si Si7 0.177970 0.369051 0.327261
O O1 0.500000 0.500000 0.759415
O O2 0.605565 0.541726 0.766761
O O3 0.575755 0.500000 0.000000
O O4 0.856822 0.886332 0.725830
O O5 0.774295 0.946717 0.825902
O O6 0.860802 0.910706 0.000000
O O7 0.916448 0.735470 0.796745
O O8 0.865250 0.806109 0.743360
O O9 0.000000 0.798107 0.779560
O O10 0.916877 0.794188 0.000000
O O11 0.119076 0.660737 0.721358
O O12 0.000000 0.672906 0.813826
O O13 0.099100 0.677906 0.000000
O O14 0.171111 0.838605 0.500000
O O15 0.253168 0.846985 0.275582
O O16 0.335467 0.084506 0.262194
O O17 0.320961 0.000000 0.223754
O O18 0.329093 0.052021 0.000000
O O19 0.178061 0.374285 0.500000
#
# Coordination Sequence:
#
# PCOD8272614 Si02
#       7
#     8  16  16  16  16  16  16
#     4   9  16  26  43  67  91 119 162 213 258 297
#     4   9  16  29  47  67  93 127 168 213 256 297
#     4   9  19  36  56  76  98 131 176 219 260 306
#     4   9  19  37  59  80 102 130 168 213 258 308
#     4  10  21  34  48  73 107 139 171 210 255 304
#     4   9  16  29  51  74  97 130 172 214 253 296
#     4  10  21  34  50  78 111 140 171 206 253 311
#
# _framework density 17.632739999999998
#
# number of rings (size 3 to 8) (size 9 to 14) (size 15 to 20)
#    0.000    2.692    0.769    1.846    0.000    4.615 
#    0.000    6.538    0.000    0.923    0.000    3.231 
#    0.000    0.000    0.000    0.000    0.000    0.000 
#
# Total GULP energy -644461.807745 kJ/mol
# GULP energy per Si atom -12393.496303 kJ/mol
# Density = 1.759261 g / cm^3
# Si number density = 17.632740 Si / 1000 Ang^3
#
#
#
# Elastic Constant Matrix: (Units=GPa)
#
#
# Indices 1 2 3 4 5 6 
#
# 1 73.0251 55.1322 33.3831 0.0000 0.0000 0.0000
# 2 55.1322 101.9251 44.2829 0.0000 0.0000 0.0000
# 3 33.3831 44.2829 57.1998 0.0000 0.0000 0.0000
# 4 0.0000 0.0000 0.0000 -3.9735 0.0000 0.0000
# 5 0.0000 0.0000 0.0000 0.0000 24.0682 0.0000
# 6 0.0000 0.0000 0.0000 0.0000 0.0000 37.1875
#
#
#
# Elastic Compliance Matrix: (Units=1/GPa)
#
#
# Indices 1 2 3 4 5 6 
#
# 1 0.024473 -0.010596 -0.006080 0.000000 0.000000 0.000000
# 2 -0.010596 0.019372 -0.008813 0.000000 0.000000 0.000000
# 3 -0.006080 -0.008813 0.027854 0.000000 0.000000 0.000000
# 4 0.000000 0.000000 0.000000 -0.251665 0.000000 0.000000
# 5 0.000000 0.000000 0.000000 0.000000 0.041549 0.000000
# 6 0.000000 0.000000 0.000000 0.000000 0.000000 0.026891
#
#
# Mechanical properties :
#
#
# Convention : Reuss Voigt Hill
#
# Bulk Modulus (GPa) = 48.26100 55.30516 51.78308
# Shear Modulus (GPa) = -93.20961 18.07990 -37.56486
#
# Velocity S-wave (km/s) = -7.27849 3.20560 -4.62064
# Velocity P-wave (km/s) = 6.57311 6.71820 0.98198
#
# Compressibility (1/GPa) = 0.02072066
#
# Stress axis : x y z
#
# Youngs Moduli (GPa) = 40.86100 51.62174 35.90213
#
# Poissons Ratio (x) = 0.54700 0.21827
# Poissons Ratio (y) = 0.43298 0.31640
# Poissons Ratio (z) = 0.24842 0.45494
#
# Static dielectric constant tensor:
#      x y z
#    x 3.195470 0.000000 0.000000 
#    y 0.000000 3.304790 0.000000 
#    z 0.000000 0.000000 3.118650 
# 
# 
# High freq. dielectric constant tensor:
#      x y z
#    x 1.666410 0.000000 0.000000 
#    y 0.000000 1.687390 0.000000 
#    z 0.000000 0.000000 1.667650 
# 
# From -- ./inp_files/12737.got.cif
#   From: 2010.03.12/outbox.cif.g09.slc.cpg/sg65_7_cif.got.tgz:12737.got - 2010.04.10 20:52:16.
