data_PCOD8272188
_publ_section_title
;
Structure prediction by ZEFSAII (Michael W. Deem and Ramdas Pophale) SiO2 
 PCOD8272188
Probable space group: C M M M
;
_chemical_formula_sum "Si O2"
_cell_formula_units_Z 80
_cell_length_a 23.219219
_cell_length_b 13.735656
_cell_length_c 13.743008
_cell_angle_alpha 90.000000
_cell_angle_beta 90.000000
_cell_angle_gamma 90.000000
_cell_volume 4383.074099
_symmetry_space_group_name_H-M "C M M M"
_symmetry_group_IT_number 65
_symmetry_cell_setting 'orthorhombic'
loop_
_space_group_symop_operation_xyz
x,y,z
-x,-y,z
x,-y,-z
-x,y,-z
-x,-y,-z
x,y,-z
-x,y,z
x,-y,z
1/2+x,1/2+y,z
1/2-x,1/2-y,z
1/2+x,1/2-y,-z
1/2-x,1/2+y,-z
1/2-x,1/2-y,-z
1/2+x,1/2+y,-z
1/2-x,1/2+y,z
1/2+x,1/2-y,z
loop_
_atom_site_type_symbol
_atom_site_label
_atom_site_fract_x
_atom_site_fract_y
_atom_site_fract_z
Si Si1 0.723158 0.111658 0.801567
Si Si2 0.565104 0.264608 0.390465
Si Si3 0.668662 0.291057 0.112397
Si Si4 0.066171 0.111575 0.791653
Si Si5 0.838726 0.610571 0.391094
O O1 0.678335 0.177305 0.863042
O O2 0.788356 0.143740 0.822685
O O3 0.712558 0.127514 0.686079
O O4 0.713493 0.000000 0.832577
O O5 0.576428 0.302098 0.500000
O O6 0.500000 0.225373 0.378730
O O7 0.576342 0.355351 0.319429
O O8 0.606959 0.176480 0.362577
O O9 0.603664 0.322495 0.135649
O O10 0.682350 0.309761 0.000000
O O11 0.000000 0.125082 0.823216
O O12 0.085580 0.000000 0.800188
O O13 0.815624 0.634717 0.500000
O O14 0.861010 0.500000 0.385488
#
# Coordination Sequence:
#
# PCOD8272188 Si02
#       5
#    16  16  16  16  16
#     4  10  20  36  57  82 112 143 175 217 268 320
#     4   9  17  31  52  78 109 144 181 219 262 317
#     4  11  23  38  57  81 106 138 186 232 270 318
#     4  10  21  37  56  79 108 141 180 227 277 324
#     4   9  17  31  53  81 113 145 175 212 260 319
#
# _framework density 18.252030999999999
#
# number of rings (size 3 to 8) (size 9 to 14) (size 15 to 20)
#    0.000    2.200    2.000    1.800    0.000    4.000 
#    0.000    8.000    0.000    3.000    0.000    1.400 
#    0.000    0.000    0.000    0.000    0.000    0.000 
#
# Total GULP energy -495975.606533 kJ/mol
# GULP energy per Si atom -12399.390163 kJ/mol
# Density = 1.821049 g / cm^3
# Si number density = 18.252031 Si / 1000 Ang^3
#
#
#
# Elastic Constant Matrix: (Units=GPa)
#
#
# Indices 1 2 3 4 5 6 
#
# 1 87.7772 54.1166 50.6196 0.0000 0.0000 0.0000
# 2 54.1166 113.9682 41.8728 0.0000 0.0000 0.0000
# 3 50.6196 41.8728 96.2659 0.0000 0.0000 0.0000
# 4 0.0000 0.0000 0.0000 20.5628 0.0000 0.0000
# 5 0.0000 0.0000 0.0000 0.0000 24.8724 0.0000
# 6 0.0000 0.0000 0.0000 0.0000 0.0000 27.0583
#
#
#
# Elastic Compliance Matrix: (Units=1/GPa)
#
#
# Indices 1 2 3 4 5 6 
#
# 1 0.019841 -0.006651 -0.007540 0.000000 0.000000 0.000000
# 2 -0.006651 0.012673 -0.002015 0.000000 0.000000 0.000000
# 3 -0.007540 -0.002015 0.015229 0.000000 0.000000 0.000000
# 4 0.000000 0.000000 0.000000 0.048632 0.000000 0.000000
# 5 0.000000 0.000000 0.000000 0.000000 0.040205 0.000000
# 6 0.000000 0.000000 0.000000 0.000000 0.000000 0.036957
#
#
# Mechanical properties :
#
#
# Convention : Reuss Voigt Hill
#
# Bulk Modulus (GPa) = 65.22757 65.69214 65.45985
# Shear Modulus (GPa) = 23.68994 24.59219 24.14106
#
# Velocity S-wave (km/s) = 3.60659 3.67463 3.64077
# Velocity P-wave (km/s) = 7.29096 7.35348 7.32229
#
# Compressibility (1/GPa) = 0.01533094
#
# Stress axis : x y z
#
# Youngs Moduli (GPa) = 50.39998 78.90854 65.66351
#
# Poissons Ratio (x) = 0.52483 0.49511
# Poissons Ratio (y) = 0.33522 0.13231
# Poissons Ratio (z) = 0.38002 0.15900
#
# Static dielectric constant tensor:
#      x y z
#    x 3.261120 0.000000 0.000000 
#    y 0.000000 3.408830 0.000000 
#    z 0.000000 0.000000 3.434640 
# 
# 
# High freq. dielectric constant tensor:
#      x y z
#    x 1.696940 0.000000 0.000000 
#    y 0.000000 1.707040 0.000000 
#    z 0.000000 0.000000 1.710520 
# 
# From -- ./inp_files/24604.got.cif
#   From: 2010.03.12/outbox.cif.g09.slc.cpg/sg65_13_cif.got.tgz:24604.got - 2010.04.10 20:52:16.
