data_PCOD8272020
_publ_section_title
;
Structure prediction by ZEFSAII (Michael W. Deem and Ramdas Pophale) SiO2 
 PCOD8272020
Probable space group: C M M M
;
_chemical_formula_sum "Si O2"
_cell_formula_units_Z 72
_cell_length_a 18.855480
_cell_length_b 8.838361
_cell_length_c 23.140985
_cell_angle_alpha 90.000000
_cell_angle_beta 90.000000
_cell_angle_gamma 90.000000
_cell_volume 3856.480766
_symmetry_space_group_name_H-M "C M M M"
_symmetry_group_IT_number 65
_symmetry_cell_setting 'orthorhombic'
loop_
_space_group_symop_operation_xyz
x,y,z
-x,-y,z
x,-y,-z
-x,y,-z
-x,-y,-z
x,y,-z
-x,y,z
x,-y,z
1/2+x,1/2+y,z
1/2-x,1/2-y,z
1/2+x,1/2-y,-z
1/2-x,1/2+y,-z
1/2-x,1/2-y,-z
1/2+x,1/2+y,-z
1/2-x,1/2+y,z
1/2+x,1/2-y,z
loop_
_atom_site_type_symbol
_atom_site_label
_atom_site_fract_x
_atom_site_fract_y
_atom_site_fract_z
Si Si1 0.172872 0.676582 0.098940
Si Si2 0.917536 0.327223 0.433939
Si Si3 0.326076 0.824503 0.773042
Si Si4 0.172945 0.177317 0.338844
Si Si5 0.582418 0.322124 0.000000
O O1 0.180932 0.500000 0.084494
O O2 0.250000 0.750000 0.091153
O O3 0.140050 0.700424 0.163510
O O4 0.117045 0.752621 0.056840
O O5 0.895646 0.296182 0.500000
O O6 0.899808 0.500000 0.417176
O O7 0.874125 0.213582 0.394234
O O8 0.000000 0.293935 0.424949
O O9 0.250000 0.750000 0.776209
O O10 0.365986 0.742968 0.719371
O O11 0.319490 0.000000 0.758079
O O12 0.250000 0.250000 0.346910
O O13 0.181438 0.000000 0.332468
O O14 0.595146 0.500000 0.000000
O O15 0.500000 0.279414 0.000000
#
# Coordination Sequence:
#
# PCOD8272020 Si02
#       5
#    16  16  16  16   8
#     4  10  20  35  58  83 106 136 175 217 258 308
#     4   9  19  37  58  77 101 136 176 218 264 313
#     4   9  17  31  52  78 106 136 171 213 260 307
#     4  11  21  33  53  80 110 141 173 214 261 309
#     4  11  24  39  54  75 107 143 176 217 266 309
#
# _framework density 18.669871000000001
#
# number of rings (size 3 to 8) (size 9 to 14) (size 15 to 20)
#    0.000    2.111    0.000    6.000    0.000    4.889 
#    0.000    2.222    0.000    1.333    0.000    0.000 
#    0.000    0.000    0.000    0.000    0.000    0.000 
#
# Total GULP energy -446242.893731 kJ/mol
# GULP energy per Si atom -12395.635937 kJ/mol
# Density = 1.862738 g / cm^3
# Si number density = 18.669871 Si / 1000 Ang^3
#
#
#
# Elastic Constant Matrix: (Units=GPa)
#
#
# Indices 1 2 3 4 5 6 
#
# 1 68.7652 52.4083 61.2200 0.0000 0.0000 0.0000
# 2 52.4083 148.5443 78.5699 0.0000 0.0000 0.0000
# 3 61.2200 78.5699 151.9614 0.0000 0.0000 0.0000
# 4 0.0000 0.0000 0.0000 17.0919 0.0000 0.0000
# 5 0.0000 0.0000 0.0000 0.0000 -6.6578 0.0000
# 6 0.0000 0.0000 0.0000 0.0000 0.0000 25.6030
#
#
#
# Elastic Compliance Matrix: (Units=1/GPa)
#
#
# Indices 1 2 3 4 5 6 
#
# 1 0.024931 -0.004795 -0.007565 0.000000 0.000000 0.000000
# 2 -0.004795 0.010188 -0.003336 0.000000 0.000000 0.000000
# 3 -0.007565 -0.003336 0.011353 0.000000 0.000000 0.000000
# 4 0.000000 0.000000 0.000000 0.058507 0.000000 0.000000
# 5 0.000000 0.000000 0.000000 0.000000 -0.150199 0.000000
# 6 0.000000 0.000000 0.000000 0.000000 0.000000 0.039058
#
#
# Mechanical properties :
#
#
# Convention : Reuss Voigt Hill
#
# Bulk Modulus (GPa) = 66.30754 83.74080 75.02417
# Shear Modulus (GPa) = 165.25069 19.01227 92.13148
#
# Velocity S-wave (km/s) = 9.41829 3.19461 7.03241
# Velocity P-wave (km/s) = 12.40424 7.65233 10.30590
#
# Compressibility (1/GPa) = 0.01508124
#
# Stress axis : x y z
#
# Youngs Moduli (GPa) = 40.11011 98.15279 88.08165
#
# Poissons Ratio (x) = 0.47062 0.66633
# Poissons Ratio (y) = 0.19232 0.29384
# Poissons Ratio (z) = 0.30343 0.32744
#
# Static dielectric constant tensor:
#      x y z
#    x 3.048310 0.000000 0.000000 
#    y 0.000000 3.527770 0.000000 
#    z 0.000000 0.000000 4.226440 
# 
# 
# High freq. dielectric constant tensor:
#      x y z
#    x 1.683670 0.000000 0.000000 
#    y 0.000000 1.739150 0.000000 
#    z 0.000000 0.000000 1.749960 
# 
# From -- ./inp_files/70300.got.cif
#   From: 2010.03.12/outbox.cif.g09.slc.cpg/sg65_36_cif.got.tgz:70300.got - 2010.04.10 20:52:16.
