data_PCOD8272968
_publ_section_title
;
Structure prediction by ZEFSAII (Michael W. Deem and Ramdas Pophale) SiO2 
 PCOD8272968
Probable space group: C M M M
;
_chemical_formula_sum "Si O2"
_cell_formula_units_Z 72
_cell_length_a 30.792008
_cell_length_b 8.953499
_cell_length_c 14.264999
_cell_angle_alpha 90.000000
_cell_angle_beta 90.000000
_cell_angle_gamma 90.000000
_cell_volume 3932.806200
_symmetry_space_group_name_H-M "C M M M"
_symmetry_group_IT_number 65
_symmetry_cell_setting 'orthorhombic'
loop_
_space_group_symop_operation_xyz
x,y,z
-x,-y,z
x,-y,-z
-x,y,-z
-x,-y,-z
x,y,-z
-x,y,z
x,-y,z
1/2+x,1/2+y,z
1/2-x,1/2-y,z
1/2+x,1/2-y,-z
1/2-x,1/2+y,-z
1/2-x,1/2-y,-z
1/2+x,1/2+y,-z
1/2-x,1/2+y,z
1/2+x,1/2-y,z
loop_
_atom_site_type_symbol
_atom_site_label
_atom_site_fract_x
_atom_site_fract_y
_atom_site_fract_z
Si Si1 0.206115 0.675950 0.606750
Si Si2 0.123532 0.676131 0.723895
Si Si3 0.049590 0.171659 0.390621
Si Si4 0.000000 0.667634 0.888946
Si Si5 0.587689 0.676286 0.107083
O O1 0.197466 0.727557 0.500000
O O2 0.211536 0.500000 0.613306
O O3 0.250000 0.750000 0.646031
O O4 0.165974 0.732453 0.668822
O O5 0.123916 0.500000 0.738601
O O6 0.080805 0.720348 0.666637
O O7 0.124665 0.755554 0.825782
O O8 0.057248 0.200817 0.500000
O O9 0.000000 0.210145 0.363562
O O10 0.060053 0.000000 0.365375
O O11 0.957655 0.756566 0.855277
O O12 0.000000 0.500000 0.846812
O O13 0.000000 0.661192 0.000000
O O14 0.585378 0.500000 0.117388
O O15 0.597644 0.723488 0.000000
#
# Coordination Sequence:
#
# PCOD8272968 Si02
#       5
#    16  16  16   8  16
#     4   9  19  36  57  82 110 138 171 214 265 321
#     4  11  22  34  53  80 109 140 176 221 271 322
#     4   9  19  35  52  72 103 143 183 219 256 307
#     4   9  17  31  51  73  98 131 174 223 271 313
#     4  10  21  36  53  74 103 141 183 226 269 315
#
# _framework density 18.307538999999998
#
# number of rings (size 3 to 8) (size 9 to 14) (size 15 to 20)
#    0.000    2.333    0.000    3.000    1.556    6.222 
#    0.000    3.333    0.000    0.667    0.000    0.000 
#    0.000    0.000    0.000    0.000    0.000    0.000 
#
# Total GULP energy -446461.187298 kJ/mol
# GULP energy per Si atom -12401.699647 kJ/mol
# Density = 1.826587 g / cm^3
# Si number density = 18.307539 Si / 1000 Ang^3
#
#
#
# Elastic Constant Matrix: (Units=GPa)
#
#
# Indices 1 2 3 4 5 6 
#
# 1 117.9323 44.4291 72.0201 0.0000 0.0000 0.0000
# 2 44.4291 70.2615 38.8185 0.0000 0.0000 0.0000
# 3 72.0201 38.8185 96.2169 0.0000 0.0000 0.0000
# 4 0.0000 0.0000 0.0000 30.6543 0.0000 0.0000
# 5 0.0000 0.0000 0.0000 0.0000 26.4954 0.0000
# 6 0.0000 0.0000 0.0000 0.0000 0.0000 31.5906
#
#
#
# Elastic Compliance Matrix: (Units=1/GPa)
#
#
# Indices 1 2 3 4 5 6 
#
# 1 0.016752 -0.004716 -0.010636 0.000000 0.000000 0.000000
# 2 -0.004716 0.019643 -0.004395 0.000000 0.000000 0.000000
# 3 -0.010636 -0.004395 0.020127 0.000000 0.000000 0.000000
# 4 0.000000 0.000000 0.000000 0.032622 0.000000 0.000000
# 5 0.000000 0.000000 0.000000 0.000000 0.037742 0.000000
# 6 0.000000 0.000000 0.000000 0.000000 0.000000 0.031655
#
#
# Mechanical properties :
#
#
# Convention : Reuss Voigt Hill
#
# Bulk Modulus (GPa) = 58.72729 66.10514 62.41622
# Shear Modulus (GPa) = 24.54456 26.35760 25.45108
#
# Velocity S-wave (km/s) = 3.66550 3.79847 3.73258
# Velocity P-wave (km/s) = 7.07548 7.44476 7.26246
#
# Compressibility (1/GPa) = 0.01702786
#
# Stress axis : x y z
#
# Youngs Moduli (GPa) = 59.69570 50.90909 49.68343
#
# Poissons Ratio (x) = 0.24011 0.52844
# Poissons Ratio (y) = 0.28155 0.21834
# Poissons Ratio (z) = 0.63493 0.22372
#
# Static dielectric constant tensor:
#      x y z
#    x 3.329540 0.000000 0.000000 
#    y 0.000000 3.330960 0.000000 
#    z 0.000000 0.000000 3.492370 
# 
# 
# High freq. dielectric constant tensor:
#      x y z
#    x 1.688980 0.000000 0.000000 
#    y 0.000000 1.713460 0.000000 
#    z 0.000000 0.000000 1.711580 
# 
# From -- ./inp_files/36514.got.cif
#   From: 2010.03.12/outbox.cif.g09.slc.cpg/sg65_19_cif.got.tgz:36514.got - 2010.04.10 20:52:16.
