data_PCOD8272321
_publ_section_title
;
Structure prediction by ZEFSAII (Michael W. Deem and Ramdas Pophale) SiO2 
 PCOD8272321
Probable space group: C M M M
;
_chemical_formula_sum "Si O2"
_cell_formula_units_Z 72
_cell_length_a 7.856949
_cell_length_b 28.369211
_cell_length_c 15.966922
_cell_angle_alpha 90.000000
_cell_angle_beta 90.000000
_cell_angle_gamma 90.000000
_cell_volume 3558.954168
_symmetry_space_group_name_H-M "C M M M"
_symmetry_group_IT_number 65
_symmetry_cell_setting 'orthorhombic'
loop_
_space_group_symop_operation_xyz
x,y,z
-x,-y,z
x,-y,-z
-x,y,-z
-x,-y,-z
x,y,-z
-x,y,z
x,-y,z
1/2+x,1/2+y,z
1/2-x,1/2-y,z
1/2+x,1/2-y,-z
1/2-x,1/2+y,-z
1/2-x,1/2-y,-z
1/2+x,1/2+y,-z
1/2-x,1/2+y,z
1/2+x,1/2-y,z
loop_
_atom_site_type_symbol
_atom_site_label
_atom_site_fract_x
_atom_site_fract_y
_atom_site_fract_z
Si Si1 0.500000 0.555876 0.403030
Si Si2 0.812496 0.391594 0.319159
Si Si3 0.800071 0.554650 0.000000
Si Si4 0.195338 0.123722 0.136372
Si Si5 0.299695 0.695614 0.000000
Si Si6 0.696662 0.300433 0.402710
O O1 0.500000 0.500000 0.396744
O O2 0.500000 0.572896 0.500000
O O3 0.331170 0.574545 0.357376
O O4 0.800012 0.384399 0.220138
O O5 0.806937 0.340059 0.358987
O O6 0.000000 0.413176 0.338286
O O7 0.713637 0.576662 0.918185
O O8 0.757177 0.500000 0.000000
O O9 0.000000 0.565085 0.000000
O O10 0.268568 0.168673 0.083296
O O11 0.000000 0.132188 0.161204
O O12 0.250000 0.750000 0.000000
O O13 0.500000 0.689462 0.000000
O O14 0.741385 0.301281 0.500000
O O15 0.500000 0.310977 0.384997
O O16 0.750000 0.250000 0.364533
#
# Coordination Sequence:
#
# PCOD8272321 Si02
#       6
#     8  16   8  16   8  16
#     4  11  26  48  70  93 127 171 219 278 347 413
#     4  12  24  41  67  96 129 171 218 275 331 389
#     4  10  21  37  59  89 120 152 197 251 311 376
#     4  10  21  40  60  86 125 167 212 258 313 378
#     4   9  20  36  60  88 125 176 216 257 311 373
#     4  10  20  36  59  90 127 165 208 259 319 385
#
# _framework density 20.230661000000001
#
# number of rings (size 3 to 8) (size 9 to 14) (size 15 to 20)
#    0.000    1.556    2.222    3.000    0.000    8.444 
#    0.000    3.333    0.000    0.000    0.000    0.000 
#    0.000    0.000    0.000    0.000    0.000    0.000 
#
# Total GULP energy -446430.142662 kJ/mol
# GULP energy per Si atom -12400.837296 kJ/mol
# Density = 2.018462 g / cm^3
# Si number density = 20.230661 Si / 1000 Ang^3
#
#
#
# Elastic Constant Matrix: (Units=GPa)
#
#
# Indices 1 2 3 4 5 6 
#
# 1 107.4818 37.1893 57.5294 0.0000 0.0000 0.0000
# 2 37.1893 123.4297 44.1378 0.0000 0.0000 0.0000
# 3 57.5294 44.1378 106.1351 0.0000 0.0000 0.0000
# 4 0.0000 0.0000 0.0000 12.2199 0.0000 0.0000
# 5 0.0000 0.0000 0.0000 0.0000 -1.2026 0.0000
# 6 0.0000 0.0000 0.0000 0.0000 0.0000 31.6530
#
#
#
# Elastic Compliance Matrix: (Units=1/GPa)
#
#
# Indices 1 2 3 4 5 6 
#
# 1 0.013401 -0.001692 -0.006560 0.000000 0.000000 0.000000
# 2 -0.001692 0.009731 -0.003130 0.000000 0.000000 0.000000
# 3 -0.006560 -0.003130 0.014279 0.000000 0.000000 0.000000
# 4 0.000000 0.000000 0.000000 0.081834 0.000000 0.000000
# 5 0.000000 0.000000 0.000000 0.000000 -0.831539 0.000000
# 6 0.000000 0.000000 0.000000 0.000000 0.000000 0.031593
#
#
# Mechanical properties :
#
#
# Convention : Reuss Voigt Hill
#
# Bulk Modulus (GPa) = 68.27084 68.30663 68.28874
# Shear Modulus (GPa) = -7.65630 21.74675 7.04522
#
# Velocity S-wave (km/s) = -1.94749 3.28218 1.86816
# Velocity P-wave (km/s) = 5.36307 6.94268 6.20336
#
# Compressibility (1/GPa) = 0.01464754
#
# Stress axis : x y z
#
# Youngs Moduli (GPa) = 74.62402 102.76825 70.03155
#
# Poissons Ratio (x) = 0.17386 0.45941
# Poissons Ratio (y) = 0.12624 0.21917
# Poissons Ratio (z) = 0.48954 0.32163
#
# Static dielectric constant tensor:
#      x y z
#    x 3.706610 0.000000 0.000000 
#    y 0.000000 6.209480 0.000000 
#    z 0.000000 0.000000 3.771500 
# 
# 
# High freq. dielectric constant tensor:
#      x y z
#    x 1.797650 0.000000 0.000000 
#    y 0.000000 1.788920 0.000000 
#    z 0.000000 0.000000 1.791130 
# 
# From -- ./inp_files/36683.got.cif
#   From: 2010.03.12/outbox.cif.g09.slc.cpg/sg65_19_cif.got.tgz:36683.got - 2010.04.10 20:52:16.
