data_PCOD8272982
_publ_section_title
;
Structure prediction by ZEFSAII (Michael W. Deem and Ramdas Pophale) SiO2 
 PCOD8272982
Probable space group: C M M M
;
_chemical_formula_sum "Si O2"
_cell_formula_units_Z 80
_cell_length_a 14.735467
_cell_length_b 18.686630
_cell_length_c 14.052198
_cell_angle_alpha 90.000000
_cell_angle_beta 90.000000
_cell_angle_gamma 90.000000
_cell_volume 3869.360120
_symmetry_space_group_name_H-M "C M M M"
_symmetry_group_IT_number 65
_symmetry_cell_setting 'orthorhombic'
loop_
_space_group_symop_operation_xyz
x,y,z
-x,-y,z
x,-y,-z
-x,y,-z
-x,-y,-z
x,y,-z
-x,y,z
x,-y,z
1/2+x,1/2+y,z
1/2-x,1/2-y,z
1/2+x,1/2-y,-z
1/2-x,1/2+y,-z
1/2-x,1/2-y,-z
1/2+x,1/2+y,-z
1/2-x,1/2+y,z
1/2+x,1/2-y,z
loop_
_atom_site_type_symbol
_atom_site_label
_atom_site_fract_x
_atom_site_fract_y
_atom_site_fract_z
Si Si1 0.099657 0.418838 0.613101
Si Si2 0.101599 0.847557 0.776720
Si Si3 0.729423 0.332758 0.393012
Si Si4 0.257292 0.919834 0.888121
Si Si5 0.349856 0.218657 0.105012
O O1 0.100693 0.413013 0.500000
O O2 0.115822 0.500000 0.646322
O O3 0.182595 0.371661 0.653621
O O4 0.000000 0.392236 0.649486
O O5 0.141534 0.847417 0.670389
O O6 0.161324 0.900001 0.841111
O O7 0.095840 0.766654 0.819507
O O8 0.000000 0.878359 0.771363
O O9 0.709118 0.360540 0.500000
O O10 0.750000 0.250000 0.393617
O O11 0.338001 0.864046 0.859413
O O12 0.286795 0.000000 0.857776
O O13 0.240229 0.914223 0.000000
O O14 0.250000 0.250000 0.097494
O O15 0.396356 0.221226 0.000000
#
# Coordination Sequence:
#
# PCOD8272982 Si02
#       5
#    16  16  16  16  16
#     4   8  15  31  56  81 100 122 162 221 284 335
#     4  11  22  34  51  77 111 151 190 223 259 315
#     4  10  21  36  53  75 107 146 185 228 276 321
#     4   9  18  34  57  82 106 135 176 228 281 328
#     4   8  15  31  54  77 102 135 176 221 270 320
#
# _framework density 20.675253000000001
#
# number of rings (size 3 to 8) (size 9 to 14) (size 15 to 20)
#    0.000    2.800    0.000    4.200    0.000    4.000 
#    0.000    3.000    0.000    0.600    0.000    7.000 
#    0.000    0.000    0.000    2.200    0.000    0.400 
#
# Total GULP energy -495709.462524 kJ/mol
# GULP energy per Si atom -12392.736563 kJ/mol
# Density = 2.062819 g / cm^3
# Si number density = 20.675253 Si / 1000 Ang^3
#
#
#
# Elastic Constant Matrix: (Units=GPa)
#
#
# Indices 1 2 3 4 5 6 
#
# 1 83.2587 19.7416 28.1878 0.0000 0.0000 0.0000
# 2 19.7416 114.0386 18.2728 0.0000 0.0000 0.0000
# 3 28.1878 18.2728 69.0586 0.0000 0.0000 0.0000
# 4 0.0000 0.0000 0.0000 37.2171 0.0000 0.0000
# 5 0.0000 0.0000 0.0000 0.0000 -40.5714 0.0000
# 6 0.0000 0.0000 0.0000 0.0000 0.0000 19.0376
#
#
#
# Elastic Compliance Matrix: (Units=1/GPa)
#
#
# Indices 1 2 3 4 5 6 
#
# 1 0.014210 -0.001598 -0.005377 0.000000 0.000000 0.000000
# 2 -0.001598 0.009337 -0.001818 0.000000 0.000000 0.000000
# 3 -0.005377 -0.001818 0.017156 0.000000 0.000000 0.000000
# 4 0.000000 0.000000 0.000000 0.026869 0.000000 0.000000
# 5 0.000000 0.000000 0.000000 0.000000 -0.024648 0.000000
# 6 0.000000 0.000000 0.000000 0.000000 0.000000 0.052528
#
#
# Mechanical properties :
#
#
# Convention : Reuss Voigt Hill
#
# Bulk Modulus (GPa) = 43.26004 44.30671 43.78338
# Shear Modulus (GPa) = 41.40931 16.48024 28.94477
#
# Velocity S-wave (km/s) = 4.48017 2.82636 3.74568
# Velocity P-wave (km/s) = 6.90880 5.66811 6.31898
#
# Compressibility (1/GPa) = 0.02311602
#
# Stress axis : x y z
#
# Youngs Moduli (GPa) = 70.37164 107.10090 58.28728
#
# Poissons Ratio (x) = 0.17119 0.31343
# Poissons Ratio (y) = 0.11248 0.10597
# Poissons Ratio (z) = 0.37841 0.19472
#
# Static dielectric constant tensor:
#      x y z
#    x 3.706880 0.000000 0.000000 
#    y 0.000000 4.195330 0.000000 
#    z 0.000000 0.000000 3.861520 
# 
# 
# High freq. dielectric constant tensor:
#      x y z
#    x 1.780130 0.000000 0.000000 
#    y 0.000000 1.802690 0.000000 
#    z 0.000000 0.000000 1.806590 
# 
# From -- ./inp_files/40040.got.cif
#   From: 2010.03.12/outbox.cif.g09.slc.cpg/sg65_21_cif.got.tgz:40040.got - 2010.04.10 20:52:16.
