data_PCOD8272096
_publ_section_title
;
Structure prediction by ZEFSAII (Michael W. Deem and Ramdas Pophale) SiO2 
 PCOD8272096
Probable space group: C M M M
;
_chemical_formula_sum "Si O2"
_cell_formula_units_Z 96
_cell_length_a 22.766451
_cell_length_b 16.639590
_cell_length_c 12.589554
_cell_angle_alpha 90.000000
_cell_angle_beta 90.000000
_cell_angle_gamma 90.000000
_cell_volume 4769.230371
_symmetry_space_group_name_H-M "C M M M"
_symmetry_group_IT_number 65
_symmetry_cell_setting 'orthorhombic'
loop_
_space_group_symop_operation_xyz
x,y,z
-x,-y,z
x,-y,-z
-x,y,-z
-x,-y,-z
x,y,-z
-x,y,z
x,-y,z
1/2+x,1/2+y,z
1/2-x,1/2-y,z
1/2+x,1/2-y,-z
1/2-x,1/2+y,-z
1/2-x,1/2-y,-z
1/2+x,1/2+y,-z
1/2-x,1/2+y,z
1/2+x,1/2-y,z
loop_
_atom_site_type_symbol
_atom_site_label
_atom_site_fract_x
_atom_site_fract_y
_atom_site_fract_z
Si Si1 0.069711 0.311118 0.000000
Si Si2 0.804431 0.846468 0.669065
Si Si3 0.270315 0.408054 0.881815
Si Si4 0.670523 0.172075 0.617939
Si Si5 0.568336 0.500000 0.161995
Si Si6 0.123840 0.000000 0.384720
Si Si7 0.363847 0.907907 0.826385
Si Si8 0.929880 0.870524 0.000000
O O1 0.091272 0.355131 0.106084
O O2 0.094782 0.219903 0.000000
O O3 0.000000 0.312343 0.000000
O O4 0.801851 0.850767 0.797387
O O5 0.739312 0.847024 0.622301
O O6 0.839808 0.766510 0.639473
O O7 0.836100 0.921797 0.618411
O O8 0.287895 0.500000 0.854439
O O9 0.200426 0.397814 0.876290
O O10 0.291627 0.383979 0.000000
O O11 0.647130 0.150555 0.500000
O O12 0.634746 0.120338 0.703716
O O13 0.500000 0.500000 0.139942
O O14 0.578572 0.500000 0.287597
O O15 0.593767 0.419462 0.104475
O O16 0.091213 0.000000 0.500000
O O17 0.384491 0.000000 0.831310
O O18 0.000000 0.866936 0.000000
#
# Coordination Sequence:
#
# PCOD8272096 Si02
#       8
#     8  16  16  16   8   8  16   8
#     4  11  22  38  64  90 115 142 179 233 293 345
#     4  10  20  36  51  82 114 155 196 236 284 329
#     4   9  16  32  51  72 113 152 184 226 274 338
#     4  10  21  38  57  77 113 156 197 236 276 336
#     4   9  20  41  63  83 115 154 193 235 282 338
#     4  12  23  34  54  86 121 150 193 245 286 335
#     4  10  21  36  57  84 112 145 184 228 283 345
#     4   8  18  40  64  84 108 143 187 233 277 339
#
# _framework density 20.129034000000001
#
# number of rings (size 3 to 8) (size 9 to 14) (size 15 to 20)
#    0.000    2.167    1.667    2.750    3.500    1.167 
#    4.500    1.667    0.000    0.500    0.000    1.167 
#    0.000    0.000    0.000    0.000    0.000    0.000 
#
# Total GULP energy -595199.224422 kJ/mol
# GULP energy per Si atom -12399.983842 kJ/mol
# Density = 2.008322 g / cm^3
# Si number density = 20.129034 Si / 1000 Ang^3
#
#
#
# Elastic Constant Matrix: (Units=GPa)
#
#
# Indices 1 2 3 4 5 6 
#
# 1 7.6677 23.3999 20.9860 0.0000 0.0000 0.0000
# 2 23.3999 133.9833 60.9101 0.0000 0.0000 0.0000
# 3 20.9860 60.9101 197.6527 0.0000 0.0000 0.0000
# 4 0.0000 0.0000 0.0000 25.9519 0.0000 0.0000
# 5 0.0000 0.0000 0.0000 0.0000 19.0302 0.0000
# 6 0.0000 0.0000 0.0000 0.0000 0.0000 22.4800
#
#
#
# Elastic Compliance Matrix: (Units=1/GPa)
#
#
# Indices 1 2 3 4 5 6 
#
# 1 0.338885 -0.049806 -0.020633 0.000000 0.000000 0.000000
# 2 -0.049806 0.015999 0.000358 0.000000 0.000000 0.000000
# 3 -0.020633 0.000358 0.007140 0.000000 0.000000 0.000000
# 4 0.000000 0.000000 0.000000 0.038533 0.000000 0.000000
# 5 0.000000 0.000000 0.000000 0.000000 0.052548 0.000000
# 6 0.000000 0.000000 0.000000 0.000000 0.000000 0.044484
#
#
# Mechanical properties :
#
#
# Convention : Reuss Voigt Hill
#
# Bulk Modulus (GPa) = 4.50730 61.09954 32.80342
# Shear Modulus (GPa) = 7.02538 29.09292 18.05915
#
# Velocity S-wave (km/s) = 1.87023 3.80586 2.99853
# Velocity P-wave (km/s) = 2.62826 7.05214 5.32167
#
# Compressibility (1/GPa) = 0.22186224
#
# Stress axis : x y z
#
# Youngs Moduli (GPa) = 2.95085 62.50212 140.05780
#
# Poissons Ratio (x) = 3.11295 2.88983
# Poissons Ratio (y) = 0.14697 -0.05009
# Poissons Ratio (z) = 0.06089 -0.02235
#
# Static dielectric constant tensor:
#      x y z
#    x 3.199430 0.000000 0.000000 
#    y 0.000000 3.849130 0.000000 
#    z 0.000000 0.000000 3.881210 
# 
# 
# High freq. dielectric constant tensor:
#      x y z
#    x 1.741770 0.000000 0.000000 
#    y 0.000000 1.792030 0.000000 
#    z 0.000000 0.000000 1.799860 
# 
# From -- ./inp_files/30882.got.cif
#   From: 2010.03.12/outbox.cif.g09.slc.cpg/sg65_16_cif.got.tgz:30882.got - 2010.04.10 20:52:16.
