data_PCOD8272387
_publ_section_title
;
Structure prediction by ZEFSAII (Michael W. Deem and Ramdas Pophale) SiO2 
 PCOD8272387
Probable space group: C M M M
;
_chemical_formula_sum "Si O2"
_cell_formula_units_Z 88
_cell_length_a 22.042391
_cell_length_b 8.724180
_cell_length_c 24.817411
_cell_angle_alpha 90.000000
_cell_angle_beta 90.000000
_cell_angle_gamma 90.000000
_cell_volume 4772.432477
_symmetry_space_group_name_H-M "C M M M"
_symmetry_group_IT_number 65
_symmetry_cell_setting 'orthorhombic'
loop_
_space_group_symop_operation_xyz
x,y,z
-x,-y,z
x,-y,-z
-x,y,-z
-x,-y,-z
x,y,-z
-x,y,z
x,-y,z
1/2+x,1/2+y,z
1/2-x,1/2-y,z
1/2+x,1/2-y,-z
1/2-x,1/2+y,-z
1/2-x,1/2-y,-z
1/2+x,1/2+y,-z
1/2-x,1/2+y,z
1/2+x,1/2-y,z
loop_
_atom_site_type_symbol
_atom_site_label
_atom_site_fract_x
_atom_site_fract_y
_atom_site_fract_z
Si Si1 0.685465 0.680147 0.179963
Si Si2 0.569601 0.318422 0.111396
Si Si3 0.880013 0.680117 0.399088
Si Si4 0.071177 0.669442 0.000000
Si Si5 0.500000 0.679029 0.564051
Si Si6 0.686990 0.319294 0.696022
Si Si7 0.185535 0.180479 0.500000
O O1 0.691440 0.500000 0.171424
O O2 0.750000 0.750000 0.158801
O O3 0.623738 0.741666 0.150749
O O4 0.675664 0.725326 0.242051
O O5 0.500000 0.260128 0.126157
O O6 0.568131 0.500000 0.111601
O O7 0.590935 0.261789 0.052865
O O8 0.869327 0.500000 0.403596
O O9 0.947880 0.727252 0.408053
O O10 0.864051 0.739774 0.339695
O O11 0.844097 0.765312 0.445392
O O12 0.101361 0.500000 0.000000
O O13 0.000000 0.651125 0.000000
O O14 0.500000 0.500000 0.579785
O O15 0.500000 0.698126 0.500000
O O16 0.686660 0.500000 0.686859
O O17 0.750000 0.250000 0.675463
O O18 0.250000 0.250000 0.500000
O O19 0.185217 0.000000 0.500000
#
# Coordination Sequence:
#
# PCOD8272387 Si02
#       7
#    16  16  16   8   8  16   8
#     4   9  19  35  56  81 109 146 186 227 276 329
#     4   9  17  32  54  79 108 142 185 229 273 324
#     4  12  24  39  59  83 111 142 177 220 269 323
#     4   9  17  29  48  77 110 143 181 223 276 327
#     4  11  23  41  63  83 108 144 180 215 262 325
#     4  10  20  37  58  82 110 143 183 224 271 323
#     4  12  24  39  58  83 110 138 176 222 272 322
#
# _framework density 18.439233999999999
#
# number of rings (size 3 to 8) (size 9 to 14) (size 15 to 20)
#    0.000    1.818    0.909    4.091    0.000    2.909 
#    1.636    0.455    0.000    0.000    0.000    0.000 
#    0.000    0.000    0.000    0.000    0.000    0.000 
#
# Total GULP energy -545306.643360 kJ/mol
# GULP energy per Si atom -12393.332804 kJ/mol
# Density = 1.839727 g / cm^3
# Si number density = 18.439234 Si / 1000 Ang^3
#
#
#
# Elastic Constant Matrix: (Units=GPa)
#
#
# Indices 1 2 3 4 5 6 
#
# 1 142.0633 40.1605 67.4676 0.0000 0.0000 0.0000
# 2 40.1605 91.9736 38.3371 0.0000 0.0000 0.0000
# 3 67.4676 38.3371 102.3892 0.0000 0.0000 0.0000
# 4 0.0000 0.0000 0.0000 27.1094 0.0000 0.0000
# 5 0.0000 0.0000 0.0000 0.0000 38.1923 0.0000
# 6 0.0000 0.0000 0.0000 0.0000 0.0000 29.7671
#
#
#
# Elastic Compliance Matrix: (Units=1/GPa)
#
#
# Indices 1 2 3 4 5 6 
#
# 1 0.010554 -0.002026 -0.006196 0.000000 0.000000 0.000000
# 2 -0.002026 0.013272 -0.003635 0.000000 0.000000 0.000000
# 3 -0.006196 -0.003635 0.015210 0.000000 0.000000 0.000000
# 4 0.000000 0.000000 0.000000 0.036888 0.000000 0.000000
# 5 0.000000 0.000000 0.000000 0.000000 0.026183 0.000000
# 6 0.000000 0.000000 0.000000 0.000000 0.000000 0.033594
#
#
# Mechanical properties :
#
#
# Convention : Reuss Voigt Hill
#
# Bulk Modulus (GPa) = 65.25739 69.81738 67.53738
# Shear Modulus (GPa) = 30.39086 31.71116 31.05101
#
# Velocity S-wave (km/s) = 4.06416 4.15150 4.10807
# Velocity P-wave (km/s) = 7.58225 7.80549 7.69468
#
# Compressibility (1/GPa) = 0.01532393
#
# Stress axis : x y z
#
# Youngs Moduli (GPa) = 94.74685 75.34506 65.74481
#
# Poissons Ratio (x) = 0.15264 0.40736
# Poissons Ratio (y) = 0.19195 0.23895
# Poissons Ratio (z) = 0.58706 0.27384
#
# Static dielectric constant tensor:
#      x y z
#    x 3.596940 0.000000 0.000000 
#    y 0.000000 3.457190 0.000000 
#    z 0.000000 0.000000 3.505950 
# 
# 
# High freq. dielectric constant tensor:
#      x y z
#    x 1.717610 0.000000 0.000000 
#    y 0.000000 1.721510 0.000000 
#    z 0.000000 0.000000 1.712720 
# 
# From -- ./inp_files/71080.got.cif
#   From: 2010.03.12/outbox.cif.g09.slc.cpg/sg65_36_cif.got.tgz:71080.got - 2010.04.10 20:52:16.
