data_PCOD8272005
_publ_section_title
;
Structure prediction by ZEFSAII (Michael W. Deem and Ramdas Pophale) SiO2 
 PCOD8272005
Probable space group: C M M M
;
_chemical_formula_sum "Si O2"
_cell_formula_units_Z 88
_cell_length_a 19.003890
_cell_length_b 8.030869
_cell_length_c 29.776576
_cell_angle_alpha 90.000000
_cell_angle_beta 90.000000
_cell_angle_gamma 90.000000
_cell_volume 4544.434064
_symmetry_space_group_name_H-M "C M M M"
_symmetry_group_IT_number 65
_symmetry_cell_setting 'orthorhombic'
loop_
_space_group_symop_operation_xyz
x,y,z
-x,-y,z
x,-y,-z
-x,y,-z
-x,-y,-z
x,y,-z
-x,y,z
x,-y,z
1/2+x,1/2+y,z
1/2-x,1/2-y,z
1/2+x,1/2-y,-z
1/2-x,1/2+y,-z
1/2-x,1/2-y,-z
1/2+x,1/2+y,-z
1/2-x,1/2+y,z
1/2+x,1/2-y,z
loop_
_atom_site_type_symbol
_atom_site_label
_atom_site_fract_x
_atom_site_fract_y
_atom_site_fract_z
Si Si1 0.169433 0.696967 0.307255
Si Si2 0.416797 0.000000 0.450012
Si Si3 0.418305 0.689218 0.609795
Si Si4 0.582730 0.813925 0.874468
Si Si5 0.823831 0.809935 0.048887
Si Si6 0.078289 0.302002 0.776030
O O1 0.161095 0.500000 0.314309
O O2 0.250000 0.750000 0.307641
O O3 0.128292 0.792981 0.346039
O O4 0.134955 0.757661 0.260531
O O5 0.391929 0.829572 0.425504
O O6 0.500000 0.000000 0.453210
O O7 0.383735 0.000000 0.500000
O O8 0.500000 0.720943 0.622020
O O9 0.408302 0.500000 0.590673
O O10 0.500000 0.812454 0.881122
O O11 0.615171 0.712132 0.915032
O O12 0.601136 0.735327 0.825407
O O13 0.613137 0.000000 0.877342
O O14 0.750000 0.750000 0.069606
O O15 0.816823 0.000000 0.038544
O O16 0.839377 0.722171 0.000000
O O17 0.074998 0.500000 0.778560
O O18 0.000000 0.235293 0.763292
#
# Coordination Sequence:
#
# PCOD8272005 Si02
#       6
#    16   8  16  16  16  16
#     4  11  21  34  53  79 111 149 186 228 276 326
#     4   9  18  34  58  88 118 150 189 233 284 334
#     4  10  20  35  57  86 116 149 191 235 281 334
#     4   9  18  34  55  79 106 137 173 214 265 322
#     4  10  21  36  53  73  99 133 174 219 269 322
#     4   8  16  32  54  77 104 141 181 220 267 325
#
# _framework density 19.364348
#
# number of rings (size 3 to 8) (size 9 to 14) (size 15 to 20)
#    0.000    2.455    0.909    2.727    0.000    3.636 
#    0.000    7.273    0.000    2.727    0.000    0.000 
#    0.000    0.000    0.000    0.000    0.000    0.000 
#
# Total GULP energy -545315.014369 kJ/mol
# GULP energy per Si atom -12393.523054 kJ/mol
# Density = 1.932027 g / cm^3
# Si number density = 19.364348 Si / 1000 Ang^3
#
#
#
# Elastic Constant Matrix: (Units=GPa)
#
#
# Indices 1 2 3 4 5 6 
#
# 1 78.6732 26.4865 63.8934 0.0000 0.0000 0.0000
# 2 26.4865 86.7112 45.1231 0.0000 0.0000 0.0000
# 3 63.8934 45.1231 148.4894 0.0000 0.0000 0.0000
# 4 0.0000 0.0000 0.0000 7.8618 0.0000 0.0000
# 5 0.0000 0.0000 0.0000 0.0000 6.3905 0.0000
# 6 0.0000 0.0000 0.0000 0.0000 0.0000 24.9066
#
#
#
# Elastic Compliance Matrix: (Units=1/GPa)
#
#
# Indices 1 2 3 4 5 6 
#
# 1 0.019804 -0.001918 -0.007938 0.000000 0.000000 0.000000
# 2 -0.001918 0.013885 -0.003394 0.000000 0.000000 0.000000
# 3 -0.007938 -0.003394 0.011182 0.000000 0.000000 0.000000
# 4 0.000000 0.000000 0.000000 0.127198 0.000000 0.000000
# 5 0.000000 0.000000 0.000000 0.000000 0.156483 0.000000
# 6 0.000000 0.000000 0.000000 0.000000 0.000000 0.040150
#
#
# Mechanical properties :
#
#
# Convention : Reuss Voigt Hill
#
# Bulk Modulus (GPa) = 54.43963 64.98665 59.71314
# Shear Modulus (GPa) = 12.45874 19.72314 16.09094
#
# Velocity S-wave (km/s) = 2.53926 3.19490 2.88576
# Velocity P-wave (km/s) = 6.06395 6.87333 6.48129
#
# Compressibility (1/GPa) = 0.01836897
#
# Stress axis : x y z
#
# Youngs Moduli (GPa) = 50.49571 72.02233 89.43224
#
# Poissons Ratio (x) = 0.13815 0.70995
# Poissons Ratio (y) = 0.09686 0.30353
# Poissons Ratio (z) = 0.40086 0.24444
#
# Static dielectric constant tensor:
#      x y z
#    x 3.271190 0.000000 0.000000 
#    y 0.000000 3.526900 0.000000 
#    z 0.000000 0.000000 3.729360 
# 
# 
# High freq. dielectric constant tensor:
#      x y z
#    x 1.733790 0.000000 0.000000 
#    y 0.000000 1.745710 0.000000 
#    z 0.000000 0.000000 1.757010 
# 
# From -- ./inp_files/70968.got.cif
#   From: 2010.03.12/outbox.cif.g09.slc.cpg/sg65_36_cif.got.tgz:70968.got - 2010.04.10 20:52:16.
