data_PCOD8272600
_publ_section_title
;
Structure prediction by ZEFSAII (Michael W. Deem and Ramdas Pophale) SiO2 
 PCOD8272600
Probable space group: C M M M
;
_chemical_formula_sum "Si O2"
_cell_formula_units_Z 80
_cell_length_a 13.692170
_cell_length_b 18.257444
_cell_length_c 18.586063
_cell_angle_alpha 90.000000
_cell_angle_beta 90.000000
_cell_angle_gamma 90.000000
_cell_volume 4646.218875
_symmetry_space_group_name_H-M "C M M M"
_symmetry_group_IT_number 65
_symmetry_cell_setting 'orthorhombic'
loop_
_space_group_symop_operation_xyz
x,y,z
-x,-y,z
x,-y,-z
-x,y,-z
-x,-y,-z
x,y,-z
-x,y,z
x,-y,z
1/2+x,1/2+y,z
1/2-x,1/2-y,z
1/2+x,1/2-y,-z
1/2-x,1/2+y,-z
1/2-x,1/2-y,-z
1/2+x,1/2+y,-z
1/2-x,1/2+y,z
1/2+x,1/2-y,z
loop_
_atom_site_type_symbol
_atom_site_label
_atom_site_fract_x
_atom_site_fract_y
_atom_site_fract_z
Si Si1 0.729602 0.332438 0.697681
Si Si2 0.247694 0.417290 0.917815
Si Si3 0.390340 0.585603 0.417175
Si Si4 0.111892 0.185888 0.164917
Si Si5 0.887388 0.646615 0.191591
O O1 0.750000 0.250000 0.672589
O O2 0.695097 0.376620 0.628316
O O3 0.643174 0.339317 0.755814
O O4 0.828419 0.364916 0.733701
O O5 0.288153 0.500000 0.908030
O O6 0.329159 0.358469 0.895213
O O7 0.150798 0.408941 0.869089
O O8 0.218297 0.402297 0.000000
O O9 0.368288 0.603406 0.500000
O O10 0.500000 0.613709 0.397413
O O11 0.384520 0.500000 0.402004
O O12 0.132563 0.272512 0.159171
O O13 0.000000 0.166578 0.152681
O O14 0.000000 0.631705 0.208471
#
# Coordination Sequence:
#
# PCOD8272600 Si02
#       5
#    16  16  16  16  16
#     4   9  17  30  50  74  99 124 156 198 239 281
#     4  10  21  34  47  68  98 127 157 197 242 287
#     4   9  18  32  50  74 103 131 158 191 234 284
#     4   9  18  33  52  72  94 122 156 196 242 290
#     4   9  19  35  52  70  93 124 163 202 238 279
#
# _framework density 17.218302000000001
#
# number of rings (size 3 to 8) (size 9 to 14) (size 15 to 20)
#    0.000    2.800    0.000    3.000    0.000    7.600 
#    0.000    4.000    0.000    0.600    0.000    1.400 
#    0.000    0.000    0.000    0.000    0.000    0.000 
#
# Total GULP energy -495887.217417 kJ/mol
# GULP energy per Si atom -12397.180435 kJ/mol
# Density = 1.717911 g / cm^3
# Si number density = 17.218302 Si / 1000 Ang^3
#
#
#
# Elastic Constant Matrix: (Units=GPa)
#
#
# Indices 1 2 3 4 5 6 
#
# 1 121.9390 40.5078 61.7276 0.0000 0.0000 0.0000
# 2 40.5078 55.5552 50.3362 0.0000 0.0000 0.0000
# 3 61.7276 50.3362 107.6574 0.0000 0.0000 0.0000
# 4 0.0000 0.0000 0.0000 28.4753 0.0000 0.0000
# 5 0.0000 0.0000 0.0000 0.0000 16.3447 0.0000
# 6 0.0000 0.0000 0.0000 0.0000 0.0000 23.0715
#
#
#
# Elastic Compliance Matrix: (Units=1/GPa)
#
#
# Indices 1 2 3 4 5 6 
#
# 1 0.012149 -0.004419 -0.004900 0.000000 0.000000 0.000000
# 2 -0.004419 0.032838 -0.012820 0.000000 0.000000 0.000000
# 3 -0.004900 -0.012820 0.018092 0.000000 0.000000 0.000000
# 4 0.000000 0.000000 0.000000 0.035118 0.000000 0.000000
# 5 0.000000 0.000000 0.000000 0.000000 0.061182 0.000000
# 6 0.000000 0.000000 0.000000 0.000000 0.000000 0.043343
#
#
# Mechanical properties :
#
#
# Convention : Reuss Voigt Hill
#
# Bulk Modulus (GPa) = 53.18661 65.58832 59.38747
# Shear Modulus (GPa) = 19.74197 22.41696 21.07946
#
# Velocity S-wave (km/s) = 3.38978 3.61214 3.50272
# Velocity P-wave (km/s) = 6.80275 7.45464 7.13614
#
# Compressibility (1/GPa) = 0.01880172
#
# Stress axis : x y z
#
# Youngs Moduli (GPa) = 82.31007 30.45276 55.27234
#
# Poissons Ratio (x) = 0.13457 0.27083
# Poissons Ratio (y) = 0.36372 0.70859
# Poissons Ratio (z) = 0.40331 0.39040
#
# Static dielectric constant tensor:
#      x y z
#    x 3.277840 0.000000 0.000000 
#    y 0.000000 3.180440 0.000000 
#    z 0.000000 0.000000 3.036870 
# 
# 
# High freq. dielectric constant tensor:
#      x y z
#    x 1.663510 0.000000 0.000000 
#    y 0.000000 1.658560 0.000000 
#    z 0.000000 0.000000 1.652770 
# 
# From -- ./inp_files/43893.got.cif
#   From: 2010.03.12/outbox.cif.g09.slc.cpg/sg65_22_cif.got.tgz:43893.got - 2010.04.10 20:52:16.
