data_PCOD8272087
_publ_section_title
;
Structure prediction by ZEFSAII (Michael W. Deem and Ramdas Pophale) SiO2 
 PCOD8272087
Probable space group: C M M M
;
_chemical_formula_sum "Si O2"
_cell_formula_units_Z 88
_cell_length_a 14.042004
_cell_length_b 18.112154
_cell_length_c 17.322824
_cell_angle_alpha 90.000000
_cell_angle_beta 90.000000
_cell_angle_gamma 90.000000
_cell_volume 4405.730093
_symmetry_space_group_name_H-M "C M M M"
_symmetry_group_IT_number 65
_symmetry_cell_setting 'orthorhombic'
loop_
_space_group_symop_operation_xyz
x,y,z
-x,-y,z
x,-y,-z
-x,y,-z
-x,-y,-z
x,y,-z
-x,y,z
x,-y,z
1/2+x,1/2+y,z
1/2-x,1/2-y,z
1/2+x,1/2-y,-z
1/2-x,1/2+y,-z
1/2-x,1/2-y,-z
1/2+x,1/2+y,-z
1/2-x,1/2+y,z
1/2+x,1/2-y,z
loop_
_atom_site_type_symbol
_atom_site_label
_atom_site_fract_x
_atom_site_fract_y
_atom_site_fract_z
Si Si1 0.110373 0.319557 0.791611
Si Si2 0.220412 0.669384 0.631451
Si Si3 0.605479 0.414046 0.314378
Si Si4 0.892842 0.155819 0.151254
Si Si5 0.715781 0.914638 0.086748
Si Si6 0.612731 0.914719 0.500000
O O1 0.172955 0.327888 0.715365
O O2 0.130398 0.239842 0.827531
O O3 0.140120 0.380767 0.853819
O O4 0.000000 0.330089 0.770165
O O5 0.250000 0.750000 0.601162
O O6 0.318918 0.625152 0.631387
O O7 0.148735 0.627989 0.575164
O O8 0.500000 0.387333 0.339537
O O9 0.617889 0.500000 0.326029
O O10 0.622209 0.394923 0.225557
O O11 0.817354 0.127379 0.088879
O O12 0.000000 0.148314 0.117990
O O13 0.730472 0.000000 0.108139
O O14 0.675448 0.905687 0.000000
O O15 0.500000 0.911278 0.500000
O O16 0.647599 0.000000 0.500000
#
# Coordination Sequence:
#
# PCOD8272087 Si02
#       6
#    16  16  16  16  16   8
#     4  11  23  40  64  90 119 160 208 255 305 365
#     4  12  22  41  68  95 124 160 206 257 306 367
#     4  10  20  35  60  92 123 154 193 246 306 367
#     4  10  20  37  60  89 120 154 200 253 309 369
#     4  11  24  40  58  86 124 163 207 258 309 364
#     4  11  27  46  63  91 131 173 212 253 298 352
#
# _framework density 19.973989
#
# number of rings (size 3 to 8) (size 9 to 14) (size 15 to 20)
#    0.000    1.182    3.636    2.455    0.000    5.091 
#    0.000    4.091    0.000    1.636    0.000    0.000 
#    0.000    0.000    0.000    0.000    0.000    0.000 
#
# Total GULP energy -545709.492190 kJ/mol
# GULP energy per Si atom -12402.488459 kJ/mol
# Density = 1.992853 g / cm^3
# Si number density = 19.973989 Si / 1000 Ang^3
#
#
#
# Elastic Constant Matrix: (Units=GPa)
#
#
# Indices 1 2 3 4 5 6 
#
# 1 110.0817 58.5084 27.9481 0.0000 0.0000 0.0000
# 2 58.5084 80.3161 47.1959 0.0000 0.0000 0.0000
# 3 27.9481 47.1959 68.4679 0.0000 0.0000 0.0000
# 4 0.0000 0.0000 0.0000 8.1962 0.0000 0.0000
# 5 0.0000 0.0000 0.0000 0.0000 21.2942 0.0000
# 6 0.0000 0.0000 0.0000 0.0000 0.0000 35.1183
#
#
#
# Elastic Compliance Matrix: (Units=1/GPa)
#
#
# Indices 1 2 3 4 5 6 
#
# 1 0.015050 -0.012361 0.002377 0.000000 0.000000 0.000000
# 2 -0.012361 0.031079 -0.016378 0.000000 0.000000 0.000000
# 3 0.002377 -0.016378 0.024925 0.000000 0.000000 0.000000
# 4 0.000000 0.000000 0.000000 0.122007 0.000000 0.000000
# 5 0.000000 0.000000 0.000000 0.000000 0.046961 0.000000
# 6 0.000000 0.000000 0.000000 0.000000 0.000000 0.028475
#
#
# Mechanical properties :
#
#
# Convention : Reuss Voigt Hill
#
# Bulk Modulus (GPa) = 54.55200 58.46339 56.50769
# Shear Modulus (GPa) = 15.27504 21.26929 18.27216
#
# Velocity S-wave (km/s) = 2.76841 3.26674 3.02784
# Velocity P-wave (km/s) = 6.13103 6.60016 6.36992
#
# Compressibility (1/GPa) = 0.01833114
#
# Stress axis : x y z
#
# Youngs Moduli (GPa) = 66.44380 32.17579 40.12078
#
# Poissons Ratio (x) = 0.39771 -0.09536
# Poissons Ratio (y) = 0.82128 0.65710
# Poissons Ratio (z) = -0.15793 0.52697
#
# Static dielectric constant tensor:
#      x y z
#    x 3.049750 0.000000 0.000000 
#    y 0.000000 3.825730 0.000000 
#    z 0.000000 0.000000 3.345280 
# 
# 
# High freq. dielectric constant tensor:
#      x y z
#    x 1.794780 0.000000 0.000000 
#    y 0.000000 1.795020 0.000000 
#    z 0.000000 0.000000 1.758430 
# 
# From -- ./inp_files/52973.got.cif
#   From: 2010.03.12/outbox.cif.g09.slc.cpg/sg65_27_cif.got.tgz:52973.got - 2010.04.10 20:52:16.
