data_PCOD8272673
_publ_section_title
;
Structure prediction by ZEFSAII (Michael W. Deem and Ramdas Pophale) SiO2 
 PCOD8272673
Probable space group: C M M M
;
_chemical_formula_sum "Si O2"
_cell_formula_units_Z 64
_cell_length_a 9.057526
_cell_length_b 15.754886
_cell_length_c 22.098506
_cell_angle_alpha 90.000000
_cell_angle_beta 90.000000
_cell_angle_gamma 90.000000
_cell_volume 3153.463205
_symmetry_space_group_name_H-M "C M M M"
_symmetry_group_IT_number 65
_symmetry_cell_setting 'orthorhombic'
loop_
_space_group_symop_operation_xyz
x,y,z
-x,-y,z
x,-y,-z
-x,y,-z
-x,-y,-z
x,y,-z
-x,y,z
x,-y,z
1/2+x,1/2+y,z
1/2-x,1/2-y,z
1/2+x,1/2-y,-z
1/2-x,1/2+y,-z
1/2-x,1/2-y,-z
1/2+x,1/2+y,-z
1/2-x,1/2+y,z
1/2+x,1/2-y,z
loop_
_atom_site_type_symbol
_atom_site_label
_atom_site_fract_x
_atom_site_fract_y
_atom_site_fract_z
Si Si1 0.328875 0.903712 0.757905
Si Si2 0.824826 0.662424 0.371524
Si Si3 0.169272 0.000000 0.428404
Si Si4 0.337139 0.400966 0.126955
Si Si5 0.676206 0.339294 0.000000
O O1 0.500000 0.904320 0.771989
O O2 0.290359 0.847628 0.699629
O O3 0.254129 0.861532 0.817240
O O4 0.273624 0.000000 0.745367
O O5 0.750000 0.750000 0.393929
O O6 0.753838 0.583877 0.406651
O O7 0.000000 0.664346 0.384477
O O8 0.171300 0.000000 0.500000
O O9 0.000000 0.000000 0.404294
O O10 0.500000 0.360065 0.129186
O O11 0.344128 0.500000 0.137629
O O12 0.265616 0.385047 0.060932
O O13 0.750000 0.250000 0.000000
O O14 0.500000 0.336302 0.000000
#
# Coordination Sequence:
#
# PCOD8272673 Si02
#       5
#    16  16   8  16   8
#     4   9  18  35  57  83 116 151 191 243 300 356
#     4  11  23  41  65  95 130 169 210 256 309 365
#     4  11  25  45  69  97 129 166 209 256 305 363
#     4   9  18  33  54  77 101 139 189 238 288 346
#     4  10  21  35  49  69 103 140 182 234 290 350
#
# _framework density 20.295147
#
# number of rings (size 3 to 8) (size 9 to 14) (size 15 to 20)
#    0.000    2.125    1.250    1.500    0.000    7.000 
#    0.000    5.000    0.000    3.750    0.000    0.000 
#    0.000    0.000    0.000    0.000    0.000    0.000 
#
# Total GULP energy -396664.945871 kJ/mol
# GULP energy per Si atom -12395.779558 kJ/mol
# Density = 2.024895 g / cm^3
# Si number density = 20.295147 Si / 1000 Ang^3
#
#
#
# Elastic Constant Matrix: (Units=GPa)
#
#
# Indices 1 2 3 4 5 6 
#
# 1 88.0648 53.3721 55.2630 0.0000 0.0000 0.0000
# 2 53.3721 106.9867 38.9759 0.0000 0.0000 0.0000
# 3 55.2630 38.9759 107.6393 0.0000 0.0000 0.0000
# 4 0.0000 0.0000 0.0000 7.2115 0.0000 0.0000
# 5 0.0000 0.0000 0.0000 0.0000 33.5144 0.0000
# 6 0.0000 0.0000 0.0000 0.0000 0.0000 31.4732
#
#
#
# Elastic Compliance Matrix: (Units=1/GPa)
#
#
# Indices 1 2 3 4 5 6 
#
# 1 0.020961 -0.007529 -0.008035 0.000000 0.000000 0.000000
# 2 -0.007529 0.013472 -0.001013 0.000000 0.000000 0.000000
# 3 -0.008035 -0.001013 0.013782 0.000000 0.000000 0.000000
# 4 0.000000 0.000000 0.000000 0.138668 0.000000 0.000000
# 5 0.000000 0.000000 0.000000 0.000000 0.029838 0.000000
# 6 0.000000 0.000000 0.000000 0.000000 0.000000 0.031773
#
#
# Mechanical properties :
#
#
# Convention : Reuss Voigt Hill
#
# Bulk Modulus (GPa) = 66.39674 66.43475 66.41574
# Shear Modulus (GPa) = 17.44181 24.77849 21.11015
#
# Velocity S-wave (km/s) = 2.93475 3.49794 3.22865
# Velocity P-wave (km/s) = 6.65359 7.00853 6.83336
#
# Compressibility (1/GPa) = 0.01506098
#
# Stress axis : x y z
#
# Youngs Moduli (GPa) = 47.70834 74.22816 72.55749
#
# Poissons Ratio (x) = 0.55889 0.58300
# Poissons Ratio (y) = 0.35921 0.07347
# Poissons Ratio (z) = 0.38334 0.07516
#
# Static dielectric constant tensor:
#      x y z
#    x 3.779850 0.000000 0.000000 
#    y 0.000000 3.511070 0.000000 
#    z 0.000000 0.000000 3.544110 
# 
# 
# High freq. dielectric constant tensor:
#      x y z
#    x 1.786860 0.000000 0.000000 
#    y 0.000000 1.781500 0.000000 
#    z 0.000000 0.000000 1.804220 
# 
# From -- ./inp_files/66758.got.cif
#   From: 2010.03.12/outbox.cif.g09.slc.cpg/sg65_34_cif.got.tgz:66758.got - 2010.04.10 20:52:16.
