data_PCOD8272799
_publ_section_title
;
Structure prediction by ZEFSAII (Michael W. Deem and Ramdas Pophale) SiO2 
 PCOD8272799
Probable space group: C M M M
;
_chemical_formula_sum "Si O2"
_cell_formula_units_Z 88
_cell_length_a 19.352449
_cell_length_b 7.786330
_cell_length_c 29.441015
_cell_angle_alpha 90.000000
_cell_angle_beta 90.000000
_cell_angle_gamma 90.000000
_cell_volume 4436.306221
_symmetry_space_group_name_H-M "C M M M"
_symmetry_group_IT_number 65
_symmetry_cell_setting 'orthorhombic'
loop_
_space_group_symop_operation_xyz
x,y,z
-x,-y,z
x,-y,-z
-x,y,-z
-x,-y,-z
x,y,-z
-x,y,z
x,-y,z
1/2+x,1/2+y,z
1/2-x,1/2-y,z
1/2+x,1/2-y,-z
1/2-x,1/2+y,-z
1/2-x,1/2-y,-z
1/2+x,1/2+y,-z
1/2-x,1/2+y,z
1/2+x,1/2-y,z
loop_
_atom_site_type_symbol
_atom_site_label
_atom_site_fract_x
_atom_site_fract_y
_atom_site_fract_z
Si Si1 0.079743 0.500000 0.053685
Si Si2 0.173610 0.797662 0.550339
Si Si3 0.671770 0.706144 0.096386
Si Si4 0.322138 0.692061 0.803025
Si Si5 0.422476 0.296447 0.371037
Si Si6 0.921957 0.698571 0.273391
O O1 0.117735 0.323314 0.068845
O O2 0.000000 0.500000 0.071646
O O3 0.080325 0.500000 0.000000
O O4 0.158578 0.720193 0.500000
O O5 0.250000 0.750000 0.566411
O O6 0.121426 0.717691 0.587317
O O7 0.164537 0.000000 0.548551
O O8 0.656616 0.500000 0.089675
O O9 0.750000 0.750000 0.080520
O O10 0.661995 0.778128 0.148337
O O11 0.311928 0.500000 0.817796
O O12 0.250000 0.750000 0.780509
O O13 0.381779 0.706339 0.766107
O O14 0.500000 0.223259 0.375890
O O15 0.421609 0.500000 0.372903
O O16 0.389835 0.235730 0.323123
O O17 0.918545 0.500000 0.261990
O O18 0.000000 0.769905 0.272980
#
# Coordination Sequence:
#
# PCOD8272799 Si02
#       6
#     8  16  16  16  16  16
#     4  11  26  44  64  96 135 171 211 265 321 371
#     4   9  18  32  50  72  96 125 163 209 265 325
#     4  10  21  41  67  95 126 166 215 263 311 374
#     4  10  21  36  59  86 115 148 188 237 286 335
#     4   9  18  33  51  70  98 134 173 220 265 315
#     4  10  21  35  52  77 109 146 184 223 272 332
#
# _framework density 19.836324000000001
#
# number of rings (size 3 to 8) (size 9 to 14) (size 15 to 20)
#    0.000    2.273    0.909    1.091    2.545    4.727 
#    0.000    6.364    0.000    0.000    0.000    5.091 
#    0.000    0.000    0.000    0.000    0.000    0.000 
#
# Total GULP energy -545308.900160 kJ/mol
# GULP energy per Si atom -12393.384095 kJ/mol
# Density = 1.979118 g / cm^3
# Si number density = 19.836324 Si / 1000 Ang^3
#
#
#
# Elastic Constant Matrix: (Units=GPa)
#
#
# Indices 1 2 3 4 5 6 
#
# 1 113.3300 32.7504 67.6767 0.0000 0.0000 0.0000
# 2 32.7504 68.0034 24.5211 0.0000 0.0000 0.0000
# 3 67.6767 24.5211 111.2146 0.0000 0.0000 0.0000
# 4 0.0000 0.0000 0.0000 22.7450 0.0000 0.0000
# 5 0.0000 0.0000 0.0000 0.0000 41.7644 0.0000
# 6 0.0000 0.0000 0.0000 0.0000 0.0000 27.3559
#
#
#
# Elastic Compliance Matrix: (Units=1/GPa)
#
#
# Indices 1 2 3 4 5 6 
#
# 1 0.014910 -0.004247 -0.008137 0.000000 0.000000 0.000000
# 2 -0.004247 0.017185 -0.001205 0.000000 0.000000 0.000000
# 3 -0.008137 -0.001205 0.014209 0.000000 0.000000 0.000000
# 4 0.000000 0.000000 0.000000 0.043966 0.000000 0.000000
# 5 0.000000 0.000000 0.000000 0.000000 0.023944 0.000000
# 6 0.000000 0.000000 0.000000 0.000000 0.000000 0.036555
#
#
# Mechanical properties :
#
#
# Convention : Reuss Voigt Hill
#
# Bulk Modulus (GPa) = 52.28202 60.27159 56.27681
# Shear Modulus (GPa) = 27.12673 29.54640 28.33657
#
# Velocity S-wave (km/s) = 3.70202 3.86360 3.78368
# Velocity P-wave (km/s) = 6.68485 7.09603 6.89351
#
# Compressibility (1/GPa) = 0.01912703
#
# Stress axis : x y z
#
# Youngs Moduli (GPa) = 67.06927 58.19112 70.37957
#
# Poissons Ratio (x) = 0.24712 0.57266
# Poissons Ratio (y) = 0.28482 0.08479
# Poissons Ratio (z) = 0.54573 0.07011
#
# Static dielectric constant tensor:
#      x y z
#    x 3.666460 0.000000 0.000000 
#    y 0.000000 3.533240 0.000000 
#    z 0.000000 0.000000 3.701420 
# 
# 
# High freq. dielectric constant tensor:
#      x y z
#    x 1.762610 0.000000 0.000000 
#    y 0.000000 1.773180 0.000000 
#    z 0.000000 0.000000 1.777950 
# 
# From -- ./inp_files/77843.got.cif
#   From: 2010.03.12/outbox.cif.g09.slc.cpg/sg65_39_cif.got.tgz:77843.got - 2010.04.10 20:52:16.
