data_PCOD8272245
_publ_section_title
;
Structure prediction by ZEFSAII (Michael W. Deem and Ramdas Pophale) SiO2 
 PCOD8272245
Probable space group: C M M M
;
_chemical_formula_sum "Si O2"
_cell_formula_units_Z 64
_cell_length_a 17.099780
_cell_length_b 18.252347
_cell_length_c 11.157847
_cell_angle_alpha 90.000000
_cell_angle_beta 90.000000
_cell_angle_gamma 90.000000
_cell_volume 3482.488104
_symmetry_space_group_name_H-M "C M M M"
_symmetry_group_IT_number 65
_symmetry_cell_setting 'orthorhombic'
loop_
_space_group_symop_operation_xyz
x,y,z
-x,-y,z
x,-y,-z
-x,y,-z
-x,-y,-z
x,y,-z
-x,y,z
x,-y,z
1/2+x,1/2+y,z
1/2-x,1/2-y,z
1/2+x,1/2-y,-z
1/2-x,1/2+y,-z
1/2-x,1/2-y,-z
1/2+x,1/2+y,-z
1/2-x,1/2+y,z
1/2+x,1/2-y,z
loop_
_atom_site_type_symbol
_atom_site_label
_atom_site_fract_x
_atom_site_fract_y
_atom_site_fract_z
Si Si1 0.000000 0.578349 0.638019
Si Si2 0.793551 0.083517 0.637414
Si Si3 0.409231 0.708463 0.361640
Si Si4 0.407029 0.085476 0.000000
Si Si5 0.355715 0.151764 0.753025
O O1 0.922548 0.621280 0.667678
O O2 0.000000 0.500000 0.707954
O O3 0.000000 0.562419 0.500000
O O4 0.765318 0.087443 0.500000
O O5 0.874512 0.127110 0.655333
O O6 0.727700 0.119486 0.719350
O O7 0.808106 0.000000 0.677627
O O8 0.399256 0.734127 0.500000
O O9 0.500000 0.706985 0.324433
O O10 0.359958 0.761096 0.272033
O O11 0.372438 0.129563 0.111419
O O12 0.500000 0.091612 0.000000
O O13 0.380973 0.000000 0.000000
#
# Coordination Sequence:
#
# PCOD8272245 Si02
#       5
#     8  16  16   8  16
#     4  11  20  29  49  79 110 141 169 208 267 332
#     4  10  21  36  56  83 114 146 182 228 280 334
#     4  10  20  36  58  83 112 146 183 227 279 334
#     4  11  22  36  53  76 112 156 191 227 272 326
#     4  12  21  35  55  79 111 145 185 228 274 325
#
# _framework density 18.377663999999999
#
# number of rings (size 3 to 8) (size 9 to 14) (size 15 to 20)
#    0.000    1.250    2.500    5.250    0.000    4.500 
#    0.000    5.000    0.000    0.000    0.000    0.000 
#    0.000    6.000    0.000    0.000    0.000    0.000 
#
# Total GULP energy -396797.198186 kJ/mol
# GULP energy per Si atom -12399.912443 kJ/mol
# Density = 1.833584 g / cm^3
# Si number density = 18.377664 Si / 1000 Ang^3
#
#
#
# Elastic Constant Matrix: (Units=GPa)
#
#
# Indices 1 2 3 4 5 6 
#
# 1 67.4669 59.6232 41.0888 0.0000 0.0000 0.0000
# 2 59.6232 139.4719 47.9158 0.0000 0.0000 0.0000
# 3 41.0888 47.9158 93.7836 0.0000 0.0000 0.0000
# 4 0.0000 0.0000 0.0000 9.8716 0.0000 0.0000
# 5 0.0000 0.0000 0.0000 0.0000 15.7565 0.0000
# 6 0.0000 0.0000 0.0000 0.0000 0.0000 33.3737
#
#
#
# Elastic Compliance Matrix: (Units=1/GPa)
#
#
# Indices 1 2 3 4 5 6 
#
# 1 0.027407 -0.009207 -0.007303 0.000000 0.000000 0.000000
# 2 -0.009207 0.011789 -0.001990 0.000000 0.000000 0.000000
# 3 -0.007303 -0.001990 0.014879 0.000000 0.000000 0.000000
# 4 0.000000 0.000000 0.000000 0.101300 0.000000 0.000000
# 5 0.000000 0.000000 0.000000 0.000000 0.063466 0.000000
# 6 0.000000 0.000000 0.000000 0.000000 0.000000 0.029964
#
#
# Mechanical properties :
#
#
# Convention : Reuss Voigt Hill
#
# Bulk Modulus (GPa) = 58.56498 66.44200 62.50349
# Shear Modulus (GPa) = 17.15281 21.93999 19.54640
#
# Velocity S-wave (km/s) = 3.05839 3.45895 3.26482
# Velocity P-wave (km/s) = 6.66396 7.22389 6.94957
#
# Compressibility (1/GPa) = 0.01707505
#
# Stress axis : x y z
#
# Youngs Moduli (GPa) = 36.48743 84.82212 67.20803
#
# Poissons Ratio (x) = 0.78096 0.49085
# Poissons Ratio (y) = 0.33594 0.13372
# Poissons Ratio (z) = 0.26648 0.16876
#
# Static dielectric constant tensor:
#      x y z
#    x 3.147140 0.000000 0.000000 
#    y 0.000000 3.663670 0.000000 
#    z 0.000000 0.000000 3.188480 
# 
# 
# High freq. dielectric constant tensor:
#      x y z
#    x 1.710300 0.000000 0.000000 
#    y 0.000000 1.724810 0.000000 
#    z 0.000000 0.000000 1.688320 
# 
# From -- ./inp_files/23967.got.cif
#   From: 2010.03.12/outbox.cif.g09.slc.cpg/sg65_12_cif.got.tgz:23967.got - 2010.04.10 20:52:16.
