data_PCOD8272207
_publ_section_title
;
Structure prediction by ZEFSAII (Michael W. Deem and Ramdas Pophale) SiO2 
 PCOD8272207
Probable space group: C M M M
;
_chemical_formula_sum "Si O2"
_cell_formula_units_Z 80
_cell_length_a 19.062185
_cell_length_b 8.972204
_cell_length_c 25.424938
_cell_angle_alpha 90.000000
_cell_angle_beta 90.000000
_cell_angle_gamma 90.000000
_cell_volume 4348.422379
_symmetry_space_group_name_H-M "C M M M"
_symmetry_group_IT_number 65
_symmetry_cell_setting 'orthorhombic'
loop_
_space_group_symop_operation_xyz
x,y,z
-x,-y,z
x,-y,-z
-x,y,-z
-x,-y,-z
x,y,-z
-x,y,z
x,-y,z
1/2+x,1/2+y,z
1/2-x,1/2-y,z
1/2+x,1/2-y,-z
1/2-x,1/2+y,-z
1/2-x,1/2-y,-z
1/2+x,1/2+y,-z
1/2-x,1/2+y,z
1/2+x,1/2-y,z
loop_
_atom_site_type_symbol
_atom_site_label
_atom_site_fract_x
_atom_site_fract_y
_atom_site_fract_z
Si Si1 0.920178 0.825095 0.203103
Si Si2 0.176273 0.823367 0.585212
Si Si3 0.082639 0.325384 0.500000
Si Si4 0.580044 0.824012 0.097172
Si Si5 0.825938 0.323238 0.000000
Si Si6 0.321299 0.674194 0.704967
O O1 0.890365 0.745847 0.151061
O O2 0.880467 0.768307 0.255083
O O3 0.000000 0.777717 0.212003
O O4 0.911122 0.000000 0.194973
O O5 0.250000 0.750000 0.568448
O O6 0.114373 0.751957 0.551496
O O7 0.157921 0.783155 0.645474
O O8 0.180595 0.000000 0.575315
O O9 0.100714 0.500000 0.500000
O O10 0.000000 0.296440 0.500000
O O11 0.500000 0.770614 0.086063
O O12 0.630324 0.768303 0.050581
O O13 0.582524 0.000000 0.102357
O O14 0.750000 0.250000 0.000000
O O15 0.817121 0.500000 0.000000
O O16 0.309770 0.500000 0.709874
O O17 0.250000 0.750000 0.722690
#
# Coordination Sequence:
#
# PCOD8272207 Si02
#       6
#    16  16   8  16   8  16
#     4   9  18  33  52  75 103 133 166 206 251 296
#     4  10  20  36  58  80 104 138 178 215 254 307
#     4  11  24  39  54  77 109 139 170 215 266 309
#     4   9  18  34  54  73  95 129 171 208 245 294
#     4  10  21  35  51  73 101 130 162 206 254 298
#     4   9  19  34  53  77 104 135 169 207 250 297
#
# _framework density 18.397476999999999
#
# number of rings (size 3 to 8) (size 9 to 14) (size 15 to 20)
#    0.000    2.500    0.000    1.500    0.000    6.000 
#    0.000    6.000    0.000    5.400    0.000    0.000 
#    0.000    0.000    0.000    0.000    0.000    0.000 
#
# Total GULP energy -496044.005640 kJ/mol
# GULP energy per Si atom -12401.100141 kJ/mol
# Density = 1.835560 g / cm^3
# Si number density = 18.397477 Si / 1000 Ang^3
#
#
#
# Elastic Constant Matrix: (Units=GPa)
#
#
# Indices 1 2 3 4 5 6 
#
# 1 118.8075 45.5206 90.8494 0.0000 0.0000 0.0000
# 2 45.5206 50.4180 45.4738 0.0000 0.0000 0.0000
# 3 90.8494 45.4738 154.0334 0.0000 0.0000 0.0000
# 4 0.0000 0.0000 0.0000 31.7722 0.0000 0.0000
# 5 0.0000 0.0000 0.0000 0.0000 4.8279 0.0000
# 6 0.0000 0.0000 0.0000 0.0000 0.0000 30.6172
#
#
#
# Elastic Compliance Matrix: (Units=1/GPa)
#
#
# Indices 1 2 3 4 5 6 
#
# 1 0.017930 -0.009064 -0.007900 0.000000 0.000000 0.000000
# 2 -0.009064 0.031614 -0.003987 0.000000 0.000000 0.000000
# 3 -0.007900 -0.003987 0.012328 0.000000 0.000000 0.000000
# 4 0.000000 0.000000 0.000000 0.031474 0.000000 0.000000
# 5 0.000000 0.000000 0.000000 0.000000 0.207130 0.000000
# 6 0.000000 0.000000 0.000000 0.000000 0.000000 0.032661
#
#
# Mechanical properties :
#
#
# Convention : Reuss Voigt Hill
#
# Bulk Modulus (GPa) = 50.07156 76.32740 63.19948
# Shear Modulus (GPa) = 13.09945 22.87115 17.98530
#
# Velocity S-wave (km/s) = 2.67127 3.52968 3.13004
# Velocity P-wave (km/s) = 6.06547 7.62821 6.89128
#
# Compressibility (1/GPa) = 0.01997142
#
# Stress axis : x y z
#
# Youngs Moduli (GPa) = 55.77136 31.63185 81.11361
#
# Poissons Ratio (x) = 0.28670 0.64076
# Poissons Ratio (y) = 0.50550 0.32341
# Poissons Ratio (z) = 0.44057 0.12612
#
# Static dielectric constant tensor:
#      x y z
#    x 3.488170 0.000000 0.000000 
#    y 0.000000 3.326740 0.000000 
#    z 0.000000 0.000000 3.682220 
# 
# 
# High freq. dielectric constant tensor:
#      x y z
#    x 1.707930 0.000000 0.000000 
#    y 0.000000 1.709450 0.000000 
#    z 0.000000 0.000000 1.726950 
# 
# From -- ./inp_files/70810.got.cif
#   From: 2010.03.12/outbox.cif.g09.slc.cpg/sg65_36_cif.got.tgz:70810.got - 2010.04.10 20:52:16.
