data_PCOD8272621
_publ_section_title
;
Structure prediction by ZEFSAII (Michael W. Deem and Ramdas Pophale) SiO2 
 PCOD8272621
Probable space group: C M M M
;
_chemical_formula_sum "Si O2"
_cell_formula_units_Z 104
_cell_length_a 27.436412
_cell_length_b 9.254806
_cell_length_c 23.103500
_cell_angle_alpha 90.000000
_cell_angle_beta 90.000000
_cell_angle_gamma 90.000000
_cell_volume 5866.410001
_symmetry_space_group_name_H-M "C M M M"
_symmetry_group_IT_number 65
_symmetry_cell_setting 'orthorhombic'
loop_
_space_group_symop_operation_xyz
x,y,z
-x,-y,z
x,-y,-z
-x,y,-z
-x,-y,-z
x,y,-z
-x,y,z
x,-y,z
1/2+x,1/2+y,z
1/2-x,1/2-y,z
1/2+x,1/2-y,-z
1/2-x,1/2+y,-z
1/2-x,1/2-y,-z
1/2+x,1/2+y,-z
1/2-x,1/2+y,z
1/2+x,1/2-y,z
loop_
_atom_site_type_symbol
_atom_site_label
_atom_site_fract_x
_atom_site_fract_y
_atom_site_fract_z
Si Si1 0.872975 0.165715 0.402951
Si Si2 0.444693 0.662110 0.223039
Si Si3 0.444881 0.672372 0.500000
Si Si4 0.698001 0.827892 0.822946
Si Si5 0.703715 0.657408 0.500000
Si Si6 0.617068 0.664588 0.889991
Si Si7 0.632760 0.831102 0.713541
Si Si8 0.943899 0.171841 0.000000
O O1 0.919037 0.226261 0.440504
O O2 0.826684 0.183932 0.442857
O O3 0.858013 0.258440 0.347736
O O4 0.882255 0.000000 0.384285
O O5 0.500000 0.711318 0.218223
O O6 0.439582 0.500000 0.248555
O O7 0.422587 0.669039 0.159835
O O8 0.419263 0.774574 0.265322
O O9 0.440592 0.500000 0.500000
O O10 0.500000 0.729568 0.500000
O O11 0.750000 0.750000 0.826657
O O12 0.663372 0.765070 0.873899
O O13 0.674633 0.790659 0.760245
O O14 0.703709 0.000000 0.831548
O O15 0.725522 0.500000 0.500000
O O16 0.750000 0.750000 0.500000
O O17 0.635732 0.500000 0.900196
O O18 0.587793 0.726163 0.945259
O O19 0.629707 0.000000 0.704373
O O20 0.000000 0.233403 0.000000
O O21 0.947468 0.000000 0.000000
#
# Coordination Sequence:
#
# PCOD8272621 Si02
#       8
#    16  16   8  16   8  16  16   8
#     4   9  18  33  51  72  98 125 158 201 243 290
#     4   9  17  30  49  72  99 134 171 202 237 287
#     4   8  15  30  52  73  93 124 165 203 239 283
#     4  10  21  37  55  74  99 133 172 213 258 305
#     4   9  19  34  51  71  95 124 156 193 240 290
#     4   9  17  31  52  78 107 136 169 209 250 294
#     4  10  21  34  49  73 102 129 160 204 255 301
#     4   9  16  28  52  85 114 139 170 209 250 293
#
# _framework density 17.728048000000001
#
# number of rings (size 3 to 8) (size 9 to 14) (size 15 to 20)
#    0.000    2.769    0.000    2.308    0.000    5.846 
#    0.000    6.538    0.000    2.308    0.000    0.000 
#    0.000    0.000    0.000    0.000    0.000    0.000 
#
# Total GULP energy -644493.246434 kJ/mol
# GULP energy per Si atom -12394.100893 kJ/mol
# Density = 1.768770 g / cm^3
# Si number density = 17.728048 Si / 1000 Ang^3
#
#
#
# Elastic Constant Matrix: (Units=GPa)
#
#
# Indices 1 2 3 4 5 6 
#
# 1 148.2535 64.0415 53.1172 0.0000 0.0000 0.0000
# 2 64.0415 79.4817 53.3671 0.0000 0.0000 0.0000
# 3 53.1172 53.3671 109.3159 0.0000 0.0000 0.0000
# 4 0.0000 0.0000 0.0000 22.3441 0.0000 0.0000
# 5 0.0000 0.0000 0.0000 0.0000 7.9972 0.0000
# 6 0.0000 0.0000 0.0000 0.0000 0.0000 27.7789
#
#
#
# Elastic Compliance Matrix: (Units=1/GPa)
#
#
# Indices 1 2 3 4 5 6 
#
# 1 0.010498 -0.007488 -0.001445 0.000000 0.000000 0.000000
# 2 -0.007488 0.024058 -0.008106 0.000000 0.000000 0.000000
# 3 -0.001445 -0.008106 0.013808 0.000000 0.000000 0.000000
# 4 0.000000 0.000000 0.000000 0.044755 0.000000 0.000000
# 5 0.000000 0.000000 0.000000 0.000000 0.125044 0.000000
# 6 0.000000 0.000000 0.000000 0.000000 0.000000 0.035999
#
#
# Mechanical properties :
#
#
# Convention : Reuss Voigt Hill
#
# Bulk Modulus (GPa) = 70.00975 75.34474 72.67725
# Shear Modulus (GPa) = 17.06483 22.72572 19.89527
#
# Velocity S-wave (km/s) = 3.10593 3.58426 3.35363
# Velocity P-wave (km/s) = 7.24148 7.72799 7.48869
#
# Compressibility (1/GPa) = 0.01428373
#
# Stress axis : x y z
#
# Youngs Moduli (GPa) = 95.25980 41.56667 72.42411
#
# Poissons Ratio (x) = 0.31125 0.10468
# Poissons Ratio (y) = 0.71329 0.58710
# Poissons Ratio (z) = 0.13768 0.33696
#
# Static dielectric constant tensor:
#      x y z
#    x 3.293460 0.000000 0.000000 
#    y 0.000000 3.263270 0.000000 
#    z 0.000000 0.000000 3.377940 
# 
# 
# High freq. dielectric constant tensor:
#      x y z
#    x 1.688400 0.000000 0.000000 
#    y 0.000000 1.666770 0.000000 
#    z 0.000000 0.000000 1.687040 
# 
# From -- ./inp_files/71903.got.cif
#   From: 2010.03.12/outbox.cif.g09.slc.cpg/sg65_36_cif.got.tgz:71903.got - 2010.04.10 20:52:16.
