data_PCOD8272325
_publ_section_title
;
Structure prediction by ZEFSAII (Michael W. Deem and Ramdas Pophale) SiO2 
 PCOD8272325
Probable space group: C M M M
;
_chemical_formula_sum "Si O2"
_cell_formula_units_Z 64
_cell_length_a 14.461128
_cell_length_b 13.900113
_cell_length_c 16.888646
_cell_angle_alpha 90.000000
_cell_angle_beta 90.000000
_cell_angle_gamma 90.000000
_cell_volume 3394.808912
_symmetry_space_group_name_H-M "C M M M"
_symmetry_group_IT_number 65
_symmetry_cell_setting 'orthorhombic'
loop_
_space_group_symop_operation_xyz
x,y,z
-x,-y,z
x,-y,-z
-x,y,-z
-x,-y,-z
x,y,-z
-x,y,z
x,-y,z
1/2+x,1/2+y,z
1/2-x,1/2-y,z
1/2+x,1/2-y,-z
1/2-x,1/2+y,-z
1/2-x,1/2-y,-z
1/2+x,1/2+y,-z
1/2-x,1/2+y,z
1/2+x,1/2-y,z
loop_
_atom_site_type_symbol
_atom_site_label
_atom_site_fract_x
_atom_site_fract_y
_atom_site_fract_z
Si Si1 0.105150 0.614622 0.000000
Si Si2 0.100215 0.108840 0.787696
Si Si3 0.795902 0.387774 0.156635
Si Si4 0.650193 0.776500 0.687768
Si Si5 0.500000 0.111278 0.406574
O O1 0.157622 0.654597 0.077505
O O2 0.108235 0.500000 0.000000
O O3 0.000000 0.652505 0.000000
O O4 0.185350 0.134663 0.846473
O O5 0.100290 0.176681 0.710372
O O6 0.000000 0.119806 0.831076
O O7 0.113439 0.000000 0.756619
O O8 0.816827 0.500000 0.164167
O O9 0.840952 0.337757 0.232052
O O10 0.750000 0.750000 0.650586
O O11 0.591788 0.836794 0.625140
O O12 0.500000 0.120836 0.500000
O O13 0.500000 0.000000 0.379758
#
# Coordination Sequence:
#
# PCOD8272325 Si02
#       5
#     8  16  16  16   8
#     4   9  18  30  46  75 116 154 188 235 286 336
#     4   9  17  32  54  77 103 140 190 238 276 327
#     4   9  18  32  52  80 110 144 189 237 286 339
#     4  10  20  36  60  84 112 152 193 232 282 351
#     4  11  24  40  61  92 124 150 184 238 299 351
#
# _framework density 18.852312999999999
#
# number of rings (size 3 to 8) (size 9 to 14) (size 15 to 20)
#    0.000    2.500    1.250    0.750    1.750    1.500 
#    0.000    6.250    0.000    5.250    0.000    0.000 
#    0.000    0.000    0.000    0.000    0.000    0.000 
#
# Total GULP energy -396605.591246 kJ/mol
# GULP energy per Si atom -12393.924726 kJ/mol
# Density = 1.880940 g / cm^3
# Si number density = 18.852313 Si / 1000 Ang^3
#
#
#
# Elastic Constant Matrix: (Units=GPa)
#
#
# Indices 1 2 3 4 5 6 
#
# 1 162.4272 51.2850 65.3957 0.0000 0.0000 0.0000
# 2 51.2850 75.5636 43.1582 0.0000 0.0000 0.0000
# 3 65.3957 43.1582 89.7799 0.0000 0.0000 0.0000
# 4 0.0000 0.0000 0.0000 17.8615 0.0000 0.0000
# 5 0.0000 0.0000 0.0000 0.0000 23.0563 0.0000
# 6 0.0000 0.0000 0.0000 0.0000 0.0000 27.4278
#
#
#
# Elastic Compliance Matrix: (Units=1/GPa)
#
#
# Indices 1 2 3 4 5 6 
#
# 1 0.009293 -0.003365 -0.005152 0.000000 0.000000 0.000000
# 2 -0.003365 0.019461 -0.006904 0.000000 0.000000 0.000000
# 3 -0.005152 -0.006904 0.018210 0.000000 0.000000 0.000000
# 4 0.000000 0.000000 0.000000 0.055986 0.000000 0.000000
# 5 0.000000 0.000000 0.000000 0.000000 0.043372 0.000000
# 6 0.000000 0.000000 0.000000 0.000000 0.000000 0.036459
#
#
# Mechanical properties :
#
#
# Convention : Reuss Voigt Hill
#
# Bulk Modulus (GPa) = 62.02491 71.93873 66.98182
# Shear Modulus (GPa) = 22.83139 24.86458 23.84798
#
# Velocity S-wave (km/s) = 3.48381 3.63563 3.56053
# Velocity P-wave (km/s) = 7.01102 7.47433 7.24638
#
# Compressibility (1/GPa) = 0.01612255
#
# Stress axis : x y z
#
# Youngs Moduli (GPa) = 107.60597 51.38494 54.91597
#
# Poissons Ratio (x) = 0.17291 0.28290
# Poissons Ratio (y) = 0.36209 0.37914
# Poissons Ratio (z) = 0.55434 0.35477
#
# Static dielectric constant tensor:
#      x y z
#    x 3.802530 0.000000 0.000000 
#    y 0.000000 3.692950 0.000000 
#    z 0.000000 0.000000 3.062490 
# 
# 
# High freq. dielectric constant tensor:
#      x y z
#    x 1.751950 0.000000 0.000000 
#    y 0.000000 1.746920 0.000000 
#    z 0.000000 0.000000 1.681620 
# 
# From -- ./inp_files/52658.got.cif
#   From: 2010.03.12/outbox.cif.g09.slc.cpg/sg65_27_cif.got.tgz:52658.got - 2010.04.10 20:52:16.
