data_PCOD8272748
_publ_section_title
;
Structure prediction by ZEFSAII (Michael W. Deem and Ramdas Pophale) SiO2 
 PCOD8272748
Probable space group: C M M M
;
_chemical_formula_sum "Si O2"
_cell_formula_units_Z 88
_cell_length_a 18.410736
_cell_length_b 9.264848
_cell_length_c 27.805395
_cell_angle_alpha 90.000000
_cell_angle_beta 90.000000
_cell_angle_gamma 90.000000
_cell_volume 4742.840482
_symmetry_space_group_name_H-M "C M M M"
_symmetry_group_IT_number 65
_symmetry_cell_setting 'orthorhombic'
loop_
_space_group_symop_operation_xyz
x,y,z
-x,-y,z
x,-y,-z
-x,y,-z
-x,-y,-z
x,y,-z
-x,y,z
x,-y,z
1/2+x,1/2+y,z
1/2-x,1/2-y,z
1/2+x,1/2-y,-z
1/2-x,1/2+y,-z
1/2-x,1/2-y,-z
1/2+x,1/2+y,-z
1/2-x,1/2+y,z
1/2+x,1/2-y,z
loop_
_atom_site_type_symbol
_atom_site_label
_atom_site_fract_x
_atom_site_fract_y
_atom_site_fract_z
Si Si1 0.674521 0.669405 0.721724
Si Si2 0.083503 0.331709 0.907803
Si Si3 0.325689 0.170389 0.000000
Si Si4 0.083268 0.830748 0.813333
Si Si5 0.677498 0.832598 0.443925
Si Si6 0.584169 0.666415 0.628028
O O1 0.689402 0.500000 0.723838
O O2 0.750000 0.750000 0.718095
O O3 0.631617 0.722343 0.768836
O O4 0.626639 0.711503 0.675848
O O5 0.093629 0.500000 0.897856
O O6 0.112210 0.248117 0.860988
O O7 0.000000 0.292988 0.918655
O O8 0.129819 0.279931 0.953262
O O9 0.250000 0.250000 0.000000
O O10 0.313033 0.000000 0.000000
O O11 0.000000 0.788007 0.802508
O O12 0.091161 0.000000 0.821757
O O13 0.662108 0.809489 0.500000
O O14 0.750000 0.750000 0.427405
O O15 0.609502 0.766145 0.415921
O O16 0.687017 0.000000 0.430817
O O17 0.500000 0.695787 0.637735
O O18 0.598453 0.500000 0.614421
#
# Coordination Sequence:
#
# PCOD8272748 Si02
#       6
#    16  16   8  16  16  16
#     4  10  21  36  54  77 106 139 174 213 259 311
#     4   9  18  34  55  76  99 131 171 211 252 301
#     4  10  21  35  51  73 103 136 168 208 256 302
#     4   9  18  34  55  77 102 133 169 210 256 305
#     4  10  21  37  57  81 110 143 178 218 265 316
#     4  10  21  37  57  80 107 141 180 221 265 314
#
# _framework density 18.554282000000001
#
# number of rings (size 3 to 8) (size 9 to 14) (size 15 to 20)
#    0.000    2.364    0.000    1.909    0.000    9.455 
#    0.000    5.455    0.000    6.000    0.000    0.000 
#    0.000    0.000    0.000    0.000    0.000    0.000 
#
# Total GULP energy -545788.138264 kJ/mol
# GULP energy per Si atom -12404.275870 kJ/mol
# Density = 1.851205 g / cm^3
# Si number density = 18.554282 Si / 1000 Ang^3
#
#
#
# Elastic Constant Matrix: (Units=GPa)
#
#
# Indices 1 2 3 4 5 6 
#
# 1 128.3584 56.1550 82.0549 0.0000 0.0000 0.0000
# 2 56.1550 64.5814 62.7012 0.0000 0.0000 0.0000
# 3 82.0549 62.7012 134.2182 0.0000 0.0000 0.0000
# 4 0.0000 0.0000 0.0000 32.7604 0.0000 0.0000
# 5 0.0000 0.0000 0.0000 0.0000 33.7698 0.0000
# 6 0.0000 0.0000 0.0000 0.0000 0.0000 34.2715
#
#
#
# Elastic Compliance Matrix: (Units=1/GPa)
#
#
# Indices 1 2 3 4 5 6 
#
# 1 0.014452 -0.007299 -0.005426 0.000000 0.000000 0.000000
# 2 -0.007299 0.032023 -0.010498 0.000000 0.000000 0.000000
# 3 -0.005426 -0.010498 0.015672 0.000000 0.000000 0.000000
# 4 0.000000 0.000000 0.000000 0.030525 0.000000 0.000000
# 5 0.000000 0.000000 0.000000 0.000000 0.029612 0.000000
# 6 0.000000 0.000000 0.000000 0.000000 0.000000 0.029179
#
#
# Mechanical properties :
#
#
# Convention : Reuss Voigt Hill
#
# Bulk Modulus (GPa) = 63.68436 80.99780 72.34108
# Shear Modulus (GPa) = 24.61346 28.57680 26.59513
#
# Velocity S-wave (km/s) = 3.64616 3.92876 3.79009
# Velocity P-wave (km/s) = 7.21968 8.02057 7.63064
#
# Compressibility (1/GPa) = 0.01570244
#
# Stress axis : x y z
#
# Youngs Moduli (GPa) = 69.19304 31.22779 63.80943
#
# Poissons Ratio (x) = 0.22793 0.34622
# Poissons Ratio (y) = 0.50503 0.66984
# Poissons Ratio (z) = 0.37543 0.32782
#
# Static dielectric constant tensor:
#      x y z
#    x 3.376880 0.000000 0.000000 
#    y 0.000000 3.348570 0.000000 
#    z 0.000000 0.000000 3.560900 
# 
# 
# High freq. dielectric constant tensor:
#      x y z
#    x 1.720230 0.000000 0.000000 
#    y 0.000000 1.713410 0.000000 
#    z 0.000000 0.000000 1.731790 
# 
# From -- ./inp_files/73212.got.cif
#   From: 2010.03.12/outbox.cif.g09.slc.cpg/sg65_37_cif.got.tgz:73212.got - 2010.04.10 20:52:16.
