data_PCOD8272951
_publ_section_title
;
Structure prediction by ZEFSAII (Michael W. Deem and Ramdas Pophale) SiO2 
 PCOD8272951
Probable space group: C M M M
;
_chemical_formula_sum "Si O2"
_cell_formula_units_Z 80
_cell_length_a 18.283360
_cell_length_b 9.378908
_cell_length_c 25.363157
_cell_angle_alpha 90.000000
_cell_angle_beta 90.000000
_cell_angle_gamma 90.000000
_cell_volume 4349.222203
_symmetry_space_group_name_H-M "C M M M"
_symmetry_group_IT_number 65
_symmetry_cell_setting 'orthorhombic'
loop_
_space_group_symop_operation_xyz
x,y,z
-x,-y,z
x,-y,-z
-x,y,-z
-x,-y,-z
x,y,-z
-x,y,z
x,-y,z
1/2+x,1/2+y,z
1/2-x,1/2-y,z
1/2+x,1/2-y,-z
1/2-x,1/2+y,-z
1/2-x,1/2-y,-z
1/2+x,1/2+y,-z
1/2-x,1/2+y,z
1/2+x,1/2-y,z
loop_
_atom_site_type_symbol
_atom_site_label
_atom_site_fract_x
_atom_site_fract_y
_atom_site_fract_z
Si Si1 0.913096 0.160603 0.942159
Si Si2 0.824975 0.333139 0.257557
Si Si3 0.177679 0.165121 0.561599
Si Si4 0.416048 0.167238 0.156679
Si Si5 0.584829 0.163505 0.638891
O O1 0.882258 0.260481 0.895770
O O2 0.000000 0.167500 0.942040
O O3 0.886169 0.000000 0.931399
O O4 0.884744 0.211737 0.000000
O O5 0.808114 0.500000 0.254362
O O6 0.750000 0.250000 0.261497
O O7 0.869379 0.280666 0.206478
O O8 0.872849 0.294842 0.308280
O O9 0.161988 0.183427 0.500000
O O10 0.250000 0.250000 0.579047
O O11 0.109278 0.232852 0.591834
O O12 0.187630 0.000000 0.577146
O O13 0.500000 0.213348 0.166327
O O14 0.409961 0.000000 0.148362
O O15 0.500000 0.189241 0.649980
O O16 0.600186 0.000000 0.622461
#
# Coordination Sequence:
#
# PCOD8272951 Si02
#       5
#    16  16  16  16  16
#     4   8  14  25  42  67  99 130 159 196 244 295
#     4  10  21  36  53  74 101 133 169 209 254 304
#     4  10  21  37  57  81 110 143 178 216 257 303
#     4   9  17  30  49  72  98 128 163 204 248 295
#     4  10  21  37  57  80 107 139 174 214 261 311
#
# _framework density 18.394093999999999
#
# number of rings (size 3 to 8) (size 9 to 14) (size 15 to 20)
#    0.000    2.600    0.000    2.400    0.000    8.000 
#    0.000    4.000    0.000    4.200    0.000    0.000 
#    0.000    0.000    0.000    0.000    0.000    0.000 
#
# Total GULP energy -496012.300224 kJ/mol
# GULP energy per Si atom -12400.307506 kJ/mol
# Density = 1.835223 g / cm^3
# Si number density = 18.394094 Si / 1000 Ang^3
#
#
#
# Elastic Constant Matrix: (Units=GPa)
#
#
# Indices 1 2 3 4 5 6 
#
# 1 99.8298 53.3149 63.1363 0.0000 0.0000 0.0000
# 2 53.3149 80.7946 66.3070 0.0000 0.0000 0.0000
# 3 63.1363 66.3070 122.9554 0.0000 0.0000 0.0000
# 4 0.0000 0.0000 0.0000 29.0007 0.0000 0.0000
# 5 0.0000 0.0000 0.0000 0.0000 14.9068 0.0000
# 6 0.0000 0.0000 0.0000 0.0000 0.0000 27.8831
#
#
#
# Elastic Compliance Matrix: (Units=1/GPa)
#
#
# Indices 1 2 3 4 5 6 
#
# 1 0.016901 -0.007230 -0.004779 0.000000 0.000000 0.000000
# 2 -0.007230 0.025297 -0.009930 0.000000 0.000000 0.000000
# 3 -0.004779 -0.009930 0.015942 0.000000 0.000000 0.000000
# 4 0.000000 0.000000 0.000000 0.034482 0.000000 0.000000
# 5 0.000000 0.000000 0.000000 0.000000 0.067084 0.000000
# 6 0.000000 0.000000 0.000000 0.000000 0.000000 0.035864
#
#
# Mechanical properties :
#
#
# Convention : Reuss Voigt Hill
#
# Bulk Modulus (GPa) = 70.11731 74.34404 72.23067
# Shear Modulus (GPa) = 20.47480 22.41288 21.44384
#
# Velocity S-wave (km/s) = 3.33996 3.49446 3.41809
# Velocity P-wave (km/s) = 7.28533 7.53570 7.41157
#
# Compressibility (1/GPa) = 0.01426181
#
# Stress axis : x y z
#
# Youngs Moduli (GPa) = 59.16745 39.52990 62.72758
#
# Poissons Ratio (x) = 0.28582 0.29980
# Poissons Ratio (y) = 0.42781 0.62285
# Poissons Ratio (z) = 0.28278 0.39251
#
# Static dielectric constant tensor:
#      x y z
#    x 3.162860 0.000000 0.000000 
#    y 0.000000 3.405490 0.000000 
#    z 0.000000 0.000000 3.679710 
# 
# 
# High freq. dielectric constant tensor:
#      x y z
#    x 1.689260 0.000000 0.000000 
#    y 0.000000 1.708970 0.000000 
#    z 0.000000 0.000000 1.727900 
# 
# From -- ./inp_files/72729.got.cif
#   From: 2010.03.12/outbox.cif.g09.slc.cpg/sg65_37_cif.got.tgz:72729.got - 2010.04.10 20:52:16.
