data_PCOD8272894
_publ_section_title
;
Structure prediction by ZEFSAII (Michael W. Deem and Ramdas Pophale) SiO2 
 PCOD8272894
Probable space group: C M M M
;
_chemical_formula_sum "Si O2"
_cell_formula_units_Z 104
_cell_length_a 26.492285
_cell_length_b 24.077528
_cell_length_c 9.072082
_cell_angle_alpha 90.000000
_cell_angle_beta 90.000000
_cell_angle_gamma 90.000000
_cell_volume 5786.797459
_symmetry_space_group_name_H-M "C M M M"
_symmetry_group_IT_number 65
_symmetry_cell_setting 'orthorhombic'
loop_
_space_group_symop_operation_xyz
x,y,z
-x,-y,z
x,-y,-z
-x,y,-z
-x,-y,-z
x,y,-z
-x,y,z
x,-y,z
1/2+x,1/2+y,z
1/2-x,1/2-y,z
1/2+x,1/2-y,-z
1/2-x,1/2+y,-z
1/2-x,1/2-y,-z
1/2+x,1/2+y,-z
1/2-x,1/2+y,z
1/2+x,1/2-y,z
loop_
_atom_site_type_symbol
_atom_site_label
_atom_site_fract_x
_atom_site_fract_y
_atom_site_fract_z
Si Si1 0.500000 0.566128 0.165611
Si Si2 0.622642 0.063995 0.675421
Si Si3 0.401973 0.436897 0.671955
Si Si4 0.211408 0.361438 0.668517
Si Si5 0.821876 0.152241 0.325606
Si Si6 0.441090 0.154579 0.827547
Si Si7 0.366705 0.766235 0.329926
O O1 0.500000 0.500000 0.174372
O O2 0.450249 0.588939 0.245802
O O3 0.500000 0.588581 0.000000
O O4 0.618009 0.071953 0.500000
O O5 0.676146 0.089149 0.733386
O O6 0.577229 0.097860 0.749895
O O7 0.618950 0.000000 0.722894
O O8 0.413669 0.432581 0.500000
O O9 0.391352 0.500000 0.720698
O O10 0.353044 0.402258 0.717601
O O11 0.221742 0.376660 0.500000
O O12 0.266204 0.355955 0.746633
O O13 0.183110 0.303359 0.686290
O O14 0.816794 0.160851 0.500000
O O15 0.851238 0.206259 0.264093
O O16 0.500000 0.162021 0.794969
O O17 0.412691 0.208462 0.763201
O O18 0.429518 0.150029 0.000000
O O19 0.384232 0.763062 0.500000
#
# Coordination Sequence:
#
# PCOD8272894 Si02
#       7
#     8  16  16  16  16  16  16
#     4   9  17  31  49  63  81 117 157 189 228 277
#     4   9  18  32  52  79 106 133 167 203 240 289
#     4   9  17  29  46  69  96 123 153 193 238 284
#     4   8  14  26  47  73 101 128 155 194 240 283
#     4   9  16  27  47  76 102 126 160 199 241 290
#     4  10  21  36  52  70  97 133 169 209 257 302
#     4   9  17  31  51  73  96 127 166 205 243 288
#
# _framework density 17.971943
#
# number of rings (size 3 to 8) (size 9 to 14) (size 15 to 20)
#    0.000    3.000    0.000    2.077    0.000    5.231 
#    1.385    5.385    0.000   11.077    0.000    4.308 
#    0.000    0.000    0.000    0.000    0.000    0.000 
#
# Total GULP energy -644610.353471 kJ/mol
# GULP energy per Si atom -12396.352951 kJ/mol
# Density = 1.793104 g / cm^3
# Si number density = 17.971943 Si / 1000 Ang^3
#
#
#
# Elastic Constant Matrix: (Units=GPa)
#
#
# Indices 1 2 3 4 5 6 
#
# 1 146.8923 65.5425 45.5435 0.0000 0.0000 0.0000
# 2 65.5425 98.2151 29.6046 0.0000 0.0000 0.0000
# 3 45.5435 29.6046 45.1415 0.0000 0.0000 0.0000
# 4 0.0000 0.0000 0.0000 11.0112 0.0000 0.0000
# 5 0.0000 0.0000 0.0000 0.0000 6.8704 0.0000
# 6 0.0000 0.0000 0.0000 0.0000 0.0000 17.1727
#
#
#
# Elastic Compliance Matrix: (Units=1/GPa)
#
#
# Indices 1 2 3 4 5 6 
#
# 1 0.011793 -0.005339 -0.008397 0.000000 0.000000 0.000000
# 2 -0.005339 0.015108 -0.004521 0.000000 0.000000 0.000000
# 3 -0.008397 -0.004521 0.033589 0.000000 0.000000 0.000000
# 4 0.000000 0.000000 0.000000 0.090816 0.000000 0.000000
# 5 0.000000 0.000000 0.000000 0.000000 0.145553 0.000000
# 6 0.000000 0.000000 0.000000 0.000000 0.000000 0.058232
#
#
# Mechanical properties :
#
#
# Convention : Reuss Voigt Hill
#
# Bulk Modulus (GPa) = 41.70854 63.51444 52.61149
# Shear Modulus (GPa) = 12.51258 16.98141 14.74699
#
# Velocity S-wave (km/s) = 2.64148 3.07723 2.86764
# Velocity P-wave (km/s) = 5.70624 6.93134 6.34841
#
# Compressibility (1/GPa) = 0.02397590
#
# Stress axis : x y z
#
# Youngs Moduli (GPa) = 84.79280 66.19225 29.77129
#
# Poissons Ratio (x) = 0.35341 0.24999
# Poissons Ratio (y) = 0.45272 0.13460
# Poissons Ratio (z) = 0.71200 0.29926
#
# Static dielectric constant tensor:
#      x y z
#    x 3.458260 0.000000 0.000000 
#    y 0.000000 3.330320 0.000000 
#    z 0.000000 0.000000 2.997040 
# 
# 
# High freq. dielectric constant tensor:
#      x y z
#    x 1.703480 0.000000 0.000000 
#    y 0.000000 1.691320 0.000000 
#    z 0.000000 0.000000 1.654910 
# 
# From -- ./inp_files/16516.got.cif
#   From: 2010.03.12/outbox.cif.g09.slc.cpg/sg65_9_cif.got.tgz:16516.got - 2010.04.10 20:52:16.
