data_PCOD8272026
_publ_section_title
;
Structure prediction by ZEFSAII (Michael W. Deem and Ramdas Pophale) SiO2 
 PCOD8272026
Probable space group: C M M M
;
_chemical_formula_sum "Si O2"
_cell_formula_units_Z 64
_cell_length_a 8.715220
_cell_length_b 18.525743
_cell_length_c 20.789678
_cell_angle_alpha 90.000000
_cell_angle_beta 90.000000
_cell_angle_gamma 90.000000
_cell_volume 3356.616711
_symmetry_space_group_name_H-M "C M M M"
_symmetry_group_IT_number 65
_symmetry_cell_setting 'orthorhombic'
loop_
_space_group_symop_operation_xyz
x,y,z
-x,-y,z
x,-y,-z
-x,y,-z
-x,-y,-z
x,y,-z
-x,y,z
x,-y,z
1/2+x,1/2+y,z
1/2-x,1/2-y,z
1/2+x,1/2-y,-z
1/2-x,1/2+y,-z
1/2-x,1/2-y,-z
1/2+x,1/2+y,-z
1/2-x,1/2+y,z
1/2+x,1/2-y,z
loop_
_atom_site_type_symbol
_atom_site_label
_atom_site_fract_x
_atom_site_fract_y
_atom_site_fract_z
Si Si1 0.819612 0.917613 0.500000
Si Si2 0.318491 0.669845 0.882825
Si Si3 0.821911 0.672191 0.755148
Si Si4 0.321892 0.828717 0.386579
Si Si5 0.321263 0.915062 0.000000
O O1 0.755254 0.882370 0.564119
O O2 0.000000 0.908607 0.500000
O O3 0.766602 0.000000 0.500000
O O4 0.500000 0.674614 0.886970
O O5 0.250000 0.750000 0.890700
O O6 0.266200 0.633865 0.814484
O O7 0.256789 0.617995 0.937557
O O8 0.750000 0.750000 0.747908
O O9 0.798515 0.636100 0.684918
O O10 0.000000 0.677717 0.773608
O O11 0.500000 0.820712 0.402855
O O12 0.250000 0.750000 0.393290
O O13 0.500000 0.895604 0.000000
O O14 0.291971 0.000000 0.000000
#
# Coordination Sequence:
#
# PCOD8272026 Si02
#       5
#     8  16  16  16   8
#     4  11  24  39  54  75 107 145 184 227 272 319
#     4  11  21  35  58  85 113 143 179 222 267 319
#     4   9  17  31  53  82 111 139 175 219 268 317
#     4  10  20  35  58  84 110 141 178 222 268 320
#     4  11  24  41  58  77 107 145 184 227 272 319
#
# _framework density 19.066817
#
# number of rings (size 3 to 8) (size 9 to 14) (size 15 to 20)
#    0.000    1.750    0.000    6.750    0.000    5.000 
#    0.000    1.250    0.000    1.500    0.000    0.000 
#    0.000    0.000    0.000    0.000    0.000    0.000 
#
# Total GULP energy -396656.817291 kJ/mol
# GULP energy per Si atom -12395.525540 kJ/mol
# Density = 1.902342 g / cm^3
# Si number density = 19.066817 Si / 1000 Ang^3
#
#
#
# Elastic Constant Matrix: (Units=GPa)
#
#
# Indices 1 2 3 4 5 6 
#
# 1 140.5291 64.1680 73.8634 0.0000 0.0000 0.0000
# 2 64.1680 83.1125 72.7524 0.0000 0.0000 0.0000
# 3 73.8634 72.7524 180.1433 0.0000 0.0000 0.0000
# 4 0.0000 0.0000 0.0000 -10.3289 0.0000 0.0000
# 5 0.0000 0.0000 0.0000 0.0000 45.4762 0.0000
# 6 0.0000 0.0000 0.0000 0.0000 0.0000 24.0605
#
#
#
# Elastic Compliance Matrix: (Units=1/GPa)
#
#
# Indices 1 2 3 4 5 6 
#
# 1 0.011325 -0.007238 -0.001721 0.000000 0.000000 0.000000
# 2 -0.007238 0.023237 -0.006417 0.000000 0.000000 0.000000
# 3 -0.001721 -0.006417 0.008848 0.000000 0.000000 0.000000
# 4 0.000000 0.000000 0.000000 -0.096816 0.000000 0.000000
# 5 0.000000 0.000000 0.000000 0.000000 0.021990 0.000000
# 6 0.000000 0.000000 0.000000 0.000000 0.000000 0.041562
#
#
# Mechanical properties :
#
#
# Convention : Reuss Voigt Hill
#
# Bulk Modulus (GPa) = 78.98900 91.70585 85.34742
# Shear Modulus (GPa) = 110.82722 24.70830 67.76776
#
# Velocity S-wave (km/s) = 7.63229 3.60374 5.96820
# Velocity P-wave (km/s) = 10.91726 8.09428 9.60999
#
# Compressibility (1/GPa) = 0.01265999
#
# Stress axis : x y z
#
# Youngs Moduli (GPa) = 88.29909 43.03561 113.01874
#
# Poissons Ratio (x) = 0.31147 0.19447
# Poissons Ratio (y) = 0.63907 0.72521
# Poissons Ratio (z) = 0.15193 0.27615
#
# Static dielectric constant tensor:
#      x y z
#    x 3.732190 0.000000 0.000000 
#    y 0.000000 3.139970 0.000000 
#    z 0.000000 0.000000 4.560680 
# 
# 
# High freq. dielectric constant tensor:
#      x y z
#    x 1.764170 0.000000 0.000000 
#    y 0.000000 1.696370 0.000000 
#    z 0.000000 0.000000 1.772280 
# 
# From -- ./inp_files/58825.got.cif
#   From: 2010.03.12/outbox.cif.g09.slc.cpg/sg65_30_cif.got.tgz:58825.got - 2010.04.10 20:52:16.
