data_PCOD8272167
_publ_section_title
;
Structure prediction by ZEFSAII (Michael W. Deem and Ramdas Pophale) SiO2 
 PCOD8272167
Probable space group: C M M M
;
_chemical_formula_sum "Si O2"
_cell_formula_units_Z 112
_cell_length_a 15.308517
_cell_length_b 14.609972
_cell_length_c 23.380732
_cell_angle_alpha 90.000000
_cell_angle_beta 90.000000
_cell_angle_gamma 90.000000
_cell_volume 5229.264488
_symmetry_space_group_name_H-M "C M M M"
_symmetry_group_IT_number 65
_symmetry_cell_setting 'orthorhombic'
loop_
_space_group_symop_operation_xyz
x,y,z
-x,-y,z
x,-y,-z
-x,y,-z
-x,-y,-z
x,y,-z
-x,y,z
x,-y,z
1/2+x,1/2+y,z
1/2-x,1/2-y,z
1/2+x,1/2-y,-z
1/2-x,1/2+y,-z
1/2-x,1/2-y,-z
1/2+x,1/2+y,-z
1/2-x,1/2+y,z
1/2+x,1/2-y,z
loop_
_atom_site_type_symbol
_atom_site_label
_atom_site_fract_x
_atom_site_fract_y
_atom_site_fract_z
Si Si1 0.830779 0.601833 0.871256
Si Si2 0.775219 0.390771 0.338116
Si Si3 0.594525 0.891484 0.755407
Si Si4 0.365468 0.602668 0.161461
Si Si5 0.096797 0.891369 0.287725
Si Si6 0.098030 0.391135 0.435888
Si Si7 0.097341 0.241283 0.936743
O O1 0.853511 0.500000 0.894478
O O2 0.895960 0.636236 0.821661
O O3 0.738103 0.601455 0.840790
O O4 0.836504 0.675691 0.921871
O O5 0.776051 0.500000 0.338749
O O6 0.830853 0.349790 0.285100
O O7 0.674703 0.355033 0.329976
O O8 0.824080 0.353104 0.395074
O O9 0.500000 0.856026 0.734017
O O10 0.600330 0.000000 0.750789
O O11 0.403537 0.500000 0.155922
O O12 0.392750 0.646646 0.222706
O O13 0.401496 0.659205 0.108233
O O14 0.000000 0.863554 0.311101
O O15 0.106376 0.000000 0.283907
O O16 0.117302 0.355385 0.500000
O O17 0.099443 0.500000 0.434492
O O18 0.000000 0.358899 0.416635
O O19 0.000000 0.282627 0.937819
O O20 0.123266 0.204540 0.000000
#
# Coordination Sequence:
#
# PCOD8272167 Si02
#       7
#    16  16  16  16  16  16  16
#     4  10  20  36  57  80 107 137 173 219 270 329
#     4   9  14  22  37  60  88 122 169 216 258 310
#     4   9  15  24  42  68  96 126 161 205 257 312
#     4  10  20  37  59  80 103 133 176 230 283 331
#     4   9  16  27  45  68  93 123 164 218 277 327
#     4   8  13  20  31  52  87 131 174 215 261 313
#     4  11  25  41  56  78 107 141 181 220 267 332
#
# _framework density 21.417926000000001
#
# number of rings (size 3 to 8) (size 9 to 14) (size 15 to 20)
#    0.000    2.571    1.429    2.143    0.000    5.143 
#    0.000    2.857    0.000    0.429    0.000    3.000 
#    0.000    0.000    0.000    2.571    0.000   16.286 
#
# Total GULP energy -693870.682299 kJ/mol
# GULP energy per Si atom -12390.547898 kJ/mol
# Density = 2.136918 g / cm^3
# Si number density = 21.417926 Si / 1000 Ang^3
#
#
#
# Elastic Constant Matrix: (Units=GPa)
#
#
# Indices 1 2 3 4 5 6 
#
# 1 154.8424 11.4587 74.6921 0.0000 0.0000 0.0000
# 2 11.4587 34.4401 22.4732 0.0000 0.0000 0.0000
# 3 74.6921 22.4732 130.8401 0.0000 0.0000 0.0000
# 4 0.0000 0.0000 0.0000 10.7714 0.0000 0.0000
# 5 0.0000 0.0000 0.0000 0.0000 29.7427 0.0000
# 6 0.0000 0.0000 0.0000 0.0000 0.0000 10.7044
#
#
#
# Elastic Compliance Matrix: (Units=1/GPa)
#
#
# Indices 1 2 3 4 5 6 
#
# 1 0.008917 0.000400 -0.005159 0.000000 0.000000 0.000000
# 2 0.000400 0.032719 -0.005848 0.000000 0.000000 0.000000
# 3 -0.005159 -0.005848 0.011593 0.000000 0.000000 0.000000
# 4 0.000000 0.000000 0.000000 0.092838 0.000000 0.000000
# 5 0.000000 0.000000 0.000000 0.000000 0.033622 0.000000
# 6 0.000000 0.000000 0.000000 0.000000 0.000000 0.093420
#
#
# Mechanical properties :
#
#
# Convention : Reuss Voigt Hill
#
# Bulk Modulus (GPa) = 31.23666 59.70785 45.47226
# Shear Modulus (GPa) = 16.39372 24.34360 20.36866
#
# Velocity S-wave (km/s) = 2.76962 3.37501 3.08719
# Velocity P-wave (km/s) = 4.98435 6.56701 5.82964
#
# Compressibility (1/GPa) = 0.03201366
#
# Stress axis : x y z
#
# Youngs Moduli (GPa) = 112.14185 30.56341 86.26209
#
# Poissons Ratio (x) = -0.01221 0.44504
# Poissons Ratio (y) = -0.04481 0.50446
# Poissons Ratio (z) = 0.57856 0.17873
#
# Static dielectric constant tensor:
#      x y z
#    x 4.192070 0.000000 0.000000 
#    y 0.000000 3.371260 0.000000 
#    z 0.000000 0.000000 3.909290 
# 
# 
# High freq. dielectric constant tensor:
#      x y z
#    x 1.853850 0.000000 0.000000 
#    y 0.000000 1.798110 0.000000 
#    z 0.000000 0.000000 1.817370 
# 
# From -- ./inp_files/70058.got.cif
#   From: 2010.03.12/outbox.cif.g09.slc.cpg/sg65_36_cif.got.tgz:70058.got - 2010.04.10 20:52:16.
