data_PCOD8272679
_publ_section_title
;
Structure prediction by ZEFSAII (Michael W. Deem and Ramdas Pophale) SiO2 
 PCOD8272679
Probable space group: C M M M
;
_chemical_formula_sum "Si O2"
_cell_formula_units_Z 72
_cell_length_a 30.690797
_cell_length_b 12.019398
_cell_length_c 11.508283
_cell_angle_alpha 90.000000
_cell_angle_beta 90.000000
_cell_angle_gamma 90.000000
_cell_volume 4245.231871
_symmetry_space_group_name_H-M "C M M M"
_symmetry_group_IT_number 65
_symmetry_cell_setting 'orthorhombic'
loop_
_space_group_symop_operation_xyz
x,y,z
-x,-y,z
x,-y,-z
-x,y,-z
-x,-y,-z
x,y,-z
-x,y,z
x,-y,z
1/2+x,1/2+y,z
1/2-x,1/2-y,z
1/2+x,1/2-y,-z
1/2-x,1/2+y,-z
1/2-x,1/2-y,-z
1/2+x,1/2+y,-z
1/2-x,1/2+y,z
1/2+x,1/2-y,z
loop_
_atom_site_type_symbol
_atom_site_label
_atom_site_fract_x
_atom_site_fract_y
_atom_site_fract_z
Si Si1 0.202096 0.728201 0.361802
Si Si2 0.879656 0.129338 0.363346
Si Si3 0.066083 0.500000 0.637068
Si Si4 0.548677 0.777334 0.240603
Si Si5 0.164806 0.500000 0.361951
Si Si6 0.551712 0.874919 0.000000
O O1 0.204475 0.725656 0.500000
O O2 0.250000 0.750000 0.309152
O O3 0.166878 0.820660 0.322712
O O4 0.187929 0.609048 0.311276
O O5 0.886433 0.149629 0.500000
O O6 0.919280 0.188715 0.298452
O O7 0.879870 0.000000 0.330902
O O8 0.061276 0.500000 0.500000
O O9 0.043665 0.610218 0.685311
O O10 0.115563 0.500000 0.680476
O O11 0.500000 0.724843 0.233253
O O12 0.567365 0.807303 0.113230
O O13 0.166913 0.500000 0.500000
O O14 0.500000 0.885022 0.000000
O O15 0.571656 0.000000 0.000000
#
# Coordination Sequence:
#
# PCOD8272679 Si02
#       6
#    16  16   8  16   8   8
#     4   9  17  28  45  69  99 135 169 203 246 300
#     4  10  21  35  49  71 106 142 174 208 250 306
#     4  11  19  29  47  76 110 135 161 203 254 305
#     4  11  21  34  52  73 100 134 173 212 255 302
#     4   9  16  27  43  67 100 130 162 203 242 290
#     4   9  18  34  53  75  98 125 165 219 268 303
#
# _framework density 16.960204999999998
#
# number of rings (size 3 to 8) (size 9 to 14) (size 15 to 20)
#    0.000    2.111    3.333    1.000    1.556    2.667 
#    0.000    1.667    0.000    2.000    0.000    0.778 
#    0.000    0.000    0.000    0.000    0.000    0.000 
#
# Total GULP energy -446304.979277 kJ/mol
# GULP energy per Si atom -12397.360535 kJ/mol
# Density = 1.692160 g / cm^3
# Si number density = 16.960205 Si / 1000 Ang^3
#
#
#
# Elastic Constant Matrix: (Units=GPa)
#
#
# Indices 1 2 3 4 5 6 
#
# 1 128.3975 65.2944 32.0216 0.0000 0.0000 0.0000
# 2 65.2944 136.3923 37.7748 0.0000 0.0000 0.0000
# 3 32.0216 37.7748 65.2379 0.0000 0.0000 0.0000
# 4 0.0000 0.0000 0.0000 18.3672 0.0000 0.0000
# 5 0.0000 0.0000 0.0000 0.0000 1.3432 0.0000
# 6 0.0000 0.0000 0.0000 0.0000 0.0000 25.6362
#
#
#
# Elastic Compliance Matrix: (Units=1/GPa)
#
#
# Indices 1 2 3 4 5 6 
#
# 1 0.010685 -0.004362 -0.002719 0.000000 0.000000 0.000000
# 2 -0.004362 0.010513 -0.003946 0.000000 0.000000 0.000000
# 3 -0.002719 -0.003946 0.018948 0.000000 0.000000 0.000000
# 4 0.000000 0.000000 0.000000 0.054445 0.000000 0.000000
# 5 0.000000 0.000000 0.000000 0.000000 0.744475 0.000000
# 6 0.000000 0.000000 0.000000 0.000000 0.000000 0.039007
#
#
# Mechanical properties :
#
#
# Convention : Reuss Voigt Hill
#
# Bulk Modulus (GPa) = 55.27448 66.68994 60.98221
# Shear Modulus (GPa) = 5.51781 22.06509 13.79145
#
# Velocity S-wave (km/s) = 1.80567 3.61084 2.85470
# Velocity P-wave (km/s) = 6.08348 7.53598 6.84835
#
# Compressibility (1/GPa) = 0.01809153
#
# Stress axis : x y z
#
# Youngs Moduli (GPa) = 93.59283 95.12081 52.77603
#
# Poissons Ratio (x) = 0.41492 0.14348
# Poissons Ratio (y) = 0.40825 0.20827
# Poissons Ratio (z) = 0.25445 0.37537
#
# Static dielectric constant tensor:
#      x y z
#    x 3.323610 0.000000 0.000000 
#    y 0.000000 3.242870 0.000000 
#    z 0.000000 0.000000 2.936050 
# 
# 
# High freq. dielectric constant tensor:
#      x y z
#    x 1.657510 0.000000 0.000000 
#    y 0.000000 1.655200 0.000000 
#    z 0.000000 0.000000 1.607090 
# 
# From -- ./inp_files/33452.got.cif
#   From: 2010.03.12/outbox.cif.g09.slc.cpg/sg65_17_cif.got.tgz:33452.got - 2010.04.10 20:52:16.
