data_PCOD8272615
_publ_section_title
;
Structure prediction by ZEFSAII (Michael W. Deem and Ramdas Pophale) SiO2 
 PCOD8272615
Probable space group: C M M M
;
_chemical_formula_sum "Si O2"
_cell_formula_units_Z 72
_cell_length_a 25.497977
_cell_length_b 17.000752
_cell_length_c 9.191539
_cell_angle_alpha 90.000000
_cell_angle_beta 90.000000
_cell_angle_gamma 90.000000
_cell_volume 3984.392293
_symmetry_space_group_name_H-M "C M M M"
_symmetry_group_IT_number 65
_symmetry_cell_setting 'orthorhombic'
loop_
_space_group_symop_operation_xyz
x,y,z
-x,-y,z
x,-y,-z
-x,y,-z
-x,-y,-z
x,y,-z
-x,y,z
x,-y,z
1/2+x,1/2+y,z
1/2-x,1/2-y,z
1/2+x,1/2-y,-z
1/2-x,1/2+y,-z
1/2-x,1/2-y,-z
1/2+x,1/2+y,-z
1/2-x,1/2+y,z
1/2+x,1/2-y,z
loop_
_atom_site_type_symbol
_atom_site_label
_atom_site_fract_x
_atom_site_fract_y
_atom_site_fract_z
Si Si1 0.000000 0.592862 0.328501
Si Si2 0.558216 0.629482 0.162177
Si Si3 0.692409 0.731889 0.172193
Si Si4 0.151723 0.912684 0.335528
Si Si5 0.414491 0.193664 0.167679
O O1 0.053541 0.629909 0.262067
O O2 0.000000 0.500000 0.294342
O O3 0.000000 0.609373 0.500000
O O4 0.500000 0.596264 0.176462
O O5 0.591617 0.584322 0.282746
O O6 0.557482 0.722971 0.188461
O O7 0.580719 0.612684 0.000000
O O8 0.750000 0.750000 0.234425
O O9 0.682488 0.644944 0.230441
O O10 0.646818 0.794451 0.219970
O O11 0.692249 0.727301 0.000000
O O12 0.153942 0.881081 0.500000
O O13 0.176106 0.000000 0.325087
O O14 0.416346 0.165728 0.000000
#
# Coordination Sequence:
#
# PCOD8272615 Si02
#       5
#     8  16  16  16  16
#     4  11  23  35  49  75 110 145 180 219 267 322
#     4   9  17  31  51  74 100 133 173 212 251 299
#     4   9  19  37  60  82 102 131 177 227 269 318
#     4  10  21  34  48  73 108 140 170 206 252 307
#     4   9  17  33  55  77 102 132 171 217 265 315
#
# _framework density 18.070509999999999
#
# number of rings (size 3 to 8) (size 9 to 14) (size 15 to 20)
#    0.000    2.556    1.111    2.333    0.000    7.556 
#    0.000    3.333    0.000    6.667    0.000    0.000 
#    0.000    0.000    0.000    0.000    0.000    0.000 
#
# Total GULP energy -446092.401865 kJ/mol
# GULP energy per Si atom -12391.455607 kJ/mol
# Density = 1.802938 g / cm^3
# Si number density = 18.070510 Si / 1000 Ang^3
#
#
#
# Elastic Constant Matrix: (Units=GPa)
#
#
# Indices 1 2 3 4 5 6 
#
# 1 135.4555 42.6860 30.4746 0.0000 0.0000 0.0000
# 2 42.6860 82.8032 33.0997 0.0000 0.0000 0.0000
# 3 30.4746 33.0997 40.5913 0.0000 0.0000 0.0000
# 4 0.0000 0.0000 0.0000 24.6891 0.0000 0.0000
# 5 0.0000 0.0000 0.0000 0.0000 6.5511 0.0000
# 6 0.0000 0.0000 0.0000 0.0000 0.0000 11.3569
#
#
#
# Elastic Compliance Matrix: (Units=1/GPa)
#
#
# Indices 1 2 3 4 5 6 
#
# 1 0.009357 -0.002990 -0.004586 0.000000 0.000000 0.000000
# 2 -0.002990 0.018873 -0.013145 0.000000 0.000000 0.000000
# 3 -0.004586 -0.013145 0.038798 0.000000 0.000000 0.000000
# 4 0.000000 0.000000 0.000000 0.040504 0.000000 0.000000
# 5 0.000000 0.000000 0.000000 0.000000 0.152646 0.000000
# 6 0.000000 0.000000 0.000000 0.000000 0.000000 0.088052
#
#
# Mechanical properties :
#
#
# Convention : Reuss Voigt Hill
#
# Bulk Modulus (GPa) = 39.08566 52.37451 45.73009
# Shear Modulus (GPa) = 12.55651 18.69205 15.62428
#
# Velocity S-wave (km/s) = 2.63888 3.21969 2.94365
# Velocity P-wave (km/s) = 5.56430 6.54738 6.07576
#
# Compressibility (1/GPa) = 0.02558483
#
# Stress axis : x y z
#
# Youngs Moduli (GPa) = 106.87639 52.98665 25.77463
#
# Poissons Ratio (x) = 0.15843 0.11821
# Poissons Ratio (y) = 0.31957 0.33880
# Poissons Ratio (z) = 0.49018 0.69649
#
# Static dielectric constant tensor:
#      x y z
#    x 3.666540 0.000000 0.000000 
#    y 0.000000 3.141290 0.000000 
#    z 0.000000 0.000000 3.305110 
# 
# 
# High freq. dielectric constant tensor:
#      x y z
#    x 1.696480 0.000000 0.000000 
#    y 0.000000 1.681870 0.000000 
#    z 0.000000 0.000000 1.694990 
# 
# From -- ./inp_files/9455.got.cif
#   From: 2010.03.12/outbox.cif.g09.slc.cpg/sg65_5_cif.got.tgz:9455.got - 2010.04.10 20:52:16.
