data_PCOD8272514
_publ_section_title
;
Structure prediction by ZEFSAII (Michael W. Deem and Ramdas Pophale) SiO2 
 PCOD8272514
Probable space group: C M M M
;
_chemical_formula_sum "Si O2"
_cell_formula_units_Z 104
_cell_length_a 21.423032
_cell_length_b 25.067334
_cell_length_c 9.575198
_cell_angle_alpha 90.000000
_cell_angle_beta 90.000000
_cell_angle_gamma 90.000000
_cell_volume 5142.056537
_symmetry_space_group_name_H-M "C M M M"
_symmetry_group_IT_number 65
_symmetry_cell_setting 'orthorhombic'
loop_
_space_group_symop_operation_xyz
x,y,z
-x,-y,z
x,-y,-z
-x,y,-z
-x,-y,-z
x,y,-z
-x,y,z
x,-y,z
1/2+x,1/2+y,z
1/2-x,1/2-y,z
1/2+x,1/2-y,-z
1/2-x,1/2+y,-z
1/2-x,1/2-y,-z
1/2+x,1/2+y,-z
1/2-x,1/2+y,z
1/2+x,1/2-y,z
loop_
_atom_site_type_symbol
_atom_site_label
_atom_site_fract_x
_atom_site_fract_y
_atom_site_fract_z
Si Si1 0.112155 0.384144 0.660982
Si Si2 0.186603 0.217119 0.158966
Si Si3 0.245091 0.872875 0.339273
Si Si4 0.174826 0.061859 0.152670
Si Si5 0.929145 0.500000 0.665166
Si Si6 0.931208 0.063559 0.345544
Si Si7 0.929912 0.710542 0.160978
O O1 0.090086 0.381343 0.500000
O O2 0.182073 0.361271 0.675842
O O3 0.105215 0.445442 0.716464
O O4 0.070467 0.344502 0.752258
O O5 0.250000 0.250000 0.167679
O O6 0.198500 0.168425 0.263571
O O7 0.124881 0.249151 0.211731
O O8 0.175599 0.197561 0.000000
O O9 0.225429 0.877702 0.500000
O O10 0.233360 0.927986 0.255475
O O11 0.114034 0.087406 0.227647
O O12 0.165751 0.000000 0.132944
O O13 0.183816 0.088555 0.000000
O O14 0.928144 0.500000 0.500000
O O15 0.000000 0.500000 0.722261
O O16 0.909996 0.082687 0.500000
O O17 0.000000 0.085421 0.311989
O O18 0.930463 0.000000 0.341855
O O19 0.000000 0.735289 0.179533
O O20 0.916983 0.695873 0.000000
#
# Coordination Sequence:
#
# PCOD8272514 Si02
#       7
#    16  16  16  16   8  16  16
#     4  10  21  36  58  86 116 156 200 243 289 345
#     4  10  20  38  62  84 112 150 189 235 295 359
#     4  11  23  36  56  84 114 150 197 248 296 347
#     4  10  21  35  52  77 110 150 195 239 287 346
#     4   9  18  34  55  81 117 157 194 233 284 345
#     4   8  14  27  48  72  98 131 173 222 277 333
#     4  10  21  38  62  91 120 151 190 238 295 357
#
# _framework density 20.225370999999999
#
# number of rings (size 3 to 8) (size 9 to 14) (size 15 to 20)
#    0.000    2.231    1.538    1.846    1.077    3.692 
#    0.000    2.692    0.000    4.154    0.000    0.000 
#    0.000    0.000    0.000    0.000    0.000    0.000 
#
# Total GULP energy -644298.021449 kJ/mol
# GULP energy per Si atom -12390.346566 kJ/mol
# Density = 2.017934 g / cm^3
# Si number density = 20.225371 Si / 1000 Ang^3
#
#
#
# Elastic Constant Matrix: (Units=GPa)
#
#
# Indices 1 2 3 4 5 6 
#
# 1 109.6444 39.0829 44.1196 0.0000 0.0000 0.0000
# 2 39.0829 75.7194 28.3820 0.0000 0.0000 0.0000
# 3 44.1196 28.3820 118.5187 0.0000 0.0000 0.0000
# 4 0.0000 0.0000 0.0000 29.5305 0.0000 0.0000
# 5 0.0000 0.0000 0.0000 0.0000 25.1415 0.0000
# 6 0.0000 0.0000 0.0000 0.0000 0.0000 30.7226
#
#
#
# Elastic Compliance Matrix: (Units=1/GPa)
#
#
# Indices 1 2 3 4 5 6 
#
# 1 0.012282 -0.005082 -0.003355 0.000000 0.000000 0.000000
# 2 -0.005082 0.016612 -0.002086 0.000000 0.000000 0.000000
# 3 -0.003355 -0.002086 0.010186 0.000000 0.000000 0.000000
# 4 0.000000 0.000000 0.000000 0.033863 0.000000 0.000000
# 5 0.000000 0.000000 0.000000 0.000000 0.039775 0.000000
# 6 0.000000 0.000000 0.000000 0.000000 0.000000 0.032549
#
#
# Mechanical properties :
#
#
# Convention : Reuss Voigt Hill
#
# Bulk Modulus (GPa) = 55.45307 58.56128 57.00718
# Shear Modulus (GPa) = 29.01503 29.89876 29.45690
#
# Velocity S-wave (km/s) = 3.79170 3.84901 3.82046
# Velocity P-wave (km/s) = 6.82982 6.98358 6.90713
#
# Compressibility (1/GPa) = 0.01803327
#
# Stress axis : x y z
#
# Youngs Moduli (GPa) = 81.42107 60.19873 98.17331
#
# Poissons Ratio (x) = 0.30591 0.32938
# Poissons Ratio (y) = 0.41376 0.20482
# Poissons Ratio (z) = 0.27317 0.12559
#
# Static dielectric constant tensor:
#      x y z
#    x 3.872020 0.000000 0.000000 
#    y 0.000000 3.521680 0.000000 
#    z 0.000000 0.000000 3.825670 
# 
# 
# High freq. dielectric constant tensor:
#      x y z
#    x 1.796470 0.000000 0.000000 
#    y 0.000000 1.768300 0.000000 
#    z 0.000000 0.000000 1.784120 
# 
# From -- ./inp_files/12379.got.cif
#   From: 2010.03.12/outbox.cif.g09.slc.cpg/sg65_7_cif.got.tgz:12379.got - 2010.04.10 20:52:16.
