data_PCOD8272228
_publ_section_title
;
Structure prediction by ZEFSAII (Michael W. Deem and Ramdas Pophale) SiO2 
 PCOD8272228
Probable space group: C M M M
;
_chemical_formula_sum "Si O2"
_cell_formula_units_Z 72
_cell_length_a 27.260441
_cell_length_b 17.750965
_cell_length_c 7.676188
_cell_angle_alpha 90.000000
_cell_angle_beta 90.000000
_cell_angle_gamma 90.000000
_cell_volume 3714.500726
_symmetry_space_group_name_H-M "C M M M"
_symmetry_group_IT_number 65
_symmetry_cell_setting 'orthorhombic'
loop_
_space_group_symop_operation_xyz
x,y,z
-x,-y,z
x,-y,-z
-x,y,-z
-x,-y,-z
x,y,-z
-x,y,z
x,-y,z
1/2+x,1/2+y,z
1/2-x,1/2-y,z
1/2+x,1/2-y,-z
1/2-x,1/2+y,-z
1/2-x,1/2-y,-z
1/2+x,1/2+y,-z
1/2-x,1/2+y,z
1/2+x,1/2-y,z
loop_
_atom_site_type_symbol
_atom_site_label
_atom_site_fract_x
_atom_site_fract_y
_atom_site_fract_z
Si Si1 0.602218 0.183869 0.198529
Si Si2 0.443095 0.089058 0.500000
Si Si3 0.554328 0.670109 0.296663
Si Si4 0.697685 0.731163 0.799655
Si Si5 0.148117 0.083129 0.294358
O O1 0.583525 0.118411 0.325515
O O2 0.563659 0.252448 0.194475
O O3 0.653634 0.217326 0.276286
O O4 0.607128 0.152744 0.000000
O O5 0.500000 0.114577 0.500000
O O6 0.438175 0.000000 0.500000
O O7 0.560177 0.688922 0.500000
O O8 0.500000 0.639912 0.252286
O O9 0.593100 0.606721 0.237508
O O10 0.750000 0.750000 0.708343
O O11 0.687272 0.642375 0.778888
O O12 0.701157 0.752515 0.000000
O O13 0.152703 0.081842 0.500000
O O14 0.159025 0.000000 0.217180
#
# Coordination Sequence:
#
# PCOD8272228 Si02
#       5
#    16   8  16  16  16
#     4  10  20  36  58  82 109 141 183 231 276 330
#     4  11  24  40  57  80 111 145 184 231 288 346
#     4   9  16  28  49  75 105 143 181 214 253 307
#     4   9  19  36  58  81 103 138 185 226 271 327
#     4   9  18  31  47  74 110 141 173 213 259 312
#
# _framework density 19.383493999999999
#
# number of rings (size 3 to 8) (size 9 to 14) (size 15 to 20)
#    0.000    2.556    1.111    0.667    1.556    3.556 
#    0.000    4.444    0.000    4.000    0.000    6.222 
#    0.000    0.000    0.000    0.000    0.000    0.000 
#
# Total GULP energy -446227.309698 kJ/mol
# GULP energy per Si atom -12395.203047 kJ/mol
# Density = 1.933938 g / cm^3
# Si number density = 19.383494 Si / 1000 Ang^3
#
#
#
# Elastic Constant Matrix: (Units=GPa)
#
#
# Indices 1 2 3 4 5 6 
#
# 1 155.2255 70.4342 22.4152 0.0000 0.0000 0.0000
# 2 70.4342 107.2316 32.5320 0.0000 0.0000 0.0000
# 3 22.4152 32.5320 62.0099 0.0000 0.0000 0.0000
# 4 0.0000 0.0000 0.0000 14.3513 0.0000 0.0000
# 5 0.0000 0.0000 0.0000 0.0000 18.5084 0.0000
# 6 0.0000 0.0000 0.0000 0.0000 0.0000 34.1022
#
#
#
# Elastic Compliance Matrix: (Units=1/GPa)
#
#
# Indices 1 2 3 4 5 6 
#
# 1 0.009179 -0.005973 -0.000184 0.000000 0.000000 0.000000
# 2 -0.005973 0.014978 -0.005699 0.000000 0.000000 0.000000
# 3 -0.000184 -0.005699 0.019183 0.000000 0.000000 0.000000
# 4 0.000000 0.000000 0.000000 0.069680 0.000000 0.000000
# 5 0.000000 0.000000 0.000000 0.000000 0.054029 0.000000
# 6 0.000000 0.000000 0.000000 0.000000 0.000000 0.029324
#
#
# Mechanical properties :
#
#
# Convention : Reuss Voigt Hill
#
# Bulk Modulus (GPa) = 50.94920 63.91442 57.43181
# Shear Modulus (GPa) = 22.06255 26.66477 24.36366
#
# Velocity S-wave (km/s) = 3.37740 3.71299 3.54916
# Velocity P-wave (km/s) = 6.44601 7.17126 6.81828
#
# Compressibility (1/GPa) = 0.01962740
#
# Stress axis : x y z
#
# Youngs Moduli (GPa) = 108.94039 66.76426 52.13024
#
# Poissons Ratio (x) = 0.39881 0.00961
# Poissons Ratio (y) = 0.65075 0.29707
# Poissons Ratio (z) = 0.02008 0.38046
#
# Static dielectric constant tensor:
#      x y z
#    x 3.901520 0.000000 0.000000 
#    y 0.000000 3.569380 0.000000 
#    z 0.000000 0.000000 3.438740 
# 
# 
# High freq. dielectric constant tensor:
#      x y z
#    x 1.754620 0.000000 0.000000 
#    y 0.000000 1.731120 0.000000 
#    z 0.000000 0.000000 1.747730 
# 
# From -- ./inp_files/15959.got.cif
#   From: 2010.03.12/outbox.cif.g09.slc.cpg/sg65_8_cif.got.tgz:15959.got - 2010.04.10 20:52:16.
