data_PCOD8272776
_publ_section_title
;
Structure prediction by ZEFSAII (Michael W. Deem and Ramdas Pophale) SiO2 
 PCOD8272776
Probable space group: C M M M
;
_chemical_formula_sum "Si O2"
_cell_formula_units_Z 104
_cell_length_a 20.292331
_cell_length_b 9.651773
_cell_length_c 29.939476
_cell_angle_alpha 90.000000
_cell_angle_beta 90.000000
_cell_angle_gamma 90.000000
_cell_volume 5863.855126
_symmetry_space_group_name_H-M "C M M M"
_symmetry_group_IT_number 65
_symmetry_cell_setting 'orthorhombic'
loop_
_space_group_symop_operation_xyz
x,y,z
-x,-y,z
x,-y,-z
-x,y,-z
-x,-y,-z
x,y,-z
-x,y,z
x,-y,z
1/2+x,1/2+y,z
1/2-x,1/2-y,z
1/2+x,1/2-y,-z
1/2-x,1/2+y,-z
1/2-x,1/2-y,-z
1/2+x,1/2+y,-z
1/2-x,1/2+y,z
1/2+x,1/2-y,z
loop_
_atom_site_type_symbol
_atom_site_label
_atom_site_fract_x
_atom_site_fract_y
_atom_site_fract_z
Si Si1 0.811878 0.660372 0.551427
Si Si2 0.500000 0.154846 0.947175
Si Si3 0.575606 0.160991 0.380302
Si Si4 0.072949 0.835558 0.200866
Si Si5 0.880222 0.842774 0.050513
Si Si6 0.810885 0.158748 0.138295
Si Si7 0.078127 0.153534 0.700881
O O1 0.827139 0.694796 0.500000
O O2 0.793501 0.500000 0.558320
O O3 0.750000 0.750000 0.568804
O O4 0.878043 0.700437 0.578110
O O5 0.563991 0.238912 0.931839
O O6 0.500000 0.000000 0.926329
O O7 0.500000 0.145918 0.000000
O O8 0.500000 0.201888 0.392193
O O9 0.603239 0.242865 0.337326
O O10 0.580420 0.000000 0.368444
O O11 0.124218 0.784182 0.163532
O O12 0.098830 0.789758 0.250073
O O13 0.000000 0.772769 0.190553
O O14 0.067279 0.000000 0.200297
O O15 0.819772 0.826298 0.084747
O O16 0.908074 0.000000 0.052516
O O17 0.856652 0.807295 0.000000
O O18 0.750000 0.250000 0.154241
O O19 0.796786 0.000000 0.151511
O O20 0.000000 0.144659 0.699980
O O21 0.107871 0.000000 0.692086
#
# Coordination Sequence:
#
# PCOD8272776 Si02
#       7
#    16   8  16  16  16  16  16
#     4   9  18  32  48  66  92 128 166 200 235 278
#     4   9  17  29  47  73 101 125 151 193 243 279
#     4   9  17  29  47  72  99 124 153 194 243 289
#     4   8  15  30  53  75  92 120 164 201 233 282
#     4   9  18  32  50  72  97 128 165 199 235 285
#     4  10  21  35  52  72  99 131 162 200 243 287
#     4   8  14  27  48  72  95 120 155 198 238 282
#
# _framework density 17.735772999999998
#
# number of rings (size 3 to 8) (size 9 to 14) (size 15 to 20)
#    0.000    3.154    0.000    1.154    1.077    2.769 
#    0.000    3.077    0.000    4.615    0.000    4.308 
#    0.000    0.000    0.000    0.000    0.000    0.000 
#
# Total GULP energy -644524.067440 kJ/mol
# GULP energy per Si atom -12394.693605 kJ/mol
# Density = 1.769541 g / cm^3
# Si number density = 17.735773 Si / 1000 Ang^3
#
#
#
# Elastic Constant Matrix: (Units=GPa)
#
#
# Indices 1 2 3 4 5 6 
#
# 1 98.3017 43.9145 58.0090 0.0000 0.0000 0.0000
# 2 43.9145 62.1168 36.9923 0.0000 0.0000 0.0000
# 3 58.0090 36.9923 106.1562 0.0000 0.0000 0.0000
# 4 0.0000 0.0000 0.0000 20.7557 0.0000 0.0000
# 5 0.0000 0.0000 0.0000 0.0000 14.6665 0.0000
# 6 0.0000 0.0000 0.0000 0.0000 0.0000 24.5094
#
#
#
# Elastic Compliance Matrix: (Units=1/GPa)
#
#
# Indices 1 2 3 4 5 6 
#
# 1 0.018118 -0.008723 -0.006861 0.000000 0.000000 0.000000
# 2 -0.008723 0.024514 -0.003776 0.000000 0.000000 0.000000
# 3 -0.006861 -0.003776 0.014485 0.000000 0.000000 0.000000
# 4 0.000000 0.000000 0.000000 0.048180 0.000000 0.000000
# 5 0.000000 0.000000 0.000000 0.000000 0.068183 0.000000
# 6 0.000000 0.000000 0.000000 0.000000 0.000000 0.040801
#
#
# Mechanical properties :
#
#
# Convention : Reuss Voigt Hill
#
# Bulk Modulus (GPa) = 54.35422 60.48957 57.42190
# Shear Modulus (GPa) = 19.29509 20.49690 19.89599
#
# Velocity S-wave (km/s) = 3.30194 3.40322 3.35296
# Velocity P-wave (km/s) = 6.72683 7.04433 6.88741
#
# Compressibility (1/GPa) = 0.01839783
#
# Stress axis : x y z
#
# Youngs Moduli (GPa) = 55.19227 40.79257 69.03679
#
# Poissons Ratio (x) = 0.35584 0.47366
# Poissons Ratio (y) = 0.48145 0.26066
# Poissons Ratio (z) = 0.37868 0.15402
#
# Static dielectric constant tensor:
#      x y z
#    x 3.140200 0.000000 0.000000 
#    y 0.000000 3.307790 0.000000 
#    z 0.000000 0.000000 3.458620 
# 
# 
# High freq. dielectric constant tensor:
#      x y z
#    x 1.659980 0.000000 0.000000 
#    y 0.000000 1.668280 0.000000 
#    z 0.000000 0.000000 1.685680 
# 
# From -- ./inp_files/78257.got.cif
#   From: 2010.03.12/outbox.cif.g09.slc.cpg/sg65_40_cif.got.tgz:78257.got - 2010.04.10 20:52:16.
