data_PCOD8272370
_publ_section_title
;
Structure prediction by ZEFSAII (Michael W. Deem and Ramdas Pophale) SiO2 
 PCOD8272370
Probable space group: C M M M
;
_chemical_formula_sum "Si O2"
_cell_formula_units_Z 104
_cell_length_a 7.720681
_cell_length_b 30.004002
_cell_length_c 20.888855
_cell_angle_alpha 90.000000
_cell_angle_beta 90.000000
_cell_angle_gamma 90.000000
_cell_volume 4838.931005
_symmetry_space_group_name_H-M "C M M M"
_symmetry_group_IT_number 65
_symmetry_cell_setting 'orthorhombic'
loop_
_space_group_symop_operation_xyz
x,y,z
-x,-y,z
x,-y,-z
-x,y,-z
-x,-y,-z
x,y,-z
-x,y,z
x,-y,z
1/2+x,1/2+y,z
1/2-x,1/2-y,z
1/2+x,1/2-y,-z
1/2-x,1/2+y,-z
1/2-x,1/2-y,-z
1/2+x,1/2+y,-z
1/2-x,1/2+y,z
1/2+x,1/2-y,z
loop_
_atom_site_type_symbol
_atom_site_label
_atom_site_fract_x
_atom_site_fract_y
_atom_site_fract_z
Si Si1 0.299380 0.388746 0.363221
Si Si2 0.297586 0.798660 0.573129
Si Si3 0.806736 0.125371 0.222851
Si Si4 0.695924 0.950688 0.861871
Si Si5 0.703697 0.701856 0.136211
Si Si6 0.204178 0.926646 0.000000
Si Si7 0.000000 0.447862 0.575954
Si Si8 0.794690 0.825352 0.000000
O O1 0.500000 0.405936 0.366047
O O2 0.297732 0.338626 0.390649
O O3 0.221149 0.386622 0.290862
O O4 0.174879 0.423205 0.400267
O O5 0.232852 0.799711 0.500000
O O6 0.500000 0.807405 0.578677
O O7 0.250000 0.750000 0.602715
O O8 0.817860 0.083227 0.175603
O O9 0.711963 0.165789 0.184811
O O10 0.000000 0.140927 0.239648
O O11 0.500000 0.937645 0.844932
O O12 0.739972 0.000000 0.836852
O O13 0.721786 0.950475 0.937790
O O14 0.500000 0.692966 0.132528
O O15 0.750000 0.750000 0.163985
O O16 0.782697 0.697296 0.064330
O O17 0.267383 0.875981 0.000000
O O18 0.000000 0.930812 0.000000
O O19 0.000000 0.500000 0.597930
O O20 0.000000 0.444456 0.500000
O O21 0.000000 0.821568 0.000000
#
# Coordination Sequence:
#
# PCOD8272370 Si02
#       8
#    16  16  16  16  16   8   8   8
#     4  11  24  43  68  99 138 180 221 274 336 398
#     4  10  20  36  62  98 136 173 215 264 322 392
#     4  10  23  42  62  87 122 165 212 257 309 382
#     4  11  24  39  58  87 120 153 197 258 321 377
#     4  10  20  37  57  84 118 157 206 260 310 368
#     4  11  20  37  62  84 112 154 200 256 317 377
#     4  11  26  48  74 104 136 175 227 279 330 397
#     4   9  17  33  57  77 108 151 199 257 313 359
#
# _framework density 21.492349999999998
#
# number of rings (size 3 to 8) (size 9 to 14) (size 15 to 20)
#    0.000    1.615    2.308    2.077    1.077    6.154 
#    0.000    3.846    0.000    0.000    0.000    0.000 
#    0.000    0.000    0.000    0.000    0.000    0.000 
#
# Total GULP energy -644689.861410 kJ/mol
# GULP energy per Si atom -12397.881950 kJ/mol
# Density = 2.144343 g / cm^3
# Si number density = 21.492350 Si / 1000 Ang^3
#
#
#
# Elastic Constant Matrix: (Units=GPa)
#
#
# Indices 1 2 3 4 5 6 
#
# 1 60.6366 33.4623 22.7628 0.0000 0.0000 0.0000
# 2 33.4623 155.7749 57.3345 0.0000 0.0000 0.0000
# 3 22.7628 57.3345 128.6410 0.0000 0.0000 0.0000
# 4 0.0000 0.0000 0.0000 14.8556 0.0000 0.0000
# 5 0.0000 0.0000 0.0000 0.0000 20.0977 0.0000
# 6 0.0000 0.0000 0.0000 0.0000 0.0000 29.3113
#
#
#
# Elastic Compliance Matrix: (Units=1/GPa)
#
#
# Indices 1 2 3 4 5 6 
#
# 1 0.019072 -0.003415 -0.001853 0.000000 0.000000 0.000000
# 2 -0.003415 0.008291 -0.003091 0.000000 0.000000 0.000000
# 3 -0.001853 -0.003091 0.009479 0.000000 0.000000 0.000000
# 4 0.000000 0.000000 0.000000 0.067315 0.000000 0.000000
# 5 0.000000 0.000000 0.000000 0.000000 0.049757 0.000000
# 6 0.000000 0.000000 0.000000 0.000000 0.000000 0.034117
#
#
# Mechanical properties :
#
#
# Convention : Reuss Voigt Hill
#
# Bulk Modulus (GPa) = 49.69080 63.57463 56.63271
# Shear Modulus (GPa) = 23.64571 28.28577 25.96574
#
# Velocity S-wave (km/s) = 3.32051 3.63172 3.47960
# Velocity P-wave (km/s) = 6.15398 6.87243 6.52310
#
# Compressibility (1/GPa) = 0.02012445
#
# Stress axis : x y z
#
# Youngs Moduli (GPa) = 52.43368 120.61703 105.49670
#
# Poissons Ratio (x) = 0.41190 0.19545
# Poissons Ratio (y) = 0.17906 0.32607
# Poissons Ratio (z) = 0.09714 0.37281
#
# Static dielectric constant tensor:
#      x y z
#    x 3.627570 0.000000 0.000000 
#    y 0.000000 3.904180 0.000000 
#    z 0.000000 0.000000 3.999870 
# 
# 
# High freq. dielectric constant tensor:
#      x y z
#    x 1.832180 0.000000 0.000000 
#    y 0.000000 1.849420 0.000000 
#    z 0.000000 0.000000 1.840190 
# 
# From -- ./inp_files/60477.got.cif
#   From: 2010.03.12/outbox.cif.g09.slc.cpg/sg65_31_cif.got.tgz:60477.got - 2010.04.10 20:52:16.
