data_PCOD8272807
_publ_section_title
;
Structure prediction by ZEFSAII (Michael W. Deem and Ramdas Pophale) SiO2 
 PCOD8272807
Probable space group: C M M M
;
_chemical_formula_sum "Si O2"
_cell_formula_units_Z 88
_cell_length_a 19.592112
_cell_length_b 17.947977
_cell_length_c 13.106140
_cell_angle_alpha 90.000000
_cell_angle_beta 90.000000
_cell_angle_gamma 90.000000
_cell_volume 4608.627022
_symmetry_space_group_name_H-M "C M M M"
_symmetry_group_IT_number 65
_symmetry_cell_setting 'orthorhombic'
loop_
_space_group_symop_operation_xyz
x,y,z
-x,-y,z
x,-y,-z
-x,y,-z
-x,-y,-z
x,y,-z
-x,y,z
x,-y,z
1/2+x,1/2+y,z
1/2-x,1/2-y,z
1/2+x,1/2-y,-z
1/2-x,1/2+y,-z
1/2-x,1/2-y,-z
1/2+x,1/2+y,-z
1/2-x,1/2+y,z
1/2+x,1/2-y,z
loop_
_atom_site_type_symbol
_atom_site_label
_atom_site_fract_x
_atom_site_fract_y
_atom_site_fract_z
Si Si1 0.810106 0.912047 0.115245
Si Si2 0.186200 0.678898 0.386426
Si Si3 0.333011 0.660139 0.319165
Si Si4 0.580875 0.411803 0.500000
Si Si5 0.154864 0.588324 0.890237
Si Si6 0.924318 0.588158 0.696885
O O1 0.851541 0.869399 0.204884
O O2 0.732070 0.884727 0.126490
O O3 0.817227 0.000000 0.133580
O O4 0.836406 0.892150 0.000000
O O5 0.199487 0.708396 0.500000
O O6 0.254675 0.638281 0.346215
O O7 0.163125 0.750072 0.319566
O O8 0.125333 0.618945 0.390157
O O9 0.385632 0.623726 0.398854
O O10 0.594684 0.500000 0.500000
O O11 0.500000 0.394199 0.500000
O O12 0.154211 0.500000 0.887885
O O13 0.104901 0.619718 0.803854
O O14 0.127917 0.617012 0.000000
O O15 0.924879 0.500000 0.692354
O O16 0.000000 0.620202 0.680892
#
# Coordination Sequence:
#
# PCOD8272807 Si02
#       6
#    16  16  16   8  16  16
#     4   9  17  31  57  90 117 145 184 230 283 339
#     4  11  22  38  56  81 112 148 199 233 283 346
#     4  11  20  39  60  82 116 150 182 236 287 335
#     4  11  24  39  60  90 112 137 186 237 286 348
#     4   8  14  27  48  76 109 142 180 226 271 317
#     4  10  21  35  52  79 113 151 195 234 273 329
#
# _framework density 19.094625000000001
#
# number of rings (size 3 to 8) (size 9 to 14) (size 15 to 20)
#    0.000    2.091    3.636    2.182    0.000    2.545 
#    0.000    5.455    0.000    0.545    0.000    2.545 
#    0.000    0.000    0.000    0.000    0.000    0.000 
#
# Total GULP energy -545264.726802 kJ/mol
# GULP energy per Si atom -12392.380155 kJ/mol
# Density = 1.905116 g / cm^3
# Si number density = 19.094625 Si / 1000 Ang^3
#
#
#
# Elastic Constant Matrix: (Units=GPa)
#
#
# Indices 1 2 3 4 5 6 
#
# 1 92.7825 29.7669 43.3122 0.0000 0.0000 0.0000
# 2 29.7669 41.9826 40.3956 0.0000 0.0000 0.0000
# 3 43.3122 40.3956 136.8857 0.0000 0.0000 0.0000
# 4 0.0000 0.0000 0.0000 25.4714 0.0000 0.0000
# 5 0.0000 0.0000 0.0000 0.0000 22.8479 0.0000
# 6 0.0000 0.0000 0.0000 0.0000 0.0000 24.6522
#
#
#
# Elastic Compliance Matrix: (Units=1/GPa)
#
#
# Indices 1 2 3 4 5 6 
#
# 1 0.014392 -0.008132 -0.002154 0.000000 0.000000 0.000000
# 2 -0.008132 0.037860 -0.008600 0.000000 0.000000 0.000000
# 3 -0.002154 -0.008600 0.010525 0.000000 0.000000 0.000000
# 4 0.000000 0.000000 0.000000 0.039260 0.000000 0.000000
# 5 0.000000 0.000000 0.000000 0.000000 0.043768 0.000000
# 6 0.000000 0.000000 0.000000 0.000000 0.000000 0.040564
#
#
# Mechanical properties :
#
#
# Convention : Reuss Voigt Hill
#
# Bulk Modulus (GPa) = 39.99110 55.40002 47.69556
# Shear Modulus (GPa) = 21.50769 25.13936 23.32353
#
# Velocity S-wave (km/s) = 3.35979 3.63239 3.49875
# Velocity P-wave (km/s) = 6.00334 6.83145 6.43074
#
# Compressibility (1/GPa) = 0.02500557
#
# Stress axis : x y z
#
# Youngs Moduli (GPa) = 69.48117 26.41337 95.01440
#
# Poissons Ratio (x) = 0.21479 0.20467
# Poissons Ratio (y) = 0.56501 0.81708
# Poissons Ratio (z) = 0.14967 0.22714
#
# Static dielectric constant tensor:
#      x y z
#    x 3.392280 0.000000 0.000000 
#    y 0.000000 3.201490 0.000000 
#    z 0.000000 0.000000 3.842240 
# 
# 
# High freq. dielectric constant tensor:
#      x y z
#    x 1.713620 0.000000 0.000000 
#    y 0.000000 1.719760 0.000000 
#    z 0.000000 0.000000 1.755890 
# 
# From -- ./inp_files/26788.got.cif
#   From: 2010.03.12/outbox.cif.g09.slc.cpg/sg65_14_cif.got.tgz:26788.got - 2010.04.10 20:52:16.
