data_PCOD8272990
_publ_section_title
;
Structure prediction by ZEFSAII (Michael W. Deem and Ramdas Pophale) SiO2 
 PCOD8272990
Probable space group: C M M M
;
_chemical_formula_sum "Si O2"
_cell_formula_units_Z 112
_cell_length_a 14.003143
_cell_length_b 27.993364
_cell_length_c 14.340742
_cell_angle_alpha 90.000000
_cell_angle_beta 90.000000
_cell_angle_gamma 90.000000
_cell_volume 5621.500295
_symmetry_space_group_name_H-M "C M M M"
_symmetry_group_IT_number 65
_symmetry_cell_setting 'orthorhombic'
loop_
_space_group_symop_operation_xyz
x,y,z
-x,-y,z
x,-y,-z
-x,y,-z
-x,-y,-z
x,y,-z
-x,y,z
x,-y,z
1/2+x,1/2+y,z
1/2-x,1/2-y,z
1/2+x,1/2-y,-z
1/2-x,1/2+y,-z
1/2-x,1/2-y,-z
1/2+x,1/2+y,-z
1/2-x,1/2+y,z
1/2+x,1/2-y,z
loop_
_atom_site_type_symbol
_atom_site_label
_atom_site_fract_x
_atom_site_fract_y
_atom_site_fract_z
Si Si1 0.392719 0.871920 0.891804
Si Si2 0.388552 0.358853 0.763153
Si Si3 0.388230 0.948268 0.250198
Si Si4 0.107151 0.375524 0.396528
Si Si5 0.728287 0.697447 0.109217
Si Si6 0.613292 0.554460 0.106052
Si Si7 0.268314 0.695765 0.606652
O O1 0.500000 0.854998 0.865113
O O2 0.369096 0.923499 0.848904
O O3 0.318216 0.833238 0.853524
O O4 0.380462 0.878937 0.000000
O O5 0.500000 0.362403 0.738948
O O6 0.369606 0.319691 0.843367
O O7 0.350324 0.409087 0.811332
O O8 0.334956 0.338836 0.670590
O O9 0.500000 0.954444 0.269424
O O10 0.343772 0.915346 0.331187
O O11 0.337818 0.000000 0.249957
O O12 0.108028 0.397193 0.500000
O O13 0.163096 0.326210 0.391360
O O14 0.000000 0.363841 0.362364
O O15 0.750000 0.750000 0.143857
O O16 0.713518 0.694224 0.000000
O O17 0.500000 0.557578 0.104970
O O18 0.645802 0.500000 0.129789
O O19 0.649481 0.568454 0.000000
O O20 0.309211 0.695901 0.500000
O O21 0.250000 0.750000 0.642961
#
# Coordination Sequence:
#
# PCOD8272990 Si02
#       7
#    16  16  16  16  16  16  16
#     4   9  18  33  52  73 101 140 181 217 256 307
#     4  11  22  35  55  82 111 144 182 225 273 324
#     4   9  17  29  48  75 105 137 171 208 253 307
#     4   9  18  34  57  81 103 131 168 211 261 316
#     4  10  21  36  53  76 108 142 178 223 272 322
#     4   8  15  31  56  83 110 143 184 228 274 325
#     4  10  22  40  59  80 109 142 179 226 276 328
#
# _framework density 19.923506
#
# number of rings (size 3 to 8) (size 9 to 14) (size 15 to 20)
#    0.000    2.571    0.000    2.143    0.000    2.857 
#    0.000   10.000    0.000    2.143    0.000    2.000 
#    0.000    0.000    0.000    0.000    0.000    0.000 
#
# Total GULP energy -693752.571253 kJ/mol
# GULP energy per Si atom -12388.438772 kJ/mol
# Density = 1.987816 g / cm^3
# Si number density = 19.923506 Si / 1000 Ang^3
#
#
#
# Elastic Constant Matrix: (Units=GPa)
#
#
# Indices 1 2 3 4 5 6 
#
# 1 50.3729 32.6682 29.4104 0.0000 0.0000 0.0000
# 2 32.6682 148.6310 57.5793 0.0000 0.0000 0.0000
# 3 29.4104 57.5793 92.0515 0.0000 0.0000 0.0000
# 4 0.0000 0.0000 0.0000 29.8004 0.0000 0.0000
# 5 0.0000 0.0000 0.0000 0.0000 23.5504 0.0000
# 6 0.0000 0.0000 0.0000 0.0000 0.0000 25.2903
#
#
#
# Elastic Compliance Matrix: (Units=1/GPa)
#
#
# Indices 1 2 3 4 5 6 
#
# 1 0.025531 -0.003236 -0.006133 0.000000 0.000000 0.000000
# 2 -0.003236 0.009290 -0.004777 0.000000 0.000000 0.000000
# 3 -0.006133 -0.004777 0.015811 0.000000 0.000000 0.000000
# 4 0.000000 0.000000 0.000000 0.033557 0.000000 0.000000
# 5 0.000000 0.000000 0.000000 0.000000 0.042462 0.000000
# 6 0.000000 0.000000 0.000000 0.000000 0.000000 0.039541
#
#
# Mechanical properties :
#
#
# Convention : Reuss Voigt Hill
#
# Bulk Modulus (GPa) = 44.76226 58.93015 51.84620
# Shear Modulus (GPa) = 24.76095 27.15473 25.95784
#
# Velocity S-wave (km/s) = 3.52916 3.69582 3.61345
# Velocity P-wave (km/s) = 6.25480 6.91770 6.59458
#
# Compressibility (1/GPa) = 0.02234025
#
# Stress axis : x y z
#
# Youngs Moduli (GPa) = 39.16766 107.64375 63.24608
#
# Poissons Ratio (x) = 0.34829 0.38791
# Poissons Ratio (y) = 0.12673 0.30214
# Poissons Ratio (z) = 0.24023 0.51423
#
# Static dielectric constant tensor:
#      x y z
#    x 3.481110 0.000000 0.000000 
#    y 0.000000 3.970950 0.000000 
#    z 0.000000 0.000000 3.758480 
# 
# 
# High freq. dielectric constant tensor:
#      x y z
#    x 1.757360 0.000000 0.000000 
#    y 0.000000 1.778900 0.000000 
#    z 0.000000 0.000000 1.779980 
# 
# From -- ./inp_files/41101.got.cif
#   From: 2010.03.12/outbox.cif.g09.slc.cpg/sg65_21_cif.got.tgz:41101.got - 2010.04.10 20:52:16.
