data_PCOD8272840
_publ_section_title
;
Structure prediction by ZEFSAII (Michael W. Deem and Ramdas Pophale) SiO2 
 PCOD8272840
Probable space group: C M M M
;
_chemical_formula_sum "Si O2"
_cell_formula_units_Z 80
_cell_length_a 9.715983
_cell_length_b 19.655702
_cell_length_c 22.241621
_cell_angle_alpha 90.000000
_cell_angle_beta 90.000000
_cell_angle_gamma 90.000000
_cell_volume 4247.581704
_symmetry_space_group_name_H-M "C M M M"
_symmetry_group_IT_number 65
_symmetry_cell_setting 'orthorhombic'
loop_
_space_group_symop_operation_xyz
x,y,z
-x,-y,z
x,-y,-z
-x,y,-z
-x,-y,-z
x,y,-z
-x,y,z
x,-y,z
1/2+x,1/2+y,z
1/2-x,1/2-y,z
1/2+x,1/2-y,-z
1/2-x,1/2+y,-z
1/2-x,1/2-y,-z
1/2+x,1/2+y,-z
1/2-x,1/2+y,z
1/2+x,1/2-y,z
loop_
_atom_site_type_symbol
_atom_site_label
_atom_site_fract_x
_atom_site_fract_y
_atom_site_fract_z
Si Si1 0.154486 0.809248 0.187479
Si Si2 0.658001 0.422930 0.720214
Si Si3 0.338548 0.819708 0.500000
Si Si4 0.846913 0.500000 0.070890
Si Si5 0.659844 0.921919 0.607071
Si Si6 0.843967 0.877723 0.932033
O O1 0.250000 0.750000 0.212243
O O2 0.194133 0.878523 0.221443
O O3 0.172623 0.816749 0.115398
O O4 0.000000 0.787633 0.203201
O O5 0.500000 0.413673 0.700065
O O6 0.689653 0.500000 0.739430
O O7 0.752558 0.400534 0.664892
O O8 0.500000 0.800155 0.500000
O O9 0.250000 0.750000 0.500000
O O10 0.300654 0.867134 0.443460
O O11 0.762257 0.434211 0.090752
O O12 0.000000 0.500000 0.100137
O O13 0.860125 0.500000 0.000000
O O14 0.500000 0.916414 0.623791
O O15 0.694018 0.000000 0.586610
O O16 0.000000 0.907013 0.929198
O O17 0.811026 0.852242 0.000000
#
# Coordination Sequence:
#
# PCOD8272840 Si02
#       6
#    16  16   8   8  16  16
#     4  10  22  37  54  76 106 141 177 220 270 323
#     4   9  19  36  57  79 104 138 179 222 267 315
#     4  10  21  35  53  81 115 148 178 214 260 310
#     4   9  17  29  47  75 105 129 159 208 265 310
#     4   9  18  35  58  81 106 139 180 222 262 306
#     4   9  18  33  53  75 100 136 179 217 262 325
#
# _framework density 18.834246
#
# number of rings (size 3 to 8) (size 9 to 14) (size 15 to 20)
#    0.000    2.700    0.000    0.600    1.400    6.000 
#    0.000    4.000    0.000    3.000    0.000    0.000 
#    0.000    0.000    0.000    0.000    0.000    0.000 
#
# Total GULP energy -495836.007394 kJ/mol
# GULP energy per Si atom -12395.900185 kJ/mol
# Density = 1.879138 g / cm^3
# Si number density = 18.834246 Si / 1000 Ang^3
#
#
#
# Elastic Constant Matrix: (Units=GPa)
#
#
# Indices 1 2 3 4 5 6 
#
# 1 88.4025 60.8384 50.7066 0.0000 0.0000 0.0000
# 2 60.8384 106.0247 60.0698 0.0000 0.0000 0.0000
# 3 50.7066 60.0698 111.4411 0.0000 0.0000 0.0000
# 4 0.0000 0.0000 0.0000 16.8063 0.0000 0.0000
# 5 0.0000 0.0000 0.0000 0.0000 27.5135 0.0000
# 6 0.0000 0.0000 0.0000 0.0000 0.0000 -10.4999
#
#
#
# Elastic Compliance Matrix: (Units=1/GPa)
#
#
# Indices 1 2 3 4 5 6 
#
# 1 0.019965 -0.009084 -0.004188 0.000000 0.000000 0.000000
# 2 -0.009084 0.017711 -0.005414 0.000000 0.000000 0.000000
# 3 -0.004188 -0.005414 0.013797 0.000000 0.000000 0.000000
# 4 0.000000 0.000000 0.000000 0.059502 0.000000 0.000000
# 5 0.000000 0.000000 0.000000 0.000000 0.036346 0.000000
# 6 0.000000 0.000000 0.000000 0.000000 0.000000 -0.095239
#
#
# Mechanical properties :
#
#
# Convention : Reuss Voigt Hill
#
# Bulk Modulus (GPa) = 70.90733 72.12199 71.51466
# Shear Modulus (GPa) = 53.10443 15.71421 34.40932
#
# Velocity S-wave (km/s) = 5.31572 2.89163 4.27893
# Velocity P-wave (km/s) = 8.68364 7.03739 7.90350
#
# Compressibility (1/GPa) = 0.01410291
#
# Stress axis : x y z
#
# Youngs Moduli (GPa) = 50.08643 56.46115 72.47871
#
# Poissons Ratio (x) = 0.51287 0.30355
# Poissons Ratio (y) = 0.45497 0.39238
# Poissons Ratio (z) = 0.20977 0.30567
#
# Static dielectric constant tensor:
#      x y z
#    x 3.624330 0.000000 0.000000 
#    y 0.000000 3.284800 0.000000 
#    z 0.000000 0.000000 3.374510 
# 
# 
# High freq. dielectric constant tensor:
#      x y z
#    x 1.732920 0.000000 0.000000 
#    y 0.000000 1.718370 0.000000 
#    z 0.000000 0.000000 1.724840 
# 
# From -- ./inp_files/67289.got.cif
#   From: 2010.03.12/outbox.cif.g09.slc.cpg/sg65_34_cif.got.tgz:67289.got - 2010.04.10 20:52:16.
