data_PCOD8272261
_publ_section_title
;
Structure prediction by ZEFSAII (Michael W. Deem and Ramdas Pophale) SiO2 
 PCOD8272261
Probable space group: C M M M
;
_chemical_formula_sum "Si O2"
_cell_formula_units_Z 64
_cell_length_a 24.072902
_cell_length_b 15.558081
_cell_length_c 8.763791
_cell_angle_alpha 90.000000
_cell_angle_beta 90.000000
_cell_angle_gamma 90.000000
_cell_volume 3282.286511
_symmetry_space_group_name_H-M "C M M M"
_symmetry_group_IT_number 65
_symmetry_cell_setting 'orthorhombic'
loop_
_space_group_symop_operation_xyz
x,y,z
-x,-y,z
x,-y,-z
-x,y,-z
-x,-y,-z
x,y,-z
-x,y,z
x,-y,z
1/2+x,1/2+y,z
1/2-x,1/2-y,z
1/2+x,1/2-y,-z
1/2-x,1/2+y,-z
1/2-x,1/2-y,-z
1/2+x,1/2+y,-z
1/2-x,1/2+y,z
1/2+x,1/2-y,z
loop_
_atom_site_type_symbol
_atom_site_label
_atom_site_fract_x
_atom_site_fract_y
_atom_site_fract_z
Si Si1 0.287767 0.000000 0.680948
Si Si2 0.500000 0.865064 0.681603
Si Si3 0.500000 0.673152 0.318546
Si Si4 0.384101 0.599370 0.678825
Si Si5 0.724204 0.341192 0.821185
Si Si6 0.412150 0.000000 0.681369
O O1 0.257478 0.914901 0.735515
O O2 0.350208 0.000000 0.748927
O O3 0.287517 0.000000 0.500000
O O4 0.500000 0.861780 0.500000
O O5 0.500000 0.769410 0.750182
O O6 0.444937 0.915175 0.738747
O O7 0.500000 0.675017 0.500000
O O8 0.554643 0.623571 0.260420
O O9 0.378564 0.619098 0.500000
O O10 0.372478 0.500000 0.714613
O O11 0.339794 0.657310 0.768441
O O12 0.750000 0.250000 0.774531
O O13 0.728127 0.357952 0.000000
O O14 0.410111 0.000000 0.500000
#
# Coordination Sequence:
#
# PCOD8272261 Si02
#       6
#     8   8   8  16  16   8
#     4  11  22  37  62  93 117 148 193 250 298 341
#     4   8  14  28  46  75 115 150 174 217 282 345
#     4   9  18  30  53  83 114 147 183 233 294 343
#     4  10  20  36  58  86 116 147 188 243 294 341
#     4  11  25  42  59  82 118 163 200 237 289 351
#     4   8  16  28  47  78 117 145 175 222 285 344
#
# _framework density 19.498602999999999
#
# number of rings (size 3 to 8) (size 9 to 14) (size 15 to 20)
#    0.000    2.250    1.250    2.250    3.500    3.500 
#    0.000    0.625    0.000    1.500    0.000    7.000 
#    0.000    0.000    0.000    0.000    0.000    0.000 
#
# Total GULP energy -396813.991242 kJ/mol
# GULP energy per Si atom -12400.437226 kJ/mol
# Density = 1.945422 g / cm^3
# Si number density = 19.498603 Si / 1000 Ang^3
#
#
#
# Elastic Constant Matrix: (Units=GPa)
#
#
# Indices 1 2 3 4 5 6 
#
# 1 174.5638 63.3278 34.4544 0.0000 0.0000 0.0000
# 2 63.3278 122.7159 41.0462 0.0000 0.0000 0.0000
# 3 34.4544 41.0462 41.7335 0.0000 0.0000 0.0000
# 4 0.0000 0.0000 0.0000 6.6727 0.0000 0.0000
# 5 0.0000 0.0000 0.0000 0.0000 7.1743 0.0000
# 6 0.0000 0.0000 0.0000 0.0000 0.0000 24.0567
#
#
#
# Elastic Compliance Matrix: (Units=1/GPa)
#
#
# Indices 1 2 3 4 5 6 
#
# 1 0.007375 -0.002637 -0.003495 0.000000 0.000000 0.000000
# 2 -0.002637 0.013087 -0.010694 0.000000 0.000000 0.000000
# 3 -0.003495 -0.010694 0.037365 0.000000 0.000000 0.000000
# 4 0.000000 0.000000 0.000000 0.149865 0.000000 0.000000
# 5 0.000000 0.000000 0.000000 0.000000 0.139387 0.000000
# 6 0.000000 0.000000 0.000000 0.000000 0.000000 0.041569
#
#
# Mechanical properties :
#
#
# Convention : Reuss Voigt Hill
#
# Bulk Modulus (GPa) = 41.36617 68.51889 54.94253
# Shear Modulus (GPa) = 11.61820 20.92636 16.27228
#
# Velocity S-wave (km/s) = 2.44365 3.27956 2.89197
# Velocity P-wave (km/s) = 5.40582 7.03970 6.27616
#
# Compressibility (1/GPa) = 0.02417434
#
# Stress axis : x y z
#
# Youngs Moduli (GPa) = 135.59292 76.41383 26.76273
#
# Poissons Ratio (x) = 0.20149 0.09354
# Poissons Ratio (y) = 0.35753 0.28621
# Poissons Ratio (z) = 0.47394 0.81719
#
# Static dielectric constant tensor:
#      x y z
#    x 3.942520 0.000000 0.000000 
#    y 0.000000 3.819020 0.000000 
#    z 0.000000 0.000000 3.135820 
# 
# 
# High freq. dielectric constant tensor:
#      x y z
#    x 1.778360 0.000000 0.000000 
#    y 0.000000 1.767660 0.000000 
#    z 0.000000 0.000000 1.714820 
# 
# From -- ./inp_files/13409.got.cif
#   From: 2010.03.12/outbox.cif.g09.slc.cpg/sg65_7_cif.got.tgz:13409.got - 2010.04.10 20:52:16.
