data_PCOD8272729
_publ_section_title
;
Structure prediction by ZEFSAII (Michael W. Deem and Ramdas Pophale) SiO2 
 PCOD8272729
Probable space group: C M M M
;
_chemical_formula_sum "Si O2"
_cell_formula_units_Z 72
_cell_length_a 9.612468
_cell_length_b 26.330092
_cell_length_c 15.958760
_cell_angle_alpha 90.000000
_cell_angle_beta 90.000000
_cell_angle_gamma 90.000000
_cell_volume 4039.116941
_symmetry_space_group_name_H-M "C M M M"
_symmetry_group_IT_number 65
_symmetry_cell_setting 'orthorhombic'
loop_
_space_group_symop_operation_xyz
x,y,z
-x,-y,z
x,-y,-z
-x,y,-z
-x,-y,-z
x,y,-z
-x,y,z
x,-y,z
1/2+x,1/2+y,z
1/2-x,1/2-y,z
1/2+x,1/2-y,-z
1/2-x,1/2+y,-z
1/2-x,1/2-y,-z
1/2+x,1/2+y,-z
1/2-x,1/2+y,z
1/2+x,1/2-y,z
loop_
_atom_site_type_symbol
_atom_site_label
_atom_site_fract_x
_atom_site_fract_y
_atom_site_fract_z
Si Si1 0.333991 0.500000 0.403737
Si Si2 0.664193 0.397540 0.318326
Si Si3 0.846284 0.558825 0.000000
Si Si4 0.161607 0.113190 0.126611
Si Si5 0.342599 0.700691 0.000000
Si Si6 0.657279 0.295911 0.400839
O O1 0.500000 0.500000 0.401053
O O2 0.281860 0.500000 0.500000
O O3 0.274007 0.549950 0.356004
O O4 0.500000 0.400297 0.328197
O O5 0.707952 0.387714 0.222802
O O6 0.721212 0.349397 0.370236
O O7 0.759152 0.572498 0.917742
O O8 0.870175 0.500000 0.000000
O O9 0.000000 0.585218 0.000000
O O10 0.187974 0.167906 0.083734
O O11 0.000000 0.097508 0.115579
O O12 0.250000 0.750000 0.000000
O O13 0.500000 0.719798 0.000000
O O14 0.659936 0.295997 0.500000
O O15 0.500000 0.288619 0.367023
O O16 0.750000 0.250000 0.364563
#
# Coordination Sequence:
#
# PCOD8272729 Si02
#       6
#     8  16   8  16   8  16
#     4   9  16  26  44  73 105 134 164 203 255 303
#     4   9  17  29  47  73 103 131 166 211 253 295
#     4  10  21  35  51  71  98 128 158 196 246 297
#     4   9  19  34  51  74  99 126 167 208 245 294
#     4   9  18  32  48  68  95 128 162 202 247 298
#     4   9  17  30  48  71 101 135 169 208 253 299
#
# _framework density 17.825679000000001
#
# number of rings (size 3 to 8) (size 9 to 14) (size 15 to 20)
#    0.000    2.889    0.000    1.667    1.556    6.222 
#    0.000    1.111    0.000    0.000    0.000    0.000 
#    0.000    5.333    0.000    0.000    0.000    0.000 
#
# Total GULP energy -446246.922631 kJ/mol
# GULP energy per Si atom -12395.747851 kJ/mol
# Density = 1.778511 g / cm^3
# Si number density = 17.825679 Si / 1000 Ang^3
#
#
#
# Elastic Constant Matrix: (Units=GPa)
#
#
# Indices 1 2 3 4 5 6 
#
# 1 58.7818 45.8283 26.1136 0.0000 0.0000 0.0000
# 2 45.8283 157.9492 61.3123 0.0000 0.0000 0.0000
# 3 26.1136 61.3123 91.8280 0.0000 0.0000 0.0000
# 4 0.0000 0.0000 0.0000 18.4439 0.0000 0.0000
# 5 0.0000 0.0000 0.0000 0.0000 3.9345 0.0000
# 6 0.0000 0.0000 0.0000 0.0000 0.0000 27.4356
#
#
#
# Elastic Compliance Matrix: (Units=1/GPa)
#
#
# Indices 1 2 3 4 5 6 
#
# 1 0.022489 -0.005457 -0.002752 0.000000 0.000000 0.000000
# 2 -0.005457 0.009870 -0.005038 0.000000 0.000000 0.000000
# 3 -0.002752 -0.005038 0.015037 0.000000 0.000000 0.000000
# 4 0.000000 0.000000 0.000000 0.054218 0.000000 0.000000
# 5 0.000000 0.000000 0.000000 0.000000 0.254164 0.000000
# 6 0.000000 0.000000 0.000000 0.000000 0.000000 0.036449
#
#
# Mechanical properties :
#
#
# Convention : Reuss Voigt Hill
#
# Bulk Modulus (GPa) = 47.84346 63.89636 55.86991
# Shear Modulus (GPa) = 11.74569 21.64979 16.69774
#
# Velocity S-wave (km/s) = 2.56973 3.48879 3.06391
# Velocity P-wave (km/s) = 5.97516 7.22162 6.62776
#
# Compressibility (1/GPa) = 0.02090150
#
# Stress axis : x y z
#
# Youngs Moduli (GPa) = 44.46636 101.31473 66.50460
#
# Poissons Ratio (x) = 0.55286 0.18301
# Poissons Ratio (y) = 0.24265 0.33508
# Poissons Ratio (z) = 0.12236 0.51047
#
# Static dielectric constant tensor:
#      x y z
#    x 3.152470 0.000000 0.000000 
#    y 0.000000 3.423270 0.000000 
#    z 0.000000 0.000000 3.459050 
# 
# 
# High freq. dielectric constant tensor:
#      x y z
#    x 1.649550 0.000000 0.000000 
#    y 0.000000 1.695650 0.000000 
#    z 0.000000 0.000000 1.691500 
# 
# From -- ./inp_files/36686.got.cif
#   From: 2010.03.12/outbox.cif.g09.slc.cpg/sg65_19_cif.got.tgz:36686.got - 2010.04.10 20:52:16.
