data_PCOD8272705
_publ_section_title
;
Structure prediction by ZEFSAII (Michael W. Deem and Ramdas Pophale) SiO2 
 PCOD8272705
Probable space group: C M M M
;
_chemical_formula_sum "Si O2"
_cell_formula_units_Z 80
_cell_length_a 9.146004
_cell_length_b 27.232466
_cell_length_c 18.469560
_cell_angle_alpha 90.000000
_cell_angle_beta 90.000000
_cell_angle_gamma 90.000000
_cell_volume 4600.180858
_symmetry_space_group_name_H-M "C M M M"
_symmetry_group_IT_number 65
_symmetry_cell_setting 'orthorhombic'
loop_
_space_group_symop_operation_xyz
x,y,z
-x,-y,z
x,-y,-z
-x,y,-z
-x,-y,-z
x,y,-z
-x,y,z
x,-y,z
1/2+x,1/2+y,z
1/2-x,1/2-y,z
1/2+x,1/2-y,-z
1/2-x,1/2+y,-z
1/2-x,1/2-y,-z
1/2+x,1/2+y,-z
1/2-x,1/2+y,z
1/2+x,1/2-y,z
loop_
_atom_site_type_symbol
_atom_site_label
_atom_site_fract_x
_atom_site_fract_y
_atom_site_fract_z
Si Si1 0.829881 0.056313 0.854304
Si Si2 0.829134 0.200790 0.205067
Si Si3 0.331639 0.856022 0.083101
Si Si4 0.172426 0.555198 0.418624
Si Si5 0.333032 0.394856 0.706892
O O1 0.733182 0.089283 0.907582
O O2 0.788497 0.068074 0.771296
O O3 0.000000 0.069090 0.867302
O O4 0.794649 0.000000 0.871589
O O5 0.750000 0.250000 0.231605
O O6 0.759136 0.182899 0.129852
O O7 0.803623 0.160718 0.267624
O O8 0.000000 0.210350 0.191539
O O9 0.500000 0.855995 0.108347
O O10 0.317048 0.840118 0.000000
O O11 0.221388 0.569279 0.500000
O O12 0.227043 0.500000 0.400280
O O13 0.238500 0.594468 0.363679
O O14 0.000000 0.557634 0.411825
O O15 0.500000 0.402852 0.685005
#
# Coordination Sequence:
#
# PCOD8272705 Si02
#       5
#    16  16  16  16  16
#     4   9  18  32  49  70  98 132 168 205 246 292
#     4  10  21  37  56  76  97 123 159 203 250 299
#     4  10  21  35  50  71  99 129 163 203 246 294
#     4   9  18  31  47  72 106 139 168 197 232 277
#     4   9  18  32  50  73  99 126 160 202 243 286
#
# _framework density 17.390620999999999
#
# number of rings (size 3 to 8) (size 9 to 14) (size 15 to 20)
#    0.000    2.600    0.000    3.600    0.000    8.400 
#    0.000    3.000    0.000    0.600    0.000    0.000 
#    0.000    0.000    0.000    0.000    0.000    0.000 
#
# Total GULP energy -496045.160016 kJ/mol
# GULP energy per Si atom -12401.129000 kJ/mol
# Density = 1.735104 g / cm^3
# Si number density = 17.390621 Si / 1000 Ang^3
#
#
#
# Elastic Constant Matrix: (Units=GPa)
#
#
# Indices 1 2 3 4 5 6 
#
# 1 88.6673 44.9190 47.9300 0.0000 0.0000 0.0000
# 2 44.9190 84.3775 35.2594 0.0000 0.0000 0.0000
# 3 47.9300 35.2594 89.6325 0.0000 0.0000 0.0000
# 4 0.0000 0.0000 0.0000 17.5266 0.0000 0.0000
# 5 0.0000 0.0000 0.0000 0.0000 32.6246 0.0000
# 6 0.0000 0.0000 0.0000 0.0000 0.0000 32.3174
#
#
#
# Elastic Compliance Matrix: (Units=1/GPa)
#
#
# Indices 1 2 3 4 5 6 
#
# 1 0.018726 -0.006922 -0.007290 0.000000 0.000000 0.000000
# 2 -0.006922 0.016742 -0.002884 0.000000 0.000000 0.000000
# 3 -0.007290 -0.002884 0.016190 0.000000 0.000000 0.000000
# 4 0.000000 0.000000 0.000000 0.057056 0.000000 0.000000
# 5 0.000000 0.000000 0.000000 0.000000 0.030652 0.000000
# 6 0.000000 0.000000 0.000000 0.000000 0.000000 0.030943
#
#
# Mechanical properties :
#
#
# Convention : Reuss Voigt Hill
#
# Bulk Modulus (GPa) = 57.26206 57.65491 57.45848
# Shear Modulus (GPa) = 23.77289 25.46498 24.61894
#
# Velocity S-wave (km/s) = 3.70130 3.83076 3.76659
# Velocity P-wave (km/s) = 7.15993 7.26575 7.21304
#
# Compressibility (1/GPa) = 0.01746357
#
# Stress axis : x y z
#
# Youngs Moduli (GPa) = 53.40202 59.73020 61.76773
#
# Poissons Ratio (x) = 0.41348 0.45031
# Poissons Ratio (y) = 0.36967 0.17815
# Poissons Ratio (z) = 0.38932 0.17228
#
# Static dielectric constant tensor:
#      x y z
#    x 3.249220 0.000000 0.000000 
#    y 0.000000 3.247190 0.000000 
#    z 0.000000 0.000000 3.074700 
# 
# 
# High freq. dielectric constant tensor:
#      x y z
#    x 1.676900 0.000000 0.000000 
#    y 0.000000 1.665140 0.000000 
#    z 0.000000 0.000000 1.658810 
# 
# From -- ./inp_files/49853.got.cif
#   From: 2010.03.12/outbox.cif.g09.slc.cpg/sg65_25_cif.got.tgz:49853.got - 2010.04.10 20:52:16.
