data_PCOD8272251
_publ_section_title
;
Structure prediction by ZEFSAII (Michael W. Deem and Ramdas Pophale) SiO2 
 PCOD8272251
Probable space group: C M M M
;
_chemical_formula_sum "Si O2"
_cell_formula_units_Z 80
_cell_length_a 18.221181
_cell_length_b 24.398271
_cell_length_c 9.301063
_cell_angle_alpha 90.000000
_cell_angle_beta 90.000000
_cell_angle_gamma 90.000000
_cell_volume 4134.929974
_symmetry_space_group_name_H-M "C M M M"
_symmetry_group_IT_number 65
_symmetry_cell_setting 'orthorhombic'
loop_
_space_group_symop_operation_xyz
x,y,z
-x,-y,z
x,-y,-z
-x,y,-z
-x,-y,-z
x,y,-z
-x,y,z
x,-y,z
1/2+x,1/2+y,z
1/2-x,1/2-y,z
1/2+x,1/2-y,-z
1/2-x,1/2+y,-z
1/2-x,1/2-y,-z
1/2+x,1/2+y,-z
1/2-x,1/2+y,z
1/2+x,1/2-y,z
loop_
_atom_site_type_symbol
_atom_site_label
_atom_site_fract_x
_atom_site_fract_y
_atom_site_fract_z
Si Si1 0.416079 0.500000 0.828849
Si Si2 0.916420 0.688569 0.336697
Si Si3 0.822656 0.897442 0.164983
Si Si4 0.085937 0.500000 0.340547
Si Si5 0.154225 0.403770 0.834795
Si Si6 0.682815 0.713331 0.663088
O O1 0.500000 0.500000 0.773409
O O2 0.375172 0.554764 0.771384
O O3 0.411835 0.500000 0.000000
O O4 0.908976 0.666242 0.500000
O O5 0.862571 0.655432 0.232020
O O6 0.891847 0.751704 0.330013
O O7 0.000000 0.683998 0.282915
O O8 0.739539 0.918377 0.179674
O O9 0.833343 0.841207 0.248929
O O10 0.842635 0.885361 0.000000
O O11 0.122056 0.500000 0.500000
O O12 0.107842 0.553260 0.253737
O O13 0.000000 0.500000 0.357812
O O14 0.129019 0.404815 0.000000
O O15 0.702915 0.696348 0.500000
O O16 0.750000 0.750000 0.726093
#
# Coordination Sequence:
#
# PCOD8272251 Si02
#       6
#     8  16  16   8  16  16
#     4   9  19  38  61  85 116 153 192 238 294 351
#     4  10  21  37  56  80 113 151 189 233 286 342
#     4  10  21  37  60  87 115 148 190 238 288 339
#     4  11  24  39  55  77 108 147 188 228 276 337
#     4  11  22  36  56  82 113 145 185 235 283 336
#     4  10  20  36  58  83 113 150 193 235 283 346
#
# _framework density 19.347363999999999
#
# number of rings (size 3 to 8) (size 9 to 14) (size 15 to 20)
#    0.000    1.800    2.000    2.100    0.000    8.000 
#    0.000    0.500    0.000    0.600    0.000    0.000 
#    0.000    0.000    0.000    0.000    0.000    0.000 
#
# Total GULP energy -496066.089141 kJ/mol
# GULP energy per Si atom -12401.652229 kJ/mol
# Density = 1.930333 g / cm^3
# Si number density = 19.347364 Si / 1000 Ang^3
#
#
#
# Elastic Constant Matrix: (Units=GPa)
#
#
# Indices 1 2 3 4 5 6 
#
# 1 106.6640 52.5426 38.8644 0.0000 0.0000 0.0000
# 2 52.5426 142.4702 60.5724 0.0000 0.0000 0.0000
# 3 38.8644 60.5724 97.1020 0.0000 0.0000 0.0000
# 4 0.0000 0.0000 0.0000 32.0389 0.0000 0.0000
# 5 0.0000 0.0000 0.0000 0.0000 22.2547 0.0000
# 6 0.0000 0.0000 0.0000 0.0000 0.0000 31.4297
#
#
#
# Elastic Compliance Matrix: (Units=1/GPa)
#
#
# Indices 1 2 3 4 5 6 
#
# 1 0.011982 -0.003239 -0.002775 0.000000 0.000000 0.000000
# 2 -0.003239 0.010428 -0.005209 0.000000 0.000000 0.000000
# 3 -0.002775 -0.005209 0.014658 0.000000 0.000000 0.000000
# 4 0.000000 0.000000 0.000000 0.031212 0.000000 0.000000
# 5 0.000000 0.000000 0.000000 0.000000 0.044934 0.000000
# 6 0.000000 0.000000 0.000000 0.000000 0.000000 0.031817
#
#
# Mechanical properties :
#
#
# Convention : Reuss Voigt Hill
#
# Bulk Modulus (GPa) = 68.38699 72.24390 70.31545
# Shear Modulus (GPa) = 29.01047 30.09513 29.55280
#
# Velocity S-wave (km/s) = 3.87648 3.94828 3.91254
# Velocity P-wave (km/s) = 7.44713 7.62933 7.53878
#
# Compressibility (1/GPa) = 0.01462266
#
# Stress axis : x y z
#
# Youngs Moduli (GPa) = 83.45888 95.89522 68.22050
#
# Poissons Ratio (x) = 0.31061 0.18932
# Poissons Ratio (y) = 0.27032 0.35534
# Poissons Ratio (z) = 0.23161 0.49948
#
# Static dielectric constant tensor:
#      x y z
#    x 3.601200 0.000000 0.000000 
#    y 0.000000 3.667880 0.000000 
#    z 0.000000 0.000000 3.475230 
# 
# 
# High freq. dielectric constant tensor:
#      x y z
#    x 1.754920 0.000000 0.000000 
#    y 0.000000 1.757770 0.000000 
#    z 0.000000 0.000000 1.739860 
# 
# From -- ./inp_files/9682.got.cif
#   From: 2010.03.12/outbox.cif.g09.slc.cpg/sg65_5_cif.got.tgz:9682.got - 2010.04.10 20:52:16.
