data_PCOD8272083
_publ_section_title
;
Structure prediction by ZEFSAII (Michael W. Deem and Ramdas Pophale) SiO2 
 PCOD8272083
Probable space group: C M M M
;
_chemical_formula_sum "Si O2"
_cell_formula_units_Z 104
_cell_length_a 27.099256
_cell_length_b 20.857569
_cell_length_c 9.571574
_cell_angle_alpha 90.000000
_cell_angle_beta 90.000000
_cell_angle_gamma 90.000000
_cell_volume 5410.089103
_symmetry_space_group_name_H-M "C M M M"
_symmetry_group_IT_number 65
_symmetry_cell_setting 'orthorhombic'
loop_
_space_group_symop_operation_xyz
x,y,z
-x,-y,z
x,-y,-z
-x,y,-z
-x,-y,-z
x,y,-z
-x,y,z
x,-y,z
1/2+x,1/2+y,z
1/2-x,1/2-y,z
1/2+x,1/2-y,-z
1/2-x,1/2+y,-z
1/2-x,1/2-y,-z
1/2+x,1/2+y,-z
1/2-x,1/2+y,z
1/2+x,1/2-y,z
loop_
_atom_site_type_symbol
_atom_site_label
_atom_site_fract_x
_atom_site_fract_y
_atom_site_fract_z
Si Si1 0.795041 0.574626 0.335640
Si Si2 0.441284 0.925907 0.000000
Si Si3 0.057143 0.235719 0.660443
Si Si4 0.447977 0.071437 0.500000
Si Si5 0.606522 0.133395 0.263457
Si Si6 0.595082 0.618459 0.163939
Si Si7 0.057867 0.000000 0.658149
Si Si8 0.298437 0.426591 0.842725
O O1 0.792188 0.588303 0.500000
O O2 0.807155 0.500000 0.304351
O O3 0.834724 0.621473 0.262063
O O4 0.742981 0.593966 0.267529
O O5 0.419525 0.883656 0.121797
O O6 0.500000 0.923917 0.000000
O O7 0.422978 0.000000 0.000000
O O8 0.064287 0.212082 0.500000
O O9 0.092813 0.295802 0.686233
O O10 0.073319 0.183068 0.772086
O O11 0.000000 0.253962 0.687181
O O12 0.500000 0.112348 0.500000
O O13 0.414670 0.081685 0.632032
O O14 0.465748 0.000000 0.500000
O O15 0.573054 0.561498 0.254186
O O16 0.654286 0.618690 0.179488
O O17 0.580162 0.612229 0.000000
O O18 0.081118 0.000000 0.500000
O O19 0.000000 0.000000 0.641029
O O20 0.315371 0.500000 0.817421
O O21 0.277505 0.418654 0.000000
#
# Coordination Sequence:
#
# PCOD8272083 Si02
#       8
#    16   8  16   8  16  16   8  16
#     4  10  20  35  59  92 122 156 205 256 309 369
#     4  11  24  38  56  86 121 157 207 265 320 372
#     4  11  24  42  62  87 123 170 214 251 305 374
#     4  11  20  34  60  86 113 155 205 257 312 362
#     4  12  23  39  59  85 125 165 207 255 309 367
#     4  11  23  41  65  93 125 162 208 257 311 373
#     4  11  23  39  63  97 133 163 199 255 316 371
#     4   9  19  38  62  89 121 156 196 249 313 375
#
# _framework density 19.223344000000001
#
# number of rings (size 3 to 8) (size 9 to 14) (size 15 to 20)
#    0.000    1.308    2.308    3.923    2.154    5.231 
#    0.000    0.769    0.000    3.692    0.000    0.000 
#    0.000    0.000    0.000    0.000    0.000    0.000 
#
# Total GULP energy -644640.596579 kJ/mol
# GULP energy per Si atom -12396.934550 kJ/mol
# Density = 1.917959 g / cm^3
# Si number density = 19.223344 Si / 1000 Ang^3
#
#
#
# Elastic Constant Matrix: (Units=GPa)
#
#
# Indices 1 2 3 4 5 6 
#
# 1 97.5212 38.2588 46.2791 0.0000 0.0000 0.0000
# 2 38.2588 83.9197 41.7323 0.0000 0.0000 0.0000
# 3 46.2791 41.7323 138.6364 0.0000 0.0000 0.0000
# 4 0.0000 0.0000 0.0000 24.1084 0.0000 0.0000
# 5 0.0000 0.0000 0.0000 0.0000 51.3231 0.0000
# 6 0.0000 0.0000 0.0000 0.0000 0.0000 31.3564
#
#
#
# Elastic Compliance Matrix: (Units=1/GPa)
#
#
# Indices 1 2 3 4 5 6 
#
# 1 0.013554 -0.004621 -0.003134 0.000000 0.000000 0.000000
# 2 -0.004621 0.015589 -0.003150 0.000000 0.000000 0.000000
# 3 -0.003134 -0.003150 0.009207 0.000000 0.000000 0.000000
# 4 0.000000 0.000000 0.000000 0.041479 0.000000 0.000000
# 5 0.000000 0.000000 0.000000 0.000000 0.019484 0.000000
# 6 0.000000 0.000000 0.000000 0.000000 0.000000 0.031891
#
#
# Mechanical properties :
#
#
# Convention : Reuss Voigt Hill
#
# Bulk Modulus (GPa) = 60.45412 63.62418 62.03915
# Shear Modulus (GPa) = 31.53991 34.27805 32.90898
#
# Velocity S-wave (km/s) = 4.05496 4.22731 4.14203
# Velocity P-wave (km/s) = 7.31028 7.54958 7.43089
#
# Compressibility (1/GPa) = 0.01654147
#
# Stress axis : x y z
#
# Youngs Moduli (GPa) = 73.77841 64.14623 108.60820
#
# Poissons Ratio (x) = 0.29642 0.34033
# Poissons Ratio (y) = 0.34093 0.34213
# Poissons Ratio (z) = 0.23119 0.20207
#
# Static dielectric constant tensor:
#      x y z
#    x 3.618040 0.000000 0.000000 
#    y 0.000000 3.352030 0.000000 
#    z 0.000000 0.000000 3.745750 
# 
# 
# High freq. dielectric constant tensor:
#      x y z
#    x 1.753770 0.000000 0.000000 
#    y 0.000000 1.728760 0.000000 
#    z 0.000000 0.000000 1.764080 
# 
# From -- ./inp_files/16543.got.cif
#   From: 2010.03.12/outbox.cif.g09.slc.cpg/sg65_9_cif.got.tgz:16543.got - 2010.04.10 20:52:16.
