data_PCOD8272416
_publ_section_title
;
Structure prediction by ZEFSAII (Michael W. Deem and Ramdas Pophale) SiO2 
 PCOD8272416
Probable space group: C M M M
;
_chemical_formula_sum "Si O2"
_cell_formula_units_Z 128
_cell_length_a 23.906677
_cell_length_b 18.038831
_cell_length_c 15.660939
_cell_angle_alpha 90.000000
_cell_angle_beta 90.000000
_cell_angle_gamma 90.000000
_cell_volume 6753.756549
_symmetry_space_group_name_H-M "C M M M"
_symmetry_group_IT_number 65
_symmetry_cell_setting 'orthorhombic'
loop_
_space_group_symop_operation_xyz
x,y,z
-x,-y,z
x,-y,-z
-x,y,-z
-x,-y,-z
x,y,-z
-x,y,z
x,-y,z
1/2+x,1/2+y,z
1/2-x,1/2-y,z
1/2+x,1/2-y,-z
1/2-x,1/2+y,-z
1/2-x,1/2-y,-z
1/2+x,1/2+y,-z
1/2-x,1/2+y,z
1/2+x,1/2-y,z
loop_
_atom_site_type_symbol
_atom_site_label
_atom_site_fract_x
_atom_site_fract_y
_atom_site_fract_z
Si Si1 0.266619 0.331976 0.659662
Si Si2 0.236041 0.913482 0.827538
Si Si3 0.385926 0.661794 0.596768
Si Si4 0.305546 0.201799 0.093668
Si Si5 0.632156 0.343247 0.901381
Si Si6 0.562357 0.182846 0.601343
Si Si7 0.435559 0.414946 0.753840
Si Si8 0.340094 0.081946 0.400423
O O1 0.250000 0.250000 0.692660
O O2 0.286539 0.383631 0.737430
O O3 0.319003 0.326203 0.595878
O O4 0.214836 0.369372 0.612520
O O5 0.294569 0.870027 0.846870
O O6 0.187508 0.895228 0.895631
O O7 0.249323 0.000000 0.825056
O O8 0.403618 0.639229 0.500000
O O9 0.416748 0.736059 0.627756
O O10 0.403562 0.599883 0.664919
O O11 0.250000 0.250000 0.089384
O O12 0.354052 0.257757 0.125504
O O13 0.321008 0.171494 0.000000
O O14 0.584979 0.368567 0.835567
O O15 0.611411 0.347602 0.000000
O O16 0.561831 0.177012 0.500000
O O17 0.500000 0.168842 0.638366
O O18 0.605391 0.122232 0.640004
O O19 0.500000 0.395990 0.739210
O O20 0.425247 0.500000 0.777484
O O21 0.349947 0.073260 0.500000
O O22 0.333511 0.000000 0.358621
#
# Coordination Sequence:
#
# PCOD8272416 Si02
#       8
#    16  16  16  16  16  16  16  16
#     4  12  22  35  56  79 111 152 193 238 293 342
#     4  11  21  32  51  83 117 149 186 227 279 345
#     4  11  23  39  61  83 108 149 201 247 289 343
#     4   8  16  31  52  79 109 145 184 218 265 330
#     4  10  20  37  60  83 112 150 190 232 282 341
#     4   9  18  34  56  80 104 137 184 232 283 347
#     4  11  25  42  58  82 114 147 192 246 296 344
#     4  10  21  35  51  77 110 140 177 231 293 356
#
# _framework density 18.952414999999998
#
# number of rings (size 3 to 8) (size 9 to 14) (size 15 to 20)
#    0.000    1.750    2.500    3.750    0.000    4.250 
#    0.000    2.500    0.000    0.000    0.000    0.000 
#    0.000    0.500    0.000    2.750    0.000    0.000 
#
# Total GULP energy -793351.423206 kJ/mol
# GULP energy per Si atom -12396.115988 kJ/mol
# Density = 1.890928 g / cm^3
# Si number density = 18.952415 Si / 1000 Ang^3
#
#
#
# Elastic Constant Matrix: (Units=GPa)
#
#
# Indices 1 2 3 4 5 6 
#
# 1 111.8204 41.5446 20.1521 0.0000 0.0000 0.0000
# 2 41.5446 115.9987 29.1037 0.0000 0.0000 0.0000
# 3 20.1521 29.1037 76.7435 0.0000 0.0000 0.0000
# 4 0.0000 0.0000 0.0000 19.8442 0.0000 0.0000
# 5 0.0000 0.0000 0.0000 0.0000 16.7425 0.0000
# 6 0.0000 0.0000 0.0000 0.0000 0.0000 27.5095
#
#
#
# Elastic Compliance Matrix: (Units=1/GPa)
#
#
# Indices 1 2 3 4 5 6 
#
# 1 0.010463 -0.003379 -0.001466 0.000000 0.000000 0.000000
# 2 -0.003379 0.010619 -0.003140 0.000000 0.000000 0.000000
# 3 -0.001466 -0.003140 0.014606 0.000000 0.000000 0.000000
# 4 0.000000 0.000000 0.000000 0.050393 0.000000 0.000000
# 5 0.000000 0.000000 0.000000 0.000000 0.059728 0.000000
# 6 0.000000 0.000000 0.000000 0.000000 0.000000 0.036351
#
#
# Mechanical properties :
#
#
# Convention : Reuss Voigt Hill
#
# Bulk Modulus (GPa) = 50.71562 54.01816 52.36689
# Shear Modulus (GPa) = 24.42581 27.07005 25.74793
#
# Velocity S-wave (km/s) = 3.59388 3.78341 3.68986
# Velocity P-wave (km/s) = 6.63617 6.90286 6.77083
#
# Compressibility (1/GPa) = 0.01971779
#
# Stress axis : x y z
#
# Youngs Moduli (GPa) = 95.57832 94.17235 68.46511
#
# Poissons Ratio (x) = 0.31825 0.10036
# Poissons Ratio (y) = 0.32300 0.21495
# Poissons Ratio (z) = 0.14010 0.29566
#
# Static dielectric constant tensor:
#      x y z
#    x 3.453590 0.000000 0.000000 
#    y 0.000000 3.660080 0.000000 
#    z 0.000000 0.000000 3.330520 
# 
# 
# High freq. dielectric constant tensor:
#      x y z
#    x 1.718230 0.000000 0.000000 
#    y 0.000000 1.734920 0.000000 
#    z 0.000000 0.000000 1.721590 
# 
# From -- ./inp_files/57025.got.cif
#   From: 2010.03.12/outbox.cif.g09.slc.cpg/sg65_29_cif.got.tgz:57025.got - 2010.04.10 20:52:16.
