data_PCOD8272957
_publ_section_title
;
Structure prediction by ZEFSAII (Michael W. Deem and Ramdas Pophale) SiO2 
 PCOD8272957
Probable space group: C M M M
;
_chemical_formula_sum "Si O2"
_cell_formula_units_Z 104
_cell_length_a 32.481252
_cell_length_b 19.799611
_cell_length_c 9.139968
_cell_angle_alpha 90.000000
_cell_angle_beta 90.000000
_cell_angle_gamma 90.000000
_cell_volume 5878.061071
_symmetry_space_group_name_H-M "C M M M"
_symmetry_group_IT_number 65
_symmetry_cell_setting 'orthorhombic'
loop_
_space_group_symop_operation_xyz
x,y,z
-x,-y,z
x,-y,-z
-x,y,-z
-x,-y,-z
x,y,-z
-x,y,z
x,-y,z
1/2+x,1/2+y,z
1/2-x,1/2-y,z
1/2+x,1/2-y,-z
1/2-x,1/2+y,-z
1/2-x,1/2-y,-z
1/2+x,1/2+y,-z
1/2-x,1/2+y,z
1/2+x,1/2-y,z
loop_
_atom_site_type_symbol
_atom_site_label
_atom_site_fract_x
_atom_site_fract_y
_atom_site_fract_z
Si Si1 0.066769 0.651321 0.173175
Si Si2 0.133635 0.826192 0.666469
Si Si3 0.807071 0.077414 0.829549
Si Si4 0.223917 0.577087 0.329390
Si Si5 0.851567 0.670951 0.669274
Si Si6 0.000000 0.577426 0.339808
Si Si7 0.954732 0.783927 0.666896
O O1 0.113046 0.641446 0.228402
O O2 0.046948 0.721776 0.222913
O O3 0.040291 0.592836 0.245606
O O4 0.065202 0.645862 0.000000
O O5 0.142762 0.847515 0.500000
O O6 0.155202 0.878058 0.774009
O O7 0.151726 0.751297 0.696203
O O8 0.084400 0.831922 0.700161
O O9 0.764901 0.099924 0.753478
O O10 0.817362 0.000000 0.792163
O O11 0.801487 0.089624 0.000000
O O12 0.233429 0.582109 0.500000
O O13 0.210948 0.500000 0.287229
O O14 0.189383 0.631140 0.283130
O O15 0.862164 0.656315 0.500000
O O16 0.000000 0.500000 0.373354
O O17 0.000000 0.614783 0.500000
O O18 0.949552 0.757445 0.500000
O O19 0.000000 0.819432 0.686241
#
# Coordination Sequence:
#
# PCOD8272957 Si02
#       7
#    16  16  16  16  16   8  16
#     4  11  21  32  49  74 102 131 166 212 263 308
#     4   9  18  32  52  79 105 134 173 214 255 302
#     4  10  21  36  53  74 103 137 170 210 263 319
#     4   9  18  34  56  77  98 133 179 217 252 305
#     4   9  19  35  53  76 106 137 172 214 259 307
#     4  11  23  37  51  65  89 133 182 221 260 307
#     4   9  17  32  55  77 102 135 168 204 250 305
#
# _framework density 17.692907999999999
#
# number of rings (size 3 to 8) (size 9 to 14) (size 15 to 20)
#    0.000    2.385    0.769    3.000    0.000    5.846 
#    0.000    4.615    0.000    0.462    0.000    3.231 
#    0.000    0.000    0.000    0.000    0.000    0.000 
#
# Total GULP energy -644629.054423 kJ/mol
# GULP energy per Si atom -12396.712585 kJ/mol
# Density = 1.765264 g / cm^3
# Si number density = 17.692908 Si / 1000 Ang^3
#
#
#
# Elastic Constant Matrix: (Units=GPa)
#
#
# Indices 1 2 3 4 5 6 
#
# 1 157.0197 64.6468 63.0703 0.0000 0.0000 0.0000
# 2 64.6468 63.1105 39.1145 0.0000 0.0000 0.0000
# 3 63.0703 39.1145 101.6708 0.0000 0.0000 0.0000
# 4 0.0000 0.0000 0.0000 19.5267 0.0000 0.0000
# 5 0.0000 0.0000 0.0000 0.0000 -22.2932 0.0000
# 6 0.0000 0.0000 0.0000 0.0000 0.0000 25.4715
#
#
#
# Elastic Compliance Matrix: (Units=1/GPa)
#
#
# Indices 1 2 3 4 5 6 
#
# 1 0.011910 -0.010007 -0.003538 0.000000 0.000000 0.000000
# 2 -0.010007 0.029214 -0.005032 0.000000 0.000000 0.000000
# 3 -0.003538 -0.005032 0.013966 0.000000 0.000000 0.000000
# 4 0.000000 0.000000 0.000000 0.051212 0.000000 0.000000
# 5 0.000000 0.000000 0.000000 0.000000 -0.044857 0.000000
# 6 0.000000 0.000000 0.000000 0.000000 0.000000 0.039259
#
#
# Mechanical properties :
#
#
# Convention : Reuss Voigt Hill
#
# Bulk Modulus (GPa) = 55.75110 72.82936 64.29023
# Shear Modulus (GPa) = 34.76162 14.87230 24.81696
#
# Velocity S-wave (km/s) = 4.43733 2.90242 3.74926
# Velocity P-wave (km/s) = 7.60473 7.24462 7.42686
#
# Compressibility (1/GPa) = 0.01793687
#
# Stress axis : x y z
#
# Youngs Moduli (GPa) = 83.96500 34.23024 71.60063
#
# Poissons Ratio (x) = 0.34253 0.25335
# Poissons Ratio (y) = 0.84021 0.36027
# Poissons Ratio (z) = 0.29709 0.17223
#
# Static dielectric constant tensor:
#      x y z
#    x 3.484840 0.000000 0.000000 
#    y 0.000000 3.044200 0.000000 
#    z 0.000000 0.000000 3.251110 
# 
# 
# High freq. dielectric constant tensor:
#      x y z
#    x 1.694220 0.000000 0.000000 
#    y 0.000000 1.653980 0.000000 
#    z 0.000000 0.000000 1.685150 
# 
# From -- ./inp_files/18620.got.cif
#   From: 2010.03.12/outbox.cif.g09.slc.cpg/sg65_10_cif.got.tgz:18620.got - 2010.04.10 20:52:16.
