data_PCOD8272439
_publ_section_title
;
Structure prediction by ZEFSAII (Michael W. Deem and Ramdas Pophale) SiO2 
 PCOD8272439
Probable space group: C M M M
;
_chemical_formula_sum "Si O2"
_cell_formula_units_Z 72
_cell_length_a 11.838481
_cell_length_b 30.558219
_cell_length_c 10.569482
_cell_angle_alpha 90.000000
_cell_angle_beta 90.000000
_cell_angle_gamma 90.000000
_cell_volume 3823.646407
_symmetry_space_group_name_H-M "C M M M"
_symmetry_group_IT_number 65
_symmetry_cell_setting 'orthorhombic'
loop_
_space_group_symop_operation_xyz
x,y,z
-x,-y,z
x,-y,-z
-x,y,-z
-x,-y,-z
x,y,-z
-x,y,z
x,-y,z
1/2+x,1/2+y,z
1/2-x,1/2-y,z
1/2+x,1/2-y,-z
1/2-x,1/2+y,-z
1/2-x,1/2-y,-z
1/2+x,1/2+y,-z
1/2-x,1/2+y,z
1/2+x,1/2-y,z
loop_
_atom_site_type_symbol
_atom_site_label
_atom_site_fract_x
_atom_site_fract_y
_atom_site_fract_z
Si Si1 0.000000 0.341700 0.355741
Si Si2 0.124036 0.051973 0.000000
Si Si3 0.737406 0.949767 0.763443
Si Si4 0.000000 0.581855 0.153209
Si Si5 0.235988 0.702302 0.353879
Si Si6 0.874096 0.878053 0.646300
O O1 0.107159 0.311299 0.337136
O O2 0.000000 0.362621 0.500000
O O3 0.000000 0.375308 0.239474
O O4 0.188781 0.068870 0.121652
O O5 0.000000 0.072482 0.000000
O O6 0.121790 0.000000 0.000000
O O7 0.607475 0.946334 0.803681
O O8 0.783371 0.918185 0.653542
O O9 0.763071 0.000000 0.726725
O O10 0.000000 0.590644 0.000000
O O11 0.269619 0.706374 0.500000
O O12 0.250000 0.750000 0.288175
O O13 0.318400 0.665587 0.290862
O O14 0.889178 0.868928 0.500000
O O15 0.000000 0.887711 0.704206
#
# Coordination Sequence:
#
# PCOD8272439 Si02
#       6
#     8   8  16   8  16  16
#     4  10  20  37  61  87 118 152 191 240 295 354
#     4   9  18  33  53  75  98 130 180 237 280 323
#     4  11  22  36  55  79 108 146 193 240 285 337
#     4  12  23  38  60  86 118 158 200 247 293 340
#     4   9  18  32  55  85 112 142 185 237 289 342
#     4  10  21  36  54  81 117 150 185 236 296 357
#
# _framework density 18.830193000000001
#
# number of rings (size 3 to 8) (size 9 to 14) (size 15 to 20)
#    0.000    1.889    3.333    1.000    1.556    2.222 
#    0.000    1.111    0.000    2.667    0.000    0.000 
#    0.000    0.000    0.000    0.000    0.000    0.000 
#
# Total GULP energy -446008.175687 kJ/mol
# GULP energy per Si atom -12389.115991 kJ/mol
# Density = 1.878733 g / cm^3
# Si number density = 18.830193 Si / 1000 Ang^3
#
#
#
# Elastic Constant Matrix: (Units=GPa)
#
#
# Indices 1 2 3 4 5 6 
#
# 1 152.3493 49.7855 18.8490 0.0000 0.0000 0.0000
# 2 49.7855 138.1973 25.1791 0.0000 0.0000 0.0000
# 3 18.8490 25.1791 36.0334 0.0000 0.0000 0.0000
# 4 0.0000 0.0000 0.0000 10.5290 0.0000 0.0000
# 5 0.0000 0.0000 0.0000 0.0000 26.5890 0.0000
# 6 0.0000 0.0000 0.0000 0.0000 0.0000 -11.3287
#
#
#
# Elastic Compliance Matrix: (Units=1/GPa)
#
#
# Indices 1 2 3 4 5 6 
#
# 1 0.007612 -0.002311 -0.002367 0.000000 0.000000 0.000000
# 2 -0.002311 0.008993 -0.005075 0.000000 0.000000 0.000000
# 3 -0.002367 -0.005075 0.032537 0.000000 0.000000 0.000000
# 4 0.000000 0.000000 0.000000 0.094976 0.000000 0.000000
# 5 0.000000 0.000000 0.000000 0.000000 0.037610 0.000000
# 6 0.000000 0.000000 0.000000 0.000000 0.000000 -0.088271
#
#
# Mechanical properties :
#
#
# Convention : Reuss Voigt Hill
#
# Bulk Modulus (GPa) = 33.74349 57.13413 45.43881
# Shear Modulus (GPa) = 40.70297 20.67560 30.68928
#
# Velocity S-wave (km/s) = 4.65432 3.31721 4.04145
# Velocity P-wave (km/s) = 6.84415 6.71412 6.77945
#
# Compressibility (1/GPa) = 0.02963535
#
# Stress axis : x y z
#
# Youngs Moduli (GPa) = 131.37347 111.19424 30.73446
#
# Poissons Ratio (x) = 0.25696 0.07275
# Poissons Ratio (y) = 0.30359 0.15599
# Poissons Ratio (z) = 0.31095 0.56436
#
# Static dielectric constant tensor:
#      x y z
#    x 3.917110 0.000000 0.000000 
#    y 0.000000 3.470920 0.000000 
#    z 0.000000 0.000000 3.246160 
# 
# 
# High freq. dielectric constant tensor:
#      x y z
#    x 1.757020 0.000000 0.000000 
#    y 0.000000 1.725410 0.000000 
#    z 0.000000 0.000000 1.687530 
# 
# From -- ./inp_files/22540.got.cif
#   From: 2010.03.12/outbox.cif.g09.slc.cpg/sg65_12_cif.got.tgz:22540.got - 2010.04.10 20:52:16.
