data_PCOD8272409
_publ_section_title
;
Structure prediction by ZEFSAII (Michael W. Deem and Ramdas Pophale) SiO2 
 PCOD8272409
Probable space group: C M M M
;
_chemical_formula_sum "Si O2"
_cell_formula_units_Z 64
_cell_length_a 27.600256
_cell_length_b 8.895670
_cell_length_c 12.804468
_cell_angle_alpha 90.000000
_cell_angle_beta 90.000000
_cell_angle_gamma 90.000000
_cell_volume 3143.788443
_symmetry_space_group_name_H-M "C M M M"
_symmetry_group_IT_number 65
_symmetry_cell_setting 'orthorhombic'
loop_
_space_group_symop_operation_xyz
x,y,z
-x,-y,z
x,-y,-z
-x,y,-z
-x,-y,-z
x,y,-z
-x,y,z
x,-y,z
1/2+x,1/2+y,z
1/2-x,1/2-y,z
1/2+x,1/2-y,-z
1/2-x,1/2+y,-z
1/2-x,1/2-y,-z
1/2+x,1/2+y,-z
1/2-x,1/2+y,z
1/2+x,1/2-y,z
loop_
_atom_site_type_symbol
_atom_site_label
_atom_site_fract_x
_atom_site_fract_y
_atom_site_fract_z
Si Si1 0.442683 0.328039 0.000000
Si Si2 0.106916 0.676513 0.194809
Si Si3 0.697420 0.676359 0.727214
Si Si4 0.057369 0.170272 0.382193
Si Si5 0.699616 0.671232 0.500000
O O1 0.423817 0.246318 0.102284
O O2 0.425007 0.500000 0.000000
O O3 0.500000 0.317452 0.000000
O O4 0.110940 0.500000 0.178776
O O5 0.160870 0.746804 0.191625
O O6 0.080808 0.711534 0.303905
O O7 0.701800 0.500000 0.750910
O O8 0.750000 0.750000 0.738930
O O9 0.673599 0.707964 0.610766
O O10 0.076206 0.201985 0.500000
O O11 0.000000 0.188552 0.378198
O O12 0.072146 0.000000 0.349558
O O13 0.714302 0.500000 0.500000
O O14 0.750000 0.750000 0.500000
#
# Coordination Sequence:
#
# PCOD8272409 Si02
#       5
#     8  16  16  16   8
#     4  11  25  47  72  93 116 155 207 259 311 369
#     4  12  25  39  60  92 126 161 202 251 310 370
#     4  10  20  37  59  87 123 165 210 255 303 359
#     4   9  19  37  60  86 119 160 204 250 303 365
#     4   8  16  30  52  80 113 156 201 246 292 343
#
# _framework density 20.357605
#
# number of rings (size 3 to 8) (size 9 to 14) (size 15 to 20)
#    0.000    1.875    0.000    4.875    1.750    6.000 
#    0.000    1.875    0.000    0.000    0.000    0.000 
#    0.000    0.000    0.000    0.000    0.000    0.000 
#
# Total GULP energy -396691.372915 kJ/mol
# GULP energy per Si atom -12396.605404 kJ/mol
# Density = 2.031127 g / cm^3
# Si number density = 20.357605 Si / 1000 Ang^3
#
#
#
# Elastic Constant Matrix: (Units=GPa)
#
#
# Indices 1 2 3 4 5 6 
#
# 1 66.8926 55.3776 44.3201 0.0000 0.0000 0.0000
# 2 55.3776 151.3517 55.3434 0.0000 0.0000 0.0000
# 3 44.3201 55.3434 89.2754 0.0000 0.0000 0.0000
# 4 0.0000 0.0000 0.0000 140.0137 0.0000 0.0000
# 5 0.0000 0.0000 0.0000 0.0000 39.0051 0.0000
# 6 0.0000 0.0000 0.0000 0.0000 0.0000 34.3368
#
#
#
# Elastic Compliance Matrix: (Units=1/GPa)
#
#
# Indices 1 2 3 4 5 6 
#
# 1 0.026152 -0.006235 -0.009118 0.000000 0.000000 0.000000
# 2 -0.006235 0.010030 -0.003123 0.000000 0.000000 0.000000
# 3 -0.009118 -0.003123 0.017664 0.000000 0.000000 0.000000
# 4 0.000000 0.000000 0.000000 0.007142 0.000000 0.000000
# 5 0.000000 0.000000 0.000000 0.000000 0.025638 0.000000
# 6 0.000000 0.000000 0.000000 0.000000 0.000000 0.029123
#
#
# Mechanical properties :
#
#
# Convention : Reuss Voigt Hill
#
# Bulk Modulus (GPa) = 59.18878 68.62246 63.90562
# Shear Modulus (GPa) = 31.57941 52.83635 42.20788
#
# Velocity S-wave (km/s) = 3.94284 5.10004 4.55831
# Velocity P-wave (km/s) = 7.06156 8.27419 7.69181
#
# Compressibility (1/GPa) = 0.01689509
#
# Stress axis : x y z
#
# Youngs Moduli (GPa) = 38.23827 99.69961 56.61325
#
# Poissons Ratio (x) = 0.62158 0.51620
# Poissons Ratio (y) = 0.23840 0.17679
# Poissons Ratio (z) = 0.34866 0.31134
#
# Static dielectric constant tensor:
#      x y z
#    x 3.636550 0.000000 0.000000 
#    y 0.000000 3.679540 0.000000 
#    z 0.000000 0.000000 3.875270 
# 
# 
# High freq. dielectric constant tensor:
#      x y z
#    x 1.805200 0.000000 0.000000 
#    y 0.000000 1.795230 0.000000 
#    z 0.000000 0.000000 1.787820 
# 
# From -- ./inp_files/33233.got.cif
#   From: 2010.03.12/outbox.cif.g09.slc.cpg/sg65_17_cif.got.tgz:33233.got - 2010.04.10 20:52:16.
