data_PCOD8272121
_publ_section_title
;
Structure prediction by ZEFSAII (Michael W. Deem and Ramdas Pophale) SiO2 
 PCOD8272121
Probable space group: C M M M
;
_chemical_formula_sum "Si O2"
_cell_formula_units_Z 72
_cell_length_a 8.886967
_cell_length_b 15.534323
_cell_length_c 27.891332
_cell_angle_alpha 90.000000
_cell_angle_beta 90.000000
_cell_angle_gamma 90.000000
_cell_volume 3850.482499
_symmetry_space_group_name_H-M "C M M M"
_symmetry_group_IT_number 65
_symmetry_cell_setting 'orthorhombic'
loop_
_space_group_symop_operation_xyz
x,y,z
-x,-y,z
x,-y,-z
-x,y,-z
-x,-y,-z
x,y,-z
-x,y,z
x,-y,z
1/2+x,1/2+y,z
1/2-x,1/2-y,z
1/2+x,1/2-y,-z
1/2-x,1/2+y,-z
1/2-x,1/2-y,-z
1/2+x,1/2+y,-z
1/2-x,1/2+y,z
1/2+x,1/2-y,z
loop_
_atom_site_type_symbol
_atom_site_label
_atom_site_fract_x
_atom_site_fract_y
_atom_site_fract_z
Si Si1 0.821244 0.500000 0.276578
Si Si2 0.677393 0.837989 0.554896
Si Si3 0.320564 0.500000 0.054236
Si Si4 0.676068 0.662205 0.112943
Si Si5 0.177620 0.839636 0.223678
Si Si6 0.178152 0.500000 0.613340
O O1 0.752580 0.415450 0.253199
O O2 0.771307 0.500000 0.331770
O O3 0.000000 0.500000 0.270090
O O4 0.723843 0.856102 0.500000
O O5 0.500000 0.829428 0.560403
O O6 0.750000 0.750000 0.573905
O O7 0.742864 0.915311 0.587147
O O8 0.500000 0.500000 0.055879
O O9 0.258132 0.415802 0.081350
O O10 0.259799 0.500000 0.000000
O O11 0.500000 0.671896 0.105400
O O12 0.750000 0.750000 0.094492
O O13 0.716015 0.643792 0.168120
O O14 0.250000 0.750000 0.240962
O O15 0.000000 0.837529 0.233056
O O16 0.000000 0.500000 0.608009
#
# Coordination Sequence:
#
# PCOD8272121 Si02
#       6
#     8  16   8  16  16   8
#     4  11  22  35  52  77 108 139 172 211 258 309
#     4   9  17  32  54  76  98 128 166 205 245 291
#     4   9  17  30  49  73 102 135 165 195 242 303
#     4   9  18  33  53  75  98 128 167 209 250 295
#     4  10  20  36  56  77 102 134 175 218 259 304
#     4   9  19  34  51  73 102 135 167 200 244 301
#
# _framework density 18.698954000000001
#
# number of rings (size 3 to 8) (size 9 to 14) (size 15 to 20)
#    0.000    2.556    0.000    2.000    0.000    5.333 
#    0.000    5.556    0.000    3.333    0.000    0.000 
#    0.000    0.000    0.000    0.000    0.000    0.000 
#
# Total GULP energy -446454.051229 kJ/mol
# GULP energy per Si atom -12401.501423 kJ/mol
# Density = 1.865639 g / cm^3
# Si number density = 18.698954 Si / 1000 Ang^3
#
#
#
# Elastic Constant Matrix: (Units=GPa)
#
#
# Indices 1 2 3 4 5 6 
#
# 1 43.6156 50.3116 38.9298 0.0000 0.0000 0.0000
# 2 50.3116 219.4971 111.4112 0.0000 0.0000 0.0000
# 3 38.9298 111.4112 118.6578 0.0000 0.0000 0.0000
# 4 0.0000 0.0000 0.0000 -12.7295 0.0000 0.0000
# 5 0.0000 0.0000 0.0000 0.0000 18.3104 0.0000
# 6 0.0000 0.0000 0.0000 0.0000 0.0000 36.4728
#
#
#
# Elastic Compliance Matrix: (Units=1/GPa)
#
#
# Indices 1 2 3 4 5 6 
#
# 1 0.034252 -0.004102 -0.007386 0.000000 0.000000 0.000000
# 2 -0.004102 0.009195 -0.007288 0.000000 0.000000 0.000000
# 3 -0.007386 -0.007288 0.017694 0.000000 0.000000 0.000000
# 4 0.000000 0.000000 0.000000 -0.078557 0.000000 0.000000
# 5 0.000000 0.000000 0.000000 0.000000 0.054614 0.000000
# 6 0.000000 0.000000 0.000000 0.000000 0.000000 0.027418
#
#
# Mechanical properties :
#
#
# Convention : Reuss Voigt Hill
#
# Bulk Modulus (GPa) = 42.39277 87.00842 64.70060
# Shear Modulus (GPa) = 45.44238 20.48526 32.96382
#
# Velocity S-wave (km/s) = 4.93506 3.31347 4.20321
# Velocity P-wave (km/s) = 7.42924 7.82758 7.63101
#
# Compressibility (1/GPa) = 0.02358893
#
# Stress axis : x y z
#
# Youngs Moduli (GPa) = 29.19548 108.75200 56.51756
#
# Poissons Ratio (x) = 0.44610 0.41744
# Poissons Ratio (y) = 0.11976 0.41189
# Poissons Ratio (z) = 0.21564 0.79257
#
# Static dielectric constant tensor:
#      x y z
#    x 3.205770 0.000000 0.000000 
#    y 0.000000 3.303190 0.000000 
#    z 0.000000 0.000000 3.504300 
# 
# 
# High freq. dielectric constant tensor:
#      x y z
#    x 1.702860 0.000000 0.000000 
#    y 0.000000 1.744490 0.000000 
#    z 0.000000 0.000000 1.721700 
# 
# From -- ./inp_files/72591.got.cif
#   From: 2010.03.12/outbox.cif.g09.slc.cpg/sg65_37_cif.got.tgz:72591.got - 2010.04.10 20:52:16.
