data_PCOD8272863
_publ_section_title
;
Structure prediction by ZEFSAII (Michael W. Deem and Ramdas Pophale) SiO2 
 PCOD8272863
Probable space group: C M M M
;
_chemical_formula_sum "Si O2"
_cell_formula_units_Z 56
_cell_length_a 19.226758
_cell_length_b 7.700818
_cell_length_c 19.235695
_cell_angle_alpha 90.000000
_cell_angle_beta 90.000000
_cell_angle_gamma 90.000000
_cell_volume 2848.070935
_symmetry_space_group_name_H-M "C M M M"
_symmetry_group_IT_number 65
_symmetry_cell_setting 'orthorhombic'
loop_
_space_group_symop_operation_xyz
x,y,z
-x,-y,z
x,-y,-z
-x,y,-z
-x,-y,-z
x,y,-z
-x,y,z
x,-y,z
1/2+x,1/2+y,z
1/2-x,1/2-y,z
1/2+x,1/2-y,-z
1/2-x,1/2+y,-z
1/2-x,1/2-y,-z
1/2+x,1/2+y,-z
1/2-x,1/2+y,z
1/2+x,1/2-y,z
loop_
_atom_site_type_symbol
_atom_site_label
_atom_site_fract_x
_atom_site_fract_y
_atom_site_fract_z
Si Si1 0.322679 0.192972 0.696351
Si Si2 0.920487 0.203278 0.576626
Si Si3 0.079973 0.000000 0.917806
Si Si4 0.328913 0.792832 0.849483
O O1 0.250000 0.250000 0.662002
O O2 0.381130 0.202748 0.638155
O O3 0.339727 0.282408 0.770175
O O4 0.312585 0.000000 0.721230
O O5 0.892251 0.257641 0.500000
O O6 0.000000 0.260014 0.582440
O O7 0.911470 0.000000 0.587161
O O8 0.117646 0.822255 0.893729
O O9 0.000000 0.000000 0.890605
O O10 0.081648 0.000000 0.000000
O O11 0.250000 0.750000 0.872939
O O12 0.344719 0.000000 0.859406
#
# Coordination Sequence:
#
# PCOD8272863 Si02
#       4
#    16  16   8  16
#     4  10  21  35  57  84 112 147 190 241 295 344
#     4   9  19  35  53  76 109 150 194 238 288 348
#     4  11  26  44  64  96 132 166 204 249 310 372
#     4  10  21  41  66  94 125 162 211 258 303 368
#
# _framework density 19.662431000000002
#
# number of rings (size 3 to 8) (size 9 to 14) (size 15 to 20)
#    0.000    2.143    1.429    1.714    4.000    4.571 
#    0.000    5.714    0.000    0.000    0.000    0.000 
#    0.000    0.000    0.000    0.000    0.000    0.000 
#
# Total GULP energy -346932.477183 kJ/mol
# GULP energy per Si atom -12390.445614 kJ/mol
# Density = 1.961768 g / cm^3
# Si number density = 19.662431 Si / 1000 Ang^3
#
#
#
# Elastic Constant Matrix: (Units=GPa)
#
#
# Indices 1 2 3 4 5 6 
#
# 1 109.6035 47.8655 55.9847 0.0000 0.0000 0.0000
# 2 47.8655 95.0668 33.9961 0.0000 0.0000 0.0000
# 3 55.9847 33.9961 92.6104 0.0000 0.0000 0.0000
# 4 0.0000 0.0000 0.0000 29.2489 0.0000 0.0000
# 5 0.0000 0.0000 0.0000 0.0000 56.5710 0.0000
# 6 0.0000 0.0000 0.0000 0.0000 0.0000 29.2557
#
#
#
# Elastic Compliance Matrix: (Units=1/GPa)
#
#
# Indices 1 2 3 4 5 6 
#
# 1 0.014987 -0.004957 -0.007240 0.000000 0.000000 0.000000
# 2 -0.004957 0.013748 -0.002050 0.000000 0.000000 0.000000
# 3 -0.007240 -0.002050 0.015927 0.000000 0.000000 0.000000
# 4 0.000000 0.000000 0.000000 0.034189 0.000000 0.000000
# 5 0.000000 0.000000 0.000000 0.000000 0.017677 0.000000
# 6 0.000000 0.000000 0.000000 0.000000 0.000000 0.034181
#
#
# Mechanical properties :
#
#
# Convention : Reuss Voigt Hill
#
# Bulk Modulus (GPa) = 61.85192 63.66369 62.75781
# Shear Modulus (GPa) = 30.37804 33.64409 32.01106
#
# Velocity S-wave (km/s) = 3.93489 4.14101 4.03926
# Velocity P-wave (km/s) = 7.22285 7.43725 7.33083
#
# Compressibility (1/GPa) = 0.01616765
#
# Stress axis : x y z
#
# Youngs Moduli (GPa) = 66.72606 72.73952 62.78495
#
# Poissons Ratio (x) = 0.36054 0.45458
# Poissons Ratio (y) = 0.33073 0.12873
# Poissons Ratio (z) = 0.48311 0.14914
#
# Static dielectric constant tensor:
#      x y z
#    x 3.544270 0.000000 0.000000 
#    y 0.000000 3.672360 0.000000 
#    z 0.000000 0.000000 2.769970 
# 
# 
# High freq. dielectric constant tensor:
#      x y z
#    x 1.756190 0.000000 0.000000 
#    y 0.000000 1.772590 0.000000 
#    z 0.000000 0.000000 1.768280 
# 
# From -- ./inp_files/48742.got.cif
#   From: 2010.03.12/outbox.cif.g09.slc.cpg/sg65_25_cif.got.tgz:48742.got - 2010.04.10 20:52:16.
