data_PCOD8272526
_publ_section_title
;
Structure prediction by ZEFSAII (Michael W. Deem and Ramdas Pophale) SiO2 
 PCOD8272526
Probable space group: C M M M
;
_chemical_formula_sum "Si O2"
_cell_formula_units_Z 90
_cell_length_a 22.723016
_cell_length_b 8.771004
_cell_length_c 22.543257
_cell_angle_alpha 90.000000
_cell_angle_beta 90.000000
_cell_angle_gamma 90.000000
_cell_volume 4492.953724
_symmetry_space_group_name_H-M "C M M M"
_symmetry_group_IT_number 65
_symmetry_cell_setting 'orthorhombic'
loop_
_space_group_symop_operation_xyz
x,y,z
-x,-y,z
x,-y,-z
-x,y,-z
-x,-y,-z
x,y,-z
-x,y,z
x,-y,z
1/2+x,1/2+y,z
1/2-x,1/2-y,z
1/2+x,1/2-y,-z
1/2-x,1/2+y,-z
1/2-x,1/2-y,-z
1/2+x,1/2+y,-z
1/2-x,1/2+y,z
1/2+x,1/2-y,z
loop_
_atom_site_type_symbol
_atom_site_label
_atom_site_fract_x
_atom_site_fract_y
_atom_site_fract_z
Si Si1 0.883197 0.323713 0.931324
Si Si2 0.380905 0.335149 0.500000
Si Si3 0.627037 0.824290 0.274209
Si Si4 0.000000 0.179106 0.882120
Si Si5 0.000000 0.327948 0.243067
Si Si6 0.188812 0.179137 0.167581
Si Si7 0.500000 0.500000 0.500000
Si Si8 0.685989 0.180828 0.395800
O O1 0.888062 0.500000 0.914015
O O2 0.943816 0.244516 0.915177
O O3 0.829938 0.248506 0.895310
O O4 0.868739 0.299968 0.000000
O O5 0.347888 0.500000 0.500000
O O6 0.451382 0.362259 0.500000
O O7 0.361391 0.241941 0.557787
O O8 0.557053 0.801491 0.284602
O O9 0.641882 0.720381 0.217939
O O10 0.662871 0.767268 0.331258
O O11 0.642284 0.000000 0.260027
O O12 0.000000 0.216232 0.812717
O O13 0.000000 0.000000 0.889878
O O14 0.000000 0.500000 0.217422
O O15 0.250000 0.250000 0.188277
O O16 0.194330 0.000000 0.160998
O O17 0.750000 0.250000 0.407933
O O18 0.689545 0.000000 0.400977
#
# Coordination Sequence:
#
# PCOD8272526 Si02
#       8
#    16   8  16   8   8  16   2  16
#     4  11  24  42  64  88 118 159 204 255 318 383
#     4  10  22  44  68  94 135 178 222 269 330 381
#     4  10  22  40  64  95 131 169 214 261 321 382
#     4  12  23  37  61  94 125 156 203 254 313 380
#     4  10  20  38  64  89 125 171 208 257 315 387
#     4  12  25  41  63  88 122 162 207 261 320 382
#     4   8  24  44  70  96 136 184 222 274 338 388
#     4  11  23  40  67 102 136 177 225 275 325 387
#
# _framework density 20.031365999999998
#
# number of rings (size 3 to 8) (size 9 to 14) (size 15 to 20)
#    0.267    0.889    1.778    4.800    0.000    6.400 
#    0.000    1.778    0.000    0.000    0.000    0.000 
#    0.000    0.000    0.000    0.000    0.000    0.000 
#
# Total GULP energy -557648.676243 kJ/mol
# GULP energy per Si atom -12392.192805 kJ/mol
# Density = 1.998577 g / cm^3
# Si number density = 20.031366 Si / 1000 Ang^3
#
#
#
# Elastic Constant Matrix: (Units=GPa)
#
#
# Indices 1 2 3 4 5 6 
#
# 1 133.0554 43.7370 40.1842 0.0000 0.0000 0.0000
# 2 43.7370 131.8613 51.2412 0.0000 0.0000 0.0000
# 3 40.1842 51.2412 102.0083 0.0000 0.0000 0.0000
# 4 0.0000 0.0000 0.0000 21.5085 0.0000 0.0000
# 5 0.0000 0.0000 0.0000 0.0000 28.5712 0.0000
# 6 0.0000 0.0000 0.0000 0.0000 0.0000 33.2423
#
#
#
# Elastic Compliance Matrix: (Units=1/GPa)
#
#
# Indices 1 2 3 4 5 6 
#
# 1 0.008929 -0.001982 -0.002522 0.000000 0.000000 0.000000
# 2 -0.001982 0.009863 -0.004174 0.000000 0.000000 0.000000
# 3 -0.002522 -0.004174 0.012893 0.000000 0.000000 0.000000
# 4 0.000000 0.000000 0.000000 0.046493 0.000000 0.000000
# 5 0.000000 0.000000 0.000000 0.000000 0.035000 0.000000
# 6 0.000000 0.000000 0.000000 0.000000 0.000000 0.030082
#
#
# Mechanical properties :
#
#
# Convention : Reuss Voigt Hill
#
# Bulk Modulus (GPa) = 69.78222 70.80553 70.29387
# Shear Modulus (GPa) = 30.23129 32.11525 31.17327
#
# Velocity S-wave (km/s) = 3.88905 4.00840 3.94918
# Velocity P-wave (km/s) = 7.42148 7.53970 7.48083
#
# Compressibility (1/GPa) = 0.01433030
#
# Stress axis : x y z
#
# Youngs Moduli (GPa) = 111.99883 101.38991 77.56040
#
# Poissons Ratio (x) = 0.20091 0.19560
# Poissons Ratio (y) = 0.22193 0.32372
# Poissons Ratio (z) = 0.28245 0.42318
#
# Static dielectric constant tensor:
#      x y z
#    x 3.769430 0.000000 0.000000 
#    y 0.000000 3.723600 0.000000 
#    z 0.000000 0.000000 3.586100 
# 
# 
# High freq. dielectric constant tensor:
#      x y z
#    x 1.795440 0.000000 0.000000 
#    y 0.000000 1.791860 0.000000 
#    z 0.000000 0.000000 1.773090 
# 
# From -- ./inp_files/65315.got.cif
#   From: 2010.03.12/outbox.cif.g09.slc.cpg/sg65_33_cif.got.tgz:65315.got - 2010.04.10 20:52:16.
