data_PCOD8272425
_publ_section_title
;
Structure prediction by ZEFSAII (Michael W. Deem and Ramdas Pophale) SiO2 
 PCOD8272425
Probable space group: C M M M
;
_chemical_formula_sum "Si O2"
_cell_formula_units_Z 64
_cell_length_a 9.642918
_cell_length_b 38.374438
_cell_length_c 9.067079
_cell_angle_alpha 90.000000
_cell_angle_beta 90.000000
_cell_angle_gamma 90.000000
_cell_volume 3355.196048
_symmetry_space_group_name_H-M "C M M M"
_symmetry_group_IT_number 65
_symmetry_cell_setting 'orthorhombic'
loop_
_space_group_symop_operation_xyz
x,y,z
-x,-y,z
x,-y,-z
-x,y,-z
-x,-y,-z
x,y,-z
-x,y,z
x,-y,z
1/2+x,1/2+y,z
1/2-x,1/2-y,z
1/2+x,1/2-y,-z
1/2-x,1/2+y,-z
1/2-x,1/2-y,-z
1/2+x,1/2+y,-z
1/2-x,1/2+y,z
1/2+x,1/2-y,z
loop_
_atom_site_type_symbol
_atom_site_label
_atom_site_fract_x
_atom_site_fract_y
_atom_site_fract_z
Si Si1 0.660672 0.842704 0.827004
Si Si2 0.000000 0.462083 0.825752
Si Si3 0.239844 0.080299 0.172338
Si Si4 0.000000 0.960023 0.674062
Si Si5 0.338618 0.283584 0.674144
O O1 0.500000 0.841104 0.770817
O O2 0.730699 0.879609 0.791468
O O3 0.760386 0.815805 0.746347
O O4 0.662576 0.835011 0.000000
O O5 0.129808 0.440889 0.771755
O O6 0.000000 0.500000 0.750763
O O7 0.000000 0.465434 0.000000
O O8 0.124711 0.063374 0.271721
O O9 0.204921 0.075196 0.000000
O O10 0.000000 0.962099 0.500000
O O11 0.000000 0.000000 0.737862
O O12 0.334898 0.288565 0.500000
O O13 0.500000 0.280649 0.727774
O O14 0.250000 0.250000 0.722998
#
# Coordination Sequence:
#
# PCOD8272425 Si02
#       5
#    16   8  16   8  16
#     4  10  21  38  60  88 121 152 188 239 293 344
#     4   9  16  30  57  87 110 139 188 243 286 329
#     4  10  20  37  60  86 114 149 194 240 288 344
#     4  11  25  41  55  79 118 157 194 241 294 349
#     4  10  22  40  62  88 118 155 198 238 279 336
#
# _framework density 19.074891999999998
#
# number of rings (size 3 to 8) (size 9 to 14) (size 15 to 20)
#    0.000    2.000    1.250    1.875    1.750    5.500 
#    0.000    0.625    0.000    2.250    0.000    0.000 
#    0.000    0.000    0.000    0.000    0.000    0.000 
#
# Total GULP energy -396584.356415 kJ/mol
# GULP energy per Si atom -12393.261138 kJ/mol
# Density = 1.903148 g / cm^3
# Si number density = 19.074892 Si / 1000 Ang^3
#
#
#
# Elastic Constant Matrix: (Units=GPa)
#
#
# Indices 1 2 3 4 5 6 
#
# 1 178.3906 87.5400 45.7453 0.0000 0.0000 0.0000
# 2 87.5400 158.3319 44.8091 0.0000 0.0000 0.0000
# 3 45.7453 44.8091 36.2135 0.0000 0.0000 0.0000
# 4 0.0000 0.0000 0.0000 30.7482 0.0000 0.0000
# 5 0.0000 0.0000 0.0000 0.0000 8.5914 0.0000
# 6 0.0000 0.0000 0.0000 0.0000 0.0000 38.6174
#
#
#
# Elastic Compliance Matrix: (Units=1/GPa)
#
#
# Indices 1 2 3 4 5 6 
#
# 1 0.008985 -0.002702 -0.008007 0.000000 0.000000 0.000000
# 2 -0.002702 0.010532 -0.009619 0.000000 0.000000 0.000000
# 3 -0.008007 -0.009619 0.049630 0.000000 0.000000 0.000000
# 4 0.000000 0.000000 0.000000 0.032522 0.000000 0.000000
# 5 0.000000 0.000000 0.000000 0.000000 0.116396 0.000000
# 6 0.000000 0.000000 0.000000 0.000000 0.000000 0.025895
#
#
# Mechanical properties :
#
#
# Convention : Reuss Voigt Hill
#
# Bulk Modulus (GPa) = 35.09731 81.01387 58.05559
# Shear Modulus (GPa) = 17.00039 28.58082 22.79060
#
# Velocity S-wave (km/s) = 2.98861 3.87505 3.46033
# Velocity P-wave (km/s) = 5.50897 7.91107 6.81666
#
# Compressibility (1/GPa) = 0.02849221
#
# Stress axis : x y z
#
# Youngs Moduli (GPa) = 111.30231 94.95140 20.14911
#
# Poissons Ratio (x) = 0.25651 0.16133
# Poissons Ratio (y) = 0.30069 0.19381
# Poissons Ratio (z) = 0.89115 0.91333
#
# Static dielectric constant tensor:
#      x y z
#    x 3.687730 0.000000 0.000000 
#    y 0.000000 3.795760 0.000000 
#    z 0.000000 0.000000 3.210060 
# 
# 
# High freq. dielectric constant tensor:
#      x y z
#    x 1.762040 0.000000 0.000000 
#    y 0.000000 1.761300 0.000000 
#    z 0.000000 0.000000 1.714730 
# 
# From -- ./inp_files/20970.got.cif
#   From: 2010.03.12/outbox.cif.g09.slc.cpg/sg65_11_cif.got.tgz:20970.got - 2010.04.10 20:52:16.
