data_PCOD8272030
_publ_section_title
;
Structure prediction by ZEFSAII (Michael W. Deem and Ramdas Pophale) SiO2 
 PCOD8272030
Probable space group: C M M M
;
_chemical_formula_sum "Si O2"
_cell_formula_units_Z 64
_cell_length_a 22.184803
_cell_length_b 18.283544
_cell_length_c 7.963790
_cell_angle_alpha 90.000000
_cell_angle_beta 90.000000
_cell_angle_gamma 90.000000
_cell_volume 3230.247189
_symmetry_space_group_name_H-M "C M M M"
_symmetry_group_IT_number 65
_symmetry_cell_setting 'orthorhombic'
loop_
_space_group_symop_operation_xyz
x,y,z
-x,-y,z
x,-y,-z
-x,y,-z
-x,-y,-z
x,y,-z
-x,y,z
x,-y,z
1/2+x,1/2+y,z
1/2-x,1/2-y,z
1/2+x,1/2-y,-z
1/2-x,1/2+y,-z
1/2-x,1/2-y,-z
1/2+x,1/2+y,-z
1/2-x,1/2+y,z
1/2+x,1/2-y,z
loop_
_atom_site_type_symbol
_atom_site_label
_atom_site_fract_x
_atom_site_fract_y
_atom_site_fract_z
Si Si1 0.932639 0.912743 0.000000
Si Si2 0.000000 0.580428 0.698705
Si Si3 0.754040 0.333109 0.191790
Si Si4 0.143233 0.085196 0.313801
Si Si5 0.130835 0.414256 0.303023
O O1 0.900401 0.882889 0.169050
O O2 0.000000 0.880899 0.000000
O O3 0.933741 0.000000 0.000000
O O4 0.935973 0.616861 0.752048
O O5 0.000000 0.500000 0.778801
O O6 0.000000 0.572809 0.500000
O O7 0.750000 0.250000 0.255460
O O8 0.708986 0.379425 0.305851
O O9 0.821208 0.365017 0.205761
O O10 0.732595 0.338688 0.000000
O O11 0.115757 0.100234 0.500000
O O12 0.152791 0.000000 0.283095
O O13 0.141093 0.403551 0.500000
O O14 0.137495 0.500000 0.255270
#
# Coordination Sequence:
#
# PCOD8272030 Si02
#       5
#     8   8  16  16  16
#     4   9  18  34  57  84 114 143 173 224 282 324
#     4   7  12  26  49  77 107 133 162 207 262 322
#     4  11  23  36  51  73 107 148 186 226 278 329
#     4  10  20  35  58  85 110 141 184 228 274 331
#     4   9  17  31  54  81 105 135 175 218 269 327
#
# _framework density 19.812725
#
# number of rings (size 3 to 8) (size 9 to 14) (size 15 to 20)
#    0.000    2.500    1.250    3.000    0.000    6.000 
#    0.000    3.125    2.750    2.250    0.000    0.000 
#    0.000    0.000    0.000    0.000    0.000    0.000 
#
# Total GULP energy -396563.119812 kJ/mol
# GULP energy per Si atom -12392.597494 kJ/mol
# Density = 1.976763 g / cm^3
# Si number density = 19.812725 Si / 1000 Ang^3
#
#
#
# Elastic Constant Matrix: (Units=GPa)
#
#
# Indices 1 2 3 4 5 6 
#
# 1 156.6518 43.1975 50.0540 0.0000 0.0000 0.0000
# 2 43.1975 55.5828 30.0878 0.0000 0.0000 0.0000
# 3 50.0540 30.0878 100.2722 0.0000 0.0000 0.0000
# 4 0.0000 0.0000 0.0000 12.9434 0.0000 0.0000
# 5 0.0000 0.0000 0.0000 0.0000 27.2487 0.0000
# 6 0.0000 0.0000 0.0000 0.0000 0.0000 5.1294
#
#
#
# Elastic Compliance Matrix: (Units=1/GPa)
#
#
# Indices 1 2 3 4 5 6 
#
# 1 0.008725 -0.005281 -0.002771 0.000000 0.000000 0.000000
# 2 -0.005281 0.024677 -0.004768 0.000000 0.000000 0.000000
# 3 -0.002771 -0.004768 0.012787 0.000000 0.000000 0.000000
# 4 0.000000 0.000000 0.000000 0.077259 0.000000 0.000000
# 5 0.000000 0.000000 0.000000 0.000000 0.036699 0.000000
# 6 0.000000 0.000000 0.000000 0.000000 0.000000 0.194954
#
#
# Mechanical properties :
#
#
# Convention : Reuss Voigt Hill
#
# Bulk Modulus (GPa) = 48.66597 62.13170 55.39884
# Shear Modulus (GPa) = 12.90021 21.67549 17.28785
#
# Velocity S-wave (km/s) = 2.55445 3.31118 2.95712
# Velocity P-wave (km/s) = 5.77205 6.78573 6.29931
#
# Compressibility (1/GPa) = 0.02054824
#
# Stress axis : x y z
#
# Youngs Moduli (GPa) = 114.61039 40.52416 78.20597
#
# Poissons Ratio (x) = 0.21401 0.21669
# Poissons Ratio (y) = 0.60527 0.37291
# Poissons Ratio (z) = 0.31756 0.19323
#
# Static dielectric constant tensor:
#      x y z
#    x 3.843080 0.000000 0.000000 
#    y 0.000000 3.202890 0.000000 
#    z 0.000000 0.000000 3.561090 
# 
# 
# High freq. dielectric constant tensor:
#      x y z
#    x 1.780730 0.000000 0.000000 
#    y 0.000000 1.725570 0.000000 
#    z 0.000000 0.000000 1.770000 
# 
# From -- ./inp_files/10849.got.cif
#   From: 2010.03.12/outbox.cif.g09.slc.cpg/sg65_6_cif.got.tgz:10849.got - 2010.04.10 20:52:16.
