data_PCOD8272993
_publ_section_title
;
Structure prediction by ZEFSAII (Michael W. Deem and Ramdas Pophale) SiO2 
 PCOD8272993
Probable space group: C M M M
;
_chemical_formula_sum "Si O2"
_cell_formula_units_Z 72
_cell_length_a 8.922988
_cell_length_b 28.929851
_cell_length_c 14.951965
_cell_angle_alpha 90.000000
_cell_angle_beta 90.000000
_cell_angle_gamma 90.000000
_cell_volume 3859.710911
_symmetry_space_group_name_H-M "C M M M"
_symmetry_group_IT_number 65
_symmetry_cell_setting 'orthorhombic'
loop_
_space_group_symop_operation_xyz
x,y,z
-x,-y,z
x,-y,-z
-x,y,-z
-x,-y,-z
x,y,-z
-x,y,z
x,-y,z
1/2+x,1/2+y,z
1/2-x,1/2-y,z
1/2+x,1/2-y,-z
1/2-x,1/2+y,-z
1/2-x,1/2-y,-z
1/2+x,1/2+y,-z
1/2-x,1/2+y,z
1/2+x,1/2-y,z
loop_
_atom_site_type_symbol
_atom_site_label
_atom_site_fract_x
_atom_site_fract_y
_atom_site_fract_z
Si Si1 0.333253 0.554509 0.000000
Si Si2 0.324500 0.701916 0.100624
Si Si3 0.326674 0.797471 0.395094
Si Si4 0.676453 0.053234 0.819047
Si Si5 0.822661 0.863886 0.260452
O O1 0.243610 0.570542 0.086896
O O2 0.349222 0.500000 0.000000
O O3 0.500000 0.577411 0.000000
O O4 0.500000 0.709949 0.106712
O O5 0.250000 0.750000 0.128062
O O6 0.272300 0.663310 0.170977
O O7 0.276734 0.686595 0.000000
O O8 0.305920 0.805307 0.500000
O O9 0.500000 0.795614 0.367193
O O10 0.250000 0.750000 0.363729
O O11 0.244277 0.839676 0.347496
O O12 0.500000 0.060703 0.821248
O O13 0.751910 0.084775 0.742960
O O14 0.717736 0.000000 0.799088
O O15 0.000000 0.867569 0.270030
#
# Coordination Sequence:
#
# PCOD8272993 Si02
#       5
#     8  16  16  16  16
#     4   9  17  31  51  73 100 137 182 231 279 323
#     4   9  19  34  49  70 103 141 178 215 258 312
#     4  10  21  38  60  85 114 145 179 225 279 333
#     4  10  21  36  53  76 108 145 187 234 280 329
#     4  11  22  34  55  82 109 144 184 229 276 331
#
# _framework density 18.654247000000002
#
# number of rings (size 3 to 8) (size 9 to 14) (size 15 to 20)
#    0.000    2.111    0.000    3.000    1.556    7.556 
#    0.000    0.000    0.000    0.667    0.000    4.667 
#    0.000    0.000    0.000    0.000    0.000    0.000 
#
# Total GULP energy -446504.079177 kJ/mol
# GULP energy per Si atom -12402.891088 kJ/mol
# Density = 1.861179 g / cm^3
# Si number density = 18.654247 Si / 1000 Ang^3
#
#
#
# Elastic Constant Matrix: (Units=GPa)
#
#
# Indices 1 2 3 4 5 6 
#
# 1 106.6519 60.0886 43.6525 0.0000 0.0000 0.0000
# 2 60.0886 107.3240 49.0565 0.0000 0.0000 0.0000
# 3 43.6525 49.0565 59.6656 0.0000 0.0000 0.0000
# 4 0.0000 0.0000 0.0000 30.2843 0.0000 0.0000
# 5 0.0000 0.0000 0.0000 0.0000 30.4857 0.0000
# 6 0.0000 0.0000 0.0000 0.0000 0.0000 33.7160
#
#
#
# Elastic Compliance Matrix: (Units=1/GPa)
#
#
# Indices 1 2 3 4 5 6 
#
# 1 0.015157 -0.005475 -0.006588 0.000000 0.000000 0.000000
# 2 -0.005475 0.016905 -0.009894 0.000000 0.000000 0.000000
# 3 -0.006588 -0.009894 0.029714 0.000000 0.000000 0.000000
# 4 0.000000 0.000000 0.000000 0.033020 0.000000 0.000000
# 5 0.000000 0.000000 0.000000 0.000000 0.032802 0.000000
# 6 0.000000 0.000000 0.000000 0.000000 0.000000 0.029660
#
#
# Mechanical properties :
#
#
# Convention : Reuss Voigt Hill
#
# Bulk Modulus (GPa) = 55.97924 64.35963 60.16943
# Shear Modulus (GPa) = 24.13977 26.95346 25.54661
#
# Velocity S-wave (km/s) = 3.60121 3.80530 3.70466
# Velocity P-wave (km/s) = 6.88227 7.34053 7.11509
#
# Compressibility (1/GPa) = 0.01786377
#
# Stress axis : x y z
#
# Youngs Moduli (GPa) = 65.97426 59.15320 33.65379
#
# Poissons Ratio (x) = 0.32387 0.22171
# Poissons Ratio (y) = 0.36122 0.33296
# Poissons Ratio (z) = 0.43463 0.58524
#
# Static dielectric constant tensor:
#      x y z
#    x 3.511420 0.000000 0.000000 
#    y 0.000000 3.504870 0.000000 
#    z 0.000000 0.000000 3.330060 
# 
# 
# High freq. dielectric constant tensor:
#      x y z
#    x 1.736360 0.000000 0.000000 
#    y 0.000000 1.721910 0.000000 
#    z 0.000000 0.000000 1.704480 
# 
# From -- ./inp_files/36564.got.cif
#   From: 2010.03.12/outbox.cif.g09.slc.cpg/sg65_19_cif.got.tgz:36564.got - 2010.04.10 20:52:16.
