data_PCOD8272203
_publ_section_title
;
Structure prediction by ZEFSAII (Michael W. Deem and Ramdas Pophale) SiO2 
 PCOD8272203
Probable space group: C M M M
;
_chemical_formula_sum "Si O2"
_cell_formula_units_Z 88
_cell_length_a 22.307326
_cell_length_b 24.145914
_cell_length_c 8.892581
_cell_angle_alpha 90.000000
_cell_angle_beta 90.000000
_cell_angle_gamma 90.000000
_cell_volume 4789.817797
_symmetry_space_group_name_H-M "C M M M"
_symmetry_group_IT_number 65
_symmetry_cell_setting 'orthorhombic'
loop_
_space_group_symop_operation_xyz
x,y,z
-x,-y,z
x,-y,-z
-x,y,-z
-x,-y,-z
x,y,-z
-x,y,z
x,-y,z
1/2+x,1/2+y,z
1/2-x,1/2-y,z
1/2+x,1/2-y,-z
1/2-x,1/2+y,-z
1/2-x,1/2-y,-z
1/2+x,1/2+y,-z
1/2-x,1/2+y,z
1/2+x,1/2-y,z
loop_
_atom_site_type_symbol
_atom_site_label
_atom_site_fract_x
_atom_site_fract_y
_atom_site_fract_z
Si Si1 0.712989 0.436110 0.327380
Si Si2 0.000000 0.065433 0.327044
Si Si3 0.851107 0.436099 0.327843
Si Si4 0.890292 0.126400 0.823250
Si Si5 0.929965 0.765251 0.325436
Si Si6 0.068687 0.347982 0.825639
O O1 0.694520 0.425030 0.500000
O O2 0.701408 0.500000 0.286895
O O3 0.782022 0.420548 0.300977
O O4 0.674378 0.398070 0.217474
O O5 0.940860 0.088786 0.251064
O O6 0.000000 0.084366 0.500000
O O7 0.000000 0.000000 0.309592
O O8 0.869083 0.424136 0.500000
O O9 0.862335 0.500000 0.288184
O O10 0.891752 0.400448 0.217708
O O11 0.892715 0.188974 0.764036
O O12 0.899922 0.126118 0.000000
O O13 0.914407 0.769777 0.500000
O O14 0.909578 0.705250 0.267707
O O15 0.000000 0.775323 0.293323
O O16 0.000000 0.362192 0.786702
O O17 0.077034 0.334374 0.000000
#
# Coordination Sequence:
#
# PCOD8272203 Si02
#       6
#    16   8  16  16  16  16
#     4   9  19  37  58  78 106 146 188 228 272 327
#     4  11  23  37  53  75 107 147 190 233 274 321
#     4   9  19  37  60  84 110 144 186 227 268 322
#     4  12  23  34  53  81 112 143 181 231 282 329
#     4  10  20  36  58  79 105 145 189 227 271 329
#     4  10  21  36  56  84 117 146 176 221 278 332
#
# _framework density 18.372306999999999
#
# number of rings (size 3 to 8) (size 9 to 14) (size 15 to 20)
#    0.000    1.909    0.909    4.636    0.000    6.545 
#    0.000    4.545    0.000    5.455    0.000    0.000 
#    0.000    0.000    0.000    0.000    0.000    0.000 
#
# Total GULP energy -545819.904093 kJ/mol
# GULP energy per Si atom -12404.997820 kJ/mol
# Density = 1.833049 g / cm^3
# Si number density = 18.372307 Si / 1000 Ang^3
#
#
#
# Elastic Constant Matrix: (Units=GPa)
#
#
# Indices 1 2 3 4 5 6 
#
# 1 76.2046 55.0859 45.5070 0.0000 0.0000 0.0000
# 2 55.0859 102.5181 59.3999 0.0000 0.0000 0.0000
# 3 45.5070 59.3999 115.5122 0.0000 0.0000 0.0000
# 4 0.0000 0.0000 0.0000 16.9628 0.0000 0.0000
# 5 0.0000 0.0000 0.0000 0.0000 27.4066 0.0000
# 6 0.0000 0.0000 0.0000 0.0000 0.0000 23.7998
#
#
#
# Elastic Compliance Matrix: (Units=1/GPa)
#
#
# Indices 1 2 3 4 5 6 
#
# 1 0.022559 -0.009931 -0.003780 0.000000 0.000000 0.000000
# 2 -0.009931 0.018266 -0.005481 0.000000 0.000000 0.000000
# 3 -0.003780 -0.005481 0.012965 0.000000 0.000000 0.000000
# 4 0.000000 0.000000 0.000000 0.058952 0.000000 0.000000
# 5 0.000000 0.000000 0.000000 0.000000 0.036488 0.000000
# 6 0.000000 0.000000 0.000000 0.000000 0.000000 0.042017
#
#
# Mechanical properties :
#
#
# Convention : Reuss Voigt Hill
#
# Bulk Modulus (GPa) = 64.91148 68.24672 66.57910
# Shear Modulus (GPa) = 21.29775 22.58332 21.94054
#
# Velocity S-wave (km/s) = 3.40844 3.50980 3.45949
# Velocity P-wave (km/s) = 7.13427 7.32476 7.23014
#
# Compressibility (1/GPa) = 0.01540560
#
# Stress axis : x y z
#
# Youngs Moduli (GPa) = 44.32809 54.74600 77.13275
#
# Poissons Ratio (x) = 0.54370 0.29159
# Poissons Ratio (y) = 0.44023 0.42273
# Poissons Ratio (z) = 0.16758 0.30004
#
# Static dielectric constant tensor:
#      x y z
#    x 3.274710 0.000000 0.000000 
#    y 0.000000 3.376650 0.000000 
#    z 0.000000 0.000000 3.389100 
# 
# 
# High freq. dielectric constant tensor:
#      x y z
#    x 1.701350 0.000000 0.000000 
#    y 0.000000 1.717520 0.000000 
#    z 0.000000 0.000000 1.718670 
# 
# From -- ./inp_files/11698.got.cif
#   From: 2010.03.12/outbox.cif.g09.slc.cpg/sg65_6_cif.got.tgz:11698.got - 2010.04.10 20:52:16.
