data_PCOD8272388
_publ_section_title
;
Structure prediction by ZEFSAII (Michael W. Deem and Ramdas Pophale) SiO2 
 PCOD8272388
Probable space group: C M M M
;
_chemical_formula_sum "Si O2"
_cell_formula_units_Z 88
_cell_length_a 8.933274
_cell_length_b 23.516887
_cell_length_c 22.737508
_cell_angle_alpha 90.000000
_cell_angle_beta 90.000000
_cell_angle_gamma 90.000000
_cell_volume 4776.759236
_symmetry_space_group_name_H-M "C M M M"
_symmetry_group_IT_number 65
_symmetry_cell_setting 'orthorhombic'
loop_
_space_group_symop_operation_xyz
x,y,z
-x,-y,z
x,-y,-z
-x,y,-z
-x,-y,-z
x,y,-z
-x,y,z
x,-y,z
1/2+x,1/2+y,z
1/2-x,1/2-y,z
1/2+x,1/2-y,-z
1/2-x,1/2+y,-z
1/2-x,1/2-y,-z
1/2+x,1/2+y,-z
1/2-x,1/2+y,z
1/2+x,1/2-y,z
loop_
_atom_site_type_symbol
_atom_site_label
_atom_site_fract_x
_atom_site_fract_y
_atom_site_fract_z
Si Si1 0.323438 0.500000 0.863531
Si Si2 0.325309 0.811036 0.777466
Si Si3 0.826655 0.394325 0.325039
Si Si4 0.323094 0.500000 0.733546
Si Si5 0.177037 0.189298 0.000000
Si Si6 0.677522 0.376084 0.115446
Si Si7 0.674611 0.434219 0.567032
O O1 0.500000 0.500000 0.858244
O O2 0.253568 0.500000 0.798586
O O3 0.273073 0.441845 0.895648
O O4 0.500000 0.804178 0.790978
O O5 0.250000 0.750000 0.780550
O O6 0.297499 0.837032 0.712413
O O7 0.256070 0.852078 0.826589
O O8 0.729958 0.443958 0.297930
O O9 0.768984 0.390233 0.392415
O O10 0.000000 0.410684 0.323989
O O11 0.500000 0.500000 0.733653
O O12 0.250000 0.250000 0.000000
O O13 0.233332 0.156971 0.057996
O O14 0.000000 0.195092 0.000000
O O15 0.500000 0.370562 0.124590
O O16 0.720240 0.421470 0.500000
O O17 0.500000 0.422758 0.576855
O O18 0.712101 0.500000 0.582708
#
# Coordination Sequence:
#
# PCOD8272388 Si02
#       7
#     8  16  16   8   8  16  16
#     4   9  18  32  55  83 110 141 178 215 267 330
#     4  11  24  39  56  80 108 141 182 229 272 319
#     4  11  22  34  52  81 113 142 177 225 275 319
#     4  11  19  31  53  80 109 146 181 213 263 332
#     4  10  22  37  57  79 107 144 187 234 273 316
#     4  10  20  37  58  83 111 143 180 223 273 326
#     4   9  18  32  51  78 111 146 183 218 259 319
#
# _framework density 18.422532
#
# number of rings (size 3 to 8) (size 9 to 14) (size 15 to 20)
#    0.000    1.818    2.727    2.455    0.000    5.091 
#    0.000    3.182    0.000    0.545    0.000    1.909 
#    0.000    0.000    0.000    0.000    0.000    0.000 
#
# Total GULP energy -545491.803515 kJ/mol
# GULP energy per Si atom -12397.540989 kJ/mol
# Density = 1.838060 g / cm^3
# Si number density = 18.422532 Si / 1000 Ang^3
#
#
#
# Elastic Constant Matrix: (Units=GPa)
#
#
# Indices 1 2 3 4 5 6 
#
# 1 64.7064 38.8007 40.9907 0.0000 0.0000 0.0000
# 2 38.8007 129.6821 57.4248 0.0000 0.0000 0.0000
# 3 40.9907 57.4248 126.7251 0.0000 0.0000 0.0000
# 4 0.0000 0.0000 0.0000 78.4717 0.0000 0.0000
# 5 0.0000 0.0000 0.0000 0.0000 24.4291 0.0000
# 6 0.0000 0.0000 0.0000 0.0000 0.0000 15.0608
#
#
#
# Elastic Compliance Matrix: (Units=1/GPa)
#
#
# Indices 1 2 3 4 5 6 
#
# 1 0.021052 -0.004108 -0.004948 0.000000 0.000000 0.000000
# 2 -0.004108 0.010448 -0.003406 0.000000 0.000000 0.000000
# 3 -0.004948 -0.003406 0.011035 0.000000 0.000000 0.000000
# 4 0.000000 0.000000 0.000000 0.012743 0.000000 0.000000
# 5 0.000000 0.000000 0.000000 0.000000 0.040935 0.000000
# 6 0.000000 0.000000 0.000000 0.000000 0.000000 0.066398
#
#
# Mechanical properties :
#
#
# Convention : Reuss Voigt Hill
#
# Bulk Modulus (GPa) = 56.77961 66.17176 61.47568
# Shear Modulus (GPa) = 25.85238 35.85214 30.85226
#
# Velocity S-wave (km/s) = 3.75013 4.41625 4.09675
# Velocity P-wave (km/s) = 7.04549 7.87409 7.47129
#
# Compressibility (1/GPa) = 0.01761196
#
# Stress axis : x y z
#
# Youngs Moduli (GPa) = 47.50102 95.70879 90.62047
#
# Poissons Ratio (x) = 0.39314 0.44841
# Poissons Ratio (y) = 0.19512 0.30865
# Poissons Ratio (z) = 0.23504 0.32598
#
# Static dielectric constant tensor:
#      x y z
#    x 3.310060 0.000000 0.000000 
#    y 0.000000 4.110490 0.000000 
#    z 0.000000 0.000000 3.704080 
# 
# 
# High freq. dielectric constant tensor:
#      x y z
#    x 1.706910 0.000000 0.000000 
#    y 0.000000 1.701540 0.000000 
#    z 0.000000 0.000000 1.723700 
# 
# From -- ./inp_files/67658.got.cif
#   From: 2010.03.12/outbox.cif.g09.slc.cpg/sg65_34_cif.got.tgz:67658.got - 2010.04.10 20:52:16.
