data_PCOD8272563
_publ_section_title
;
Structure prediction by ZEFSAII (Michael W. Deem and Ramdas Pophale) SiO2 
 PCOD8272563
Probable space group: C M M M
;
_chemical_formula_sum "Si O2"
_cell_formula_units_Z 72
_cell_length_a 13.262466
_cell_length_b 18.290745
_cell_length_c 15.460549
_cell_angle_alpha 90.000000
_cell_angle_beta 90.000000
_cell_angle_gamma 90.000000
_cell_volume 3750.425908
_symmetry_space_group_name_H-M "C M M M"
_symmetry_group_IT_number 65
_symmetry_cell_setting 'orthorhombic'
loop_
_space_group_symop_operation_xyz
x,y,z
-x,-y,z
x,-y,-z
-x,y,-z
-x,-y,-z
x,y,-z
-x,y,z
x,-y,z
1/2+x,1/2+y,z
1/2-x,1/2-y,z
1/2+x,1/2-y,-z
1/2-x,1/2+y,-z
1/2-x,1/2-y,-z
1/2+x,1/2+y,-z
1/2-x,1/2+y,z
1/2+x,1/2-y,z
loop_
_atom_site_type_symbol
_atom_site_label
_atom_site_fract_x
_atom_site_fract_y
_atom_site_fract_z
Si Si1 0.381565 0.653387 0.400689
Si Si2 0.719592 0.888753 0.170175
Si Si3 0.118467 0.415370 0.000000
Si Si4 0.880120 0.000000 0.104145
Si Si5 0.750000 0.250000 0.284604
Si Si6 0.702531 0.500000 0.600587
Si Si7 0.115542 0.500000 0.288582
O O1 0.344681 0.660029 0.500000
O O2 0.500000 0.656996 0.394025
O O3 0.339457 0.722220 0.347105
O O4 0.345779 0.574820 0.360626
O O5 0.826146 0.929461 0.148695
O O6 0.727633 0.813806 0.219098
O O7 0.642514 0.931663 0.230393
O O8 0.662203 0.873064 0.081555
O O9 0.155270 0.500000 0.000000
O O10 0.000000 0.410489 0.000000
O O11 0.000000 0.000000 0.126155
O O12 0.864552 0.000000 0.000000
O O13 0.681506 0.500000 0.500000
O O14 0.820714 0.500000 0.622507
O O15 0.000000 0.500000 0.316634
#
# Coordination Sequence:
#
# PCOD8272563 Si02
#       7
#    16  16   8   8   8   8   8
#     4  10  22  42  66  90 120 161 205 250 304 362
#     4  11  22  40  60  90 121 160 202 251 299 365
#     4  11  20  37  64  86 112 156 210 255 299 349
#     4  10  20  41  68  89 114 154 206 259 308 356
#     4  12  25  39  60  88 134 162 194 243 307 378
#     4  10  20  41  67  92 118 151 206 264 303 356
#     4  11  21  38  63  90 119 155 204 253 298 353
#
# _framework density 19.197821000000001
#
# number of rings (size 3 to 8) (size 9 to 14) (size 15 to 20)
#    0.000    1.333    5.556    1.333    0.000    4.667 
#    0.000    0.000    0.000    0.000    0.000    0.000 
#    0.000    0.000    0.000    0.000    0.000    0.000 
#
# Total GULP energy -446138.397425 kJ/mol
# GULP energy per Si atom -12392.733262 kJ/mol
# Density = 1.915413 g / cm^3
# Si number density = 19.197821 Si / 1000 Ang^3
#
#
#
# Elastic Constant Matrix: (Units=GPa)
#
#
# Indices 1 2 3 4 5 6 
#
# 1 116.9296 59.8706 40.0377 0.0000 0.0000 0.0000
# 2 59.8706 143.3770 66.4612 0.0000 0.0000 0.0000
# 3 40.0377 66.4612 80.9895 0.0000 0.0000 0.0000
# 4 0.0000 0.0000 0.0000 41.6412 0.0000 0.0000
# 5 0.0000 0.0000 0.0000 0.0000 16.3342 0.0000
# 6 0.0000 0.0000 0.0000 0.0000 0.0000 -6.6433
#
#
#
# Elastic Compliance Matrix: (Units=1/GPa)
#
#
# Indices 1 2 3 4 5 6 
#
# 1 0.011246 -0.003420 -0.002753 0.000000 0.000000 0.000000
# 2 -0.003420 0.012296 -0.008400 0.000000 0.000000 0.000000
# 3 -0.002753 -0.008400 0.020601 0.000000 0.000000 0.000000
# 4 0.000000 0.000000 0.000000 0.024015 0.000000 0.000000
# 5 0.000000 0.000000 0.000000 0.000000 0.061221 0.000000
# 6 0.000000 0.000000 0.000000 0.000000 0.000000 -0.150527
#
#
# Mechanical properties :
#
#
# Convention : Reuss Voigt Hill
#
# Bulk Modulus (GPa) = 66.67617 74.89280 70.78448
# Shear Modulus (GPa) = 384.66651 21.92817 203.29734
#
# Velocity S-wave (km/s) = 14.17056 3.38334 10.30174
# Velocity P-wave (km/s) = 17.39386 7.37282 13.35861
#
# Compressibility (1/GPa) = 0.01499786
#
# Stress axis : x y z
#
# Youngs Moduli (GPa) = 88.92157 81.32467 48.54018
#
# Poissons Ratio (x) = 0.27811 0.13364
# Poissons Ratio (y) = 0.30409 0.40774
# Poissons Ratio (z) = 0.24481 0.68313
#
# Static dielectric constant tensor:
#      x y z
#    x 3.447520 0.000000 0.000000 
#    y 0.000000 3.441100 0.000000 
#    z 0.000000 0.000000 3.887540 
# 
# 
# High freq. dielectric constant tensor:
#      x y z
#    x 1.744110 0.000000 0.000000 
#    y 0.000000 1.734560 0.000000 
#    z 0.000000 0.000000 1.764310 
# 
# From -- ./inp_files/39913.got.cif
#   From: 2010.03.12/outbox.cif.g09.slc.cpg/sg65_20_cif.got.tgz:39913.got - 2010.04.10 20:52:16.
