data_PCOD8272816
_publ_section_title
;
Structure prediction by ZEFSAII (Michael W. Deem and Ramdas Pophale) SiO2 
 PCOD8272816
Probable space group: C M M M
;
_chemical_formula_sum "Si O2"
_cell_formula_units_Z 88
_cell_length_a 24.161196
_cell_length_b 20.312151
_cell_length_c 9.288675
_cell_angle_alpha 90.000000
_cell_angle_beta 90.000000
_cell_angle_gamma 90.000000
_cell_volume 4558.564588
_symmetry_space_group_name_H-M "C M M M"
_symmetry_group_IT_number 65
_symmetry_cell_setting 'orthorhombic'
loop_
_space_group_symop_operation_xyz
x,y,z
-x,-y,z
x,-y,-z
-x,y,-z
-x,-y,-z
x,y,-z
-x,y,z
x,-y,z
1/2+x,1/2+y,z
1/2-x,1/2-y,z
1/2+x,1/2-y,-z
1/2-x,1/2+y,-z
1/2-x,1/2-y,-z
1/2+x,1/2+y,-z
1/2-x,1/2+y,z
1/2+x,1/2-y,z
loop_
_atom_site_type_symbol
_atom_site_label
_atom_site_fract_x
_atom_site_fract_y
_atom_site_fract_z
Si Si1 0.246044 0.825436 0.328582
Si Si2 0.662646 0.927464 0.334742
Si Si3 0.562774 0.883042 0.168864
Si Si4 0.563391 0.247533 0.661303
Si Si5 0.628607 0.627022 0.670923
Si Si6 0.063769 0.000000 0.672040
O O1 0.245191 0.823442 0.500000
O O2 0.250000 0.750000 0.269547
O O3 0.297297 0.870025 0.273819
O O4 0.191207 0.863115 0.271887
O O5 0.647792 0.912545 0.500000
O O6 0.605879 0.931441 0.244615
O O7 0.690754 0.000000 0.320778
O O8 0.500000 0.905566 0.204977
O O9 0.574739 0.810934 0.229642
O O10 0.573296 0.882980 0.000000
O O11 0.584311 0.228265 0.500000
O O12 0.500000 0.268157 0.654896
O O13 0.595731 0.309343 0.724295
O O14 0.627911 0.622205 0.500000
O O15 0.597747 0.562729 0.733523
O O16 0.063064 0.000000 0.500000
O O17 0.000000 0.000000 0.728429
#
# Coordination Sequence:
#
# PCOD8272816 Si02
#       6
#    16  16  16  16  16   8
#     4   9  17  29  47  71 100 134 173 213 255 303
#     4  10  21  35  53  77 105 135 171 213 254 302
#     4  10  21  36  54  76 101 131 168 210 260 315
#     4   9  16  28  49  76 104 135 173 215 257 301
#     4   9  16  25  43  69 103 141 172 210 261 309
#     4   9  16  24  36  64 107 145 174 207 256 318
#
# _framework density 19.304321999999999
#
# number of rings (size 3 to 8) (size 9 to 14) (size 15 to 20)
#    0.000    2.636    0.000    2.182    1.273    6.909 
#    0.000    1.818    0.000    4.909    0.000    0.636 
#    0.000    3.636    0.000    0.000    0.000    0.000 
#
# Total GULP energy -545366.749429 kJ/mol
# GULP energy per Si atom -12394.698851 kJ/mol
# Density = 1.926038 g / cm^3
# Si number density = 19.304322 Si / 1000 Ang^3
#
#
#
# Elastic Constant Matrix: (Units=GPa)
#
#
# Indices 1 2 3 4 5 6 
#
# 1 126.9063 74.5427 26.5824 0.0000 0.0000 0.0000
# 2 74.5427 121.2257 23.4104 0.0000 0.0000 0.0000
# 3 26.5824 23.4104 34.5716 0.0000 0.0000 0.0000
# 4 0.0000 0.0000 0.0000 0.4864 0.0000 0.0000
# 5 0.0000 0.0000 0.0000 0.0000 11.7107 0.0000
# 6 0.0000 0.0000 0.0000 0.0000 0.0000 39.1000
#
#
#
# Elastic Compliance Matrix: (Units=1/GPa)
#
#
# Indices 1 2 3 4 5 6 
#
# 1 0.013136 -0.007049 -0.005327 0.000000 0.000000 0.000000
# 2 -0.007049 0.013272 -0.003568 0.000000 0.000000 0.000000
# 3 -0.005327 -0.003568 0.035438 0.000000 0.000000 0.000000
# 4 0.000000 0.000000 0.000000 2.055784 0.000000 0.000000
# 5 0.000000 0.000000 0.000000 0.000000 0.085392 0.000000
# 6 0.000000 0.000000 0.000000 0.000000 0.000000 0.025575
#
#
# Mechanical properties :
#
#
# Convention : Reuss Voigt Hill
#
# Bulk Modulus (GPa) = 33.37945 59.08605 46.23275
# Shear Modulus (GPa) = 2.20219 20.80397 11.50308
#
# Velocity S-wave (km/s) = 1.06923 3.28637 2.44372
# Velocity P-wave (km/s) = 4.34201 6.71375 5.65365
#
# Compressibility (1/GPa) = 0.02995856
#
# Stress axis : x y z
#
# Youngs Moduli (GPa) = 76.12682 75.34486 28.21867
#
# Poissons Ratio (x) = 0.53108 0.15033
# Poissons Ratio (y) = 0.53659 0.10067
# Poissons Ratio (z) = 0.40555 0.26880
#
# Static dielectric constant tensor:
#      x y z
#    x 3.764760 0.000000 0.000000 
#    y 0.000000 3.654180 0.000000 
#    z 0.000000 0.000000 2.940930 
# 
# 
# High freq. dielectric constant tensor:
#      x y z
#    x 1.762750 0.000000 0.000000 
#    y 0.000000 1.762360 0.000000 
#    z 0.000000 0.000000 1.679800 
# 
# From -- ./inp_files/11774.got.cif
#   From: 2010.03.12/outbox.cif.g09.slc.cpg/sg65_6_cif.got.tgz:11774.got - 2010.04.10 20:52:16.
