data_PCOD8272910
_publ_section_title
;
Structure prediction by ZEFSAII (Michael W. Deem and Ramdas Pophale) SiO2 
 PCOD8272910
Probable space group: C M M M
;
_chemical_formula_sum "Si O2"
_cell_formula_units_Z 88
_cell_length_a 8.745046
_cell_length_b 28.630028
_cell_length_c 20.798865
_cell_angle_alpha 90.000000
_cell_angle_beta 90.000000
_cell_angle_gamma 90.000000
_cell_volume 5207.430795
_symmetry_space_group_name_H-M "C M M M"
_symmetry_group_IT_number 65
_symmetry_cell_setting 'orthorhombic'
loop_
_space_group_symop_operation_xyz
x,y,z
-x,-y,z
x,-y,-z
-x,y,-z
-x,-y,-z
x,y,-z
-x,y,z
x,-y,z
1/2+x,1/2+y,z
1/2-x,1/2-y,z
1/2+x,1/2-y,-z
1/2-x,1/2+y,-z
1/2-x,1/2-y,-z
1/2+x,1/2+y,-z
1/2-x,1/2+y,z
1/2+x,1/2-y,z
loop_
_atom_site_type_symbol
_atom_site_label
_atom_site_fract_x
_atom_site_fract_y
_atom_site_fract_z
Si Si1 0.320682 0.798919 0.428237
Si Si2 0.178922 0.300771 0.069610
Si Si3 0.820000 0.053737 0.632222
Si Si4 0.680719 0.698417 0.197356
Si Si5 0.319847 0.861394 0.310099
Si Si6 0.670096 0.055059 0.500000
O O1 0.264707 0.813636 0.500000
O O2 0.500000 0.791881 0.427142
O O3 0.250000 0.750000 0.406603
O O4 0.269961 0.837738 0.377260
O O5 0.250000 0.250000 0.064355
O O6 0.262523 0.325312 0.129998
O O7 0.000000 0.296899 0.084948
O O8 0.205574 0.326286 0.000000
O O9 0.738078 0.085081 0.686600
O O10 0.760860 0.071130 0.562879
O O11 0.000000 0.061013 0.635078
O O12 0.774826 0.000000 0.645243
O O13 0.500000 0.702591 0.197895
O O14 0.750000 0.750000 0.206984
O O15 0.734495 0.664460 0.253099
O O16 0.500000 0.859629 0.297830
O O17 0.500000 0.078261 0.500000
O O18 0.653536 0.000000 0.500000
#
# Coordination Sequence:
#
# PCOD8272910 Si02
#       6
#    16  16  16  16  16   8
#     4   9  19  34  49  66  88 117 155 199 241 283
#     4   9  16  27  45  69  97 129 165 201 238 282
#     4  10  21  36  52  72  97 122 154 200 252 305
#     4  11  21  33  49  70 101 135 170 206 243 288
#     4  11  22  34  51  71  95 126 164 205 247 300
#     4   9  17  31  51  71  90 115 148 189 241 297
#
# _framework density 16.898928000000002
#
# number of rings (size 3 to 8) (size 9 to 14) (size 15 to 20)
#    0.000    2.091    0.000    5.182    1.273    6.182 
#    0.000    0.000    0.000    0.000    0.000    0.000 
#    0.000    0.727    0.000    7.636    0.000    3.273 
#
# Total GULP energy -545416.649432 kJ/mol
# GULP energy per Si atom -12395.832942 kJ/mol
# Density = 1.686047 g / cm^3
# Si number density = 16.898928 Si / 1000 Ang^3
#
#
#
# Elastic Constant Matrix: (Units=GPa)
#
#
# Indices 1 2 3 4 5 6 
#
# 1 104.9138 38.0755 57.7577 0.0000 0.0000 0.0000
# 2 38.0755 66.5640 53.6923 0.0000 0.0000 0.0000
# 3 57.7577 53.6923 117.2625 0.0000 0.0000 0.0000
# 4 0.0000 0.0000 0.0000 192.7148 0.0000 0.0000
# 5 0.0000 0.0000 0.0000 0.0000 27.2431 0.0000
# 6 0.0000 0.0000 0.0000 0.0000 0.0000 23.2102
#
#
#
# Elastic Compliance Matrix: (Units=1/GPa)
#
#
# Indices 1 2 3 4 5 6 
#
# 1 0.013653 -0.003782 -0.004993 0.000000 0.000000 0.000000
# 2 -0.003782 0.024869 -0.009524 0.000000 0.000000 0.000000
# 3 -0.004993 -0.009524 0.015348 0.000000 0.000000 0.000000
# 4 0.000000 0.000000 0.000000 0.005189 0.000000 0.000000
# 5 0.000000 0.000000 0.000000 0.000000 0.036707 0.000000
# 6 0.000000 0.000000 0.000000 0.000000 0.000000 0.043084
#
#
# Mechanical properties :
#
#
# Convention : Reuss Voigt Hill
#
# Bulk Modulus (GPa) = 57.89900 65.31017 61.60458
# Shear Modulus (GPa) = 27.59288 57.91460 42.75374
#
# Velocity S-wave (km/s) = 4.04520 5.86051 5.03533
# Velocity P-wave (km/s) = 7.49363 9.19378 8.38689
#
# Compressibility (1/GPa) = 0.01727146
#
# Stress axis : x y z
#
# Youngs Moduli (GPa) = 73.24363 40.21064 65.15469
#
# Poissons Ratio (x) = 0.15209 0.32532
# Poissons Ratio (y) = 0.27703 0.62054
# Poissons Ratio (z) = 0.36571 0.38297
#
# Static dielectric constant tensor:
#      x y z
#    x 3.307020 0.000000 0.000000 
#    y 0.000000 2.914830 0.000000 
#    z 0.000000 0.000000 3.772840 
# 
# 
# High freq. dielectric constant tensor:
#      x y z
#    x 1.668220 0.000000 0.000000 
#    y 0.000000 1.613480 0.000000 
#    z 0.000000 0.000000 1.647910 
# 
# From -- ./inp_files/60302.got.cif
#   From: 2010.03.12/outbox.cif.g09.slc.cpg/sg65_31_cif.got.tgz:60302.got - 2010.04.10 20:52:16.
