data_PCOD8272355
_publ_section_title
;
Structure prediction by ZEFSAII (Michael W. Deem and Ramdas Pophale) SiO2 
 PCOD8272355
Probable space group: C M M M
;
_chemical_formula_sum "Si O2"
_cell_formula_units_Z 112
_cell_length_a 14.281473
_cell_length_b 13.976241
_cell_length_c 27.795798
_cell_angle_alpha 90.000000
_cell_angle_beta 90.000000
_cell_angle_gamma 90.000000
_cell_volume 5548.077651
_symmetry_space_group_name_H-M "C M M M"
_symmetry_group_IT_number 65
_symmetry_cell_setting 'orthorhombic'
loop_
_space_group_symop_operation_xyz
x,y,z
-x,-y,z
x,-y,-z
-x,y,-z
-x,-y,-z
x,y,-z
-x,y,z
x,-y,z
1/2+x,1/2+y,z
1/2-x,1/2-y,z
1/2+x,1/2-y,-z
1/2-x,1/2+y,-z
1/2-x,1/2-y,-z
1/2+x,1/2+y,-z
1/2-x,1/2+y,z
1/2+x,1/2-y,z
loop_
_atom_site_type_symbol
_atom_site_label
_atom_site_fract_x
_atom_site_fract_y
_atom_site_fract_z
Si Si1 0.500000 0.801862 0.554433
Si Si2 0.103141 0.269756 0.721404
Si Si3 0.629612 0.109001 0.370488
Si Si4 0.671281 0.393915 0.336117
Si Si5 0.500000 0.392624 0.595018
Si Si6 0.392022 0.108954 0.811680
Si Si7 0.391981 0.283076 0.055149
Si Si8 0.216076 0.388689 0.908840
O O1 0.500000 0.840201 0.500000
O O2 0.591858 0.839122 0.581918
O O3 0.500000 0.685718 0.552916
O O4 0.091261 0.344230 0.678004
O O5 0.172454 0.182077 0.707662
O O6 0.141920 0.323564 0.768272
O O7 0.000000 0.227520 0.732453
O O8 0.740895 0.119119 0.371022
O O9 0.595527 0.000000 0.371433
O O10 0.668093 0.500000 0.313275
O O11 0.586126 0.372665 0.370541
O O12 0.500000 0.500000 0.573122
O O13 0.500000 0.130598 0.827140
O O14 0.320102 0.127986 0.854813
O O15 0.384051 0.000000 0.793853
O O16 0.500000 0.288786 0.073885
O O17 0.324046 0.352633 0.086397
O O18 0.352626 0.174361 0.057595
O O19 0.387805 0.316905 0.000000
O O20 0.209000 0.500000 0.923939
#
# Coordination Sequence:
#
# PCOD8272355 Si02
#       8
#     8  16  16  16   8  16  16  16
#     4  12  25  41  64  91 117 154 195 243 308 369
#     4  11  19  34  61  88 118 157 199 245 302 357
#     4  11  22  37  58  86 119 151 188 242 300 352
#     4  10  20  36  61  88 117 152 195 244 293 348
#     4  10  20  40  63  86 118 153 191 237 289 351
#     4   9  19  34  57  92 125 159 207 258 308 368
#     4  10  22  39  61  93 129 166 212 266 327 390
#     4  10  20  38  62  88 125 169 214 266 319 376
#
# _framework density 20.187172
#
# number of rings (size 3 to 8) (size 9 to 14) (size 15 to 20)
#    0.000    1.714    2.857    2.357    0.000    3.571 
#    5.143    2.857    0.000    2.571    0.000    4.000 
#    0.000    0.000    0.000    0.000    0.000    0.000 
#
# Total GULP energy -694186.829659 kJ/mol
# GULP energy per Si atom -12396.193387 kJ/mol
# Density = 2.014123 g / cm^3
# Si number density = 20.187172 Si / 1000 Ang^3
#
#
#
# Elastic Constant Matrix: (Units=GPa)
#
#
# Indices 1 2 3 4 5 6 
#
# 1 142.2029 49.2438 47.9576 0.0000 0.0000 0.0000
# 2 49.2438 144.7956 56.3201 0.0000 0.0000 0.0000
# 3 47.9576 56.3201 111.9966 0.0000 0.0000 0.0000
# 4 0.0000 0.0000 0.0000 25.1065 0.0000 0.0000
# 5 0.0000 0.0000 0.0000 0.0000 9.1356 0.0000
# 6 0.0000 0.0000 0.0000 0.0000 0.0000 28.4289
#
#
#
# Elastic Compliance Matrix: (Units=1/GPa)
#
#
# Indices 1 2 3 4 5 6 
#
# 1 0.008602 -0.001856 -0.002750 0.000000 0.000000 0.000000
# 2 -0.001856 0.008986 -0.003724 0.000000 0.000000 0.000000
# 3 -0.002750 -0.003724 0.011979 0.000000 0.000000 0.000000
# 4 0.000000 0.000000 0.000000 0.039830 0.000000 0.000000
# 5 0.000000 0.000000 0.000000 0.000000 0.109462 0.000000
# 6 0.000000 0.000000 0.000000 0.000000 0.000000 0.035175
#
#
# Mechanical properties :
#
#
# Convention : Reuss Voigt Hill
#
# Bulk Modulus (GPa) = 77.47681 78.44869 77.96275
# Shear Modulus (GPa) = 21.27672 28.89911 25.08792
#
# Velocity S-wave (km/s) = 3.25002 3.78770 3.52911
# Velocity P-wave (km/s) = 7.24886 7.62062 7.43707
#
# Compressibility (1/GPa) = 0.01290709
#
# Stress axis : x y z
#
# Youngs Moduli (GPa) = 116.24640 111.28434 83.47708
#
# Poissons Ratio (x) = 0.20652 0.22959
# Poissons Ratio (y) = 0.21573 0.31088
# Poissons Ratio (z) = 0.31972 0.41444
#
# Static dielectric constant tensor:
#      x y z
#    x 4.017180 0.000000 0.000000 
#    y 0.000000 3.878560 0.000000 
#    z 0.000000 0.000000 3.335740 
# 
# 
# High freq. dielectric constant tensor:
#      x y z
#    x 1.802000 0.000000 0.000000 
#    y 0.000000 1.796600 0.000000 
#    z 0.000000 0.000000 1.756950 
# 
# From -- ./inp_files/74929.got.cif
#   From: 2010.03.12/outbox.cif.g09.slc.cpg/sg65_38_cif.got.tgz:74929.got - 2010.04.10 20:52:16.
