data_PCOD8272155
_publ_section_title
;
Structure prediction by ZEFSAII (Michael W. Deem and Ramdas Pophale) SiO2 
 PCOD8272155
Probable space group: C M M M
;
_chemical_formula_sum "Si O2"
_cell_formula_units_Z 72
_cell_length_a 24.522958
_cell_length_b 16.780377
_cell_length_c 9.110591
_cell_angle_alpha 90.000000
_cell_angle_beta 90.000000
_cell_angle_gamma 90.000000
_cell_volume 3749.049016
_symmetry_space_group_name_H-M "C M M M"
_symmetry_group_IT_number 65
_symmetry_cell_setting 'orthorhombic'
loop_
_space_group_symop_operation_xyz
x,y,z
-x,-y,z
x,-y,-z
-x,y,-z
-x,-y,-z
x,y,-z
-x,y,z
x,-y,z
1/2+x,1/2+y,z
1/2-x,1/2-y,z
1/2+x,1/2-y,-z
1/2-x,1/2+y,-z
1/2-x,1/2-y,-z
1/2+x,1/2+y,-z
1/2-x,1/2+y,z
1/2+x,1/2-y,z
loop_
_atom_site_type_symbol
_atom_site_label
_atom_site_fract_x
_atom_site_fract_y
_atom_site_fract_z
Si Si1 0.062048 0.000000 0.325549
Si Si2 0.857057 0.135873 0.331777
Si Si3 0.764199 0.588590 0.667136
Si Si4 0.844518 0.699020 0.825811
Si Si5 0.560014 0.088631 0.174365
O O1 0.094119 0.920763 0.272449
O O2 0.061975 0.000000 0.500000
O O3 0.000000 0.000000 0.263200
O O4 0.867655 0.161655 0.500000
O O5 0.800831 0.088219 0.317839
O O6 0.853088 0.212595 0.230399
O O7 0.781483 0.606561 0.500000
O O8 0.784332 0.500000 0.714817
O O9 0.789386 0.657724 0.768038
O O10 0.895115 0.648282 0.762360
O O11 0.841618 0.700350 0.000000
O O12 0.500000 0.116871 0.226619
O O13 0.572006 0.000000 0.234817
O O14 0.562546 0.087660 0.000000
#
# Coordination Sequence:
#
# PCOD8272155 Si02
#       5
#     8  16  16  16  16
#     4   9  18  36  63  87 105 137 190 243 282 320
#     4  10  20  37  57  78 106 141 181 224 272 329
#     4  10  20  36  57  78 105 144 185 222 266 325
#     4  11  22  33  51  83 114 140 176 223 273 325
#     4   8  15  30  50  70  98 138 177 210 251 310
#
# _framework density 19.204871000000001
#
# number of rings (size 3 to 8) (size 9 to 14) (size 15 to 20)
#    0.000    2.333    1.111    2.667    0.000    5.778 
#    0.000    0.556    0.000    2.667    0.000    7.778 
#    0.000    0.000    0.000    0.000    0.000    0.000 
#
# Total GULP energy -446316.768948 kJ/mol
# GULP energy per Si atom -12397.688026 kJ/mol
# Density = 1.916116 g / cm^3
# Si number density = 19.204871 Si / 1000 Ang^3
#
#
#
# Elastic Constant Matrix: (Units=GPa)
#
#
# Indices 1 2 3 4 5 6 
#
# 1 112.3884 56.0188 32.9574 0.0000 0.0000 0.0000
# 2 56.0188 135.0962 46.6382 0.0000 0.0000 0.0000
# 3 32.9574 46.6382 58.5140 0.0000 0.0000 0.0000
# 4 0.0000 0.0000 0.0000 21.7704 0.0000 0.0000
# 5 0.0000 0.0000 0.0000 0.0000 18.8513 0.0000
# 6 0.0000 0.0000 0.0000 0.0000 0.0000 24.2060
#
#
#
# Elastic Compliance Matrix: (Units=1/GPa)
#
#
# Indices 1 2 3 4 5 6 
#
# 1 0.011794 -0.003583 -0.003787 0.000000 0.000000 0.000000
# 2 -0.003583 0.011301 -0.006989 0.000000 0.000000 0.000000
# 3 -0.003787 -0.006989 0.024793 0.000000 0.000000 0.000000
# 4 0.000000 0.000000 0.000000 0.045934 0.000000 0.000000
# 5 0.000000 0.000000 0.000000 0.000000 0.053047 0.000000
# 6 0.000000 0.000000 0.000000 0.000000 0.000000 0.041312
#
#
# Mechanical properties :
#
#
# Convention : Reuss Voigt Hill
#
# Bulk Modulus (GPa) = 52.16475 64.13638 58.15056
# Shear Modulus (GPa) = 22.39245 24.32447 23.35846
#
# Velocity S-wave (km/s) = 3.41835 3.56276 3.49130
# Velocity P-wave (km/s) = 6.54227 7.09879 6.82620
#
# Compressibility (1/GPa) = 0.01917003
#
# Stress axis : x y z
#
# Youngs Moduli (GPa) = 84.78698 88.49022 40.33329
#
# Poissons Ratio (x) = 0.31708 0.15274
# Poissons Ratio (y) = 0.30381 0.28189
# Poissons Ratio (z) = 0.32109 0.61845
#
# Static dielectric constant tensor:
#      x y z
#    x 3.807280 0.000000 0.000000 
#    y 0.000000 3.598850 0.000000 
#    z 0.000000 0.000000 3.106090 
# 
# 
# High freq. dielectric constant tensor:
#      x y z
#    x 1.754680 0.000000 0.000000 
#    y 0.000000 1.755370 0.000000 
#    z 0.000000 0.000000 1.707520 
# 
# From -- ./inp_files/7268.got.cif
#   From: 2010.03.12/outbox.cif.g09.slc.cpg/sg65_4_cif.got.tgz:7268.got - 2010.04.10 20:52:16.
