data_PCOD8272177
_publ_section_title
;
Structure prediction by ZEFSAII (Michael W. Deem and Ramdas Pophale) SiO2 
 PCOD8272177
Probable space group: C M M M
;
_chemical_formula_sum "Si O2"
_cell_formula_units_Z 72
_cell_length_a 21.076055
_cell_length_b 9.191331
_cell_length_c 19.946326
_cell_angle_alpha 90.000000
_cell_angle_beta 90.000000
_cell_angle_gamma 90.000000
_cell_volume 3863.942387
_symmetry_space_group_name_H-M "C M M M"
_symmetry_group_IT_number 65
_symmetry_cell_setting 'orthorhombic'
loop_
_space_group_symop_operation_xyz
x,y,z
-x,-y,z
x,-y,-z
-x,y,-z
-x,-y,-z
x,y,-z
-x,y,z
x,-y,z
1/2+x,1/2+y,z
1/2-x,1/2-y,z
1/2+x,1/2-y,-z
1/2-x,1/2+y,-z
1/2-x,1/2-y,-z
1/2+x,1/2+y,-z
1/2-x,1/2+y,z
1/2+x,1/2-y,z
loop_
_atom_site_type_symbol
_atom_site_label
_atom_site_fract_x
_atom_site_fract_y
_atom_site_fract_z
Si Si1 0.500000 0.834360 0.074775
Si Si2 0.184710 0.670451 0.732744
Si Si3 0.925111 0.162411 0.500000
Si Si4 0.426919 0.829045 0.632407
Si Si5 0.185598 0.170007 0.000000
Si Si6 0.132857 0.331718 0.122873
O O1 0.557915 0.802391 0.124986
O O2 0.500000 0.000000 0.053636
O O3 0.500000 0.754053 0.000000
O O4 0.196936 0.500000 0.724726
O O5 0.250000 0.750000 0.711213
O O6 0.123525 0.718449 0.689145
O O7 0.167069 0.712513 0.808605
O O8 0.902862 0.248035 0.565835
O O9 0.000000 0.153055 0.500000
O O10 0.895465 0.000000 0.500000
O O11 0.500000 0.785900 0.652078
O O12 0.423702 0.000000 0.618574
O O13 0.250000 0.250000 0.000000
O O14 0.151462 0.218421 0.933276
O O15 0.195201 0.000000 0.000000
O O16 0.148519 0.500000 0.104233
#
# Coordination Sequence:
#
# PCOD8272177 Si02
#       6
#     8  16   8  16   8  16
#     4   9  16  30  56  84 106 133 174 223 273 326
#     4  10  22  37  56  81 112 147 184 227 275 328
#     4   9  17  31  54  85 116 147 181 219 268 325
#     4   9  18  34  57  85 113 143 182 228 272 317
#     4  12  24  37  54  75 101 138 184 230 275 330
#     4  10  20  36  57  81 108 141 180 224 274 328
#
# _framework density 18.633818999999999
#
# number of rings (size 3 to 8) (size 9 to 14) (size 15 to 20)
#    0.000    2.222    1.111    2.000    1.556    4.889 
#    0.000    1.667    0.000    0.000    0.000    0.000 
#    0.000    0.000    0.000    0.000    0.000    0.000 
#
# Total GULP energy -446048.907482 kJ/mol
# GULP energy per Si atom -12390.247430 kJ/mol
# Density = 1.859141 g / cm^3
# Si number density = 18.633819 Si / 1000 Ang^3
#
#
#
# Elastic Constant Matrix: (Units=GPa)
#
#
# Indices 1 2 3 4 5 6 
#
# 1 128.1986 45.4808 55.7365 0.0000 0.0000 0.0000
# 2 45.4808 81.8297 52.5077 0.0000 0.0000 0.0000
# 3 55.7365 52.5077 117.1034 0.0000 0.0000 0.0000
# 4 0.0000 0.0000 0.0000 -120.4970 0.0000 0.0000
# 5 0.0000 0.0000 0.0000 0.0000 -12.8618 0.0000
# 6 0.0000 0.0000 0.0000 0.0000 0.0000 24.8510
#
#
#
# Elastic Compliance Matrix: (Units=1/GPa)
#
#
# Indices 1 2 3 4 5 6 
#
# 1 0.010586 -0.003721 -0.003370 0.000000 0.000000 0.000000
# 2 -0.003721 0.018465 -0.006508 0.000000 0.000000 0.000000
# 3 -0.003370 -0.006508 0.013062 0.000000 0.000000 0.000000
# 4 0.000000 0.000000 0.000000 -0.008299 0.000000 0.000000
# 5 0.000000 0.000000 0.000000 0.000000 -0.077750 0.000000
# 6 0.000000 0.000000 0.000000 0.000000 0.000000 0.040240
#
#
# Mechanical properties :
#
#
# Convention : Reuss Voigt Hill
#
# Bulk Modulus (GPa) = 67.05304 70.50909 68.78106
# Shear Modulus (GPa) = 175.60409 -10.14111 82.73149
#
# Velocity S-wave (km/s) = 9.71823 -2.33541 6.67045
# Velocity P-wave (km/s) = 12.72745 5.53618 9.81421
#
# Compressibility (1/GPa) = 0.01491357
#
# Stress axis : x y z
#
# Youngs Moduli (GPa) = 94.46768 54.15684 76.56029
#
# Poissons Ratio (x) = 0.20153 0.25799
# Poissons Ratio (y) = 0.35153 0.49828
# Poissons Ratio (z) = 0.31834 0.35247
#
# Static dielectric constant tensor:
#      x y z
#    x 3.701760 0.000000 0.000000 
#    y 0.000000 3.167220 0.000000 
#    z 0.000000 0.000000 3.459640 
# 
# 
# High freq. dielectric constant tensor:
#      x y z
#    x 1.725240 0.000000 0.000000 
#    y 0.000000 1.703750 0.000000 
#    z 0.000000 0.000000 1.721800 
# 
# From -- ./inp_files/64427.got.cif
#   From: 2010.03.12/outbox.cif.g09.slc.cpg/sg65_33_cif.got.tgz:64427.got - 2010.04.10 20:52:16.
