data_PCOD8272913
_publ_section_title
;
Structure prediction by ZEFSAII (Michael W. Deem and Ramdas Pophale) SiO2 
 PCOD8272913
Probable space group: C M M M
;
_chemical_formula_sum "Si O2"
_cell_formula_units_Z 104
_cell_length_a 32.512778
_cell_length_b 19.945204
_cell_length_c 9.041509
_cell_angle_alpha 90.000000
_cell_angle_beta 90.000000
_cell_angle_gamma 90.000000
_cell_volume 5863.183415
_symmetry_space_group_name_H-M "C M M M"
_symmetry_group_IT_number 65
_symmetry_cell_setting 'orthorhombic'
loop_
_space_group_symop_operation_xyz
x,y,z
-x,-y,z
x,-y,-z
-x,y,-z
-x,-y,-z
x,y,-z
-x,y,z
x,-y,z
1/2+x,1/2+y,z
1/2-x,1/2-y,z
1/2+x,1/2-y,-z
1/2-x,1/2+y,-z
1/2-x,1/2-y,-z
1/2+x,1/2+y,-z
1/2-x,1/2+y,z
1/2+x,1/2-y,z
loop_
_atom_site_type_symbol
_atom_site_label
_atom_site_fract_x
_atom_site_fract_y
_atom_site_fract_z
Si Si1 0.577884 0.127283 0.175089
Si Si2 0.179791 0.074060 0.174099
Si Si3 0.047049 0.500000 0.661804
Si Si4 0.631522 0.311392 0.669560
Si Si5 0.045848 0.753652 0.330432
Si Si6 0.226379 0.577182 0.173183
Si Si7 0.340477 0.164123 0.674182
O O1 0.556189 0.062903 0.237524
O O2 0.550943 0.190761 0.223547
O O3 0.623374 0.126621 0.241306
O O4 0.580539 0.124709 0.000000
O O5 0.148394 0.127836 0.236187
O O6 0.226557 0.090327 0.219292
O O7 0.167893 0.000000 0.233807
O O8 0.175903 0.075155 0.000000
O O9 0.070027 0.500000 0.500000
O O10 0.000000 0.500000 0.623361
O O11 0.639085 0.329048 0.500000
O O12 0.582502 0.305993 0.704242
O O13 0.655996 0.243281 0.711533
O O14 0.051001 0.728799 0.500000
O O15 0.000000 0.785030 0.305798
O O16 0.213988 0.500000 0.210638
O O17 0.201553 0.631574 0.268244
O O18 0.219214 0.590767 0.000000
O O19 0.344830 0.152261 0.500000
#
# Coordination Sequence:
#
# PCOD8272913 Si02
#       7
#    16  16   8  16  16  16  16
#     4  11  22  34  50  73 101 133 172 219 265 308
#     4   9  19  36  56  78 105 138 171 209 262 319
#     4  11  23  37  51  67  93 133 177 219 267 317
#     4   9  19  34  53  79 106 134 172 215 256 307
#     4   9  18  35  56  76 103 137 170 208 258 312
#     4   9  19  35  53  74 103 138 179 221 261 309
#     4  10  21  36  52  74 105 139 176 216 263 312
#
# _framework density 17.737804000000001
#
# number of rings (size 3 to 8) (size 9 to 14) (size 15 to 20)
#    0.000    2.385    0.000    4.385    1.077    7.692 
#    0.000    4.615    0.000    0.462    0.000    3.231 
#    0.000    0.000    0.000    0.000    0.000    0.000 
#
# Total GULP energy -644612.238772 kJ/mol
# GULP energy per Si atom -12396.389207 kJ/mol
# Density = 1.769743 g / cm^3
# Si number density = 17.737804 Si / 1000 Ang^3
#
#
#
# Elastic Constant Matrix: (Units=GPa)
#
#
# Indices 1 2 3 4 5 6 
#
# 1 121.9150 72.3428 51.5604 0.0000 0.0000 0.0000
# 2 72.3428 96.7782 49.4516 0.0000 0.0000 0.0000
# 3 51.5604 49.4516 90.8820 0.0000 0.0000 0.0000
# 4 0.0000 0.0000 0.0000 41.2593 0.0000 0.0000
# 5 0.0000 0.0000 0.0000 0.0000 21.1549 0.0000
# 6 0.0000 0.0000 0.0000 0.0000 0.0000 55.0177
#
#
#
# Elastic Compliance Matrix: (Units=1/GPa)
#
#
# Indices 1 2 3 4 5 6 
#
# 1 0.015482 -0.009813 -0.003444 0.000000 0.000000 0.000000
# 2 -0.009813 0.020532 -0.005605 0.000000 0.000000 0.000000
# 3 -0.003444 -0.005605 0.016007 0.000000 0.000000 0.000000
# 4 0.000000 0.000000 0.000000 0.024237 0.000000 0.000000
# 5 0.000000 0.000000 0.000000 0.000000 0.047270 0.000000
# 6 0.000000 0.000000 0.000000 0.000000 0.000000 0.018176
#
#
# Mechanical properties :
#
#
# Convention : Reuss Voigt Hill
#
# Bulk Modulus (GPa) = 69.94290 72.92053 71.43171
# Shear Modulus (GPa) = 27.14528 32.56773 29.85650
#
# Velocity S-wave (km/s) = 3.91623 4.28958 4.10715
# Velocity P-wave (km/s) = 7.74379 8.10762 7.92779
#
# Compressibility (1/GPa) = 0.01429738
#
# Stress axis : x y z
#
# Youngs Moduli (GPa) = 64.59154 48.70351 62.47333
#
# Poissons Ratio (x) = 0.47794 0.21514
# Poissons Ratio (y) = 0.63385 0.35016
# Poissons Ratio (z) = 0.22244 0.27298
#
# Static dielectric constant tensor:
#      x y z
#    x 3.396900 0.000000 0.000000 
#    y 0.000000 7.080670 0.000000 
#    z 0.000000 0.000000 3.255920 
# 
# 
# High freq. dielectric constant tensor:
#      x y z
#    x 1.687980 0.000000 0.000000 
#    y 0.000000 1.668600 0.000000 
#    z 0.000000 0.000000 1.689760 
# 
# From -- ./inp_files/18671.got.cif
#   From: 2010.03.12/outbox.cif.g09.slc.cpg/sg65_10_cif.got.tgz:18671.got - 2010.04.10 20:52:16.
