data_PCOD8272575
_publ_section_title
;
Structure prediction by ZEFSAII (Michael W. Deem and Ramdas Pophale) SiO2 
 PCOD8272575
Probable space group: C M M M
;
_chemical_formula_sum "Si O2"
_cell_formula_units_Z 72
_cell_length_a 9.932468
_cell_length_b 25.504289
_cell_length_c 17.583161
_cell_angle_alpha 90.000000
_cell_angle_beta 90.000000
_cell_angle_gamma 90.000000
_cell_volume 4454.175740
_symmetry_space_group_name_H-M "C M M M"
_symmetry_group_IT_number 65
_symmetry_cell_setting 'orthorhombic'
loop_
_space_group_symop_operation_xyz
x,y,z
-x,-y,z
x,-y,-z
-x,y,-z
-x,-y,-z
x,y,-z
-x,y,z
x,-y,z
1/2+x,1/2+y,z
1/2-x,1/2-y,z
1/2+x,1/2-y,-z
1/2-x,1/2+y,-z
1/2-x,1/2-y,-z
1/2+x,1/2+y,-z
1/2-x,1/2+y,z
1/2+x,1/2-y,z
loop_
_atom_site_type_symbol
_atom_site_label
_atom_site_fract_x
_atom_site_fract_y
_atom_site_fract_z
Si Si1 0.845497 0.061544 0.000000
Si Si2 0.349896 0.562140 0.584574
Si Si3 0.250389 0.875580 0.137549
Si Si4 0.657815 0.938034 0.281819
Si Si5 0.500000 0.688269 0.908644
Si Si6 0.000000 0.689590 0.910919
O O1 0.763669 0.080690 0.072827
O O2 0.000000 0.082863 0.000000
O O3 0.845632 0.000000 0.000000
O O4 0.316716 0.583901 0.500000
O O5 0.500000 0.581362 0.609783
O O6 0.349613 0.500000 0.582463
O O7 0.233531 0.581317 0.641857
O O8 0.267228 0.906807 0.215466
O O9 0.124346 0.837226 0.134615
O O10 0.373392 0.837343 0.126054
O O11 0.500000 0.923550 0.287343
O O12 0.676392 0.000000 0.267826
O O13 0.500000 0.749488 0.890958
O O14 0.500000 0.678394 0.000000
O O15 0.000000 0.679980 0.000000
#
# Coordination Sequence:
#
# PCOD8272575 Si02
#       6
#     8  16  16  16   8   8
#     4  11  22  35  50  72 101 138 177 209 242 299
#     4   8  15  29  49  73 100 133 172 207 241 286
#     4  12  20  37  50  75 101 132 171 211 260 303
#     4  10  21  33  47  72 107 143 171 201 245 300
#     4  11  22  38  56  74  93 126 177 223 274 315
#     4  11  22  36  58  74  95 126 169 227 274 309
#
# _framework density 16.164607
#
# number of rings (size 3 to 8) (size 9 to 14) (size 15 to 20)
#    0.000    1.667    4.444    2.000    1.556    2.222 
#    0.000    2.778    0.000    0.000    0.000    0.000 
#    0.000    5.333    0.000    0.000    0.000    0.000 
#
# Total GULP energy -446234.124926 kJ/mol
# GULP energy per Si atom -12395.392359 kJ/mol
# Density = 1.612782 g / cm^3
# Si number density = 16.164607 Si / 1000 Ang^3
#
#
#
# Elastic Constant Matrix: (Units=GPa)
#
#
# Indices 1 2 3 4 5 6 
#
# 1 135.1991 45.9993 68.9250 0.0000 0.0000 0.0000
# 2 45.9993 74.2460 40.8112 0.0000 0.0000 0.0000
# 3 68.9250 40.8112 125.7196 0.0000 0.0000 0.0000
# 4 0.0000 0.0000 0.0000 -3.2402 0.0000 0.0000
# 5 0.0000 0.0000 0.0000 0.0000 33.7864 0.0000
# 6 0.0000 0.0000 0.0000 0.0000 0.0000 18.6402
#
#
#
# Elastic Compliance Matrix: (Units=1/GPa)
#
#
# Indices 1 2 3 4 5 6 
#
# 1 0.011330 -0.004388 -0.004787 0.000000 0.000000 0.000000
# 2 -0.004388 0.018094 -0.003468 0.000000 0.000000 0.000000
# 3 -0.004787 -0.003468 0.011704 0.000000 0.000000 0.000000
# 4 0.000000 0.000000 0.000000 -0.308624 0.000000 0.000000
# 5 0.000000 0.000000 0.000000 0.000000 0.029598 0.000000
# 6 0.000000 0.000000 0.000000 0.000000 0.000000 0.053647
#
#
# Mechanical properties :
#
#
# Convention : Reuss Voigt Hill
#
# Bulk Modulus (GPa) = 63.12370 71.84841 67.48606
# Shear Modulus (GPa) = -32.53431 21.79923 -5.36754
#
# Velocity S-wave (km/s) = -4.49117 3.67628 -1.82421
# Velocity P-wave (km/s) = 3.49875 7.90978 6.11579
#
# Compressibility (1/GPa) = 0.01584191
#
# Stress axis : x y z
#
# Youngs Moduli (GPa) = 88.26135 55.26820 85.43774
#
# Poissons Ratio (x) = 0.24253 0.40900
# Poissons Ratio (y) = 0.38730 0.29628
# Poissons Ratio (z) = 0.42252 0.19166
#
# Static dielectric constant tensor:
#      x y z
#    x 3.247410 0.000000 0.000000 
#    y 0.000000 2.893220 0.000000 
#    z 0.000000 0.000000 3.142440 
# 
# 
# High freq. dielectric constant tensor:
#      x y z
#    x 1.638910 0.000000 0.000000 
#    y 0.000000 1.598470 0.000000 
#    z 0.000000 0.000000 1.611150 
# 
# From -- ./inp_files/49793.got.cif
#   From: 2010.03.12/outbox.cif.g09.slc.cpg/sg65_25_cif.got.tgz:49793.got - 2010.04.10 20:52:16.
