data_PCOD8272348
_publ_section_title
;
Structure prediction by ZEFSAII (Michael W. Deem and Ramdas Pophale) SiO2 
 PCOD8272348
Probable space group: C M M M
;
_chemical_formula_sum "Si O2"
_cell_formula_units_Z 64
_cell_length_a 17.110394
_cell_length_b 12.136808
_cell_length_c 15.391222
_cell_angle_alpha 90.000000
_cell_angle_beta 90.000000
_cell_angle_gamma 90.000000
_cell_volume 3196.226840
_symmetry_space_group_name_H-M "C M M M"
_symmetry_group_IT_number 65
_symmetry_cell_setting 'orthorhombic'
loop_
_space_group_symop_operation_xyz
x,y,z
-x,-y,z
x,-y,-z
-x,y,-z
-x,-y,-z
x,y,-z
-x,y,z
x,-y,z
1/2+x,1/2+y,z
1/2-x,1/2-y,z
1/2+x,1/2-y,-z
1/2-x,1/2+y,-z
1/2-x,1/2-y,-z
1/2+x,1/2+y,-z
1/2-x,1/2+y,z
1/2+x,1/2-y,z
loop_
_atom_site_type_symbol
_atom_site_label
_atom_site_fract_x
_atom_site_fract_y
_atom_site_fract_z
Si Si1 0.159475 0.772241 0.648931
Si Si2 0.907182 0.125007 0.000000
Si Si3 0.091810 0.623554 0.500000
Si Si4 0.907528 0.500000 0.904451
Si Si5 0.086673 0.000000 0.600335
Si Si6 0.092713 0.267480 0.164359
O O1 0.250000 0.750000 0.635495
O O2 0.115299 0.685995 0.587771
O O3 0.136250 0.763312 0.748562
O O4 0.138371 0.895491 0.623480
O O5 0.878050 0.188199 0.913611
O O6 0.000000 0.125075 0.000000
O O7 0.874389 0.000000 0.000000
O O8 0.128084 0.500000 0.500000
O O9 0.000000 0.615526 0.500000
O O10 0.879874 0.391707 0.854483
O O11 0.000000 0.500000 0.914078
O O12 0.869497 0.500000 0.000000
O O13 0.069466 0.000000 0.500000
O O14 0.000000 0.000000 0.646566
O O15 0.000000 0.257843 0.176978
#
# Coordination Sequence:
#
# PCOD8272348 Si02
#       6
#    16   8   8   8   8  16
#     4  12  27  42  65  95 135 171 213 264 329 391
#     4   9  18  33  56  87 121 160 211 274 324 370
#     4  11  25  45  69  95 127 163 211 269 325 383
#     4   9  16  31  58  87 115 154 205 262 313 364
#     4  11  24  45  72  95 125 174 230 269 310 387
#     4  10  20  36  60  89 122 162 215 267 318 379
#
# _framework density 20.023607999999999
#
# number of rings (size 3 to 8) (size 9 to 14) (size 15 to 20)
#    0.000    1.500    2.500    2.625    5.250    0.000 
#    0.000    0.625    0.000    0.000    0.000    0.000 
#    0.000    0.000    0.000    0.000    0.000    0.000 
#
# Total GULP energy -396774.826547 kJ/mol
# GULP energy per Si atom -12399.213330 kJ/mol
# Density = 1.997803 g / cm^3
# Si number density = 20.023608 Si / 1000 Ang^3
#
#
#
# Elastic Constant Matrix: (Units=GPa)
#
#
# Indices 1 2 3 4 5 6 
#
# 1 80.8998 48.8489 26.4596 0.0000 0.0000 0.0000
# 2 48.8489 203.5359 70.1694 0.0000 0.0000 0.0000
# 3 26.4596 70.1694 140.0897 0.0000 0.0000 0.0000
# 4 0.0000 0.0000 0.0000 17.8992 0.0000 0.0000
# 5 0.0000 0.0000 0.0000 0.0000 154.0075 0.0000
# 6 0.0000 0.0000 0.0000 0.0000 0.0000 24.3844
#
#
#
# Elastic Compliance Matrix: (Units=1/GPa)
#
#
# Indices 1 2 3 4 5 6 
#
# 1 0.014625 -0.003091 -0.001214 0.000000 0.000000 0.000000
# 2 -0.003091 0.006592 -0.002718 0.000000 0.000000 0.000000
# 3 -0.001214 -0.002718 0.008729 0.000000 0.000000 0.000000
# 4 0.000000 0.000000 0.000000 0.055869 0.000000 0.000000
# 5 0.000000 0.000000 0.000000 0.000000 0.006493 0.000000
# 6 0.000000 0.000000 0.000000 0.000000 0.000000 0.041010
#
#
# Mechanical properties :
#
#
# Convention : Reuss Voigt Hill
#
# Bulk Modulus (GPa) = 62.89619 79.49793 71.19706
# Shear Modulus (GPa) = 32.75175 57.86138 45.30657
#
# Velocity S-wave (km/s) = 4.04871 5.38139 4.76190
# Velocity P-wave (km/s) = 7.30310 8.85442 8.11591
#
# Compressibility (1/GPa) = 0.01589921
#
# Stress axis : x y z
#
# Youngs Moduli (GPa) = 68.37769 151.69565 114.56119
#
# Poissons Ratio (x) = 0.46897 0.13905
# Poissons Ratio (y) = 0.21139 0.31138
# Poissons Ratio (z) = 0.08299 0.41231
#
# Static dielectric constant tensor:
#      x y z
#    x 3.301440 0.000000 0.000000 
#    y 0.000000 4.047470 0.000000 
#    z 0.000000 0.000000 3.557990 
# 
# 
# High freq. dielectric constant tensor:
#      x y z
#    x 1.752840 0.000000 0.000000 
#    y 0.000000 1.801150 0.000000 
#    z 0.000000 0.000000 1.794640 
# 
# From -- ./inp_files/37844.got.cif
#   From: 2010.03.12/outbox.cif.g09.slc.cpg/sg65_19_cif.got.tgz:37844.got - 2010.04.10 20:52:16.
