data_PCOD8272608
_publ_section_title
;
Structure prediction by ZEFSAII (Michael W. Deem and Ramdas Pophale) SiO2 
 PCOD8272608
Probable space group: C M M M
;
_chemical_formula_sum "Si O2"
_cell_formula_units_Z 96
_cell_length_a 24.542724
_cell_length_b 12.140119
_cell_length_c 13.841466
_cell_angle_alpha 90.000000
_cell_angle_beta 90.000000
_cell_angle_gamma 90.000000
_cell_volume 4124.086802
_symmetry_space_group_name_H-M "C M M M"
_symmetry_group_IT_number 65
_symmetry_cell_setting 'orthorhombic'
loop_
_space_group_symop_operation_xyz
x,y,z
-x,-y,z
x,-y,-z
-x,y,-z
-x,-y,-z
x,y,-z
-x,y,z
x,-y,z
1/2+x,1/2+y,z
1/2-x,1/2-y,z
1/2+x,1/2-y,-z
1/2-x,1/2+y,-z
1/2-x,1/2-y,-z
1/2+x,1/2+y,-z
1/2-x,1/2+y,z
1/2+x,1/2-y,z
loop_
_atom_site_type_symbol
_atom_site_label
_atom_site_fract_x
_atom_site_fract_y
_atom_site_fract_z
Si Si1 0.284273 0.631338 0.893780
Si Si2 0.172784 0.369460 0.193810
Si Si3 0.557672 0.871716 0.777897
Si Si4 0.168985 0.127249 0.694743
Si Si5 0.060493 0.788368 0.389226
Si Si6 0.219374 0.369120 0.606226
O O1 0.283398 0.500000 0.888994
O O2 0.220992 0.675066 0.876931
O O3 0.324119 0.676536 0.806217
O O4 0.304341 0.669025 0.000000
O O5 0.180054 0.500000 0.195485
O O6 0.111140 0.336944 0.159909
O O7 0.179345 0.326166 0.306589
O O8 0.500000 0.835523 0.828572
O O9 0.560683 0.824149 0.670139
O O10 0.558585 0.000000 0.761041
O O11 0.108104 0.134384 0.653375
O O12 0.217628 0.174157 0.624561
O O13 0.183078 0.000000 0.706938
O O14 0.073387 0.760899 0.500000
O O15 0.000000 0.844921 0.379616
O O16 0.199612 0.330207 0.500000
O O17 0.220114 0.500000 0.610619
#
# Coordination Sequence:
#
# PCOD8272608 Si02
#       6
#    16  16  16  16  16  16
#     4   8  14  27  50  78 104 130 161 199 245 296
#     4   8  14  25  44  70  95 121 156 198 243 288
#     4   9  18  33  51  68  91 128 169 207 248 290
#     4   9  17  30  49  72 100 133 163 194 239 294
#     4  10  21  34  48  70  99 131 169 209 244 283
#     4   8  13  22  38  61  90 123 155 187 227 278
#
# _framework density 23.27788
#
# number of rings (size 3 to 8) (size 9 to 14) (size 15 to 20)
#    0.000    3.333    0.000    2.500    0.000    2.333 
#    0.000    7.500    0.000    8.000    0.000    8.167 
#    0.000    0.000    0.000    0.000    0.000    0.333 
#
# Total GULP energy -594738.263551 kJ/mol
# GULP energy per Si atom -12390.380491 kJ/mol
# Density = 2.322490 g / cm^3
# Si number density = 23.277880 Si / 1000 Ang^3
#
#
#
# Elastic Constant Matrix: (Units=GPa)
#
#
# Indices 1 2 3 4 5 6 
#
# 1 202.8630 29.7913 67.1526 0.0000 0.0000 0.0000
# 2 29.7913 43.0062 11.4020 0.0000 0.0000 0.0000
# 3 67.1526 11.4020 109.4499 0.0000 0.0000 0.0000
# 4 0.0000 0.0000 0.0000 28.9276 0.0000 0.0000
# 5 0.0000 0.0000 0.0000 0.0000 23.1144 0.0000
# 6 0.0000 0.0000 0.0000 0.0000 0.0000 26.5379
#
#
#
# Elastic Compliance Matrix: (Units=1/GPa)
#
#
# Indices 1 2 3 4 5 6 
#
# 1 0.006701 -0.003653 -0.003731 0.000000 0.000000 0.000000
# 2 -0.003653 0.025904 -0.000457 0.000000 0.000000 0.000000
# 3 -0.003731 -0.000457 0.011473 0.000000 0.000000 0.000000
# 4 0.000000 0.000000 0.000000 0.034569 0.000000 0.000000
# 5 0.000000 0.000000 0.000000 0.000000 0.043263 0.000000
# 6 0.000000 0.000000 0.000000 0.000000 0.000000 0.037682
#
#
# Mechanical properties :
#
#
# Convention : Reuss Voigt Hill
#
# Bulk Modulus (GPa) = 35.21587 63.55679 49.38633
# Shear Modulus (GPa) = 27.06514 32.18085 29.62299
#
# Velocity S-wave (km/s) = 3.41353 3.72218 3.57120
# Velocity P-wave (km/s) = 5.54054 6.77020 6.18600
#
# Compressibility (1/GPa) = 0.02839629
#
# Stress axis : x y z
#
# Youngs Moduli (GPa) = 149.23559 38.60398 87.15935
#
# Poissons Ratio (x) = 0.14101 0.32517
# Poissons Ratio (y) = 0.54511 0.03987
# Poissons Ratio (z) = 0.55676 0.01766
#
# Static dielectric constant tensor:
#      x y z
#    x 4.864300 0.000000 0.000000 
#    y 0.000000 4.752110 0.000000 
#    z 0.000000 0.000000 4.174780 
# 
# 
# High freq. dielectric constant tensor:
#      x y z
#    x 1.915720 0.000000 0.000000 
#    y 0.000000 1.978700 0.000000 
#    z 0.000000 0.000000 1.888650 
# 
# From -- ./inp_files/44105.got.cif
#   From: 2010.03.12/outbox.cif.g09.slc.cpg/sg65_23_cif.got.tgz:44105.got - 2010.04.10 20:52:16.
