data_PCOD8272581
_publ_section_title
;
Structure prediction by ZEFSAII (Michael W. Deem and Ramdas Pophale) SiO2 
 PCOD8272581
Probable space group: C M M M
;
_chemical_formula_sum "Si O2"
_cell_formula_units_Z 48
_cell_length_a 17.531523
_cell_length_b 7.261916
_cell_length_c 19.541272
_cell_angle_alpha 90.000000
_cell_angle_beta 90.000000
_cell_angle_gamma 90.000000
_cell_volume 2487.847163
_symmetry_space_group_name_H-M "C M M M"
_symmetry_group_IT_number 65
_symmetry_cell_setting 'orthorhombic'
loop_
_space_group_symop_operation_xyz
x,y,z
-x,-y,z
x,-y,-z
-x,y,-z
-x,-y,-z
x,y,-z
-x,y,z
x,-y,z
1/2+x,1/2+y,z
1/2-x,1/2-y,z
1/2+x,1/2-y,-z
1/2-x,1/2+y,-z
1/2-x,1/2-y,-z
1/2+x,1/2+y,-z
1/2-x,1/2+y,z
1/2+x,1/2-y,z
loop_
_atom_site_type_symbol
_atom_site_label
_atom_site_fract_x
_atom_site_fract_y
_atom_site_fract_z
Si Si1 0.409941 0.208366 0.637475
Si Si2 0.409697 0.500000 0.255192
Si Si3 0.661522 0.786831 0.500000
Si Si4 0.660030 0.782619 0.000000
Si Si5 0.591258 0.500000 0.898951
O O1 0.500000 0.221370 0.629230
O O2 0.381199 0.320391 0.703639
O O3 0.374215 0.298883 0.568930
O O4 0.381759 0.000000 0.648477
O O5 0.500000 0.500000 0.250487
O O6 0.377060 0.500000 0.178547
O O7 0.750000 0.750000 0.500000
O O8 0.639951 0.000000 0.500000
O O9 0.750000 0.750000 0.000000
O O10 0.623356 0.685577 0.066378
O O11 0.640537 0.000000 0.000000
O O12 0.500000 0.500000 0.904151
#
# Coordination Sequence:
#
# PCOD8272581 Si02
#       5
#    16   8   8   8   8
#     4   9  18  34  55  77 102 140 188 229 274 331
#     4   9  19  35  57  83 113 143 176 229 282 328
#     4  10  21  33  50  72 106 140 181 237 282 318
#     4  11  21  39  66  87 120 159 195 232 285 343
#     4  10  22  39  61  96 126 147 193 248 283 338
#
# _framework density 19.293790000000001
#
# number of rings (size 3 to 8) (size 9 to 14) (size 15 to 20)
#    0.000    2.333    1.667    1.500    2.333    4.667 
#    0.000    7.500    0.000    0.000    0.000    0.000 
#    0.000    0.000    0.000    0.000    0.000    0.000 
#
# Total GULP energy -297522.017157 kJ/mol
# GULP energy per Si atom -12396.750715 kJ/mol
# Density = 1.924988 g / cm^3
# Si number density = 19.293790 Si / 1000 Ang^3
#
#
#
# Elastic Constant Matrix: (Units=GPa)
#
#
# Indices 1 2 3 4 5 6 
#
# 1 69.1265 29.9341 45.6388 0.0000 0.0000 0.0000
# 2 29.9341 138.1296 82.0258 0.0000 0.0000 0.0000
# 3 45.6388 82.0258 216.8887 0.0000 0.0000 0.0000
# 4 0.0000 0.0000 0.0000 26.3230 0.0000 0.0000
# 5 0.0000 0.0000 0.0000 0.0000 5.8755 0.0000
# 6 0.0000 0.0000 0.0000 0.0000 0.0000 25.1389
#
#
#
# Elastic Compliance Matrix: (Units=1/GPa)
#
#
# Indices 1 2 3 4 5 6 
#
# 1 0.017234 -0.002039 -0.002855 0.000000 0.000000 0.000000
# 2 -0.002039 0.009578 -0.003193 0.000000 0.000000 0.000000
# 3 -0.002855 -0.003193 0.006419 0.000000 0.000000 0.000000
# 4 0.000000 0.000000 0.000000 0.037990 0.000000 0.000000
# 5 0.000000 0.000000 0.000000 0.000000 0.170197 0.000000
# 6 0.000000 0.000000 0.000000 0.000000 0.000000 0.039779
#
#
# Mechanical properties :
#
#
# Convention : Reuss Voigt Hill
#
# Bulk Modulus (GPa) = 58.63107 82.14913 70.39010
# Shear Modulus (GPa) = 16.49851 29.23723 22.86787
#
# Velocity S-wave (km/s) = 2.92742 3.89700 3.44647
# Velocity P-wave (km/s) = 6.47154 7.93217 7.23879
#
# Compressibility (1/GPa) = 0.01705580
#
# Stress axis : x y z
#
# Youngs Moduli (GPa) = 58.02335 104.40941 155.78526
#
# Poissons Ratio (x) = 0.21292 0.44481
# Poissons Ratio (y) = 0.11833 0.49744
# Poissons Ratio (z) = 0.16567 0.33339
#
# Static dielectric constant tensor:
#      x y z
#    x 3.253800 0.000000 0.000000 
#    y 0.000000 3.930330 0.000000 
#    z 0.000000 0.000000 3.886880 
# 
# 
# High freq. dielectric constant tensor:
#      x y z
#    x 1.732010 0.000000 0.000000 
#    y 0.000000 1.755720 0.000000 
#    z 0.000000 0.000000 1.756090 
# 
# From -- ./inp_files/53763.got.cif
#   From: 2010.03.12/outbox.cif.g09.slc.cpg/sg65_27_cif.got.tgz:53763.got - 2010.04.10 20:52:16.
