data_PCOD8272185
_publ_section_title
;
Structure prediction by ZEFSAII (Michael W. Deem and Ramdas Pophale) SiO2 
 PCOD8272185
Probable space group: C M M M
;
_chemical_formula_sum "Si O2"
_cell_formula_units_Z 64
_cell_length_a 8.832967
_cell_length_b 24.595086
_cell_length_c 15.166733
_cell_angle_alpha 90.000000
_cell_angle_beta 90.000000
_cell_angle_gamma 90.000000
_cell_volume 3294.936086
_symmetry_space_group_name_H-M "C M M M"
_symmetry_group_IT_number 65
_symmetry_cell_setting 'orthorhombic'
loop_
_space_group_symop_operation_xyz
x,y,z
-x,-y,z
x,-y,-z
-x,y,-z
-x,-y,-z
x,y,-z
-x,y,z
x,-y,z
1/2+x,1/2+y,z
1/2-x,1/2-y,z
1/2+x,1/2-y,-z
1/2-x,1/2+y,-z
1/2-x,1/2-y,-z
1/2+x,1/2+y,-z
1/2-x,1/2+y,z
1/2+x,1/2-y,z
loop_
_atom_site_type_symbol
_atom_site_label
_atom_site_fract_x
_atom_site_fract_y
_atom_site_fract_z
Si Si1 0.667261 0.500000 0.645953
Si Si2 0.677514 0.808854 0.500000
Si Si3 0.681617 0.384086 0.157719
Si Si4 0.679171 0.111373 0.654382
Si Si5 0.178692 0.808473 0.000000
Si Si6 0.835764 0.000000 0.854045
O O1 0.500000 0.500000 0.601877
O O2 0.757185 0.445846 0.617681
O O3 0.647702 0.500000 0.749659
O O4 0.500000 0.800741 0.500000
O O5 0.750000 0.750000 0.500000
O O6 0.728624 0.841886 0.413492
O O7 0.500000 0.387246 0.167814
O O8 0.753077 0.370289 0.251821
O O9 0.734329 0.339313 0.087696
O O10 0.745168 0.442889 0.121367
O O11 0.500000 0.105582 0.662718
O O12 0.250000 0.750000 0.000000
O O13 0.000000 0.803564 0.000000
O O14 0.000000 0.000000 0.900186
#
# Coordination Sequence:
#
# PCOD8272185 Si02
#       6
#     8   8  16  16   8   8
#     4   9  17  32  55  84 113 143 177 215 263 327
#     4  10  24  41  56  77 107 144 188 230 273 322
#     4   9  18  34  55  80 107 139 176 218 269 325
#     4  10  20  36  57  82 111 143 177 223 276 323
#     4  10  22  37  53  75 107 144 184 224 264 316
#     4   7  12  26  50  76 101 125 160 207 255 307
#
# _framework density 19.423746000000001
#
# number of rings (size 3 to 8) (size 9 to 14) (size 15 to 20)
#    0.000    2.750    0.000    2.625    0.000    5.000 
#    0.000   10.000    0.000    0.000    0.000    6.125 
#    0.000    0.000    0.000    0.000    0.000    0.000 
#
# Total GULP energy -396554.023686 kJ/mol
# GULP energy per Si atom -12392.313240 kJ/mol
# Density = 1.937954 g / cm^3
# Si number density = 19.423746 Si / 1000 Ang^3
#
#
#
# Elastic Constant Matrix: (Units=GPa)
#
#
# Indices 1 2 3 4 5 6 
#
# 1 62.1650 50.6994 42.9396 0.0000 0.0000 0.0000
# 2 50.6994 207.0177 97.9655 0.0000 0.0000 0.0000
# 3 42.9396 97.9655 126.2346 0.0000 0.0000 0.0000
# 4 0.0000 0.0000 0.0000 9.7052 0.0000 0.0000
# 5 0.0000 0.0000 0.0000 0.0000 23.1088 0.0000
# 6 0.0000 0.0000 0.0000 0.0000 0.0000 34.7678
#
#
#
# Elastic Compliance Matrix: (Units=1/GPa)
#
#
# Indices 1 2 3 4 5 6 
#
# 1 0.022098 -0.002931 -0.005242 0.000000 0.000000 0.000000
# 2 -0.002931 0.008023 -0.005229 0.000000 0.000000 0.000000
# 3 -0.005242 -0.005229 0.013763 0.000000 0.000000 0.000000
# 4 0.000000 0.000000 0.000000 0.103038 0.000000 0.000000
# 5 0.000000 0.000000 0.000000 0.000000 0.043274 0.000000
# 6 0.000000 0.000000 0.000000 0.000000 0.000000 0.028762
#
#
# Mechanical properties :
#
#
# Convention : Reuss Voigt Hill
#
# Bulk Modulus (GPa) = 58.55165 86.51404 72.53284
# Shear Modulus (GPa) = 19.88430 27.10387 23.49409
#
# Velocity S-wave (km/s) = 3.20302 3.73956 3.48164
# Velocity P-wave (km/s) = 6.62487 7.95505 7.32023
#
# Compressibility (1/GPa) = 0.01707894
#
# Stress axis : x y z
#
# Youngs Moduli (GPa) = 45.25398 124.64242 72.65869
#
# Poissons Ratio (x) = 0.36535 0.38086
# Poissons Ratio (y) = 0.13265 0.37995
# Poissons Ratio (z) = 0.23721 0.65178
#
# Static dielectric constant tensor:
#      x y z
#    x 3.376090 0.000000 0.000000 
#    y 0.000000 3.822740 0.000000 
#    z 0.000000 0.000000 3.476120 
# 
# 
# High freq. dielectric constant tensor:
#      x y z
#    x 1.735270 0.000000 0.000000 
#    y 0.000000 1.766230 0.000000 
#    z 0.000000 0.000000 1.751180 
# 
# From -- ./inp_files/36076.got.cif
#   From: 2010.03.12/outbox.cif.g09.slc.cpg/sg65_19_cif.got.tgz:36076.got - 2010.04.10 20:52:16.
