data_PCOD8272067
_publ_section_title
;
Structure prediction by ZEFSAII (Michael W. Deem and Ramdas Pophale) SiO2 
 PCOD8272067
Probable space group: C M M M
;
_chemical_formula_sum "Si O2"
_cell_formula_units_Z 56
_cell_length_a 14.782522
_cell_length_b 10.007782
_cell_length_c 18.789457
_cell_angle_alpha 90.000000
_cell_angle_beta 90.000000
_cell_angle_gamma 90.000000
_cell_volume 2779.717108
_symmetry_space_group_name_H-M "C M M M"
_symmetry_group_IT_number 65
_symmetry_cell_setting 'orthorhombic'
loop_
_space_group_symop_operation_xyz
x,y,z
-x,-y,z
x,-y,-z
-x,y,-z
-x,-y,-z
x,y,-z
-x,y,z
x,-y,z
1/2+x,1/2+y,z
1/2-x,1/2-y,z
1/2+x,1/2-y,-z
1/2-x,1/2+y,-z
1/2-x,1/2-y,-z
1/2+x,1/2+y,-z
1/2-x,1/2+y,z
1/2+x,1/2-y,z
loop_
_atom_site_type_symbol
_atom_site_label
_atom_site_fract_x
_atom_site_fract_y
_atom_site_fract_z
Si Si1 0.144756 0.000000 0.921351
Si Si2 0.860785 0.500000 0.081959
Si Si3 0.000000 0.156938 0.421297
Si Si4 0.338865 0.338293 0.681161
Si Si5 0.357270 0.745132 0.165249
O O1 0.104069 0.872770 0.882461
O O2 0.253098 0.000000 0.920983
O O3 0.105843 0.000000 0.000000
O O4 0.898177 0.376851 0.128701
O O5 0.897804 0.500000 0.000000
O O6 0.909014 0.199152 0.380597
O O7 0.000000 0.223352 0.500000
O O8 0.000000 0.000000 0.428745
O O9 0.318584 0.500000 0.686187
O O10 0.250000 0.250000 0.665003
O O11 0.385733 0.283754 0.753494
O O12 0.250000 0.750000 0.162940
#
# Coordination Sequence:
#
# PCOD8272067 Si02
#       5
#     8   8   8  16  16
#     4   9  14  22  36  61  99 138 177 229 282 318
#     4   9  16  24  38  65 103 144 187 233 280 324
#     4   9  20  40  63  89 118 149 187 227 279 349
#     4  10  20  35  59  87 116 152 191 233 281 337
#     4   9  16  25  41  68 102 142 184 232 271 330
#
# _framework density 20.145935000000001
#
# number of rings (size 3 to 8) (size 9 to 14) (size 15 to 20)
#    0.000    2.714    1.429    0.857    6.000    4.000 
#    0.000    0.714    0.000    0.857    0.000    6.000 
#    0.000    0.000    0.000    0.000    0.000    0.000 
#
# Total GULP energy -346881.085918 kJ/mol
# GULP energy per Si atom -12388.610211 kJ/mol
# Density = 2.010008 g / cm^3
# Si number density = 20.145935 Si / 1000 Ang^3
#
#
#
# Elastic Constant Matrix: (Units=GPa)
#
#
# Indices 1 2 3 4 5 6 
#
# 1 67.9319 30.5706 55.1327 0.0000 0.0000 0.0000
# 2 30.5706 150.2240 81.4281 0.0000 0.0000 0.0000
# 3 55.1327 81.4281 211.7353 0.0000 0.0000 0.0000
# 4 0.0000 0.0000 0.0000 -522.3786 0.0000 0.0000
# 5 0.0000 0.0000 0.0000 0.0000 -155.3244 0.0000
# 6 0.0000 0.0000 0.0000 0.0000 0.0000 14.0153
#
#
#
# Elastic Compliance Matrix: (Units=1/GPa)
#
#
# Indices 1 2 3 4 5 6 
#
# 1 0.018926 -0.001491 -0.004355 0.000000 0.000000 0.000000
# 2 -0.001491 0.008527 -0.002891 0.000000 0.000000 0.000000
# 3 -0.004355 -0.002891 0.006969 0.000000 0.000000 0.000000
# 4 0.000000 0.000000 0.000000 -0.001914 0.000000 0.000000
# 5 0.000000 0.000000 0.000000 0.000000 -0.006438 0.000000
# 6 0.000000 0.000000 0.000000 0.000000 0.000000 0.071350
#
#
# Mechanical properties :
#
#
# Convention : Reuss Voigt Hill
#
# Bulk Modulus (GPa) = 59.00345 84.90599 71.95472
# Shear Modulus (GPa) = 41.47917 -115.22021 -36.87052
#
# Velocity S-wave (km/s) = 4.54247 -7.57080 -4.28269
# Velocity P-wave (km/s) = 7.54080 5.84685 3.36735
#
# Compressibility (1/GPa) = 0.01694816
#
# Stress axis : x y z
#
# Youngs Moduli (GPa) = 52.83812 117.27080 143.50081
#
# Poissons Ratio (x) = 0.17485 0.62488
# Poissons Ratio (y) = 0.07878 0.41488
# Poissons Ratio (z) = 0.23009 0.33905
#
# Static dielectric constant tensor:
#      x y z
#    x 3.162400 0.000000 0.000000 
#    y 0.000000 3.884960 0.000000 
#    z 0.000000 0.000000 4.099850 
# 
# 
# High freq. dielectric constant tensor:
#      x y z
#    x 1.760030 0.000000 0.000000 
#    y 0.000000 1.783230 0.000000 
#    z 0.000000 0.000000 1.791490 
# 
# From -- ./inp_files/53915.got.cif
#   From: 2010.03.12/outbox.cif.g09.slc.cpg/sg65_27_cif.got.tgz:53915.got - 2010.04.10 20:52:16.
