data_PCOD8272884
_publ_section_title
;
Structure prediction by ZEFSAII (Michael W. Deem and Ramdas Pophale) SiO2 
 PCOD8272884
Probable space group: C M M M
;
_chemical_formula_sum "Si O2"
_cell_formula_units_Z 72
_cell_length_a 8.113014
_cell_length_b 20.321357
_cell_length_c 24.708515
_cell_angle_alpha 90.000000
_cell_angle_beta 90.000000
_cell_angle_gamma 90.000000
_cell_volume 4073.629956
_symmetry_space_group_name_H-M "C M M M"
_symmetry_group_IT_number 65
_symmetry_cell_setting 'orthorhombic'
loop_
_space_group_symop_operation_xyz
x,y,z
-x,-y,z
x,-y,-z
-x,y,-z
-x,-y,-z
x,y,-z
-x,y,z
x,-y,z
1/2+x,1/2+y,z
1/2-x,1/2-y,z
1/2+x,1/2-y,-z
1/2-x,1/2+y,-z
1/2-x,1/2-y,-z
1/2+x,1/2+y,-z
1/2-x,1/2+y,z
1/2+x,1/2-y,z
loop_
_atom_site_type_symbol
_atom_site_label
_atom_site_fract_x
_atom_site_fract_y
_atom_site_fract_z
Si Si1 0.193607 0.320258 0.439220
Si Si2 0.683310 0.421820 0.237929
Si Si3 0.805682 0.927133 0.644797
Si Si4 0.182034 0.578312 0.873712
Si Si5 0.500000 0.421569 0.938573
O O1 0.265363 0.329100 0.500000
O O2 0.250000 0.250000 0.415377
O O3 0.260131 0.378431 0.402748
O O4 0.000000 0.323685 0.439852
O O5 0.500000 0.392157 0.229978
O O6 0.671682 0.500000 0.236932
O O7 0.760230 0.401202 0.296516
O O8 0.795254 0.396739 0.188211
O O9 0.000000 0.932273 0.650301
O O10 0.733607 0.000000 0.631502
O O11 0.187776 0.500000 0.875892
O O12 0.332623 0.606011 0.910306
O O13 0.000000 0.602651 0.893724
O O14 0.500000 0.500000 0.935529
O O15 0.500000 0.396203 0.000000
#
# Coordination Sequence:
#
# PCOD8272884 Si02
#       5
#    16  16  16  16   8
#     4  10  21  36  52  68  90 123 160 197 236 286
#     4   8  13  24  40  57  81 109 137 176 226 275
#     4   9  18  31  49  73  97 121 151 193 240 286
#     4   9  15  22  34  50  69 100 140 181 226 273
#     4   9  16  24  32  44  68 102 141 187 227 263
#
# _framework density 17.674654
#
# number of rings (size 3 to 8) (size 9 to 14) (size 15 to 20)
#    0.000    3.000    1.111    2.000    0.000    3.556 
#    0.000    6.667    0.000    0.000    0.000    0.000 
#    0.000    0.000    0.000    0.000    0.000    1.111 
#
# Total GULP energy -446012.341841 kJ/mol
# GULP energy per Si atom -12389.231718 kJ/mol
# Density = 1.763443 g / cm^3
# Si number density = 17.674654 Si / 1000 Ang^3
#
#
#
# Elastic Constant Matrix: (Units=GPa)
#
#
# Indices 1 2 3 4 5 6 
#
# 1 91.5582 18.6123 52.2216 0.0000 0.0000 0.0000
# 2 18.6123 46.5582 43.1788 0.0000 0.0000 0.0000
# 3 52.2216 43.1788 132.4435 0.0000 0.0000 0.0000
# 4 0.0000 0.0000 0.0000 -1.5603 0.0000 0.0000
# 5 0.0000 0.0000 0.0000 0.0000 20.9558 0.0000
# 6 0.0000 0.0000 0.0000 0.0000 0.0000 14.4349
#
#
#
# Elastic Compliance Matrix: (Units=1/GPa)
#
#
# Indices 1 2 3 4 5 6 
#
# 1 0.014106 -0.000689 -0.005337 0.000000 0.000000 0.000000
# 2 -0.000689 0.030821 -0.009776 0.000000 0.000000 0.000000
# 3 -0.005337 -0.009776 0.012842 0.000000 0.000000 0.000000
# 4 0.000000 0.000000 0.000000 -0.640912 0.000000 0.000000
# 5 0.000000 0.000000 0.000000 0.000000 0.047719 0.000000
# 6 0.000000 0.000000 0.000000 0.000000 0.000000 0.069276
#
#
# Mechanical properties :
#
#
# Convention : Reuss Voigt Hill
#
# Bulk Modulus (GPa) = 38.22134 55.39836 46.80985
# Shear Modulus (GPa) = -11.74206 17.20257 2.73025
#
# Velocity S-wave (km/s) = -2.58028 3.12314 1.24422
# Velocity P-wave (km/s) = 3.57697 6.66459 5.34844
#
# Compressibility (1/GPa) = 0.02616339
#
# Stress axis : x y z
#
# Youngs Moduli (GPa) = 70.89000 32.44563 77.86879
#
# Poissons Ratio (x) = 0.02236 0.41561
# Poissons Ratio (y) = 0.04886 0.76127
# Poissons Ratio (z) = 0.37836 0.31720
#
# Static dielectric constant tensor:
#      x y z
#    x 3.436330 0.000000 0.000000 
#    y 0.000000 2.625990 0.000000 
#    z 0.000000 0.000000 3.918200 
# 
# 
# High freq. dielectric constant tensor:
#      x y z
#    x 1.688120 0.000000 0.000000 
#    y 0.000000 1.601750 0.000000 
#    z 0.000000 0.000000 1.692280 
# 
# From -- ./inp_files/59526.got.cif
#   From: 2010.03.12/outbox.cif.g09.slc.cpg/sg65_30_cif.got.tgz:59526.got - 2010.04.10 20:52:16.
