data_PCOD8272644
_publ_section_title
;
Structure prediction by ZEFSAII (Michael W. Deem and Ramdas Pophale) SiO2 
 PCOD8272644
Probable space group: C M M M
;
_chemical_formula_sum "Si O2"
_cell_formula_units_Z 80
_cell_length_a 18.375913
_cell_length_b 9.599527
_cell_length_c 24.167591
_cell_angle_alpha 90.000000
_cell_angle_beta 90.000000
_cell_angle_gamma 90.000000
_cell_volume 4263.164816
_symmetry_space_group_name_H-M "C M M M"
_symmetry_group_IT_number 65
_symmetry_cell_setting 'orthorhombic'
loop_
_space_group_symop_operation_xyz
x,y,z
-x,-y,z
x,-y,-z
-x,y,-z
-x,-y,-z
x,y,-z
-x,y,z
x,-y,z
1/2+x,1/2+y,z
1/2-x,1/2-y,z
1/2+x,1/2-y,-z
1/2-x,1/2+y,-z
1/2-x,1/2-y,-z
1/2+x,1/2+y,-z
1/2-x,1/2+y,z
1/2+x,1/2-y,z
loop_
_atom_site_type_symbol
_atom_site_label
_atom_site_fract_x
_atom_site_fract_y
_atom_site_fract_z
Si Si1 0.586934 0.000000 0.936815
Si Si2 0.820971 0.837526 0.565136
Si Si3 0.586771 0.500000 0.939081
Si Si4 0.413284 0.659241 0.252988
Si Si5 0.086325 0.339465 0.643696
Si Si6 0.413361 0.746708 0.866100
O O1 0.617463 0.877194 0.899004
O O2 0.500000 0.000000 0.940847
O O3 0.617863 0.000000 0.000000
O O4 0.833440 0.832186 0.500000
O O5 0.750000 0.750000 0.582820
O O6 0.887861 0.754589 0.592295
O O7 0.815973 0.000000 0.584697
O O8 0.500000 0.500000 0.942924
O O9 0.616850 0.372414 0.905011
O O10 0.621142 0.500000 0.000000
O O11 0.500000 0.656097 0.252273
O O12 0.384613 0.500000 0.260764
O O13 0.384614 0.761150 0.301288
O O14 0.382818 0.725930 0.195966
O O15 0.115401 0.500000 0.641527
O O16 0.000000 0.341227 0.642189
O O17 0.500000 0.749422 0.862705
#
# Coordination Sequence:
#
# PCOD8272644 Si02
#       6
#     8  16   8  16  16  16
#     4   9  16  22  28  42  66  98 140 191 242 292
#     4  10  21  38  60  83 108 139 173 209 252 305
#     4   9  14  20  30  44  64  94 140 193 240 288
#     4   9  16  27  41  58  83 117 159 205 252 301
#     4  10  21  34  51  77 107 139 176 218 259 302
#     4   9  15  22  32  46  67 101 144 193 244 292
#
# _framework density 18.765401000000001
#
# number of rings (size 3 to 8) (size 9 to 14) (size 15 to 20)
#    0.000    2.600    1.000    1.800    1.400    5.200 
#    0.000    2.000    0.000    0.000    0.000    0.000 
#    0.000    0.000    0.000    0.000    0.000    6.000 
#
# Total GULP energy -495545.241225 kJ/mol
# GULP energy per Si atom -12388.631031 kJ/mol
# Density = 1.872269 g / cm^3
# Si number density = 18.765401 Si / 1000 Ang^3
#
#
#
# Elastic Constant Matrix: (Units=GPa)
#
#
# Indices 1 2 3 4 5 6 
#
# 1 11.8446 20.3374 19.7122 0.0000 0.0000 0.0000
# 2 20.3374 194.4103 71.6832 0.0000 0.0000 0.0000
# 3 19.7122 71.6832 100.4919 0.0000 0.0000 0.0000
# 4 0.0000 0.0000 0.0000 36.9824 0.0000 0.0000
# 5 0.0000 0.0000 0.0000 0.0000 1.1456 0.0000
# 6 0.0000 0.0000 0.0000 0.0000 0.0000 16.9916
#
#
#
# Elastic Compliance Matrix: (Units=1/GPa)
#
#
# Indices 1 2 3 4 5 6 
#
# 1 0.129819 -0.005687 -0.021408 0.000000 0.000000 0.000000
# 2 -0.005687 0.007229 -0.004041 0.000000 0.000000 0.000000
# 3 -0.021408 -0.004041 0.017033 0.000000 0.000000 0.000000
# 4 0.000000 0.000000 0.000000 0.027040 0.000000 0.000000
# 5 0.000000 0.000000 0.000000 0.000000 0.872895 0.000000
# 6 0.000000 0.000000 0.000000 0.000000 0.000000 0.058853
#
#
# Mechanical properties :
#
#
# Convention : Reuss Voigt Hill
#
# Bulk Modulus (GPa) = 10.89222 58.91248 34.90235
# Shear Modulus (GPa) = 4.14682 24.02485 14.08584
#
# Velocity S-wave (km/s) = 1.48816 3.58197 2.74273
# Velocity P-wave (km/s) = 2.96139 6.96920 5.35442
#
# Compressibility (1/GPa) = 0.09180862
#
# Stress axis : x y z
#
# Youngs Moduli (GPa) = 7.70302 138.33955 58.70994
#
# Poissons Ratio (x) = 0.78670 1.25689
# Poissons Ratio (y) = 0.04380 0.23724
# Poissons Ratio (z) = 0.16491 0.55901
#
# Static dielectric constant tensor:
#      x y z
#    x 2.666020 0.000000 0.000000 
#    y 0.000000 3.783180 0.000000 
#    z 0.000000 0.000000 3.669290 
# 
# 
# High freq. dielectric constant tensor:
#      x y z
#    x 1.643610 0.000000 0.000000 
#    y 0.000000 1.751960 0.000000 
#    z 0.000000 0.000000 1.745020 
# 
# From -- ./inp_files/70874.got.cif
#   From: 2010.03.12/outbox.cif.g09.slc.cpg/sg65_36_cif.got.tgz:70874.got - 2010.04.10 20:52:16.
