data_PCOD8272677
_publ_section_title
;
Structure prediction by ZEFSAII (Michael W. Deem and Ramdas Pophale) SiO2 
 PCOD8272677
Probable space group: C M M M
;
_chemical_formula_sum "Si O2"
_cell_formula_units_Z 120
_cell_length_a 28.032220
_cell_length_b 26.968359
_cell_length_c 8.801353
_cell_angle_alpha 90.000000
_cell_angle_beta 90.000000
_cell_angle_gamma 90.000000
_cell_volume 6653.673003
_symmetry_space_group_name_H-M "C M M M"
_symmetry_group_IT_number 65
_symmetry_cell_setting 'orthorhombic'
loop_
_space_group_symop_operation_xyz
x,y,z
-x,-y,z
x,-y,-z
-x,y,-z
-x,-y,-z
x,y,-z
-x,y,z
x,-y,z
1/2+x,1/2+y,z
1/2-x,1/2-y,z
1/2+x,1/2-y,-z
1/2-x,1/2+y,-z
1/2-x,1/2-y,-z
1/2+x,1/2+y,-z
1/2-x,1/2+y,z
1/2+x,1/2-y,z
loop_
_atom_site_type_symbol
_atom_site_label
_atom_site_fract_x
_atom_site_fract_y
_atom_site_fract_z
Si Si1 0.296189 0.442198 0.827834
Si Si2 0.804769 0.742975 0.679013
Si Si3 0.642229 0.847226 0.819742
Si Si4 0.054109 0.000000 0.319191
Si Si5 0.947617 0.289810 0.820558
Si Si6 0.310510 0.054232 0.180434
Si Si7 0.113472 0.802607 0.179760
Si Si8 0.112680 0.094789 0.678487
O O1 0.308089 0.500000 0.821818
O O2 0.242922 0.432342 0.765106
O O3 0.331974 0.413399 0.718000
O O4 0.302209 0.422238 0.000000
O O5 0.812366 0.744655 0.500000
O O6 0.750000 0.750000 0.725566
O O7 0.820910 0.689805 0.741516
O O8 0.835176 0.787608 0.752367
O O9 0.588000 0.834169 0.770491
O O10 0.653143 0.903253 0.763818
O O11 0.648843 0.841493 0.000000
O O12 0.080885 0.950840 0.258440
O O13 0.055273 0.000000 0.500000
O O14 0.000000 0.000000 0.257425
O O15 0.925626 0.237624 0.766515
O O16 0.000000 0.297612 0.746083
O O17 0.952654 0.289526 0.000000
O O18 0.326131 0.000000 0.245151
O O19 0.309423 0.051037 0.000000
O O20 0.095039 0.855107 0.241571
O O21 0.118400 0.804359 0.000000
O O22 0.106645 0.100808 0.500000
#
# Coordination Sequence:
#
# PCOD8272677 Si02
#       8
#    16  16  16   8  16  16  16  16
#     4   9  17  30  48  69  96 131 170 208 245 291
#     4  10  21  35  49  71 104 136 164 205 258 305
#     4   9  17  30  51  76 100 134 174 205 244 300
#     4   9  20  38  55  71  97 137 177 215 264 319
#     4   8  15  30  51  73  97 125 162 210 255 293
#     4   8  15  28  47  74 104 135 171 205 237 283
#     4  10  21  35  52  74  98 130 170 209 253 309
#     4  11  21  34  52  73  99 129 166 213 261 308
#
# _framework density 18.035150000000002
#
# number of rings (size 3 to 8) (size 9 to 14) (size 15 to 20)
#    0.000    2.733    0.667    2.800    1.867    1.600 
#    0.000    0.000    0.000   14.000    0.000    2.800 
#    0.000    0.000    0.000    4.800    0.000    5.333 
#
# Total GULP energy -743802.630951 kJ/mol
# GULP energy per Si atom -12396.710516 kJ/mol
# Density = 1.799410 g / cm^3
# Si number density = 18.035150 Si / 1000 Ang^3
#
#
#
# Elastic Constant Matrix: (Units=GPa)
#
#
# Indices 1 2 3 4 5 6 
#
# 1 145.1311 81.5508 26.7274 0.0000 0.0000 0.0000
# 2 81.5508 141.9133 22.3453 0.0000 0.0000 0.0000
# 3 26.7274 22.3453 41.0759 0.0000 0.0000 0.0000
# 4 0.0000 0.0000 0.0000 19.6533 0.0000 0.0000
# 5 0.0000 0.0000 0.0000 0.0000 11.9801 0.0000
# 6 0.0000 0.0000 0.0000 0.0000 0.0000 19.8946
#
#
#
# Elastic Compliance Matrix: (Units=1/GPa)
#
#
# Indices 1 2 3 4 5 6 
#
# 1 0.010737 -0.005545 -0.003970 0.000000 0.000000 0.000000
# 2 -0.005545 0.010570 -0.002142 0.000000 0.000000 0.000000
# 3 -0.003970 -0.002142 0.028094 0.000000 0.000000 0.000000
# 4 0.000000 0.000000 0.000000 0.050882 0.000000 0.000000
# 5 0.000000 0.000000 0.000000 0.000000 0.083472 0.000000
# 6 0.000000 0.000000 0.000000 0.000000 0.000000 0.050265
#
#
# Mechanical properties :
#
#
# Convention : Reuss Voigt Hill
#
# Bulk Modulus (GPa) = 38.33356 65.48524 51.90940
# Shear Modulus (GPa) = 18.79485 23.47205 21.13345
#
# Velocity S-wave (km/s) = 3.23170 3.61149 3.42686
# Velocity P-wave (km/s) = 5.93517 7.33342 6.67103
#
# Compressibility (1/GPa) = 0.02608680
#
# Stress axis : x y z
#
# Youngs Moduli (GPa) = 93.13333 94.60415 35.59506
#
# Poissons Ratio (x) = 0.52459 0.14131
# Poissons Ratio (y) = 0.51643 0.07625
# Poissons Ratio (z) = 0.36974 0.20266
#
# Static dielectric constant tensor:
#      x y z
#    x 3.526320 0.000000 0.000000 
#    y 0.000000 3.567720 0.000000 
#    z 0.000000 0.000000 3.020430 
# 
# 
# High freq. dielectric constant tensor:
#      x y z
#    x 1.689800 0.000000 0.000000 
#    y 0.000000 1.699960 0.000000 
#    z 0.000000 0.000000 1.668550 
# 
# From -- ./inp_files/17048.got.cif
#   From: 2010.03.12/outbox.cif.g09.slc.cpg/sg65_9_cif.got.tgz:17048.got - 2010.04.10 20:52:16.
