data_PCOD8272851
_publ_section_title
;
Structure prediction by ZEFSAII (Michael W. Deem and Ramdas Pophale) SiO2 
 PCOD8272851
Probable space group: C M M M
;
_chemical_formula_sum "Si O2"
_cell_formula_units_Z 72
_cell_length_a 9.022727
_cell_length_b 15.759855
_cell_length_c 24.424306
_cell_angle_alpha 90.000000
_cell_angle_beta 90.000000
_cell_angle_gamma 90.000000
_cell_volume 3473.059846
_symmetry_space_group_name_H-M "C M M M"
_symmetry_group_IT_number 65
_symmetry_cell_setting 'orthorhombic'
loop_
_space_group_symop_operation_xyz
x,y,z
-x,-y,z
x,-y,-z
-x,y,-z
-x,-y,-z
x,y,-z
-x,y,z
x,-y,z
1/2+x,1/2+y,z
1/2-x,1/2-y,z
1/2+x,1/2-y,-z
1/2-x,1/2+y,-z
1/2-x,1/2-y,-z
1/2+x,1/2+y,-z
1/2-x,1/2+y,z
1/2+x,1/2-y,z
loop_
_atom_site_type_symbol
_atom_site_label
_atom_site_fract_x
_atom_site_fract_y
_atom_site_fract_z
Si Si1 0.161644 0.597080 0.338886
Si Si2 0.324605 0.662207 0.883230
Si Si3 0.170581 0.902120 0.234778
Si Si4 0.172621 0.160689 0.438976
Si Si5 0.330263 0.000000 0.064782
O O1 0.141195 0.500000 0.323881
O O2 0.240338 0.638760 0.286027
O O3 0.258872 0.599490 0.393814
O O4 0.000000 0.639915 0.347966
O O5 0.500000 0.664132 0.895236
O O6 0.250000 0.750000 0.903206
O O7 0.291074 0.651626 0.818889
O O8 0.253430 0.584013 0.915297
O O9 0.000000 0.894863 0.250904
O O10 0.212744 0.000000 0.222944
O O11 0.202172 0.123752 0.500000
O O12 0.250000 0.250000 0.431619
O O13 0.000000 0.171625 0.428053
O O14 0.500000 0.000000 0.086494
O O15 0.327065 0.000000 0.000000
#
# Coordination Sequence:
#
# PCOD8272851 Si02
#       5
#    16  16  16  16   8
#     4  10  21  35  54  83 115 150 190 235 291 351
#     4  11  23  41  66  98 131 170 216 263 317 375
#     4   9  18  36  59  83 117 159 200 246 303 362
#     4  10  21  37  56  76 102 141 187 238 296 355
#     4  11  25  45  69  97 131 173 216 263 318 371
#
# _framework density 20.730998
#
# number of rings (size 3 to 8) (size 9 to 14) (size 15 to 20)
#    0.000    1.889    1.111    2.333    0.000    7.111 
#    0.000    4.444    0.000    0.000    0.000    0.000 
#    0.000    0.000    0.000    0.000    0.000    0.000 
#
# Total GULP energy -446339.276597 kJ/mol
# GULP energy per Si atom -12398.313239 kJ/mol
# Density = 2.068381 g / cm^3
# Si number density = 20.730998 Si / 1000 Ang^3
#
#
#
# Elastic Constant Matrix: (Units=GPa)
#
#
# Indices 1 2 3 4 5 6 
#
# 1 149.1808 54.2117 66.9950 0.0000 0.0000 0.0000
# 2 54.2117 95.9068 38.5123 0.0000 0.0000 0.0000
# 3 66.9950 38.5123 102.5392 0.0000 0.0000 0.0000
# 4 0.0000 0.0000 0.0000 8.8323 0.0000 0.0000
# 5 0.0000 0.0000 0.0000 0.0000 36.1878 0.0000
# 6 0.0000 0.0000 0.0000 0.0000 0.0000 31.7611
#
#
#
# Elastic Compliance Matrix: (Units=1/GPa)
#
#
# Indices 1 2 3 4 5 6 
#
# 1 0.010521 -0.003753 -0.005465 0.000000 0.000000 0.000000
# 2 -0.003753 0.013617 -0.002663 0.000000 0.000000 0.000000
# 3 -0.005465 -0.002663 0.014323 0.000000 0.000000 0.000000
# 4 0.000000 0.000000 0.000000 0.113221 0.000000 0.000000
# 5 0.000000 0.000000 0.000000 0.000000 0.027634 0.000000
# 6 0.000000 0.000000 0.000000 0.000000 0.000000 0.031485
#
#
# Mechanical properties :
#
#
# Convention : Reuss Voigt Hill
#
# Bulk Modulus (GPa) = 68.02125 74.11831 71.06978
# Shear Modulus (GPa) = 20.88029 27.88344 24.38186
#
# Velocity S-wave (km/s) = 3.17709 3.67142 3.43316
# Velocity P-wave (km/s) = 6.80743 7.33502 7.07614
#
# Compressibility (1/GPa) = 0.01470129
#
# Stress axis : x y z
#
# Youngs Moduli (GPa) = 95.04747 73.43651 69.81917
#
# Poissons Ratio (x) = 0.27559 0.38153
# Poissons Ratio (y) = 0.35669 0.18590
# Poissons Ratio (z) = 0.51939 0.19553
#
# Static dielectric constant tensor:
#      x y z
#    x 4.221510 0.000000 0.000000 
#    y 0.000000 3.199400 0.000000 
#    z 0.000000 0.000000 3.809930 
# 
# 
# High freq. dielectric constant tensor:
#      x y z
#    x 1.824810 0.000000 0.000000 
#    y 0.000000 1.794050 0.000000 
#    z 0.000000 0.000000 1.816490 
# 
# From -- ./inp_files/72562.got.cif
#   From: 2010.03.12/outbox.cif.g09.slc.cpg/sg65_37_cif.got.tgz:72562.got - 2010.04.10 20:52:16.
