data_PCOD8272413
_publ_section_title
;
Structure prediction by ZEFSAII (Michael W. Deem and Ramdas Pophale) SiO2 
 PCOD8272413
Probable space group: C M M M
;
_chemical_formula_sum "Si O2"
_cell_formula_units_Z 64
_cell_length_a 10.457765
_cell_length_b 18.229369
_cell_length_c 18.163785
_cell_angle_alpha 90.000000
_cell_angle_beta 90.000000
_cell_angle_gamma 90.000000
_cell_volume 3462.715948
_symmetry_space_group_name_H-M "C M M M"
_symmetry_group_IT_number 65
_symmetry_cell_setting 'orthorhombic'
loop_
_space_group_symop_operation_xyz
x,y,z
-x,-y,z
x,-y,-z
-x,y,-z
-x,-y,-z
x,y,-z
-x,y,z
x,-y,z
1/2+x,1/2+y,z
1/2-x,1/2-y,z
1/2+x,1/2-y,-z
1/2-x,1/2+y,-z
1/2-x,1/2-y,-z
1/2+x,1/2+y,-z
1/2-x,1/2+y,z
1/2+x,1/2-y,z
loop_
_atom_site_type_symbol
_atom_site_label
_atom_site_fract_x
_atom_site_fract_y
_atom_site_fract_z
Si Si1 0.149818 0.080170 0.209142
Si Si2 0.272405 0.412669 0.631606
Si Si3 0.643175 0.313995 0.500000
Si Si4 0.500000 0.085853 0.418950
Si Si5 0.853120 0.186591 0.082235
O O1 0.184536 0.114890 0.288090
O O2 0.198366 0.128213 0.141178
O O3 0.000000 0.071861 0.203235
O O4 0.215146 0.000000 0.202791
O O5 0.297736 0.500000 0.620048
O O6 0.347539 0.366579 0.570853
O O7 0.123966 0.390476 0.626247
O O8 0.500000 0.279286 0.500000
O O9 0.750000 0.250000 0.500000
O O10 0.500000 0.123168 0.500000
O O11 0.500000 0.000000 0.431058
O O12 0.750000 0.250000 0.088003
O O13 0.000000 0.212538 0.099658
O O14 0.849470 0.152381 0.000000
#
# Coordination Sequence:
#
# PCOD8272413 Si02
#       5
#    16  16   8   8  16
#     4   9  18  33  54  81 109 136 175 228 273 312
#     4  10  20  37  60  80 105 142 185 227 272 323
#     4  12  27  39  54  80 110 143 180 225 277 325
#     4   9  16  30  56  82 101 135 179 223 266 315
#     4   9  18  34  56  80 108 144 181 215 260 320
#
# _framework density 18.482600999999999
#
# number of rings (size 3 to 8) (size 9 to 14) (size 15 to 20)
#    0.000    2.375    1.250    1.125    1.750    3.500 
#    2.250    2.500    0.000    0.000    0.000    3.500 
#    0.000    0.000    0.000    0.000    0.000    0.000 
#
# Total GULP energy -396567.163866 kJ/mol
# GULP energy per Si atom -12392.723871 kJ/mol
# Density = 1.844053 g / cm^3
# Si number density = 18.482601 Si / 1000 Ang^3
#
#
#
# Elastic Constant Matrix: (Units=GPa)
#
#
# Indices 1 2 3 4 5 6 
#
# 1 69.4663 32.8403 29.1554 0.0000 0.0000 0.0000
# 2 32.8403 68.2576 69.8808 0.0000 0.0000 0.0000
# 3 29.1554 69.8808 166.6549 0.0000 0.0000 0.0000
# 4 0.0000 0.0000 0.0000 29.0564 0.0000 0.0000
# 5 0.0000 0.0000 0.0000 0.0000 26.6720 0.0000
# 6 0.0000 0.0000 0.0000 0.0000 0.0000 19.7802
#
#
#
# Elastic Compliance Matrix: (Units=1/GPa)
#
#
# Indices 1 2 3 4 5 6 
#
# 1 0.018707 -0.009899 0.000878 0.000000 0.000000 0.000000
# 2 -0.009899 0.030909 -0.011229 0.000000 0.000000 0.000000
# 3 0.000878 -0.011229 0.010555 0.000000 0.000000 0.000000
# 4 0.000000 0.000000 0.000000 0.034416 0.000000 0.000000
# 5 0.000000 0.000000 0.000000 0.000000 0.037493 0.000000
# 6 0.000000 0.000000 0.000000 0.000000 0.000000 0.050556
#
#
# Mechanical properties :
#
#
# Convention : Reuss Voigt Hill
#
# Bulk Modulus (GPa) = 50.83578 63.12575 56.98076
# Shear Modulus (GPa) = 21.76831 26.60186 24.18509
#
# Velocity S-wave (km/s) = 3.43559 3.79792 3.62129
# Velocity P-wave (km/s) = 6.58043 7.31167 6.95567
#
# Compressibility (1/GPa) = 0.01967118
#
# Stress axis : x y z
#
# Youngs Moduli (GPa) = 53.45643 32.35309 94.74078
#
# Poissons Ratio (x) = 0.32028 -0.08321
# Poissons Ratio (y) = 0.52919 1.06382
# Poissons Ratio (z) = -0.04695 0.36328
#
# Static dielectric constant tensor:
#      x y z
#    x 3.804890 0.000000 0.000000 
#    y 0.000000 3.471520 0.000000 
#    z 0.000000 0.000000 3.644240 
# 
# 
# High freq. dielectric constant tensor:
#      x y z
#    x 1.715500 0.000000 0.000000 
#    y 0.000000 1.693260 0.000000 
#    z 0.000000 0.000000 1.724950 
# 
# From -- ./inp_files/37770.got.cif
#   From: 2010.03.12/outbox.cif.g09.slc.cpg/sg65_19_cif.got.tgz:37770.got - 2010.04.10 20:52:16.
