data_PCOD8272399
_publ_section_title
;
Structure prediction by ZEFSAII (Michael W. Deem and Ramdas Pophale) SiO2 
 PCOD8272399
Probable space group: C M M M
;
_chemical_formula_sum "Si O2"
_cell_formula_units_Z 104
_cell_length_a 10.771499
_cell_length_b 18.322796
_cell_length_c 27.757901
_cell_angle_alpha 90.000000
_cell_angle_beta 90.000000
_cell_angle_gamma 90.000000
_cell_volume 5478.409784
_symmetry_space_group_name_H-M "C M M M"
_symmetry_group_IT_number 65
_symmetry_cell_setting 'orthorhombic'
loop_
_space_group_symop_operation_xyz
x,y,z
-x,-y,z
x,-y,-z
-x,y,-z
-x,-y,-z
x,y,-z
-x,y,z
x,-y,z
1/2+x,1/2+y,z
1/2-x,1/2-y,z
1/2+x,1/2-y,-z
1/2-x,1/2+y,-z
1/2-x,1/2-y,-z
1/2+x,1/2+y,-z
1/2-x,1/2+y,z
1/2+x,1/2-y,z
loop_
_atom_site_type_symbol
_atom_site_label
_atom_site_fract_x
_atom_site_fract_y
_atom_site_fract_z
Si Si1 0.359458 0.920268 0.634652
Si Si2 0.640069 0.194526 0.191157
Si Si3 0.356246 0.808498 0.919461
Si Si4 0.237445 0.585959 0.265070
Si Si5 0.000000 0.088331 0.597449
Si Si6 0.144701 0.420535 0.000000
Si Si7 0.000000 0.914641 0.707660
Si Si8 0.242426 0.836210 0.444771
O O1 0.500000 0.930909 0.648865
O O2 0.295484 0.885281 0.681484
O O3 0.350598 0.869408 0.588076
O O4 0.298245 0.000000 0.623890
O O5 0.500000 0.226878 0.198970
O O6 0.750000 0.250000 0.205389
O O7 0.655410 0.168835 0.136157
O O8 0.655105 0.123929 0.224493
O O9 0.500000 0.782343 0.930669
O O10 0.250000 0.750000 0.932332
O O11 0.318451 0.877571 0.951646
O O12 0.212546 0.500000 0.260389
O O13 0.381936 0.608369 0.260082
O O14 0.000000 0.115687 0.652951
O O15 0.883862 0.125648 0.571646
O O16 0.000000 0.000000 0.591069
O O17 0.211584 0.500000 0.000000
O O18 0.000000 0.433373 0.000000
O O19 0.000000 0.000000 0.699590
O O20 0.268522 0.856313 0.500000
O O21 0.250000 0.750000 0.437031
#
# Coordination Sequence:
#
# PCOD8272399 Si02
#       8
#    16  16  16  16   8   8   8  16
#     4  10  21  38  59  80 106 144 186 224 269 337
#     4  10  22  37  55  83 117 153 192 238 285 339
#     4   9  18  34  55  80 111 151 195 234 282 337
#     4  10  20  37  59  83 111 144 186 233 286 339
#     4  11  21  42  69  88 107 144 197 236 271 340
#     4   9  17  30  53  85 116 145 188 244 292 335
#     4   9  18  35  60  85 110 142 184 237 284 333
#     4  11  25  40  57  84 117 144 174 227 288 337
#
# _framework density 18.983611
#
# number of rings (size 3 to 8) (size 9 to 14) (size 15 to 20)
#    0.000    2.077    1.538    1.385    2.154    4.000 
#    0.000    2.308    0.000    0.923    0.000    0.000 
#    0.000    0.000    0.000    0.000    0.000    0.000 
#
# Total GULP energy -644396.567069 kJ/mol
# GULP energy per Si atom -12392.241674 kJ/mol
# Density = 1.894040 g / cm^3
# Si number density = 18.983611 Si / 1000 Ang^3
#
#
#
# Elastic Constant Matrix: (Units=GPa)
#
#
# Indices 1 2 3 4 5 6 
#
# 1 106.9538 44.2401 36.2116 0.0000 0.0000 0.0000
# 2 44.2401 95.2211 59.5912 0.0000 0.0000 0.0000
# 3 36.2116 59.5912 97.2218 0.0000 0.0000 0.0000
# 4 0.0000 0.0000 0.0000 36.6687 0.0000 0.0000
# 5 0.0000 0.0000 0.0000 0.0000 8.9417 0.0000
# 6 0.0000 0.0000 0.0000 0.0000 0.0000 26.7329
#
#
#
# Elastic Compliance Matrix: (Units=1/GPa)
#
#
# Indices 1 2 3 4 5 6 
#
# 1 0.011739 -0.004409 -0.001670 0.000000 0.000000 0.000000
# 2 -0.004409 0.018693 -0.009816 0.000000 0.000000 0.000000
# 3 -0.001670 -0.009816 0.016924 0.000000 0.000000 0.000000
# 4 0.000000 0.000000 0.000000 0.027271 0.000000 0.000000
# 5 0.000000 0.000000 0.000000 0.000000 0.111835 0.000000
# 6 0.000000 0.000000 0.000000 0.000000 0.000000 0.037407
#
#
# Mechanical properties :
#
#
# Convention : Reuss Voigt Hill
#
# Bulk Modulus (GPa) = 64.23730 64.38696 64.31213
# Shear Modulus (GPa) = 19.16830 25.09224 22.13027
#
# Velocity S-wave (km/s) = 3.18107 3.63958 3.41802
# Velocity P-wave (km/s) = 6.88506 7.18699 7.03764
#
# Compressibility (1/GPa) = 0.01556728
#
# Stress axis : x y z
#
# Youngs Moduli (GPa) = 85.18687 53.49585 59.08718
#
# Poissons Ratio (x) = 0.23586 0.09867
# Poissons Ratio (y) = 0.37558 0.57998
# Poissons Ratio (z) = 0.14226 0.52509
#
# Static dielectric constant tensor:
#      x y z
#    x 3.990660 0.000000 0.000000 
#    y 0.000000 3.406080 0.000000 
#    z 0.000000 0.000000 3.504270 
# 
# 
# High freq. dielectric constant tensor:
#      x y z
#    x 1.746980 0.000000 0.000000 
#    y 0.000000 1.718620 0.000000 
#    z 0.000000 0.000000 1.741010 
# 
# From -- ./inp_files/74430.got.cif
#   From: 2010.03.12/outbox.cif.g09.slc.cpg/sg65_38_cif.got.tgz:74430.got - 2010.04.10 20:52:16.
