data_PCOD8272357
_publ_section_title
;
Structure prediction by ZEFSAII (Michael W. Deem and Ramdas Pophale) SiO2 
 PCOD8272357
Probable space group: C M M M
;
_chemical_formula_sum "Si O2"
_cell_formula_units_Z 56
_cell_length_a 9.792258
_cell_length_b 17.206524
_cell_length_c 16.759899
_cell_angle_alpha 90.000000
_cell_angle_beta 90.000000
_cell_angle_gamma 90.000000
_cell_volume 2823.887488
_symmetry_space_group_name_H-M "C M M M"
_symmetry_group_IT_number 65
_symmetry_cell_setting 'orthorhombic'
loop_
_space_group_symop_operation_xyz
x,y,z
-x,-y,z
x,-y,-z
-x,y,-z
-x,-y,-z
x,y,-z
-x,y,z
x,-y,z
1/2+x,1/2+y,z
1/2-x,1/2-y,z
1/2+x,1/2-y,-z
1/2-x,1/2+y,-z
1/2-x,1/2-y,-z
1/2+x,1/2+y,-z
1/2-x,1/2+y,z
1/2+x,1/2-y,z
loop_
_atom_site_type_symbol
_atom_site_label
_atom_site_fract_x
_atom_site_fract_y
_atom_site_fract_z
Si Si1 0.500000 0.368693 0.594867
Si Si2 0.224381 0.587216 0.326890
Si Si3 0.339643 0.171896 0.173254
Si Si4 0.000000 0.311485 0.406817
Si Si5 0.652162 0.178739 0.000000
O O1 0.500000 0.382227 0.500000
O O2 0.372767 0.410499 0.635052
O O3 0.500000 0.278211 0.617418
O O4 0.165918 0.500000 0.335985
O O5 0.223037 0.609074 0.233520
O O6 0.134800 0.649361 0.373467
O O7 0.500000 0.189102 0.193466
O O8 0.250000 0.250000 0.180143
O O9 0.325510 0.133367 0.084000
O O10 0.000000 0.323050 0.500000
O O11 0.750000 0.250000 0.000000
O O12 0.500000 0.213500 0.000000
#
# Coordination Sequence:
#
# PCOD8272357 Si02
#       5
#     8  16  16   8   8
#     4  11  25  45  65  86 113 156 207 249 294 355
#     4  12  25  39  59  89 125 157 193 243 300 358
#     4  10  20  36  61  89 121 159 202 245 291 350
#     4  11  23  41  65  88 113 150 199 249 298 351
#     4   8  16  32  55  87 118 152 198 246 288 338
#
# _framework density 19.830818000000001
#
# number of rings (size 3 to 8) (size 9 to 14) (size 15 to 20)
#    0.000    1.429    1.429    4.286    2.000    5.714 
#    0.000    0.714    0.000    2.571    0.000    2.000 
#    0.000    0.000    0.000    0.000    0.000    0.000 
#
# Total GULP energy -347037.743805 kJ/mol
# GULP energy per Si atom -12394.205136 kJ/mol
# Density = 1.978568 g / cm^3
# Si number density = 19.830818 Si / 1000 Ang^3
#
#
#
# Elastic Constant Matrix: (Units=GPa)
#
#
# Indices 1 2 3 4 5 6 
#
# 1 96.0663 10.5205 33.6225 0.0000 0.0000 0.0000
# 2 10.5205 83.4078 49.4062 0.0000 0.0000 0.0000
# 3 33.6225 49.4062 124.7478 0.0000 0.0000 0.0000
# 4 0.0000 0.0000 0.0000 4.0430 0.0000 0.0000
# 5 0.0000 0.0000 0.0000 0.0000 34.2302 0.0000
# 6 0.0000 0.0000 0.0000 0.0000 0.0000 15.9520
#
#
#
# Elastic Compliance Matrix: (Units=1/GPa)
#
#
# Indices 1 2 3 4 5 6 
#
# 1 0.011510 0.000504 -0.003302 0.000000 0.000000 0.000000
# 2 0.000504 0.015686 -0.006348 0.000000 0.000000 0.000000
# 3 -0.003302 -0.006348 0.011420 0.000000 0.000000 0.000000
# 4 0.000000 0.000000 0.000000 0.247339 0.000000 0.000000
# 5 0.000000 0.000000 0.000000 0.000000 0.029214 0.000000
# 6 0.000000 0.000000 0.000000 0.000000 0.000000 0.062688
#
#
# Mechanical properties :
#
#
# Convention : Reuss Voigt Hill
#
# Bulk Modulus (GPa) = 49.20257 54.59115 51.89686
# Shear Modulus (GPa) = 12.40928 24.88989 18.64959
#
# Velocity S-wave (km/s) = 2.50423 3.54660 3.06998
# Velocity P-wave (km/s) = 5.76425 6.66028 6.22840
#
# Compressibility (1/GPa) = 0.02032414
#
# Stress axis : x y z
#
# Youngs Moduli (GPa) = 86.88180 63.75074 87.56316
#
# Poissons Ratio (x) = -0.03213 0.28912
# Poissons Ratio (y) = -0.04379 0.55588
# Poissons Ratio (z) = 0.28687 0.40471
#
# Static dielectric constant tensor:
#      x y z
#    x 3.771880 0.000000 0.000000 
#    y 0.000000 3.327940 0.000000 
#    z 0.000000 0.000000 4.430100 
# 
# 
# High freq. dielectric constant tensor:
#      x y z
#    x 1.785950 0.000000 0.000000 
#    y 0.000000 1.741890 0.000000 
#    z 0.000000 0.000000 1.802130 
# 
# From -- ./inp_files/48805.got.cif
#   From: 2010.03.12/outbox.cif.g09.slc.cpg/sg65_25_cif.got.tgz:48805.got - 2010.04.10 20:52:16.
