data_PCOD8272814
_publ_section_title
;
Structure prediction by ZEFSAII (Michael W. Deem and Ramdas Pophale) SiO2 
 PCOD8272814
Probable space group: C M M M
;
_chemical_formula_sum "Si O2"
_cell_formula_units_Z 80
_cell_length_a 19.057624
_cell_length_b 7.871313
_cell_length_c 26.850805
_cell_angle_alpha 90.000000
_cell_angle_beta 90.000000
_cell_angle_gamma 90.000000
_cell_volume 4027.849614
_symmetry_space_group_name_H-M "C M M M"
_symmetry_group_IT_number 65
_symmetry_cell_setting 'orthorhombic'
loop_
_space_group_symop_operation_xyz
x,y,z
-x,-y,z
x,-y,-z
-x,y,-z
-x,-y,-z
x,y,-z
-x,y,z
x,-y,z
1/2+x,1/2+y,z
1/2-x,1/2-y,z
1/2+x,1/2-y,-z
1/2-x,1/2+y,-z
1/2-x,1/2-y,-z
1/2+x,1/2+y,-z
1/2-x,1/2+y,z
1/2+x,1/2-y,z
loop_
_atom_site_type_symbol
_atom_site_label
_atom_site_fract_x
_atom_site_fract_y
_atom_site_fract_z
Si Si1 0.076938 0.306858 0.306232
Si Si2 0.829315 0.799202 0.894475
Si Si3 0.172861 0.195521 0.220768
Si Si4 0.330434 0.299308 0.500000
Si Si5 0.419034 0.000000 0.058850
Si Si6 0.921555 0.195378 0.589483
O O1 0.070938 0.500000 0.321972
O O2 0.120626 0.295918 0.255841
O O3 0.110326 0.215009 0.354630
O O4 0.000000 0.228677 0.295191
O O5 0.750000 0.750000 0.909704
O O6 0.841919 0.759780 0.836522
O O7 0.882270 0.674536 0.923091
O O8 0.842903 0.000000 0.906756
O O9 0.250000 0.250000 0.236176
O O10 0.161616 0.000000 0.231561
O O11 0.335160 0.500000 0.500000
O O12 0.250000 0.250000 0.500000
O O13 0.369333 0.221387 0.451150
O O14 0.500000 0.000000 0.077084
O O15 0.414667 0.000000 0.000000
O O16 0.000000 0.278228 0.587031
O O17 0.928279 0.000000 0.575991
#
# Coordination Sequence:
#
# PCOD8272814 Si02
#       6
#    16  16  16   8   8  16
#     4  10  21  35  53  81 114 148 186 229 279 341
#     4  10  21  41  67  95 126 167 219 265 310 380
#     4  10  21  36  59  86 116 152 192 239 292 342
#     4  10  21  35  53  77 101 132 172 222 284 340
#     4  11  26  44  64  96 135 171 211 266 327 373
#     4   9  18  35  56  74  99 137 184 230 271 328
#
# _framework density 19.861715
#
# number of rings (size 3 to 8) (size 9 to 14) (size 15 to 20)
#    0.000    2.100    1.000    1.500    2.800    6.000 
#    0.000    5.000    0.000    3.000    0.000    0.000 
#    0.000    0.000    0.000    0.000    0.000    0.000 
#
# Total GULP energy -495804.948190 kJ/mol
# GULP energy per Si atom -12395.123705 kJ/mol
# Density = 1.981651 g / cm^3
# Si number density = 19.861715 Si / 1000 Ang^3
#
#
#
# Elastic Constant Matrix: (Units=GPa)
#
#
# Indices 1 2 3 4 5 6 
#
# 1 131.4034 45.9163 76.6683 0.0000 0.0000 0.0000
# 2 45.9163 78.1468 34.3655 0.0000 0.0000 0.0000
# 3 76.6683 34.3655 106.1929 0.0000 0.0000 0.0000
# 4 0.0000 0.0000 0.0000 23.4248 0.0000 0.0000
# 5 0.0000 0.0000 0.0000 0.0000 31.8556 0.0000
# 6 0.0000 0.0000 0.0000 0.0000 0.0000 27.5648
#
#
#
# Elastic Compliance Matrix: (Units=1/GPa)
#
#
# Indices 1 2 3 4 5 6 
#
# 1 0.014408 -0.004537 -0.008934 0.000000 0.000000 0.000000
# 2 -0.004537 0.016348 -0.002015 0.000000 0.000000 0.000000
# 3 -0.008934 -0.002015 0.016519 0.000000 0.000000 0.000000
# 4 0.000000 0.000000 0.000000 0.042690 0.000000 0.000000
# 5 0.000000 0.000000 0.000000 0.000000 0.031392 0.000000
# 6 0.000000 0.000000 0.000000 0.000000 0.000000 0.036278
#
#
# Mechanical properties :
#
#
# Convention : Reuss Voigt Hill
#
# Bulk Modulus (GPa) = 61.33653 69.96038 65.64845
# Shear Modulus (GPa) = 25.76767 27.15523 26.46145
#
# Velocity S-wave (km/s) = 3.60579 3.70160 3.65401
# Velocity P-wave (km/s) = 6.94870 7.31911 7.13631
#
# Compressibility (1/GPa) = 0.01630350
#
# Stress axis : x y z
#
# Youngs Moduli (GPa) = 69.40527 61.16860 60.53614
#
# Poissons Ratio (x) = 0.27752 0.54083
# Poissons Ratio (y) = 0.31489 0.12198
# Poissons Ratio (z) = 0.62007 0.12325
#
# Static dielectric constant tensor:
#      x y z
#    x 3.985970 0.000000 0.000000 
#    y 0.000000 3.601170 0.000000 
#    z 0.000000 0.000000 3.625390 
# 
# 
# High freq. dielectric constant tensor:
#      x y z
#    x 1.766790 0.000000 0.000000 
#    y 0.000000 1.776140 0.000000 
#    z 0.000000 0.000000 1.778420 
# 
# From -- ./inp_files/70856.got.cif
#   From: 2010.03.12/outbox.cif.g09.slc.cpg/sg65_36_cif.got.tgz:70856.got - 2010.04.10 20:52:16.
