data_PCOD8272033
_publ_section_title
;
Structure prediction by ZEFSAII (Michael W. Deem and Ramdas Pophale) SiO2 
 PCOD8272033
Probable space group: C M M M
;
_chemical_formula_sum "Si O2"
_cell_formula_units_Z 56
_cell_length_a 18.947879
_cell_length_b 16.516838
_cell_length_c 8.181749
_cell_angle_alpha 90.000000
_cell_angle_beta 90.000000
_cell_angle_gamma 90.000000
_cell_volume 2560.552377
_symmetry_space_group_name_H-M "C M M M"
_symmetry_group_IT_number 65
_symmetry_cell_setting 'orthorhombic'
loop_
_space_group_symop_operation_xyz
x,y,z
-x,-y,z
x,-y,-z
-x,y,-z
-x,-y,-z
x,y,-z
-x,y,z
x,-y,z
1/2+x,1/2+y,z
1/2-x,1/2-y,z
1/2+x,1/2-y,-z
1/2-x,1/2+y,-z
1/2-x,1/2-y,-z
1/2+x,1/2+y,-z
1/2-x,1/2+y,z
1/2+x,1/2-y,z
loop_
_atom_site_type_symbol
_atom_site_label
_atom_site_fract_x
_atom_site_fract_y
_atom_site_fract_z
Si Si1 0.717965 0.836509 0.311259
Si Si2 0.080570 0.903814 0.500000
Si Si3 0.579106 0.907928 0.192967
Si Si4 0.153106 0.092685 0.822071
O O1 0.731244 0.854221 0.500000
O O2 0.750000 0.750000 0.259977
O O3 0.635170 0.845904 0.271724
O O4 0.762694 0.901214 0.206095
O O5 0.114348 0.865367 0.334110
O O6 0.000000 0.878626 0.500000
O O7 0.092602 0.000000 0.500000
O O8 0.500000 0.883397 0.250571
O O9 0.595205 0.000000 0.249896
O O10 0.584358 0.901547 0.000000
O O11 0.130036 0.000000 0.828987
O O12 0.132764 0.131685 0.000000
#
# Coordination Sequence:
#
# PCOD8272033 Si02
#       4
#    16   8  16  16
#     4  11  23  37  55  82 118 159 199 241 295 358
#     4   9  18  34  55  80 111 143 181 236 288 332
#     4   9  19  37  61  89 119 151 193 249 308 362
#     4  10  20  35  58  85 111 147 195 242 294 356
#
# _framework density 21.870280999999999
#
# number of rings (size 3 to 8) (size 9 to 14) (size 15 to 20)
#    0.000    2.143    1.429    2.571    0.000    7.429 
#    0.000    5.714    0.000    0.000    0.000    0.000 
#    0.000    0.000    0.000    0.000    0.000    0.000 
#
# Total GULP energy -347011.068793 kJ/mol
# GULP energy per Si atom -12393.252457 kJ/mol
# Density = 2.182050 g / cm^3
# Si number density = 21.870281 Si / 1000 Ang^3
#
#
#
# Elastic Constant Matrix: (Units=GPa)
#
#
# Indices 1 2 3 4 5 6 
#
# 1 163.7371 41.9539 72.1761 0.0000 0.0000 0.0000
# 2 41.9539 50.1814 25.2393 0.0000 0.0000 0.0000
# 3 72.1761 25.2393 167.8737 0.0000 0.0000 0.0000
# 4 0.0000 0.0000 0.0000 18.5632 0.0000 0.0000
# 5 0.0000 0.0000 0.0000 0.0000 32.8165 0.0000
# 6 0.0000 0.0000 0.0000 0.0000 0.0000 31.6118
#
#
#
# Elastic Compliance Matrix: (Units=1/GPa)
#
#
# Indices 1 2 3 4 5 6 
#
# 1 0.008940 -0.005995 -0.002943 0.000000 0.000000 0.000000
# 2 -0.005995 0.025577 -0.001268 0.000000 0.000000 0.000000
# 3 -0.002943 -0.001268 0.007413 0.000000 0.000000 0.000000
# 4 0.000000 0.000000 0.000000 0.053870 0.000000 0.000000
# 5 0.000000 0.000000 0.000000 0.000000 0.030472 0.000000
# 6 0.000000 0.000000 0.000000 0.000000 0.000000 0.031634
#
#
# Mechanical properties :
#
#
# Convention : Reuss Voigt Hill
#
# Bulk Modulus (GPa) = 46.46904 73.39232 59.93068
# Shear Modulus (GPa) = 26.95555 32.75982 29.85768
#
# Velocity S-wave (km/s) = 3.51453 3.87449 3.69889
# Velocity P-wave (km/s) = 6.14516 7.32437 6.76052
#
# Compressibility (1/GPa) = 0.02151970
#
# Stress axis : x y z
#
# Youngs Moduli (GPa) = 111.85121 39.09725 134.90402
#
# Poissons Ratio (x) = 0.23437 0.39697
# Poissons Ratio (y) = 0.67050 0.17108
# Poissons Ratio (z) = 0.32914 0.04958
#
# Static dielectric constant tensor:
#      x y z
#    x 4.056810 0.000000 0.000000 
#    y 0.000000 3.543420 0.000000 
#    z 0.000000 0.000000 4.248980 
# 
# 
# High freq. dielectric constant tensor:
#      x y z
#    x 1.859380 0.000000 0.000000 
#    y 0.000000 1.815510 0.000000 
#    z 0.000000 0.000000 1.871640 
# 
# From -- ./inp_files/8698.got.cif
#   From: 2010.03.12/outbox.cif.g09.slc.cpg/sg65_5_cif.got.tgz:8698.got - 2010.04.10 20:52:16.
