data_PCOD8272000
_publ_section_title
;
Structure prediction by ZEFSAII (Michael W. Deem and Ramdas Pophale) SiO2 
 PCOD8272000
Probable space group: C M M M
;
_chemical_formula_sum "Si O2"
_cell_formula_units_Z 72
_cell_length_a 8.734450
_cell_length_b 23.666281
_cell_length_c 17.795051
_cell_angle_alpha 90.000000
_cell_angle_beta 90.000000
_cell_angle_gamma 90.000000
_cell_volume 3678.449658
_symmetry_space_group_name_H-M "C M M M"
_symmetry_group_IT_number 65
_symmetry_cell_setting 'orthorhombic'
loop_
_space_group_symop_operation_xyz
x,y,z
-x,-y,z
x,-y,-z
-x,y,-z
-x,-y,-z
x,y,-z
-x,y,z
x,-y,z
1/2+x,1/2+y,z
1/2-x,1/2-y,z
1/2+x,1/2-y,-z
1/2-x,1/2+y,-z
1/2-x,1/2-y,-z
1/2+x,1/2+y,-z
1/2-x,1/2+y,z
1/2+x,1/2-y,z
loop_
_atom_site_type_symbol
_atom_site_label
_atom_site_fract_x
_atom_site_fract_y
_atom_site_fract_z
Si Si1 0.181517 0.311082 0.209978
Si Si2 0.682259 0.000000 0.312506
Si Si3 0.681600 0.120853 0.644474
Si Si4 0.682664 0.812235 0.500000
Si Si5 0.318305 0.000000 0.858207
Si Si6 0.324207 0.386298 0.913532
O O1 0.250000 0.250000 0.223427
O O2 0.237507 0.349555 0.279261
O O3 0.244059 0.336925 0.133191
O O4 0.000000 0.307459 0.205597
O O5 0.742561 0.056075 0.355331
O O6 0.500000 0.000000 0.310552
O O7 0.743247 0.000000 0.227150
O O8 0.500000 0.121035 0.640832
O O9 0.746397 0.154264 0.572587
O O10 0.500000 0.808401 0.500000
O O11 0.750000 0.750000 0.500000
O O12 0.258698 0.945496 0.901256
O O13 0.500000 0.000000 0.860137
O O14 0.500000 0.392034 0.888858
O O15 0.309043 0.368624 0.000000
#
# Coordination Sequence:
#
# PCOD8272000 Si02
#       6
#    16   8  16   8   8  16
#     4  11  22  38  59  83 113 152 197 243 291 348
#     4   9  16  31  56  86 115 142 181 235 282 332
#     4   9  18  33  56  86 117 148 189 235 284 340
#     4  10  20  35  57  85 117 154 191 232 280 333
#     4  11  20  36  62  88 117 151 190 237 289 345
#     4  11  24  40  58  84 117 151 192 242 292 346
#
# _framework density 19.573464000000001
#
# number of rings (size 3 to 8) (size 9 to 14) (size 15 to 20)
#    0.000    1.778    2.222    2.667    0.000    4.000 
#    0.000    3.333    0.000    0.000    0.000    0.778 
#    0.000    0.000    0.000    0.000    0.000    0.000 
#
# Total GULP energy -446469.190316 kJ/mol
# GULP energy per Si atom -12401.921953 kJ/mol
# Density = 1.952891 g / cm^3
# Si number density = 19.573464 Si / 1000 Ang^3
#
#
#
# Elastic Constant Matrix: (Units=GPa)
#
#
# Indices 1 2 3 4 5 6 
#
# 1 64.5581 35.7056 35.9532 0.0000 0.0000 0.0000
# 2 35.7056 179.5793 72.3092 0.0000 0.0000 0.0000
# 3 35.9532 72.3092 131.3626 0.0000 0.0000 0.0000
# 4 0.0000 0.0000 0.0000 29.6705 0.0000 0.0000
# 5 0.0000 0.0000 0.0000 0.0000 14.9958 0.0000
# 6 0.0000 0.0000 0.0000 0.0000 0.0000 160.1392
#
#
#
# Elastic Compliance Matrix: (Units=1/GPa)
#
#
# Indices 1 2 3 4 5 6 
#
# 1 0.018902 -0.002152 -0.003989 0.000000 0.000000 0.000000
# 2 -0.002152 0.007399 -0.003484 0.000000 0.000000 0.000000
# 3 -0.003989 -0.003484 0.010622 0.000000 0.000000 0.000000
# 4 0.000000 0.000000 0.000000 0.033704 0.000000 0.000000
# 5 0.000000 0.000000 0.000000 0.000000 0.066685 0.000000
# 6 0.000000 0.000000 0.000000 0.000000 0.000000 0.006245
#
#
# Mechanical properties :
#
#
# Convention : Reuss Voigt Hill
#
# Bulk Modulus (GPa) = 56.58218 73.71511 65.14864
# Shear Modulus (GPa) = 29.63896 56.39655 43.01776
#
# Velocity S-wave (km/s) = 3.89555 5.37358 4.69311
# Velocity P-wave (km/s) = 7.01456 8.73172 7.91982
#
# Compressibility (1/GPa) = 0.01767341
#
# Stress axis : x y z
#
# Youngs Moduli (GPa) = 52.90580 135.14734 94.14477
#
# Poissons Ratio (x) = 0.29086 0.37550
# Poissons Ratio (y) = 0.11386 0.32800
# Poissons Ratio (z) = 0.21102 0.47085
#
# Static dielectric constant tensor:
#      x y z
#    x 3.340600 0.000000 0.000000 
#    y 0.000000 3.761490 0.000000 
#    z 0.000000 0.000000 3.787210 
# 
# 
# High freq. dielectric constant tensor:
#      x y z
#    x 1.735590 0.000000 0.000000 
#    y 0.000000 1.778020 0.000000 
#    z 0.000000 0.000000 1.769620 
# 
# From -- ./inp_files/49535.got.cif
#   From: 2010.03.12/outbox.cif.g09.slc.cpg/sg65_25_cif.got.tgz:49535.got - 2010.04.10 20:52:16.
