data_PCOD8272795
_publ_section_title
;
Structure prediction by ZEFSAII (Michael W. Deem and Ramdas Pophale) SiO2 
 PCOD8272795
Probable space group: C M M M
;
_chemical_formula_sum "Si O2"
_cell_formula_units_Z 88
_cell_length_a 9.163518
_cell_length_b 18.727972
_cell_length_c 27.242546
_cell_angle_alpha 90.000000
_cell_angle_beta 90.000000
_cell_angle_gamma 90.000000
_cell_volume 4675.205246
_symmetry_space_group_name_H-M "C M M M"
_symmetry_group_IT_number 65
_symmetry_cell_setting 'orthorhombic'
loop_
_space_group_symop_operation_xyz
x,y,z
-x,-y,z
x,-y,-z
-x,y,-z
-x,-y,-z
x,y,-z
-x,y,z
x,-y,z
1/2+x,1/2+y,z
1/2-x,1/2-y,z
1/2+x,1/2-y,-z
1/2-x,1/2+y,-z
1/2-x,1/2-y,-z
1/2+x,1/2+y,-z
1/2-x,1/2+y,z
1/2+x,1/2-y,z
loop_
_atom_site_type_symbol
_atom_site_label
_atom_site_fract_x
_atom_site_fract_y
_atom_site_fract_z
Si Si1 0.669853 0.177887 0.332036
Si Si2 0.171011 0.174371 0.500000
Si Si3 0.331220 0.582497 0.144417
Si Si4 0.169178 0.321369 0.217688
Si Si5 0.829872 0.821252 0.944957
Si Si6 0.670364 0.417319 0.594138
O O1 0.500000 0.185896 0.344804
O O2 0.750000 0.250000 0.349658
O O3 0.696712 0.163992 0.274822
O O4 0.737154 0.110078 0.359675
O O5 0.250000 0.250000 0.500000
O O6 0.218190 0.128373 0.452969
O O7 0.000000 0.189336 0.500000
O O8 0.500000 0.597423 0.156812
O O9 0.296124 0.500000 0.139575
O O10 0.233774 0.612190 0.188423
O O11 0.286067 0.616318 0.092319
O O12 0.250000 0.250000 0.200026
O O13 0.000000 0.312129 0.205460
O O14 0.750000 0.750000 0.927433
O O15 0.000000 0.804860 0.943305
O O16 0.781047 0.843800 0.000000
O O17 0.500000 0.407540 0.605815
O O18 0.708062 0.500000 0.584403
#
# Coordination Sequence:
#
# PCOD8272795 Si02
#       6
#    16   8  16  16  16  16
#     4  10  21  37  57  81 108 139 178 222 266 315
#     4  10  21  37  57  81 109 142 181 222 264 312
#     4  10  21  35  52  77 108 141 177 217 262 314
#     4  10  21  37  57  79 105 139 178 221 267 314
#     4   9  18  33  53  76 102 134 173 216 261 310
#     4  10  21  37  57  81 111 146 180 217 264 316
#
# _framework density 18.822702
#
# number of rings (size 3 to 8) (size 9 to 14) (size 15 to 20)
#    0.000    2.182    0.000    2.455    0.000    9.455 
#    0.000    5.455    0.000    1.636    0.000    3.818 
#    0.000    0.000    0.000    0.000    0.000    0.000 
#
# Total GULP energy -545797.689197 kJ/mol
# GULP energy per Si atom -12404.492936 kJ/mol
# Density = 1.877986 g / cm^3
# Si number density = 18.822702 Si / 1000 Ang^3
#
#
#
# Elastic Constant Matrix: (Units=GPa)
#
#
# Indices 1 2 3 4 5 6 
#
# 1 82.3907 68.5497 59.0331 0.0000 0.0000 0.0000
# 2 68.5497 155.5139 78.5796 0.0000 0.0000 0.0000
# 3 59.0331 78.5796 97.5908 0.0000 0.0000 0.0000
# 4 0.0000 0.0000 0.0000 26.7705 0.0000 0.0000
# 5 0.0000 0.0000 0.0000 0.0000 23.6038 0.0000
# 6 0.0000 0.0000 0.0000 0.0000 0.0000 34.5617
#
#
#
# Elastic Compliance Matrix: (Units=1/GPa)
#
#
# Indices 1 2 3 4 5 6 
#
# 1 0.023870 -0.005439 -0.010060 0.000000 0.000000 0.000000
# 2 -0.005439 0.012080 -0.006437 0.000000 0.000000 0.000000
# 3 -0.010060 -0.006437 0.021515 0.000000 0.000000 0.000000
# 4 0.000000 0.000000 0.000000 0.037354 0.000000 0.000000
# 5 0.000000 0.000000 0.000000 0.000000 0.042366 0.000000
# 6 0.000000 0.000000 0.000000 0.000000 0.000000 0.028934
#
#
# Mechanical properties :
#
#
# Convention : Reuss Voigt Hill
#
# Bulk Modulus (GPa) = 73.56033 83.09114 78.32574
# Shear Modulus (GPa) = 23.30750 25.60942 24.45846
#
# Velocity S-wave (km/s) = 3.52272 3.69258 3.60865
# Velocity P-wave (km/s) = 7.46402 7.90064 7.68543
#
# Compressibility (1/GPa) = 0.01359428
#
# Stress axis : x y z
#
# Youngs Moduli (GPa) = 41.89290 82.78018 46.47846
#
# Poissons Ratio (x) = 0.45021 0.46758
# Poissons Ratio (y) = 0.22784 0.29918
# Poissons Ratio (z) = 0.42145 0.53286
#
# Static dielectric constant tensor:
#      x y z
#    x 3.442870 0.000000 0.000000 
#    y 0.000000 3.463170 0.000000 
#    z 0.000000 0.000000 3.576760 
# 
# 
# High freq. dielectric constant tensor:
#      x y z
#    x 1.729480 0.000000 0.000000 
#    y 0.000000 1.730020 0.000000 
#    z 0.000000 0.000000 1.741390 
# 
# From -- ./inp_files/76695.got.cif
#   From: 2010.03.12/outbox.cif.g09.slc.cpg/sg65_39_cif.got.tgz:76695.got - 2010.04.10 20:52:16.
