data_PCOD8272376
_publ_section_title
;
Structure prediction by ZEFSAII (Michael W. Deem and Ramdas Pophale) SiO2 
 PCOD8272376
Probable space group: C M M M
;
_chemical_formula_sum "Si O2"
_cell_formula_units_Z 88
_cell_length_a 23.149747
_cell_length_b 9.160232
_cell_length_c 22.802342
_cell_angle_alpha 90.000000
_cell_angle_beta 90.000000
_cell_angle_gamma 90.000000
_cell_volume 4835.397452
_symmetry_space_group_name_H-M "C M M M"
_symmetry_group_IT_number 65
_symmetry_cell_setting 'orthorhombic'
loop_
_space_group_symop_operation_xyz
x,y,z
-x,-y,z
x,-y,-z
-x,y,-z
-x,-y,-z
x,y,-z
-x,y,z
x,-y,z
1/2+x,1/2+y,z
1/2-x,1/2-y,z
1/2+x,1/2-y,-z
1/2-x,1/2+y,-z
1/2-x,1/2-y,-z
1/2+x,1/2+y,-z
1/2-x,1/2+y,z
1/2+x,1/2-y,z
loop_
_atom_site_type_symbol
_atom_site_label
_atom_site_fract_x
_atom_site_fract_y
_atom_site_fract_z
Si Si1 0.188845 0.170383 0.000000
Si Si2 0.192042 0.670197 0.433548
Si Si3 0.875433 0.172063 0.118343
Si Si4 0.500000 0.672899 0.288288
Si Si5 0.190963 0.331483 0.221037
Si Si6 0.000000 0.172035 0.844094
Si Si7 0.109151 0.666965 0.668655
O O1 0.250000 0.250000 0.000000
O O2 0.150575 0.215674 0.944280
O O3 0.202612 0.000000 0.000000
O O4 0.174995 0.713088 0.500000
O O5 0.204791 0.500000 0.427004
O O6 0.250000 0.750000 0.413225
O O7 0.139789 0.717001 0.391441
O O8 0.840244 0.259199 0.166327
O O9 0.942644 0.222557 0.120970
O O10 0.869617 0.000000 0.130847
O O11 0.500000 0.500000 0.287748
O O12 0.500000 0.737443 0.221928
O O13 0.555441 0.727628 0.323082
O O14 0.203187 0.500000 0.206236
O O15 0.250000 0.250000 0.233891
O O16 0.152848 0.312358 0.278252
O O17 0.000000 0.000000 0.838416
O O18 0.087701 0.500000 0.664739
#
# Coordination Sequence:
#
# PCOD8272376 Si02
#       7
#     8  16  16   8  16   8  16
#     4  10  22  37  57  79 107 144 179 220 269 320
#     4   9  18  34  56  81 110 145 183 224 272 323
#     4  10  20  37  57  80 108 140 178 221 268 320
#     4  11  21  35  57  82 107 143 182 225 273 319
#     4  11  22  34  52  79 108 140 176 220 270 320
#     4   9  18  34  57  81 106 135 175 222 267 315
#     4  10  21  36  54  79 110 143 180 223 271 324
#
# _framework density 18.199124999999999
#
# number of rings (size 3 to 8) (size 9 to 14) (size 15 to 20)
#    0.000    2.000    1.818    1.909    0.000    4.000 
#    0.000    2.727    0.000    2.727    0.000    1.909 
#    0.000    0.000    0.000    0.000    0.000    0.000 
#
# Total GULP energy -545685.562261 kJ/mol
# GULP energy per Si atom -12401.944597 kJ/mol
# Density = 1.815770 g / cm^3
# Si number density = 18.199125 Si / 1000 Ang^3
#
#
#
# Elastic Constant Matrix: (Units=GPa)
#
#
# Indices 1 2 3 4 5 6 
#
# 1 149.0895 58.8210 71.8336 0.0000 0.0000 0.0000
# 2 58.8210 66.1914 45.1228 0.0000 0.0000 0.0000
# 3 71.8336 45.1228 124.8772 0.0000 0.0000 0.0000
# 4 0.0000 0.0000 0.0000 25.2022 0.0000 0.0000
# 5 0.0000 0.0000 0.0000 0.0000 25.5618 0.0000
# 6 0.0000 0.0000 0.0000 0.0000 0.0000 46.9928
#
#
#
# Elastic Compliance Matrix: (Units=1/GPa)
#
#
# Indices 1 2 3 4 5 6 
#
# 1 0.011612 -0.007650 -0.003915 0.000000 0.000000 0.000000
# 2 -0.007650 0.025085 -0.004664 0.000000 0.000000 0.000000
# 3 -0.003915 -0.004664 0.011945 0.000000 0.000000 0.000000
# 4 0.000000 0.000000 0.000000 0.039679 0.000000 0.000000
# 5 0.000000 0.000000 0.000000 0.000000 0.039121 0.000000
# 6 0.000000 0.000000 0.000000 0.000000 0.000000 0.021280
#
#
# Mechanical properties :
#
#
# Convention : Reuss Voigt Hill
#
# Bulk Modulus (GPa) = 61.78806 76.85700 69.32253
# Shear Modulus (GPa) = 26.79887 30.51008 28.65448
#
# Velocity S-wave (km/s) = 3.84153 4.09890 3.97230
# Velocity P-wave (km/s) = 7.32811 8.04513 7.69498
#
# Compressibility (1/GPa) = 0.01618436
#
# Stress axis : x y z
#
# Youngs Moduli (GPa) = 86.11732 39.86444 83.71468
#
# Poissons Ratio (x) = 0.30496 0.32778
# Poissons Ratio (y) = 0.65879 0.39042
# Poissons Ratio (z) = 0.33719 0.18591
#
# Static dielectric constant tensor:
#      x y z
#    x 7.011170 0.000000 0.000000 
#    y 0.000000 3.317330 0.000000 
#    z 0.000000 0.000000 3.770580 
# 
# 
# High freq. dielectric constant tensor:
#      x y z
#    x 1.712890 0.000000 0.000000 
#    y 0.000000 1.696280 0.000000 
#    z 0.000000 0.000000 1.710650 
# 
# From -- ./inp_files/65270.got.cif
#   From: 2010.03.12/outbox.cif.g09.slc.cpg/sg65_33_cif.got.tgz:65270.got - 2010.04.10 20:52:16.
