data_PCOD8272920
_publ_section_title
;
Structure prediction by ZEFSAII (Michael W. Deem and Ramdas Pophale) SiO2 
 PCOD8272920
Probable space group: C M M M
;
_chemical_formula_sum "Si O2"
_cell_formula_units_Z 80
_cell_length_a 9.438117
_cell_length_b 19.462139
_cell_length_c 25.304118
_cell_angle_alpha 90.000000
_cell_angle_beta 90.000000
_cell_angle_gamma 90.000000
_cell_volume 4648.010826
_symmetry_space_group_name_H-M "C M M M"
_symmetry_group_IT_number 65
_symmetry_cell_setting 'orthorhombic'
loop_
_space_group_symop_operation_xyz
x,y,z
-x,-y,z
x,-y,-z
-x,y,-z
-x,-y,-z
x,y,-z
-x,y,z
x,-y,z
1/2+x,1/2+y,z
1/2-x,1/2-y,z
1/2+x,1/2-y,-z
1/2-x,1/2+y,-z
1/2-x,1/2-y,-z
1/2+x,1/2+y,-z
1/2-x,1/2+y,z
1/2+x,1/2-y,z
loop_
_atom_site_type_symbol
_atom_site_label
_atom_site_fract_x
_atom_site_fract_y
_atom_site_fract_z
Si Si1 0.342955 0.081660 0.751315
Si Si2 0.658984 0.582132 0.655148
Si Si3 0.663955 0.683020 0.062012
Si Si4 0.659018 0.918308 0.441574
Si Si5 0.836542 0.580553 0.130210
O O1 0.500000 0.109481 0.737840
O O2 0.234560 0.111149 0.707870
O O3 0.298526 0.104862 0.810191
O O4 0.345342 0.000000 0.749266
O O5 0.500000 0.610719 0.654708
O O6 0.661353 0.500000 0.654977
O O7 0.737248 0.611777 0.603162
O O8 0.500000 0.691801 0.078148
O O9 0.750000 0.750000 0.080404
O O10 0.730499 0.617496 0.090507
O O11 0.680742 0.670591 0.000000
O O12 0.709731 0.894145 0.500000
O O13 0.500000 0.891579 0.430531
O O14 0.660008 0.000000 0.439053
O O15 0.810262 0.500000 0.123575
O O16 0.000000 0.598616 0.117138
#
# Coordination Sequence:
#
# PCOD8272920 Si02
#       5
#    16  16  16  16  16
#     4   8  14  25  39  54  75 104 136 169 208 257
#     4   9  15  20  28  44  65  90 122 163 210 254
#     4  10  21  36  53  72  95 124 156 189 226 271
#     4   8  13  20  28  37  52  80 120 163 205 250
#     4   9  18  32  50  72  96 122 153 190 231 273
#
# _framework density 17.211663000000001
#
# number of rings (size 3 to 8) (size 9 to 14) (size 15 to 20)
#    0.000    3.200    0.000    3.000    0.000    5.600 
#    0.000    6.000    0.000    0.000    0.000    0.000 
#    0.000    0.000    0.000    0.000    0.000    1.000 
#
# Total GULP energy -495793.019885 kJ/mol
# GULP energy per Si atom -12394.825497 kJ/mol
# Density = 1.717249 g / cm^3
# Si number density = 17.211663 Si / 1000 Ang^3
#
#
#
# Elastic Constant Matrix: (Units=GPa)
#
#
# Indices 1 2 3 4 5 6 
#
# 1 141.8333 34.8690 78.9035 0.0000 0.0000 0.0000
# 2 34.8690 27.8700 31.3104 0.0000 0.0000 0.0000
# 3 78.9035 31.3104 98.3789 0.0000 0.0000 0.0000
# 4 0.0000 0.0000 0.0000 0.1942 0.0000 0.0000
# 5 0.0000 0.0000 0.0000 0.0000 30.3453 0.0000
# 6 0.0000 0.0000 0.0000 0.0000 0.0000 16.8187
#
#
#
# Elastic Compliance Matrix: (Units=1/GPa)
#
#
# Indices 1 2 3 4 5 6 
#
# 1 0.013655 -0.007441 -0.008584 0.000000 0.000000 0.000000
# 2 -0.007441 0.059905 -0.013098 0.000000 0.000000 0.000000
# 3 -0.008584 -0.013098 0.021218 0.000000 0.000000 0.000000
# 4 0.000000 0.000000 0.000000 5.148229 0.000000 0.000000
# 5 0.000000 0.000000 0.000000 0.000000 0.032954 0.000000
# 6 0.000000 0.000000 0.000000 0.000000 0.000000 0.059458
#
#
# Mechanical properties :
#
#
# Convention : Reuss Voigt Hill
#
# Bulk Modulus (GPa) = 27.37244 62.02755 44.69999
# Shear Modulus (GPa) = 0.92493 17.67162 9.29827
#
# Velocity S-wave (km/s) = 0.73386 3.20773 2.32681
# Velocity P-wave (km/s) = 4.08118 7.05944 5.76592
#
# Compressibility (1/GPa) = 0.03653310
#
# Stress axis : x y z
#
# Youngs Moduli (GPa) = 73.23301 16.69317 47.13047
#
# Poissons Ratio (x) = 0.12421 0.40455
# Poissons Ratio (y) = 0.54492 0.61730
# Poissons Ratio (z) = 0.62861 0.21864
#
# Static dielectric constant tensor:
#      x y z
#    x 3.400110 0.000000 0.000000 
#    y 0.000000 2.512020 0.000000 
#    z 0.000000 0.000000 3.477620 
# 
# 
# High freq. dielectric constant tensor:
#      x y z
#    x 1.670970 0.000000 0.000000 
#    y 0.000000 1.585350 0.000000 
#    z 0.000000 0.000000 1.677950 
# 
# From -- ./inp_files/72758.got.cif
#   From: 2010.03.12/outbox.cif.g09.slc.cpg/sg65_37_cif.got.tgz:72758.got - 2010.04.10 20:52:16.
