data_PCOD8272465
_publ_section_title
;
Structure prediction by ZEFSAII (Michael W. Deem and Ramdas Pophale) SiO2 
 PCOD8272465
Probable space group: C M M M
;
_chemical_formula_sum "Si O2"
_cell_formula_units_Z 72
_cell_length_a 20.590058
_cell_length_b 8.225450
_cell_length_c 21.770073
_cell_angle_alpha 90.000000
_cell_angle_beta 90.000000
_cell_angle_gamma 90.000000
_cell_volume 3687.033827
_symmetry_space_group_name_H-M "C M M M"
_symmetry_group_IT_number 65
_symmetry_cell_setting 'orthorhombic'
loop_
_space_group_symop_operation_xyz
x,y,z
-x,-y,z
x,-y,-z
-x,y,-z
-x,-y,-z
x,y,-z
-x,y,z
x,-y,z
1/2+x,1/2+y,z
1/2-x,1/2-y,z
1/2+x,1/2-y,-z
1/2-x,1/2+y,-z
1/2-x,1/2-y,-z
1/2+x,1/2+y,-z
1/2-x,1/2+y,z
1/2+x,1/2-y,z
loop_
_atom_site_type_symbol
_atom_site_label
_atom_site_fract_x
_atom_site_fract_y
_atom_site_fract_z
Si Si1 0.180139 0.310063 0.428598
Si Si2 0.250000 0.750000 0.841241
Si Si3 0.572593 0.500000 0.859118
Si Si4 0.811257 0.000000 0.070282
Si Si5 0.925055 0.187530 0.338373
Si Si6 0.617765 0.819781 0.787412
O O1 0.175074 0.266026 0.500000
O O2 0.173379 0.500000 0.415874
O O3 0.250000 0.250000 0.402889
O O4 0.120223 0.217471 0.397092
O O5 0.213040 0.852630 0.890851
O O6 0.304146 0.827654 0.797091
O O7 0.500000 0.500000 0.880610
O O8 0.610782 0.500000 0.923812
O O9 0.585919 0.666294 0.821587
O O10 0.787746 0.000000 0.000000
O O11 0.897802 0.300210 0.284119
O O12 0.000000 0.233164 0.353572
O O13 0.920263 0.000000 0.318064
O O14 0.591262 0.000000 0.808193
#
# Coordination Sequence:
#
# PCOD8272465 Si02
#       6
#    16   8   8   8  16  16
#     4  10  22  41  63  88 119 159 206 254 307 365
#     4  10  21  38  58  94 121 154 204 248 310 370
#     4  10  22  39  58  88 125 163 207 248 298 367
#     4  10  20  37  62  88 121 159 199 255 303 356
#     4  11  24  40  60  89 122 159 204 254 308 367
#     4  11  22  38  62  88 124 161 202 252 312 367
#
# _framework density 19.527892999999999
#
# number of rings (size 3 to 8) (size 9 to 14) (size 15 to 20)
#    0.000    1.556    2.222    2.333    1.556    5.111 
#    0.000    2.222    0.000    0.000    0.000    3.111 
#    0.000    0.000    0.000    0.000    0.000    0.000 
#
# Total GULP energy -445979.569450 kJ/mol
# GULP energy per Si atom -12388.321374 kJ/mol
# Density = 1.948345 g / cm^3
# Si number density = 19.527893 Si / 1000 Ang^3
#
#
#
# Elastic Constant Matrix: (Units=GPa)
#
#
# Indices 1 2 3 4 5 6 
#
# 1 165.0460 38.6572 57.9314 0.0000 0.0000 0.0000
# 2 38.6572 120.8529 24.5238 0.0000 0.0000 0.0000
# 3 57.9314 24.5238 74.8159 0.0000 0.0000 0.0000
# 4 0.0000 0.0000 0.0000 61.3839 0.0000 0.0000
# 5 0.0000 0.0000 0.0000 0.0000 20.8586 0.0000
# 6 0.0000 0.0000 0.0000 0.0000 0.0000 27.0490
#
#
#
# Elastic Compliance Matrix: (Units=1/GPa)
#
#
# Indices 1 2 3 4 5 6 
#
# 1 0.008565 -0.001493 -0.006142 0.000000 0.000000 0.000000
# 2 -0.001493 0.009124 -0.001835 0.000000 0.000000 0.000000
# 3 -0.006142 -0.001835 0.018724 0.000000 0.000000 0.000000
# 4 0.000000 0.000000 0.000000 0.016291 0.000000 0.000000
# 5 0.000000 0.000000 0.000000 0.000000 0.047942 0.000000
# 6 0.000000 0.000000 0.000000 0.000000 0.000000 0.036970
#
#
# Mechanical properties :
#
#
# Convention : Reuss Voigt Hill
#
# Bulk Modulus (GPa) = 57.23322 66.99328 62.11325
# Shear Modulus (GPa) = 30.79202 37.83181 34.31192
#
# Velocity S-wave (km/s) = 3.97523 4.40628 4.19629
# Velocity P-wave (km/s) = 7.10225 7.76324 7.44009
#
# Compressibility (1/GPa) = 0.01747237
#
# Stress axis : x y z
#
# Youngs Moduli (GPa) = 116.75970 109.59581 53.40840
#
# Poissons Ratio (x) = 0.16364 0.32805
# Poissons Ratio (y) = 0.17434 0.09799
# Poissons Ratio (z) = 0.71717 0.20108
#
# Static dielectric constant tensor:
#      x y z
#    x 3.836210 0.000000 0.000000 
#    y 0.000000 3.704560 0.000000 
#    z 0.000000 0.000000 3.375230 
# 
# 
# High freq. dielectric constant tensor:
#      x y z
#    x 1.770680 0.000000 0.000000 
#    y 0.000000 1.776540 0.000000 
#    z 0.000000 0.000000 1.740990 
# 
# From -- ./inp_files/64414.got.cif
#   From: 2010.03.12/outbox.cif.g09.slc.cpg/sg65_33_cif.got.tgz:64414.got - 2010.04.10 20:52:16.
