data_PCOD8272221
_publ_section_title
;
Structure prediction by ZEFSAII (Michael W. Deem and Ramdas Pophale) SiO2 
 PCOD8272221
Probable space group: C M M M
;
_chemical_formula_sum "Si O2"
_cell_formula_units_Z 80
_cell_length_a 19.146107
_cell_length_b 8.770915
_cell_length_c 25.227646
_cell_angle_alpha 90.000000
_cell_angle_beta 90.000000
_cell_angle_gamma 90.000000
_cell_volume 4236.450264
_symmetry_space_group_name_H-M "C M M M"
_symmetry_group_IT_number 65
_symmetry_cell_setting 'orthorhombic'
loop_
_space_group_symop_operation_xyz
x,y,z
-x,-y,z
x,-y,-z
-x,y,-z
-x,-y,-z
x,y,-z
-x,y,z
x,-y,z
1/2+x,1/2+y,z
1/2-x,1/2-y,z
1/2+x,1/2-y,-z
1/2-x,1/2+y,-z
1/2-x,1/2-y,-z
1/2+x,1/2+y,-z
1/2-x,1/2+y,z
1/2+x,1/2-y,z
loop_
_atom_site_type_symbol
_atom_site_label
_atom_site_fract_x
_atom_site_fract_y
_atom_site_fract_z
Si Si1 0.919447 0.825063 0.199623
Si Si2 0.176190 0.819197 0.587372
Si Si3 0.081661 0.321341 0.500000
Si Si4 0.580691 0.821731 0.090182
Si Si5 0.826794 0.179789 0.000000
Si Si6 0.321908 0.679236 0.707209
O O1 0.897879 0.721642 0.149843
O O2 0.880484 0.764277 0.251865
O O3 0.000000 0.806643 0.213125
O O4 0.900187 0.000000 0.186409
O O5 0.250000 0.750000 0.568572
O O6 0.114265 0.752880 0.552264
O O7 0.159573 0.767591 0.647639
O O8 0.179574 0.000000 0.580730
O O9 0.097000 0.500000 0.500000
O O10 0.000000 0.284210 0.500000
O O11 0.500000 0.776160 0.079187
O O12 0.592336 0.000000 0.080976
O O13 0.630762 0.729968 0.051557
O O14 0.750000 0.250000 0.000000
O O15 0.818843 0.000000 0.000000
O O16 0.313976 0.500000 0.708398
O O17 0.250000 0.750000 0.726974
#
# Coordination Sequence:
#
# PCOD8272221 Si02
#       6
#    16  16   8  16   8  16
#     4   9  18  34  55  79 108 143 183 223 264 313
#     4  10  20  36  58  81 107 142 183 223 267 322
#     4  11  24  39  54  77 109 141 176 223 276 325
#     4  10  21  38  59  83 112 146 184 224 267 320
#     4  12  25  40  59  83 111 143 181 226 277 326
#     4   9  19  34  54  80 108 140 177 220 267 316
#
# _framework density 18.883735000000001
#
# number of rings (size 3 to 8) (size 9 to 14) (size 15 to 20)
#    0.000    2.100    0.000    3.000    0.000    6.400 
#    0.000    4.000    0.000    2.400    0.000    0.000 
#    0.000    0.000    0.000    0.000    0.000    0.000 
#
# Total GULP energy -496104.486139 kJ/mol
# GULP energy per Si atom -12402.612153 kJ/mol
# Density = 1.884076 g / cm^3
# Si number density = 18.883735 Si / 1000 Ang^3
#
#
#
# Elastic Constant Matrix: (Units=GPa)
#
#
# Indices 1 2 3 4 5 6 
#
# 1 121.7740 57.4180 85.8567 0.0000 0.0000 0.0000
# 2 57.4180 85.6799 48.6924 0.0000 0.0000 0.0000
# 3 85.8567 48.6924 130.3984 0.0000 0.0000 0.0000
# 4 0.0000 0.0000 0.0000 25.5854 0.0000 0.0000
# 5 0.0000 0.0000 0.0000 0.0000 43.3455 0.0000
# 6 0.0000 0.0000 0.0000 0.0000 0.0000 32.1604
#
#
#
# Elastic Compliance Matrix: (Units=1/GPa)
#
#
# Indices 1 2 3 4 5 6 
#
# 1 0.017948 -0.006743 -0.009299 0.000000 0.000000 0.000000
# 2 -0.006743 0.017349 -0.002039 0.000000 0.000000 0.000000
# 3 -0.009299 -0.002039 0.014553 0.000000 0.000000 0.000000
# 4 0.000000 0.000000 0.000000 0.039085 0.000000 0.000000
# 5 0.000000 0.000000 0.000000 0.000000 0.023070 0.000000
# 6 0.000000 0.000000 0.000000 0.000000 0.000000 0.031094
#
#
# Mechanical properties :
#
#
# Convention : Reuss Voigt Hill
#
# Bulk Modulus (GPa) = 73.05757 80.19851 76.62804
# Shear Modulus (GPa) = 27.20021 29.94393 28.57207
#
# Velocity S-wave (km/s) = 3.79938 3.98640 3.89402
# Velocity P-wave (km/s) = 7.61703 7.98438 7.80287
#
# Compressibility (1/GPa) = 0.01368784
#
# Stress axis : x y z
#
# Youngs Moduli (GPa) = 55.71776 57.64182 68.71517
#
# Poissons Ratio (x) = 0.38866 0.63900
# Poissons Ratio (y) = 0.37569 0.14009
# Poissons Ratio (z) = 0.51813 0.11751
#
# Static dielectric constant tensor:
#      x y z
#    x 3.462080 0.000000 0.000000 
#    y 0.000000 3.494740 0.000000 
#    z 0.000000 0.000000 3.715110 
# 
# 
# High freq. dielectric constant tensor:
#      x y z
#    x 1.730510 0.000000 0.000000 
#    y 0.000000 1.737870 0.000000 
#    z 0.000000 0.000000 1.745770 
# 
# From -- ./inp_files/75046.got.cif
#   From: 2010.03.12/outbox.cif.g09.slc.cpg/sg65_38_cif.got.tgz:75046.got - 2010.04.10 20:52:16.
