data_PCOD8272414
_publ_section_title
;
Structure prediction by ZEFSAII (Michael W. Deem and Ramdas Pophale) SiO2 
 PCOD8272414
Probable space group: C M M M
;
_chemical_formula_sum "Si O2"
_cell_formula_units_Z 104
_cell_length_a 29.179123
_cell_length_b 20.425736
_cell_length_c 9.442208
_cell_angle_alpha 90.000000
_cell_angle_beta 90.000000
_cell_angle_gamma 90.000000
_cell_volume 5627.603775
_symmetry_space_group_name_H-M "C M M M"
_symmetry_group_IT_number 65
_symmetry_cell_setting 'orthorhombic'
loop_
_space_group_symop_operation_xyz
x,y,z
-x,-y,z
x,-y,-z
-x,y,-z
-x,-y,-z
x,y,-z
-x,y,z
x,-y,z
1/2+x,1/2+y,z
1/2-x,1/2-y,z
1/2+x,1/2-y,-z
1/2-x,1/2+y,-z
1/2-x,1/2-y,-z
1/2+x,1/2+y,-z
1/2-x,1/2+y,z
1/2+x,1/2-y,z
loop_
_atom_site_type_symbol
_atom_site_label
_atom_site_fract_x
_atom_site_fract_y
_atom_site_fract_z
Si Si1 0.947159 0.124597 0.335808
Si Si2 0.552709 0.925072 0.659962
Si Si3 0.874320 0.646837 0.835307
Si Si4 0.054304 0.000000 0.159355
Si Si5 0.369773 0.274470 0.339765
Si Si6 0.770400 0.818729 0.338689
Si Si7 0.281831 0.074775 0.835430
O O1 0.941620 0.105009 0.500000
O O2 0.915529 0.186286 0.296746
O O3 0.000000 0.142641 0.301211
O O4 0.928988 0.064235 0.242334
O O5 0.570740 0.914423 0.500000
O O6 0.500000 0.904488 0.669172
O O7 0.579255 0.879337 0.767676
O O8 0.559301 0.000000 0.705919
O O9 0.861396 0.715546 0.766737
O O10 0.834008 0.595426 0.805134
O O11 0.882820 0.658014 0.000000
O O12 0.000000 0.000000 0.155381
O O13 0.074642 0.000000 0.000000
O O14 0.374660 0.247450 0.500000
O O15 0.325383 0.320761 0.328147
O O16 0.753496 0.827766 0.500000
O O17 0.750000 0.750000 0.279812
O O18 0.752907 0.879675 0.248932
O O19 0.275742 0.000000 0.784803
O O20 0.270076 0.082458 0.000000
#
# Coordination Sequence:
#
# PCOD8272414 Si02
#       7
#    16  16  16   8  16  16  16
#     4   9  18  34  56  79 105 141 181 221 270 328
#     4   9  19  36  56  78 107 145 187 229 273 321
#     4  11  22  35  55  82 112 146 184 226 275 329
#     4   9  17  31  53  79 107 139 175 219 267 319
#     4  10  21  37  56  80 110 142 183 229 272 327
#     4  10  20  37  60  83 109 144 186 233 281 329
#     4  10  22  39  58  82 113 147 185 229 277 336
#
# _framework density 18.480333999999999
#
# number of rings (size 3 to 8) (size 9 to 14) (size 15 to 20)
#    0.000    2.231    1.538    1.615    0.000    5.231 
#    1.385    2.308    0.000    0.000    0.000    0.000 
#    0.000    0.000    0.000    0.000    0.000    0.000 
#
# Total GULP energy -644920.912441 kJ/mol
# GULP energy per Si atom -12402.325239 kJ/mol
# Density = 1.843827 g / cm^3
# Si number density = 18.480334 Si / 1000 Ang^3
#
#
#
# Elastic Constant Matrix: (Units=GPa)
#
#
# Indices 1 2 3 4 5 6 
#
# 1 80.1169 47.5420 40.7075 0.0000 0.0000 0.0000
# 2 47.5420 126.9636 66.5032 0.0000 0.0000 0.0000
# 3 40.7075 66.5032 92.6533 0.0000 0.0000 0.0000
# 4 0.0000 0.0000 0.0000 31.5756 0.0000 0.0000
# 5 0.0000 0.0000 0.0000 0.0000 27.7564 0.0000
# 6 0.0000 0.0000 0.0000 0.0000 0.0000 30.5688
#
#
#
# Elastic Compliance Matrix: (Units=1/GPa)
#
#
# Indices 1 2 3 4 5 6 
#
# 1 0.017243 -0.003988 -0.004713 0.000000 0.000000 0.000000
# 2 -0.003988 0.013544 -0.007969 0.000000 0.000000 0.000000
# 3 -0.004713 -0.007969 0.018584 0.000000 0.000000 0.000000
# 4 0.000000 0.000000 0.000000 0.031670 0.000000 0.000000
# 5 0.000000 0.000000 0.000000 0.000000 0.036028 0.000000
# 6 0.000000 0.000000 0.000000 0.000000 0.000000 0.032713
#
#
# Mechanical properties :
#
#
# Convention : Reuss Voigt Hill
#
# Bulk Modulus (GPa) = 62.38424 67.69326 65.03875
# Shear Modulus (GPa) = 26.53005 27.64558 27.08782
#
# Velocity S-wave (km/s) = 3.79302 3.87194 3.83268
# Velocity P-wave (km/s) = 7.28101 7.52985 7.40647
#
# Compressibility (1/GPa) = 0.01602969
#
# Stress axis : x y z
#
# Youngs Moduli (GPa) = 57.99427 73.83477 53.81043
#
# Poissons Ratio (x) = 0.29444 0.25363
# Poissons Ratio (y) = 0.23127 0.42882
# Poissons Ratio (z) = 0.27335 0.58840
#
# Static dielectric constant tensor:
#      x y z
#    x 3.343650 0.000000 0.000000 
#    y 0.000000 3.308790 0.000000 
#    z 0.000000 0.000000 3.435660 
# 
# 
# High freq. dielectric constant tensor:
#      x y z
#    x 1.713930 0.000000 0.000000 
#    y 0.000000 1.712640 0.000000 
#    z 0.000000 0.000000 1.715310 
# 
# From -- ./inp_files/18638.got.cif
#   From: 2010.03.12/outbox.cif.g09.slc.cpg/sg65_10_cif.got.tgz:18638.got - 2010.04.10 20:52:16.
