data_PCOD8272064
_publ_section_title
;
Structure prediction by ZEFSAII (Michael W. Deem and Ramdas Pophale) SiO2 
 PCOD8272064
Probable space group: C M M M
;
_chemical_formula_sum "Si O2"
_cell_formula_units_Z 88
_cell_length_a 22.261613
_cell_length_b 22.974561
_cell_length_c 8.766610
_cell_angle_alpha 90.000000
_cell_angle_beta 90.000000
_cell_angle_gamma 90.000000
_cell_volume 4483.689574
_symmetry_space_group_name_H-M "C M M M"
_symmetry_group_IT_number 65
_symmetry_cell_setting 'orthorhombic'
loop_
_space_group_symop_operation_xyz
x,y,z
-x,-y,z
x,-y,-z
-x,y,-z
-x,-y,-z
x,y,-z
-x,y,z
x,-y,z
1/2+x,1/2+y,z
1/2-x,1/2-y,z
1/2+x,1/2-y,-z
1/2-x,1/2+y,-z
1/2-x,1/2-y,-z
1/2+x,1/2+y,-z
1/2-x,1/2+y,z
1/2+x,1/2-y,z
loop_
_atom_site_type_symbol
_atom_site_label
_atom_site_fract_x
_atom_site_fract_y
_atom_site_fract_z
Si Si1 0.379440 0.378866 0.179922
Si Si2 0.161972 0.639934 0.323324
Si Si3 0.728917 0.565511 0.323014
Si Si4 0.500000 0.568466 0.681568
Si Si5 0.181249 0.234961 0.321095
Si Si6 0.432218 0.933572 0.169669
O O1 0.331817 0.428225 0.226485
O O2 0.442314 0.396201 0.257330
O O3 0.351365 0.317081 0.232784
O O4 0.389478 0.377264 0.000000
O O5 0.176004 0.640141 0.500000
O O6 0.221476 0.609667 0.252026
O O7 0.148100 0.705570 0.269839
O O8 0.103220 0.603380 0.291417
O O9 0.714539 0.579093 0.500000
O O10 0.753500 0.500000 0.303850
O O11 0.500000 0.500000 0.734371
O O12 0.500000 0.571520 0.500000
O O13 0.176294 0.220571 0.500000
O O14 0.250000 0.250000 0.276349
O O15 0.500000 0.911213 0.171739
O O16 0.428687 0.000000 0.221075
O O17 0.405112 0.925441 0.000000
#
# Coordination Sequence:
#
# PCOD8272064 Si02
#       6
#    16  16  16   8  16  16
#     4  12  25  40  62  93 128 160 200 254 312 371
#     4  10  20  35  59  87 112 147 199 251 293 343
#     4  10  20  36  59  87 120 157 198 244 299 363
#     4  11  25  47  73  95 121 165 216 261 312 377
#     4  10  20  40  65  85 116 160 202 244 294 357
#     4   9  19  36  55  77 112 156 192 228 288 360
#
# _framework density 19.626693
#
# number of rings (size 3 to 8) (size 9 to 14) (size 15 to 20)
#    0.000    1.727    1.818    3.545    0.000    6.545 
#    1.636    0.909    0.000    0.000    0.000    0.000 
#    0.000    0.000    0.000    0.000    0.000    0.000 
#
# Total GULP energy -545337.050780 kJ/mol
# GULP energy per Si atom -12394.023881 kJ/mol
# Density = 1.958202 g / cm^3
# Si number density = 19.626693 Si / 1000 Ang^3
#
#
#
# Elastic Constant Matrix: (Units=GPa)
#
#
# Indices 1 2 3 4 5 6 
#
# 1 100.5673 66.1115 34.5409 0.0000 0.0000 0.0000
# 2 66.1115 116.4576 41.8489 0.0000 0.0000 0.0000
# 3 34.5409 41.8489 65.0606 0.0000 0.0000 0.0000
# 4 0.0000 0.0000 0.0000 24.2959 0.0000 0.0000
# 5 0.0000 0.0000 0.0000 0.0000 10.5701 0.0000
# 6 0.0000 0.0000 0.0000 0.0000 0.0000 32.0507
#
#
#
# Elastic Compliance Matrix: (Units=1/GPa)
#
#
# Indices 1 2 3 4 5 6 
#
# 1 0.016471 -0.008075 -0.003551 0.000000 0.000000 0.000000
# 2 -0.008075 0.015127 -0.005443 0.000000 0.000000 0.000000
# 3 -0.003551 -0.005443 0.020757 0.000000 0.000000 0.000000
# 4 0.000000 0.000000 0.000000 0.041159 0.000000 0.000000
# 5 0.000000 0.000000 0.000000 0.000000 0.094607 0.000000
# 6 0.000000 0.000000 0.000000 0.000000 0.000000 0.031201
#
#
# Mechanical properties :
#
#
# Convention : Reuss Voigt Hill
#
# Bulk Modulus (GPa) = 54.89226 63.00976 58.95101
# Shear Modulus (GPa) = 19.26556 22.68894 20.97725
#
# Velocity S-wave (km/s) = 3.13645 3.40372 3.27282
# Velocity P-wave (km/s) = 6.41446 6.90079 6.66207
#
# Compressibility (1/GPa) = 0.01821751
#
# Stress axis : x y z
#
# Youngs Moduli (GPa) = 60.71184 66.10879 48.17746
#
# Poissons Ratio (x) = 0.53380 0.17107
# Poissons Ratio (y) = 0.49022 0.26223
# Poissons Ratio (z) = 0.21558 0.35983
#
# Static dielectric constant tensor:
#      x y z
#    x 3.529240 0.000000 0.000000 
#    y 0.000000 3.930980 0.000000 
#    z 0.000000 0.000000 3.433430 
# 
# 
# High freq. dielectric constant tensor:
#      x y z
#    x 1.762570 0.000000 0.000000 
#    y 0.000000 1.779710 0.000000 
#    z 0.000000 0.000000 1.746820 
# 
# From -- ./inp_files/11809.got.cif
#   From: 2010.03.12/outbox.cif.g09.slc.cpg/sg65_6_cif.got.tgz:11809.got - 2010.04.10 20:52:16.
