data_PCOD8272054
_publ_section_title
;
Structure prediction by ZEFSAII (Michael W. Deem and Ramdas Pophale) SiO2 
 PCOD8272054
Probable space group: C M M M
;
_chemical_formula_sum "Si O2"
_cell_formula_units_Z 72
_cell_length_a 7.878957
_cell_length_b 18.613618
_cell_length_c 24.547794
_cell_angle_alpha 90.000000
_cell_angle_beta 90.000000
_cell_angle_gamma 90.000000
_cell_volume 3600.078720
_symmetry_space_group_name_H-M "C M M M"
_symmetry_group_IT_number 65
_symmetry_cell_setting 'orthorhombic'
loop_
_space_group_symop_operation_xyz
x,y,z
-x,-y,z
x,-y,-z
-x,y,-z
-x,-y,-z
x,y,-z
-x,y,z
x,-y,z
1/2+x,1/2+y,z
1/2-x,1/2-y,z
1/2+x,1/2-y,-z
1/2-x,1/2+y,-z
1/2-x,1/2-y,-z
1/2+x,1/2+y,-z
1/2-x,1/2+y,z
1/2+x,1/2-y,z
loop_
_atom_site_type_symbol
_atom_site_label
_atom_site_fract_x
_atom_site_fract_y
_atom_site_fract_z
Si Si1 0.696508 0.420928 0.840776
Si Si2 0.500000 0.585082 0.439361
Si Si3 0.800767 0.328359 0.938775
Si Si4 0.799495 0.167554 0.261137
Si Si5 0.808582 0.582970 0.635109
O O1 0.500000 0.429448 0.829054
O O2 0.782641 0.500000 0.838377
O O3 0.721312 0.388337 0.900472
O O4 0.772378 0.369488 0.793946
O O5 0.500000 0.500000 0.443455
O O6 0.500000 0.618828 0.500000
O O7 0.329043 0.611183 0.408741
O O8 0.750000 0.250000 0.916541
O O9 0.000000 0.337188 0.937950
O O10 0.728482 0.339002 0.000000
O O11 0.750000 0.250000 0.258840
O O12 0.705634 0.129983 0.310978
O O13 0.000000 0.158043 0.268041
O O14 0.771080 0.500000 0.650022
O O15 0.000000 0.591686 0.611402
#
# Coordination Sequence:
#
# PCOD8272054 Si02
#       5
#    16   8  16  16  16
#     4  10  22  38  57  82 113 148 186 233 287 344
#     4   9  18  34  58  88 122 158 194 240 290 335
#     4  10  21  37  57  80 108 145 188 236 286 340
#     4  11  22  37  57  83 114 150 189 238 290 347
#     4  10  20  35  58  88 119 155 197 240 289 345
#
# _framework density 19.999562999999998
#
# number of rings (size 3 to 8) (size 9 to 14) (size 15 to 20)
#    0.000    1.889    1.111    2.667    0.000    7.111 
#    0.000    4.444    0.000    0.667    0.000    0.000 
#    0.000    0.000    0.000    0.000    0.000    0.000 
#
# Total GULP energy -446419.629260 kJ/mol
# GULP energy per Si atom -12400.545257 kJ/mol
# Density = 1.995404 g / cm^3
# Si number density = 19.999563 Si / 1000 Ang^3
#
#
#
# Elastic Constant Matrix: (Units=GPa)
#
#
# Indices 1 2 3 4 5 6 
#
# 1 87.4694 27.9727 39.3652 0.0000 0.0000 0.0000
# 2 27.9727 130.0238 70.8335 0.0000 0.0000 0.0000
# 3 39.3652 70.8335 142.5001 0.0000 0.0000 0.0000
# 4 0.0000 0.0000 0.0000 19.4461 0.0000 0.0000
# 5 0.0000 0.0000 0.0000 0.0000 20.5176 0.0000
# 6 0.0000 0.0000 0.0000 0.0000 0.0000 24.2512
#
#
#
# Elastic Compliance Matrix: (Units=1/GPa)
#
#
# Indices 1 2 3 4 5 6 
#
# 1 0.013184 -0.001169 -0.003061 0.000000 0.000000 0.000000
# 2 -0.001169 0.010651 -0.004971 0.000000 0.000000 0.000000
# 3 -0.003061 -0.004971 0.010334 0.000000 0.000000 0.000000
# 4 0.000000 0.000000 0.000000 0.051424 0.000000 0.000000
# 5 0.000000 0.000000 0.000000 0.000000 0.048739 0.000000
# 6 0.000000 0.000000 0.000000 0.000000 0.000000 0.041235
#
#
# Mechanical properties :
#
#
# Convention : Reuss Voigt Hill
#
# Bulk Modulus (GPa) = 63.42531 70.70402 67.06467
# Shear Modulus (GPa) = 25.09733 27.63111 26.36422
#
# Velocity S-wave (km/s) = 3.54629 3.72100 3.63470
# Velocity P-wave (km/s) = 6.96781 7.34103 7.15685
#
# Compressibility (1/GPa) = 0.01576658
#
# Stress axis : x y z
#
# Youngs Moduli (GPa) = 75.84982 93.89172 96.76541
#
# Poissons Ratio (x) = 0.10973 0.29621
# Poissons Ratio (y) = 0.08865 0.48105
# Poissons Ratio (z) = 0.23218 0.46676
#
# Static dielectric constant tensor:
#      x y z
#    x 3.672110 0.000000 0.000000 
#    y 0.000000 3.611130 0.000000 
#    z 0.000000 0.000000 3.791810 
# 
# 
# High freq. dielectric constant tensor:
#      x y z
#    x 1.784550 0.000000 0.000000 
#    y 0.000000 1.769100 0.000000 
#    z 0.000000 0.000000 1.777680 
# 
# From -- ./inp_files/67054.got.cif
#   From: 2010.03.12/outbox.cif.g09.slc.cpg/sg65_34_cif.got.tgz:67054.got - 2010.04.10 20:52:16.
