data_PCOD8272168
_publ_section_title
;
Structure prediction by ZEFSAII (Michael W. Deem and Ramdas Pophale) SiO2 
 PCOD8272168
Probable space group: C M M M
;
_chemical_formula_sum "Si O2"
_cell_formula_units_Z 88
_cell_length_a 28.808987
_cell_length_b 8.903123
_cell_length_c 18.159552
_cell_angle_alpha 90.000000
_cell_angle_beta 90.000000
_cell_angle_gamma 90.000000
_cell_volume 4657.742671
_symmetry_space_group_name_H-M "C M M M"
_symmetry_group_IT_number 65
_symmetry_cell_setting 'orthorhombic'
loop_
_space_group_symop_operation_xyz
x,y,z
-x,-y,z
x,-y,-z
-x,y,-z
-x,-y,-z
x,y,-z
-x,y,z
x,-y,z
1/2+x,1/2+y,z
1/2-x,1/2-y,z
1/2+x,1/2-y,-z
1/2-x,1/2+y,-z
1/2-x,1/2-y,-z
1/2+x,1/2+y,-z
1/2-x,1/2+y,z
1/2+x,1/2-y,z
loop_
_atom_site_type_symbol
_atom_site_label
_atom_site_fract_x
_atom_site_fract_y
_atom_site_fract_z
Si Si1 0.050955 0.828772 0.197579
Si Si2 0.356104 0.178717 0.581115
Si Si3 0.300201 0.322313 0.000000
Si Si4 0.851657 0.825696 0.853786
Si Si5 0.299659 0.178158 0.279088
Si Si6 0.949312 0.677692 0.350593
O O1 0.092525 0.801125 0.139270
O O2 0.060086 0.724075 0.267099
O O3 0.000000 0.793948 0.162050
O O4 0.052551 0.000000 0.225681
O O5 0.341169 0.237755 0.500000
O O6 0.320013 0.236352 0.642674
O O7 0.407955 0.241117 0.598319
O O8 0.357028 0.000000 0.582446
O O9 0.250000 0.250000 0.000000
O O10 0.328345 0.266683 0.071402
O O11 0.294767 0.500000 0.000000
O O12 0.833355 0.729250 0.785823
O O13 0.839412 0.000000 0.840248
O O14 0.250000 0.250000 0.266178
O O15 0.295234 0.000000 0.277345
O O16 0.948692 0.500000 0.353135
O O17 0.000000 0.737653 0.377494
#
# Coordination Sequence:
#
# PCOD8272168 Si02
#       6
#    16  16   8  16  16  16
#     4   9  17  30  51  78 107 138 169 205 252 304
#     4   9  18  32  49  73 105 136 170 215 261 306
#     4  10  22  38  55  79 107 137 172 216 263 308
#     4  10  20  36  57  80 108 138 172 212 256 308
#     4  11  22  36  55  77 101 134 176 219 264 313
#     4   9  16  28  49  76 103 133 171 212 253 302
#
# _framework density 18.893272
#
# number of rings (size 3 to 8) (size 9 to 14) (size 15 to 20)
#    0.000    2.364    1.818    1.091    0.000    2.909 
#    0.000    2.273    0.000    7.091    0.000    2.545 
#    0.000    5.091    0.000    0.000    0.000    0.000 
#
# Total GULP energy -545347.767591 kJ/mol
# GULP energy per Si atom -12394.267445 kJ/mol
# Density = 1.885027 g / cm^3
# Si number density = 18.893272 Si / 1000 Ang^3
#
#
#
# Elastic Constant Matrix: (Units=GPa)
#
#
# Indices 1 2 3 4 5 6 
#
# 1 143.6034 21.3966 63.9414 0.0000 0.0000 0.0000
# 2 21.3966 22.9159 17.7228 0.0000 0.0000 0.0000
# 3 63.9414 17.7228 118.8530 0.0000 0.0000 0.0000
# 4 0.0000 0.0000 0.0000 20.4413 0.0000 0.0000
# 5 0.0000 0.0000 0.0000 0.0000 29.8469 0.0000
# 6 0.0000 0.0000 0.0000 0.0000 0.0000 19.0780
#
#
#
# Elastic Compliance Matrix: (Units=1/GPa)
#
#
# Indices 1 2 3 4 5 6 
#
# 1 0.009779 -0.005722 -0.004408 0.000000 0.000000 0.000000
# 2 -0.005722 0.052674 -0.004776 0.000000 0.000000 0.000000
# 3 -0.004408 -0.004776 0.011497 0.000000 0.000000 0.000000
# 4 0.000000 0.000000 0.000000 0.048921 0.000000 0.000000
# 5 0.000000 0.000000 0.000000 0.000000 0.033504 0.000000
# 6 0.000000 0.000000 0.000000 0.000000 0.000000 0.052416
#
#
# Mechanical properties :
#
#
# Convention : Reuss Voigt Hill
#
# Bulk Modulus (GPa) = 22.65584 54.61045 38.63315
# Shear Modulus (GPa) = 19.73826 26.02734 22.88280
#
# Velocity S-wave (km/s) = 3.23573 3.71563 3.48395
# Velocity P-wave (km/s) = 5.09680 6.88297 6.05610
#
# Compressibility (1/GPa) = 0.04413872
#
# Stress axis : x y z
#
# Youngs Moduli (GPa) = 102.26319 18.98472 86.97740
#
# Poissons Ratio (x) = 0.10862 0.38336
# Poissons Ratio (y) = 0.58510 0.41544
# Poissons Ratio (z) = 0.45074 0.09068
#
# Static dielectric constant tensor:
#      x y z
#    x 3.898120 0.000000 0.000000 
#    y 0.000000 3.235590 0.000000 
#    z 0.000000 0.000000 3.478700 
# 
# 
# High freq. dielectric constant tensor:
#      x y z
#    x 1.755350 0.000000 0.000000 
#    y 0.000000 1.707790 0.000000 
#    z 0.000000 0.000000 1.714220 
# 
# From -- ./inp_files/50289.got.cif
#   From: 2010.03.12/outbox.cif.g09.slc.cpg/sg65_26_cif.got.tgz:50289.got - 2010.04.10 20:52:16.
