data_PCOD8272406
_publ_section_title
;
Structure prediction by ZEFSAII (Michael W. Deem and Ramdas Pophale) SiO2 
 PCOD8272406
Probable space group: C M M M
;
_chemical_formula_sum "Si O2"
_cell_formula_units_Z 72
_cell_length_a 27.117998
_cell_length_b 17.771727
_cell_length_c 7.674596
_cell_angle_alpha 90.000000
_cell_angle_beta 90.000000
_cell_angle_gamma 90.000000
_cell_volume 3698.646118
_symmetry_space_group_name_H-M "C M M M"
_symmetry_group_IT_number 65
_symmetry_cell_setting 'orthorhombic'
loop_
_space_group_symop_operation_xyz
x,y,z
-x,-y,z
x,-y,-z
-x,y,-z
-x,-y,-z
x,y,-z
-x,y,z
x,-y,z
1/2+x,1/2+y,z
1/2-x,1/2-y,z
1/2+x,1/2-y,-z
1/2-x,1/2+y,-z
1/2-x,1/2-y,-z
1/2+x,1/2+y,-z
1/2-x,1/2+y,z
1/2+x,1/2-y,z
loop_
_atom_site_type_symbol
_atom_site_label
_atom_site_fract_x
_atom_site_fract_y
_atom_site_fract_z
Si Si1 0.695103 0.232977 0.707641
Si Si2 0.945043 0.657048 0.205244
Si Si3 0.442709 0.588752 0.500000
Si Si4 0.649855 0.918575 0.698483
Si Si5 0.100576 0.814725 0.199386
O O1 0.691108 0.233152 0.500000
O O2 0.750000 0.250000 0.773514
O O3 0.679588 0.150898 0.785619
O O4 0.658852 0.296949 0.782068
O O5 0.908611 0.597413 0.293285
O O6 0.929969 0.741462 0.257998
O O7 0.000000 0.641252 0.274502
O O8 0.941400 0.646969 0.000000
O O9 0.436367 0.500000 0.500000
O O10 0.500000 0.612436 0.500000
O O11 0.415795 0.618497 0.326246
O O12 0.666523 0.924473 0.500000
O O13 0.661027 0.000000 0.788686
O O14 0.089055 0.838181 0.000000
#
# Coordination Sequence:
#
# PCOD8272406 Si02
#       5
#    16  16   8  16  16
#     4   9  17  33  58  82 110 145 192 235 278 335
#     4   9  18  31  49  74 101 136 178 215 258 313
#     4  11  24  40  59  84 113 149 192 237 296 358
#     4   9  18  31  46  70 104 139 174 217 268 317
#     4  10  20  37  59  84 114 145 186 237 284 338
#
# _framework density 19.466583
#
# number of rings (size 3 to 8) (size 9 to 14) (size 15 to 20)
#    0.000    2.556    1.111    0.667    1.556    3.556 
#    0.000    4.444    0.000    0.000    0.000    0.000 
#    0.000    0.000    0.000    0.000    0.000    0.000 
#
# Total GULP energy -446264.696500 kJ/mol
# GULP energy per Si atom -12396.241569 kJ/mol
# Density = 1.942228 g / cm^3
# Si number density = 19.466583 Si / 1000 Ang^3
#
#
#
# Elastic Constant Matrix: (Units=GPa)
#
#
# Indices 1 2 3 4 5 6 
#
# 1 144.2318 63.1261 18.5596 0.0000 0.0000 0.0000
# 2 63.1261 117.4741 32.8443 0.0000 0.0000 0.0000
# 3 18.5596 32.8443 61.6275 0.0000 0.0000 0.0000
# 4 0.0000 0.0000 0.0000 10.7886 0.0000 0.0000
# 5 0.0000 0.0000 0.0000 0.0000 12.6262 0.0000
# 6 0.0000 0.0000 0.0000 0.0000 0.0000 16.7351
#
#
#
# Elastic Compliance Matrix: (Units=1/GPa)
#
#
# Indices 1 2 3 4 5 6 
#
# 1 0.009067 -0.004828 -0.000157 0.000000 0.000000 0.000000
# 2 -0.004828 0.012574 -0.005247 0.000000 0.000000 0.000000
# 3 -0.000157 -0.005247 0.019070 0.000000 0.000000 0.000000
# 4 0.000000 0.000000 0.000000 0.092690 0.000000 0.000000
# 5 0.000000 0.000000 0.000000 0.000000 0.079200 0.000000
# 6 0.000000 0.000000 0.000000 0.000000 0.000000 0.059755
#
#
# Mechanical properties :
#
#
# Convention : Reuss Voigt Hill
#
# Bulk Modulus (GPa) = 49.39340 61.37706 55.38523
# Shear Modulus (GPa) = 16.69056 21.95021 19.32039
#
# Velocity S-wave (km/s) = 2.93131 3.36159 3.15380
# Velocity P-wave (km/s) = 6.07332 6.83118 6.46337
#
# Compressibility (1/GPa) = 0.02024562
#
# Stress axis : x y z
#
# Youngs Moduli (GPa) = 110.29439 79.52914 52.43717
#
# Poissons Ratio (x) = 0.38397 0.00825
# Poissons Ratio (y) = 0.53251 0.27515
# Poissons Ratio (z) = 0.01736 0.41731
#
# Static dielectric constant tensor:
#      x y z
#    x 3.644280 0.000000 0.000000 
#    y 0.000000 3.590000 0.000000 
#    z 0.000000 0.000000 3.393620 
# 
# 
# High freq. dielectric constant tensor:
#      x y z
#    x 1.752300 0.000000 0.000000 
#    y 0.000000 1.741810 0.000000 
#    z 0.000000 0.000000 1.750900 
# 
# From -- ./inp_files/15779.got.cif
#   From: 2010.03.12/outbox.cif.g09.slc.cpg/sg65_8_cif.got.tgz:15779.got - 2010.04.10 20:52:16.
