data_PCOD8272939
_publ_section_title
;
Structure prediction by ZEFSAII (Michael W. Deem and Ramdas Pophale) SiO2 
 PCOD8272939
Probable space group: C M M M
;
_chemical_formula_sum "Si O2"
_cell_formula_units_Z 96
_cell_length_a 19.443841
_cell_length_b 9.387309
_cell_length_c 30.884668
_cell_angle_alpha 90.000000
_cell_angle_beta 90.000000
_cell_angle_gamma 90.000000
_cell_volume 5637.234639
_symmetry_space_group_name_H-M "C M M M"
_symmetry_group_IT_number 65
_symmetry_cell_setting 'orthorhombic'
loop_
_space_group_symop_operation_xyz
x,y,z
-x,-y,z
x,-y,-z
-x,y,-z
-x,-y,-z
x,y,-z
-x,y,z
x,-y,z
1/2+x,1/2+y,z
1/2-x,1/2-y,z
1/2+x,1/2-y,-z
1/2-x,1/2+y,-z
1/2-x,1/2-y,-z
1/2+x,1/2+y,-z
1/2-x,1/2+y,z
1/2+x,1/2-y,z
loop_
_atom_site_type_symbol
_atom_site_label
_atom_site_fract_x
_atom_site_fract_y
_atom_site_fract_z
Si Si1 0.918325 0.657663 0.795666
Si Si2 0.821279 0.832766 0.639628
Si Si3 0.078572 0.167480 0.714807
Si Si4 0.419428 0.164871 0.107891
Si Si5 0.819188 0.163800 0.545713
Si Si6 0.817416 0.835077 0.949286
O O1 0.890476 0.500000 0.784638
O O2 0.891047 0.764387 0.758814
O O3 0.893288 0.703521 0.843526
O O4 0.000000 0.656469 0.796392
O O5 0.750000 0.750000 0.645985
O O6 0.876310 0.777829 0.674522
O O7 0.855567 0.800969 0.591815
O O8 0.806438 0.000000 0.645781
O O9 0.000000 0.215676 0.706405
O O10 0.083688 0.000000 0.720609
O O11 0.500000 0.193668 0.103171
O O12 0.382652 0.269171 0.074629
O O13 0.402562 0.000000 0.097410
O O14 0.860918 0.195579 0.500000
O O15 0.750000 0.250000 0.544104
O O16 0.797767 0.000000 0.546550
O O17 0.750000 0.750000 0.934243
O O18 0.808488 0.000000 0.936557
O O19 0.830489 0.816088 0.000000
#
# Coordination Sequence:
#
# PCOD8272939 Si02
#       6
#    16  16  16  16  16  16
#     4   8  15  29  48  69  92 118 150 187 224 264
#     4   9  17  28  42  62  87 112 141 180 222 262
#     4   9  17  29  45  64  87 117 150 181 217 264
#     4   9  18  33  53  76 100 125 155 194 238 279
#     4   8  13  22  37  56  78 105 137 173 213 257
#     4  10  21  36  53  73  99 131 164 196 231 275
#
# _framework density 17.029627000000001
#
# number of rings (size 3 to 8) (size 9 to 14) (size 15 to 20)
#    0.000    3.167    0.000    1.500    0.000    3.000 
#    0.000    4.167    0.000    2.500    0.000    3.500 
#    0.000    0.000    0.000   31.167    0.000   17.000 
#
# Total GULP energy -594626.461040 kJ/mol
# GULP energy per Si atom -12388.051272 kJ/mol
# Density = 1.699087 g / cm^3
# Si number density = 17.029627 Si / 1000 Ang^3
#
#
#
# Elastic Constant Matrix: (Units=GPa)
#
#
# Indices 1 2 3 4 5 6 
#
# 1 54.0829 36.8574 50.9610 0.0000 0.0000 0.0000
# 2 36.8574 65.2237 56.2193 0.0000 0.0000 0.0000
# 3 50.9610 56.2193 117.5211 0.0000 0.0000 0.0000
# 4 0.0000 0.0000 0.0000 26.9372 0.0000 0.0000
# 5 0.0000 0.0000 0.0000 0.0000 24.0190 0.0000
# 6 0.0000 0.0000 0.0000 0.0000 0.0000 22.0900
#
#
#
# Elastic Compliance Matrix: (Units=1/GPa)
#
#
# Indices 1 2 3 4 5 6 
#
# 1 0.035814 -0.011660 -0.009952 0.000000 0.000000 0.000000
# 2 -0.011660 0.029885 -0.009240 0.000000 0.000000 0.000000
# 3 -0.009952 -0.009240 0.017245 0.000000 0.000000 0.000000
# 4 0.000000 0.000000 0.000000 0.037123 0.000000 0.000000
# 5 0.000000 0.000000 0.000000 0.000000 0.041634 0.000000
# 6 0.000000 0.000000 0.000000 0.000000 0.000000 0.045269
#
#
# Mechanical properties :
#
#
# Convention : Reuss Voigt Hill
#
# Bulk Modulus (GPa) = 47.08209 58.32258 52.70234
# Shear Modulus (GPa) = 18.13192 20.79524 19.46358
#
# Velocity S-wave (km/s) = 3.26656 3.49825 3.38438
# Velocity P-wave (km/s) = 6.47568 7.11611 6.80343
#
# Compressibility (1/GPa) = 0.02123950
#
# Stress axis : x y z
#
# Youngs Moduli (GPa) = 27.92177 33.46106 57.98715
#
# Poissons Ratio (x) = 0.39015 0.57711
# Poissons Ratio (y) = 0.32557 0.53582
# Poissons Ratio (z) = 0.27789 0.30919
#
# Static dielectric constant tensor:
#      x y z
#    x 2.632980 0.000000 0.000000 
#    y 0.000000 3.156490 0.000000 
#    z 0.000000 0.000000 3.771360 
# 
# 
# High freq. dielectric constant tensor:
#      x y z
#    x 1.608240 0.000000 0.000000 
#    y 0.000000 1.657510 0.000000 
#    z 0.000000 0.000000 1.678430 
# 
# From -- ./inp_files/75676.got.cif
#   From: 2010.03.12/outbox.cif.g09.slc.cpg/sg65_38_cif.got.tgz:75676.got - 2010.04.10 20:52:16.
