data_PCOD8272299
_publ_section_title
;
Structure prediction by ZEFSAII (Michael W. Deem and Ramdas Pophale) SiO2 
 PCOD8272299
Probable space group: C M M M
;
_chemical_formula_sum "Si O2"
_cell_formula_units_Z 64
_cell_length_a 8.771959
_cell_length_b 17.881963
_cell_length_c 20.591590
_cell_angle_alpha 90.000000
_cell_angle_beta 90.000000
_cell_angle_gamma 90.000000
_cell_volume 3229.993642
_symmetry_space_group_name_H-M "C M M M"
_symmetry_group_IT_number 65
_symmetry_cell_setting 'orthorhombic'
loop_
_space_group_symop_operation_xyz
x,y,z
-x,-y,z
x,-y,-z
-x,y,-z
-x,-y,-z
x,y,-z
-x,y,z
x,-y,z
1/2+x,1/2+y,z
1/2-x,1/2-y,z
1/2+x,1/2-y,-z
1/2-x,1/2+y,-z
1/2-x,1/2-y,-z
1/2+x,1/2+y,-z
1/2-x,1/2+y,z
1/2+x,1/2-y,z
loop_
_atom_site_type_symbol
_atom_site_label
_atom_site_fract_x
_atom_site_fract_y
_atom_site_fract_z
Si Si1 0.828737 0.911339 0.000000
Si Si2 0.820488 0.413306 0.132773
Si Si3 0.175652 0.412421 0.629527
Si Si4 0.319928 0.168978 0.500000
Si Si5 0.679474 0.669685 0.253219
O O1 0.739201 0.883529 0.063540
O O2 0.000000 0.878430 0.000000
O O3 0.832980 0.000000 0.000000
O O4 0.776460 0.500000 0.144036
O O5 0.742044 0.362939 0.186484
O O6 0.000000 0.401735 0.136053
O O7 0.195888 0.500000 0.620575
O O8 0.236398 0.374367 0.563824
O O9 0.278605 0.385892 0.688820
O O10 0.000000 0.391360 0.643886
O O11 0.500000 0.174731 0.500000
O O12 0.250000 0.250000 0.500000
O O13 0.500000 0.677708 0.247811
O O14 0.750000 0.750000 0.268243
#
# Coordination Sequence:
#
# PCOD8272299 Si02
#       5
#     8  16  16   8  16
#     4   9  17  31  54  85 118 151 190 235 281 333
#     4  10  20  36  59  86 116 151 191 235 285 341
#     4  10  21  39  62  87 116 151 192 237 285 339
#     4  10  21  37  59  87 119 156 193 232 282 338
#     4  12  25  40  58  82 114 151 192 238 290 345
#
# _framework density 19.814281000000001
#
# number of rings (size 3 to 8) (size 9 to 14) (size 15 to 20)
#    0.000    1.625    0.000    5.250    0.000   11.000 
#    0.000    0.625    0.000    2.250    0.000    0.000 
#    0.000    0.000    0.000    0.000    0.000    0.000 
#
# Total GULP energy -396958.757726 kJ/mol
# GULP energy per Si atom -12404.961179 kJ/mol
# Density = 1.976918 g / cm^3
# Si number density = 19.814281 Si / 1000 Ang^3
#
#
#
# Elastic Constant Matrix: (Units=GPa)
#
#
# Indices 1 2 3 4 5 6 
#
# 1 93.2139 29.5123 41.2969 0.0000 0.0000 0.0000
# 2 29.5123 82.9022 43.8160 0.0000 0.0000 0.0000
# 3 41.2969 43.8160 151.4079 0.0000 0.0000 0.0000
# 4 0.0000 0.0000 0.0000 0.1485 0.0000 0.0000
# 5 0.0000 0.0000 0.0000 0.0000 -206.2320 0.0000
# 6 0.0000 0.0000 0.0000 0.0000 0.0000 32.5650
#
#
#
# Elastic Compliance Matrix: (Units=1/GPa)
#
#
# Indices 1 2 3 4 5 6 
#
# 1 0.012894 -0.003224 -0.002584 0.000000 0.000000 0.000000
# 2 -0.003224 0.015047 -0.003475 0.000000 0.000000 0.000000
# 3 -0.002584 -0.003475 0.008315 0.000000 0.000000 0.000000
# 4 0.000000 0.000000 0.000000 6.733348 0.000000 0.000000
# 5 0.000000 0.000000 0.000000 0.000000 -0.004849 0.000000
# 6 0.000000 0.000000 0.000000 0.000000 0.000000 0.030708
#
#
# Mechanical properties :
#
#
# Convention : Reuss Voigt Hill
#
# Bulk Modulus (GPa) = 56.53115 61.86382 59.19748
# Shear Modulus (GPa) = 0.73315 -20.51044 -9.88865
#
# Velocity S-wave (km/s) = 0.60894 -3.22084 -2.23640
# Velocity P-wave (km/s) = 5.39322 4.17826 4.82414
#
# Compressibility (1/GPa) = 0.01768936
#
# Stress axis : x y z
#
# Youngs Moduli (GPa) = 77.55828 66.45897 120.26482
#
# Poissons Ratio (x) = 0.21429 0.31072
# Poissons Ratio (y) = 0.25008 0.41791
# Poissons Ratio (z) = 0.20038 0.23094
#
# Static dielectric constant tensor:
#      x y z
#    x 3.685270 0.000000 0.000000 
#    y 0.000000 3.527320 0.000000 
#    z 0.000000 0.000000 3.881560 
# 
# 
# High freq. dielectric constant tensor:
#      x y z
#    x 1.775630 0.000000 0.000000 
#    y 0.000000 1.764960 0.000000 
#    z 0.000000 0.000000 1.792760 
# 
# From -- ./inp_files/58812.got.cif
#   From: 2010.03.12/outbox.cif.g09.slc.cpg/sg65_30_cif.got.tgz:58812.got - 2010.04.10 20:52:16.
