data_PCOD8272455
_publ_section_title
;
Structure prediction by ZEFSAII (Michael W. Deem and Ramdas Pophale) SiO2 
 PCOD8272455
Probable space group: C M M M
;
_chemical_formula_sum "Si O2"
_cell_formula_units_Z 66
_cell_length_a 15.411051
_cell_length_b 8.780731
_cell_length_c 25.332602
_cell_angle_alpha 90.000000
_cell_angle_beta 90.000000
_cell_angle_gamma 90.000000
_cell_volume 3428.015132
_symmetry_space_group_name_H-M "C M M M"
_symmetry_group_IT_number 65
_symmetry_cell_setting 'orthorhombic'
loop_
_space_group_symop_operation_xyz
x,y,z
-x,-y,z
x,-y,-z
-x,y,-z
-x,-y,-z
x,y,-z
-x,y,z
x,-y,z
1/2+x,1/2+y,z
1/2-x,1/2-y,z
1/2+x,1/2-y,-z
1/2-x,1/2+y,-z
1/2-x,1/2-y,-z
1/2+x,1/2+y,-z
1/2-x,1/2+y,z
1/2+x,1/2-y,z
loop_
_atom_site_type_symbol
_atom_site_label
_atom_site_fract_x
_atom_site_fract_y
_atom_site_fract_z
Si Si1 0.500000 0.000000 0.000000
Si Si2 0.500000 0.325202 0.562337
Si Si3 0.102081 0.824329 0.725122
Si Si4 0.000000 0.664524 0.894729
Si Si5 0.341048 0.679769 0.841354
Si Si6 0.839548 0.679270 0.379582
O O1 0.500000 0.138012 0.042546
O O2 0.500000 0.500000 0.581087
O O3 0.500000 0.309284 0.500000
O O4 0.584538 0.245326 0.584810
O O5 0.138697 0.772299 0.781389
O O6 0.147431 0.719906 0.681695
O O7 0.000000 0.795882 0.724190
O O8 0.124215 0.000000 0.713190
O O9 0.914512 0.757852 0.879779
O O10 0.000000 0.500000 0.864615
O O11 0.337751 0.500000 0.847630
O O12 0.250000 0.750000 0.859471
O O13 0.836700 0.500000 0.386541
O O14 0.750000 0.750000 0.400497
#
# Coordination Sequence:
#
# PCOD8272455 Si02
#       6
#     2   8  16   8  16  16
#     4   8  24  44  70  88 124 158 222 260 326 352
#     4  11  25  46  69  91 119 160 211 268 325 375
#     4  10  20  37  61  92 131 169 205 250 309 378
#     4  10  21  42  66  87 123 159 208 261 310 364
#     4  11  22  38  63  97 130 167 207 254 312 375
#     4  12  25  41  64  93 128 167 210 257 314 377
#
# _framework density 19.253124
#
# number of rings (size 3 to 8) (size 9 to 14) (size 15 to 20)
#    0.364    0.848    2.424    4.364    0.000    5.333 
#    0.000    1.818    0.000    0.000    0.000    0.000 
#    0.000    0.000    0.000    0.000    0.000    0.000 
#
# Total GULP energy -408835.612905 kJ/mol
# GULP energy per Si atom -12388.957967 kJ/mol
# Density = 1.920930 g / cm^3
# Si number density = 19.253124 Si / 1000 Ang^3
#
#
#
# Elastic Constant Matrix: (Units=GPa)
#
#
# Indices 1 2 3 4 5 6 
#
# 1 164.1669 71.7791 54.7846 0.0000 0.0000 0.0000
# 2 71.7791 145.5361 59.3446 0.0000 0.0000 0.0000
# 3 54.7846 59.3446 104.7048 0.0000 0.0000 0.0000
# 4 0.0000 0.0000 0.0000 34.8402 0.0000 0.0000
# 5 0.0000 0.0000 0.0000 0.0000 -4.3268 0.0000
# 6 0.0000 0.0000 0.0000 0.0000 0.0000 34.3191
#
#
#
# Elastic Compliance Matrix: (Units=1/GPa)
#
#
# Indices 1 2 3 4 5 6 
#
# 1 0.008286 -0.003016 -0.002626 0.000000 0.000000 0.000000
# 2 -0.003016 0.010034 -0.004109 0.000000 0.000000 0.000000
# 3 -0.002626 -0.004109 0.013254 0.000000 0.000000 0.000000
# 4 0.000000 0.000000 0.000000 0.028702 0.000000 0.000000
# 5 0.000000 0.000000 0.000000 0.000000 -0.231117 0.000000
# 6 0.000000 0.000000 0.000000 0.000000 0.000000 0.029138
#
#
# Mechanical properties :
#
#
# Convention : Reuss Voigt Hill
#
# Bulk Modulus (GPa) = 82.83914 87.35826 85.09870
# Shear Modulus (GPa) = -42.31017 28.19979 -7.05519
#
# Velocity S-wave (km/s) = -4.69291 3.83127 -1.91635
# Velocity P-wave (km/s) = 3.70879 8.06496 6.27689
#
# Compressibility (1/GPa) = 0.01207159
#
# Stress axis : x y z
#
# Youngs Moduli (GPa) = 120.67825 99.65898 75.45010
#
# Poissons Ratio (x) = 0.30057 0.19816
# Poissons Ratio (y) = 0.36397 0.31003
# Poissons Ratio (z) = 0.31694 0.40951
#
# Static dielectric constant tensor:
#      x y z
#    x 3.623540 0.000000 0.000000 
#    y 0.000000 3.618010 0.000000 
#    z 0.000000 0.000000 3.412980 
# 
# 
# High freq. dielectric constant tensor:
#      x y z
#    x 1.759450 0.000000 0.000000 
#    y 0.000000 1.762950 0.000000 
#    z 0.000000 0.000000 1.738570 
# 
# From -- ./inp_files/74541.got.cif
#   From: 2010.03.12/outbox.cif.g09.slc.cpg/sg65_38_cif.got.tgz:74541.got - 2010.04.10 20:52:16.
