data_PCOD8272163
_publ_section_title
;
Structure prediction by ZEFSAII (Michael W. Deem and Ramdas Pophale) SiO2 
 PCOD8272163
Probable space group: C M M M
;
_chemical_formula_sum "Si O2"
_cell_formula_units_Z 80
_cell_length_a 9.267143
_cell_length_b 23.537389
_cell_length_c 20.263592
_cell_angle_alpha 90.000000
_cell_angle_beta 90.000000
_cell_angle_gamma 90.000000
_cell_volume 4419.982828
_symmetry_space_group_name_H-M "C M M M"
_symmetry_group_IT_number 65
_symmetry_cell_setting 'orthorhombic'
loop_
_space_group_symop_operation_xyz
x,y,z
-x,-y,z
x,-y,-z
-x,y,-z
-x,-y,-z
x,y,-z
-x,y,z
x,-y,z
1/2+x,1/2+y,z
1/2-x,1/2-y,z
1/2+x,1/2-y,-z
1/2-x,1/2+y,-z
1/2-x,1/2-y,-z
1/2+x,1/2+y,-z
1/2-x,1/2+y,z
1/2+x,1/2-y,z
loop_
_atom_site_type_symbol
_atom_site_label
_atom_site_fract_x
_atom_site_fract_y
_atom_site_fract_z
Si Si1 0.670525 0.500000 0.774482
Si Si2 0.168162 0.308681 0.310158
Si Si3 0.331571 0.111012 0.810219
Si Si4 0.170266 0.000000 0.621644
Si Si5 0.167230 0.305672 0.074730
Si Si6 0.334918 0.891380 0.574956
O O1 0.500000 0.500000 0.784345
O O2 0.736836 0.554702 0.809553
O O3 0.715089 0.500000 0.697975
O O4 0.250000 0.250000 0.304687
O O5 0.215345 0.348744 0.249947
O O6 0.212089 0.339600 0.378155
O O7 0.000000 0.294864 0.307035
O O8 0.500000 0.095007 0.805003
O O9 0.293655 0.141587 0.878901
O O10 0.233715 0.055019 0.586487
O O11 0.000000 0.000000 0.611797
O O12 0.250000 0.250000 0.099646
O O13 0.000000 0.290578 0.080212
O O14 0.211856 0.321840 0.000000
O O15 0.317185 0.870194 0.500000
O O16 0.500000 0.909360 0.590310
#
# Coordination Sequence:
#
# PCOD8272163 Si02
#       6
#     8  16  16   8  16  16
#     4  11  23  36  55  82 108 136 175 224 272 315
#     4  10  21  35  53  77 104 137 177 216 259 312
#     4  10  20  36  57  79 106 143 180 216 261 315
#     4  11  22  36  55  81 107 133 171 224 275 315
#     4   9  18  33  55  84 114 144 179 217 260 310
#     4  10  21  37  56  77 104 140 178 215 260 319
#
# _framework density 18.099618
#
# number of rings (size 3 to 8) (size 9 to 14) (size 15 to 20)
#    0.000    2.000    2.000    1.500    0.000    5.200 
#    0.000    0.500    0.000    3.000    0.000    0.000 
#    0.000    0.000    0.000    0.000    0.000    0.000 
#
# Total GULP energy -496173.916160 kJ/mol
# GULP energy per Si atom -12404.347904 kJ/mol
# Density = 1.805842 g / cm^3
# Si number density = 18.099618 Si / 1000 Ang^3
#
#
#
# Elastic Constant Matrix: (Units=GPa)
#
#
# Indices 1 2 3 4 5 6 
#
# 1 60.2689 61.6565 41.7163 0.0000 0.0000 0.0000
# 2 61.6565 147.5633 65.8197 0.0000 0.0000 0.0000
# 3 41.7163 65.8197 114.0606 0.0000 0.0000 0.0000
# 4 0.0000 0.0000 0.0000 24.3919 0.0000 0.0000
# 5 0.0000 0.0000 0.0000 0.0000 21.0536 0.0000
# 6 0.0000 0.0000 0.0000 0.0000 0.0000 37.8859
#
#
#
# Elastic Compliance Matrix: (Units=1/GPa)
#
#
# Indices 1 2 3 4 5 6 
#
# 1 0.031132 -0.010677 -0.005225 0.000000 0.000000 0.000000
# 2 -0.010677 0.012788 -0.003474 0.000000 0.000000 0.000000
# 3 -0.005225 -0.003474 0.012683 0.000000 0.000000 0.000000
# 4 0.000000 0.000000 0.000000 0.040997 0.000000 0.000000
# 5 0.000000 0.000000 0.000000 0.000000 0.047498 0.000000
# 6 0.000000 0.000000 0.000000 0.000000 0.000000 0.026395
#
#
# Mechanical properties :
#
#
# Convention : Reuss Voigt Hill
#
# Bulk Modulus (GPa) = 56.02195 73.36420 64.69308
# Shear Modulus (GPa) = 23.12727 26.84630 24.98678
#
# Velocity S-wave (km/s) = 3.57848 3.85548 3.71956
# Velocity P-wave (km/s) = 6.93493 7.77439 7.36663
#
# Compressibility (1/GPa) = 0.01785015
#
# Stress axis : x y z
#
# Youngs Moduli (GPa) = 32.12143 78.19994 78.84646
#
# Poissons Ratio (x) = 0.83498 0.41194
# Poissons Ratio (y) = 0.34297 0.27392
# Poissons Ratio (z) = 0.16782 0.27168
#
# Static dielectric constant tensor:
#      x y z
#    x 3.287340 0.000000 0.000000 
#    y 0.000000 3.233900 0.000000 
#    z 0.000000 0.000000 3.571940 
# 
# 
# High freq. dielectric constant tensor:
#      x y z
#    x 1.697580 0.000000 0.000000 
#    y 0.000000 1.697140 0.000000 
#    z 0.000000 0.000000 1.710180 
# 
# From -- ./inp_files/59637.got.cif
#   From: 2010.03.12/outbox.cif.g09.slc.cpg/sg65_30_cif.got.tgz:59637.got - 2010.04.10 20:52:16.
