data_PCOD8272175
_publ_section_title
;
Structure prediction by ZEFSAII (Michael W. Deem and Ramdas Pophale) SiO2 
 PCOD8272175
Probable space group: C M M M
;
_chemical_formula_sum "Si O2"
_cell_formula_units_Z 72
_cell_length_a 25.060479
_cell_length_b 8.801734
_cell_length_c 17.338031
_cell_angle_alpha 90.000000
_cell_angle_beta 90.000000
_cell_angle_gamma 90.000000
_cell_volume 3824.347806
_symmetry_space_group_name_H-M "C M M M"
_symmetry_group_IT_number 65
_symmetry_cell_setting 'orthorhombic'
loop_
_space_group_symop_operation_xyz
x,y,z
-x,-y,z
x,-y,-z
-x,y,-z
-x,-y,-z
x,y,-z
-x,y,z
x,-y,z
1/2+x,1/2+y,z
1/2-x,1/2-y,z
1/2+x,1/2-y,-z
1/2-x,1/2+y,-z
1/2-x,1/2-y,-z
1/2+x,1/2+y,-z
1/2-x,1/2+y,z
1/2+x,1/2-y,z
loop_
_atom_site_type_symbol
_atom_site_label
_atom_site_fract_x
_atom_site_fract_y
_atom_site_fract_z
Si Si1 0.190476 0.182025 0.000000
Si Si2 0.305590 0.820700 0.413297
Si Si3 0.000000 0.169145 0.299775
Si Si4 0.000000 0.172017 0.883106
Si Si5 0.106468 0.678443 0.296643
Si Si6 0.889760 0.680384 0.119266
O O1 0.250000 0.250000 0.000000
O O2 0.158910 0.240234 0.924860
O O3 0.193545 0.000000 0.000000
O O4 0.321789 0.770481 0.500000
O O5 0.250000 0.750000 0.388461
O O6 0.347732 0.756449 0.351941
O O7 0.300728 0.000000 0.407495
O O8 0.000000 0.172473 0.208129
O O9 0.947886 0.253440 0.330270
O O10 0.000000 0.000000 0.332859
O O11 0.053250 0.258326 0.912423
O O12 0.000000 0.000000 0.915696
O O13 0.101248 0.500000 0.303171
O O14 0.117905 0.726270 0.208603
O O15 0.887819 0.500000 0.106114
#
# Coordination Sequence:
#
# PCOD8272175 Si02
#       6
#     8  16   8   8  16  16
#     4  12  26  43  58  75 104 140 176 216 262 310
#     4   9  18  33  52  75 103 135 172 214 258 303
#     4   9  17  29  49  77 107 137 170 212 257 301
#     4   9  17  32  54  82 110 136 171 214 260 308
#     4   9  18  33  54  78 105 138 173 209 254 309
#     4  10  20  36  57  81 107 137 174 216 262 309
#
# _framework density 18.826740999999998
#
# number of rings (size 3 to 8) (size 9 to 14) (size 15 to 20)
#    0.000    2.444    0.000    2.333    0.000    5.778 
#    0.000    5.000    0.000    3.333    0.000    0.000 
#    0.000    0.000    0.000    0.000    0.000    0.000 
#
# Total GULP energy -446352.740388 kJ/mol
# GULP energy per Si atom -12398.687233 kJ/mol
# Density = 1.878389 g / cm^3
# Si number density = 18.826741 Si / 1000 Ang^3
#
#
#
# Elastic Constant Matrix: (Units=GPa)
#
#
# Indices 1 2 3 4 5 6 
#
# 1 194.8272 64.2055 86.4871 0.0000 0.0000 0.0000
# 2 64.2055 76.4178 36.1409 0.0000 0.0000 0.0000
# 3 86.4871 36.1409 94.4390 0.0000 0.0000 0.0000
# 4 0.0000 0.0000 0.0000 19.0725 0.0000 0.0000
# 5 0.0000 0.0000 0.0000 0.0000 -38.2662 0.0000
# 6 0.0000 0.0000 0.0000 0.0000 0.0000 38.6180
#
#
#
# Elastic Compliance Matrix: (Units=1/GPa)
#
#
# Indices 1 2 3 4 5 6 
#
# 1 0.009984 -0.004962 -0.007244 0.000000 0.000000 0.000000
# 2 -0.004962 0.018444 -0.002514 0.000000 0.000000 0.000000
# 3 -0.007244 -0.002514 0.018185 0.000000 0.000000 0.000000
# 4 0.000000 0.000000 0.000000 0.052432 0.000000 0.000000
# 5 0.000000 0.000000 0.000000 0.000000 -0.026133 0.000000
# 6 0.000000 0.000000 0.000000 0.000000 0.000000 0.025895
#
#
# Mechanical properties :
#
#
# Convention : Reuss Voigt Hill
#
# Bulk Modulus (GPa) = 58.23331 82.15013 70.19172
# Shear Modulus (GPa) = 37.32129 15.80824 26.56476
#
# Velocity S-wave (km/s) = 4.45720 2.90085 3.76042
# Velocity P-wave (km/s) = 7.58202 7.41279 7.49788
#
# Compressibility (1/GPa) = 0.01717230
#
# Stress axis : x y z
#
# Youngs Moduli (GPa) = 100.16100 54.21763 54.98989
#
# Poissons Ratio (x) = 0.26905 0.39836
# Poissons Ratio (y) = 0.49703 0.13824
# Poissons Ratio (z) = 0.72559 0.13630
#
# Static dielectric constant tensor:
#      x y z
#    x 3.643820 0.000000 0.000000 
#    y 0.000000 3.490550 0.000000 
#    z 0.000000 0.000000 3.495400 
# 
# 
# High freq. dielectric constant tensor:
#      x y z
#    x 1.737560 0.000000 0.000000 
#    y 0.000000 1.734140 0.000000 
#    z 0.000000 0.000000 1.719270 
# 
# From -- ./inp_files/64392.got.cif
#   From: 2010.03.12/outbox.cif.g09.slc.cpg/sg65_33_cif.got.tgz:64392.got - 2010.04.10 20:52:16.
