data_PCOD8272585
_publ_section_title
;
Structure prediction by ZEFSAII (Michael W. Deem and Ramdas Pophale) SiO2 
 PCOD8272585
Probable space group: C M M M
;
_chemical_formula_sum "Si O2"
_cell_formula_units_Z 80
_cell_length_a 7.637664
_cell_length_b 18.012549
_cell_length_c 31.619992
_cell_angle_alpha 90.000000
_cell_angle_beta 90.000000
_cell_angle_gamma 90.000000
_cell_volume 4350.082362
_symmetry_space_group_name_H-M "C M M M"
_symmetry_group_IT_number 65
_symmetry_cell_setting 'orthorhombic'
loop_
_space_group_symop_operation_xyz
x,y,z
-x,-y,z
x,-y,-z
-x,y,-z
-x,-y,-z
x,y,-z
-x,y,z
x,-y,z
1/2+x,1/2+y,z
1/2-x,1/2-y,z
1/2+x,1/2-y,-z
1/2-x,1/2+y,-z
1/2-x,1/2-y,-z
1/2+x,1/2+y,-z
1/2-x,1/2+y,z
1/2+x,1/2-y,z
loop_
_atom_site_type_symbol
_atom_site_label
_atom_site_fract_x
_atom_site_fract_y
_atom_site_fract_z
Si Si1 0.304942 0.411637 0.107283
Si Si2 0.795921 0.664479 0.500000
Si Si3 0.195065 0.411647 0.800988
Si Si4 0.500000 0.588681 0.741135
Si Si5 0.000000 0.087921 0.646618
Si Si6 0.500000 0.911400 0.047489
Si Si7 0.299148 0.087452 0.584178
O O1 0.500000 0.383795 0.095890
O O2 0.297874 0.500000 0.108656
O O3 0.249986 0.380224 0.153148
O O4 0.172094 0.381462 0.071724
O O5 0.750000 0.750000 0.500000
O O6 0.721180 0.626382 0.542236
O O7 0.000000 0.649840 0.500000
O O8 0.202106 0.500000 0.802389
O O9 0.327931 0.381518 0.765430
O O10 0.000000 0.383805 0.789580
O O11 0.500000 0.500000 0.740242
O O12 0.500000 0.621943 0.693766
O O13 0.823754 0.114349 0.622687
O O14 0.000000 0.000000 0.649547
O O15 0.500000 0.000000 0.046778
O O16 0.500000 0.879259 0.000000
O O17 0.500000 0.110872 0.594146
O O18 0.285129 0.000000 0.576833
#
# Coordination Sequence:
#
# PCOD8272585 Si02
#       7
#    16   8  16   8   8   8  16
#     4   9  14  20  29  37  48  68  95 128 174 225
#     4  10  21  33  50  76  98 118 151 195 226 252
#     4   9  14  20  31  44  59  81 105 139 183 224
#     4   9  16  24  33  52  72  86 119 154 180 225
#     4   9  18  29  44  63  84 115 142 165 202 255
#     4   9  16  22  26  34  48  66  94 130 170 229
#     4   9  18  33  50  67  92 124 153 179 218 268
#
# _framework density 18.390456
#
# number of rings (size 3 to 8) (size 9 to 14) (size 15 to 20)
#    0.000    2.900    2.000    0.300    1.400    2.400 
#    0.000    7.500    0.000    0.000    0.000    0.000 
#    0.000    0.000    0.000    0.000    0.000    0.000 
#
# Total GULP energy -495813.351558 kJ/mol
# GULP energy per Si atom -12395.333789 kJ/mol
# Density = 1.834860 g / cm^3
# Si number density = 18.390456 Si / 1000 Ang^3
#
#
#
# Elastic Constant Matrix: (Units=GPa)
#
#
# Indices 1 2 3 4 5 6 
#
# 1 171.0097 10.1445 102.5825 0.0000 0.0000 0.0000
# 2 10.1445 13.4452 15.4229 0.0000 0.0000 0.0000
# 3 102.5825 15.4229 195.6495 0.0000 0.0000 0.0000
# 4 0.0000 0.0000 0.0000 0.5869 0.0000 0.0000
# 5 0.0000 0.0000 0.0000 0.0000 35.1995 0.0000
# 6 0.0000 0.0000 0.0000 0.0000 0.0000 7.3467
#
#
#
# Elastic Compliance Matrix: (Units=1/GPa)
#
#
# Indices 1 2 3 4 5 6 
#
# 1 0.008556 -0.001440 -0.004373 0.000000 0.000000 0.000000
# 2 -0.001440 0.082012 -0.005710 0.000000 0.000000 0.000000
# 3 -0.004373 -0.005710 0.007854 0.000000 0.000000 0.000000
# 4 0.000000 0.000000 0.000000 1.703876 0.000000 0.000000
# 5 0.000000 0.000000 0.000000 0.000000 0.028409 0.000000
# 6 0.000000 0.000000 0.000000 0.000000 0.000000 0.136116
#
#
# Mechanical properties :
#
#
# Convention : Reuss Voigt Hill
#
# Bulk Modulus (GPa) = 13.26657 70.71157 41.98907
# Shear Modulus (GPa) = 2.48140 25.42359 13.95249
#
# Velocity S-wave (km/s) = 1.16285 3.72214 2.75740
# Velocity P-wave (km/s) = 3.00540 7.55024 5.74624
#
# Compressibility (1/GPa) = 0.07537743
#
# Stress axis : x y z
#
# Youngs Moduli (GPa) = 116.87758 12.19328 127.32525
#
# Poissons Ratio (x) = 0.01756 0.55673
# Poissons Ratio (y) = 0.16828 0.72704
# Poissons Ratio (z) = 0.51105 0.06962
#
# Static dielectric constant tensor:
#      x y z
#    x 3.709130 0.000000 0.000000 
#    y 0.000000 2.523980 0.000000 
#    z 0.000000 0.000000 3.658450 
# 
# 
# High freq. dielectric constant tensor:
#      x y z
#    x 1.730640 0.000000 0.000000 
#    y 0.000000 1.621330 0.000000 
#    z 0.000000 0.000000 1.717260 
# 
# From -- ./inp_files/67417.got.cif
#   From: 2010.03.12/outbox.cif.g09.slc.cpg/sg65_34_cif.got.tgz:67417.got - 2010.04.10 20:52:16.
