data_PCOD8272680
_publ_section_title
;
Structure prediction by ZEFSAII (Michael W. Deem and Ramdas Pophale) SiO2 
 PCOD8272680
Probable space group: C M M M
;
_chemical_formula_sum "Si O2"
_cell_formula_units_Z 104
_cell_length_a 22.593937
_cell_length_b 28.042535
_cell_length_c 9.025672
_cell_angle_alpha 90.000000
_cell_angle_beta 90.000000
_cell_angle_gamma 90.000000
_cell_volume 5718.586977
_symmetry_space_group_name_H-M "C M M M"
_symmetry_group_IT_number 65
_symmetry_cell_setting 'orthorhombic'
loop_
_space_group_symop_operation_xyz
x,y,z
-x,-y,z
x,-y,-z
-x,y,-z
-x,-y,-z
x,y,-z
-x,y,z
x,-y,z
1/2+x,1/2+y,z
1/2-x,1/2-y,z
1/2+x,1/2-y,-z
1/2-x,1/2+y,-z
1/2-x,1/2-y,-z
1/2+x,1/2+y,-z
1/2-x,1/2+y,z
1/2+x,1/2-y,z
loop_
_atom_site_type_symbol
_atom_site_label
_atom_site_fract_x
_atom_site_fract_y
_atom_site_fract_z
Si Si1 0.115686 0.600533 0.323600
Si Si2 0.277594 0.054712 0.829643
Si Si3 0.000000 0.443740 0.176659
Si Si4 0.313674 0.300153 0.675032
Si Si5 0.565564 0.443896 0.336094
Si Si6 0.179931 0.304808 0.325133
Si Si7 0.338733 0.609360 0.828156
O O1 0.105838 0.598949 0.500000
O O2 0.167208 0.564253 0.277357
O O3 0.056417 0.583667 0.242561
O O4 0.135672 0.653707 0.266608
O O5 0.222821 0.086362 0.773443
O O6 0.258552 0.000000 0.813626
O O7 0.294723 0.066369 0.000000
O O8 0.000000 0.500000 0.221733
O O9 0.000000 0.438752 0.000000
O O10 0.314436 0.304434 0.500000
O O11 0.246931 0.309228 0.735947
O O12 0.340699 0.248529 0.722007
O O13 0.353406 0.341041 0.746630
O O14 0.588313 0.428559 0.500000
O O15 0.500000 0.422865 0.309570
O O16 0.563177 0.500000 0.324473
O O17 0.608120 0.425759 0.208140
O O18 0.182245 0.309567 0.500000
O O19 0.336481 0.619181 0.000000
#
# Coordination Sequence:
#
# PCOD8272680 Si02
#       7
#    16  16   8  16  16  16  16
#     4  11  21  36  59  85 107 134 182 237 277 315
#     4  10  21  35  49  72 111 150 177 208 262 328
#     4  11  25  43  59  77 109 153 189 221 278 349
#     4   9  16  32  55  79 109 143 176 211 261 321
#     4   9  19  36  56  76 100 136 183 226 263 312
#     4   8  16  31  55  82 107 136 172 218 268 317
#     4  11  21  32  50  80 113 144 176 217 266 317
#
# _framework density 18.186311
#
# number of rings (size 3 to 8) (size 9 to 14) (size 15 to 20)
#    0.000    2.231    1.538    3.462    0.000    4.615 
#    0.000    3.846    1.692    0.000    0.000    0.000 
#    0.000    0.000    0.000    0.000    0.000    0.000 
#
# Total GULP energy -644532.272422 kJ/mol
# GULP energy per Si atom -12394.851393 kJ/mol
# Density = 1.814492 g / cm^3
# Si number density = 18.186311 Si / 1000 Ang^3
#
#
#
# Elastic Constant Matrix: (Units=GPa)
#
#
# Indices 1 2 3 4 5 6 
#
# 1 88.3540 50.2025 34.1680 0.0000 0.0000 0.0000
# 2 50.2025 116.0713 41.1093 0.0000 0.0000 0.0000
# 3 34.1680 41.1093 52.2076 0.0000 0.0000 0.0000
# 4 0.0000 0.0000 0.0000 18.5990 0.0000 0.0000
# 5 0.0000 0.0000 0.0000 0.0000 29.2549 0.0000
# 6 0.0000 0.0000 0.0000 0.0000 0.0000 26.7680
#
#
#
# Elastic Compliance Matrix: (Units=1/GPa)
#
#
# Indices 1 2 3 4 5 6 
#
# 1 0.016805 -0.004678 -0.007315 0.000000 0.000000 0.000000
# 2 -0.004678 0.013249 -0.007371 0.000000 0.000000 0.000000
# 3 -0.007315 -0.007371 0.029746 0.000000 0.000000 0.000000
# 4 0.000000 0.000000 0.000000 0.053766 0.000000 0.000000
# 5 0.000000 0.000000 0.000000 0.000000 0.034182 0.000000
# 6 0.000000 0.000000 0.000000 0.000000 0.000000 0.037358
#
#
# Mechanical properties :
#
#
# Convention : Reuss Voigt Hill
#
# Bulk Modulus (GPa) = 47.45573 56.39918 51.92745
# Shear Modulus (GPa) = 21.65830 23.66793 22.66311
#
# Velocity S-wave (km/s) = 3.45470 3.61143 3.53393
# Velocity P-wave (km/s) = 6.48569 6.96197 6.72805
#
# Compressibility (1/GPa) = 0.02107227
#
# Stress axis : x y z
#
# Youngs Moduli (GPa) = 59.50738 75.47586 33.61791
#
# Poissons Ratio (x) = 0.35304 0.24591
# Poissons Ratio (y) = 0.27835 0.24781
# Poissons Ratio (z) = 0.43529 0.55637
#
# Static dielectric constant tensor:
#      x y z
#    x 3.304670 0.000000 0.000000 
#    y 0.000000 3.628360 0.000000 
#    z 0.000000 0.000000 3.215020 
# 
# 
# High freq. dielectric constant tensor:
#      x y z
#    x 1.684150 0.000000 0.000000 
#    y 0.000000 1.714440 0.000000 
#    z 0.000000 0.000000 1.691310 
# 
# From -- ./inp_files/12422.got.cif
#   From: 2010.03.12/outbox.cif.g09.slc.cpg/sg65_7_cif.got.tgz:12422.got - 2010.04.10 20:52:16.
