data_PCOD8272792
_publ_section_title
;
Structure prediction by ZEFSAII (Michael W. Deem and Ramdas Pophale) SiO2 
 PCOD8272792
Probable space group: C M M M
;
_chemical_formula_sum "Si O2"
_cell_formula_units_Z 104
_cell_length_a 26.981890
_cell_length_b 23.670766
_cell_length_c 8.311992
_cell_angle_alpha 90.000000
_cell_angle_beta 90.000000
_cell_angle_gamma 90.000000
_cell_volume 5308.719711
_symmetry_space_group_name_H-M "C M M M"
_symmetry_group_IT_number 65
_symmetry_cell_setting 'orthorhombic'
loop_
_space_group_symop_operation_xyz
x,y,z
-x,-y,z
x,-y,-z
-x,y,-z
-x,-y,-z
x,y,-z
-x,y,z
x,-y,z
1/2+x,1/2+y,z
1/2-x,1/2-y,z
1/2+x,1/2-y,-z
1/2-x,1/2+y,-z
1/2-x,1/2-y,-z
1/2+x,1/2+y,-z
1/2-x,1/2+y,z
1/2+x,1/2-y,z
loop_
_atom_site_type_symbol
_atom_site_label
_atom_site_fract_x
_atom_site_fract_y
_atom_site_fract_z
Si Si1 0.794593 0.857572 0.815539
Si Si2 0.870932 0.062838 0.311995
Si Si3 0.390037 0.065932 0.679357
Si Si4 0.554975 0.932823 0.000000
Si Si5 0.134408 0.241382 0.188647
Si Si6 0.556333 0.340428 0.308942
Si Si7 0.689255 0.154642 0.321043
O O1 0.816093 0.911872 0.721253
O O2 0.822779 0.801721 0.755682
O O3 0.736451 0.847063 0.794315
O O4 0.806353 0.868912 0.000000
O O5 0.878776 0.057402 0.500000
O O6 0.913032 0.105248 0.241077
O O7 0.875862 0.000000 0.234503
O O8 0.414124 0.078378 0.500000
O O9 0.336031 0.093573 0.686407
O O10 0.381724 0.000000 0.701428
O O11 0.420977 0.089482 0.832581
O O12 0.500000 0.907967 0.000000
O O13 0.554933 0.000000 0.000000
O O14 0.081276 0.217495 0.246150
O O15 0.147266 0.300611 0.270556
O O16 0.133330 0.251100 0.000000
O O17 0.557513 0.339935 0.500000
O O18 0.500000 0.343799 0.244412
O O19 0.708175 0.168589 0.500000
#
# Coordination Sequence:
#
# PCOD8272792 Si02
#       7
#    16  16  16   8  16  16  16
#     4  10  21  35  52  77 107 143 183 224 272 323
#     4   9  18  33  53  79 112 147 185 230 276 327
#     4   9  20  37  55  81 114 142 175 222 272 328
#     4   9  18  34  58  82 103 136 176 212 259 316
#     4  10  21  36  54  77 107 140 181 229 273 325
#     4   9  18  34  56  80 108 144 185 231 282 331
#     4  11  22  35  56  81 106 141 180 220 271 329
#
# _framework density 19.590412000000001
#
# number of rings (size 3 to 8) (size 9 to 14) (size 15 to 20)
#    0.000    2.385    0.000    1.846    2.154    5.538 
#    0.000    5.385    0.000    0.923    0.000    4.308 
#    0.000    0.000    0.000    0.000    0.000    0.000 
#
# Total GULP energy -644592.470833 kJ/mol
# GULP energy per Si atom -12396.009054 kJ/mol
# Density = 1.954582 g / cm^3
# Si number density = 19.590412 Si / 1000 Ang^3
#
#
#
# Elastic Constant Matrix: (Units=GPa)
#
#
# Indices 1 2 3 4 5 6 
#
# 1 110.1523 48.8028 29.0478 0.0000 0.0000 0.0000
# 2 48.8028 67.9489 18.3030 0.0000 0.0000 0.0000
# 3 29.0478 18.3030 77.6507 0.0000 0.0000 0.0000
# 4 0.0000 0.0000 0.0000 19.2501 0.0000 0.0000
# 5 0.0000 0.0000 0.0000 0.0000 26.4685 0.0000
# 6 0.0000 0.0000 0.0000 0.0000 0.0000 19.9985
#
#
#
# Elastic Compliance Matrix: (Units=1/GPa)
#
#
# Indices 1 2 3 4 5 6 
#
# 1 0.013962 -0.009205 -0.003053 0.000000 0.000000 0.000000
# 2 -0.009205 0.021784 -0.001691 0.000000 0.000000 0.000000
# 3 -0.003053 -0.001691 0.014419 0.000000 0.000000 0.000000
# 4 0.000000 0.000000 0.000000 0.051948 0.000000 0.000000
# 5 0.000000 0.000000 0.000000 0.000000 0.037781 0.000000
# 6 0.000000 0.000000 0.000000 0.000000 0.000000 0.050004
#
#
# Mechanical properties :
#
#
# Convention : Reuss Voigt Hill
#
# Bulk Modulus (GPa) = 44.91237 49.78433 47.34835
# Shear Modulus (GPa) = 22.20069 23.78332 22.99201
#
# Velocity S-wave (km/s) = 3.37002 3.48807 3.42955
# Velocity P-wave (km/s) = 6.17399 6.45678 6.31697
#
# Compressibility (1/GPa) = 0.02226558
#
# Stress axis : x y z
#
# Youngs Moduli (GPa) = 71.62353 45.90516 69.35344
#
# Poissons Ratio (x) = 0.42258 0.21174
# Poissons Ratio (y) = 0.65932 0.11728
# Poissons Ratio (z) = 0.21867 0.07763
#
# Static dielectric constant tensor:
#      x y z
#    x 3.509610 0.000000 0.000000 
#    y 0.000000 3.639080 0.000000 
#    z 0.000000 0.000000 3.657230 
# 
# 
# High freq. dielectric constant tensor:
#      x y z
#    x 1.749240 0.000000 0.000000 
#    y 0.000000 1.756460 0.000000 
#    z 0.000000 0.000000 1.767500 
# 
# From -- ./inp_files/16736.got.cif
#   From: 2010.03.12/outbox.cif.g09.slc.cpg/sg65_9_cif.got.tgz:16736.got - 2010.04.10 20:52:16.
