data_PCOD8272102
_publ_section_title
;
Structure prediction by ZEFSAII (Michael W. Deem and Ramdas Pophale) SiO2 
 PCOD8272102
Probable space group: C M M M
;
_chemical_formula_sum "Si O2"
_cell_formula_units_Z 96
_cell_length_a 18.546142
_cell_length_b 27.006287
_cell_length_c 10.793563
_cell_angle_alpha 90.000000
_cell_angle_beta 90.000000
_cell_angle_gamma 90.000000
_cell_volume 5406.090231
_symmetry_space_group_name_H-M "C M M M"
_symmetry_group_IT_number 65
_symmetry_cell_setting 'orthorhombic'
loop_
_space_group_symop_operation_xyz
x,y,z
-x,-y,z
x,-y,-z
-x,y,-z
-x,-y,-z
x,y,-z
-x,y,z
x,-y,z
1/2+x,1/2+y,z
1/2-x,1/2-y,z
1/2+x,1/2-y,-z
1/2-x,1/2+y,-z
1/2-x,1/2-y,-z
1/2+x,1/2+y,-z
1/2-x,1/2+y,z
1/2+x,1/2-y,z
loop_
_atom_site_type_symbol
_atom_site_label
_atom_site_fract_x
_atom_site_fract_y
_atom_site_fract_z
Si Si1 0.578616 0.500000 0.858815
Si Si2 0.414482 0.207118 0.861610
Si Si3 0.299460 0.056453 0.642261
Si Si4 0.154041 0.909389 0.258120
Si Si5 0.915904 0.636176 0.359160
Si Si6 0.081175 0.818681 0.855934
Si Si7 0.084634 0.944041 0.500000
O O1 0.500000 0.500000 0.787648
O O2 0.624420 0.548520 0.831813
O O3 0.559538 0.500000 0.000000
O O4 0.500000 0.205764 0.865972
O O5 0.386440 0.173436 0.747409
O O6 0.389955 0.263137 0.832499
O O7 0.385921 0.190687 0.000000
O O8 0.273391 0.058108 0.500000
O O9 0.239476 0.083578 0.725305
O O10 0.375107 0.084356 0.659544
O O11 0.310149 0.000000 0.686532
O O12 0.138767 0.854965 0.206376
O O13 0.111784 0.913407 0.384912
O O14 0.901943 0.656865 0.500000
O O15 0.000000 0.625274 0.339701
O O16 0.000000 0.825996 0.801426
O O17 0.078716 0.830666 0.000000
O O18 0.000000 0.946524 0.500000
O O19 0.117310 0.000000 0.500000
#
# Coordination Sequence:
#
# PCOD8272102 Si02
#       7
#     8  16  16  16  16  16   8
#     4  11  22  33  49  71  98 138 184 228 265 295
#     4   8  15  32  57  81 106 137 171 213 267 320
#     4  10  20  36  54  75 106 143 173 210 267 320
#     4  12  20  33  49  70 104 138 177 215 258 308
#     4   9  18  34  59  86 106 129 171 222 269 324
#     4   9  18  33  53  76 104 140 181 220 255 298
#     4  11  20  30  46  68  94 131 179 223 254 301
#
# _framework density 17.757750999999999
#
# number of rings (size 3 to 8) (size 9 to 14) (size 15 to 20)
#    0.000    2.167    2.500    3.000    0.000    1.667 
#    1.500    4.167    0.000    4.000    0.000    2.333 
#    0.000    0.000    0.000    0.000    0.000    0.000 
#
# Total GULP energy -594967.370258 kJ/mol
# GULP energy per Si atom -12395.153547 kJ/mol
# Density = 1.771733 g / cm^3
# Si number density = 17.757751 Si / 1000 Ang^3
#
#
#
# Elastic Constant Matrix: (Units=GPa)
#
#
# Indices 1 2 3 4 5 6 
#
# 1 68.2917 46.7103 35.1697 0.0000 0.0000 0.0000
# 2 46.7103 117.4289 61.8101 0.0000 0.0000 0.0000
# 3 35.1697 61.8101 93.6033 0.0000 0.0000 0.0000
# 4 0.0000 0.0000 0.0000 33.0404 0.0000 0.0000
# 5 0.0000 0.0000 0.0000 0.0000 18.9441 0.0000
# 6 0.0000 0.0000 0.0000 0.0000 0.0000 35.1359
#
#
#
# Elastic Compliance Matrix: (Units=1/GPa)
#
#
# Indices 1 2 3 4 5 6 
#
# 1 0.020887 -0.006403 -0.003620 0.000000 0.000000 0.000000
# 2 -0.006403 0.015015 -0.007510 0.000000 0.000000 0.000000
# 3 -0.003620 -0.007510 0.017002 0.000000 0.000000 0.000000
# 4 0.000000 0.000000 0.000000 0.030266 0.000000 0.000000
# 5 0.000000 0.000000 0.000000 0.000000 0.052787 0.000000
# 6 0.000000 0.000000 0.000000 0.000000 0.000000 0.028461
#
#
# Mechanical properties :
#
#
# Convention : Reuss Voigt Hill
#
# Bulk Modulus (GPa) = 56.05348 62.96715 59.51031
# Shear Modulus (GPa) = 24.33929 26.46632 25.40280
#
# Velocity S-wave (km/s) = 3.70622 3.86477 3.78632
# Velocity P-wave (km/s) = 7.06745 7.44656 7.25948
#
# Compressibility (1/GPa) = 0.01784011
#
# Stress axis : x y z
#
# Youngs Moduli (GPa) = 47.87746 66.59803 58.81577
#
# Poissons Ratio (x) = 0.42642 0.21289
# Poissons Ratio (y) = 0.30656 0.44168
# Poissons Ratio (z) = 0.17330 0.50012
#
# Static dielectric constant tensor:
#      x y z
#    x 3.069540 0.000000 0.000000 
#    y 0.000000 2.995160 0.000000 
#    z 0.000000 0.000000 3.475200 
# 
# 
# High freq. dielectric constant tensor:
#      x y z
#    x 1.668120 0.000000 0.000000 
#    y 0.000000 1.679430 0.000000 
#    z 0.000000 0.000000 1.686630 
# 
# From -- ./inp_files/27158.got.cif
#   From: 2010.03.12/outbox.cif.g09.slc.cpg/sg65_14_cif.got.tgz:27158.got - 2010.04.10 20:52:16.
