data_PCOD8272582
_publ_section_title
;
Structure prediction by ZEFSAII (Michael W. Deem and Ramdas Pophale) SiO2 
 PCOD8272582
Probable space group: C M M M
;
_chemical_formula_sum "Si O2"
_cell_formula_units_Z 56
_cell_length_a 18.100942
_cell_length_b 7.657426
_cell_length_c 21.916259
_cell_angle_alpha 90.000000
_cell_angle_beta 90.000000
_cell_angle_gamma 90.000000
_cell_volume 3037.738668
_symmetry_space_group_name_H-M "C M M M"
_symmetry_group_IT_number 65
_symmetry_cell_setting 'orthorhombic'
loop_
_space_group_symop_operation_xyz
x,y,z
-x,-y,z
x,-y,-z
-x,y,-z
-x,-y,-z
x,y,-z
-x,y,z
x,-y,z
1/2+x,1/2+y,z
1/2-x,1/2-y,z
1/2+x,1/2-y,-z
1/2-x,1/2+y,-z
1/2-x,1/2-y,-z
1/2+x,1/2+y,-z
1/2-x,1/2+y,z
1/2+x,1/2-y,z
loop_
_atom_site_type_symbol
_atom_site_label
_atom_site_fract_x
_atom_site_fract_y
_atom_site_fract_z
Si Si1 0.412574 0.500000 0.210940
Si Si2 0.164885 0.296387 0.000000
Si Si3 0.913022 0.299365 0.878928
Si Si4 0.587858 0.193938 0.431883
Si Si5 0.088448 0.000000 0.652574
O O1 0.500000 0.500000 0.215230
O O2 0.386431 0.323841 0.176540
O O3 0.378862 0.500000 0.278988
O O4 0.250000 0.250000 0.000000
O O5 0.126606 0.222366 0.939152
O O6 0.150848 0.500000 0.000000
O O7 0.890364 0.500000 0.864217
O O8 0.000000 0.284421 0.890102
O O9 0.615625 0.243401 0.500000
O O10 0.500000 0.199481 0.431329
O O11 0.619490 0.330099 0.382680
O O12 0.615586 0.000000 0.414047
O O13 0.000000 0.000000 0.653377
#
# Coordination Sequence:
#
# PCOD8272582 Si02
#       5
#     8   8  16  16   8
#     4   9  18  28  42  62  82 115 151 181 223 264
#     4  10  21  33  50  74  92 112 143 187 232 268
#     4   9  18  33  49  65  89 118 148 182 224 275
#     4   8  13  20  30  45  68 101 139 179 219 251
#     4   9  15  22  32  50  73  99 141 185 215 249
#
# _framework density 18.434764999999999
#
# number of rings (size 3 to 8) (size 9 to 14) (size 15 to 20)
#    0.000    3.143    0.000    1.714    2.000    4.571 
#    0.000    7.857    0.000    0.000    0.000    0.000 
#    0.000    0.000    0.000    0.000    0.000    5.714 
#
# Total GULP energy -347038.077442 kJ/mol
# GULP energy per Si atom -12394.217051 kJ/mol
# Density = 1.839281 g / cm^3
# Si number density = 18.434765 Si / 1000 Ang^3
#
#
#
# Elastic Constant Matrix: (Units=GPa)
#
#
# Indices 1 2 3 4 5 6 
#
# 1 22.3893 15.4513 23.1286 0.0000 0.0000 0.0000
# 2 15.4513 134.4401 104.9003 0.0000 0.0000 0.0000
# 3 23.1286 104.9003 193.4289 0.0000 0.0000 0.0000
# 4 0.0000 0.0000 0.0000 28.4616 0.0000 0.0000
# 5 0.0000 0.0000 0.0000 0.0000 1.4516 0.0000
# 6 0.0000 0.0000 0.0000 0.0000 0.0000 10.8051
#
#
#
# Elastic Compliance Matrix: (Units=1/GPa)
#
#
# Indices 1 2 3 4 5 6 
#
# 1 0.051243 -0.001922 -0.005085 0.000000 0.000000 0.000000
# 2 -0.001922 0.012967 -0.006802 0.000000 0.000000 0.000000
# 3 -0.005085 -0.006802 0.009467 0.000000 0.000000 0.000000
# 4 0.000000 0.000000 0.000000 0.035135 0.000000 0.000000
# 5 0.000000 0.000000 0.000000 0.000000 0.688888 0.000000
# 6 0.000000 0.000000 0.000000 0.000000 0.000000 0.092549
#
#
# Mechanical properties :
#
#
# Convention : Reuss Voigt Hill
#
# Bulk Modulus (GPa) = 21.71133 70.80207 46.25670
# Shear Modulus (GPa) = 5.35779 21.92887 13.64333
#
# Velocity S-wave (km/s) = 1.70665 3.45271 2.72341
# Velocity P-wave (km/s) = 3.96062 7.37463 5.91911
#
# Compressibility (1/GPa) = 0.04605891
#
# Stress axis : x y z
#
# Youngs Moduli (GPa) = 19.51470 77.11965 105.63037
#
# Poissons Ratio (x) = 0.14820 0.53714
# Poissons Ratio (y) = 0.03750 0.71854
# Poissons Ratio (z) = 0.09923 0.52460
#
# Static dielectric constant tensor:
#      x y z
#    x 2.665910 0.000000 0.000000 
#    y 0.000000 3.708240 0.000000 
#    z 0.000000 0.000000 3.728840 
# 
# 
# High freq. dielectric constant tensor:
#      x y z
#    x 1.638360 0.000000 0.000000 
#    y 0.000000 1.727810 0.000000 
#    z 0.000000 0.000000 1.718210 
# 
# From -- ./inp_files/43600.got.cif
#   From: 2010.03.12/outbox.cif.g09.slc.cpg/sg65_22_cif.got.tgz:43600.got - 2010.04.10 20:52:16.
