data_PCOD8272580
_publ_section_title
;
Structure prediction by ZEFSAII (Michael W. Deem and Ramdas Pophale) SiO2 
 PCOD8272580
Probable space group: C M M M
;
_chemical_formula_sum "Si O2"
_cell_formula_units_Z 96
_cell_length_a 28.965102
_cell_length_b 18.264519
_cell_length_c 10.205892
_cell_angle_alpha 90.000000
_cell_angle_beta 90.000000
_cell_angle_gamma 90.000000
_cell_volume 5399.260356
_symmetry_space_group_name_H-M "C M M M"
_symmetry_group_IT_number 65
_symmetry_cell_setting 'orthorhombic'
loop_
_space_group_symop_operation_xyz
x,y,z
-x,-y,z
x,-y,-z
-x,y,-z
-x,-y,-z
x,y,-z
-x,y,z
x,-y,z
1/2+x,1/2+y,z
1/2-x,1/2-y,z
1/2+x,1/2-y,-z
1/2-x,1/2+y,-z
1/2-x,1/2-y,-z
1/2+x,1/2+y,-z
1/2-x,1/2+y,z
1/2+x,1/2-y,z
loop_
_atom_site_type_symbol
_atom_site_label
_atom_site_fract_x
_atom_site_fract_y
_atom_site_fract_z
Si Si1 0.734553 0.832455 0.846962
Si Si2 0.144260 0.581860 0.845067
Si Si3 0.794859 0.913640 0.357207
Si Si4 0.051103 0.349078 0.844199
Si Si5 0.600777 0.414983 0.353214
Si Si6 0.553453 0.315495 0.144084
O O1 0.750000 0.750000 0.811665
O O2 0.682113 0.855767 0.806455
O O3 0.766957 0.884416 0.764685
O O4 0.742771 0.848007 0.000000
O O5 0.157772 0.500000 0.793177
O O6 0.093388 0.602169 0.787552
O O7 0.140473 0.579686 0.000000
O O8 0.775507 0.887305 0.500000
O O9 0.847080 0.886208 0.343321
O O10 0.793203 0.000000 0.351652
O O11 0.062221 0.266118 0.801959
O O12 0.000000 0.373633 0.790437
O O13 0.049363 0.353718 0.000000
O O14 0.581637 0.400605 0.500000
O O15 0.597588 0.500000 0.318373
O O16 0.571497 0.372701 0.247602
O O17 0.500000 0.330117 0.127035
O O18 0.577047 0.325805 0.000000
#
# Coordination Sequence:
#
# PCOD8272580 Si02
#       6
#    16  16  16  16  16  16
#     4  10  21  33  49  77 106 136 172 208 250 303
#     4   9  17  29  46  70 101 132 164 207 251 295
#     4   9  19  36  54  71  97 133 171 212 255 301
#     4   8  15  28  46  69  97 129 163 202 251 301
#     4   9  19  34  50  70  96 129 170 212 254 300
#     4   9  18  31  48  71  99 130 164 206 254 306
#
# _framework density 17.780214000000001
#
# number of rings (size 3 to 8) (size 9 to 14) (size 15 to 20)
#    0.000    3.000    0.000    2.500    2.333    3.333 
#    0.000    5.000    0.000    0.000    0.000    0.000 
#    0.000    0.000    0.000    7.167    0.000    7.000 
#
# Total GULP energy -594675.053488 kJ/mol
# GULP energy per Si atom -12389.063614 kJ/mol
# Density = 1.773975 g / cm^3
# Si number density = 17.780214 Si / 1000 Ang^3
#
#
#
# Elastic Constant Matrix: (Units=GPa)
#
#
# Indices 1 2 3 4 5 6 
#
# 1 81.5413 62.3734 25.0821 0.0000 0.0000 0.0000
# 2 62.3734 64.4412 21.1916 0.0000 0.0000 0.0000
# 3 25.0821 21.1916 40.9842 0.0000 0.0000 0.0000
# 4 0.0000 0.0000 0.0000 8.7752 0.0000 0.0000
# 5 0.0000 0.0000 0.0000 0.0000 33.1324 0.0000
# 6 0.0000 0.0000 0.0000 0.0000 0.0000 35.1063
#
#
#
# Elastic Compliance Matrix: (Units=1/GPa)
#
#
# Indices 1 2 3 4 5 6 
#
# 1 0.048649 -0.044938 -0.006537 0.000000 0.000000 0.000000
# 2 -0.044938 0.060208 -0.003630 0.000000 0.000000 0.000000
# 3 -0.006537 -0.003630 0.030277 0.000000 0.000000 0.000000
# 4 0.000000 0.000000 0.000000 0.113957 0.000000 0.000000
# 5 0.000000 0.000000 0.000000 0.000000 0.030182 0.000000
# 6 0.000000 0.000000 0.000000 0.000000 0.000000 0.028485
#
#
# Mechanical properties :
#
#
# Convention : Reuss Voigt Hill
#
# Bulk Modulus (GPa) = 34.57285 44.91787 39.74536
# Shear Modulus (GPa) = 11.58456 20.62410 16.10433
#
# Velocity S-wave (km/s) = 2.55530 3.40949 3.01282
# Velocity P-wave (km/s) = 5.30969 6.38884 5.87410
#
# Compressibility (1/GPa) = 0.02892443
#
# Stress axis : x y z
#
# Youngs Moduli (GPa) = 20.55535 16.60907 33.02856
#
# Poissons Ratio (x) = 0.74639 0.21590
# Poissons Ratio (y) = 0.92373 0.11988
# Poissons Ratio (z) = 0.13436 0.06029
#
# Static dielectric constant tensor:
#      x y z
#    x 3.548460 0.000000 0.000000 
#    y 0.000000 3.578180 0.000000 
#    z 0.000000 0.000000 6.336050 
# 
# 
# High freq. dielectric constant tensor:
#      x y z
#    x 1.691460 0.000000 0.000000 
#    y 0.000000 1.684060 0.000000 
#    z 0.000000 0.000000 1.651500 
# 
# From -- ./inp_files/12310.got.cif
#   From: 2010.03.12/outbox.cif.g09.slc.cpg/sg65_7_cif.got.tgz:12310.got - 2010.04.10 20:52:16.
