data_PCOD8272098
_publ_section_title
;
Structure prediction by ZEFSAII (Michael W. Deem and Ramdas Pophale) SiO2 
 PCOD8272098
Probable space group: C M M M
;
_chemical_formula_sum "Si O2"
_cell_formula_units_Z 104
_cell_length_a 28.175908
_cell_length_b 9.135459
_cell_length_c 22.709210
_cell_angle_alpha 90.000000
_cell_angle_beta 90.000000
_cell_angle_gamma 90.000000
_cell_volume 5845.347300
_symmetry_space_group_name_H-M "C M M M"
_symmetry_group_IT_number 65
_symmetry_cell_setting 'orthorhombic'
loop_
_space_group_symop_operation_xyz
x,y,z
-x,-y,z
x,-y,-z
-x,y,-z
-x,-y,-z
x,y,-z
-x,y,z
x,-y,z
1/2+x,1/2+y,z
1/2-x,1/2-y,z
1/2+x,1/2-y,-z
1/2-x,1/2+y,-z
1/2-x,1/2-y,-z
1/2+x,1/2+y,-z
1/2-x,1/2+y,z
1/2+x,1/2-y,z
loop_
_atom_site_type_symbol
_atom_site_label
_atom_site_fract_x
_atom_site_fract_y
_atom_site_fract_z
Si Si1 0.138578 0.328286 0.158122
Si Si2 0.946733 0.171269 0.654059
Si Si3 0.199802 0.672501 0.500000
Si Si4 0.297945 0.669346 0.931055
Si Si5 0.445738 0.667940 0.210594
Si Si6 0.857347 0.327521 0.614843
Si Si7 0.200219 0.328699 0.728304
O O1 0.137804 0.500000 0.145017
O O2 0.158048 0.243881 0.101406
O O3 0.085392 0.272796 0.169546
O O4 0.170565 0.287812 0.214111
O O5 0.939681 0.217442 0.721866
O O6 0.909427 0.256382 0.613524
O O7 0.000000 0.213188 0.633634
O O8 0.938184 0.000000 0.646497
O O9 0.208609 0.500000 0.500000
O O10 0.250000 0.750000 0.500000
O O11 0.170635 0.723392 0.557045
O O12 0.293469 0.500000 0.912989
O O13 0.250000 0.750000 0.911029
O O14 0.307082 0.688603 0.000000
O O15 0.500000 0.686699 0.190534
O O16 0.429446 0.500000 0.202893
O O17 0.864500 0.500000 0.616755
O O18 0.828230 0.271018 0.671442
O O19 0.209748 0.500000 0.723122
O O20 0.250000 0.250000 0.732183
#
# Coordination Sequence:
#
# PCOD8272098 Si02
#       7
#    16  16   8  16  16  16  16
#     4  11  21  33  52  80 110 140 176 217 266 319
#     4   9  18  33  54  80 106 135 173 215 263 318
#     4  10  22  38  57  76 101 139 182 223 261 314
#     4  10  21  37  56  78 107 145 185 222 262 310
#     4   9  18  33  53  78 108 140 175 216 265 321
#     4  10  20  36  53  75 104 136 176 219 264 315
#     4  10  21  33  47  72 104 134 168 212 261 312
#
# _framework density 17.791930000000001
#
# number of rings (size 3 to 8) (size 9 to 14) (size 15 to 20)
#    0.000    2.154    1.538    2.769    0.000    5.231 
#    0.000    1.923    0.000    2.769    0.000    3.231 
#    0.000    0.000    0.000    0.000    0.000    0.000 
#
# Total GULP energy -644995.633424 kJ/mol
# GULP energy per Si atom -12403.762181 kJ/mol
# Density = 1.775143 g / cm^3
# Si number density = 17.791930 Si / 1000 Ang^3
#
#
#
# Elastic Constant Matrix: (Units=GPa)
#
#
# Indices 1 2 3 4 5 6 
#
# 1 134.4190 59.3811 49.1405 0.0000 0.0000 0.0000
# 2 59.3811 73.0773 42.9948 0.0000 0.0000 0.0000
# 3 49.1405 42.9948 73.7563 0.0000 0.0000 0.0000
# 4 0.0000 0.0000 0.0000 21.0352 0.0000 0.0000
# 5 0.0000 0.0000 0.0000 0.0000 31.3389 0.0000
# 6 0.0000 0.0000 0.0000 0.0000 0.0000 39.1540
#
#
#
# Elastic Compliance Matrix: (Units=1/GPa)
#
#
# Indices 1 2 3 4 5 6 
#
# 1 0.012195 -0.007806 -0.003574 0.000000 0.000000 0.000000
# 2 -0.007806 0.025824 -0.009853 0.000000 0.000000 0.000000
# 3 -0.003574 -0.009853 0.021683 0.000000 0.000000 0.000000
# 4 0.000000 0.000000 0.000000 0.047539 0.000000 0.000000
# 5 0.000000 0.000000 0.000000 0.000000 0.031909 0.000000
# 6 0.000000 0.000000 0.000000 0.000000 0.000000 0.025540
#
#
# Mechanical properties :
#
#
# Convention : Reuss Voigt Hill
#
# Bulk Modulus (GPa) = 58.02035 64.92061 61.47048
# Shear Modulus (GPa) = 23.48498 26.95468 25.21983
#
# Velocity S-wave (km/s) = 3.63709 3.89652 3.76904
# Velocity P-wave (km/s) = 7.09360 7.53736 7.31885
#
# Compressibility (1/GPa) = 0.01723533
#
# Stress axis : x y z
#
# Youngs Moduli (GPa) = 82.00394 38.72348 46.11905
#
# Poissons Ratio (x) = 0.30228 0.16484
# Poissons Ratio (y) = 0.64013 0.45440
# Poissons Ratio (z) = 0.29310 0.38153
#
# Static dielectric constant tensor:
#      x y z
#    x 3.289940 0.000000 0.000000 
#    y 0.000000 3.242850 0.000000 
#    z 0.000000 0.000000 3.242180 
# 
# 
# High freq. dielectric constant tensor:
#      x y z
#    x 1.694050 0.000000 0.000000 
#    y 0.000000 1.688620 0.000000 
#    z 0.000000 0.000000 1.673720 
# 
# From -- ./inp_files/60409.got.cif
#   From: 2010.03.12/outbox.cif.g09.slc.cpg/sg65_31_cif.got.tgz:60409.got - 2010.04.10 20:52:16.
