data_PCOD8272885
_publ_section_title
;
Structure prediction by ZEFSAII (Michael W. Deem and Ramdas Pophale) SiO2 
 PCOD8272885
Probable space group: C M M M
;
_chemical_formula_sum "Si O2"
_cell_formula_units_Z 88
_cell_length_a 25.873179
_cell_length_b 7.997037
_cell_length_c 27.819961
_cell_angle_alpha 90.000000
_cell_angle_beta 90.000000
_cell_angle_gamma 90.000000
_cell_volume 5756.193906
_symmetry_space_group_name_H-M "C M M M"
_symmetry_group_IT_number 65
_symmetry_cell_setting 'orthorhombic'
loop_
_space_group_symop_operation_xyz
x,y,z
-x,-y,z
x,-y,-z
-x,y,-z
-x,-y,-z
x,y,-z
-x,y,z
x,-y,z
1/2+x,1/2+y,z
1/2-x,1/2-y,z
1/2+x,1/2-y,-z
1/2-x,1/2+y,-z
1/2-x,1/2-y,-z
1/2+x,1/2+y,-z
1/2-x,1/2+y,z
1/2+x,1/2-y,z
loop_
_atom_site_type_symbol
_atom_site_label
_atom_site_fract_x
_atom_site_fract_y
_atom_site_fract_z
Si Si1 0.600045 0.309114 0.609264
Si Si2 0.438193 0.000000 0.885730
Si Si3 0.561410 0.685710 0.945769
Si Si4 0.000000 0.690697 0.443214
Si Si5 0.561255 0.000000 0.222413
Si Si6 0.695723 0.808963 0.447402
Si Si7 0.439013 0.691713 0.286903
O O1 0.615439 0.500000 0.607026
O O2 0.550586 0.280096 0.576251
O O3 0.649367 0.212159 0.589858
O O4 0.588623 0.255545 0.663805
O O5 0.416449 0.167367 0.911753
O O6 0.416480 0.000000 0.831553
O O7 0.500000 0.000000 0.886670
O O8 0.500000 0.692357 0.945060
O O9 0.579566 0.500000 0.928213
O O10 0.581259 0.717618 0.000000
O O11 0.000000 0.500000 0.425629
O O12 0.000000 0.705239 0.500000
O O13 0.580192 0.171844 0.247920
O O14 0.500000 0.000000 0.221106
O O15 0.685704 0.721061 0.500000
O O16 0.750000 0.750000 0.424364
O O17 0.701393 0.000000 0.458076
O O18 0.500000 0.705526 0.295580
O O19 0.425043 0.500000 0.271187
#
# Coordination Sequence:
#
# PCOD8272885 Si02
#       7
#    16   8  16   8   8  16  16
#     4  11  21  33  50  68  87 114 141 172 212 256
#     4   9  15  22  31  48  66  90 128 162 208 262
#     4   8  13  20  30  44  64  91 122 162 210 254
#     4  11  23  33  45  69  93 113 139 171 207 253
#     4   9  18  27  40  55  74 106 132 172 224 253
#     4  10  21  36  52  70  91 114 138 165 203 256
#     4   9  18  31  44  61  81 105 140 173 209 258
#
# _framework density 15.287879
#
# number of rings (size 3 to 8) (size 9 to 14) (size 15 to 20)
#    0.000    2.455    0.909    2.727    2.545    5.818 
#    0.000    3.636    0.000    0.000    0.000    0.000 
#    0.000    0.000    0.000    0.000    0.000    0.000 
#
# Total GULP energy -545297.527015 kJ/mol
# GULP energy per Si atom -12393.125614 kJ/mol
# Density = 1.525308 g / cm^3
# Si number density = 15.287879 Si / 1000 Ang^3
#
#
#
# Elastic Constant Matrix: (Units=GPa)
#
#
# Indices 1 2 3 4 5 6 
#
# 1 55.6349 17.1866 27.2504 0.0000 0.0000 0.0000
# 2 17.1866 104.3509 64.9536 0.0000 0.0000 0.0000
# 3 27.2504 64.9536 101.6921 0.0000 0.0000 0.0000
# 4 0.0000 0.0000 0.0000 23.1420 0.0000 0.0000
# 5 0.0000 0.0000 0.0000 0.0000 8.3158 0.0000
# 6 0.0000 0.0000 0.0000 0.0000 0.0000 15.0086
#
#
#
# Elastic Compliance Matrix: (Units=1/GPa)
#
#
# Indices 1 2 3 4 5 6 
#
# 1 0.020690 0.000072 -0.005590 0.000000 0.000000 0.000000
# 2 0.000072 0.015908 -0.010180 0.000000 0.000000 0.000000
# 3 -0.005590 -0.010180 0.017834 0.000000 0.000000 0.000000
# 4 0.000000 0.000000 0.000000 0.043211 0.000000 0.000000
# 5 0.000000 0.000000 0.000000 0.000000 0.120253 0.000000
# 6 0.000000 0.000000 0.000000 0.000000 0.000000 0.066628
#
#
# Mechanical properties :
#
#
# Convention : Reuss Voigt Hill
#
# Bulk Modulus (GPa) = 43.41176 53.38436 48.39806
# Shear Modulus (GPa) = 15.45117 19.44578 17.44848
#
# Velocity S-wave (km/s) = 3.18257 3.57034 3.38202
# Velocity P-wave (km/s) = 6.47787 7.21053 6.85400
#
# Compressibility (1/GPa) = 0.02303523
#
# Stress axis : x y z
#
# Youngs Moduli (GPa) = 48.33192 62.86221 56.07276
#
# Poissons Ratio (x) = -0.00453 0.31347
# Poissons Ratio (y) = -0.00348 0.57083
# Poissons Ratio (z) = 0.27019 0.63994
#
# Static dielectric constant tensor:
#      x y z
#    x 2.740960 0.000000 0.000000 
#    y 0.000000 3.253900 0.000000 
#    z 0.000000 0.000000 3.009140 
# 
# 
# High freq. dielectric constant tensor:
#      x y z
#    x 1.518990 0.000000 0.000000 
#    y 0.000000 1.608590 0.000000 
#    z 0.000000 0.000000 1.576240 
# 
# From -- ./inp_files/59889.got.cif
#   From: 2010.03.12/outbox.cif.g09.slc.cpg/sg65_30_cif.got.tgz:59889.got - 2010.04.10 20:52:16.
