data_PCOD8272627
_publ_section_title
;
Structure prediction by ZEFSAII (Michael W. Deem and Ramdas Pophale) SiO2 
 PCOD8272627
Probable space group: C M M M
;
_chemical_formula_sum "Si O2"
_cell_formula_units_Z 88
_cell_length_a 9.479251
_cell_length_b 20.736263
_cell_length_c 24.567437
_cell_angle_alpha 90.000000
_cell_angle_beta 90.000000
_cell_angle_gamma 90.000000
_cell_volume 4829.079626
_symmetry_space_group_name_H-M "C M M M"
_symmetry_group_IT_number 65
_symmetry_cell_setting 'orthorhombic'
loop_
_space_group_symop_operation_xyz
x,y,z
-x,-y,z
x,-y,-z
-x,y,-z
-x,-y,-z
x,y,-z
-x,y,z
x,-y,z
1/2+x,1/2+y,z
1/2-x,1/2-y,z
1/2+x,1/2-y,-z
1/2-x,1/2+y,-z
1/2-x,1/2-y,-z
1/2+x,1/2+y,-z
1/2-x,1/2+y,z
1/2+x,1/2-y,z
loop_
_atom_site_type_symbol
_atom_site_label
_atom_site_fract_x
_atom_site_fract_y
_atom_site_fract_z
Si Si1 0.832526 0.928548 0.137335
Si Si2 0.339121 0.380034 0.438603
Si Si3 0.164550 0.812926 0.936937
Si Si4 0.167494 0.928772 0.740191
Si Si5 0.657546 0.000000 0.435475
Si Si6 0.162506 0.188486 0.668018
O O1 0.774563 0.873967 0.096548
O O2 0.781386 0.912599 0.198589
O O3 0.000000 0.928788 0.134897
O O4 0.777240 0.000000 0.120103
O O5 0.298517 0.357822 0.500000
O O6 0.500000 0.405376 0.437010
O O7 0.240507 0.436886 0.416190
O O8 0.319520 0.320786 0.397108
O O9 0.250000 0.750000 0.918118
O O10 0.000000 0.800596 0.924873
O O11 0.191443 0.828230 0.000000
O O12 0.224340 0.874081 0.699300
O O13 0.000000 0.930098 0.737907
O O14 0.224481 0.000000 0.722849
O O15 0.500000 0.000000 0.410627
O O16 0.652171 0.000000 0.500000
O O17 0.250000 0.250000 0.687245
O O18 0.000000 0.200347 0.683535
#
# Coordination Sequence:
#
# PCOD8272627 Si02
#       6
#    16  16  16  16   8  16
#     4   8  14  26  45  69  93 117 153 199 238 271
#     4   9  18  32  49  69  94 125 159 192 229 279
#     4   9  17  28  43  66  96 127 157 189 229 276
#     4   8  15  29  49  70  91 119 156 195 234 279
#     4   9  17  29  47  73  99 121 149 189 234 275
#     4  10  21  34  50  71  96 124 157 195 236 282
#
# _framework density 18.222935
#
# number of rings (size 3 to 8) (size 9 to 14) (size 15 to 20)
#    0.000    3.182    0.000    1.364    1.273    3.273 
#    0.000    1.818    0.000    0.545    0.000    5.091 
#    0.000    0.000    0.000    0.000    0.000    0.000 
#
# Total GULP energy -545350.206333 kJ/mol
# GULP energy per Si atom -12394.322871 kJ/mol
# Density = 1.818146 g / cm^3
# Si number density = 18.222935 Si / 1000 Ang^3
#
#
#
# Elastic Constant Matrix: (Units=GPa)
#
#
# Indices 1 2 3 4 5 6 
#
# 1 43.7164 40.5294 19.6979 0.0000 0.0000 0.0000
# 2 40.5294 157.1893 79.2052 0.0000 0.0000 0.0000
# 3 19.6979 79.2052 91.3067 0.0000 0.0000 0.0000
# 4 0.0000 0.0000 0.0000 29.2105 0.0000 0.0000
# 5 0.0000 0.0000 0.0000 0.0000 10.6995 0.0000
# 6 0.0000 0.0000 0.0000 0.0000 0.0000 26.5737
#
#
#
# Elastic Compliance Matrix: (Units=1/GPa)
#
#
# Indices 1 2 3 4 5 6 
#
# 1 0.030070 -0.007967 0.000424 0.000000 0.000000 0.000000
# 2 -0.007967 0.013412 -0.009916 0.000000 0.000000 0.000000
# 3 0.000424 -0.009916 0.019463 0.000000 0.000000 0.000000
# 4 0.000000 0.000000 0.000000 0.034234 0.000000 0.000000
# 5 0.000000 0.000000 0.000000 0.000000 0.093462 0.000000
# 6 0.000000 0.000000 0.000000 0.000000 0.000000 0.037631
#
#
# Mechanical properties :
#
#
# Convention : Reuss Voigt Hill
#
# Bulk Modulus (GPa) = 35.68043 63.45304 49.56674
# Shear Modulus (GPa) = 18.34643 23.48208 20.91425
#
# Velocity S-wave (km/s) = 3.17642 3.59360 3.39143
# Velocity P-wave (km/s) = 5.75111 7.21905 6.52648
#
# Compressibility (1/GPa) = 0.02802657
#
# Stress axis : x y z
#
# Youngs Moduli (GPa) = 33.25622 74.55772 51.38067
#
# Poissons Ratio (x) = 0.59397 -0.02177
# Poissons Ratio (y) = 0.26494 0.50950
# Poissons Ratio (z) = -0.01409 0.73932
#
# Static dielectric constant tensor:
#      x y z
#    x 3.035990 0.000000 0.000000 
#    y 0.000000 3.515580 0.000000 
#    z 0.000000 0.000000 3.439590 
# 
# 
# High freq. dielectric constant tensor:
#      x y z
#    x 1.658780 0.000000 0.000000 
#    y 0.000000 1.704500 0.000000 
#    z 0.000000 0.000000 1.703850 
# 
# From -- ./inp_files/67596.got.cif
#   From: 2010.03.12/outbox.cif.g09.slc.cpg/sg65_34_cif.got.tgz:67596.got - 2010.04.10 20:52:16.
