data_PCOD8272824
_publ_section_title
;
Structure prediction by ZEFSAII (Michael W. Deem and Ramdas Pophale) SiO2 
 PCOD8272824
Probable space group: C M M M
;
_chemical_formula_sum "Si O2"
_cell_formula_units_Z 88
_cell_length_a 19.197608
_cell_length_b 9.097739
_cell_length_c 27.382097
_cell_angle_alpha 90.000000
_cell_angle_beta 90.000000
_cell_angle_gamma 90.000000
_cell_volume 4782.415415
_symmetry_space_group_name_H-M "C M M M"
_symmetry_group_IT_number 65
_symmetry_cell_setting 'orthorhombic'
loop_
_space_group_symop_operation_xyz
x,y,z
-x,-y,z
x,-y,-z
-x,y,-z
-x,-y,-z
x,y,-z
-x,y,z
x,-y,z
1/2+x,1/2+y,z
1/2-x,1/2-y,z
1/2+x,1/2-y,-z
1/2-x,1/2+y,-z
1/2-x,1/2-y,-z
1/2+x,1/2+y,-z
1/2-x,1/2+y,z
1/2+x,1/2-y,z
loop_
_atom_site_type_symbol
_atom_site_label
_atom_site_fract_x
_atom_site_fract_y
_atom_site_fract_z
Si Si1 0.319603 0.329268 0.374627
Si Si2 0.679196 0.672682 0.262167
Si Si3 0.919861 0.171210 0.090322
Si Si4 0.175501 0.827115 0.000000
Si Si5 0.918291 0.666881 0.555118
Si Si6 0.581835 0.168252 0.188918
O O1 0.307728 0.500000 0.382278
O O2 0.250000 0.250000 0.392785
O O3 0.336138 0.290640 0.318556
O O4 0.383482 0.277667 0.407327
O O5 0.685687 0.500000 0.252515
O O6 0.750000 0.750000 0.244648
O O7 0.615801 0.738505 0.231920
O O8 0.896381 0.264807 0.136954
O O9 0.000000 0.204276 0.075533
O O10 0.910562 0.000000 0.102750
O O11 0.869340 0.221357 0.046845
O O12 0.250000 0.750000 0.000000
O O13 0.188246 0.000000 0.000000
O O14 0.893689 0.702455 0.500000
O O15 0.898104 0.500000 0.568715
O O16 0.000000 0.690596 0.559626
O O17 0.500000 0.181285 0.196831
O O18 0.607242 0.000000 0.191002
#
# Coordination Sequence:
#
# PCOD8272824 Si02
#       6
#    16  16  16   8  16  16
#     4  10  21  36  55  79 106 138 177 219 263 313
#     4  10  21  37  56  78 106 140 177 218 265 315
#     4   9  18  35  57  77 101 137 179 219 258 304
#     4  10  21  35  53  79 107 136 172 214 262 314
#     4   9  19  36  56  78 106 140 176 215 262 314
#     4  10  21  36  55  81 110 140 177 218 261 313
#
# _framework density 18.400744
#
# number of rings (size 3 to 8) (size 9 to 14) (size 15 to 20)
#    0.000    2.364    0.000    2.455    0.000    7.636 
#    0.000    6.364    0.000    2.727    0.000    0.000 
#    0.000    0.000    0.000    0.000    0.000    0.000 
#
# Total GULP energy -545745.631595 kJ/mol
# GULP energy per Si atom -12403.309809 kJ/mol
# Density = 1.835886 g / cm^3
# Si number density = 18.400744 Si / 1000 Ang^3
#
#
#
# Elastic Constant Matrix: (Units=GPa)
#
#
# Indices 1 2 3 4 5 6 
#
# 1 77.4613 46.1432 60.8187 0.0000 0.0000 0.0000
# 2 46.1432 91.9369 60.2266 0.0000 0.0000 0.0000
# 3 60.8187 60.2266 104.2952 0.0000 0.0000 0.0000
# 4 0.0000 0.0000 0.0000 32.3803 0.0000 0.0000
# 5 0.0000 0.0000 0.0000 0.0000 22.8333 0.0000
# 6 0.0000 0.0000 0.0000 0.0000 0.0000 37.5391
#
#
#
# Elastic Compliance Matrix: (Units=1/GPa)
#
#
# Indices 1 2 3 4 5 6 
#
# 1 0.025082 -0.004837 -0.011833 0.000000 0.000000 0.000000
# 2 -0.004837 0.018428 -0.007821 0.000000 0.000000 0.000000
# 3 -0.011833 -0.007821 0.021005 0.000000 0.000000 0.000000
# 4 0.000000 0.000000 0.000000 0.030883 0.000000 0.000000
# 5 0.000000 0.000000 0.000000 0.000000 0.043796 0.000000
# 6 0.000000 0.000000 0.000000 0.000000 0.000000 0.026639
#
#
# Mechanical properties :
#
#
# Convention : Reuss Voigt Hill
#
# Bulk Modulus (GPa) = 64.37970 67.56337 65.97154
# Shear Modulus (GPa) = 22.72816 25.65085 24.18951
#
# Velocity S-wave (km/s) = 3.51832 3.73770 3.62967
# Velocity P-wave (km/s) = 7.18111 7.44477 7.31413
#
# Compressibility (1/GPa) = 0.01553285
#
# Stress axis : x y z
#
# Youngs Moduli (GPa) = 39.86974 54.26508 47.60814
#
# Poissons Ratio (x) = 0.26247 0.56335
# Poissons Ratio (y) = 0.19284 0.37234
# Poissons Ratio (z) = 0.47178 0.42440
#
# Static dielectric constant tensor:
#      x y z
#    x 3.304200 0.000000 0.000000 
#    y 0.000000 3.450460 0.000000 
#    z 0.000000 0.000000 3.418250 
# 
# 
# High freq. dielectric constant tensor:
#      x y z
#    x 1.711510 0.000000 0.000000 
#    y 0.000000 1.719540 0.000000 
#    z 0.000000 0.000000 1.717950 
# 
# From -- ./inp_files/67477.got.cif
#   From: 2010.03.12/outbox.cif.g09.slc.cpg/sg65_34_cif.got.tgz:67477.got - 2010.04.10 20:52:16.
