data_PCOD8272793
_publ_section_title
;
Structure prediction by ZEFSAII (Michael W. Deem and Ramdas Pophale) SiO2 
 PCOD8272793
Probable space group: C M M M
;
_chemical_formula_sum "Si O2"
_cell_formula_units_Z 88
_cell_length_a 9.269280
_cell_length_b 19.233291
_cell_length_c 27.352472
_cell_angle_alpha 90.000000
_cell_angle_beta 90.000000
_cell_angle_gamma 90.000000
_cell_volume 4876.364780
_symmetry_space_group_name_H-M "C M M M"
_symmetry_group_IT_number 65
_symmetry_cell_setting 'orthorhombic'
loop_
_space_group_symop_operation_xyz
x,y,z
-x,-y,z
x,-y,-z
-x,y,-z
-x,-y,-z
x,y,-z
-x,y,z
x,-y,z
1/2+x,1/2+y,z
1/2-x,1/2-y,z
1/2+x,1/2-y,-z
1/2-x,1/2+y,-z
1/2-x,1/2-y,-z
1/2+x,1/2+y,-z
1/2-x,1/2+y,z
1/2+x,1/2-y,z
loop_
_atom_site_type_symbol
_atom_site_label
_atom_site_fract_x
_atom_site_fract_y
_atom_site_fract_z
Si Si1 0.331647 0.818395 0.178603
Si Si2 0.667623 0.079977 0.906193
Si Si3 0.333238 0.680966 0.442538
Si Si4 0.336665 0.417210 0.000000
Si Si5 0.167892 0.580465 0.625174
Si Si6 0.667247 0.181699 0.711000
O O1 0.500000 0.802651 0.175311
O O2 0.250000 0.750000 0.160682
O O3 0.286439 0.880986 0.143192
O O4 0.285985 0.838572 0.233877
O O5 0.500000 0.090042 0.918594
O O6 0.706367 0.000000 0.897059
O O7 0.756903 0.111177 0.951696
O O8 0.315457 0.670042 0.500000
O O9 0.500000 0.688408 0.427308
O O10 0.250000 0.750000 0.424809
O O11 0.263393 0.613825 0.417475
O O12 0.328797 0.500000 0.000000
O O13 0.500000 0.389614 0.000000
O O14 0.209901 0.500000 0.630021
O O15 0.205757 0.616767 0.676647
O O16 0.000000 0.589956 0.611755
O O17 0.500000 0.200383 0.708495
O O18 0.750000 0.250000 0.692333
#
# Coordination Sequence:
#
# PCOD8272793 Si02
#       6
#    16  16  16   8  16  16
#     4   9  18  32  50  72  98 128 161 200 245 291
#     4   9  17  30  49  71  94 123 160 199 238 284
#     4  10  21  37  57  79 103 134 173 214 254 300
#     4   9  17  29  46  69  96 125 157 195 240 287
#     4  10  21  35  52  77 108 139 170 208 254 301
#     4   9  18  33  52  73  98 130 167 204 244 293
#
# _framework density 18.046230000000001
#
# number of rings (size 3 to 8) (size 9 to 14) (size 15 to 20)
#    0.000    2.636    0.000    1.364    0.000    6.545 
#    0.000    5.909    0.000    0.000    0.000    7.636 
#    0.000    0.000    0.000    0.000    0.000    0.000 
#
# Total GULP energy -545689.933212 kJ/mol
# GULP energy per Si atom -12402.043937 kJ/mol
# Density = 1.800516 g / cm^3
# Si number density = 18.046230 Si / 1000 Ang^3
#
#
#
# Elastic Constant Matrix: (Units=GPa)
#
#
# Indices 1 2 3 4 5 6 
#
# 1 78.2223 59.7413 56.3447 0.0000 0.0000 0.0000
# 2 59.7413 125.2963 70.0539 0.0000 0.0000 0.0000
# 3 56.3447 70.0539 97.9224 0.0000 0.0000 0.0000
# 4 0.0000 0.0000 0.0000 30.9745 0.0000 0.0000
# 5 0.0000 0.0000 0.0000 0.0000 23.7677 0.0000
# 6 0.0000 0.0000 0.0000 0.0000 0.0000 28.7695
#
#
#
# Elastic Compliance Matrix: (Units=1/GPa)
#
#
# Indices 1 2 3 4 5 6 
#
# 1 0.024523 -0.006339 -0.009576 0.000000 0.000000 0.000000
# 2 -0.006339 0.014940 -0.007041 0.000000 0.000000 0.000000
# 3 -0.009576 -0.007041 0.020759 0.000000 0.000000 0.000000
# 4 0.000000 0.000000 0.000000 0.032285 0.000000 0.000000
# 5 0.000000 0.000000 0.000000 0.000000 0.042074 0.000000
# 6 0.000000 0.000000 0.000000 0.000000 0.000000 0.034759
#
#
# Mechanical properties :
#
#
# Convention : Reuss Voigt Hill
#
# Bulk Modulus (GPa) = 69.87450 74.85786 72.36618
# Shear Modulus (GPa) = 22.72526 24.38909 23.55718
#
# Velocity S-wave (km/s) = 3.55248 3.68023 3.61692
# Velocity P-wave (km/s) = 7.45859 7.72205 7.59146
#
# Compressibility (1/GPa) = 0.01431137
#
# Stress axis : x y z
#
# Youngs Moduli (GPa) = 40.77879 66.93512 48.17177
#
# Poissons Ratio (x) = 0.42427 0.46128
# Poissons Ratio (y) = 0.25848 0.33917
# Poissons Ratio (z) = 0.39049 0.47128
#
# Static dielectric constant tensor:
#      x y z
#    x 3.349420 0.000000 0.000000 
#    y 0.000000 3.230950 0.000000 
#    z 0.000000 0.000000 3.501190 
# 
# 
# High freq. dielectric constant tensor:
#      x y z
#    x 1.697250 0.000000 0.000000 
#    y 0.000000 1.681860 0.000000 
#    z 0.000000 0.000000 1.708430 
# 
# From -- ./inp_files/76516.got.cif
#   From: 2010.03.12/outbox.cif.g09.slc.cpg/sg65_39_cif.got.tgz:76516.got - 2010.04.10 20:52:16.
