data_PCOD8272931
_publ_section_title
;
Structure prediction by ZEFSAII (Michael W. Deem and Ramdas Pophale) SiO2 
 PCOD8272931
Probable space group: C M M M
;
_chemical_formula_sum "Si O2"
_cell_formula_units_Z 72
_cell_length_a 15.899772
_cell_length_b 8.847555
_cell_length_c 24.594334
_cell_angle_alpha 90.000000
_cell_angle_beta 90.000000
_cell_angle_gamma 90.000000
_cell_volume 3459.785979
_symmetry_space_group_name_H-M "C M M M"
_symmetry_group_IT_number 65
_symmetry_cell_setting 'orthorhombic'
loop_
_space_group_symop_operation_xyz
x,y,z
-x,-y,z
x,-y,-z
-x,y,-z
-x,-y,-z
x,y,-z
-x,y,z
x,-y,z
1/2+x,1/2+y,z
1/2-x,1/2-y,z
1/2+x,1/2-y,-z
1/2-x,1/2+y,-z
1/2-x,1/2-y,-z
1/2+x,1/2+y,-z
1/2-x,1/2+y,z
1/2+x,1/2-y,z
loop_
_atom_site_type_symbol
_atom_site_label
_atom_site_fract_x
_atom_site_fract_y
_atom_site_fract_z
Si Si1 0.902389 0.677959 0.723217
Si Si2 0.662091 0.676505 0.940177
Si Si3 0.662319 0.679535 0.618599
Si Si4 0.500000 0.173626 0.435709
Si Si5 0.403932 0.162932 0.158451
O O1 0.888203 0.500000 0.713220
O O2 0.847441 0.775669 0.681754
O O3 0.867991 0.723191 0.783915
O O4 0.000000 0.721127 0.714475
O O5 0.673077 0.500000 0.940944
O O6 0.750000 0.750000 0.925379
O O7 0.600305 0.722153 0.891860
O O8 0.629918 0.731637 0.000000
O O9 0.665129 0.500000 0.611737
O O10 0.750000 0.750000 0.596472
O O11 0.583940 0.745295 0.585236
O O12 0.500000 0.182636 0.500000
O O13 0.500000 0.000000 0.415022
O O14 0.500000 0.133542 0.171900
O O15 0.362632 0.000000 0.142608
#
# Coordination Sequence:
#
# PCOD8272931 Si02
#       5
#    16  16  16   8  16
#     4   9  18  36  61  86 120 160 199 249 308 368
#     4  10  21  36  53  73 101 141 187 239 297 356
#     4  12  25  41  66  99 133 173 219 264 315 376
#     4  11  25  47  73  99 133 175 214 263 322 371
#     4   9  19  35  56  83 112 148 189 235 293 354
#
# _framework density 20.810535000000002
#
# number of rings (size 3 to 8) (size 9 to 14) (size 15 to 20)
#    0.000    1.889    1.111    4.333    0.000    5.333 
#    0.000    4.444    0.000    0.000    0.000    0.000 
#    0.000    0.000    0.000    0.000    0.000    0.000 
#
# Total GULP energy -446186.814003 kJ/mol
# GULP energy per Si atom -12394.078167 kJ/mol
# Density = 2.076317 g / cm^3
# Si number density = 20.810535 Si / 1000 Ang^3
#
#
#
# Elastic Constant Matrix: (Units=GPa)
#
#
# Indices 1 2 3 4 5 6 
#
# 1 101.0019 49.0468 39.9706 0.0000 0.0000 0.0000
# 2 49.0468 120.4523 48.7027 0.0000 0.0000 0.0000
# 3 39.9706 48.7027 116.4217 0.0000 0.0000 0.0000
# 4 0.0000 0.0000 0.0000 30.3540 0.0000 0.0000
# 5 0.0000 0.0000 0.0000 0.0000 13.6800 0.0000
# 6 0.0000 0.0000 0.0000 0.0000 0.0000 32.2808
#
#
#
# Elastic Compliance Matrix: (Units=1/GPa)
#
#
# Indices 1 2 3 4 5 6 
#
# 1 0.013014 -0.004204 -0.002710 0.000000 0.000000 0.000000
# 2 -0.004204 0.011350 -0.003305 0.000000 0.000000 0.000000
# 3 -0.002710 -0.003305 0.010902 0.000000 0.000000 0.000000
# 4 0.000000 0.000000 0.000000 0.032945 0.000000 0.000000
# 5 0.000000 0.000000 0.000000 0.000000 0.073100 0.000000
# 6 0.000000 0.000000 0.000000 0.000000 0.000000 0.030978
#
#
# Mechanical properties :
#
#
# Convention : Reuss Voigt Hill
#
# Bulk Modulus (GPa) = 67.42933 68.14623 67.78778
# Shear Modulus (GPa) = 25.29480 28.60665 26.95072
#
# Velocity S-wave (km/s) = 3.49016 3.71161 3.60259
# Velocity P-wave (km/s) = 6.97950 7.15438 7.06748
#
# Compressibility (1/GPa) = 0.01483034
#
# Stress axis : x y z
#
# Youngs Moduli (GPa) = 76.83747 88.10575 91.72410
#
# Poissons Ratio (x) = 0.37037 0.24854
# Poissons Ratio (y) = 0.32301 0.30313
# Poissons Ratio (z) = 0.20820 0.29117
#
# Static dielectric constant tensor:
#      x y z
#    x 3.574210 0.000000 0.000000 
#    y 0.000000 2.785510 0.000000 
#    z 0.000000 0.000000 3.980370 
# 
# 
# High freq. dielectric constant tensor:
#      x y z
#    x 1.799300 0.000000 0.000000 
#    y 0.000000 1.810410 0.000000 
#    z 0.000000 0.000000 1.828170 
# 
# From -- ./inp_files/72492.got.cif
#   From: 2010.03.12/outbox.cif.g09.slc.cpg/sg65_37_cif.got.tgz:72492.got - 2010.04.10 20:52:16.
