data_PCOD8272750
_publ_section_title
;
Structure prediction by ZEFSAII (Michael W. Deem and Ramdas Pophale) SiO2 
 PCOD8272750
Probable space group: C M M M
;
_chemical_formula_sum "Si O2"
_cell_formula_units_Z 88
_cell_length_a 17.573991
_cell_length_b 13.246627
_cell_length_c 18.266814
_cell_angle_alpha 90.000000
_cell_angle_beta 90.000000
_cell_angle_gamma 90.000000
_cell_volume 4252.443126
_symmetry_space_group_name_H-M "C M M M"
_symmetry_group_IT_number 65
_symmetry_cell_setting 'orthorhombic'
loop_
_space_group_symop_operation_xyz
x,y,z
-x,-y,z
x,-y,-z
-x,y,-z
-x,-y,-z
x,y,-z
-x,y,z
x,-y,z
1/2+x,1/2+y,z
1/2-x,1/2-y,z
1/2+x,1/2-y,-z
1/2-x,1/2+y,-z
1/2-x,1/2-y,-z
1/2+x,1/2+y,-z
1/2-x,1/2+y,z
1/2+x,1/2-y,z
loop_
_atom_site_type_symbol
_atom_site_label
_atom_site_fract_x
_atom_site_fract_y
_atom_site_fract_z
Si Si1 0.590133 0.112110 0.080839
Si Si2 0.639989 0.119846 0.341412
Si Si3 0.192212 0.119264 0.705522
Si Si4 0.584637 0.619159 0.419687
Si Si5 0.413725 0.243892 0.785152
Si Si6 0.587354 0.880222 0.500000
O O1 0.500000 0.105879 0.085010
O O2 0.619313 0.186764 0.143613
O O3 0.623898 0.000000 0.094969
O O4 0.615616 0.150468 0.000000
O O5 0.721733 0.154069 0.308400
O O6 0.580869 0.168578 0.284686
O O7 0.626584 0.160496 0.424710
O O8 0.630254 0.000000 0.340643
O O9 0.145465 0.163777 0.636215
O O10 0.148732 0.167131 0.774940
O O11 0.186126 0.000000 0.712893
O O12 0.596125 0.669678 0.500000
O O13 0.500000 0.641996 0.389869
O O14 0.596964 0.500000 0.427610
O O15 0.500000 0.285521 0.797904
O O16 0.500000 0.845344 0.500000
O O17 0.594580 0.000000 0.500000
#
# Coordination Sequence:
#
# PCOD8272750 Si02
#       6
#    16  16  16  16  16   8
#     4   8  15  30  55  87 116 139 171 222 279 329
#     4  10  21  36  55  77 105 143 182 228 279 334
#     4  10  21  35  51  73 106 147 188 226 268 325
#     4   8  14  26  45  66  89 123 173 231 275 304
#     4  11  21  34  55  82 111 141 177 224 276 330
#     4   9  18  34  55  78 106 140 183 235 292 346
#
# _framework density 20.693985999999999
#
# number of rings (size 3 to 8) (size 9 to 14) (size 15 to 20)
#    0.000    2.636    0.000    3.273    1.273    2.909 
#    1.636    0.909    0.000    2.727    0.000    5.091 
#    0.000    0.000    0.000    0.000    0.000    0.000 
#
# Total GULP energy -545379.178451 kJ/mol
# GULP energy per Si atom -12394.981328 kJ/mol
# Density = 2.064689 g / cm^3
# Si number density = 20.693986 Si / 1000 Ang^3
#
#
#
# Elastic Constant Matrix: (Units=GPa)
#
#
# Indices 1 2 3 4 5 6 
#
# 1 91.5956 24.2787 34.9884 0.0000 0.0000 0.0000
# 2 24.2787 32.6693 44.5588 0.0000 0.0000 0.0000
# 3 34.9884 44.5588 135.2898 0.0000 0.0000 0.0000
# 4 0.0000 0.0000 0.0000 38.0809 0.0000 0.0000
# 5 0.0000 0.0000 0.0000 0.0000 13.5954 0.0000
# 6 0.0000 0.0000 0.0000 0.0000 0.0000 25.0722
#
#
#
# Elastic Compliance Matrix: (Units=1/GPa)
#
#
# Indices 1 2 3 4 5 6 
#
# 1 0.013604 -0.009644 -0.000342 0.000000 0.000000 0.000000
# 2 -0.009644 0.062412 -0.018062 0.000000 0.000000 0.000000
# 3 -0.000342 -0.018062 0.013429 0.000000 0.000000 0.000000
# 4 0.000000 0.000000 0.000000 0.026260 0.000000 0.000000
# 5 0.000000 0.000000 0.000000 0.000000 0.073554 0.000000
# 6 0.000000 0.000000 0.000000 0.000000 0.000000 0.039885
#
#
# Mechanical properties :
#
#
# Convention : Reuss Voigt Hill
#
# Bulk Modulus (GPa) = 29.98517 51.91183 40.94850
# Shear Modulus (GPa) = 16.87157 25.73161 21.30159
#
# Velocity S-wave (km/s) = 2.85842 3.53006 3.21185
# Velocity P-wave (km/s) = 5.04137 6.46181 5.79527
#
# Compressibility (1/GPa) = 0.03334982
#
# Stress axis : x y z
#
# Youngs Moduli (GPa) = 73.50533 16.02255 74.46654
#
# Poissons Ratio (x) = 0.15452 0.02547
# Poissons Ratio (y) = 0.70887 1.34501
# Poissons Ratio (z) = 0.02515 0.28940
#
# Static dielectric constant tensor:
#      x y z
#    x 3.570660 0.000000 0.000000 
#    y 0.000000 3.822150 0.000000 
#    z 0.000000 0.000000 4.016070 
# 
# 
# High freq. dielectric constant tensor:
#      x y z
#    x 1.788980 0.000000 0.000000 
#    y 0.000000 1.822760 0.000000 
#    z 0.000000 0.000000 1.791770 
# 
# From -- ./inp_files/54341.got.cif
#   From: 2010.03.12/outbox.cif.g09.slc.cpg/sg65_28_cif.got.tgz:54341.got - 2010.04.10 20:52:16.
