data_PCOD8272783
_publ_section_title
;
Structure prediction by ZEFSAII (Michael W. Deem and Ramdas Pophale) SiO2 
 PCOD8272783
Probable space group: C M M M
;
_chemical_formula_sum "Si O2"
_cell_formula_units_Z 104
_cell_length_a 27.469346
_cell_length_b 8.979449
_cell_length_c 23.212114
_cell_angle_alpha 90.000000
_cell_angle_beta 90.000000
_cell_angle_gamma 90.000000
_cell_volume 5725.490556
_symmetry_space_group_name_H-M "C M M M"
_symmetry_group_IT_number 65
_symmetry_cell_setting 'orthorhombic'
loop_
_space_group_symop_operation_xyz
x,y,z
-x,-y,z
x,-y,-z
-x,y,-z
-x,-y,-z
x,y,-z
-x,y,z
x,-y,z
1/2+x,1/2+y,z
1/2-x,1/2-y,z
1/2+x,1/2-y,-z
1/2-x,1/2+y,-z
1/2-x,1/2-y,-z
1/2+x,1/2+y,-z
1/2-x,1/2+y,z
1/2+x,1/2-y,z
loop_
_atom_site_type_symbol
_atom_site_label
_atom_site_fract_x
_atom_site_fract_y
_atom_site_fract_z
Si Si1 0.877409 0.174535 0.408730
Si Si2 0.442826 0.173226 0.500000
Si Si3 0.885083 0.168825 0.889682
Si Si4 0.943916 0.822411 0.000000
Si Si5 0.197406 0.323792 0.179829
Si Si6 0.700458 0.330781 0.500000
Si Si7 0.555653 0.666745 0.776865
Si Si8 0.633689 0.172482 0.711315
O O1 0.922288 0.254666 0.440943
O O2 0.829218 0.212993 0.443697
O O3 0.863584 0.231085 0.345868
O O4 0.889595 0.000000 0.407507
O O5 0.500000 0.200930 0.500000
O O6 0.429251 0.000000 0.500000
O O7 0.912451 0.235400 0.945518
O O8 0.838101 0.265077 0.870807
O O9 0.926464 0.172773 0.841808
O O10 0.866832 0.000000 0.900621
O O11 0.000000 0.760217 0.000000
O O12 0.946796 0.000000 0.000000
O O13 0.202232 0.500000 0.173001
O O14 0.250000 0.250000 0.173341
O O15 0.175719 0.281658 0.242896
O O16 0.714329 0.500000 0.500000
O O17 0.750000 0.250000 0.500000
O O18 0.500000 0.711396 0.776026
O O19 0.564418 0.500000 0.751552
O O20 0.581786 0.791445 0.739080
O O21 0.636844 0.000000 0.695273
#
# Coordination Sequence:
#
# PCOD8272783 Si02
#       8
#    16   8  16   8  16   8  16  16
#     4  10  21  37  55  77 105 135 170 210 252 305
#     4  10  21  37  57  79 104 138 178 218 262 309
#     4   9  17  31  52  78 108 139 174 216 259 307
#     4   9  16  28  52  85 114 141 176 217 260 309
#     4  10  21  37  56  77 103 137 177 220 267 317
#     4   9  20  36  54  76  99 126 158 194 241 294
#     4   9  17  30  49  73 102 137 172 206 249 301
#     4  10  21  35  52  76 103 132 168 212 260 307
#
# _framework density 18.164382
#
# number of rings (size 3 to 8) (size 9 to 14) (size 15 to 20)
#    0.000    2.462    0.000    2.538    0.000    7.692 
#    0.000    3.846    0.000    1.846    0.000    0.000 
#    0.000    0.000    0.000    0.000    0.000    0.000 
#
# Total GULP energy -644607.845557 kJ/mol
# GULP energy per Si atom -12396.304722 kJ/mol
# Density = 1.812304 g / cm^3
# Si number density = 18.164382 Si / 1000 Ang^3
#
#
#
# Elastic Constant Matrix: (Units=GPa)
#
#
# Indices 1 2 3 4 5 6 
#
# 1 148.8408 60.3957 67.0294 0.0000 0.0000 0.0000
# 2 60.3957 76.3051 49.1936 0.0000 0.0000 0.0000
# 3 67.0294 49.1936 125.4031 0.0000 0.0000 0.0000
# 4 0.0000 0.0000 0.0000 19.4946 0.0000 0.0000
# 5 0.0000 0.0000 0.0000 0.0000 13.6453 0.0000
# 6 0.0000 0.0000 0.0000 0.0000 0.0000 28.4896
#
#
#
# Elastic Compliance Matrix: (Units=1/GPa)
#
#
# Indices 1 2 3 4 5 6 
#
# 1 0.010798 -0.006459 -0.003238 0.000000 0.000000 0.000000
# 2 -0.006459 0.021405 -0.004945 0.000000 0.000000 0.000000
# 3 -0.003238 -0.004945 0.011645 0.000000 0.000000 0.000000
# 4 0.000000 0.000000 0.000000 0.051296 0.000000 0.000000
# 5 0.000000 0.000000 0.000000 0.000000 0.073285 0.000000
# 6 0.000000 0.000000 0.000000 0.000000 0.000000 0.035101
#
#
# Mechanical properties :
#
#
# Convention : Reuss Voigt Hill
#
# Bulk Modulus (GPa) = 68.65780 78.19850 73.42815
# Shear Modulus (GPa) = 21.03784 23.92124 22.47954
#
# Velocity S-wave (km/s) = 3.40691 3.63289 3.52172
# Velocity P-wave (km/s) = 7.30453 7.79366 7.55306
#
# Compressibility (1/GPa) = 0.01456499
#
# Stress axis : x y z
#
# Youngs Moduli (GPa) = 92.61384 46.71734 85.87728
#
# Poissons Ratio (x) = 0.30175 0.27804
# Poissons Ratio (y) = 0.59819 0.42463
# Poissons Ratio (z) = 0.29985 0.23100
#
# Static dielectric constant tensor:
#      x y z
#    x 3.320410 0.000000 0.000000 
#    y 0.000000 3.367200 0.000000 
#    z 0.000000 0.000000 3.423010 
# 
# 
# High freq. dielectric constant tensor:
#      x y z
#    x 1.704810 0.000000 0.000000 
#    y 0.000000 1.699740 0.000000 
#    z 0.000000 0.000000 1.704260 
# 
# From -- ./inp_files/71932.got.cif
#   From: 2010.03.12/outbox.cif.g09.slc.cpg/sg65_36_cif.got.tgz:71932.got - 2010.04.10 20:52:16.
