data_PCOD8272674
_publ_section_title
;
Structure prediction by ZEFSAII (Michael W. Deem and Ramdas Pophale) SiO2 
 PCOD8272674
Probable space group: C M M M
;
_chemical_formula_sum "Si O2"
_cell_formula_units_Z 72
_cell_length_a 18.791358
_cell_length_b 9.437661
_cell_length_c 22.780050
_cell_angle_alpha 90.000000
_cell_angle_beta 90.000000
_cell_angle_gamma 90.000000
_cell_volume 4039.961375
_symmetry_space_group_name_H-M "C M M M"
_symmetry_group_IT_number 65
_symmetry_cell_setting 'orthorhombic'
loop_
_space_group_symop_operation_xyz
x,y,z
-x,-y,z
x,-y,-z
-x,y,-z
-x,-y,-z
x,y,-z
-x,y,z
x,-y,z
1/2+x,1/2+y,z
1/2-x,1/2-y,z
1/2+x,1/2-y,-z
1/2-x,1/2+y,-z
1/2-x,1/2-y,-z
1/2+x,1/2+y,-z
1/2-x,1/2+y,z
1/2+x,1/2-y,z
loop_
_atom_site_type_symbol
_atom_site_label
_atom_site_fract_x
_atom_site_fract_y
_atom_site_fract_z
Si Si1 0.083945 0.338436 0.150484
Si Si2 0.180090 0.835802 0.931837
Si Si3 0.081530 0.834098 0.610096
Si Si4 0.676339 0.332754 0.500000
Si Si5 0.915515 0.657323 0.280932
O O1 0.106367 0.500000 0.135152
O O2 0.115216 0.227638 0.104612
O O3 0.111628 0.298578 0.216066
O O4 0.000000 0.322698 0.146850
O O5 0.250000 0.750000 0.913749
O O6 0.191252 0.000000 0.915991
O O7 0.161941 0.815203 0.000000
O O8 0.130488 0.786180 0.556246
O O9 0.112928 0.762608 0.668988
O O10 0.000000 0.787122 0.597253
O O11 0.085486 0.000000 0.620381
O O12 0.691497 0.500000 0.500000
O O13 0.750000 0.250000 0.500000
O O14 0.887919 0.500000 0.296250
O O15 0.000000 0.659540 0.279769
#
# Coordination Sequence:
#
# PCOD8272674 Si02
#       5
#    16  16  16   8  16
#     4   9  18  33  53  77 105 135 165 201 248 298
#     4  10  21  36  53  73  99 132 170 211 252 296
#     4   9  17  31  52  74  95 124 163 202 239 283
#     4  10  21  35  49  69  99 130 160 198 244 290
#     4   8  15  29  49  74 102 128 157 197 242 287
#
# _framework density 17.821953000000001
#
# number of rings (size 3 to 8) (size 9 to 14) (size 15 to 20)
#    0.000    2.889    0.000    2.333    0.000    5.333 
#    0.000    5.556    0.000    6.000    0.000    0.000 
#    0.000    0.000    0.000    0.000    0.000    0.000 
#
# Total GULP energy -446306.783347 kJ/mol
# GULP energy per Si atom -12397.410649 kJ/mol
# Density = 1.778139 g / cm^3
# Si number density = 17.821953 Si / 1000 Ang^3
#
#
#
# Elastic Constant Matrix: (Units=GPa)
#
#
# Indices 1 2 3 4 5 6 
#
# 1 59.9741 46.0218 49.8769 0.0000 0.0000 0.0000
# 2 46.0218 91.6822 69.5499 0.0000 0.0000 0.0000
# 3 49.8769 69.5499 114.9536 0.0000 0.0000 0.0000
# 4 0.0000 0.0000 0.0000 37.5420 0.0000 0.0000
# 5 0.0000 0.0000 0.0000 0.0000 3.9097 0.0000
# 6 0.0000 0.0000 0.0000 0.0000 0.0000 29.9459
#
#
#
# Elastic Compliance Matrix: (Units=1/GPa)
#
#
# Indices 1 2 3 4 5 6 
#
# 1 0.030056 -0.009601 -0.007232 0.000000 0.000000 0.000000
# 2 -0.009601 0.023227 -0.009887 0.000000 0.000000 0.000000
# 3 -0.007232 -0.009887 0.017819 0.000000 0.000000 0.000000
# 4 0.000000 0.000000 0.000000 0.026637 0.000000 0.000000
# 5 0.000000 0.000000 0.000000 0.000000 0.255776 0.000000
# 6 0.000000 0.000000 0.000000 0.000000 0.000000 0.033394
#
#
# Mechanical properties :
#
#
# Convention : Reuss Voigt Hill
#
# Bulk Modulus (GPa) = 56.62029 66.38966 61.50498
# Shear Modulus (GPa) = 11.20486 21.02361 16.11423
#
# Velocity S-wave (km/s) = 2.51013 3.43832 3.01022
# Velocity P-wave (km/s) = 6.34350 7.28665 6.83137
#
# Compressibility (1/GPa) = 0.01766151
#
# Stress axis : x y z
#
# Youngs Moduli (GPa) = 33.27165 43.05322 56.11967
#
# Poissons Ratio (x) = 0.41335 0.40586
# Poissons Ratio (y) = 0.31944 0.55487
# Poissons Ratio (z) = 0.24062 0.42568
#
# Static dielectric constant tensor:
#      x y z
#    x 3.008310 0.000000 0.000000 
#    y 0.000000 3.364240 0.000000 
#    z 0.000000 0.000000 3.540660 
# 
# 
# High freq. dielectric constant tensor:
#      x y z
#    x 1.660690 0.000000 0.000000 
#    y 0.000000 1.689000 0.000000 
#    z 0.000000 0.000000 1.700050 
# 
# From -- ./inp_files/54100.got.cif
#   From: 2010.03.12/outbox.cif.g09.slc.cpg/sg65_28_cif.got.tgz:54100.got - 2010.04.10 20:52:16.
