data_PCOD8272454
_publ_section_title
;
Structure prediction by ZEFSAII (Michael W. Deem and Ramdas Pophale) SiO2 
 PCOD8272454
Probable space group: C M M M
;
_chemical_formula_sum "Si O2"
_cell_formula_units_Z 64
_cell_length_a 30.640479
_cell_length_b 11.935078
_cell_length_c 8.854225
_cell_angle_alpha 90.000000
_cell_angle_beta 90.000000
_cell_angle_gamma 90.000000
_cell_volume 3237.959153
_symmetry_space_group_name_H-M "C M M M"
_symmetry_group_IT_number 65
_symmetry_cell_setting 'orthorhombic'
loop_
_space_group_symop_operation_xyz
x,y,z
-x,-y,z
x,-y,-z
-x,y,-z
-x,-y,-z
x,y,-z
-x,y,z
x,-y,z
1/2+x,1/2+y,z
1/2-x,1/2-y,z
1/2+x,1/2-y,-z
1/2-x,1/2+y,-z
1/2-x,1/2-y,-z
1/2+x,1/2+y,-z
1/2-x,1/2+y,z
1/2+x,1/2-y,z
loop_
_atom_site_type_symbol
_atom_site_label
_atom_site_fract_x
_atom_site_fract_y
_atom_site_fract_z
Si Si1 0.339843 0.500000 0.829644
Si Si2 0.875698 0.629337 0.322567
Si Si3 0.070476 0.000000 0.323061
Si Si4 0.548881 0.270875 0.173069
Si Si5 0.299017 0.263496 0.174335
O O1 0.378158 0.500000 0.708480
O O2 0.310246 0.607291 0.801602
O O3 0.359241 0.500000 0.000000
O O4 0.880031 0.645651 0.500000
O O5 0.874914 0.500000 0.274913
O O6 0.917690 0.685588 0.247917
O O7 0.831000 0.685362 0.269217
O O8 0.048688 0.109283 0.252854
O O9 0.061798 0.000000 0.500000
O O10 0.500000 0.220631 0.185531
O O11 0.563170 0.287693 0.000000
O O12 0.250000 0.250000 0.235613
O O13 0.302530 0.226926 0.000000
#
# Coordination Sequence:
#
# PCOD8272454 Si02
#       5
#     8  16   8  16  16
#     4  10  20  37  61  92 128 161 203 255 302 355
#     4  11  25  43  62  89 125 163 204 255 312 370
#     4  12  23  37  62  95 130 164 200 247 309 369
#     4  11  24  42  65  92 122 160 207 256 305 364
#     4  10  22  39  64  94 124 162 207 255 305 363
#
# _framework density 19.765537999999999
#
# number of rings (size 3 to 8) (size 9 to 14) (size 15 to 20)
#    0.000    1.250    2.500    3.000    1.750    6.500 
#    0.000    2.500    0.000    0.000    0.000    0.000 
#    0.000    0.000    0.000    0.000    0.000    0.000 
#
# Total GULP energy -396950.222896 kJ/mol
# GULP energy per Si atom -12404.694466 kJ/mol
# Density = 1.972055 g / cm^3
# Si number density = 19.765538 Si / 1000 Ang^3
#
#
#
# Elastic Constant Matrix: (Units=GPa)
#
#
# Indices 1 2 3 4 5 6 
#
# 1 154.7648 72.4828 55.4643 0.0000 0.0000 0.0000
# 2 72.4828 152.0475 74.0607 0.0000 0.0000 0.0000
# 3 55.4643 74.0607 112.3374 0.0000 0.0000 0.0000
# 4 0.0000 0.0000 0.0000 -7.3363 0.0000 0.0000
# 5 0.0000 0.0000 0.0000 0.0000 -21.9410 0.0000
# 6 0.0000 0.0000 0.0000 0.0000 0.0000 26.6860
#
#
#
# Elastic Compliance Matrix: (Units=1/GPa)
#
#
# Indices 1 2 3 4 5 6 
#
# 1 0.008705 -0.003029 -0.002301 0.000000 0.000000 0.000000
# 2 -0.003029 0.010742 -0.005586 0.000000 0.000000 0.000000
# 3 -0.002301 -0.005586 0.013721 0.000000 0.000000 0.000000
# 4 0.000000 0.000000 0.000000 -0.136309 0.000000 0.000000
# 5 0.000000 0.000000 0.000000 0.000000 -0.045577 0.000000
# 6 0.000000 0.000000 0.000000 0.000000 0.000000 0.037473
#
#
# Mechanical properties :
#
#
# Convention : Reuss Voigt Hill
#
# Bulk Modulus (GPa) = 88.22271 91.46280 89.84275
# Shear Modulus (GPa) = -58.38691 13.95787 -22.21452
#
# Velocity S-wave (km/s) = -5.44094 2.66027 -3.35610
# Velocity P-wave (km/s) = 2.29340 7.47064 5.52585
#
# Compressibility (1/GPa) = 0.01133495
#
# Stress axis : x y z
#
# Youngs Moduli (GPa) = 114.88291 93.09423 72.88272
#
# Poissons Ratio (x) = 0.28196 0.16769
# Poissons Ratio (y) = 0.34796 0.40715
# Poissons Ratio (z) = 0.26433 0.52006
#
# Static dielectric constant tensor:
#      x y z
#    x 3.697800 0.000000 0.000000 
#    y 0.000000 3.683240 0.000000 
#    z 0.000000 0.000000 3.657240 
# 
# 
# High freq. dielectric constant tensor:
#      x y z
#    x 1.785210 0.000000 0.000000 
#    y 0.000000 1.776090 0.000000 
#    z 0.000000 0.000000 1.773570 
# 
# From -- ./inp_files/4902.got.cif
#   From: 2010.03.12/outbox.cif.g09.slc.cpg/sg65_3_cif.got.tgz:4902.got - 2010.04.10 20:52:16.
