data_PCOD8272811
_publ_section_title
;
Structure prediction by ZEFSAII (Michael W. Deem and Ramdas Pophale) SiO2 
 PCOD8272811
Probable space group: C M M M
;
_chemical_formula_sum "Si O2"
_cell_formula_units_Z 56
_cell_length_a 31.858894
_cell_length_b 12.910422
_cell_length_c 7.587676
_cell_angle_alpha 90.000000
_cell_angle_beta 90.000000
_cell_angle_gamma 90.000000
_cell_volume 3120.900415
_symmetry_space_group_name_H-M "C M M M"
_symmetry_group_IT_number 65
_symmetry_cell_setting 'orthorhombic'
loop_
_space_group_symop_operation_xyz
x,y,z
-x,-y,z
x,-y,-z
-x,y,-z
-x,-y,-z
x,y,-z
-x,y,z
x,-y,z
1/2+x,1/2+y,z
1/2-x,1/2-y,z
1/2+x,1/2-y,-z
1/2-x,1/2+y,-z
1/2-x,1/2-y,-z
1/2+x,1/2+y,-z
1/2-x,1/2+y,z
1/2+x,1/2-y,z
loop_
_atom_site_type_symbol
_atom_site_label
_atom_site_fract_x
_atom_site_fract_y
_atom_site_fract_z
Si Si1 0.000000 0.381874 0.291066
Si Si2 0.700644 0.242553 0.000000
Si Si3 0.336557 0.883498 0.696783
Si Si4 0.418520 0.758868 0.299245
Si Si5 0.379459 0.376706 0.000000
O O1 0.039796 0.314858 0.226378
O O2 0.000000 0.500000 0.213070
O O3 0.000000 0.390670 0.500000
O O4 0.750000 0.250000 0.000000
O O5 0.692420 0.182127 0.178054
O O6 0.670060 0.343740 0.000000
O O7 0.318450 0.871629 0.500000
O O8 0.384492 0.849146 0.705359
O O9 0.334982 0.000000 0.763901
O O10 0.424240 0.716128 0.500000
O O11 0.403826 0.665234 0.172932
O O12 0.381599 0.500000 0.000000
#
# Coordination Sequence:
#
# PCOD8272811 Si02
#       5
#     8   8  16  16   8
#     4   9  16  29  53  82 109 135 164 206 260 308
#     4  10  21  35  53  75  99 125 162 212 256 298
#     4   9  17  31  52  76 102 130 156 190 247 313
#     4   9  18  33  52  76 105 134 167 207 249 296
#     4  10  22  38  53  70  97 138 180 211 246 294
#
# _framework density 17.943539000000001
#
# number of rings (size 3 to 8) (size 9 to 14) (size 15 to 20)
#    0.000    2.714    0.000    1.286    0.000    6.286 
#    0.000    4.286    0.000    2.571    0.000    0.000 
#    0.000    0.000    0.000    0.000    0.000    0.000 
#
# Total GULP energy -346987.482831 kJ/mol
# GULP energy per Si atom -12392.410101 kJ/mol
# Density = 1.790270 g / cm^3
# Si number density = 17.943539 Si / 1000 Ang^3
#
#
#
# Elastic Constant Matrix: (Units=GPa)
#
#
# Indices 1 2 3 4 5 6 
#
# 1 140.4350 62.7079 46.0458 0.0000 0.0000 0.0000
# 2 62.7079 143.0630 53.9674 0.0000 0.0000 0.0000
# 3 46.0458 53.9674 87.3072 0.0000 0.0000 0.0000
# 4 0.0000 0.0000 0.0000 20.9680 0.0000 0.0000
# 5 0.0000 0.0000 0.0000 0.0000 14.6276 0.0000
# 6 0.0000 0.0000 0.0000 0.0000 0.0000 11.2029
#
#
#
# Elastic Compliance Matrix: (Units=1/GPa)
#
#
# Indices 1 2 3 4 5 6 
#
# 1 0.009482 -0.002960 -0.003171 0.000000 0.000000 0.000000
# 2 -0.002960 0.010039 -0.004645 0.000000 0.000000 0.000000
# 3 -0.003171 -0.004645 0.015997 0.000000 0.000000 0.000000
# 4 0.000000 0.000000 0.000000 0.047692 0.000000 0.000000
# 5 0.000000 0.000000 0.000000 0.000000 0.068364 0.000000
# 6 0.000000 0.000000 0.000000 0.000000 0.000000 0.089262
#
#
# Mechanical properties :
#
#
# Convention : Reuss Voigt Hill
#
# Bulk Modulus (GPa) = 71.59595 77.36081 74.47838
# Shear Modulus (GPa) = 18.72351 23.23201 20.97776
#
# Velocity S-wave (km/s) = 3.23378 3.60214 3.42292
# Velocity P-wave (km/s) = 7.34373 7.77866 7.56432
#
# Compressibility (1/GPa) = 0.01396727
#
# Stress axis : x y z
#
# Youngs Moduli (GPa) = 105.46034 99.60720 62.51059
#
# Poissons Ratio (x) = 0.29484 0.19824
# Poissons Ratio (y) = 0.31216 0.29034
# Poissons Ratio (z) = 0.33444 0.46263
#
# Static dielectric constant tensor:
#      x y z
#    x 3.356480 0.000000 0.000000 
#    y 0.000000 3.107330 0.000000 
#    z 0.000000 0.000000 6.231940 
# 
# 
# High freq. dielectric constant tensor:
#      x y z
#    x 1.690260 0.000000 0.000000 
#    y 0.000000 1.674640 0.000000 
#    z 0.000000 0.000000 1.706050 
# 
# From -- ./inp_files/4446.got.cif
#   From: 2010.03.12/outbox.cif.g09.slc.cpg/sg65_3_cif.got.tgz:4446.got - 2010.04.10 20:52:16.
