data_PCOD8272597
_publ_section_title
;
Structure prediction by ZEFSAII (Michael W. Deem and Ramdas Pophale) SiO2 
 PCOD8272597
Probable space group: C M M M
;
_chemical_formula_sum "Si O2"
_cell_formula_units_Z 72
_cell_length_a 13.744672
_cell_length_b 18.160724
_cell_length_c 15.977632
_cell_angle_alpha 90.000000
_cell_angle_beta 90.000000
_cell_angle_gamma 90.000000
_cell_volume 3988.227767
_symmetry_space_group_name_H-M "C M M M"
_symmetry_group_IT_number 65
_symmetry_cell_setting 'orthorhombic'
loop_
_space_group_symop_operation_xyz
x,y,z
-x,-y,z
x,-y,-z
-x,y,-z
-x,-y,-z
x,y,-z
-x,y,z
x,-y,z
1/2+x,1/2+y,z
1/2-x,1/2-y,z
1/2+x,1/2-y,-z
1/2-x,1/2+y,-z
1/2-x,1/2-y,-z
1/2+x,1/2+y,-z
1/2-x,1/2+y,z
1/2+x,1/2-y,z
loop_
_atom_site_type_symbol
_atom_site_label
_atom_site_fract_x
_atom_site_fract_y
_atom_site_fract_z
Si Si1 0.608268 0.412786 0.836342
Si Si2 0.611669 0.411963 0.500000
Si Si3 0.294440 0.413746 0.667880
Si Si4 0.889564 0.585730 0.766349
Si Si5 0.721075 0.830950 0.905405
O O1 0.500000 0.384167 0.855554
O O2 0.614243 0.500000 0.841328
O O3 0.639697 0.384368 0.744295
O O4 0.681351 0.380027 0.904477
O O5 0.614712 0.500000 0.500000
O O6 0.500000 0.384582 0.500000
O O7 0.668079 0.378606 0.419063
O O8 0.309473 0.500000 0.659720
O O9 0.181303 0.394634 0.688116
O O10 0.875841 0.500000 0.791062
O O11 0.862304 0.634500 0.846896
O O12 0.000000 0.602840 0.739155
O O13 0.750000 0.750000 0.873086
O O14 0.680494 0.828427 0.000000
#
# Coordination Sequence:
#
# PCOD8272597 Si02
#       5
#    16   8  16  16  16
#     4   9  17  30  48  68  92 122 152 184 227 279
#     4   9  14  20  37  67 100 129 153 182 227 279
#     4   8  14  25  41  65  96 124 152 188 228 271
#     4   9  18  33  51  68  90 125 165 199 231 272
#     4  10  21  34  47  67  94 120 150 194 242 283
#
# _framework density 18.053132000000002
#
# number of rings (size 3 to 8) (size 9 to 14) (size 15 to 20)
#    0.000    3.000    0.000    2.667    0.000    6.222 
#    0.000    5.000    0.000    3.333    0.000   12.444 
#    0.000   14.222    0.000    0.000    0.000    0.000 
#
# Total GULP energy -446196.855937 kJ/mol
# GULP energy per Si atom -12394.357109 kJ/mol
# Density = 1.801204 g / cm^3
# Si number density = 18.053132 Si / 1000 Ang^3
#
#
#
# Elastic Constant Matrix: (Units=GPa)
#
#
# Indices 1 2 3 4 5 6 
#
# 1 136.5789 24.7618 37.2746 0.0000 0.0000 0.0000
# 2 24.7618 35.2619 22.7926 0.0000 0.0000 0.0000
# 3 37.2746 22.7926 90.9996 0.0000 0.0000 0.0000
# 4 0.0000 0.0000 0.0000 5.7958 0.0000 0.0000
# 5 0.0000 0.0000 0.0000 0.0000 20.0724 0.0000
# 6 0.0000 0.0000 0.0000 0.0000 0.0000 13.0682
#
#
#
# Elastic Compliance Matrix: (Units=1/GPa)
#
#
# Indices 1 2 3 4 5 6 
#
# 1 0.008829 -0.004609 -0.002462 0.000000 0.000000 0.000000
# 2 -0.004609 0.036243 -0.007190 0.000000 0.000000 0.000000
# 3 -0.002462 -0.007190 0.013799 0.000000 0.000000 0.000000
# 4 0.000000 0.000000 0.000000 0.172539 0.000000 0.000000
# 5 0.000000 0.000000 0.000000 0.000000 0.049820 0.000000
# 6 0.000000 0.000000 0.000000 0.000000 0.000000 0.076522
#
#
# Mechanical properties :
#
#
# Convention : Reuss Voigt Hill
#
# Bulk Modulus (GPa) = 32.94998 48.05538 40.50268
# Shear Modulus (GPa) = 12.61385 19.65471 16.13428
#
# Velocity S-wave (km/s) = 2.64617 3.30315 2.99274
# Velocity P-wave (km/s) = 5.25620 6.42062 5.86737
#
# Compressibility (1/GPa) = 0.03034903
#
# Stress axis : x y z
#
# Youngs Moduli (GPa) = 113.25911 27.59158 72.47157
#
# Poissons Ratio (x) = 0.12716 0.17845
# Poissons Ratio (y) = 0.52197 0.52107
# Poissons Ratio (z) = 0.27888 0.19838
#
# Static dielectric constant tensor:
#      x y z
#    x 3.503130 0.000000 0.000000 
#    y 0.000000 2.987260 0.000000 
#    z 0.000000 0.000000 3.407260 
# 
# 
# High freq. dielectric constant tensor:
#      x y z
#    x 1.704200 0.000000 0.000000 
#    y 0.000000 1.656500 0.000000 
#    z 0.000000 0.000000 1.688530 
# 
# From -- ./inp_files/39740.got.cif
#   From: 2010.03.12/outbox.cif.g09.slc.cpg/sg65_20_cif.got.tgz:39740.got - 2010.04.10 20:52:16.
