data_PCOD8272476
_publ_section_title
;
Structure prediction by ZEFSAII (Michael W. Deem and Ramdas Pophale) SiO2 
 PCOD8272476
Probable space group: C M M M
;
_chemical_formula_sum "Si O2"
_cell_formula_units_Z 64
_cell_length_a 23.913398
_cell_length_b 8.607140
_cell_length_c 15.426144
_cell_angle_alpha 90.000000
_cell_angle_beta 90.000000
_cell_angle_gamma 90.000000
_cell_volume 3175.100967
_symmetry_space_group_name_H-M "C M M M"
_symmetry_group_IT_number 65
_symmetry_cell_setting 'orthorhombic'
loop_
_space_group_symop_operation_xyz
x,y,z
-x,-y,z
x,-y,-z
-x,y,-z
-x,-y,-z
x,y,-z
-x,y,z
x,-y,z
1/2+x,1/2+y,z
1/2-x,1/2-y,z
1/2+x,1/2-y,-z
1/2-x,1/2+y,-z
1/2-x,1/2-y,-z
1/2+x,1/2+y,-z
1/2-x,1/2+y,z
1/2+x,1/2-y,z
loop_
_atom_site_type_symbol
_atom_site_label
_atom_site_fract_x
_atom_site_fract_y
_atom_site_fract_z
Si Si1 0.500000 0.815979 0.096412
Si Si2 0.381754 0.184291 0.834855
Si Si3 0.811602 0.683193 0.500000
Si Si4 0.500000 0.818523 0.398008
Si Si5 0.311445 0.816443 0.000000
Si Si6 0.616758 0.682573 0.654182
O O1 0.445228 0.760782 0.147602
O O2 0.500000 0.000000 0.087321
O O3 0.500000 0.743102 0.000000
O O4 0.343704 0.241801 0.914536
O O5 0.360448 0.271028 0.748898
O O6 0.377755 0.000000 0.821625
O O7 0.808576 0.500000 0.500000
O O8 0.750000 0.750000 0.500000
O O9 0.843776 0.736710 0.584973
O O10 0.500000 0.787738 0.500000
O O11 0.446258 0.741478 0.355431
O O12 0.500000 0.000000 0.375427
O O13 0.250000 0.750000 0.000000
O O14 0.309326 0.000000 0.000000
O O15 0.619496 0.500000 0.639793
#
# Coordination Sequence:
#
# PCOD8272476 Si02
#       6
#     8  16   8   8   8  16
#     4   9  15  30  60  91 117 149 198 255 311 364
#     4  10  20  37  62  91 122 159 206 256 310 371
#     4  12  26  47  70  93 122 162 212 262 314 370
#     4  11  22  39  66  95 126 168 211 254 310 373
#     4  10  22  39  61  87 119 162 210 258 304 358
#     4  12  25  41  64  96 132 167 205 256 316 375
#
# _framework density 20.156839000000002
#
# number of rings (size 3 to 8) (size 9 to 14) (size 15 to 20)
#    0.000    1.250    2.500    4.500    0.000    3.500 
#    0.000    2.500    0.000    0.750    0.000    0.000 
#    0.000    0.000    0.000    0.000    0.000    0.000 
#
# Total GULP energy -396942.783282 kJ/mol
# GULP energy per Si atom -12404.461978 kJ/mol
# Density = 2.011096 g / cm^3
# Si number density = 20.156839 Si / 1000 Ang^3
#
#
#
# Elastic Constant Matrix: (Units=GPa)
#
#
# Indices 1 2 3 4 5 6 
#
# 1 159.7089 44.3371 77.7095 0.0000 0.0000 0.0000
# 2 44.3371 107.7594 59.6602 0.0000 0.0000 0.0000
# 3 77.7095 59.6602 176.9314 0.0000 0.0000 0.0000
# 4 0.0000 0.0000 0.0000 18.4565 0.0000 0.0000
# 5 0.0000 0.0000 0.0000 0.0000 -8.7373 0.0000
# 6 0.0000 0.0000 0.0000 0.0000 0.0000 32.8198
#
#
#
# Elastic Compliance Matrix: (Units=1/GPa)
#
#
# Indices 1 2 3 4 5 6 
#
# 1 0.008208 -0.001698 -0.003033 0.000000 0.000000 0.000000
# 2 -0.001698 0.011761 -0.003220 0.000000 0.000000 0.000000
# 3 -0.003033 -0.003220 0.008070 0.000000 0.000000 0.000000
# 4 0.000000 0.000000 0.000000 0.054181 0.000000 0.000000
# 5 0.000000 0.000000 0.000000 0.000000 -0.114452 0.000000
# 6 0.000000 0.000000 0.000000 0.000000 0.000000 0.030469
#
#
# Mechanical properties :
#
#
# Convention : Reuss Voigt Hill
#
# Bulk Modulus (GPa) = 82.38779 89.75704 86.07241
# Shear Modulus (GPa) = 274.94654 26.02066 150.48360
#
# Velocity S-wave (km/s) = 11.69187 3.59682 8.64976
# Velocity P-wave (km/s) = 14.94083 7.86610 11.93951
#
# Compressibility (1/GPa) = 0.01213772
#
# Stress axis : x y z
#
# Youngs Moduli (GPa) = 121.82626 85.02369 123.92263
#
# Poissons Ratio (x) = 0.14440 0.37580
# Poissons Ratio (y) = 0.20691 0.39902
# Poissons Ratio (z) = 0.36944 0.27377
#
# Static dielectric constant tensor:
#      x y z
#    x 2.955650 0.000000 0.000000 
#    y 0.000000 3.508120 0.000000 
#    z 0.000000 0.000000 3.900340 
# 
# 
# High freq. dielectric constant tensor:
#      x y z
#    x 1.788280 0.000000 0.000000 
#    y 0.000000 1.772280 0.000000 
#    z 0.000000 0.000000 1.809370 
# 
# From -- ./inp_files/36075.got.cif
#   From: 2010.03.12/outbox.cif.g09.slc.cpg/sg65_19_cif.got.tgz:36075.got - 2010.04.10 20:52:16.
