data_PCOD8272655
_publ_section_title
;
Structure prediction by ZEFSAII (Michael W. Deem and Ramdas Pophale) SiO2 
 PCOD8272655
Probable space group: C M M M
;
_chemical_formula_sum "Si O2"
_cell_formula_units_Z 104
_cell_length_a 12.420245
_cell_length_b 30.081403
_cell_length_c 18.475289
_cell_angle_alpha 90.000000
_cell_angle_beta 90.000000
_cell_angle_gamma 90.000000
_cell_volume 6902.707827
_symmetry_space_group_name_H-M "C M M M"
_symmetry_group_IT_number 65
_symmetry_cell_setting 'orthorhombic'
loop_
_space_group_symop_operation_xyz
x,y,z
-x,-y,z
x,-y,-z
-x,y,-z
-x,-y,-z
x,y,-z
-x,y,z
x,-y,z
1/2+x,1/2+y,z
1/2-x,1/2-y,z
1/2+x,1/2-y,-z
1/2-x,1/2+y,-z
1/2-x,1/2-y,-z
1/2+x,1/2+y,-z
1/2-x,1/2+y,z
1/2+x,1/2-y,z
loop_
_atom_site_type_symbol
_atom_site_label
_atom_site_fract_x
_atom_site_fract_y
_atom_site_fract_z
Si Si1 0.803862 0.447076 0.822040
Si Si2 0.226248 0.299142 0.413748
Si Si3 0.500000 0.829391 0.581838
Si Si4 0.000000 0.446955 0.917450
Si Si5 0.500000 0.066014 0.418451
Si Si6 0.381560 0.552863 0.920290
Si Si7 0.625483 0.379949 0.414211
Si Si8 0.280548 0.050231 0.660431
O O1 0.809966 0.500000 0.822136
O O2 0.695297 0.428254 0.858255
O O3 0.806728 0.429622 0.739826
O O4 0.899243 0.428333 0.872032
O O5 0.220985 0.299843 0.500000
O O6 0.250000 0.250000 0.383890
O O7 0.318739 0.333749 0.388853
O O8 0.109745 0.312427 0.380285
O O9 0.500000 0.811400 0.500000
O O10 0.500000 0.881656 0.584473
O O11 0.000000 0.500000 0.920661
O O12 0.000000 0.428344 0.000000
O O13 0.500000 0.048249 0.500000
O O14 0.607343 0.047957 0.381682
O O15 0.500000 0.572309 0.905527
O O16 0.383879 0.500000 0.917136
O O17 0.340764 0.567611 0.000000
O O18 0.635571 0.385993 0.500000
O O19 0.500000 0.379708 0.390242
O O20 0.688893 0.420708 0.378030
O O21 0.234573 0.000000 0.665975
#
# Coordination Sequence:
#
# PCOD8272655 Si02
#       8
#    16  16   8   8   8  16  16  16
#     4   9  17  27  38  55  78 103 136 176 215 257
#     4   9  17  29  48  71  90 106 129 171 226 281
#     4   9  16  28  47  68  87 105 129 170 221 270
#     4   9  15  24  40  60  82 105 131 171 221 265
#     4  11  20  33  48  61  79 104 146 199 234 257
#     4   8  13  22  37  55  73  94 123 161 202 243
#     4  10  21  35  47  62  85 112 147 192 235 276
#     4  11  22  33  45  60  81 114 155 196 230 260
#
# _framework density 15.066552
#
# number of rings (size 3 to 8) (size 9 to 14) (size 15 to 20)
#    0.000    2.538    1.538    2.077    1.077    5.538 
#    0.000    2.308    0.000    0.000    0.000    0.000 
#    0.000    0.000    0.000    0.000    0.000    3.077 
#
# Total GULP energy -644422.130019 kJ/mol
# GULP energy per Si atom -12392.733270 kJ/mol
# Density = 1.503226 g / cm^3
# Si number density = 15.066552 Si / 1000 Ang^3
#
#
#
# Elastic Constant Matrix: (Units=GPa)
#
#
# Indices 1 2 3 4 5 6 
#
# 1 126.9356 38.1582 49.7118 0.0000 0.0000 0.0000
# 2 38.1582 59.9375 18.8667 0.0000 0.0000 0.0000
# 3 49.7118 18.8667 88.9344 0.0000 0.0000 0.0000
# 4 0.0000 0.0000 0.0000 -0.6852 0.0000 0.0000
# 5 0.0000 0.0000 0.0000 0.0000 16.1550 0.0000
# 6 0.0000 0.0000 0.0000 0.0000 0.0000 18.7932
#
#
#
# Elastic Compliance Matrix: (Units=1/GPa)
#
#
# Indices 1 2 3 4 5 6 
#
# 1 0.011694 -0.005772 -0.005312 0.000000 0.000000 0.000000
# 2 -0.005772 0.020727 -0.001170 0.000000 0.000000 0.000000
# 3 -0.005312 -0.001170 0.014462 0.000000 0.000000 0.000000
# 4 0.000000 0.000000 0.000000 -1.459378 0.000000 0.000000
# 5 0.000000 0.000000 0.000000 0.000000 0.061900 0.000000
# 6 0.000000 0.000000 0.000000 0.000000 0.000000 0.053211
#
#
# Mechanical properties :
#
#
# Convention : Reuss Voigt Hill
#
# Bulk Modulus (GPa) = 44.69644 54.36457 49.53050
# Shear Modulus (GPa) = -3.95127 18.12400 7.08637
#
# Velocity S-wave (km/s) = -1.62118 3.47209 2.17108
# Velocity P-wave (km/s) = 5.12114 7.22739 6.26344
#
# Compressibility (1/GPa) = 0.02237315
#
# Stress axis : x y z
#
# Youngs Moduli (GPa) = 85.51737 48.24519 69.14829
#
# Poissons Ratio (x) = 0.27850 0.36730
# Poissons Ratio (y) = 0.49365 0.08094
# Poissons Ratio (z) = 0.45425 0.05647
#
# Static dielectric constant tensor:
#      x y z
#    x 3.308700 0.000000 0.000000 
#    y 0.000000 2.585330 0.000000 
#    z 0.000000 0.000000 2.867650 
# 
# 
# High freq. dielectric constant tensor:
#      x y z
#    x 1.596770 0.000000 0.000000 
#    y 0.000000 1.524380 0.000000 
#    z 0.000000 0.000000 1.552920 
# 
# From -- ./inp_files/52162.got.cif
#   From: 2010.03.12/outbox.cif.g09.slc.cpg/sg65_27_cif.got.tgz:52162.got - 2010.04.10 20:52:16.
