data_PCOD8272887
_publ_section_title
;
Structure prediction by ZEFSAII (Michael W. Deem and Ramdas Pophale) SiO2 
 PCOD8272887
Probable space group: C M M M
;
_chemical_formula_sum "Si O2"
_cell_formula_units_Z 120
_cell_length_a 10.741817
_cell_length_b 27.658896
_cell_length_c 23.345500
_cell_angle_alpha 90.000000
_cell_angle_beta 90.000000
_cell_angle_gamma 90.000000
_cell_volume 6936.106782
_symmetry_space_group_name_H-M "C M M M"
_symmetry_group_IT_number 65
_symmetry_cell_setting 'orthorhombic'
loop_
_space_group_symop_operation_xyz
x,y,z
-x,-y,z
x,-y,-z
-x,y,-z
-x,-y,-z
x,y,-z
-x,y,z
x,-y,z
1/2+x,1/2+y,z
1/2-x,1/2-y,z
1/2+x,1/2-y,-z
1/2-x,1/2+y,-z
1/2-x,1/2-y,-z
1/2+x,1/2+y,-z
1/2-x,1/2+y,z
1/2+x,1/2-y,z
loop_
_atom_site_type_symbol
_atom_site_label
_atom_site_fract_x
_atom_site_fract_y
_atom_site_fract_z
Si Si1 0.356929 0.379309 0.255377
Si Si2 0.855925 0.447399 0.062596
Si Si3 0.644998 0.290475 0.337843
Si Si4 0.351374 0.445828 0.643800
Si Si5 0.297985 0.383380 0.872140
Si Si6 0.646919 0.637131 0.563431
Si Si7 0.500000 0.556951 0.934966
Si Si8 0.859323 0.213653 0.065873
O O1 0.500000 0.388075 0.240147
O O2 0.339670 0.327738 0.285786
O O3 0.306791 0.422059 0.296501
O O4 0.283651 0.381476 0.196116
O O5 0.810565 0.500000 0.086940
O O6 0.834339 0.401092 0.103975
O O7 0.000000 0.449622 0.052585
O O8 0.791540 0.439076 0.000000
O O9 0.500000 0.271326 0.339086
O O10 0.750000 0.250000 0.328285
O O11 0.679096 0.316594 0.397693
O O12 0.500000 0.446236 0.642731
O O13 0.296953 0.500000 0.637779
O O14 0.300793 0.412424 0.591791
O O15 0.382720 0.425670 0.898282
O O16 0.346398 0.332257 0.893815
O O17 0.705744 0.643632 0.500000
O O18 0.500000 0.632147 0.559157
O O19 0.500000 0.500000 0.937205
O O20 0.500000 0.578393 0.000000
O O21 0.750000 0.250000 0.084931
O O22 0.000000 0.235196 0.074506
O O23 0.839548 0.198518 0.000000
#
# Coordination Sequence:
#
# PCOD8272887 Si02
#       8
#    16  16  16  16  16  16   8  16
#     4   9  18  32  44  66  97 128 160 199 246 298
#     4   9  19  35  52  71  98 131 164 200 249 312
#     4   9  18  33  52  71  98 135 170 207 255 300
#     4   8  14  24  39  60  92 132 167 196 232 285
#     4  12  20  33  53  73  97 127 161 206 255 305
#     4   8  14  25  42  67  99 130 164 206 250 294
#     4  11  22  32  48  78 106 124 149 193 256 318
#     4  10  21  36  52  70  94 123 158 203 253 304
#
# _framework density 17.300771000000001
#
# number of rings (size 3 to 8) (size 9 to 14) (size 15 to 20)
#    0.000    2.600    1.333    3.600    0.000    3.733 
#    0.000    3.333    0.000    0.000    0.000    0.000 
#    0.000    4.800    0.000    4.800    0.000    5.333 
#
# Total GULP energy -743359.142826 kJ/mol
# GULP energy per Si atom -12389.319047 kJ/mol
# Density = 1.726139 g / cm^3
# Si number density = 17.300771 Si / 1000 Ang^3
#
#
#
# Elastic Constant Matrix: (Units=GPa)
#
#
# Indices 1 2 3 4 5 6 
#
# 1 53.0356 35.6549 23.5430 0.0000 0.0000 0.0000
# 2 35.6549 84.0817 38.0583 0.0000 0.0000 0.0000
# 3 23.5430 38.0583 123.5303 0.0000 0.0000 0.0000
# 4 0.0000 0.0000 0.0000 13.1007 0.0000 0.0000
# 5 0.0000 0.0000 0.0000 0.0000 9.1269 0.0000
# 6 0.0000 0.0000 0.0000 0.0000 0.0000 24.5805
#
#
#
# Elastic Compliance Matrix: (Units=1/GPa)
#
#
# Indices 1 2 3 4 5 6 
#
# 1 0.026738 -0.010495 -0.001862 0.000000 0.000000 0.000000
# 2 -0.010495 0.017940 -0.003527 0.000000 0.000000 0.000000
# 3 -0.001862 -0.003527 0.009537 0.000000 0.000000 0.000000
# 4 0.000000 0.000000 0.000000 0.076332 0.000000 0.000000
# 5 0.000000 0.000000 0.000000 0.000000 0.109566 0.000000
# 6 0.000000 0.000000 0.000000 0.000000 0.000000 0.040683
#
#
# Mechanical properties :
#
#
# Convention : Reuss Voigt Hill
#
# Bulk Modulus (GPa) = 44.55215 50.57334 47.56275
# Shear Modulus (GPa) = 15.62274 20.25437 17.93856
#
# Velocity S-wave (km/s) = 3.00827 3.42529 3.22353
# Velocity P-wave (km/s) = 6.15416 6.70364 6.43477
#
# Compressibility (1/GPa) = 0.02244561
#
# Stress axis : x y z
#
# Youngs Moduli (GPa) = 37.40039 55.74111 104.85790
#
# Poissons Ratio (x) = 0.58501 0.19528
# Poissons Ratio (y) = 0.39252 0.36982
# Poissons Ratio (z) = 0.06965 0.19659
#
# Static dielectric constant tensor:
#      x y z
#    x 3.120180 0.000000 0.000000 
#    y 0.000000 3.250150 0.000000 
#    z 0.000000 0.000000 3.411170 
# 
# 
# High freq. dielectric constant tensor:
#      x y z
#    x 1.628370 0.000000 0.000000 
#    y 0.000000 1.666840 0.000000 
#    z 0.000000 0.000000 1.666240 
# 
# From -- ./inp_files/69297.got.cif
#   From: 2010.03.12/outbox.cif.g09.slc.cpg/sg65_35_cif.got.tgz:69297.got - 2010.04.10 20:52:16.
