data_PCOD8272650
_publ_section_title
;
Structure prediction by ZEFSAII (Michael W. Deem and Ramdas Pophale) SiO2 
 PCOD8272650
Probable space group: C M M M
;
_chemical_formula_sum "Si O2"
_cell_formula_units_Z 96
_cell_length_a 18.130559
_cell_length_b 11.097812
_cell_length_c 25.651117
_cell_angle_alpha 90.000000
_cell_angle_beta 90.000000
_cell_angle_gamma 90.000000
_cell_volume 5161.249330
_symmetry_space_group_name_H-M "C M M M"
_symmetry_group_IT_number 65
_symmetry_cell_setting 'orthorhombic'
loop_
_space_group_symop_operation_xyz
x,y,z
-x,-y,z
x,-y,-z
-x,y,-z
-x,-y,-z
x,y,-z
-x,y,z
x,-y,z
1/2+x,1/2+y,z
1/2-x,1/2-y,z
1/2+x,1/2-y,-z
1/2-x,1/2+y,-z
1/2-x,1/2-y,-z
1/2+x,1/2+y,-z
1/2-x,1/2+y,z
1/2+x,1/2-y,z
loop_
_atom_site_type_symbol
_atom_site_label
_atom_site_fract_x
_atom_site_fract_y
_atom_site_fract_z
Si Si1 0.693484 0.140236 0.440277
Si Si2 0.419154 0.859613 0.056488
Si Si3 0.663153 0.259068 0.854912
Si Si4 0.580264 0.861057 0.646482
Si Si5 0.837686 0.242506 0.736032
Si Si6 0.916508 0.000000 0.266268
Si Si7 0.083256 0.000000 0.143235
O O1 0.667567 0.144147 0.500000
O O2 0.750000 0.250000 0.429577
O O3 0.625087 0.179338 0.404467
O O4 0.720887 0.000000 0.427600
O O5 0.500000 0.802972 0.068300
O O6 0.365424 0.838621 0.104710
O O7 0.427579 0.000000 0.050915
O O8 0.390237 0.809051 0.000000
O O9 0.750000 0.250000 0.857141
O O10 0.637473 0.232250 0.795662
O O11 0.630595 0.385553 0.875281
O O12 0.500000 0.794848 0.647806
O O13 0.625704 0.841511 0.699525
O O14 0.565059 0.000000 0.642336
O O15 0.750000 0.250000 0.729992
O O16 0.869041 0.114848 0.715549
O O17 0.922673 0.000000 0.204742
O O18 0.000000 0.000000 0.289957
O O19 0.000000 0.000000 0.119406
#
# Coordination Sequence:
#
# PCOD8272650 Si02
#       7
#    16  16  16  16  16   8   8
#     4   9  18  35  59  83 109 145 187 229 278 333
#     4   9  19  36  56  77 103 137 175 214 261 323
#     4  10  21  34  55  80 106 139 178 222 273 322
#     4  10  21  35  52  79 113 143 179 227 273 322
#     4  10  21  35  53  78 108 142 181 225 270 324
#     4   9  18  34  54  73 102 144 185 217 263 331
#     4   9  18  34  53  76 106 139 174 219 267 322
#
# _framework density 18.600148000000001
#
# number of rings (size 3 to 8) (size 9 to 14) (size 15 to 20)
#    0.000    2.500    0.000    2.000    2.333    3.333 
#    1.500    3.750    0.000    1.500    0.000    2.333 
#    0.000    0.000    0.000    0.000    0.000    0.000 
#
# Total GULP energy -594671.998718 kJ/mol
# GULP energy per Si atom -12388.999973 kJ/mol
# Density = 1.855781 g / cm^3
# Si number density = 18.600148 Si / 1000 Ang^3
#
#
#
# Elastic Constant Matrix: (Units=GPa)
#
#
# Indices 1 2 3 4 5 6 
#
# 1 119.5881 39.1841 63.7934 0.0000 0.0000 0.0000
# 2 39.1841 54.0136 29.1429 0.0000 0.0000 0.0000
# 3 63.7934 29.1429 112.6405 0.0000 0.0000 0.0000
# 4 0.0000 0.0000 0.0000 25.3008 0.0000 0.0000
# 5 0.0000 0.0000 0.0000 0.0000 54.8982 0.0000
# 6 0.0000 0.0000 0.0000 0.0000 0.0000 30.8764
#
#
#
# Elastic Compliance Matrix: (Units=1/GPa)
#
#
# Indices 1 2 3 4 5 6 
#
# 1 0.013814 -0.006741 -0.006079 0.000000 0.000000 0.000000
# 2 -0.006741 0.024807 -0.002600 0.000000 0.000000 0.000000
# 3 -0.006079 -0.002600 0.012994 0.000000 0.000000 0.000000
# 4 0.000000 0.000000 0.000000 0.039524 0.000000 0.000000
# 5 0.000000 0.000000 0.000000 0.000000 0.018216 0.000000
# 6 0.000000 0.000000 0.000000 0.000000 0.000000 0.032387
#
#
# Mechanical properties :
#
#
# Convention : Reuss Voigt Hill
#
# Bulk Modulus (GPa) = 48.13964 61.16480 54.65222
# Shear Modulus (GPa) = 27.85393 32.48985 30.17189
#
# Velocity S-wave (km/s) = 3.87397 4.18395 4.03194
# Velocity P-wave (km/s) = 6.77847 7.50307 7.14995
#
# Compressibility (1/GPa) = 0.02077290
#
# Stress axis : x y z
#
# Youngs Moduli (GPa) = 72.39154 40.31077 76.96114
#
# Poissons Ratio (x) = 0.27174 0.46787
# Poissons Ratio (y) = 0.48800 0.20013
# Poissons Ratio (z) = 0.44009 0.10483
#
# Static dielectric constant tensor:
#      x y z
#    x 3.816920 0.000000 0.000000 
#    y 0.000000 3.449860 0.000000 
#    z 0.000000 0.000000 3.433840 
# 
# 
# High freq. dielectric constant tensor:
#      x y z
#    x 1.723220 0.000000 0.000000 
#    y 0.000000 1.712200 0.000000 
#    z 0.000000 0.000000 1.717190 
# 
# From -- ./inp_files/70484.got.cif
#   From: 2010.03.12/outbox.cif.g09.slc.cpg/sg65_36_cif.got.tgz:70484.got - 2010.04.10 20:52:16.
