data_PCOD8272769
_publ_section_title
;
Structure prediction by ZEFSAII (Michael W. Deem and Ramdas Pophale) SiO2 
 PCOD8272769
Probable space group: C M M M
;
_chemical_formula_sum "Si O2"
_cell_formula_units_Z 120
_cell_length_a 27.086283
_cell_length_b 27.332105
_cell_length_c 8.984189
_cell_angle_alpha 90.000000
_cell_angle_beta 90.000000
_cell_angle_gamma 90.000000
_cell_volume 6651.220898
_symmetry_space_group_name_H-M "C M M M"
_symmetry_group_IT_number 65
_symmetry_cell_setting 'orthorhombic'
loop_
_space_group_symop_operation_xyz
x,y,z
-x,-y,z
x,-y,-z
-x,y,-z
-x,-y,-z
x,y,-z
-x,y,z
x,-y,z
1/2+x,1/2+y,z
1/2-x,1/2-y,z
1/2+x,1/2-y,-z
1/2-x,1/2+y,-z
1/2-x,1/2-y,-z
1/2+x,1/2+y,-z
1/2-x,1/2+y,z
1/2+x,1/2-y,z
loop_
_atom_site_type_symbol
_atom_site_label
_atom_site_fract_x
_atom_site_fract_y
_atom_site_fract_z
Si Si1 0.394389 0.785881 0.324925
Si Si2 0.305871 0.259321 0.172504
Si Si3 0.555424 0.685450 0.675309
Si Si4 0.905579 0.386218 0.823118
Si Si5 0.283871 0.444154 0.827492
Si Si6 0.000000 0.554443 0.823269
Si Si7 0.856101 0.139627 0.172014
Si Si8 0.318303 0.943670 0.674280
O O1 0.395641 0.795567 0.500000
O O2 0.338416 0.776640 0.273116
O O3 0.427946 0.739850 0.276982
O O4 0.415698 0.832429 0.239602
O O5 0.250000 0.250000 0.220532
O O6 0.319464 0.315425 0.206382
O O7 0.314682 0.246074 0.000000
O O8 0.557732 0.680041 0.500000
O O9 0.500000 0.676326 0.735050
O O10 0.592125 0.645037 0.742615
O O11 0.951150 0.418621 0.765530
O O12 0.855443 0.408609 0.760074
O O13 0.902117 0.384390 0.000000
O O14 0.300567 0.500000 0.801614
O O15 0.328883 0.409766 0.774842
O O16 0.236401 0.431038 0.729769
O O17 0.270693 0.434234 0.000000
O O18 0.000000 0.500000 0.755746
O O19 0.000000 0.552926 0.000000
O O20 0.869738 0.136931 0.000000
O O21 0.321554 0.932798 0.500000
O O22 0.331241 0.000000 0.711245
#
# Coordination Sequence:
#
# PCOD8272769 Si02
#       8
#    16  16  16  16  16   8  16  16
#     4  10  21  35  51  76 106 137 173 213 261 313
#     4   9  18  32  50  73 104 139 173 213 259 308
#     4   9  19  36  56  76 103 140 175 213 263 321
#     4  11  22  36  56  78 102 135 176 222 271 319
#     4   9  18  33  54  80 110 144 178 212 257 314
#     4   9  20  38  57  77  99 129 175 227 274 319
#     4   9  18  32  51  78 106 136 175 218 262 309
#     4  10  21  36  53  77 107 138 176 219 263 313
#
# _framework density 18.041799999999999
#
# number of rings (size 3 to 8) (size 9 to 14) (size 15 to 20)
#    0.000    2.467    0.000    1.600    2.800    2.933 
#    0.000    1.000    0.000    2.800    0.000    2.800 
#    0.000    0.000    0.000    0.000    0.000    0.000 
#
# Total GULP energy -744156.782370 kJ/mol
# GULP energy per Si atom -12402.613039 kJ/mol
# Density = 1.800074 g / cm^3
# Si number density = 18.041800 Si / 1000 Ang^3
#
#
#
# Elastic Constant Matrix: (Units=GPa)
#
#
# Indices 1 2 3 4 5 6 
#
# 1 139.1915 65.2612 39.3734 0.0000 0.0000 0.0000
# 2 65.2612 103.8845 34.8975 0.0000 0.0000 0.0000
# 3 39.3734 34.8975 56.6603 0.0000 0.0000 0.0000
# 4 0.0000 0.0000 0.0000 24.7297 0.0000 0.0000
# 5 0.0000 0.0000 0.0000 0.0000 22.6078 0.0000
# 6 0.0000 0.0000 0.0000 0.0000 0.0000 27.2261
#
#
#
# Elastic Compliance Matrix: (Units=1/GPa)
#
#
# Indices 1 2 3 4 5 6 
#
# 1 0.010939 -0.005445 -0.004248 0.000000 0.000000 0.000000
# 2 -0.005445 0.014848 -0.005361 0.000000 0.000000 0.000000
# 3 -0.004248 -0.005361 0.023903 0.000000 0.000000 0.000000
# 4 0.000000 0.000000 0.000000 0.040437 0.000000 0.000000
# 5 0.000000 0.000000 0.000000 0.000000 0.044233 0.000000
# 6 0.000000 0.000000 0.000000 0.000000 0.000000 0.036729
#
#
# Mechanical properties :
#
#
# Convention : Reuss Voigt Hill
#
# Bulk Modulus (GPa) = 51.06846 64.31119 57.68982
# Shear Modulus (GPa) = 24.07048 25.59298 24.83173
#
# Velocity S-wave (km/s) = 3.65657 3.77043 3.71394
# Velocity P-wave (km/s) = 6.79664 7.39445 7.10184
#
# Compressibility (1/GPa) = 0.01958156
#
# Stress axis : x y z
#
# Youngs Moduli (GPa) = 91.41721 67.35124 41.83607
#
# Poissons Ratio (x) = 0.36672 0.17771
# Poissons Ratio (y) = 0.49776 0.22428
# Poissons Ratio (z) = 0.38833 0.36107
#
# Static dielectric constant tensor:
#      x y z
#    x 3.378880 0.000000 0.000000 
#    y 0.000000 3.408730 0.000000 
#    z 0.000000 0.000000 3.257930 
# 
# 
# High freq. dielectric constant tensor:
#      x y z
#    x 1.697010 0.000000 0.000000 
#    y 0.000000 1.694560 0.000000 
#    z 0.000000 0.000000 1.693070 
# 
# From -- ./inp_files/17122.got.cif
#   From: 2010.03.12/outbox.cif.g09.slc.cpg/sg65_9_cif.got.tgz:17122.got - 2010.04.10 20:52:16.
