data_PCOD8272603
_publ_section_title
;
Structure prediction by ZEFSAII (Michael W. Deem and Ramdas Pophale) SiO2 
 PCOD8272603
Probable space group: C M M M
;
_chemical_formula_sum "Si O2"
_cell_formula_units_Z 72
_cell_length_a 7.989807
_cell_length_b 27.114517
_cell_length_c 17.437142
_cell_angle_alpha 90.000000
_cell_angle_beta 90.000000
_cell_angle_gamma 90.000000
_cell_volume 3777.578218
_symmetry_space_group_name_H-M "C M M M"
_symmetry_group_IT_number 65
_symmetry_cell_setting 'orthorhombic'
loop_
_space_group_symop_operation_xyz
x,y,z
-x,-y,z
x,-y,-z
-x,y,-z
-x,-y,-z
x,y,-z
-x,y,z
x,-y,z
1/2+x,1/2+y,z
1/2-x,1/2-y,z
1/2+x,1/2-y,-z
1/2-x,1/2+y,-z
1/2-x,1/2-y,-z
1/2+x,1/2+y,-z
1/2-x,1/2+y,z
1/2+x,1/2-y,z
loop_
_atom_site_type_symbol
_atom_site_label
_atom_site_fract_x
_atom_site_fract_y
_atom_site_fract_z
Si Si1 0.308896 0.651712 0.415092
Si Si2 0.196011 0.400605 0.183329
Si Si3 0.308108 0.054909 0.345631
Si Si4 0.500000 0.442840 0.909932
Si Si5 0.309319 0.803727 0.736159
O O1 0.232087 0.660278 0.500000
O O2 0.500000 0.668044 0.414191
O O3 0.298530 0.594061 0.393492
O O4 0.216475 0.686460 0.354153
O O5 0.209906 0.437515 0.254817
O O6 0.326740 0.418483 0.119493
O O7 0.267471 0.347089 0.211279
O O8 0.000000 0.399562 0.154155
O O9 0.500000 0.062184 0.370170
O O10 0.244283 0.000000 0.365749
O O11 0.500000 0.500000 0.886627
O O12 0.500000 0.435015 0.000000
O O13 0.500000 0.807005 0.755055
O O14 0.250000 0.750000 0.761380
#
# Coordination Sequence:
#
# PCOD8272603 Si02
#       5
#    16  16  16   8  16
#     4  10  21  34  47  70 108 146 183 233 287 337
#     4   9  20  38  58  85 119 152 188 240 284 332
#     4   9  18  32  51  74 100 139 191 237 284 336
#     4  11  24  38  60  94 123 157 193 221 279 348
#     4  10  21  36  59  86 105 140 192 236 289 339
#
# _framework density 19.059830000000002
#
# number of rings (size 3 to 8) (size 9 to 14) (size 15 to 20)
#    0.000    2.333    0.000    3.333    7.778    4.889 
#    0.000    3.333    0.000    0.667    0.000    0.000 
#    0.000    0.000    0.000    0.000    0.000    0.000 
#
# Total GULP energy -446157.711298 kJ/mol
# GULP energy per Si atom -12393.269758 kJ/mol
# Density = 1.901645 g / cm^3
# Si number density = 19.059830 Si / 1000 Ang^3
#
#
#
# Elastic Constant Matrix: (Units=GPa)
#
#
# Indices 1 2 3 4 5 6 
#
# 1 71.5946 27.9973 37.6365 0.0000 0.0000 0.0000
# 2 27.9973 114.9301 35.0322 0.0000 0.0000 0.0000
# 3 37.6365 35.0322 79.6917 0.0000 0.0000 0.0000
# 4 0.0000 0.0000 0.0000 16.3057 0.0000 0.0000
# 5 0.0000 0.0000 0.0000 0.0000 27.0768 0.0000
# 6 0.0000 0.0000 0.0000 0.0000 0.0000 31.6786
#
#
#
# Elastic Compliance Matrix: (Units=1/GPa)
#
#
# Indices 1 2 3 4 5 6 
#
# 1 0.019047 -0.002192 -0.008032 0.000000 0.000000 0.000000
# 2 -0.002192 0.010299 -0.003493 0.000000 0.000000 0.000000
# 3 -0.008032 -0.003493 0.017877 0.000000 0.000000 0.000000
# 4 0.000000 0.000000 0.000000 0.061328 0.000000 0.000000
# 5 0.000000 0.000000 0.000000 0.000000 0.036932 0.000000
# 6 0.000000 0.000000 0.000000 0.000000 0.000000 0.031567
#
#
# Mechanical properties :
#
#
# Convention : Reuss Voigt Hill
#
# Bulk Modulus (GPa) = 50.52796 51.94982 51.23889
# Shear Modulus (GPa) = 23.68773 26.04892 24.86832
#
# Velocity S-wave (km/s) = 3.52917 3.70089 3.61605
# Velocity P-wave (km/s) = 6.57073 6.75111 6.66153
#
# Compressibility (1/GPa) = 0.01979102
#
# Stress axis : x y z
#
# Youngs Moduli (GPa) = 52.50195 97.09311 55.93796
#
# Poissons Ratio (x) = 0.21279 0.44929
# Poissons Ratio (y) = 0.11507 0.19536
# Poissons Ratio (z) = 0.42169 0.33910
#
# Static dielectric constant tensor:
#      x y z
#    x 3.473130 0.000000 0.000000 
#    y 0.000000 3.413900 0.000000 
#    z 0.000000 0.000000 3.210010 
# 
# 
# High freq. dielectric constant tensor:
#      x y z
#    x 1.744130 0.000000 0.000000 
#    y 0.000000 1.747610 0.000000 
#    z 0.000000 0.000000 1.706240 
# 
# From -- ./inp_files/36596.got.cif
#   From: 2010.03.12/outbox.cif.g09.slc.cpg/sg65_19_cif.got.tgz:36596.got - 2010.04.10 20:52:16.
