data_PCOD8272307
_publ_section_title
;
Structure prediction by ZEFSAII (Michael W. Deem and Ramdas Pophale) SiO2 
 PCOD8272307
Probable space group: C M M M
;
_chemical_formula_sum "Si O2"
_cell_formula_units_Z 80
_cell_length_a 35.606285
_cell_length_b 11.582827
_cell_length_c 10.665901
_cell_angle_alpha 90.000000
_cell_angle_beta 90.000000
_cell_angle_gamma 90.000000
_cell_volume 4398.846242
_symmetry_space_group_name_H-M "C M M M"
_symmetry_group_IT_number 65
_symmetry_cell_setting 'orthorhombic'
loop_
_space_group_symop_operation_xyz
x,y,z
-x,-y,z
x,-y,-z
-x,y,-z
-x,-y,-z
x,y,-z
-x,y,z
x,-y,z
1/2+x,1/2+y,z
1/2-x,1/2-y,z
1/2+x,1/2-y,-z
1/2-x,1/2+y,-z
1/2-x,1/2-y,-z
1/2+x,1/2+y,-z
1/2-x,1/2+y,z
1/2+x,1/2-y,z
loop_
_atom_site_type_symbol
_atom_site_label
_atom_site_fract_x
_atom_site_fract_y
_atom_site_fract_z
Si Si1 0.458093 0.864016 0.500000
Si Si2 0.862683 0.630593 0.850986
Si Si3 0.329521 0.500000 0.141367
Si Si4 0.209079 0.239510 0.144113
Si Si5 0.572425 0.271947 0.724813
Si Si6 0.890160 0.000000 0.359381
Si Si7 0.000000 0.131142 0.852140
O O1 0.500000 0.810875 0.500000
O O2 0.436740 0.824417 0.623342
O O3 0.459325 0.000000 0.500000
O O4 0.869749 0.500000 0.802378
O O5 0.822581 0.675866 0.796451
O O6 0.894654 0.719474 0.809363
O O7 0.862023 0.634475 0.000000
O O8 0.303142 0.391410 0.160292
O O9 0.360727 0.500000 0.247281
O O10 0.347559 0.500000 0.000000
O O11 0.250000 0.250000 0.210750
O O12 0.213479 0.275929 0.000000
O O13 0.584327 0.387517 0.653489
O O14 0.536592 0.299060 0.809835
O O15 0.872093 0.000000 0.500000
O O16 0.000000 0.000000 0.798325
O O17 0.000000 0.127051 0.000000
#
# Coordination Sequence:
#
# PCOD8272307 Si02
#       7
#     8  16   8  16  16   8   8
#     4  11  24  41  63  83 106 146 196 249 290 345
#     4  10  21  36  55  82 119 157 191 238 295 353
#     4  10  20  36  59  87 120 160 199 245 303 360
#     4   9  18  31  53  86 118 150 192 242 293 348
#     4  12  22  40  59  83 116 150 196 242 295 352
#     4  12  24  37  61  90 119 158 196 250 303 351
#     4  11  24  37  57  88 120 153 189 239 299 358
#
# _framework density 18.186586999999999
#
# number of rings (size 3 to 8) (size 9 to 14) (size 15 to 20)
#    0.000    1.400    5.000    1.200    1.400    0.800 
#    0.000    1.500    0.000    3.000    0.000    0.000 
#    0.000    0.000    0.000    0.000    0.000    0.000 
#
# Total GULP energy -495915.482807 kJ/mol
# GULP energy per Si atom -12397.887070 kJ/mol
# Density = 1.814519 g / cm^3
# Si number density = 18.186587 Si / 1000 Ang^3
#
#
#
# Elastic Constant Matrix: (Units=GPa)
#
#
# Indices 1 2 3 4 5 6 
#
# 1 144.3876 50.1430 39.0310 0.0000 0.0000 0.0000
# 2 50.1430 112.4994 27.1397 0.0000 0.0000 0.0000
# 3 39.0310 27.1397 69.3447 0.0000 0.0000 0.0000
# 4 0.0000 0.0000 0.0000 10.3587 0.0000 0.0000
# 5 0.0000 0.0000 0.0000 0.0000 5.3969 0.0000
# 6 0.0000 0.0000 0.0000 0.0000 0.0000 24.3224
#
#
#
# Elastic Compliance Matrix: (Units=1/GPa)
#
#
# Indices 1 2 3 4 5 6 
#
# 1 0.009051 -0.003098 -0.003882 0.000000 0.000000 0.000000
# 2 -0.003098 0.010876 -0.002513 0.000000 0.000000 0.000000
# 3 -0.003882 -0.002513 0.017589 0.000000 0.000000 0.000000
# 4 0.000000 0.000000 0.000000 0.096537 0.000000 0.000000
# 5 0.000000 0.000000 0.000000 0.000000 0.185290 0.000000
# 6 0.000000 0.000000 0.000000 0.000000 0.000000 0.041114
#
#
# Mechanical properties :
#
#
# Convention : Reuss Voigt Hill
#
# Bulk Modulus (GPa) = 53.96451 62.09547 58.02999
# Shear Modulus (GPa) = 12.96613 22.01014 17.48814
#
# Velocity S-wave (km/s) = 2.67301 3.48263 3.10432
# Velocity P-wave (km/s) = 6.26608 7.09854 6.69526
#
# Compressibility (1/GPa) = 0.01853070
#
# Stress axis : x y z
#
# Youngs Moduli (GPa) = 110.48558 91.94671 56.85291
#
# Poissons Ratio (x) = 0.28482 0.22070
# Poissons Ratio (y) = 0.34225 0.14287
# Poissons Ratio (z) = 0.42891 0.23106
#
# Static dielectric constant tensor:
#      x y z
#    x 3.589610 0.000000 0.000000 
#    y 0.000000 3.560270 0.000000 
#    z 0.000000 0.000000 3.101490 
# 
# 
# High freq. dielectric constant tensor:
#      x y z
#    x 1.713680 0.000000 0.000000 
#    y 0.000000 1.722860 0.000000 
#    z 0.000000 0.000000 1.672280 
# 
# From -- ./inp_files/33567.got.cif
#   From: 2010.03.12/outbox.cif.g09.slc.cpg/sg65_17_cif.got.tgz:33567.got - 2010.04.10 20:52:16.
