data_PCOD8272404
_publ_section_title
;
Structure prediction by ZEFSAII (Michael W. Deem and Ramdas Pophale) SiO2 
 PCOD8272404
Probable space group: C M M M
;
_chemical_formula_sum "Si O2"
_cell_formula_units_Z 64
_cell_length_a 14.852608
_cell_length_b 9.641264
_cell_length_c 22.445897
_cell_angle_alpha 90.000000
_cell_angle_beta 90.000000
_cell_angle_gamma 90.000000
_cell_volume 3214.205647
_symmetry_space_group_name_H-M "C M M M"
_symmetry_group_IT_number 65
_symmetry_cell_setting 'orthorhombic'
loop_
_space_group_symop_operation_xyz
x,y,z
-x,-y,z
x,-y,-z
-x,y,-z
-x,-y,-z
x,y,-z
-x,y,z
x,-y,z
1/2+x,1/2+y,z
1/2-x,1/2-y,z
1/2+x,1/2-y,-z
1/2-x,1/2+y,-z
1/2-x,1/2-y,-z
1/2+x,1/2+y,-z
1/2-x,1/2+y,z
1/2+x,1/2-y,z
loop_
_atom_site_type_symbol
_atom_site_label
_atom_site_fract_x
_atom_site_fract_y
_atom_site_fract_z
Si Si1 0.000000 0.165056 0.873897
Si Si2 0.643968 0.251628 0.646257
Si Si3 0.000000 0.160761 0.266525
Si Si4 0.641183 0.000000 0.433388
Si Si5 0.146509 0.000000 0.565395
Si Si6 0.339151 0.837329 0.069643
O O1 0.914863 0.248586 0.897796
O O2 0.000000 0.179766 0.803473
O O3 0.000000 0.000000 0.892674
O O4 0.750000 0.250000 0.662054
O O5 0.589551 0.264712 0.707873
O O6 0.613408 0.371493 0.602580
O O7 0.609565 0.125109 0.607298
O O8 0.000000 0.000000 0.284302
O O9 0.747090 0.000000 0.442039
O O10 0.597240 0.000000 0.500000
O O11 0.101736 0.000000 0.500000
O O12 0.250000 0.750000 0.084038
O O13 0.332956 0.000000 0.091399
O O14 0.360846 0.837255 0.000000
#
# Coordination Sequence:
#
# PCOD8272404 Si02
#       6
#     8  16   8   8   8  16
#     4  11  24  40  61  89 127 173 216 263 308 355
#     4  10  20  37  59  83 114 151 191 245 305 361
#     4  11  24  43  60  81 116 160 211 250 283 352
#     4   9  18  33  55  85 116 143 183 242 312 374
#     4   9  16  31  59  85 108 147 189 234 302 376
#     4  10  21  40  67 100 134 165 203 253 308 367
#
# _framework density 19.911608000000001
#
# number of rings (size 3 to 8) (size 9 to 14) (size 15 to 20)
#    0.000    2.000    1.250    2.250    0.000    7.500 
#    4.500    3.750    0.000    0.000    0.000    0.000 
#    0.000    0.000    0.000    0.000    0.000    0.000 
#
# Total GULP energy -396489.804763 kJ/mol
# GULP energy per Si atom -12390.306399 kJ/mol
# Density = 1.986629 g / cm^3
# Si number density = 19.911608 Si / 1000 Ang^3
#
#
#
# Elastic Constant Matrix: (Units=GPa)
#
#
# Indices 1 2 3 4 5 6 
#
# 1 115.1739 63.1661 68.3649 0.0000 0.0000 0.0000
# 2 63.1661 194.9914 67.8497 0.0000 0.0000 0.0000
# 3 68.3649 67.8497 94.6730 0.0000 0.0000 0.0000
# 4 0.0000 0.0000 0.0000 39.0222 0.0000 0.0000
# 5 0.0000 0.0000 0.0000 0.0000 32.4263 0.0000
# 6 0.0000 0.0000 0.0000 0.0000 0.0000 34.0056
#
#
#
# Elastic Compliance Matrix: (Units=1/GPa)
#
#
# Indices 1 2 3 4 5 6 
#
# 1 0.015520 -0.001503 -0.010130 0.000000 0.000000 0.000000
# 2 -0.001503 0.006978 -0.003916 0.000000 0.000000 0.000000
# 3 -0.010130 -0.003916 0.020684 0.000000 0.000000 0.000000
# 4 0.000000 0.000000 0.000000 0.025626 0.000000 0.000000
# 5 0.000000 0.000000 0.000000 0.000000 0.030839 0.000000
# 6 0.000000 0.000000 0.000000 0.000000 0.000000 0.029407
#
#
# Mechanical properties :
#
#
# Convention : Reuss Voigt Hill
#
# Bulk Modulus (GPa) = 82.74985 89.28886 86.01936
# Shear Modulus (GPa) = 30.45455 34.78797 32.62126
#
# Velocity S-wave (km/s) = 3.91511 4.18439 4.05199
# Velocity P-wave (km/s) = 7.87948 8.26350 8.07378
#
# Compressibility (1/GPa) = 0.01208461
#
# Stress axis : x y z
#
# Youngs Moduli (GPa) = 64.43451 143.31371 48.34629
#
# Poissons Ratio (x) = 0.21534 0.48975
# Poissons Ratio (y) = 0.09682 0.18931
# Poissons Ratio (z) = 0.65273 0.56118
#
# Static dielectric constant tensor:
#      x y z
#    x 3.552910 0.000000 0.000000 
#    y 0.000000 11.219160 0.000000 
#    z 0.000000 0.000000 3.566020 
# 
# 
# High freq. dielectric constant tensor:
#      x y z
#    x 1.776980 0.000000 0.000000 
#    y 0.000000 1.795700 0.000000 
#    z 0.000000 0.000000 1.768220 
# 
# From -- ./inp_files/69588.got.cif
#   From: 2010.03.12/outbox.cif.g09.slc.cpg/sg65_35_cif.got.tgz:69588.got - 2010.04.10 20:52:16.
