data_PCOD8272275
_publ_section_title
;
Structure prediction by ZEFSAII (Michael W. Deem and Ramdas Pophale) SiO2 
 PCOD8272275
Probable space group: C M M M
;
_chemical_formula_sum "Si O2"
_cell_formula_units_Z 88
_cell_length_a 8.856560
_cell_length_b 18.744557
_cell_length_c 29.002489
_cell_angle_alpha 90.000000
_cell_angle_beta 90.000000
_cell_angle_gamma 90.000000
_cell_volume 4814.769723
_symmetry_space_group_name_H-M "C M M M"
_symmetry_group_IT_number 65
_symmetry_cell_setting 'orthorhombic'
loop_
_space_group_symop_operation_xyz
x,y,z
-x,-y,z
x,-y,-z
-x,y,-z
-x,-y,-z
x,y,-z
-x,y,z
x,-y,z
1/2+x,1/2+y,z
1/2-x,1/2-y,z
1/2+x,1/2-y,-z
1/2-x,1/2+y,-z
1/2-x,1/2-y,-z
1/2+x,1/2+y,-z
1/2-x,1/2+y,z
1/2+x,1/2-y,z
loop_
_atom_site_type_symbol
_atom_site_label
_atom_site_fract_x
_atom_site_fract_y
_atom_site_fract_z
Si Si1 0.823709 0.083539 0.580884
Si Si2 0.677139 0.417719 0.766370
Si Si3 0.830351 0.584669 0.325703
Si Si4 0.177117 0.826629 0.048684
Si Si5 0.821153 0.327993 0.500000
Si Si6 0.178490 0.172869 0.148085
O O1 0.771585 0.109355 0.631377
O O2 0.729882 0.128767 0.544667
O O3 0.000000 0.099653 0.574857
O O4 0.788839 0.000000 0.573152
O O5 0.500000 0.406631 0.759265
O O6 0.718493 0.500000 0.773102
O O7 0.759357 0.384911 0.721500
O O8 0.739815 0.378068 0.811681
O O9 0.830017 0.500000 0.323152
O O10 0.000000 0.614392 0.331639
O O11 0.250000 0.750000 0.047617
O O12 0.223613 0.862433 0.097821
O O13 0.000000 0.815155 0.049185
O O14 0.222713 0.867207 0.000000
O O15 0.750000 0.250000 0.500000
O O16 0.000000 0.320579 0.500000
O O17 0.250000 0.250000 0.154368
O O18 0.000000 0.180970 0.152246
#
# Coordination Sequence:
#
# PCOD8272275 Si02
#       6
#    16  16  16  16   8  16
#     4  10  20  36  59  84 108 135 170 210 250 293
#     4   9  17  30  47  66  91 124 158 191 233 286
#     4   9  17  30  50  76 101 125 160 205 246 283
#     4   8  13  22  37  57  81 109 143 184 228 273
#     4  12  25  40  57  79 111 145 175 208 249 296
#     4   9  17  28  43  64  89 117 150 190 234 280
#
# _framework density 18.277094000000002
#
# number of rings (size 3 to 8) (size 9 to 14) (size 15 to 20)
#    0.000    2.727    0.000    2.182    0.000    5.091 
#    0.000    0.909    0.000    2.727    0.000    3.818 
#    0.000    0.000    0.000   34.000    0.000   18.545 
#
# Total GULP energy -545117.808842 kJ/mol
# GULP energy per Si atom -12389.041110 kJ/mol
# Density = 1.823549 g / cm^3
# Si number density = 18.277094 Si / 1000 Ang^3
#
#
#
# Elastic Constant Matrix: (Units=GPa)
#
#
# Indices 1 2 3 4 5 6 
#
# 1 73.6232 31.7443 57.3285 0.0000 0.0000 0.0000
# 2 31.7443 49.6871 57.3135 0.0000 0.0000 0.0000
# 3 57.3285 57.3135 203.2182 0.0000 0.0000 0.0000
# 4 0.0000 0.0000 0.0000 -45.2037 0.0000 0.0000
# 5 0.0000 0.0000 0.0000 0.0000 24.6458 0.0000
# 6 0.0000 0.0000 0.0000 0.0000 0.0000 19.2947
#
#
#
# Elastic Compliance Matrix: (Units=1/GPa)
#
#
# Indices 1 2 3 4 5 6 
#
# 1 0.019915 -0.009253 -0.003008 0.000000 0.000000 0.000000
# 2 -0.009253 0.034130 -0.007015 0.000000 0.000000 0.000000
# 3 -0.003008 -0.007015 0.007748 0.000000 0.000000 0.000000
# 4 0.000000 0.000000 0.000000 -0.022122 0.000000 0.000000
# 5 0.000000 0.000000 0.000000 0.000000 0.040575 0.000000
# 6 0.000000 0.000000 0.000000 0.000000 0.000000 0.051828
#
#
# Mechanical properties :
#
#
# Convention : Reuss Voigt Hill
#
# Bulk Modulus (GPa) = 43.03116 68.81124 55.92120
# Shear Modulus (GPa) = 28.03115 11.75685 19.89400
#
# Velocity S-wave (km/s) = 3.92047 2.53900 3.30277
# Velocity P-wave (km/s) = 6.63990 6.80632 6.72363
#
# Compressibility (1/GPa) = 0.02323897
#
# Stress axis : x y z
#
# Youngs Moduli (GPa) = 50.21351 29.30003 129.06582
#
# Poissons Ratio (x) = 0.27112 0.38828
# Poissons Ratio (y) = 0.46464 0.90542
# Poissons Ratio (z) = 0.15106 0.20555
#
# Static dielectric constant tensor:
#      x y z
#    x 2.912750 0.000000 0.000000 
#    y 0.000000 2.976750 0.000000 
#    z 0.000000 0.000000 4.187380 
# 
# 
# High freq. dielectric constant tensor:
#      x y z
#    x 1.709480 0.000000 0.000000 
#    y 0.000000 1.650420 0.000000 
#    z 0.000000 0.000000 1.741920 
# 
# From -- ./inp_files/76441.got.cif
#   From: 2010.03.12/outbox.cif.g09.slc.cpg/sg65_39_cif.got.tgz:76441.got - 2010.04.10 20:52:16.
