data_PCOD8272979
_publ_section_title
;
Structure prediction by ZEFSAII (Michael W. Deem and Ramdas Pophale) SiO2 
 PCOD8272979
Probable space group: C M M M
;
_chemical_formula_sum "Si O2"
_cell_formula_units_Z 112
_cell_length_a 17.632521
_cell_length_b 25.244822
_cell_length_c 13.810035
_cell_angle_alpha 90.000000
_cell_angle_beta 90.000000
_cell_angle_gamma 90.000000
_cell_volume 6147.258864
_symmetry_space_group_name_H-M "C M M M"
_symmetry_group_IT_number 65
_symmetry_cell_setting 'orthorhombic'
loop_
_space_group_symop_operation_xyz
x,y,z
-x,-y,z
x,-y,-z
-x,y,-z
-x,-y,-z
x,y,-z
-x,y,z
x,-y,z
1/2+x,1/2+y,z
1/2-x,1/2-y,z
1/2+x,1/2-y,-z
1/2-x,1/2+y,-z
1/2-x,1/2-y,-z
1/2+x,1/2+y,-z
1/2-x,1/2+y,z
1/2+x,1/2-y,z
loop_
_atom_site_type_symbol
_atom_site_label
_atom_site_fract_x
_atom_site_fract_y
_atom_site_fract_z
Si Si1 0.916243 0.635481 0.610073
Si Si2 0.088333 0.061118 0.111136
Si Si3 0.586030 0.940175 0.778021
Si Si4 0.332834 0.850217 0.888105
Si Si5 0.910744 0.244433 0.110856
Si Si6 0.175935 0.152249 0.793564
Si Si7 0.260626 0.188493 0.611891
O O1 0.907894 0.617868 0.500000
O O2 0.908936 0.581130 0.668872
O O3 0.848341 0.675532 0.638033
O O4 0.000000 0.661852 0.628901
O O5 0.136800 0.095685 0.186597
O O6 0.000000 0.071278 0.131065
O O7 0.109181 0.000000 0.129110
O O8 0.107401 0.077020 0.000000
O O9 0.500000 0.937159 0.817357
O O10 0.640182 0.905176 0.843648
O O11 0.616651 0.000000 0.779944
O O12 0.380441 0.800355 0.848157
O O13 0.245717 0.839899 0.865612
O O14 0.346923 0.855900 0.000000
O O15 0.882869 0.198477 0.181907
O O16 0.000000 0.245731 0.115886
O O17 0.883101 0.234638 0.000000
O O18 0.204109 0.155388 0.681732
O O19 0.241170 0.174713 0.500000
O O20 0.250000 0.250000 0.633591
#
# Coordination Sequence:
#
# PCOD8272979 Si02
#       7
#    16  16  16  16  16  16  16
#     4   9  18  36  61  82 102 136 185 236 278 318
#     4   9  19  37  60  85 114 149 190 236 281 325
#     4  10  21  36  53  75 105 142 183 222 263 320
#     4  11  22  35  51  77 113 146 178 220 274 329
#     4  10  21  36  55  79 108 145 188 230 269 318
#     4  12  21  34  57  85 110 141 183 229 281 333
#     4  10  21  38  57  82 116 147 179 225 284 342
#
# _framework density 18.219503
#
# number of rings (size 3 to 8) (size 9 to 14) (size 15 to 20)
#    0.000    1.857    1.429    3.857    0.000    4.286 
#    0.000    2.857    0.000    3.000    0.000    1.000 
#    0.000    0.000    0.000    0.000    0.000    0.000 
#
# Total GULP energy -694367.568891 kJ/mol
# GULP energy per Si atom -12399.420873 kJ/mol
# Density = 1.817803 g / cm^3
# Si number density = 18.219503 Si / 1000 Ang^3
#
#
#
# Elastic Constant Matrix: (Units=GPa)
#
#
# Indices 1 2 3 4 5 6 
#
# 1 88.8776 56.7717 38.8730 0.0000 0.0000 0.0000
# 2 56.7717 120.1228 49.6128 0.0000 0.0000 0.0000
# 3 38.8730 49.6128 74.6060 0.0000 0.0000 0.0000
# 4 0.0000 0.0000 0.0000 26.4316 0.0000 0.0000
# 5 0.0000 0.0000 0.0000 0.0000 29.2914 0.0000
# 6 0.0000 0.0000 0.0000 0.0000 0.0000 31.4210
#
#
#
# Elastic Compliance Matrix: (Units=1/GPa)
#
#
# Indices 1 2 3 4 5 6 
#
# 1 0.017346 -0.006156 -0.004944 0.000000 0.000000 0.000000
# 2 -0.006156 0.013662 -0.005878 0.000000 0.000000 0.000000
# 3 -0.004944 -0.005878 0.019889 0.000000 0.000000 0.000000
# 4 0.000000 0.000000 0.000000 0.037833 0.000000 0.000000
# 5 0.000000 0.000000 0.000000 0.000000 0.034140 0.000000
# 6 0.000000 0.000000 0.000000 0.000000 0.000000 0.031826
#
#
# Mechanical properties :
#
#
# Convention : Reuss Voigt Hill
#
# Bulk Modulus (GPa) = 59.02944 63.79127 61.41035
# Shear Modulus (GPa) = 25.73365 26.65206 26.19286
#
# Velocity S-wave (km/s) = 3.76230 3.82885 3.79572
# Velocity P-wave (km/s) = 7.16537 7.39158 7.27935
#
# Compressibility (1/GPa) = 0.01694070
#
# Stress axis : x y z
#
# Youngs Moduli (GPa) = 57.64956 73.19738 50.28012
#
# Poissons Ratio (x) = 0.45059 0.24861
# Poissons Ratio (y) = 0.35488 0.29552
# Poissons Ratio (z) = 0.28505 0.43022
#
# Static dielectric constant tensor:
#      x y z
#    x 3.469850 0.000000 0.000000 
#    y 0.000000 3.305740 0.000000 
#    z 0.000000 0.000000 3.379170 
# 
# 
# High freq. dielectric constant tensor:
#      x y z
#    x 1.711350 0.000000 0.000000 
#    y 0.000000 1.699760 0.000000 
#    z 0.000000 0.000000 1.700120 
# 
# From -- ./inp_files/40764.got.cif
#   From: 2010.03.12/outbox.cif.g09.slc.cpg/sg65_21_cif.got.tgz:40764.got - 2010.04.10 20:52:16.
