data_PCOD8272540
_publ_section_title
;
Structure prediction by ZEFSAII (Michael W. Deem and Ramdas Pophale) SiO2 
 PCOD8272540
Probable space group: C M M M
;
_chemical_formula_sum "Si O2"
_cell_formula_units_Z 88
_cell_length_a 23.318442
_cell_length_b 9.070513
_cell_length_c 22.451789
_cell_angle_alpha 90.000000
_cell_angle_beta 90.000000
_cell_angle_gamma 90.000000
_cell_volume 4748.783085
_symmetry_space_group_name_H-M "C M M M"
_symmetry_group_IT_number 65
_symmetry_cell_setting 'orthorhombic'
loop_
_space_group_symop_operation_xyz
x,y,z
-x,-y,z
x,-y,-z
-x,y,-z
-x,-y,-z
x,y,-z
-x,y,z
x,-y,z
1/2+x,1/2+y,z
1/2-x,1/2-y,z
1/2+x,1/2-y,-z
1/2-x,1/2+y,-z
1/2-x,1/2-y,-z
1/2+x,1/2+y,-z
1/2-x,1/2+y,z
1/2+x,1/2-y,z
loop_
_atom_site_type_symbol
_atom_site_label
_atom_site_fract_x
_atom_site_fract_y
_atom_site_fract_z
Si Si1 0.895237 0.173040 0.322151
Si Si2 0.309230 0.669544 0.777320
Si Si3 0.933463 0.671211 0.432212
Si Si4 0.188742 0.325767 0.000000
Si Si5 0.000000 0.166686 0.860856
Si Si6 0.625182 0.668484 0.895843
Si Si7 0.000000 0.673569 0.259333
O O1 0.836483 0.208914 0.286973
O O2 0.892204 0.231363 0.390058
O O3 0.944574 0.260419 0.289532
O O4 0.908671 0.000000 0.321059
O O5 0.293759 0.500000 0.780551
O O6 0.250000 0.750000 0.787505
O O7 0.354243 0.710738 0.829319
O O8 0.919693 0.715779 0.500000
O O9 0.920208 0.500000 0.421629
O O10 0.000000 0.704456 0.417497
O O11 0.250000 0.250000 0.000000
O O12 0.154334 0.278922 0.058450
O O13 0.196936 0.500000 0.000000
O O14 0.943402 0.189180 0.900826
O O15 0.000000 0.287919 0.809807
O O16 0.000000 0.000000 0.833497
O O17 0.642174 0.500000 0.911558
O O18 0.000000 0.500000 0.268637
#
# Coordination Sequence:
#
# PCOD8272540 Si02
#       7
#    16  16  16   8   8  16   8
#     4  11  21  35  55  81 113 149 189 233 278 330
#     4  10  22  38  58  83 112 144 186 236 281 330
#     4   9  18  32  50  78 115 148 181 225 279 337
#     4  12  26  43  62  85 115 152 198 244 283 330
#     4  10  20  39  63  87 120 152 183 224 279 345
#     4  10  21  40  64  88 116 151 187 229 284 338
#     4  12  22  32  52  84 118 152 186 223 279 340
#
# _framework density 18.531063
#
# number of rings (size 3 to 8) (size 9 to 14) (size 15 to 20)
#    0.000    1.636    2.727    3.273    0.000    5.091 
#    0.000    2.727    0.000    0.545    0.000    0.000 
#    0.000    0.000    0.000    0.000    0.000    0.000 
#
# Total GULP energy -545647.410643 kJ/mol
# GULP energy per Si atom -12401.077515 kJ/mol
# Density = 1.848889 g / cm^3
# Si number density = 18.531063 Si / 1000 Ang^3
#
#
#
# Elastic Constant Matrix: (Units=GPa)
#
#
# Indices 1 2 3 4 5 6 
#
# 1 118.5760 52.6672 45.5723 0.0000 0.0000 0.0000
# 2 52.6672 100.3885 54.8579 0.0000 0.0000 0.0000
# 3 45.5723 54.8579 110.4869 0.0000 0.0000 0.0000
# 4 0.0000 0.0000 0.0000 37.5770 0.0000 0.0000
# 5 0.0000 0.0000 0.0000 0.0000 -124.9130 0.0000
# 6 0.0000 0.0000 0.0000 0.0000 0.0000 21.9625
#
#
#
# Elastic Compliance Matrix: (Units=1/GPa)
#
#
# Indices 1 2 3 4 5 6 
#
# 1 0.011436 -0.004696 -0.002385 0.000000 0.000000 0.000000
# 2 -0.004696 0.015599 -0.005808 0.000000 0.000000 0.000000
# 3 -0.002385 -0.005808 0.012918 0.000000 0.000000 0.000000
# 4 0.000000 0.000000 0.000000 0.026612 0.000000 0.000000
# 5 0.000000 0.000000 0.000000 0.000000 -0.008006 0.000000
# 6 0.000000 0.000000 0.000000 0.000000 0.000000 0.045532
#
#
# Mechanical properties :
#
#
# Convention : Reuss Voigt Hill
#
# Bulk Modulus (GPa) = 70.54985 70.62734 70.58859
# Shear Modulus (GPa) = 37.14829 -1.31775 17.91527
#
# Velocity S-wave (km/s) = 4.48219 -0.84418 3.11267
# Velocity P-wave (km/s) = 8.05856 6.10291 7.14794
#
# Compressibility (1/GPa) = 0.01417437
#
# Stress axis : x y z
#
# Youngs Moduli (GPa) = 87.44265 64.10692 77.40906
#
# Poissons Ratio (x) = 0.30107 0.18464
# Poissons Ratio (y) = 0.41066 0.44959
# Poissons Ratio (z) = 0.20857 0.37233
#
# Static dielectric constant tensor:
#      x y z
#    x 2.970280 0.000000 0.000000 
#    y 0.000000 3.442240 0.000000 
#    z 0.000000 0.000000 3.581530 
# 
# 
# High freq. dielectric constant tensor:
#      x y z
#    x 1.704640 0.000000 0.000000 
#    y 0.000000 1.718290 0.000000 
#    z 0.000000 0.000000 1.722910 
# 
# From -- ./inp_files/65238.got.cif
#   From: 2010.03.12/outbox.cif.g09.slc.cpg/sg65_33_cif.got.tgz:65238.got - 2010.04.10 20:52:16.
