data_PCOD8272620
_publ_section_title
;
Structure prediction by ZEFSAII (Michael W. Deem and Ramdas Pophale) SiO2 
 PCOD8272620
Probable space group: C M M M
;
_chemical_formula_sum "Si O2"
_cell_formula_units_Z 104
_cell_length_a 19.866778
_cell_length_b 15.038271
_cell_length_c 19.268109
_cell_angle_alpha 90.000000
_cell_angle_beta 90.000000
_cell_angle_gamma 90.000000
_cell_volume 5756.578617
_symmetry_space_group_name_H-M "C M M M"
_symmetry_group_IT_number 65
_symmetry_cell_setting 'orthorhombic'
loop_
_space_group_symop_operation_xyz
x,y,z
-x,-y,z
x,-y,-z
-x,y,-z
-x,-y,-z
x,y,-z
-x,y,z
x,-y,z
1/2+x,1/2+y,z
1/2-x,1/2-y,z
1/2+x,1/2-y,-z
1/2-x,1/2+y,-z
1/2-x,1/2-y,-z
1/2+x,1/2+y,-z
1/2-x,1/2+y,z
1/2+x,1/2-y,z
loop_
_atom_site_type_symbol
_atom_site_label
_atom_site_fract_x
_atom_site_fract_y
_atom_site_fract_z
Si Si1 0.422233 0.692766 0.417918
Si Si2 0.671933 0.397265 0.802683
Si Si3 0.424737 0.105436 0.076856
Si Si4 0.173316 0.397666 0.804384
Si Si5 0.424803 0.605420 0.923268
Si Si6 0.827051 0.747923 0.692782
Si Si7 0.079051 0.000000 0.574967
O O1 0.408118 0.701637 0.500000
O O2 0.500000 0.714880 0.402029
O O3 0.374665 0.758777 0.374819
O O4 0.402303 0.593487 0.388813
O O5 0.654857 0.500000 0.783993
O O6 0.749120 0.387103 0.826370
O O7 0.627421 0.359614 0.866153
O O8 0.656182 0.336359 0.736619
O O9 0.500000 0.136771 0.097783
O O10 0.371370 0.141530 0.132691
O O11 0.421371 0.000000 0.075071
O O12 0.406716 0.142408 0.000000
O O13 0.155361 0.500000 0.787545
O O14 0.157646 0.340615 0.736318
O O15 0.500000 0.638386 0.903785
O O16 0.422845 0.500000 0.924594
O O17 0.405108 0.641564 0.000000
O O18 0.750000 0.750000 0.667563
O O19 0.114978 0.000000 0.500000
O O20 0.000000 0.000000 0.562373
#
# Coordination Sequence:
#
# PCOD8272620 Si02
#       7
#    16  16  16  16  16  16   8
#     4   9  18  33  54  79 105 131 160 196 240 293
#     4   9  18  31  47  68  95 127 163 199 240 290
#     4   8  14  26  46  70  91 114 153 207 259 297
#     4   9  18  33  49  66  94 129 164 205 247 289
#     4   8  14  26  44  66  94 128 164 200 239 290
#     4  10  21  34  49  73 101 131 164 203 242 292
#     4   7  12  26  48  76 106 128 148 182 232 287
#
# _framework density 18.066286999999999
#
# number of rings (size 3 to 8) (size 9 to 14) (size 15 to 20)
#    0.000    3.308    0.000    1.846    1.077    2.154 
#    0.000    3.846    0.000    5.077    0.000    1.077 
#    0.000    0.000    0.000    0.000    0.000    0.000 
#
# Total GULP energy -644330.078606 kJ/mol
# GULP energy per Si atom -12390.963050 kJ/mol
# Density = 1.802517 g / cm^3
# Si number density = 18.066287 Si / 1000 Ang^3
#
#
#
# Elastic Constant Matrix: (Units=GPa)
#
#
# Indices 1 2 3 4 5 6 
#
# 1 100.6414 33.1608 82.2646 0.0000 0.0000 0.0000
# 2 33.1608 57.5313 37.2723 0.0000 0.0000 0.0000
# 3 82.2646 37.2723 110.2543 0.0000 0.0000 0.0000
# 4 0.0000 0.0000 0.0000 39.7572 0.0000 0.0000
# 5 0.0000 0.0000 0.0000 0.0000 38.5970 0.0000
# 6 0.0000 0.0000 0.0000 0.0000 0.0000 14.5237
#
#
#
# Elastic Compliance Matrix: (Units=1/GPa)
#
#
# Indices 1 2 3 4 5 6 
#
# 1 0.025891 -0.003083 -0.018276 0.000000 0.000000 0.000000
# 2 -0.003083 0.022623 -0.005348 0.000000 0.000000 0.000000
# 3 -0.018276 -0.005348 0.024514 0.000000 0.000000 0.000000
# 4 0.000000 0.000000 0.000000 0.025153 0.000000 0.000000
# 5 0.000000 0.000000 0.000000 0.000000 0.025909 0.000000
# 6 0.000000 0.000000 0.000000 0.000000 0.000000 0.068853
#
#
# Mechanical properties :
#
#
# Convention : Reuss Voigt Hill
#
# Bulk Modulus (GPa) = 50.98092 63.75804 57.36948
# Shear Modulus (GPa) = 19.77111 26.29086 23.03099
#
# Velocity S-wave (km/s) = 3.31171 3.81891 3.57431
# Velocity P-wave (km/s) = 6.55006 7.40359 6.98987
#
# Compressibility (1/GPa) = 0.01961518
#
# Stress axis : x y z
#
# Youngs Moduli (GPa) = 38.62365 44.20192 40.79316
#
# Poissons Ratio (x) = 0.13628 0.74553
# Poissons Ratio (y) = 0.11909 0.21814
# Poissons Ratio (z) = 0.70588 0.23637
#
# Static dielectric constant tensor:
#      x y z
#    x 3.362440 0.000000 0.000000 
#    y 0.000000 3.265640 0.000000 
#    z 0.000000 0.000000 3.243260 
# 
# 
# High freq. dielectric constant tensor:
#      x y z
#    x 1.691500 0.000000 0.000000 
#    y 0.000000 1.684800 0.000000 
#    z 0.000000 0.000000 1.683890 
# 
# From -- ./inp_files/54623.got.cif
#   From: 2010.03.12/outbox.cif.g09.slc.cpg/sg65_28_cif.got.tgz:54623.got - 2010.04.10 20:52:16.
