data_PCOD8272405
_publ_section_title
;
Structure prediction by ZEFSAII (Michael W. Deem and Ramdas Pophale) SiO2 
 PCOD8272405
Probable space group: C M M M
;
_chemical_formula_sum "Si O2"
_cell_formula_units_Z 72
_cell_length_a 30.213364
_cell_length_b 14.957095
_cell_length_c 8.083535
_cell_angle_alpha 90.000000
_cell_angle_beta 90.000000
_cell_angle_gamma 90.000000
_cell_volume 3652.983059
_symmetry_space_group_name_H-M "C M M M"
_symmetry_group_IT_number 65
_symmetry_cell_setting 'orthorhombic'
loop_
_space_group_symop_operation_xyz
x,y,z
-x,-y,z
x,-y,-z
-x,y,-z
-x,-y,-z
x,y,-z
-x,y,z
x,-y,z
1/2+x,1/2+y,z
1/2-x,1/2-y,z
1/2+x,1/2-y,-z
1/2-x,1/2+y,-z
1/2-x,1/2-y,-z
1/2+x,1/2+y,-z
1/2-x,1/2+y,z
1/2+x,1/2-y,z
loop_
_atom_site_type_symbol
_atom_site_label
_atom_site_fract_x
_atom_site_fract_y
_atom_site_fract_z
Si Si1 0.050534 0.787134 0.813058
Si Si2 0.268094 0.500000 0.191559
Si Si3 0.669781 0.000000 0.197310
Si Si4 0.210009 0.809639 0.690334
Si Si5 0.947922 0.902546 0.500000
Si Si6 0.864287 0.685683 0.189066
O O1 0.066400 0.855461 0.671119
O O2 0.083092 0.702569 0.795981
O O3 0.000000 0.755308 0.782387
O O4 0.054975 0.828690 0.000000
O O5 0.219216 0.500000 0.272937
O O6 0.294029 0.409545 0.237015
O O7 0.260314 0.500000 0.000000
O O8 0.645059 0.911872 0.265867
O O9 0.668374 0.000000 0.000000
O O10 0.220677 0.822002 0.500000
O O11 0.250000 0.750000 0.770931
O O12 0.163160 0.761262 0.714925
O O13 0.000000 0.912177 0.500000
O O14 0.925262 0.000000 0.500000
O O15 0.848198 0.689856 0.000000
#
# Coordination Sequence:
#
# PCOD8272405 Si02
#       6
#    16   8   8  16   8  16
#     4   9  19  36  58  84 117 154 191 237 291 344
#     4  11  21  37  59  80 108 148 192 234 279 334
#     4   9  18  33  58  85 109 143 193 239 276 336
#     4  11  23  37  55  81 115 147 183 233 288 341
#     4   9  18  34  58  83 108 145 193 241 289 341
#     4  10  20  37  59  84 112 149 194 235 282 338
#
# _framework density 19.709917999999998
#
# number of rings (size 3 to 8) (size 9 to 14) (size 15 to 20)
#    0.000    2.111    2.222    1.000    1.556    1.333 
#    2.000    3.333    0.000    3.333    0.000    2.333 
#    0.000    0.000    0.000    0.000    0.000    0.000 
#
# Total GULP energy -446202.901722 kJ/mol
# GULP energy per Si atom -12394.525048 kJ/mol
# Density = 1.966506 g / cm^3
# Si number density = 19.709918 Si / 1000 Ang^3
#
#
#
# Elastic Constant Matrix: (Units=GPa)
#
#
# Indices 1 2 3 4 5 6 
#
# 1 100.5177 61.5280 21.8722 0.0000 0.0000 0.0000
# 2 61.5280 174.1179 37.8229 0.0000 0.0000 0.0000
# 3 21.8722 37.8229 75.1707 0.0000 0.0000 0.0000
# 4 0.0000 0.0000 0.0000 15.8212 0.0000 0.0000
# 5 0.0000 0.0000 0.0000 0.0000 19.9628 0.0000
# 6 0.0000 0.0000 0.0000 0.0000 0.0000 22.9289
#
#
#
# Elastic Compliance Matrix: (Units=1/GPa)
#
#
# Indices 1 2 3 4 5 6 
#
# 1 0.012871 -0.004193 -0.001635 0.000000 0.000000 0.000000
# 2 -0.004193 0.007814 -0.002712 0.000000 0.000000 0.000000
# 3 -0.001635 -0.002712 0.015143 0.000000 0.000000 0.000000
# 4 0.000000 0.000000 0.000000 0.063206 0.000000 0.000000
# 5 0.000000 0.000000 0.000000 0.000000 0.050093 0.000000
# 6 0.000000 0.000000 0.000000 0.000000 0.000000 0.043613
#
#
# Mechanical properties :
#
#
# Convention : Reuss Voigt Hill
#
# Bulk Modulus (GPa) = 53.33810 65.80584 59.57197
# Shear Modulus (GPa) = 23.14066 26.98145 25.06105
#
# Velocity S-wave (km/s) = 3.43018 3.70392 3.56967
# Velocity P-wave (km/s) = 6.54282 7.19386 6.87605
#
# Compressibility (1/GPa) = 0.01874832
#
# Stress axis : x y z
#
# Youngs Moduli (GPa) = 77.69480 127.97641 66.03595
#
# Poissons Ratio (x) = 0.53660 0.10799
# Poissons Ratio (y) = 0.32577 0.17907
# Poissons Ratio (z) = 0.12705 0.34703
#
# Static dielectric constant tensor:
#      x y z
#    x 3.426650 0.000000 0.000000 
#    y 0.000000 3.801720 0.000000 
#    z 0.000000 0.000000 3.596390 
# 
# 
# High freq. dielectric constant tensor:
#      x y z
#    x 1.757210 0.000000 0.000000 
#    y 0.000000 1.758620 0.000000 
#    z 0.000000 0.000000 1.765640 
# 
# From -- ./inp_files/7736.got.cif
#   From: 2010.03.12/outbox.cif.g09.slc.cpg/sg65_4_cif.got.tgz:7736.got - 2010.04.10 20:52:16.
