data_PCOD8272517
_publ_section_title
;
Structure prediction by ZEFSAII (Michael W. Deem and Ramdas Pophale) SiO2 
 PCOD8272517
Probable space group: C M M M
;
_chemical_formula_sum "Si O2"
_cell_formula_units_Z 64
_cell_length_a 8.542069
_cell_length_b 15.315514
_cell_length_c 24.192448
_cell_angle_alpha 90.000000
_cell_angle_beta 90.000000
_cell_angle_gamma 90.000000
_cell_volume 3165.005493
_symmetry_space_group_name_H-M "C M M M"
_symmetry_group_IT_number 65
_symmetry_cell_setting 'orthorhombic'
loop_
_space_group_symop_operation_xyz
x,y,z
-x,-y,z
x,-y,-z
-x,y,-z
-x,-y,-z
x,y,-z
-x,y,z
x,-y,z
1/2+x,1/2+y,z
1/2-x,1/2-y,z
1/2+x,1/2-y,-z
1/2-x,1/2+y,-z
1/2-x,1/2-y,-z
1/2+x,1/2+y,-z
1/2-x,1/2+y,z
1/2+x,1/2-y,z
loop_
_atom_site_type_symbol
_atom_site_label
_atom_site_fract_x
_atom_site_fract_y
_atom_site_fract_z
Si Si1 0.185126 0.159053 0.382500
Si Si2 0.313743 0.848421 0.879906
Si Si3 0.183783 0.000000 0.194364
Si Si4 0.813825 0.902124 0.500000
Si Si5 0.683266 0.000000 0.685165
Si Si6 0.818041 0.655829 0.000000
O O1 0.250000 0.250000 0.359555
O O2 0.249547 0.145274 0.444983
O O3 0.243671 0.084976 0.342037
O O4 0.000000 0.158877 0.381766
O O5 0.500000 0.849093 0.869853
O O6 0.250000 0.750000 0.872174
O O7 0.229074 0.912007 0.837538
O O8 0.270289 0.887994 0.941396
O O9 0.279708 0.000000 0.250558
O O10 0.000000 0.000000 0.206535
O O11 0.000000 0.904226 0.500000
O O12 0.746823 0.000000 0.500000
O O13 0.500000 0.000000 0.675078
O O14 0.750000 0.750000 0.000000
O O15 0.000000 0.668169 0.000000
#
# Coordination Sequence:
#
# PCOD8272517 Si02
#       6
#    16  16   8   8   8   8
#     4  11  22  40  65  94 127 163 202 246 298 357
#     4  10  20  38  62  91 124 160 199 246 299 358
#     4  12  26  43  62  87 117 158 206 254 305 360
#     4   9  17  34  62  93 128 166 198 239 296 353
#     4  12  26  45  64  87 117 156 206 258 307 358
#     4   8  16  31  56  87 122 158 194 237 294 355
#
# _framework density 20.221133999999999
#
# number of rings (size 3 to 8) (size 9 to 14) (size 15 to 20)
#    0.000    1.625    1.250    4.125    0.000    2.500 
#    0.000   10.000    0.000    0.000    0.000    0.000 
#    0.000    0.000    0.000    0.000    0.000    0.000 
#
# Total GULP energy -396637.828695 kJ/mol
# GULP energy per Si atom -12394.932147 kJ/mol
# Density = 2.017511 g / cm^3
# Si number density = 20.221134 Si / 1000 Ang^3
#
#
#
# Elastic Constant Matrix: (Units=GPa)
#
#
# Indices 1 2 3 4 5 6 
#
# 1 61.1817 26.4468 16.0927 0.0000 0.0000 0.0000
# 2 26.4468 141.2448 53.4093 0.0000 0.0000 0.0000
# 3 16.0927 53.4093 123.6046 0.0000 0.0000 0.0000
# 4 0.0000 0.0000 0.0000 79.7386 0.0000 0.0000
# 5 0.0000 0.0000 0.0000 0.0000 28.3913 0.0000
# 6 0.0000 0.0000 0.0000 0.0000 0.0000 33.6899
#
#
#
# Elastic Compliance Matrix: (Units=1/GPa)
#
#
# Indices 1 2 3 4 5 6 
#
# 1 0.017898 -0.002953 -0.001054 0.000000 0.000000 0.000000
# 2 -0.002953 0.008950 -0.003483 0.000000 0.000000 0.000000
# 3 -0.001054 -0.003483 0.009732 0.000000 0.000000 0.000000
# 4 0.000000 0.000000 0.000000 0.012541 0.000000 0.000000
# 5 0.000000 0.000000 0.000000 0.000000 0.035222 0.000000
# 6 0.000000 0.000000 0.000000 0.000000 0.000000 0.029682
#
#
# Mechanical properties :
#
#
# Convention : Reuss Voigt Hill
#
# Bulk Modulus (GPa) = 46.29416 57.54763 51.92090
# Shear Modulus (GPa) = 36.70909 43.70278 40.20593
#
# Velocity S-wave (km/s) = 4.26535 4.65396 4.46389
# Velocity P-wave (km/s) = 6.87032 7.57628 7.23192
#
# Compressibility (1/GPa) = 0.02160099
#
# Stress axis : x y z
#
# Youngs Moduli (GPa) = 55.87088 111.73577 102.74868
#
# Poissons Ratio (x) = 0.32991 0.10835
# Poissons Ratio (y) = 0.16496 0.35785
# Poissons Ratio (z) = 0.05891 0.38915
#
# Static dielectric constant tensor:
#      x y z
#    x 3.412410 0.000000 0.000000 
#    y 0.000000 3.651750 0.000000 
#    z 0.000000 0.000000 4.086860 
# 
# 
# High freq. dielectric constant tensor:
#      x y z
#    x 1.788970 0.000000 0.000000 
#    y 0.000000 1.791470 0.000000 
#    z 0.000000 0.000000 1.801030 
# 
# From -- ./inp_files/66905.got.cif
#   From: 2010.03.12/outbox.cif.g09.slc.cpg/sg65_34_cif.got.tgz:66905.got - 2010.04.10 20:52:16.
