data_PCOD8272445
_publ_section_title
;
Structure prediction by ZEFSAII (Michael W. Deem and Ramdas Pophale) SiO2 
 PCOD8272445
Probable space group: C M M M
;
_chemical_formula_sum "Si O2"
_cell_formula_units_Z 48
_cell_length_a 8.552543
_cell_length_b 16.091377
_cell_length_c 17.119095
_cell_angle_alpha 90.000000
_cell_angle_beta 90.000000
_cell_angle_gamma 90.000000
_cell_volume 2355.967408
_symmetry_space_group_name_H-M "C M M M"
_symmetry_group_IT_number 65
_symmetry_cell_setting 'orthorhombic'
loop_
_space_group_symop_operation_xyz
x,y,z
-x,-y,z
x,-y,-z
-x,y,-z
-x,-y,-z
x,y,-z
-x,y,z
x,-y,z
1/2+x,1/2+y,z
1/2-x,1/2-y,z
1/2+x,1/2-y,-z
1/2-x,1/2+y,-z
1/2-x,1/2-y,-z
1/2+x,1/2+y,-z
1/2-x,1/2+y,z
1/2+x,1/2-y,z
loop_
_atom_site_type_symbol
_atom_site_label
_atom_site_fract_x
_atom_site_fract_y
_atom_site_fract_z
Si Si1 0.185997 0.500000 0.911657
Si Si2 0.315232 0.841119 0.815191
Si Si3 0.831140 0.592965 0.500000
Si Si4 0.183531 0.837975 0.648707
O O1 0.248247 0.584938 0.871035
O O2 0.000000 0.500000 0.908377
O O3 0.248948 0.500000 0.000000
O O4 0.500000 0.834598 0.819718
O O5 0.250000 0.750000 0.839225
O O6 0.265142 0.867701 0.728304
O O7 0.884067 0.500000 0.500000
O O8 0.725922 0.604317 0.423405
O O9 0.000000 0.643047 0.500000
O O10 0.250000 0.750000 0.623114
O O11 0.000000 0.835059 0.663850
#
# Coordination Sequence:
#
# PCOD8272445 Si02
#       4
#     8  16   8  16
#     4   9  20  38  61  88 119 156 195 237 294 363
#     4  10  20  37  61  88 118 156 199 243 295 352
#     4  11  24  39  56  81 115 153 194 237 288 343
#     4  11  22  38  59  83 114 151 194 240 290 342
#
# _framework density 20.373795999999999
#
# number of rings (size 3 to 8) (size 9 to 14) (size 15 to 20)
#    0.000    1.667    0.000    7.000    2.333    2.000 
#    0.000    2.500    0.000    7.000    0.000    0.000 
#    0.000    0.000    0.000    0.000    0.000    0.000 
#
# Total GULP energy -297467.249436 kJ/mol
# GULP energy per Si atom -12394.468726 kJ/mol
# Density = 2.032742 g / cm^3
# Si number density = 20.373796 Si / 1000 Ang^3
#
#
#
# Elastic Constant Matrix: (Units=GPa)
#
#
# Indices 1 2 3 4 5 6 
#
# 1 86.9690 35.7326 21.7148 0.0000 0.0000 0.0000
# 2 35.7326 133.8355 91.6716 0.0000 0.0000 0.0000
# 3 21.7148 91.6716 148.0235 0.0000 0.0000 0.0000
# 4 0.0000 0.0000 0.0000 37.4357 0.0000 0.0000
# 5 0.0000 0.0000 0.0000 0.0000 40.9726 0.0000
# 6 0.0000 0.0000 0.0000 0.0000 0.0000 25.4918
#
#
#
# Elastic Compliance Matrix: (Units=1/GPa)
#
#
# Indices 1 2 3 4 5 6 
#
# 1 0.012930 -0.003739 0.000419 0.000000 0.000000 0.000000
# 2 -0.003739 0.014058 -0.008157 0.000000 0.000000 0.000000
# 3 0.000419 -0.008157 0.011746 0.000000 0.000000 0.000000
# 4 0.000000 0.000000 0.000000 0.026712 0.000000 0.000000
# 5 0.000000 0.000000 0.000000 0.000000 0.024407 0.000000
# 6 0.000000 0.000000 0.000000 0.000000 0.000000 0.039228
#
#
# Mechanical properties :
#
#
# Convention : Reuss Voigt Hill
#
# Bulk Modulus (GPa) = 63.37745 74.11842 68.74793
# Shear Modulus (GPa) = 31.78719 35.42729 33.60724
#
# Velocity S-wave (km/s) = 3.95422 4.17449 4.06585
# Velocity P-wave (km/s) = 7.21268 7.72615 7.47383
#
# Compressibility (1/GPa) = 0.01577848
#
# Stress axis : x y z
#
# Youngs Moduli (GPa) = 77.33938 71.13566 85.13394
#
# Poissons Ratio (x) = 0.26598 -0.03565
# Poissons Ratio (y) = 0.28917 0.69448
# Poissons Ratio (z) = -0.03239 0.58029
#
# Static dielectric constant tensor:
#      x y z
#    x 3.614330 0.000000 0.000000 
#    y 0.000000 3.840130 0.000000 
#    z 0.000000 0.000000 3.765960 
# 
# 
# High freq. dielectric constant tensor:
#      x y z
#    x 1.797380 0.000000 0.000000 
#    y 0.000000 1.796770 0.000000 
#    z 0.000000 0.000000 1.796490 
# 
# From -- ./inp_files/35071.got.cif
#   From: 2010.03.12/outbox.cif.g09.slc.cpg/sg65_18_cif.got.tgz:35071.got - 2010.04.10 20:52:16.
