data_PCOD8272856
_publ_section_title
;
Structure prediction by ZEFSAII (Michael W. Deem and Ramdas Pophale) SiO2 
 PCOD8272856
Probable space group: C M M M
;
_chemical_formula_sum "Si O2"
_cell_formula_units_Z 88
_cell_length_a 17.855783
_cell_length_b 10.343564
_cell_length_c 25.140041
_cell_angle_alpha 90.000000
_cell_angle_beta 90.000000
_cell_angle_gamma 90.000000
_cell_volume 4643.175369
_symmetry_space_group_name_H-M "C M M M"
_symmetry_group_IT_number 65
_symmetry_cell_setting 'orthorhombic'
loop_
_space_group_symop_operation_xyz
x,y,z
-x,-y,z
x,-y,-z
-x,y,-z
-x,-y,-z
x,y,-z
-x,y,z
x,-y,z
1/2+x,1/2+y,z
1/2-x,1/2-y,z
1/2+x,1/2-y,-z
1/2-x,1/2+y,-z
1/2-x,1/2-y,-z
1/2+x,1/2+y,-z
1/2-x,1/2+y,z
1/2+x,1/2-y,z
loop_
_atom_site_type_symbol
_atom_site_label
_atom_site_fract_x
_atom_site_fract_y
_atom_site_fract_z
Si Si1 0.088922 0.855582 0.440586
Si Si2 0.917585 0.645275 0.842886
Si Si3 0.682256 0.848834 0.252465
Si Si4 0.838129 0.742599 0.938924
Si Si5 0.917102 0.000000 0.937079
Si Si6 0.912881 0.354329 0.357765
O O1 0.119884 0.827818 0.500000
O O2 0.120844 0.747116 0.400548
O O3 0.000000 0.847082 0.441667
O O4 0.113870 0.000000 0.422171
O O5 0.931071 0.500000 0.824367
O O6 0.863558 0.706745 0.798436
O O7 0.876516 0.639389 0.900400
O O8 0.000000 0.713557 0.846196
O O9 0.750000 0.750000 0.260202
O O10 0.629200 0.834629 0.302865
O O11 0.708022 0.000000 0.245322
O O12 0.750000 0.750000 0.931627
O O13 0.871349 0.876950 0.917721
O O14 0.859330 0.710302 0.000000
O O15 0.000000 0.000000 0.911890
O O16 0.922125 0.000000 0.000000
O O17 0.901020 0.500000 0.379818
O O18 0.000000 0.326868 0.346857
#
# Coordination Sequence:
#
# PCOD8272856 Si02
#       6
#    16  16  16  16   8  16
#     4   8  14  25  43  71 108 145 177 214 263 314
#     4  10  21  37  57  79 105 136 171 216 268 321
#     4  10  21  38  57  77 104 138 176 218 269 324
#     4  10  21  35  55  81 110 142 178 218 263 319
#     4   9  18  34  54  74 103 143 179 213 261 319
#     4   9  17  30  51  77 104 137 177 220 265 315
#
# _framework density 18.952546999999999
#
# number of rings (size 3 to 8) (size 9 to 14) (size 15 to 20)
#    0.000    2.636    0.000    2.182    1.273    4.727 
#    1.636    2.727    0.000    1.636    0.000    0.000 
#    0.000    0.000    0.000    0.000    0.000    0.000 
#
# Total GULP energy -545308.248636 kJ/mol
# GULP energy per Si atom -12393.369287 kJ/mol
# Density = 1.890941 g / cm^3
# Si number density = 18.952547 Si / 1000 Ang^3
#
#
#
# Elastic Constant Matrix: (Units=GPa)
#
#
# Indices 1 2 3 4 5 6 
#
# 1 86.3087 45.6655 41.2669 0.0000 0.0000 0.0000
# 2 45.6655 93.5183 57.0888 0.0000 0.0000 0.0000
# 3 41.2669 57.0888 117.8970 0.0000 0.0000 0.0000
# 4 0.0000 0.0000 0.0000 29.8999 0.0000 0.0000
# 5 0.0000 0.0000 0.0000 0.0000 15.5670 0.0000
# 6 0.0000 0.0000 0.0000 0.0000 0.0000 27.1449
#
#
#
# Elastic Compliance Matrix: (Units=1/GPa)
#
#
# Indices 1 2 3 4 5 6 
#
# 1 0.016168 -0.006304 -0.002607 0.000000 0.000000 0.000000
# 2 -0.006304 0.017638 -0.006334 0.000000 0.000000 0.000000
# 3 -0.002607 -0.006334 0.012462 0.000000 0.000000 0.000000
# 4 0.000000 0.000000 0.000000 0.033445 0.000000 0.000000
# 5 0.000000 0.000000 0.000000 0.000000 0.064239 0.000000
# 6 0.000000 0.000000 0.000000 0.000000 0.000000 0.036839
#
#
# Mechanical properties :
#
#
# Convention : Reuss Voigt Hill
#
# Bulk Modulus (GPa) = 63.37891 65.08515 64.23203
# Shear Modulus (GPa) = 23.09051 24.76922 23.92986
#
# Velocity S-wave (km/s) = 3.49425 3.61904 3.55719
# Velocity P-wave (km/s) = 7.05643 7.20270 7.12994
#
# Compressibility (1/GPa) = 0.01577812
#
# Stress axis : x y z
#
# Youngs Moduli (GPa) = 61.85106 56.69572 80.24572
#
# Poissons Ratio (x) = 0.35738 0.20919
# Poissons Ratio (y) = 0.38988 0.50831
# Poissons Ratio (z) = 0.16124 0.35913
#
# Static dielectric constant tensor:
#      x y z
#    x 3.390900 0.000000 0.000000 
#    y 0.000000 3.544690 0.000000 
#    z 0.000000 0.000000 3.500340 
# 
# 
# High freq. dielectric constant tensor:
#      x y z
#    x 1.722210 0.000000 0.000000 
#    y 0.000000 1.729330 0.000000 
#    z 0.000000 0.000000 1.733530 
# 
# From -- ./inp_files/69788.got.cif
#   From: 2010.03.12/outbox.cif.g09.slc.cpg/sg65_35_cif.got.tgz:69788.got - 2010.04.10 20:52:16.
