data_PCOD8272536
_publ_section_title
;
Structure prediction by ZEFSAII (Michael W. Deem and Ramdas Pophale) SiO2 
 PCOD8272536
Probable space group: C M M M
;
_chemical_formula_sum "Si O2"
_cell_formula_units_Z 112
_cell_length_a 15.296819
_cell_length_b 23.781407
_cell_length_c 14.025652
_cell_angle_alpha 90.000000
_cell_angle_beta 90.000000
_cell_angle_gamma 90.000000
_cell_volume 5102.249980
_symmetry_space_group_name_H-M "C M M M"
_symmetry_group_IT_number 65
_symmetry_cell_setting 'orthorhombic'
loop_
_space_group_symop_operation_xyz
x,y,z
-x,-y,z
x,-y,-z
-x,y,-z
-x,-y,-z
x,y,-z
-x,y,z
x,-y,z
1/2+x,1/2+y,z
1/2-x,1/2-y,z
1/2+x,1/2-y,-z
1/2-x,1/2+y,-z
1/2-x,1/2-y,-z
1/2+x,1/2+y,-z
1/2-x,1/2+y,z
1/2+x,1/2-y,z
loop_
_atom_site_type_symbol
_atom_site_label
_atom_site_fract_x
_atom_site_fract_y
_atom_site_fract_z
Si Si1 0.600101 0.883007 0.112426
Si Si2 0.849580 0.259952 0.887818
Si Si3 0.594686 0.834322 0.612304
Si Si4 0.895621 0.212546 0.605337
Si Si5 0.731644 0.438153 0.194339
Si Si6 0.290359 0.938115 0.606854
Si Si7 0.097668 0.151881 0.788614
O O1 0.500000 0.901385 0.134378
O O2 0.616686 0.819839 0.152107
O O3 0.669163 0.924051 0.163419
O O4 0.618905 0.885190 0.000000
O O5 0.750000 0.250000 0.856958
O O6 0.907787 0.210216 0.845251
O O7 0.862210 0.258541 0.000000
O O8 0.582881 0.835626 0.500000
O O9 0.500000 0.838877 0.662383
O O10 0.640908 0.774340 0.637955
O O11 0.646682 0.889065 0.644885
O O12 0.859627 0.195773 0.500000
O O13 0.866907 0.165329 0.681210
O O14 0.000000 0.218278 0.602096
O O15 0.709041 0.500000 0.152508
O O16 0.718349 0.440249 0.309605
O O17 0.661852 0.391975 0.157755
O O18 0.252590 0.925147 0.500000
O O19 0.336925 0.000000 0.604288
O O20 0.000000 0.126230 0.785118
#
# Coordination Sequence:
#
# PCOD8272536 Si02
#       7
#    16  16  16  16  16  16  16
#     4  10  22  42  68  95 123 157 197 244 299 359
#     4  10  20  38  65  96 129 160 191 237 298 363
#     4   8  14  26  46  73 106 144 186 236 293 350
#     4   8  16  31  51  81 119 154 194 247 303 357
#     4  11  25  42  60  86 121 159 206 260 304 353
#     4   9  19  35  52  73 109 159 208 250 293 345
#     4  11  23  38  62  91 120 162 206 248 303 363
#
# _framework density 21.9511
#
# number of rings (size 3 to 8) (size 9 to 14) (size 15 to 20)
#    0.000    2.429    1.429    1.286    2.000    3.143 
#    0.000    3.571    0.000    3.000    0.000    6.000 
#    0.000    0.000    0.000    0.000    0.000    0.000 
#
# Total GULP energy -693877.728168 kJ/mol
# GULP energy per Si atom -12390.673717 kJ/mol
# Density = 2.190114 g / cm^3
# Si number density = 21.951100 Si / 1000 Ang^3
#
#
#
# Elastic Constant Matrix: (Units=GPa)
#
#
# Indices 1 2 3 4 5 6 
#
# 1 65.5853 40.1628 16.3694 0.0000 0.0000 0.0000
# 2 40.1628 135.6846 13.1899 0.0000 0.0000 0.0000
# 3 16.3694 13.1899 31.0829 0.0000 0.0000 0.0000
# 4 0.0000 0.0000 0.0000 19.7909 0.0000 0.0000
# 5 0.0000 0.0000 0.0000 0.0000 20.9213 0.0000
# 6 0.0000 0.0000 0.0000 0.0000 0.0000 21.0118
#
#
#
# Elastic Compliance Matrix: (Units=1/GPa)
#
#
# Indices 1 2 3 4 5 6 
#
# 1 0.020626 -0.005267 -0.008627 0.000000 0.000000 0.000000
# 2 -0.005267 0.009032 -0.001059 0.000000 0.000000 0.000000
# 3 -0.008627 -0.001059 0.037165 0.000000 0.000000 0.000000
# 4 0.000000 0.000000 0.000000 0.050528 0.000000 0.000000
# 5 0.000000 0.000000 0.000000 0.000000 0.047798 0.000000
# 6 0.000000 0.000000 0.000000 0.000000 0.000000 0.047592
#
#
# Mechanical properties :
#
#
# Convention : Reuss Voigt Hill
#
# Bulk Modulus (GPa) = 27.08820 41.31079 34.19949
# Shear Modulus (GPa) = 19.61145 23.18684 21.39915
#
# Velocity S-wave (km/s) = 2.99225 3.25360 3.12565
# Velocity P-wave (km/s) = 4.93002 5.74237 5.35163
#
# Compressibility (1/GPa) = 0.03691645
#
# Stress axis : x y z
#
# Youngs Moduli (GPa) = 48.48312 110.71874 26.90706
#
# Poissons Ratio (x) = 0.58311 0.23214
# Poissons Ratio (y) = 0.25534 0.02850
# Poissons Ratio (z) = 0.41828 0.11726
#
# Static dielectric constant tensor:
#      x y z
#    x 3.624710 0.000000 0.000000 
#    y 0.000000 4.103760 0.000000 
#    z 0.000000 0.000000 3.997060 
# 
# 
# High freq. dielectric constant tensor:
#      x y z
#    x 1.827820 0.000000 0.000000 
#    y 0.000000 1.860570 0.000000 
#    z 0.000000 0.000000 1.866460 
# 
# From -- ./inp_files/40833.got.cif
#   From: 2010.03.12/outbox.cif.g09.slc.cpg/sg65_21_cif.got.tgz:40833.got - 2010.04.10 20:52:16.
