data_PCOD8272222
_publ_section_title
;
Structure prediction by ZEFSAII (Michael W. Deem and Ramdas Pophale) SiO2 
 PCOD8272222
Probable space group: C M M M
;
_chemical_formula_sum "Si O2"
_cell_formula_units_Z 104
_cell_length_a 8.932177
_cell_length_b 24.073442
_cell_length_c 27.498543
_cell_angle_alpha 90.000000
_cell_angle_beta 90.000000
_cell_angle_gamma 90.000000
_cell_volume 5912.963440
_symmetry_space_group_name_H-M "C M M M"
_symmetry_group_IT_number 65
_symmetry_cell_setting 'orthorhombic'
loop_
_space_group_symop_operation_xyz
x,y,z
-x,-y,z
x,-y,-z
-x,y,-z
-x,-y,-z
x,y,-z
-x,y,z
x,-y,z
1/2+x,1/2+y,z
1/2-x,1/2-y,z
1/2+x,1/2-y,-z
1/2-x,1/2+y,-z
1/2-x,1/2-y,-z
1/2+x,1/2+y,-z
1/2-x,1/2+y,z
1/2+x,1/2-y,z
loop_
_atom_site_type_symbol
_atom_site_label
_atom_site_fract_x
_atom_site_fract_y
_atom_site_fract_z
Si Si1 0.331665 0.434003 0.000000
Si Si2 0.824189 0.391227 0.801536
Si Si3 0.336640 0.500000 0.652297
Si Si4 0.326116 0.192649 0.443723
Si Si5 0.173813 0.436881 0.096134
Si Si6 0.677898 0.309995 0.270151
Si Si7 0.321429 0.619971 0.635271
Si Si8 0.334079 0.500000 0.234452
O O1 0.254430 0.411371 0.048889
O O2 0.319086 0.500000 0.000000
O O3 0.500000 0.412245 0.000000
O O4 0.791730 0.395475 0.859231
O O5 0.740563 0.338036 0.779088
O O6 0.761395 0.446512 0.777896
O O7 0.000000 0.386718 0.790719
O O8 0.500000 0.500000 0.627121
O O9 0.254281 0.557196 0.637240
O O10 0.361259 0.500000 0.709096
O O11 0.298126 0.178715 0.500000
O O12 0.500000 0.197266 0.431071
O O13 0.250000 0.250000 0.428550
O O14 0.250261 0.144641 0.412944
O O15 0.229447 0.500000 0.108593
O O16 0.000000 0.438892 0.084118
O O17 0.500000 0.304789 0.265931
O O18 0.750000 0.250000 0.276563
O O19 0.727555 0.346488 0.316614
O O20 0.500000 0.620173 0.631419
O O21 0.500000 0.500000 0.209258
#
# Coordination Sequence:
#
# PCOD8272222 Si02
#       8
#     8  16   8  16  16  16  16   8
#     4   9  17  27  41  67  98 131 174 217 257 306
#     4  11  21  34  52  78 107 140 182 220 260 318
#     4   9  18  35  54  78 108 141 176 211 252 308
#     4  10  21  37  57  81 107 136 175 222 269 314
#     4   9  17  30  46  67 100 139 173 210 259 311
#     4  11  23  38  55  78 107 141 176 220 269 314
#     4  10  20  36  58  81 108 140 176 214 258 312
#     4  11  19  33  53  75 107 143 178 219 262 309
#
# _framework density 17.588473
#
# number of rings (size 3 to 8) (size 9 to 14) (size 15 to 20)
#    0.000    1.923    2.308    2.308    0.000    5.538 
#    0.000    0.769    0.000    2.308    0.000    0.538 
#    0.000    0.000    0.000    0.000    0.000    0.000 
#
# Total GULP energy -644701.672460 kJ/mol
# GULP energy per Si atom -12398.109086 kJ/mol
# Density = 1.754844 g / cm^3
# Si number density = 17.588473 Si / 1000 Ang^3
#
#
#
# Elastic Constant Matrix: (Units=GPa)
#
#
# Indices 1 2 3 4 5 6 
#
# 1 69.4442 48.8900 48.0053 0.0000 0.0000 0.0000
# 2 48.8900 134.7652 63.3432 0.0000 0.0000 0.0000
# 3 48.0053 63.3432 101.8128 0.0000 0.0000 0.0000
# 4 0.0000 0.0000 0.0000 21.3802 0.0000 0.0000
# 5 0.0000 0.0000 0.0000 0.0000 29.9218 0.0000
# 6 0.0000 0.0000 0.0000 0.0000 0.0000 25.7402
#
#
#
# Elastic Compliance Matrix: (Units=1/GPa)
#
#
# Indices 1 2 3 4 5 6 
#
# 1 0.023248 -0.004638 -0.008076 0.000000 0.000000 0.000000
# 2 -0.004638 0.011412 -0.004913 0.000000 0.000000 0.000000
# 3 -0.008076 -0.004913 0.016687 0.000000 0.000000 0.000000
# 4 0.000000 0.000000 0.000000 0.046772 0.000000 0.000000
# 5 0.000000 0.000000 0.000000 0.000000 0.033420 0.000000
# 6 0.000000 0.000000 0.000000 0.000000 0.000000 0.038850
#
#
# Mechanical properties :
#
#
# Convention : Reuss Voigt Hill
#
# Bulk Modulus (GPa) = 62.14155 69.61101 65.87628
# Shear Modulus (GPa) = 23.69574 25.12735 24.41155
#
# Velocity S-wave (km/s) = 3.67445 3.78382 3.72953
# Velocity P-wave (km/s) = 7.30819 7.66507 7.48875
#
# Compressibility (1/GPa) = 0.01609229
#
# Stress axis : x y z
#
# Youngs Moduli (GPa) = 43.01437 87.62490 59.92788
#
# Poissons Ratio (x) = 0.40640 0.48398
# Poissons Ratio (y) = 0.19950 0.29445
# Poissons Ratio (z) = 0.34739 0.43053
#
# Static dielectric constant tensor:
#      x y z
#    x 3.308080 0.000000 0.000000 
#    y 0.000000 5.286010 0.000000 
#    z 0.000000 0.000000 3.328460 
# 
# 
# High freq. dielectric constant tensor:
#      x y z
#    x 1.683220 0.000000 0.000000 
#    y 0.000000 1.657550 0.000000 
#    z 0.000000 0.000000 1.680880 
# 
# From -- ./inp_files/73612.got.cif
#   From: 2010.03.12/outbox.cif.g09.slc.cpg/sg65_37_cif.got.tgz:73612.got - 2010.04.10 20:52:16.
