data_PCOD8272110
_publ_section_title
;
Structure prediction by ZEFSAII (Michael W. Deem and Ramdas Pophale) SiO2 
 PCOD8272110
Probable space group: C M M M
;
_chemical_formula_sum "Si O2"
_cell_formula_units_Z 64
_cell_length_a 14.479031
_cell_length_b 8.926080
_cell_length_c 26.716206
_cell_angle_alpha 90.000000
_cell_angle_beta 90.000000
_cell_angle_gamma 90.000000
_cell_volume 3452.828887
_symmetry_space_group_name_H-M "C M M M"
_symmetry_group_IT_number 65
_symmetry_cell_setting 'orthorhombic'
loop_
_space_group_symop_operation_xyz
x,y,z
-x,-y,z
x,-y,-z
-x,y,-z
-x,-y,-z
x,y,-z
-x,y,z
x,-y,z
1/2+x,1/2+y,z
1/2-x,1/2-y,z
1/2+x,1/2-y,-z
1/2-x,1/2+y,-z
1/2-x,1/2-y,-z
1/2+x,1/2+y,-z
1/2-x,1/2+y,z
1/2+x,1/2-y,z
loop_
_atom_site_type_symbol
_atom_site_label
_atom_site_fract_x
_atom_site_fract_y
_atom_site_fract_z
Si Si1 0.654030 0.171475 0.500000
Si Si2 0.649875 0.823104 0.391902
Si Si3 0.000000 0.177469 0.789130
Si Si4 0.500000 0.677825 0.944269
Si Si5 0.500000 0.321656 0.324244
Si Si6 0.650182 0.322745 0.133657
O O1 0.750000 0.250000 0.500000
O O2 0.602893 0.208139 0.552788
O O3 0.680665 0.000000 0.500000
O O4 0.750000 0.750000 0.389635
O O5 0.590464 0.743217 0.349983
O O6 0.655225 0.000000 0.380864
O O7 0.092609 0.232516 0.817622
O O8 0.000000 0.237734 0.732651
O O9 0.000000 0.000000 0.790078
O O10 0.500000 0.500000 0.946638
O O11 0.592434 0.730017 0.915196
O O12 0.500000 0.748136 0.000000
O O13 0.500000 0.500000 0.327748
O O14 0.662693 0.500000 0.134147
O O15 0.750000 0.250000 0.133410
#
# Coordination Sequence:
#
# PCOD8272110 Si02
#       6
#     8  16   8   8   8  16
#     4   8  16  31  52  73  98 130 162 199 244 299
#     4  10  20  36  55  77 103 132 166 205 252 305
#     4   8  18  36  52  67  95 133 169 205 247 298
#     4   8  15  29  49  73 104 139 168 195 237 296
#     4  11  22  36  53  75 102 133 170 212 257 304
#     4   9  17  32  53  74  97 130 170 207 245 291
#
# _framework density 18.535526000000001
#
# number of rings (size 3 to 8) (size 9 to 14) (size 15 to 20)
#    0.000    2.875    0.000    2.625    0.000    3.000 
#    0.000   10.000    0.000    0.750    0.000    0.000 
#    0.000    0.000    0.000    0.000    0.000    0.000 
#
# Total GULP energy -396448.985615 kJ/mol
# GULP energy per Si atom -12389.030800 kJ/mol
# Density = 1.849334 g / cm^3
# Si number density = 18.535526 Si / 1000 Ang^3
#
#
#
# Elastic Constant Matrix: (Units=GPa)
#
#
# Indices 1 2 3 4 5 6 
#
# 1 149.5242 39.7116 89.4848 0.0000 0.0000 0.0000
# 2 39.7116 54.8607 48.1571 0.0000 0.0000 0.0000
# 3 89.4848 48.1571 199.6847 0.0000 0.0000 0.0000
# 4 0.0000 0.0000 0.0000 19.1215 0.0000 0.0000
# 5 0.0000 0.0000 0.0000 0.0000 21.9460 0.0000
# 6 0.0000 0.0000 0.0000 0.0000 0.0000 34.4495
#
#
#
# Elastic Compliance Matrix: (Units=1/GPa)
#
#
# Indices 1 2 3 4 5 6 
#
# 1 0.009821 -0.004117 -0.003408 0.000000 0.000000 0.000000
# 2 -0.004117 0.024849 -0.004148 0.000000 0.000000 0.000000
# 3 -0.003408 -0.004148 0.007535 0.000000 0.000000 0.000000
# 4 0.000000 0.000000 0.000000 0.052297 0.000000 0.000000
# 5 0.000000 0.000000 0.000000 0.000000 0.045566 0.000000
# 6 0.000000 0.000000 0.000000 0.000000 0.000000 0.029028
#
#
# Mechanical properties :
#
#
# Convention : Reuss Voigt Hill
#
# Bulk Modulus (GPa) = 53.02402 84.30851 68.66626
# Shear Modulus (GPa) = 25.15974 30.21780 27.68877
#
# Velocity S-wave (km/s) = 3.68826 4.04203 3.86919
# Velocity P-wave (km/s) = 6.84153 8.20778 7.55560
#
# Compressibility (1/GPa) = 0.01885938
#
# Stress axis : x y z
#
# Youngs Moduli (GPa) = 101.82215 40.24267 132.70588
#
# Poissons Ratio (x) = 0.16569 0.45228
# Poissons Ratio (y) = 0.41924 0.55042
# Poissons Ratio (z) = 0.34702 0.16691
#
# Static dielectric constant tensor:
#      x y z
#    x 3.284030 0.000000 0.000000 
#    y 0.000000 3.646870 0.000000 
#    z 0.000000 0.000000 4.116820 
# 
# 
# High freq. dielectric constant tensor:
#      x y z
#    x 1.714910 0.000000 0.000000 
#    y 0.000000 1.697110 0.000000 
#    z 0.000000 0.000000 1.731350 
# 
# From -- ./inp_files/69601.got.cif
#   From: 2010.03.12/outbox.cif.g09.slc.cpg/sg65_35_cif.got.tgz:69601.got - 2010.04.10 20:52:16.
