data_PCOD8272293
_publ_section_title
;
Structure prediction by ZEFSAII (Michael W. Deem and Ramdas Pophale) SiO2 
 PCOD8272293
Probable space group: C M M M
;
_chemical_formula_sum "Si O2"
_cell_formula_units_Z 68
_cell_length_a 27.377881
_cell_length_b 15.279089
_cell_length_c 7.914243
_cell_angle_alpha 90.000000
_cell_angle_beta 90.000000
_cell_angle_gamma 90.000000
_cell_volume 3310.599712
_symmetry_space_group_name_H-M "C M M M"
_symmetry_group_IT_number 65
_symmetry_cell_setting 'orthorhombic'
loop_
_space_group_symop_operation_xyz
x,y,z
-x,-y,z
x,-y,-z
-x,y,-z
-x,-y,-z
x,y,-z
-x,y,z
x,-y,z
1/2+x,1/2+y,z
1/2-x,1/2-y,z
1/2+x,1/2-y,-z
1/2-x,1/2+y,-z
1/2-x,1/2-y,-z
1/2+x,1/2+y,-z
1/2-x,1/2+y,z
1/2+x,1/2-y,z
loop_
_atom_site_type_symbol
_atom_site_label
_atom_site_fract_x
_atom_site_fract_y
_atom_site_fract_z
Si Si1 0.160183 0.000000 0.000000
Si Si2 0.091432 0.396189 0.809949
Si Si3 0.242871 0.145174 0.000000
Si Si4 0.500000 0.381562 0.189983
Si Si5 0.583462 0.500000 0.306133
Si Si6 0.306816 0.898354 0.316070
Si Si7 0.500000 0.198103 0.684635
O O1 0.191132 0.092302 0.000000
O O2 0.127777 0.000000 0.828892
O O3 0.092334 0.500000 0.804055
O O4 0.141695 0.355247 0.737914
O O5 0.046947 0.362776 0.700076
O O6 0.084940 0.362098 0.000000
O O7 0.250000 0.250000 0.000000
O O8 0.267011 0.115153 0.826704
O O9 0.549163 0.415041 0.281105
O O10 0.500000 0.276898 0.183199
O O11 0.500000 0.417784 0.000000
O O12 0.603911 0.500000 0.500000
O O13 0.290319 0.859913 0.500000
O O14 0.316240 0.000000 0.335898
O O15 0.500000 0.241023 0.500000
#
# Coordination Sequence:
#
# PCOD8272293 Si02
#       7
#     4  16   8   8   8  16   8
#     4  12  26  47  70 100 138 173 214 280 344 378
#     4  10  20  36  59  85 122 174 222 263 317 381
#     4  12  26  44  69  96 131 168 214 276 337 400
#     4  11  21  43  70  95 132 178 213 255 321 390
#     4  11  23  45  74 102 130 170 219 262 318 392
#     4  10  20  40  68  91 122 173 221 267 329 400
#     4  12  24  34  52  94 139 171 218 274 315 374
#
# _framework density 20.540085000000001
#
# number of rings (size 3 to 8) (size 9 to 14) (size 15 to 20)
#    0.000    1.176    3.529    3.882    0.000    6.118 
#    0.000    2.353    0.000    0.000    0.000    0.000 
#    0.000    0.000    0.000    0.000    0.000    0.000 
#
# Total GULP energy -421320.513622 kJ/mol
# GULP energy per Si atom -12391.779812 kJ/mol
# Density = 2.049333 g / cm^3
# Si number density = 20.540085 Si / 1000 Ang^3
#
#
#
# Elastic Constant Matrix: (Units=GPa)
#
#
# Indices 1 2 3 4 5 6 
#
# 1 137.9811 25.7948 65.6309 0.0000 0.0000 0.0000
# 2 25.7948 46.2381 30.1254 0.0000 0.0000 0.0000
# 3 65.6309 30.1254 173.7466 0.0000 0.0000 0.0000
# 4 0.0000 0.0000 0.0000 17.9854 0.0000 0.0000
# 5 0.0000 0.0000 0.0000 0.0000 110.9791 0.0000
# 6 0.0000 0.0000 0.0000 0.0000 0.0000 -20.8823
#
#
#
# Elastic Compliance Matrix: (Units=1/GPa)
#
#
# Indices 1 2 3 4 5 6 
#
# 1 0.009249 -0.003251 -0.002930 0.000000 0.000000 0.000000
# 2 -0.003251 0.025524 -0.003198 0.000000 0.000000 0.000000
# 3 -0.002930 -0.003198 0.007417 0.000000 0.000000 0.000000
# 4 0.000000 0.000000 0.000000 0.055601 0.000000 0.000000
# 5 0.000000 0.000000 0.000000 0.000000 0.009011 0.000000
# 6 0.000000 0.000000 0.000000 0.000000 0.000000 -0.047887
#
#
# Mechanical properties :
#
#
# Convention : Reuss Voigt Hill
#
# Bulk Modulus (GPa) = 42.67501 66.78533 54.73017
# Shear Modulus (GPa) = 58.49268 37.37741 47.93505
#
# Velocity S-wave (km/s) = 5.34220 4.27046 4.83611
# Velocity P-wave (km/s) = 7.67292 7.54327 7.60837
#
# Compressibility (1/GPa) = 0.02343292
#
# Stress axis : x y z
#
# Youngs Moduli (GPa) = 108.12320 39.17885 134.83067
#
# Poissons Ratio (x) = 0.12736 0.39505
# Poissons Ratio (y) = 0.35147 0.43114
# Poissons Ratio (z) = 0.31680 0.12528
#
# Static dielectric constant tensor:
#      x y z
#    x 3.727930 0.000000 0.000000 
#    y 0.000000 3.558500 0.000000 
#    z 0.000000 0.000000 4.048140 
# 
# 
# High freq. dielectric constant tensor:
#      x y z
#    x 1.798530 0.000000 0.000000 
#    y 0.000000 1.780810 0.000000 
#    z 0.000000 0.000000 1.828190 
# 
# From -- ./inp_files/15739.got.cif
#   From: 2010.03.12/outbox.cif.g09.slc.cpg/sg65_8_cif.got.tgz:15739.got - 2010.04.10 20:52:16.
