data_PCOD8272577
_publ_section_title
;
Structure prediction by ZEFSAII (Michael W. Deem and Ramdas Pophale) SiO2 
 PCOD8272577
Probable space group: C M M M
;
_chemical_formula_sum "Si O2"
_cell_formula_units_Z 72
_cell_length_a 21.199084
_cell_length_b 15.927519
_cell_length_c 12.782179
_cell_angle_alpha 90.000000
_cell_angle_beta 90.000000
_cell_angle_gamma 90.000000
_cell_volume 4315.887569
_symmetry_space_group_name_H-M "C M M M"
_symmetry_group_IT_number 65
_symmetry_cell_setting 'orthorhombic'
loop_
_space_group_symop_operation_xyz
x,y,z
-x,-y,z
x,-y,-z
-x,y,-z
-x,-y,-z
x,y,-z
-x,y,z
x,-y,z
1/2+x,1/2+y,z
1/2-x,1/2-y,z
1/2+x,1/2-y,-z
1/2-x,1/2+y,-z
1/2-x,1/2-y,-z
1/2+x,1/2+y,-z
1/2-x,1/2+y,z
1/2+x,1/2-y,z
loop_
_atom_site_type_symbol
_atom_site_label
_atom_site_fract_x
_atom_site_fract_y
_atom_site_fract_z
Si Si1 0.000000 0.092881 0.124279
Si Si2 0.625837 0.329203 0.119404
Si Si3 0.427132 0.000000 0.256292
Si Si4 0.247872 0.152639 0.751338
Si Si5 0.868782 0.363949 0.882685
Si Si6 0.201748 0.500000 0.376804
O O1 0.936949 0.133058 0.169473
O O2 0.000000 0.000000 0.166121
O O3 0.000000 0.101444 0.000000
O O4 0.680628 0.361305 0.195164
O O5 0.610523 0.231475 0.121397
O O6 0.640250 0.358595 0.000000
O O7 0.417373 0.917385 0.186216
O O8 0.372737 0.000000 0.345484
O O9 0.500000 0.000000 0.299544
O O10 0.250000 0.250000 0.710292
O O11 0.297584 0.132161 0.841886
O O12 0.261611 0.084520 0.660718
O O13 0.869789 0.399969 0.000000
O O14 0.204787 0.500000 0.500000
#
# Coordination Sequence:
#
# PCOD8272577 Si02
#       6
#     8  16   8  16  16   8
#     4   9  18  28  38  63  97 133 170 188 212 268
#     4   9  17  29  47  70 103 137 162 192 229 277
#     4  10  21  33  48  71 100 132 167 198 235 290
#     4   9  18  33  52  75  98 125 161 201 247 293
#     4   9  17  29  46  72 104 135 163 190 225 277
#     4  10  22  38  55  75  93 116 162 217 265 304
#
# _framework density 16.682548000000001
#
# number of rings (size 3 to 8) (size 9 to 14) (size 15 to 20)
#    0.000    2.778    0.000    1.000    3.111    4.222 
#    0.000    1.111    0.000    0.000    0.000    1.556 
#    0.000    0.000    0.000    0.000    0.000    0.000 
#
# Total GULP energy -446085.950153 kJ/mol
# GULP energy per Si atom -12391.276393 kJ/mol
# Density = 1.664458 g / cm^3
# Si number density = 16.682548 Si / 1000 Ang^3
#
#
#
# Elastic Constant Matrix: (Units=GPa)
#
#
# Indices 1 2 3 4 5 6 
#
# 1 140.0591 61.4474 46.4135 0.0000 0.0000 0.0000
# 2 61.4474 86.8096 48.5139 0.0000 0.0000 0.0000
# 3 46.4135 48.5139 92.5972 0.0000 0.0000 0.0000
# 4 0.0000 0.0000 0.0000 14.7801 0.0000 0.0000
# 5 0.0000 0.0000 0.0000 0.0000 12.6850 0.0000
# 6 0.0000 0.0000 0.0000 0.0000 0.0000 26.9127
#
#
#
# Elastic Compliance Matrix: (Units=1/GPa)
#
#
# Indices 1 2 3 4 5 6 
#
# 1 0.010600 -0.006411 -0.001954 0.000000 0.000000 0.000000
# 2 -0.006411 0.020166 -0.007352 0.000000 0.000000 0.000000
# 3 -0.001954 -0.007352 0.015631 0.000000 0.000000 0.000000
# 4 0.000000 0.000000 0.000000 0.067658 0.000000 0.000000
# 5 0.000000 0.000000 0.000000 0.000000 0.078833 0.000000
# 6 0.000000 0.000000 0.000000 0.000000 0.000000 0.037157
#
#
# Mechanical properties :
#
#
# Convention : Reuss Voigt Hill
#
# Bulk Modulus (GPa) = 66.83404 70.24615 68.54009
# Shear Modulus (GPa) = 18.76395 21.74832 20.25614
#
# Velocity S-wave (km/s) = 3.35739 3.61454 3.48833
# Velocity P-wave (km/s) = 7.42823 7.72132 7.57619
#
# Compressibility (1/GPa) = 0.01496244
#
# Stress axis : x y z
#
# Youngs Moduli (GPa) = 94.33813 49.58790 63.97551
#
# Poissons Ratio (x) = 0.31791 0.12503
# Poissons Ratio (y) = 0.60481 0.47035
# Poissons Ratio (z) = 0.18437 0.36457
#
# Static dielectric constant tensor:
#      x y z
#    x 3.209680 0.000000 0.000000 
#    y 0.000000 3.611380 0.000000 
#    z 0.000000 0.000000 2.760160 
# 
# 
# High freq. dielectric constant tensor:
#      x y z
#    x 1.648900 0.000000 0.000000 
#    y 0.000000 1.656890 0.000000 
#    z 0.000000 0.000000 1.593460 
# 
# From -- ./inp_files/26600.got.cif
#   From: 2010.03.12/outbox.cif.g09.slc.cpg/sg65_14_cif.got.tgz:26600.got - 2010.04.10 20:52:16.
