data_PCOD8272904
_publ_section_title
;
Structure prediction by ZEFSAII (Michael W. Deem and Ramdas Pophale) SiO2 
 PCOD8272904
Probable space group: C M M M
;
_chemical_formula_sum "Si O2"
_cell_formula_units_Z 72
_cell_length_a 18.146975
_cell_length_b 8.923101
_cell_length_c 23.748570
_cell_angle_alpha 90.000000
_cell_angle_beta 90.000000
_cell_angle_gamma 90.000000
_cell_volume 3845.541600
_symmetry_space_group_name_H-M "C M M M"
_symmetry_group_IT_number 65
_symmetry_cell_setting 'orthorhombic'
loop_
_space_group_symop_operation_xyz
x,y,z
-x,-y,z
x,-y,-z
-x,y,-z
-x,-y,-z
x,y,-z
-x,y,z
x,-y,z
1/2+x,1/2+y,z
1/2-x,1/2-y,z
1/2+x,1/2-y,-z
1/2-x,1/2+y,-z
1/2-x,1/2-y,-z
1/2+x,1/2+y,-z
1/2-x,1/2+y,z
1/2+x,1/2-y,z
loop_
_atom_site_type_symbol
_atom_site_label
_atom_site_fract_x
_atom_site_fract_y
_atom_site_fract_z
Si Si1 0.085503 0.175153 0.790219
Si Si2 0.170431 0.322394 0.890969
Si Si3 0.671070 0.324063 0.680928
Si Si4 0.917305 0.322050 0.000000
Si Si5 0.671314 0.675777 0.440594
O O1 0.128172 0.273112 0.835394
O O2 0.113848 0.225658 0.728753
O O3 0.000000 0.214722 0.793957
O O4 0.100363 0.000000 0.801370
O O5 0.178951 0.500000 0.891239
O O6 0.250000 0.250000 0.892823
O O7 0.124982 0.263655 0.944857
O O8 0.684743 0.500000 0.683783
O O9 0.750000 0.250000 0.691635
O O10 0.635049 0.277646 0.619601
O O11 0.920730 0.500000 0.000000
O O12 0.000000 0.255050 0.000000
O O13 0.629035 0.720381 0.500000
O O14 0.683511 0.500000 0.440146
O O15 0.750000 0.750000 0.442141
#
# Coordination Sequence:
#
# PCOD8272904 Si02
#       5
#    16  16  16   8  16
#     4  10  21  36  52  72 101 135 170 209 254 302
#     4  11  22  37  58  81 106 135 169 208 249 294
#     4   9  17  29  46  68  94 125 160 201 249 296
#     4   9  19  36  57  81 108 137 168 203 244 290
#     4   8  13  22  38  61  88 117 152 195 241 289
#
# _framework density 18.722978999999999
#
# number of rings (size 3 to 8) (size 9 to 14) (size 15 to 20)
#    0.000    2.556    0.000    2.333    0.000    4.000 
#    0.000    1.667    0.000    4.667    0.000    4.667 
#    0.000    0.000    0.000   38.000    0.000   19.111 
#
# Total GULP energy -445973.839867 kJ/mol
# GULP energy per Si atom -12388.162219 kJ/mol
# Density = 1.868037 g / cm^3
# Si number density = 18.722979 Si / 1000 Ang^3
#
#
#
# Elastic Constant Matrix: (Units=GPa)
#
#
# Indices 1 2 3 4 5 6 
#
# 1 119.0734 32.3947 79.2679 0.0000 0.0000 0.0000
# 2 32.3947 34.5581 40.4703 0.0000 0.0000 0.0000
# 3 79.2679 40.4703 201.4418 0.0000 0.0000 0.0000
# 4 0.0000 0.0000 0.0000 22.0635 0.0000 0.0000
# 5 0.0000 0.0000 0.0000 0.0000 7.2949 0.0000
# 6 0.0000 0.0000 0.0000 0.0000 0.0000 2.4648
#
#
#
# Elastic Compliance Matrix: (Units=1/GPa)
#
#
# Indices 1 2 3 4 5 6 
#
# 1 0.012884 -0.008029 -0.003457 0.000000 0.000000 0.000000
# 2 -0.008029 0.042843 -0.005448 0.000000 0.000000 0.000000
# 3 -0.003457 -0.005448 0.007419 0.000000 0.000000 0.000000
# 4 0.000000 0.000000 0.000000 0.045324 0.000000 0.000000
# 5 0.000000 0.000000 0.000000 0.000000 0.137081 0.000000
# 6 0.000000 0.000000 0.000000 0.000000 0.000000 0.405711
#
#
# Mechanical properties :
#
#
# Convention : Reuss Voigt Hill
#
# Bulk Modulus (GPa) = 34.15482 73.25990 53.70736
# Shear Modulus (GPa) = 7.19540 19.89401 13.54471
#
# Velocity S-wave (km/s) = 1.96251 3.26321 2.69258
# Velocity P-wave (km/s) = 4.83911 7.30830 6.19792
#
# Compressibility (1/GPa) = 0.02927844
#
# Stress axis : x y z
#
# Youngs Moduli (GPa) = 77.61747 23.34100 134.79039
#
# Poissons Ratio (x) = 0.18741 0.46593
# Poissons Ratio (y) = 0.62320 0.73432
# Poissons Ratio (z) = 0.26830 0.12716
#
# Static dielectric constant tensor:
#      x y z
#    x 3.237710 0.000000 0.000000 
#    y 0.000000 3.274830 0.000000 
#    z 0.000000 0.000000 4.360650 
# 
# 
# High freq. dielectric constant tensor:
#      x y z
#    x 1.694970 0.000000 0.000000 
#    y 0.000000 1.711700 0.000000 
#    z 0.000000 0.000000 1.763510 
# 
# From -- ./inp_files/67043.got.cif
#   From: 2010.03.12/outbox.cif.g09.slc.cpg/sg65_34_cif.got.tgz:67043.got - 2010.04.10 20:52:16.
