data_PCOD8272379
_publ_section_title
;
Structure prediction by ZEFSAII (Michael W. Deem and Ramdas Pophale) SiO2 
 PCOD8272379
Probable space group: C M M M
;
_chemical_formula_sum "Si O2"
_cell_formula_units_Z 48
_cell_length_a 8.979235
_cell_length_b 14.850597
_cell_length_c 20.654350
_cell_angle_alpha 90.000000
_cell_angle_beta 90.000000
_cell_angle_gamma 90.000000
_cell_volume 2754.195617
_symmetry_space_group_name_H-M "C M M M"
_symmetry_group_IT_number 65
_symmetry_cell_setting 'orthorhombic'
loop_
_space_group_symop_operation_xyz
x,y,z
-x,-y,z
x,-y,-z
-x,y,-z
-x,-y,-z
x,y,-z
-x,y,z
x,-y,z
1/2+x,1/2+y,z
1/2-x,1/2-y,z
1/2+x,1/2-y,-z
1/2-x,1/2+y,-z
1/2-x,1/2-y,-z
1/2+x,1/2+y,-z
1/2-x,1/2+y,z
1/2+x,1/2-y,z
loop_
_atom_site_type_symbol
_atom_site_label
_atom_site_fract_x
_atom_site_fract_y
_atom_site_fract_z
Si Si1 0.165726 0.341663 0.689016
Si Si2 0.323932 0.500000 0.761680
Si Si3 0.673812 0.848007 0.000000
Si Si4 0.674984 0.000000 0.899103
Si Si5 0.500000 0.106026 0.571780
O O1 0.250000 0.250000 0.698993
O O2 0.264208 0.414032 0.724686
O O3 0.147189 0.363607 0.612120
O O4 0.000000 0.338034 0.720904
O O5 0.500000 0.500000 0.759409
O O6 0.271529 0.500000 0.835088
O O7 0.750000 0.750000 0.000000
O O8 0.717493 0.908723 0.062143
O O9 0.500000 0.828408 0.000000
O O10 0.500000 0.000000 0.883237
O O11 0.500000 0.149971 0.500000
O O12 0.500000 0.000000 0.565628
#
# Coordination Sequence:
#
# PCOD8272379 Si02
#       5
#    16   8   8   8   8
#     4  10  20  37  57  82 113 149 186 235 290 333
#     4  12  23  37  57  83 114 154 197 236 282 338
#     4   9  19  37  60  84 112 147 181 231 279 334
#     4   9  20  38  58  80 113 151 188 226 284 335
#     4   9  18  36  62  83 111 149 191 229 293 342
#
# _framework density 17.427955999999998
#
# number of rings (size 3 to 8) (size 9 to 14) (size 15 to 20)
#    1.000    1.167    1.667    3.500    0.000    3.333 
#    0.000    5.000    0.000    1.000    0.000    0.000 
#    0.000    0.000    0.000    0.000    0.000    0.000 
#
# Total GULP energy -297384.837450 kJ/mol
# GULP energy per Si atom -12391.034894 kJ/mol
# Density = 1.738829 g / cm^3
# Si number density = 17.427956 Si / 1000 Ang^3
#
#
#
# Elastic Constant Matrix: (Units=GPa)
#
#
# Indices 1 2 3 4 5 6 
#
# 1 131.0607 74.5461 75.6592 0.0000 0.0000 0.0000
# 2 74.5461 168.4800 74.0729 0.0000 0.0000 0.0000
# 3 75.6592 74.0729 143.7053 0.0000 0.0000 0.0000
# 4 0.0000 0.0000 0.0000 49.5205 0.0000 0.0000
# 5 0.0000 0.0000 0.0000 0.0000 -10.6121 0.0000
# 6 0.0000 0.0000 0.0000 0.0000 0.0000 36.1280
#
#
#
# Elastic Compliance Matrix: (Units=1/GPa)
#
#
# Indices 1 2 3 4 5 6 
#
# 1 0.012266 -0.003346 -0.004733 0.000000 0.000000 0.000000
# 2 -0.003346 0.008588 -0.002665 0.000000 0.000000 0.000000
# 3 -0.004733 -0.002665 0.010824 0.000000 0.000000 0.000000
# 4 0.000000 0.000000 0.000000 0.020194 0.000000 0.000000
# 5 0.000000 0.000000 0.000000 0.000000 -0.094232 0.000000
# 6 0.000000 0.000000 0.000000 0.000000 0.000000 0.027679
#
#
# Mechanical properties :
#
#
# Convention : Reuss Voigt Hill
#
# Bulk Modulus (GPa) = 98.14000 99.08917 98.61459
# Shear Modulus (GPa) = 490.07982 29.60512 259.84247
#
# Velocity S-wave (km/s) = 16.78731 4.12602 12.22370
# Velocity P-wave (km/s) = 20.78908 8.92629 15.99788
#
# Compressibility (1/GPa) = 0.01018952
#
# Stress axis : x y z
#
# Youngs Moduli (GPa) = 81.52912 116.44762 92.38719
#
# Poissons Ratio (x) = 0.38966 0.43726
# Poissons Ratio (y) = 0.27281 0.24618
# Poissons Ratio (z) = 0.38587 0.31030
#
# Static dielectric constant tensor:
#      x y z
#    x 3.156380 0.000000 0.000000 
#    y 0.000000 3.200270 0.000000 
#    z 0.000000 0.000000 3.427870 
# 
# 
# High freq. dielectric constant tensor:
#      x y z
#    x 1.664640 0.000000 0.000000 
#    y 0.000000 1.683580 0.000000 
#    z 0.000000 0.000000 1.671740 
# 
# From -- ./inp_files/58441.got.cif
#   From: 2010.03.12/outbox.cif.g09.slc.cpg/sg65_30_cif.got.tgz:58441.got - 2010.04.10 20:52:16.
