data_PCOD8272088
_publ_section_title
;
Structure prediction by ZEFSAII (Michael W. Deem and Ramdas Pophale) SiO2 
 PCOD8272088
Probable space group: C M M M
;
_chemical_formula_sum "Si O2"
_cell_formula_units_Z 104
_cell_length_a 21.731104
_cell_length_b 19.152053
_cell_length_c 13.489240
_cell_angle_alpha 90.000000
_cell_angle_beta 90.000000
_cell_angle_gamma 90.000000
_cell_volume 5614.157689
_symmetry_space_group_name_H-M "C M M M"
_symmetry_group_IT_number 65
_symmetry_cell_setting 'orthorhombic'
loop_
_space_group_symop_operation_xyz
x,y,z
-x,-y,z
x,-y,-z
-x,y,-z
-x,-y,-z
x,y,-z
-x,y,z
x,-y,z
1/2+x,1/2+y,z
1/2-x,1/2-y,z
1/2+x,1/2-y,-z
1/2-x,1/2+y,-z
1/2-x,1/2-y,-z
1/2+x,1/2+y,-z
1/2-x,1/2+y,z
1/2+x,1/2-y,z
loop_
_atom_site_type_symbol
_atom_site_label
_atom_site_fract_x
_atom_site_fract_y
_atom_site_fract_z
Si Si1 0.699366 0.808572 0.387233
Si Si2 0.068903 0.812361 0.889044
Si Si3 0.201558 0.079246 0.606313
Si Si4 0.610585 0.825713 0.796443
Si Si5 0.500000 0.916108 0.880118
Si Si6 0.838844 0.080535 0.189375
Si Si7 0.235544 0.673120 0.887277
O O1 0.675880 0.793354 0.500000
O O2 0.750000 0.750000 0.354920
O O3 0.734811 0.880884 0.379984
O O4 0.640354 0.818614 0.314222
O O5 0.082384 0.750386 0.813896
O O6 0.109365 0.880313 0.871138
O O7 0.000000 0.838576 0.874781
O O8 0.081218 0.784448 0.000000
O O9 0.170570 0.098552 0.500000
O O10 0.151146 0.092101 0.692464
O O11 0.223393 0.000000 0.610098
O O12 0.558770 0.884310 0.820042
O O13 0.663845 0.842781 0.875191
O O14 0.500000 0.000000 0.867945
O O15 0.500000 0.896864 0.000000
O O16 0.772063 0.112853 0.168793
O O17 0.839790 0.000000 0.157372
O O18 0.250000 0.750000 0.842329
O O19 0.256769 0.671159 0.000000
#
# Coordination Sequence:
#
# PCOD8272088 Si02
#       7
#    16  16  16  16   8  16  16
#     4  10  20  35  60  93 122 148 186 242 303 356
#     4  11  23  39  60  81 108 157 206 235 277 351
#     4   9  18  34  55  80 113 151 185 219 276 354
#     4  12  21  38  63  84 113 156 202 245 292 360
#     4  11  26  44  61  85 118 160 213 266 305 349
#     4  11  22  36  56  87 121 146 183 244 302 343
#     4  11  21  33  55  85 116 149 187 232 290 359
#
# _framework density 18.524595999999999
#
# number of rings (size 3 to 8) (size 9 to 14) (size 15 to 20)
#    0.000    1.308    3.846    3.231    0.000    2.769 
#    0.000    1.154    0.000    1.846    0.000    2.154 
#    0.000    0.000    0.000    0.000    0.000    0.000 
#
# Total GULP energy -644277.762668 kJ/mol
# GULP energy per Si atom -12389.956974 kJ/mol
# Density = 1.848243 g / cm^3
# Si number density = 18.524596 Si / 1000 Ang^3
#
#
#
# Elastic Constant Matrix: (Units=GPa)
#
#
# Indices 1 2 3 4 5 6 
#
# 1 105.2165 38.7462 34.4749 0.0000 0.0000 0.0000
# 2 38.7462 100.3527 23.1864 0.0000 0.0000 0.0000
# 3 34.4749 23.1864 100.7202 0.0000 0.0000 0.0000
# 4 0.0000 0.0000 0.0000 22.3032 0.0000 0.0000
# 5 0.0000 0.0000 0.0000 0.0000 15.4599 0.0000
# 6 0.0000 0.0000 0.0000 0.0000 0.0000 25.7441
#
#
#
# Elastic Compliance Matrix: (Units=1/GPa)
#
#
# Indices 1 2 3 4 5 6 
#
# 1 0.011987 -0.003887 -0.003208 0.000000 0.000000 0.000000
# 2 -0.003887 0.011785 -0.001383 0.000000 0.000000 0.000000
# 3 -0.003208 -0.001383 0.011345 0.000000 0.000000 0.000000
# 4 0.000000 0.000000 0.000000 0.044837 0.000000 0.000000
# 5 0.000000 0.000000 0.000000 0.000000 0.064683 0.000000
# 6 0.000000 0.000000 0.000000 0.000000 0.000000 0.038844
#
#
# Mechanical properties :
#
#
# Convention : Reuss Voigt Hill
#
# Bulk Modulus (GPa) = 55.06136 55.45604 55.25870
# Shear Modulus (GPa) = 24.21432 26.69355 25.45394
#
# Velocity S-wave (km/s) = 3.61937 3.80014 3.71086
# Velocity P-wave (km/s) = 6.87418 7.01828 6.94660
#
# Compressibility (1/GPa) = 0.01816156
#
# Stress axis : x y z
#
# Youngs Moduli (GPa) = 83.42575 84.85352 88.14575
#
# Poissons Ratio (x) = 0.32981 0.28278
# Poissons Ratio (y) = 0.32426 0.12187
# Poissons Ratio (z) = 0.26764 0.11732
#
# Static dielectric constant tensor:
#      x y z
#    x 3.336110 0.000000 0.000000 
#    y 0.000000 3.502420 0.000000 
#    z 0.000000 0.000000 3.842680 
# 
# 
# High freq. dielectric constant tensor:
#      x y z
#    x 1.693510 0.000000 0.000000 
#    y 0.000000 1.725190 0.000000 
#    z 0.000000 0.000000 1.732580 
# 
# From -- ./inp_files/44384.got.cif
#   From: 2010.03.12/outbox.cif.g09.slc.cpg/sg65_23_cif.got.tgz:44384.got - 2010.04.10 20:52:16.
