data_PCOD8272316
_publ_section_title
;
Structure prediction by ZEFSAII (Michael W. Deem and Ramdas Pophale) SiO2 
 PCOD8272316
Probable space group: C M M M
;
_chemical_formula_sum "Si O2"
_cell_formula_units_Z 104
_cell_length_a 22.156875
_cell_length_b 28.202067
_cell_length_c 7.771013
_cell_angle_alpha 90.000000
_cell_angle_beta 90.000000
_cell_angle_gamma 90.000000
_cell_volume 4855.870354
_symmetry_space_group_name_H-M "C M M M"
_symmetry_group_IT_number 65
_symmetry_cell_setting 'orthorhombic'
loop_
_space_group_symop_operation_xyz
x,y,z
-x,-y,z
x,-y,-z
-x,y,-z
-x,-y,-z
x,y,-z
-x,y,z
x,-y,z
1/2+x,1/2+y,z
1/2-x,1/2-y,z
1/2+x,1/2-y,-z
1/2-x,1/2+y,-z
1/2-x,1/2-y,-z
1/2+x,1/2+y,-z
1/2-x,1/2+y,z
1/2+x,1/2-y,z
loop_
_atom_site_type_symbol
_atom_site_label
_atom_site_fract_x
_atom_site_fract_y
_atom_site_fract_z
Si Si1 0.139455 0.697874 0.699404
Si Si2 0.619771 0.380640 0.803211
Si Si3 0.754141 0.360006 0.797566
Si Si4 0.326195 0.051475 0.200567
Si Si5 0.931836 0.786412 0.300241
Si Si6 0.432940 0.891247 0.704050
Si Si7 0.571180 0.555734 0.500000
O O1 0.124611 0.700981 0.500000
O O2 0.210742 0.687198 0.730286
O O3 0.115603 0.747753 0.777433
O O4 0.100790 0.654988 0.781787
O O5 0.684658 0.360262 0.741424
O O6 0.574962 0.336029 0.798903
O O7 0.599006 0.421955 0.673958
O O8 0.621958 0.400671 0.000000
O O9 0.784744 0.407344 0.715479
O O10 0.761090 0.360408 0.000000
O O11 0.396450 0.062463 0.235998
O O12 0.310785 0.000000 0.282820
O O13 0.313026 0.049047 0.000000
O O14 0.919212 0.796926 0.500000
O O15 0.000000 0.767481 0.272024
O O16 0.434886 0.888631 0.500000
O O17 0.500000 0.893999 0.781710
O O18 0.586089 0.500000 0.500000
O O19 0.500000 0.565419 0.500000
#
# Coordination Sequence:
#
# PCOD8272316 Si02
#       7
#    16  16  16  16  16  16   8
#     4   9  18  32  55  83 114 158 205 246 295 355
#     4  11  24  42  67  97 129 164 203 251 308 369
#     4   9  20  37  56  81 117 156 197 250 304 359
#     4   9  18  33  51  70  97 138 187 239 297 355
#     4  10  20  36  59  88 124 164 207 255 307 364
#     4   9  17  30  47  70 104 143 187 239 291 346
#     4  11  26  48  72  99 130 162 201 252 308 372
#
# _framework density 21.417373999999999
#
# number of rings (size 3 to 8) (size 9 to 14) (size 15 to 20)
#    0.000    2.385    0.769    0.923    1.077    6.154 
#    0.000    6.923    0.000    2.769    0.000    0.000 
#    0.000    0.000    0.000    0.000    0.000    0.000 
#
# Total GULP energy -644565.263011 kJ/mol
# GULP energy per Si atom -12395.485827 kJ/mol
# Density = 2.136863 g / cm^3
# Si number density = 21.417374 Si / 1000 Ang^3
#
#
#
# Elastic Constant Matrix: (Units=GPa)
#
#
# Indices 1 2 3 4 5 6 
#
# 1 115.6760 42.7675 26.6104 0.0000 0.0000 0.0000
# 2 42.7675 125.2652 32.1233 0.0000 0.0000 0.0000
# 3 26.6104 32.1233 57.7056 0.0000 0.0000 0.0000
# 4 0.0000 0.0000 0.0000 19.8173 0.0000 0.0000
# 5 0.0000 0.0000 0.0000 0.0000 27.0148 0.0000
# 6 0.0000 0.0000 0.0000 0.0000 0.0000 28.4901
#
#
#
# Elastic Compliance Matrix: (Units=1/GPa)
#
#
# Indices 1 2 3 4 5 6 
#
# 1 0.010403 -0.002708 -0.003290 0.000000 0.000000 0.000000
# 2 -0.002708 0.010017 -0.004328 0.000000 0.000000 0.000000
# 3 -0.003290 -0.004328 0.021255 0.000000 0.000000 0.000000
# 4 0.000000 0.000000 0.000000 0.050461 0.000000 0.000000
# 5 0.000000 0.000000 0.000000 0.000000 0.037017 0.000000
# 6 0.000000 0.000000 0.000000 0.000000 0.000000 0.035100
#
#
# Mechanical properties :
#
#
# Convention : Reuss Voigt Hill
#
# Bulk Modulus (GPa) = 47.56256 55.73879 51.65067
# Shear Modulus (GPa) = 26.05356 28.20748 27.13052
#
# Velocity S-wave (km/s) = 3.49157 3.63304 3.56301
# Velocity P-wave (km/s) = 6.20568 6.60910 6.41056
#
# Compressibility (1/GPa) = 0.02102494
#
# Stress axis : x y z
#
# Youngs Moduli (GPa) = 96.12782 99.82593 47.04678
#
# Poissons Ratio (x) = 0.27034 0.15477
# Poissons Ratio (y) = 0.26032 0.20360
# Poissons Ratio (z) = 0.31623 0.43201
#
# Static dielectric constant tensor:
#      x y z
#    x 3.998460 0.000000 0.000000 
#    y 0.000000 4.021980 0.000000 
#    z 0.000000 0.000000 3.561650 
# 
# 
# High freq. dielectric constant tensor:
#      x y z
#    x 1.841080 0.000000 0.000000 
#    y 0.000000 1.832860 0.000000 
#    z 0.000000 0.000000 1.820610 
# 
# From -- ./inp_files/12446.got.cif
#   From: 2010.03.12/outbox.cif.g09.slc.cpg/sg65_7_cif.got.tgz:12446.got - 2010.04.10 20:52:16.
