data_PCOD8272959
_publ_section_title
;
Structure prediction by ZEFSAII (Michael W. Deem and Ramdas Pophale) SiO2 
 PCOD8272959
Probable space group: C M M M
;
_chemical_formula_sum "Si O2"
_cell_formula_units_Z 80
_cell_length_a 9.128475
_cell_length_b 18.663654
_cell_length_c 25.295125
_cell_angle_alpha 90.000000
_cell_angle_beta 90.000000
_cell_angle_gamma 90.000000
_cell_volume 4309.548126
_symmetry_space_group_name_H-M "C M M M"
_symmetry_group_IT_number 65
_symmetry_cell_setting 'orthorhombic'
loop_
_space_group_symop_operation_xyz
x,y,z
-x,-y,z
x,-y,-z
-x,y,-z
-x,-y,-z
x,y,-z
-x,y,z
x,-y,z
1/2+x,1/2+y,z
1/2-x,1/2-y,z
1/2+x,1/2-y,-z
1/2-x,1/2+y,-z
1/2-x,1/2-y,-z
1/2+x,1/2+y,-z
1/2-x,1/2+y,z
1/2+x,1/2-y,z
loop_
_atom_site_type_symbol
_atom_site_label
_atom_site_fract_x
_atom_site_fract_y
_atom_site_fract_z
Si Si1 0.668173 0.915324 0.386115
Si Si2 0.670940 0.917047 0.101640
Si Si3 0.171855 0.326045 0.000000
Si Si4 0.328672 0.322909 0.182961
Si Si5 0.829743 0.821681 0.305185
Si Si6 0.335150 0.915138 0.500000
O O1 0.500000 0.889635 0.379091
O O2 0.769226 0.886377 0.339703
O O3 0.733416 0.889040 0.443803
O O4 0.675806 0.000000 0.382407
O O5 0.500000 0.906522 0.114010
O O6 0.763757 0.890034 0.151475
O O7 0.707873 0.000000 0.091154
O O8 0.720029 0.871709 0.050790
O O9 0.250000 0.250000 0.000000
O O10 0.000000 0.311854 0.000000
O O11 0.500000 0.314562 0.171179
O O12 0.250000 0.250000 0.164213
O O13 0.296136 0.338575 0.244177
O O14 0.750000 0.750000 0.323888
O O15 0.000000 0.811776 0.315676
O O16 0.500000 0.886923 0.500000
O O17 0.333668 0.000000 0.500000
#
# Coordination Sequence:
#
# PCOD8272959 Si02
#       6
#    16  16   8  16  16   8
#     4   9  17  31  53  78 103 133 170 211 256 309
#     4  10  21  37  57  81 110 142 175 214 259 306
#     4  10  21  37  57  81 109 142 179 216 256 304
#     4  10  21  37  56  77 103 137 176 217 260 309
#     4  10  21  36  53  74 103 137 173 215 261 308
#     4   7  12  26  48  73 100 131 167 207 252 303
#
# _framework density 18.563431999999999
#
# number of rings (size 3 to 8) (size 9 to 14) (size 15 to 20)
#    0.000    2.500    0.000    3.300    0.000    7.600 
#    0.000    5.000    0.000    3.600    0.000    0.000 
#    0.000    0.000    0.000    0.000    0.000    0.000 
#
# Total GULP energy -495868.705454 kJ/mol
# GULP energy per Si atom -12396.717636 kJ/mol
# Density = 1.852118 g / cm^3
# Si number density = 18.563432 Si / 1000 Ang^3
#
#
#
# Elastic Constant Matrix: (Units=GPa)
#
#
# Indices 1 2 3 4 5 6 
#
# 1 75.2514 40.8007 54.8289 0.0000 0.0000 0.0000
# 2 40.8007 61.5580 51.3524 0.0000 0.0000 0.0000
# 3 54.8289 51.3524 108.9474 0.0000 0.0000 0.0000
# 4 0.0000 0.0000 0.0000 27.5635 0.0000 0.0000
# 5 0.0000 0.0000 0.0000 0.0000 24.3226 0.0000
# 6 0.0000 0.0000 0.0000 0.0000 0.0000 33.8767
#
#
#
# Elastic Compliance Matrix: (Units=1/GPa)
#
#
# Indices 1 2 3 4 5 6 
#
# 1 0.023999 -0.009610 -0.007548 0.000000 0.000000 0.000000
# 2 -0.009610 0.030620 -0.009596 0.000000 0.000000 0.000000
# 3 -0.007548 -0.009596 0.017501 0.000000 0.000000 0.000000
# 4 0.000000 0.000000 0.000000 0.036280 0.000000 0.000000
# 5 0.000000 0.000000 0.000000 0.000000 0.041114 0.000000
# 6 0.000000 0.000000 0.000000 0.000000 0.000000 0.029519
#
#
# Mechanical properties :
#
#
# Convention : Reuss Voigt Hill
#
# Bulk Modulus (GPa) = 53.73263 59.96896 56.85080
# Shear Modulus (GPa) = 20.94302 23.73757 22.34030
#
# Velocity S-wave (km/s) = 3.36249 3.57981 3.47285
# Velocity P-wave (km/s) = 6.63953 7.03290 6.83905
#
# Compressibility (1/GPa) = 0.01861066
#
# Stress axis : x y z
#
# Youngs Moduli (GPa) = 41.66904 32.65889 57.14084
#
# Poissons Ratio (x) = 0.31384 0.43130
# Poissons Ratio (y) = 0.40042 0.54835
# Poissons Ratio (z) = 0.31452 0.31341
#
# Static dielectric constant tensor:
#      x y z
#    x 3.317910 0.000000 0.000000 
#    y 0.000000 3.233790 0.000000 
#    z 0.000000 0.000000 3.685050 
# 
# 
# High freq. dielectric constant tensor:
#      x y z
#    x 1.707620 0.000000 0.000000 
#    y 0.000000 1.707790 0.000000 
#    z 0.000000 0.000000 1.736520 
# 
# From -- ./inp_files/72913.got.cif
#   From: 2010.03.12/outbox.cif.g09.slc.cpg/sg65_37_cif.got.tgz:72913.got - 2010.04.10 20:52:16.
