data_PCOD8272881
_publ_section_title
;
Structure prediction by ZEFSAII (Michael W. Deem and Ramdas Pophale) SiO2 
 PCOD8272881
Probable space group: C M M M
;
_chemical_formula_sum "Si O2"
_cell_formula_units_Z 72
_cell_length_a 8.751962
_cell_length_b 29.586750
_cell_length_c 15.175676
_cell_angle_alpha 90.000000
_cell_angle_beta 90.000000
_cell_angle_gamma 90.000000
_cell_volume 3929.621590
_symmetry_space_group_name_H-M "C M M M"
_symmetry_group_IT_number 65
_symmetry_cell_setting 'orthorhombic'
loop_
_space_group_symop_operation_xyz
x,y,z
-x,-y,z
x,-y,-z
-x,y,-z
-x,-y,-z
x,y,-z
-x,y,z
x,-y,z
1/2+x,1/2+y,z
1/2-x,1/2-y,z
1/2+x,1/2-y,-z
1/2-x,1/2+y,-z
1/2-x,1/2-y,-z
1/2+x,1/2+y,-z
1/2-x,1/2+y,z
1/2+x,1/2-y,z
loop_
_atom_site_type_symbol
_atom_site_label
_atom_site_fract_x
_atom_site_fract_y
_atom_site_fract_z
Si Si1 0.679116 0.701487 0.601124
Si Si2 0.679982 0.143332 0.753575
Si Si3 0.335463 0.947137 0.500000
Si Si4 0.820392 0.203049 0.899280
Si Si5 0.681529 0.049697 0.312121
O O1 0.712445 0.687336 0.500000
O O2 0.500000 0.703975 0.620806
O O3 0.750000 0.750000 0.622467
O O4 0.755757 0.665083 0.664540
O O5 0.500000 0.151529 0.757083
O O6 0.756102 0.162691 0.841010
O O7 0.723019 0.089776 0.755369
O O8 0.500000 0.921566 0.500000
O O9 0.246872 0.936190 0.408281
O O10 0.366027 0.000000 0.500000
O O11 0.750000 0.250000 0.865335
O O12 0.000000 0.206189 0.887746
O O13 0.772168 0.193692 0.000000
O O14 0.500000 0.046801 0.324661
O O15 0.742366 0.000000 0.280268
#
# Coordination Sequence:
#
# PCOD8272881 Si02
#       5
#    16  16   8  16  16
#     4  10  21  36  51  69 100 140 178 214 251 300
#     4  11  21  31  52  81 107 135 169 214 261 311
#     4   7  10  20  38  60  90 127 166 207 246 283
#     4  10  21  38  59  80 104 133 167 210 259 313
#     4   8  15  27  44  70 103 137 173 214 256 296
#
# _framework density 18.322374
#
# number of rings (size 3 to 8) (size 9 to 14) (size 15 to 20)
#    0.000    2.556    0.000    4.000    1.556    2.667 
#    0.000    0.000    0.000    3.333    0.000    6.222 
#    0.000    0.000    0.000    0.000    0.000    0.000 
#
# Total GULP energy -446093.115552 kJ/mol
# GULP energy per Si atom -12391.475432 kJ/mol
# Density = 1.828067 g / cm^3
# Si number density = 18.322374 Si / 1000 Ang^3
#
#
#
# Elastic Constant Matrix: (Units=GPa)
#
#
# Indices 1 2 3 4 5 6 
#
# 1 59.5041 32.7508 31.1108 0.0000 0.0000 0.0000
# 2 32.7508 134.6806 69.4852 0.0000 0.0000 0.0000
# 3 31.1108 69.4852 92.4033 0.0000 0.0000 0.0000
# 4 0.0000 0.0000 0.0000 25.1303 0.0000 0.0000
# 5 0.0000 0.0000 0.0000 0.0000 24.0586 0.0000
# 6 0.0000 0.0000 0.0000 0.0000 0.0000 17.4404
#
#
#
# Elastic Compliance Matrix: (Units=1/GPa)
#
#
# Indices 1 2 3 4 5 6 
#
# 1 0.020847 -0.002366 -0.005240 0.000000 0.000000 0.000000
# 2 -0.002366 0.012400 -0.008528 0.000000 0.000000 0.000000
# 3 -0.005240 -0.008528 0.018999 0.000000 0.000000 0.000000
# 4 0.000000 0.000000 0.000000 0.039793 0.000000 0.000000
# 5 0.000000 0.000000 0.000000 0.000000 0.041565 0.000000
# 6 0.000000 0.000000 0.000000 0.000000 0.000000 0.057338
#
#
# Mechanical properties :
#
#
# Convention : Reuss Voigt Hill
#
# Bulk Modulus (GPa) = 50.05277 61.47574 55.76426
# Shear Modulus (GPa) = 21.75142 23.54194 22.64668
#
# Velocity S-wave (km/s) = 3.44924 3.58840 3.51951
# Velocity P-wave (km/s) = 6.57573 7.12699 6.85690
#
# Compressibility (1/GPa) = 0.01997891
#
# Stress axis : x y z
#
# Youngs Moduli (GPa) = 47.96757 80.64398 52.63419
#
# Poissons Ratio (x) = 0.19083 0.27578
# Poissons Ratio (y) = 0.11351 0.44886
# Poissons Ratio (z) = 0.25133 0.68773
#
# Static dielectric constant tensor:
#      x y z
#    x 3.162300 0.000000 0.000000 
#    y 0.000000 3.484360 0.000000 
#    z 0.000000 0.000000 3.437840 
# 
# 
# High freq. dielectric constant tensor:
#      x y z
#    x 1.688160 0.000000 0.000000 
#    y 0.000000 1.709260 0.000000 
#    z 0.000000 0.000000 1.697020 
# 
# From -- ./inp_files/36616.got.cif
#   From: 2010.03.12/outbox.cif.g09.slc.cpg/sg65_19_cif.got.tgz:36616.got - 2010.04.10 20:52:16.
