data_PCOD8272592
_publ_section_title
;
Structure prediction by ZEFSAII (Michael W. Deem and Ramdas Pophale) SiO2 
 PCOD8272592
Probable space group: C M M M
;
_chemical_formula_sum "Si O2"
_cell_formula_units_Z 88
_cell_length_a 20.508918
_cell_length_b 19.894813
_cell_length_c 13.990083
_cell_angle_alpha 90.000000
_cell_angle_beta 90.000000
_cell_angle_gamma 90.000000
_cell_volume 5708.248893
_symmetry_space_group_name_H-M "C M M M"
_symmetry_group_IT_number 65
_symmetry_cell_setting 'orthorhombic'
loop_
_space_group_symop_operation_xyz
x,y,z
-x,-y,z
x,-y,-z
-x,y,-z
-x,-y,-z
x,y,-z
-x,y,z
x,-y,z
1/2+x,1/2+y,z
1/2-x,1/2-y,z
1/2+x,1/2-y,-z
1/2-x,1/2+y,-z
1/2-x,1/2-y,-z
1/2+x,1/2+y,-z
1/2-x,1/2+y,z
1/2+x,1/2-y,z
loop_
_atom_site_type_symbol
_atom_site_label
_atom_site_fract_x
_atom_site_fract_y
_atom_site_fract_z
Si Si1 0.745023 0.829534 0.607684
Si Si2 0.363027 0.424109 0.613213
Si Si3 0.422991 0.076561 0.893445
Si Si4 0.427118 0.000000 0.612645
Si Si5 0.883753 0.365930 0.702718
Si Si6 0.000000 0.715347 0.387565
Si Si7 0.500000 0.627540 0.388331
O O1 0.728193 0.855165 0.500000
O O2 0.750000 0.750000 0.604836
O O3 0.809304 0.868971 0.645977
O O4 0.688814 0.842504 0.683440
O O5 0.368147 0.420983 0.500000
O O6 0.344248 0.500000 0.646935
O O7 0.434136 0.404647 0.656830
O O8 0.500000 0.082382 0.884249
O O9 0.390917 0.126462 0.816833
O O10 0.401316 0.000000 0.872400
O O11 0.400419 0.097941 0.000000
O O12 0.389874 0.935957 0.649530
O O13 0.500000 0.000000 0.655827
O O14 0.428840 0.000000 0.500000
O O15 0.935594 0.313926 0.660695
O O16 0.000000 0.697455 0.500000
O O17 0.000000 0.793768 0.367865
O O18 0.500000 0.612299 0.500000
#
# Coordination Sequence:
#
# PCOD8272592 Si02
#       7
#    16  16  16   8  16   8   8
#     4  10  21  34  45  63  97 135 165 193 233 288
#     4   9  17  29  45  63  82 113 159 204 237 267
#     4   9  17  31  48  67  92 122 159 203 246 284
#     4  11  20  28  39  65 101 128 155 193 226 270
#     4  12  20  30  46  66  93 127 161 194 233 277
#     4  11  20  28  41  64  92 127 159 185 222 280
#     4   9  17  30  46  61  83 113 154 200 237 269
#
# _framework density 15.416285999999999
#
# number of rings (size 3 to 8) (size 9 to 14) (size 15 to 20)
#    0.000    1.909    2.727    3.545    1.273    4.000 
#    0.000    0.000    0.000    0.545    0.000    0.000 
#    0.000    0.000    0.000    0.000    0.000   17.091 
#
# Total GULP energy -545421.302278 kJ/mol
# GULP energy per Si atom -12395.938688 kJ/mol
# Density = 1.538120 g / cm^3
# Si number density = 15.416286 Si / 1000 Ang^3
#
#
#
# Elastic Constant Matrix: (Units=GPa)
#
#
# Indices 1 2 3 4 5 6 
#
# 1 110.6777 46.5770 32.8678 0.0000 0.0000 0.0000
# 2 46.5770 73.1940 28.4747 0.0000 0.0000 0.0000
# 3 32.8678 28.4747 78.7974 0.0000 0.0000 0.0000
# 4 0.0000 0.0000 0.0000 7.4432 0.0000 0.0000
# 5 0.0000 0.0000 0.0000 0.0000 39.8795 0.0000
# 6 0.0000 0.0000 0.0000 0.0000 0.0000 7.1912
#
#
#
# Elastic Compliance Matrix: (Units=1/GPa)
#
#
# Indices 1 2 3 4 5 6 
#
# 1 0.012849 -0.007088 -0.002798 0.000000 0.000000 0.000000
# 2 -0.007088 0.019807 -0.004201 0.000000 0.000000 0.000000
# 3 -0.002798 -0.004201 0.015376 0.000000 0.000000 0.000000
# 4 0.000000 0.000000 0.000000 0.134351 0.000000 0.000000
# 5 0.000000 0.000000 0.000000 0.000000 0.025076 0.000000
# 6 0.000000 0.000000 0.000000 0.000000 0.000000 0.139058
#
#
# Mechanical properties :
#
#
# Convention : Reuss Voigt Hill
#
# Bulk Modulus (GPa) = 50.35825 53.16758 51.76292
# Shear Modulus (GPa) = 13.11266 21.21941 17.16604
#
# Velocity S-wave (km/s) = 2.91962 3.71405 3.34054
# Velocity P-wave (km/s) = 6.64094 7.27702 6.96624
#
# Compressibility (1/GPa) = 0.01985772
#
# Stress axis : x y z
#
# Youngs Moduli (GPa) = 77.82662 50.48704 65.03597
#
# Poissons Ratio (x) = 0.35785 0.18199
# Poissons Ratio (y) = 0.55163 0.27322
# Poissons Ratio (z) = 0.21778 0.21210
#
# Static dielectric constant tensor:
#      x y z
#    x 3.013110 0.000000 0.000000 
#    y 0.000000 2.896860 0.000000 
#    z 0.000000 0.000000 2.819760 
# 
# 
# High freq. dielectric constant tensor:
#      x y z
#    x 1.588880 0.000000 0.000000 
#    y 0.000000 1.596060 0.000000 
#    z 0.000000 0.000000 1.542730 
# 
# From -- ./inp_files/42550.got.cif
#   From: 2010.03.12/outbox.cif.g09.slc.cpg/sg65_22_cif.got.tgz:42550.got - 2010.04.10 20:52:16.
