data_PCOD8272572
_publ_section_title
;
Structure prediction by ZEFSAII (Michael W. Deem and Ramdas Pophale) SiO2 
 PCOD8272572
Probable space group: C M M M
;
_chemical_formula_sum "Si O2"
_cell_formula_units_Z 104
_cell_length_a 27.299029
_cell_length_b 9.118307
_cell_length_c 23.999840
_cell_angle_alpha 90.000000
_cell_angle_beta 90.000000
_cell_angle_gamma 90.000000
_cell_volume 5974.062426
_symmetry_space_group_name_H-M "C M M M"
_symmetry_group_IT_number 65
_symmetry_cell_setting 'orthorhombic'
loop_
_space_group_symop_operation_xyz
x,y,z
-x,-y,z
x,-y,-z
-x,y,-z
-x,-y,-z
x,y,-z
-x,y,z
x,-y,z
1/2+x,1/2+y,z
1/2-x,1/2-y,z
1/2+x,1/2-y,-z
1/2-x,1/2+y,-z
1/2-x,1/2-y,-z
1/2+x,1/2+y,-z
1/2-x,1/2+y,z
1/2+x,1/2-y,z
loop_
_atom_site_type_symbol
_atom_site_label
_atom_site_fract_x
_atom_site_fract_y
_atom_site_fract_z
Si Si1 0.943676 0.834162 0.272858
Si Si2 0.445285 0.325882 0.937974
Si Si3 0.138062 0.670859 0.335006
Si Si4 0.106651 0.173937 0.563913
Si Si5 0.384445 0.667919 0.164772
Si Si6 0.198833 0.672999 0.770897
Si Si7 0.000000 0.828525 0.563639
O O1 0.913150 0.720580 0.309004
O O2 0.928884 0.822718 0.208421
O O3 0.000000 0.790570 0.279560
O O4 0.934181 0.000000 0.294743
O O5 0.500000 0.263699 0.926102
O O6 0.447371 0.500000 0.933103
O O7 0.405896 0.267128 0.893123
O O8 0.428291 0.277984 0.000000
O O9 0.136590 0.500000 0.346820
O O10 0.146148 0.752145 0.394540
O O11 0.181164 0.712630 0.291816
O O12 0.115605 0.225079 0.500000
O O13 0.052480 0.228070 0.586807
O O14 0.111654 0.000000 0.567176
O O15 0.366115 0.500000 0.158698
O O16 0.339128 0.767540 0.183451
O O17 0.204010 0.500000 0.778865
O O18 0.250000 0.750000 0.781767
O O19 0.000000 0.784626 0.500000
O O20 0.000000 0.000000 0.572082
#
# Coordination Sequence:
#
# PCOD8272572 Si02
#       7
#    16  16  16  16  16  16   8
#     4   9  17  28  43  64  92 128 165 196 226 270
#     4   8  13  22  41  73 110 143 173 204 234 267
#     4  10  21  33  46  69  97 121 148 190 244 292
#     4   9  17  30  48  68  92 125 162 194 224 268
#     4   9  16  28  48  73  99 128 164 202 240 283
#     4  10  21  37  55  73  93 119 154 200 253 301
#     4   7  12  24  41  61  85 117 157 191 212 239
#
# _framework density 17.408588000000002
#
# number of rings (size 3 to 8) (size 9 to 14) (size 15 to 20)
#    0.000    3.000    0.000    2.769    1.077    4.308 
#    0.000    0.000    0.000    4.154    0.000    1.077 
#    0.000    0.000    0.000    0.000    0.000    0.000 
#
# Total GULP energy -644332.618284 kJ/mol
# GULP energy per Si atom -12391.011890 kJ/mol
# Density = 1.736897 g / cm^3
# Si number density = 17.408588 Si / 1000 Ang^3
#
#
#
# Elastic Constant Matrix: (Units=GPa)
#
#
# Indices 1 2 3 4 5 6 
#
# 1 81.6763 32.6284 43.2926 0.0000 0.0000 0.0000
# 2 32.6284 47.2428 36.3764 0.0000 0.0000 0.0000
# 3 43.2926 36.3764 117.8824 0.0000 0.0000 0.0000
# 4 0.0000 0.0000 0.0000 16.4396 0.0000 0.0000
# 5 0.0000 0.0000 0.0000 0.0000 19.2746 0.0000
# 6 0.0000 0.0000 0.0000 0.0000 0.0000 20.6809
#
#
#
# Elastic Compliance Matrix: (Units=1/GPa)
#
#
# Indices 1 2 3 4 5 6 
#
# 1 0.018028 -0.009645 -0.003645 0.000000 0.000000 0.000000
# 2 -0.009645 0.032924 -0.006618 0.000000 0.000000 0.000000
# 3 -0.003645 -0.006618 0.011864 0.000000 0.000000 0.000000
# 4 0.000000 0.000000 0.000000 0.060829 0.000000 0.000000
# 5 0.000000 0.000000 0.000000 0.000000 0.051882 0.000000
# 6 0.000000 0.000000 0.000000 0.000000 0.000000 0.048354
#
#
# Mechanical properties :
#
#
# Convention : Reuss Voigt Hill
#
# Bulk Modulus (GPa) = 43.47549 52.37736 47.92643
# Shear Modulus (GPa) = 18.42558 20.24597 19.33577
#
# Velocity S-wave (km/s) = 3.25686 3.41396 3.33634
# Velocity P-wave (km/s) = 6.25865 6.75963 6.51396
#
# Compressibility (1/GPa) = 0.02300147
#
# Stress axis : x y z
#
# Youngs Moduli (GPa) = 55.46827 30.37290 84.29118
#
# Poissons Ratio (x) = 0.29295 0.30721
# Poissons Ratio (y) = 0.53499 0.55781
# Poissons Ratio (z) = 0.20216 0.20100
#
# Static dielectric constant tensor:
#      x y z
#    x 3.116040 0.000000 0.000000 
#    y 0.000000 2.964570 0.000000 
#    z 0.000000 0.000000 3.450360 
# 
# 
# High freq. dielectric constant tensor:
#      x y z
#    x 1.646430 0.000000 0.000000 
#    y 0.000000 1.643410 0.000000 
#    z 0.000000 0.000000 1.677860 
# 
# From -- ./inp_files/76035.got.cif
#   From: 2010.03.12/outbox.cif.g09.slc.cpg/sg65_39_cif.got.tgz:76035.got - 2010.04.10 20:52:16.
