data_PCOD8272987
_publ_section_title
;
Structure prediction by ZEFSAII (Michael W. Deem and Ramdas Pophale) SiO2 
 PCOD8272987
Probable space group: C M M M
;
_chemical_formula_sum "Si O2"
_cell_formula_units_Z 88
_cell_length_a 8.825090
_cell_length_b 16.535141
_cell_length_c 29.650758
_cell_angle_alpha 90.000000
_cell_angle_beta 90.000000
_cell_angle_gamma 90.000000
_cell_volume 4326.760397
_symmetry_space_group_name_H-M "C M M M"
_symmetry_group_IT_number 65
_symmetry_cell_setting 'orthorhombic'
loop_
_space_group_symop_operation_xyz
x,y,z
-x,-y,z
x,-y,-z
-x,y,-z
-x,-y,-z
x,y,-z
-x,y,z
x,-y,z
1/2+x,1/2+y,z
1/2-x,1/2-y,z
1/2+x,1/2-y,-z
1/2-x,1/2+y,-z
1/2-x,1/2-y,-z
1/2+x,1/2+y,-z
1/2-x,1/2+y,z
1/2+x,1/2-y,z
loop_
_atom_site_type_symbol
_atom_site_label
_atom_site_fract_x
_atom_site_fract_y
_atom_site_fract_z
Si Si1 0.179166 0.588034 0.315483
Si Si2 0.825998 0.000000 0.553313
Si Si3 0.678038 0.834207 0.225477
Si Si4 0.670712 0.592801 0.858926
Si Si5 0.319661 0.836603 0.593569
Si Si6 0.821572 0.835554 0.950640
O O1 0.245725 0.500000 0.328990
O O2 0.241021 0.608877 0.265565
O O3 0.225213 0.653000 0.353593
O O4 0.000000 0.583060 0.313192
O O5 0.744730 0.916361 0.568620
O O6 0.819697 0.000000 0.500000
O O7 0.000000 0.000000 0.570616
O O8 0.500000 0.826846 0.227155
O O9 0.750000 0.750000 0.236799
O O10 0.721945 0.862148 0.175698
O O11 0.500000 0.626842 0.853837
O O12 0.677451 0.500000 0.846591
O O13 0.728296 0.604522 0.910455
O O14 0.500000 0.833924 0.585619
O O15 0.250000 0.750000 0.576970
O O16 0.750000 0.750000 0.939395
O O17 0.000000 0.824958 0.951583
O O18 0.766223 0.867840 0.000000
#
# Coordination Sequence:
#
# PCOD8272987 Si02
#       6
#    16   8  16  16  16  16
#     4   9  18  35  59  87 119 156 197 243 295 352
#     4  11  25  45  67  95 131 169 215 267 318 375
#     4  11  22  36  56  80 112 150 190 233 283 343
#     4  10  21  36  53  76 107 139 178 228 279 335
#     4  11  22  40  67  96 130 169 213 263 316 374
#     4   9  18  33  53  75  99 132 173 218 271 329
#
# _framework density 20.338543000000001
#
# number of rings (size 3 to 8) (size 9 to 14) (size 15 to 20)
#    0.000    1.909    0.909    3.000    0.000    4.727 
#    0.000    4.545    0.000    0.000    0.000    3.818 
#    0.000    0.000    0.000    0.000    0.000    0.000 
#
# Total GULP energy -545259.389430 kJ/mol
# GULP energy per Si atom -12392.258851 kJ/mol
# Density = 2.029225 g / cm^3
# Si number density = 20.338543 Si / 1000 Ang^3
#
#
#
# Elastic Constant Matrix: (Units=GPa)
#
#
# Indices 1 2 3 4 5 6 
#
# 1 72.8622 43.4281 36.4903 0.0000 0.0000 0.0000
# 2 43.4281 127.2626 40.7222 0.0000 0.0000 0.0000
# 3 36.4903 40.7222 100.2240 0.0000 0.0000 0.0000
# 4 0.0000 0.0000 0.0000 32.7604 0.0000 0.0000
# 5 0.0000 0.0000 0.0000 0.0000 23.2759 0.0000
# 6 0.0000 0.0000 0.0000 0.0000 0.0000 22.7640
#
#
#
# Elastic Compliance Matrix: (Units=1/GPa)
#
#
# Indices 1 2 3 4 5 6 
#
# 1 0.019162 -0.004950 -0.004965 0.000000 0.000000 0.000000
# 2 -0.004950 0.010311 -0.002387 0.000000 0.000000 0.000000
# 3 -0.004965 -0.002387 0.012755 0.000000 0.000000 0.000000
# 4 0.000000 0.000000 0.000000 0.030525 0.000000 0.000000
# 5 0.000000 0.000000 0.000000 0.000000 0.042963 0.000000
# 6 0.000000 0.000000 0.000000 0.000000 0.000000 0.043929
#
#
# Mechanical properties :
#
#
# Convention : Reuss Voigt Hill
#
# Bulk Modulus (GPa) = 56.74439 60.18111 58.46275
# Shear Modulus (GPa) = 26.29872 27.74063 27.01967
#
# Velocity S-wave (km/s) = 3.59980 3.69717 3.64881
# Velocity P-wave (km/s) = 6.72596 6.91949 6.82341
#
# Compressibility (1/GPa) = 0.01762289
#
# Stress axis : x y z
#
# Youngs Moduli (GPa) = 52.18776 96.98560 78.39838
#
# Poissons Ratio (x) = 0.48008 0.38927
# Poissons Ratio (y) = 0.25833 0.18715
# Poissons Ratio (z) = 0.25912 0.23152
#
# Static dielectric constant tensor:
#      x y z
#    x 3.590200 0.000000 0.000000 
#    y 0.000000 3.703550 0.000000 
#    z 0.000000 0.000000 4.044410 
# 
# 
# High freq. dielectric constant tensor:
#      x y z
#    x 1.775800 0.000000 0.000000 
#    y 0.000000 1.796540 0.000000 
#    z 0.000000 0.000000 1.809950 
# 
# From -- ./inp_files/76467.got.cif
#   From: 2010.03.12/outbox.cif.g09.slc.cpg/sg65_39_cif.got.tgz:76467.got - 2010.04.10 20:52:16.
