data_PCOD8272441
_publ_section_title
;
Structure prediction by ZEFSAII (Michael W. Deem and Ramdas Pophale) SiO2 
 PCOD8272441
Probable space group: C M M M
;
_chemical_formula_sum "Si O2"
_cell_formula_units_Z 52
_cell_length_a 11.774403
_cell_length_b 29.423859
_cell_length_c 7.319848
_cell_angle_alpha 90.000000
_cell_angle_beta 90.000000
_cell_angle_gamma 90.000000
_cell_volume 2535.949435
_symmetry_space_group_name_H-M "C M M M"
_symmetry_group_IT_number 65
_symmetry_cell_setting 'orthorhombic'
loop_
_space_group_symop_operation_xyz
x,y,z
-x,-y,z
x,-y,-z
-x,y,-z
-x,-y,-z
x,y,-z
-x,y,z
x,-y,z
1/2+x,1/2+y,z
1/2-x,1/2-y,z
1/2+x,1/2-y,-z
1/2-x,1/2+y,-z
1/2-x,1/2-y,-z
1/2+x,1/2+y,-z
1/2-x,1/2+y,z
1/2+x,1/2-y,z
loop_
_atom_site_type_symbol
_atom_site_label
_atom_site_fract_x
_atom_site_fract_y
_atom_site_fract_z
Si Si1 0.000000 0.654819 0.215537
Si Si2 0.500000 0.078112 0.500000
Si Si3 0.751221 0.051285 0.500000
Si Si4 0.131617 0.885647 0.214439
Si Si5 0.769962 0.700417 0.215378
O O1 0.891511 0.682979 0.282379
O O2 0.000000 0.606935 0.314828
O O3 0.000000 0.645311 0.000000
O O4 0.614423 0.048469 0.500000
O O5 0.797132 0.076261 0.319429
O O6 0.798297 0.000000 0.500000
O O7 0.173782 0.835583 0.276418
O O8 0.000000 0.889761 0.266445
O O9 0.153225 0.893292 0.000000
O O10 0.750000 0.750000 0.305194
O O11 0.768684 0.705398 0.000000
#
# Coordination Sequence:
#
# PCOD8272441 Si02
#       5
#     8   4   8  16  16
#     4  10  20  37  61  87 124 164 200 248 299 351
#     4  12  23  42  64  88 118 158 204 250 309 358
#     4  12  26  44  65  89 117 153 203 259 311 364
#     4  10  22  41  64  91 124 159 198 248 303 360
#     4   9  18  33  59  91 122 161 202 240 290 351
#
# _framework density 20.505141999999999
#
# number of rings (size 3 to 8) (size 9 to 14) (size 15 to 20)
#    0.000    1.846    3.077    0.692    2.154    1.846 
#    0.000    4.615    0.000    2.769    0.000    0.000 
#    0.000    0.000    0.000    0.000    0.000    0.000 
#
# Total GULP energy -322379.235907 kJ/mol
# GULP energy per Si atom -12399.201381 kJ/mol
# Density = 2.045847 g / cm^3
# Si number density = 20.505142 Si / 1000 Ang^3
#
#
#
# Elastic Constant Matrix: (Units=GPa)
#
#
# Indices 1 2 3 4 5 6 
#
# 1 149.7222 49.3118 28.9159 0.0000 0.0000 0.0000
# 2 49.3118 147.5243 33.5611 0.0000 0.0000 0.0000
# 3 28.9159 33.5611 74.8764 0.0000 0.0000 0.0000
# 4 0.0000 0.0000 0.0000 31.1387 0.0000 0.0000
# 5 0.0000 0.0000 0.0000 0.0000 16.7304 0.0000
# 6 0.0000 0.0000 0.0000 0.0000 0.0000 28.6659
#
#
#
# Elastic Compliance Matrix: (Units=1/GPa)
#
#
# Indices 1 2 3 4 5 6 
#
# 1 0.007777 -0.002134 -0.002047 0.000000 0.000000 0.000000
# 2 -0.002134 0.008134 -0.002822 0.000000 0.000000 0.000000
# 3 -0.002047 -0.002822 0.015411 0.000000 0.000000 0.000000
# 4 0.000000 0.000000 0.000000 0.032114 0.000000 0.000000
# 5 0.000000 0.000000 0.000000 0.000000 0.059771 0.000000
# 6 0.000000 0.000000 0.000000 0.000000 0.000000 0.034885
#
#
# Mechanical properties :
#
#
# Convention : Reuss Voigt Hill
#
# Bulk Modulus (GPa) = 57.74845 66.18893 61.96869
# Shear Modulus (GPa) = 28.11056 32.66261 30.38658
#
# Velocity S-wave (km/s) = 3.70659 3.99544 3.85372
# Velocity P-wave (km/s) = 6.82220 7.32352 7.07730
#
# Compressibility (1/GPa) = 0.01731648
#
# Stress axis : x y z
#
# Youngs Moduli (GPa) = 128.58117 122.94458 64.89068
#
# Poissons Ratio (x) = 0.26236 0.13283
# Poissons Ratio (y) = 0.27439 0.18310
# Poissons Ratio (z) = 0.26320 0.34690
#
# Static dielectric constant tensor:
#      x y z
#    x 3.985170 0.000000 0.000000 
#    y 0.000000 3.721860 0.000000 
#    z 0.000000 0.000000 3.562260 
# 
# 
# High freq. dielectric constant tensor:
#      x y z
#    x 1.814940 0.000000 0.000000 
#    y 0.000000 1.791610 0.000000 
#    z 0.000000 0.000000 1.800050 
# 
# From -- ./inp_files/4311.got.cif
#   From: 2010.03.12/outbox.cif.g09.slc.cpg/sg65_3_cif.got.tgz:4311.got - 2010.04.10 20:52:16.
