data_PCOD8272173
_publ_section_title
;
Structure prediction by ZEFSAII (Michael W. Deem and Ramdas Pophale) SiO2 
 PCOD8272173
Probable space group: C M M M
;
_chemical_formula_sum "Si O2"
_cell_formula_units_Z 104
_cell_length_a 8.850547
_cell_length_b 26.637289
_cell_length_c 22.500519
_cell_angle_alpha 90.000000
_cell_angle_beta 90.000000
_cell_angle_gamma 90.000000
_cell_volume 5304.600367
_symmetry_space_group_name_H-M "C M M M"
_symmetry_group_IT_number 65
_symmetry_cell_setting 'orthorhombic'
loop_
_space_group_symop_operation_xyz
x,y,z
-x,-y,z
x,-y,-z
-x,y,-z
-x,-y,-z
x,y,-z
-x,y,z
x,-y,z
1/2+x,1/2+y,z
1/2-x,1/2-y,z
1/2+x,1/2-y,-z
1/2-x,1/2+y,-z
1/2-x,1/2-y,-z
1/2+x,1/2+y,-z
1/2-x,1/2+y,z
1/2+x,1/2-y,z
loop_
_atom_site_type_symbol
_atom_site_label
_atom_site_fract_x
_atom_site_fract_y
_atom_site_fract_z
Si Si1 0.178330 0.645760 0.065270
Si Si2 0.825673 0.056598 0.125571
Si Si3 0.329074 0.500000 0.570064
Si Si4 0.679262 0.197809 0.817224
Si Si5 0.179959 0.594888 0.629368
Si Si6 0.823459 0.108489 0.247221
Si Si7 0.177843 0.698328 0.568227
O O1 0.229721 0.589655 0.080206
O O2 0.238954 0.682988 0.116595
O O3 0.000000 0.646451 0.064840
O O4 0.240740 0.661804 0.000000
O O5 0.793830 0.069378 0.194246
O O6 0.000000 0.065541 0.110438
O O7 0.774867 0.000000 0.114439
O O8 0.500000 0.500000 0.596201
O O9 0.334136 0.500000 0.500000
O O10 0.241693 0.550123 0.589081
O O11 0.500000 0.199758 0.814573
O O12 0.750000 0.250000 0.799372
O O13 0.739627 0.160042 0.767917
O O14 0.248385 0.585824 0.694321
O O15 0.233705 0.649272 0.604419
O O16 0.000000 0.591741 0.631116
O O17 0.000000 0.118595 0.257397
O O18 0.228191 0.690583 0.500000
O O19 0.250000 0.750000 0.593783
O O20 0.000000 0.704183 0.574061
#
# Coordination Sequence:
#
# PCOD8272173 Si02
#       7
#    16  16   8  16  16  16  16
#     4   9  19  35  53  77 109 142 180 228 279 336
#     4   9  19  35  54  76 104 141 180 224 277 329
#     4  11  25  43  63  89 121 159 202 247 296 351
#     4  10  20  36  57  80 110 147 188 233 285 343
#     4  11  23  39  60  88 120 155 195 240 293 354
#     4  10  21  37  57  81 111 146 186 232 281 334
#     4   9  19  36  58  83 112 146 184 228 279 335
#
# _framework density 19.605626000000001
#
# number of rings (size 3 to 8) (size 9 to 14) (size 15 to 20)
#    0.000    2.231    0.000    2.077    1.077    5.538 
#    0.000    4.615    0.000    0.000    0.000    0.000 
#    0.000    0.000    0.000    0.000    0.000    0.000 
#
# Total GULP energy -644822.699354 kJ/mol
# GULP energy per Si atom -12400.436526 kJ/mol
# Density = 1.956100 g / cm^3
# Si number density = 19.605626 Si / 1000 Ang^3
#
#
#
# Elastic Constant Matrix: (Units=GPa)
#
#
# Indices 1 2 3 4 5 6 
#
# 1 57.9060 19.7577 22.0838 0.0000 0.0000 0.0000
# 2 19.7577 81.3702 5.7027 0.0000 0.0000 0.0000
# 3 22.0838 5.7027 66.7788 0.0000 0.0000 0.0000
# 4 0.0000 0.0000 0.0000 16.9434 0.0000 0.0000
# 5 0.0000 0.0000 0.0000 0.0000 28.8627 0.0000
# 6 0.0000 0.0000 0.0000 0.0000 0.0000 34.5377
#
#
#
# Elastic Compliance Matrix: (Units=1/GPa)
#
#
# Indices 1 2 3 4 5 6 
#
# 1 0.021434 -0.004736 -0.006684 0.000000 0.000000 0.000000
# 2 -0.004736 0.013410 0.000421 0.000000 0.000000 0.000000
# 3 -0.006684 0.000421 0.017149 0.000000 0.000000 0.000000
# 4 0.000000 0.000000 0.000000 0.059020 0.000000 0.000000
# 5 0.000000 0.000000 0.000000 0.000000 0.034647 0.000000
# 6 0.000000 0.000000 0.000000 0.000000 0.000000 0.028954
#
#
# Mechanical properties :
#
#
# Convention : Reuss Voigt Hill
#
# Bulk Modulus (GPa) = 33.33815 33.46040 33.39927
# Shear Modulus (GPa) = 24.20006 26.63613 25.41810
#
# Velocity S-wave (km/s) = 3.51713 3.68991 3.60456
# Velocity P-wave (km/s) = 5.79093 5.93782 5.86484
#
# Compressibility (1/GPa) = 0.02999567
#
# Stress axis : x y z
#
# Youngs Moduli (GPa) = 46.65390 74.57125 58.31165
#
# Poissons Ratio (x) = 0.35318 0.38975
# Poissons Ratio (y) = 0.22096 -0.02455
# Poissons Ratio (z) = 0.31183 -0.03140
#
# Static dielectric constant tensor:
#      x y z
#    x 3.562160 0.000000 0.000000 
#    y 0.000000 3.623550 0.000000 
#    z 0.000000 0.000000 3.745890 
# 
# 
# High freq. dielectric constant tensor:
#      x y z
#    x 1.763650 0.000000 0.000000 
#    y 0.000000 1.767200 0.000000 
#    z 0.000000 0.000000 1.766000 
# 
# From -- ./inp_files/60415.got.cif
#   From: 2010.03.12/outbox.cif.g09.slc.cpg/sg65_31_cif.got.tgz:60415.got - 2010.04.10 20:52:16.
