data_PCOD8272149
_publ_section_title
;
Structure prediction by ZEFSAII (Michael W. Deem and Ramdas Pophale) SiO2 
 PCOD8272149
Probable space group: C M M M
;
_chemical_formula_sum "Si O2"
_cell_formula_units_Z 72
_cell_length_a 10.296772
_cell_length_b 24.935471
_cell_length_c 15.135235
_cell_angle_alpha 90.000000
_cell_angle_beta 90.000000
_cell_angle_gamma 90.000000
_cell_volume 3886.045137
_symmetry_space_group_name_H-M "C M M M"
_symmetry_group_IT_number 65
_symmetry_cell_setting 'orthorhombic'
loop_
_space_group_symop_operation_xyz
x,y,z
-x,-y,z
x,-y,-z
-x,y,-z
-x,-y,-z
x,y,-z
-x,y,z
x,-y,z
1/2+x,1/2+y,z
1/2-x,1/2-y,z
1/2+x,1/2-y,-z
1/2-x,1/2+y,-z
1/2-x,1/2-y,-z
1/2+x,1/2+y,-z
1/2-x,1/2+y,z
1/2+x,1/2-y,z
loop_
_atom_site_type_symbol
_atom_site_label
_atom_site_fract_x
_atom_site_fract_y
_atom_site_fract_z
Si Si1 0.000000 0.634818 0.396862
Si Si2 0.136361 0.207787 0.500000
Si Si3 0.000000 0.059585 0.103323
Si Si4 0.344131 0.801880 0.000000
Si Si5 0.244157 0.622863 0.158738
Si Si6 0.000000 0.563120 0.234291
Si Si7 0.254119 0.687711 0.670059
O O1 0.000000 0.581283 0.336700
O O2 0.882195 0.672035 0.370610
O O3 0.000000 0.618117 0.500000
O O4 0.250000 0.250000 0.500000
O O5 0.144666 0.173636 0.409281
O O6 0.000000 0.238915 0.500000
O O7 0.130671 0.090361 0.128638
O O8 0.000000 0.000000 0.146940
O O9 0.000000 0.053284 0.000000
O O10 0.250000 0.750000 0.000000
O O11 0.309759 0.836424 0.914170
O O12 0.500000 0.786980 0.000000
O O13 0.293099 0.655606 0.243417
O O14 0.127558 0.583206 0.183275
O O15 0.000000 0.500000 0.231845
O O16 0.250000 0.750000 0.695731
#
# Coordination Sequence:
#
# PCOD8272149 Si02
#       7
#     8   8   8   8  16   8  16
#     4  10  20  36  56  88 119 154 198 252 293 355
#     4  10  22  34  52  82 113 156 198 236 281 340
#     4  11  24  41  65  91 117 154 205 262 313 350
#     4  12  26  44  63  92 130 166 197 240 295 366
#     4  11  23  43  61  91 123 158 203 247 306 364
#     4  10  22  42  66  87 116 158 206 258 306 356
#     4  10  22  34  57  84 122 158 198 235 293 359
#
# _framework density 18.527833999999999
#
# number of rings (size 3 to 8) (size 9 to 14) (size 15 to 20)
#    0.000    1.444    3.333    1.333    9.333    0.222 
#    0.000    0.556    0.000    0.000    0.000    0.778 
#    0.000    0.000    0.000    0.000    0.000    0.000 
#
# Total GULP energy -446116.798147 kJ/mol
# GULP energy per Si atom -12392.133282 kJ/mol
# Density = 1.848566 g / cm^3
# Si number density = 18.527834 Si / 1000 Ang^3
#
#
#
# Elastic Constant Matrix: (Units=GPa)
#
#
# Indices 1 2 3 4 5 6 
#
# 1 154.6448 65.5353 55.2336 0.0000 0.0000 0.0000
# 2 65.5353 138.6026 61.3581 0.0000 0.0000 0.0000
# 3 55.2336 61.3581 134.6769 0.0000 0.0000 0.0000
# 4 0.0000 0.0000 0.0000 18.6396 0.0000 0.0000
# 5 0.0000 0.0000 0.0000 0.0000 45.5125 0.0000
# 6 0.0000 0.0000 0.0000 0.0000 0.0000 21.7035
#
#
#
# Elastic Compliance Matrix: (Units=1/GPa)
#
#
# Indices 1 2 3 4 5 6 
#
# 1 0.008528 -0.003111 -0.002080 0.000000 0.000000 0.000000
# 2 -0.003111 0.010173 -0.003359 0.000000 0.000000 0.000000
# 3 -0.002080 -0.003359 0.009808 0.000000 0.000000 0.000000
# 4 0.000000 0.000000 0.000000 0.053649 0.000000 0.000000
# 5 0.000000 0.000000 0.000000 0.000000 0.021972 0.000000
# 6 0.000000 0.000000 0.000000 0.000000 0.000000 0.046075
#
#
# Mechanical properties :
#
#
# Convention : Reuss Voigt Hill
#
# Bulk Modulus (GPa) = 87.64904 88.01982 87.83443
# Shear Modulus (GPa) = 29.22119 33.55763 31.38941
#
# Velocity S-wave (km/s) = 3.97564 4.26044 4.12050
# Velocity P-wave (km/s) = 8.27549 8.47418 8.37542
#
# Compressibility (1/GPa) = 0.01140914
#
# Stress axis : x y z
#
# Youngs Moduli (GPa) = 117.26258 98.30022 101.95391
#
# Poissons Ratio (x) = 0.30586 0.21205
# Poissons Ratio (y) = 0.36486 0.34243
# Poissons Ratio (z) = 0.24389 0.33016
#
# Static dielectric constant tensor:
#      x y z
#    x 3.620140 0.000000 0.000000 
#    y 0.000000 3.357780 0.000000 
#    z 0.000000 0.000000 4.179350 
# 
# 
# High freq. dielectric constant tensor:
#      x y z
#    x 1.735620 0.000000 0.000000 
#    y 0.000000 1.702010 0.000000 
#    z 0.000000 0.000000 1.741170 
# 
# From -- ./inp_files/36745.got.cif
#   From: 2010.03.12/outbox.cif.g09.slc.cpg/sg65_19_cif.got.tgz:36745.got - 2010.04.10 20:52:16.
