data_PCOD8272954
_publ_section_title
;
Structure prediction by ZEFSAII (Michael W. Deem and Ramdas Pophale) SiO2 
 PCOD8272954
Probable space group: C M M M
;
_chemical_formula_sum "Si O2"
_cell_formula_units_Z 72
_cell_length_a 15.289198
_cell_length_b 10.132783
_cell_length_c 23.588216
_cell_angle_alpha 90.000000
_cell_angle_beta 90.000000
_cell_angle_gamma 90.000000
_cell_volume 3654.336561
_symmetry_space_group_name_H-M "C M M M"
_symmetry_group_IT_number 65
_symmetry_cell_setting 'orthorhombic'
loop_
_space_group_symop_operation_xyz
x,y,z
-x,-y,z
x,-y,-z
-x,y,-z
-x,-y,-z
x,y,-z
-x,y,z
x,-y,z
1/2+x,1/2+y,z
1/2-x,1/2-y,z
1/2+x,1/2-y,-z
1/2-x,1/2+y,-z
1/2-x,1/2-y,-z
1/2+x,1/2+y,-z
1/2-x,1/2+y,z
1/2+x,1/2-y,z
loop_
_atom_site_type_symbol
_atom_site_label
_atom_site_fract_x
_atom_site_fract_y
_atom_site_fract_z
Si Si1 0.500000 0.343709 0.436405
Si Si2 0.500000 0.261897 0.936906
Si Si3 0.327433 0.652782 0.239047
Si Si4 0.172342 0.847684 0.628352
Si Si5 0.000000 0.854659 0.817804
Si Si6 0.186378 0.642298 0.065545
O O1 0.500000 0.500000 0.437578
O O2 0.500000 0.285280 0.500000
O O3 0.413377 0.295362 0.404055
O O4 0.500000 0.367313 0.886335
O O5 0.415676 0.171506 0.928406
O O6 0.500000 0.328605 0.000000
O O7 0.306005 0.500000 0.222690
O O8 0.250000 0.750000 0.220552
O O9 0.347178 0.664730 0.305329
O O10 0.411503 0.711979 0.205472
O O11 0.250000 0.750000 0.609651
O O12 0.195705 0.000000 0.612604
O O13 0.000000 0.000000 0.791151
O O14 0.205094 0.500000 0.094117
O O15 0.250000 0.750000 0.095397
O O16 0.212883 0.634266 0.000000
#
# Coordination Sequence:
#
# PCOD8272954 Si02
#       6
#     8   8  16  16   8  16
#     4   9  17  29  47  74 108 145 182 214 248 299
#     4  10  21  36  53  74 102 135 167 200 247 309
#     4   9  18  35  57  79 103 131 168 214 261 306
#     4   9  17  31  53  77 101 135 176 216 258 303
#     4  10  21  36  54  76 102 132 166 208 256 306
#     4   9  18  34  55  76  98 127 163 200 238 285
#
# _framework density 19.702618999999999
#
# number of rings (size 3 to 8) (size 9 to 14) (size 15 to 20)
#    0.000    2.778    0.000    1.000    0.000    6.444 
#    0.000    7.778    0.000    6.000    0.000    0.000 
#    0.000    0.000    0.000    0.000    0.000    0.000 
#
# Total GULP energy -446173.878961 kJ/mol
# GULP energy per Si atom -12393.718860 kJ/mol
# Density = 1.965777 g / cm^3
# Si number density = 19.702619 Si / 1000 Ang^3
#
#
#
# Elastic Constant Matrix: (Units=GPa)
#
#
# Indices 1 2 3 4 5 6 
#
# 1 188.5101 80.7386 62.5587 0.0000 0.0000 0.0000
# 2 80.7386 98.4326 26.9623 0.0000 0.0000 0.0000
# 3 62.5587 26.9623 79.0483 0.0000 0.0000 0.0000
# 4 0.0000 0.0000 0.0000 14.0665 0.0000 0.0000
# 5 0.0000 0.0000 0.0000 0.0000 7.2508 0.0000
# 6 0.0000 0.0000 0.0000 0.0000 0.0000 26.7268
#
#
#
# Elastic Compliance Matrix: (Units=1/GPa)
#
#
# Indices 1 2 3 4 5 6 
#
# 1 0.010054 -0.006693 -0.005674 0.000000 0.000000 0.000000
# 2 -0.006693 0.015661 -0.000045 0.000000 0.000000 0.000000
# 3 -0.005674 -0.000045 0.017156 0.000000 0.000000 0.000000
# 4 0.000000 0.000000 0.000000 0.071091 0.000000 0.000000
# 5 0.000000 0.000000 0.000000 0.000000 0.137915 0.000000
# 6 0.000000 0.000000 0.000000 0.000000 0.000000 0.037416
#
#
# Mechanical properties :
#
#
# Convention : Reuss Voigt Hill
#
# Bulk Modulus (GPa) = 55.40847 78.50113 66.95480
# Shear Modulus (GPa) = 15.61847 22.65757 19.13802
#
# Velocity S-wave (km/s) = 2.81857 3.39481 3.12002
# Velocity P-wave (km/s) = 6.22703 7.43612 6.85827
#
# Compressibility (1/GPa) = 0.01804778
#
# Stress axis : x y z
#
# Youngs Moduli (GPa) = 99.46069 63.85184 58.28717
#
# Poissons Ratio (x) = 0.42734 0.33073
# Poissons Ratio (y) = 0.66566 0.00264
# Poissons Ratio (z) = 0.56435 0.00289
#
# Static dielectric constant tensor:
#      x y z
#    x 3.720200 0.000000 0.000000 
#    y 0.000000 3.535470 0.000000 
#    z 0.000000 0.000000 3.518590 
# 
# 
# High freq. dielectric constant tensor:
#      x y z
#    x 1.778600 0.000000 0.000000 
#    y 0.000000 1.741480 0.000000 
#    z 0.000000 0.000000 1.756240 
# 
# From -- ./inp_files/69674.got.cif
#   From: 2010.03.12/outbox.cif.g09.slc.cpg/sg65_35_cif.got.tgz:69674.got - 2010.04.10 20:52:16.
