data_PCOD8272940
_publ_section_title
;
Structure prediction by ZEFSAII (Michael W. Deem and Ramdas Pophale) SiO2 
 PCOD8272940
Probable space group: C M M M
;
_chemical_formula_sum "Si O2"
_cell_formula_units_Z 88
_cell_length_a 19.432972
_cell_length_b 9.407224
_cell_length_c 28.019519
_cell_angle_alpha 90.000000
_cell_angle_beta 90.000000
_cell_angle_gamma 90.000000
_cell_volume 5122.257251
_symmetry_space_group_name_H-M "C M M M"
_symmetry_group_IT_number 65
_symmetry_cell_setting 'orthorhombic'
loop_
_space_group_symop_operation_xyz
x,y,z
-x,-y,z
x,-y,-z
-x,y,-z
-x,-y,-z
x,y,-z
-x,y,z
x,-y,z
1/2+x,1/2+y,z
1/2-x,1/2-y,z
1/2+x,1/2-y,-z
1/2-x,1/2+y,-z
1/2-x,1/2-y,-z
1/2+x,1/2+y,-z
1/2-x,1/2+y,z
1/2+x,1/2-y,z
loop_
_atom_site_type_symbol
_atom_site_label
_atom_site_fract_x
_atom_site_fract_y
_atom_site_fract_z
Si Si1 0.578641 0.167129 0.313857
Si Si2 0.178877 0.666177 0.603387
Si Si3 0.682357 0.161354 0.500000
Si Si4 0.918285 0.842680 0.775048
Si Si5 0.317319 0.835472 0.055939
Si Si6 0.080651 0.164427 0.118600
O O1 0.500000 0.214921 0.323148
O O2 0.623714 0.221714 0.358319
O O3 0.609017 0.235723 0.265438
O O4 0.583886 0.000000 0.307324
O O5 0.194601 0.500000 0.611165
O O6 0.250000 0.750000 0.609693
O O7 0.144066 0.693014 0.550513
O O8 0.750000 0.250000 0.500000
O O9 0.706870 0.000000 0.500000
O O10 0.893170 0.797423 0.827830
O O11 0.000000 0.843713 0.775869
O O12 0.890513 0.000000 0.762728
O O13 0.250000 0.750000 0.072487
O O14 0.382686 0.769183 0.082068
O O15 0.308433 0.000000 0.070214
O O16 0.330215 0.817473 0.000000
O O17 0.000000 0.192819 0.113461
O O18 0.097651 0.000000 0.106868
#
# Coordination Sequence:
#
# PCOD8272940 Si02
#       6
#    16  16   8  16  16  16
#     4   9  17  29  45  66  92 120 150 185 226 272
#     4   9  17  29  45  65  88 115 149 187 226 269
#     4   8  14  26  43  61  83 113 147 182 222 268
#     4   8  15  29  48  69  93 122 155 188 225 272
#     4  10  21  36  53  73  99 131 164 197 236 284
#     4   9  18  33  53  76 100 126 159 199 239 280
#
# _framework density 17.179925999999998
#
# number of rings (size 3 to 8) (size 9 to 14) (size 15 to 20)
#    0.000    3.091    0.000    1.636    0.000    3.273 
#    0.000    5.000    0.000    4.909    0.000    0.000 
#    0.000   10.182    0.000    0.000    0.000    0.000 
#
# Total GULP energy -545246.882776 kJ/mol
# GULP energy per Si atom -12391.974609 kJ/mol
# Density = 1.714082 g / cm^3
# Si number density = 17.179926 Si / 1000 Ang^3
#
#
#
# Elastic Constant Matrix: (Units=GPa)
#
#
# Indices 1 2 3 4 5 6 
#
# 1 60.1512 41.7388 51.7208 0.0000 0.0000 0.0000
# 2 41.7388 73.4660 58.2076 0.0000 0.0000 0.0000
# 3 51.7208 58.2076 107.5481 0.0000 0.0000 0.0000
# 4 0.0000 0.0000 0.0000 30.0430 0.0000 0.0000
# 5 0.0000 0.0000 0.0000 0.0000 20.5142 0.0000
# 6 0.0000 0.0000 0.0000 0.0000 0.0000 24.4286
#
#
#
# Elastic Compliance Matrix: (Units=1/GPa)
#
#
# Indices 1 2 3 4 5 6 
#
# 1 0.032494 -0.010644 -0.009866 0.000000 0.000000 0.000000
# 2 -0.010644 0.027318 -0.009666 0.000000 0.000000 0.000000
# 3 -0.009866 -0.009666 0.019274 0.000000 0.000000 0.000000
# 4 0.000000 0.000000 0.000000 0.033286 0.000000 0.000000
# 5 0.000000 0.000000 0.000000 0.000000 0.048747 0.000000
# 6 0.000000 0.000000 0.000000 0.000000 0.000000 0.040936
#
#
# Mechanical properties :
#
#
# Convention : Reuss Voigt Hill
#
# Bulk Modulus (GPa) = 53.37996 60.49998 56.93997
# Shear Modulus (GPa) = 18.61160 20.96370 19.78765
#
# Velocity S-wave (km/s) = 3.29497 3.49699 3.39748
# Velocity P-wave (km/s) = 6.75384 7.18312 6.97179
#
# Compressibility (1/GPa) = 0.01873362
#
# Stress axis : x y z
#
# Youngs Moduli (GPa) = 30.77520 36.60634 51.88319
#
# Poissons Ratio (x) = 0.38965 0.51185
# Poissons Ratio (y) = 0.32758 0.50150
# Poissons Ratio (z) = 0.30361 0.35384
#
# Static dielectric constant tensor:
#      x y z
#    x 2.839230 0.000000 0.000000 
#    y 0.000000 3.213640 0.000000 
#    z 0.000000 0.000000 3.688510 
# 
# 
# High freq. dielectric constant tensor:
#      x y z
#    x 1.625590 0.000000 0.000000 
#    y 0.000000 1.663650 0.000000 
#    z 0.000000 0.000000 1.678080 
# 
# From -- ./inp_files/71002.got.cif
#   From: 2010.03.12/outbox.cif.g09.slc.cpg/sg65_36_cif.got.tgz:71002.got - 2010.04.10 20:52:16.
