data_PCOD8272024
_publ_section_title
;
Structure prediction by ZEFSAII (Michael W. Deem and Ramdas Pophale) SiO2 
 PCOD8272024
Probable space group: C M M M
;
_chemical_formula_sum "Si O2"
_cell_formula_units_Z 104
_cell_length_a 18.352361
_cell_length_b 20.496092
_cell_length_c 14.301719
_cell_angle_alpha 90.000000
_cell_angle_beta 90.000000
_cell_angle_gamma 90.000000
_cell_volume 5379.615621
_symmetry_space_group_name_H-M "C M M M"
_symmetry_group_IT_number 65
_symmetry_cell_setting 'orthorhombic'
loop_
_space_group_symop_operation_xyz
x,y,z
-x,-y,z
x,-y,-z
-x,y,-z
-x,-y,-z
x,y,-z
-x,y,z
x,-y,z
1/2+x,1/2+y,z
1/2-x,1/2-y,z
1/2+x,1/2-y,-z
1/2-x,1/2+y,-z
1/2-x,1/2-y,-z
1/2+x,1/2+y,-z
1/2-x,1/2+y,z
1/2+x,1/2-y,z
loop_
_atom_site_type_symbol
_atom_site_label
_atom_site_fract_x
_atom_site_fract_y
_atom_site_fract_z
Si Si1 0.835780 0.424344 0.392463
Si Si2 0.707518 0.186313 0.105594
Si Si3 0.081181 0.799609 0.725755
Si Si4 0.714956 0.317732 0.391946
Si Si5 0.642969 0.632848 0.105634
Si Si6 0.918581 0.000000 0.888752
Si Si7 0.918511 0.346253 0.246236
O O1 0.861184 0.414346 0.500000
O O2 0.816001 0.500000 0.374023
O O3 0.766526 0.378898 0.370260
O O4 0.899462 0.401855 0.322261
O O5 0.750000 0.250000 0.147381
O O6 0.769434 0.130946 0.107127
O O7 0.639668 0.157911 0.162545
O O8 0.680920 0.202306 0.000000
O O9 0.138955 0.834504 0.658345
O O10 0.106458 0.809397 0.833564
O O11 0.081004 0.723118 0.701633
O O12 0.000000 0.828672 0.710291
O O13 0.697403 0.309542 0.500000
O O14 0.750000 0.250000 0.353305
O O15 0.619806 0.564286 0.150967
O O16 0.613490 0.642426 0.000000
O O17 0.000000 0.000000 0.850949
O O18 0.913933 0.000000 0.000000
O O19 0.000000 0.361561 0.207095
#
# Coordination Sequence:
#
# PCOD8272024 Si02
#       7
#    16  16  16  16  16   8  16
#     4  10  22  41  66  92 117 154 202 249 304 368
#     4  10  20  37  59  83 115 156 201 247 295 353
#     4  11  22  34  55  87 121 153 186 233 293 354
#     4  10  20  38  63  86 113 148 190 243 292 343
#     4  10  20  35  58  83 115 157 198 241 290 344
#     4   9  18  34  54  80 116 152 190 239 292 348
#     4  11  23  37  58  88 120 154 196 248 304 359
#
# _framework density 19.332236000000002
#
# number of rings (size 3 to 8) (size 9 to 14) (size 15 to 20)
#    0.000    1.769    3.077    1.385    0.000    2.154 
#    5.538    3.846    0.000    0.000    0.000    3.231 
#    0.000    0.000    0.000    0.000    0.000    0.000 
#
# Total GULP energy -644619.003556 kJ/mol
# GULP energy per Si atom -12396.519299 kJ/mol
# Density = 1.928824 g / cm^3
# Si number density = 19.332236 Si / 1000 Ang^3
#
#
#
# Elastic Constant Matrix: (Units=GPa)
#
#
# Indices 1 2 3 4 5 6 
#
# 1 149.0317 44.6855 58.8092 0.0000 0.0000 0.0000
# 2 44.6855 112.5034 35.4221 0.0000 0.0000 0.0000
# 3 58.8092 35.4221 79.7241 0.0000 0.0000 0.0000
# 4 0.0000 0.0000 0.0000 23.7868 0.0000 0.0000
# 5 0.0000 0.0000 0.0000 0.0000 23.3457 0.0000
# 6 0.0000 0.0000 0.0000 0.0000 0.0000 26.4405
#
#
#
# Elastic Compliance Matrix: (Units=1/GPa)
#
#
# Indices 1 2 3 4 5 6 
#
# 1 0.009795 -0.001878 -0.006391 0.000000 0.000000 0.000000
# 2 -0.001878 0.010695 -0.003366 0.000000 0.000000 0.000000
# 3 -0.006391 -0.003366 0.018753 0.000000 0.000000 0.000000
# 4 0.000000 0.000000 0.000000 0.042040 0.000000 0.000000
# 5 0.000000 0.000000 0.000000 0.000000 0.042835 0.000000
# 6 0.000000 0.000000 0.000000 0.000000 0.000000 0.037821
#
#
# Mechanical properties :
#
#
# Convention : Reuss Voigt Hill
#
# Bulk Modulus (GPa) = 62.60909 68.78808 65.69859
# Shear Modulus (GPa) = 26.24220 28.20407 27.22313
#
# Velocity S-wave (km/s) = 3.68833 3.82372 3.75663
# Velocity P-wave (km/s) = 7.11298 7.42656 7.27146
#
# Compressibility (1/GPa) = 0.01597212
#
# Stress axis : x y z
#
# Youngs Moduli (GPa) = 102.09210 93.50594 53.32441
#
# Poissons Ratio (x) = 0.17564 0.34079
# Poissons Ratio (y) = 0.19176 0.17949
# Poissons Ratio (z) = 0.65246 0.31475
#
# Static dielectric constant tensor:
#      x y z
#    x 3.641550 0.000000 0.000000 
#    y 0.000000 3.631190 0.000000 
#    z 0.000000 0.000000 3.429350 
# 
# 
# High freq. dielectric constant tensor:
#      x y z
#    x 1.753790 0.000000 0.000000 
#    y 0.000000 1.737730 0.000000 
#    z 0.000000 0.000000 1.740390 
# 
# From -- ./inp_files/42875.got.cif
#   From: 2010.03.12/outbox.cif.g09.slc.cpg/sg65_22_cif.got.tgz:42875.got - 2010.04.10 20:52:16.
