data_PCOD8272252
_publ_section_title
;
Structure prediction by ZEFSAII (Michael W. Deem and Ramdas Pophale) SiO2 
 PCOD8272252
Probable space group: C M M M
;
_chemical_formula_sum "Si O2"
_cell_formula_units_Z 88
_cell_length_a 23.746575
_cell_length_b 23.715960
_cell_length_c 8.098572
_cell_angle_alpha 90.000000
_cell_angle_beta 90.000000
_cell_angle_gamma 90.000000
_cell_volume 4560.895654
_symmetry_space_group_name_H-M "C M M M"
_symmetry_group_IT_number 65
_symmetry_cell_setting 'orthorhombic'
loop_
_space_group_symop_operation_xyz
x,y,z
-x,-y,z
x,-y,-z
-x,y,-z
-x,-y,-z
x,y,-z
-x,y,z
x,-y,z
1/2+x,1/2+y,z
1/2-x,1/2-y,z
1/2+x,1/2-y,-z
1/2-x,1/2+y,-z
1/2-x,1/2-y,-z
1/2+x,1/2+y,-z
1/2-x,1/2+y,z
1/2+x,1/2-y,z
loop_
_atom_site_type_symbol
_atom_site_label
_atom_site_fract_x
_atom_site_fract_y
_atom_site_fract_z
Si Si1 0.437866 0.933864 0.500000
Si Si2 0.655453 0.562951 0.811721
Si Si3 0.936202 0.265039 0.810082
Si Si4 0.063803 0.854672 0.688753
Si Si5 0.879404 0.619911 0.188914
Si Si6 0.225636 0.564772 0.310660
O O1 0.500000 0.906920 0.500000
O O2 0.408774 0.917604 0.672112
O O3 0.440316 0.000000 0.500000
O O4 0.636886 0.500000 0.755800
O O5 0.603467 0.604797 0.792722
O O6 0.709328 0.583390 0.706537
O O7 0.675034 0.562781 0.000000
O O8 0.917649 0.210499 0.705881
O O9 0.892741 0.315053 0.768660
O O10 0.000000 0.284207 0.764258
O O11 0.932642 0.247416 0.000000
O O12 0.068384 0.873093 0.500000
O O13 0.000000 0.861579 0.755241
O O14 0.812853 0.606598 0.201251
O O15 0.900074 0.606644 0.000000
O O16 0.206759 0.570562 0.500000
O O17 0.218427 0.500000 0.249907
#
# Coordination Sequence:
#
# PCOD8272252 Si02
#       6
#     8  16  16  16  16  16
#     4  11  24  38  54  82 117 152 194 246 299 350
#     4  10  21  37  58  84 114 150 190 234 286 344
#     4   9  19  36  57  81 110 148 193 239 287 341
#     4  10  21  36  57  85 115 149 187 233 289 346
#     4  11  22  37  59  85 115 154 199 244 292 349
#     4  10  20  36  58  83 113 150 193 241 291 345
#
# _framework density 19.294457000000001
#
# number of rings (size 3 to 8) (size 9 to 14) (size 15 to 20)
#    0.000    1.909    0.909    2.727    1.273    5.818 
#    0.000    3.636    0.000    5.455    0.000    0.000 
#    0.000    0.000    0.000    0.000    0.000    0.000 
#
# Total GULP energy -545560.825349 kJ/mol
# GULP energy per Si atom -12399.109667 kJ/mol
# Density = 1.925054 g / cm^3
# Si number density = 19.294457 Si / 1000 Ang^3
#
#
#
# Elastic Constant Matrix: (Units=GPa)
#
#
# Indices 1 2 3 4 5 6 
#
# 1 109.0225 70.0305 28.4540 0.0000 0.0000 0.0000
# 2 70.0305 99.7180 27.8699 0.0000 0.0000 0.0000
# 3 28.4540 27.8699 79.5976 0.0000 0.0000 0.0000
# 4 0.0000 0.0000 0.0000 28.1993 0.0000 0.0000
# 5 0.0000 0.0000 0.0000 0.0000 28.7568 0.0000
# 6 0.0000 0.0000 0.0000 0.0000 0.0000 37.2215
#
#
#
# Elastic Compliance Matrix: (Units=1/GPa)
#
#
# Indices 1 2 3 4 5 6 
#
# 1 0.017023 -0.011367 -0.002105 0.000000 0.000000 0.000000
# 2 -0.011367 0.018706 -0.002486 0.000000 0.000000 0.000000
# 3 -0.002105 -0.002486 0.014186 0.000000 0.000000 0.000000
# 4 0.000000 0.000000 0.000000 0.035462 0.000000 0.000000
# 5 0.000000 0.000000 0.000000 0.000000 0.034774 0.000000
# 6 0.000000 0.000000 0.000000 0.000000 0.000000 0.026866
#
#
# Mechanical properties :
#
#
# Convention : Reuss Voigt Hill
#
# Bulk Modulus (GPa) = 55.56005 60.11631 57.83818
# Shear Modulus (GPa) = 27.03655 29.63443 28.33549
#
# Velocity S-wave (km/s) = 3.74740 3.92331 3.83637
# Velocity P-wave (km/s) = 6.89800 7.19362 7.04736
#
# Compressibility (1/GPa) = 0.01799854
#
# Stress axis : x y z
#
# Youngs Moduli (GPa) = 58.74266 53.45901 70.49021
#
# Poissons Ratio (x) = 0.60766 0.14842
# Poissons Ratio (y) = 0.66772 0.17526
# Poissons Ratio (z) = 0.12368 0.13291
#
# Static dielectric constant tensor:
#      x y z
#    x 3.510630 0.000000 0.000000 
#    y 0.000000 3.390040 0.000000 
#    z 0.000000 0.000000 3.610020 
# 
# 
# High freq. dielectric constant tensor:
#      x y z
#    x 1.743630 0.000000 0.000000 
#    y 0.000000 1.738290 0.000000 
#    z 0.000000 0.000000 1.760540 
# 
# From -- ./inp_files/13978.got.cif
#   From: 2010.03.12/outbox.cif.g09.slc.cpg/sg65_7_cif.got.tgz:13978.got - 2010.04.10 20:52:16.
