data_PCOD8272922
_publ_section_title
;
Structure prediction by ZEFSAII (Michael W. Deem and Ramdas Pophale) SiO2 
 PCOD8272922
Probable space group: C M M M
;
_chemical_formula_sum "Si O2"
_cell_formula_units_Z 88
_cell_length_a 19.684541
_cell_length_b 9.207582
_cell_length_c 28.036816
_cell_angle_alpha 90.000000
_cell_angle_beta 90.000000
_cell_angle_gamma 90.000000
_cell_volume 5081.589501
_symmetry_space_group_name_H-M "C M M M"
_symmetry_group_IT_number 65
_symmetry_cell_setting 'orthorhombic'
loop_
_space_group_symop_operation_xyz
x,y,z
-x,-y,z
x,-y,-z
-x,y,-z
-x,-y,-z
x,y,-z
-x,y,z
x,-y,z
1/2+x,1/2+y,z
1/2-x,1/2-y,z
1/2+x,1/2-y,-z
1/2-x,1/2+y,-z
1/2-x,1/2-y,-z
1/2+x,1/2+y,-z
1/2-x,1/2+y,z
1/2+x,1/2-y,z
loop_
_atom_site_type_symbol
_atom_site_label
_atom_site_fract_x
_atom_site_fract_y
_atom_site_fract_z
Si Si1 0.580975 0.664255 0.907847
Si Si2 0.420861 0.668789 0.379788
Si Si3 0.418934 0.836894 0.816160
Si Si4 0.080986 0.335479 0.000000
Si Si5 0.419240 0.661138 0.273223
Si Si6 0.682361 0.168848 0.555505
O O1 0.500000 0.663357 0.908056
O O2 0.609046 0.500000 0.909525
O O3 0.608623 0.742083 0.860260
O O4 0.608700 0.752149 0.953461
O O5 0.500000 0.702021 0.386554
O O6 0.405459 0.500000 0.389932
O O7 0.396915 0.710632 0.326152
O O8 0.381802 0.769316 0.416642
O O9 0.500000 0.836475 0.816079
O O10 0.390406 0.770492 0.766693
O O11 0.390864 0.000000 0.821193
O O12 0.108992 0.500000 0.000000
O O13 0.000000 0.336734 0.000000
O O14 0.500000 0.656371 0.271200
O O15 0.390961 0.500000 0.262228
O O16 0.669049 0.198026 0.500000
O O17 0.750000 0.250000 0.573007
O O18 0.691160 0.000000 0.566910
#
# Coordination Sequence:
#
# PCOD8272922 Si02
#       6
#    16  16  16   8  16  16
#     4   9  15  21  28  37  51  75 108 146 191 243
#     4   9  18  32  50  72  97 124 153 187 229 275
#     4   9  15  21  30  45  64  87 117 154 197 243
#     4   9  15  21  27  35  49  69  99 145 196 241
#     4   8  14  25  39  55  77 104 132 163 203 252
#     4  10  21  36  53  72  95 124 157 192 229 271
#
# _framework density 17.317416000000001
#
# number of rings (size 3 to 8) (size 9 to 14) (size 15 to 20)
#    0.000    3.000    0.000    3.000    0.000    8.000 
#    0.000    3.636    0.000    0.000    0.000    0.000 
#    0.000    0.000    0.000    0.000    0.000    0.000 
#
# Total GULP energy -545475.647926 kJ/mol
# GULP energy per Si atom -12397.173816 kJ/mol
# Density = 1.727800 g / cm^3
# Si number density = 17.317416 Si / 1000 Ang^3
#
#
#
# Elastic Constant Matrix: (Units=GPa)
#
#
# Indices 1 2 3 4 5 6 
#
# 1 26.3087 30.5949 33.1844 0.0000 0.0000 0.0000
# 2 30.5949 151.6963 84.3282 0.0000 0.0000 0.0000
# 3 33.1844 84.3282 123.1378 0.0000 0.0000 0.0000
# 4 0.0000 0.0000 0.0000 37.6372 0.0000 0.0000
# 5 0.0000 0.0000 0.0000 0.0000 -0.1236 0.0000
# 6 0.0000 0.0000 0.0000 0.0000 0.0000 15.4600
#
#
#
# Elastic Compliance Matrix: (Units=1/GPa)
#
#
# Indices 1 2 3 4 5 6 
#
# 1 0.059856 -0.005014 -0.012697 0.000000 0.000000 0.000000
# 2 -0.005014 0.011064 -0.006226 0.000000 0.000000 0.000000
# 3 -0.012697 -0.006226 0.015806 0.000000 0.000000 0.000000
# 4 0.000000 0.000000 0.000000 0.026569 0.000000 0.000000
# 5 0.000000 0.000000 0.000000 0.000000 -8.091726 0.000000
# 6 0.000000 0.000000 0.000000 0.000000 0.000000 0.064683
#
#
# Mechanical properties :
#
#
# Convention : Reuss Voigt Hill
#
# Bulk Modulus (GPa) = 25.73780 66.37308 46.05544
# Shear Modulus (GPa) = -0.63671 20.79708 10.08019
#
# Velocity S-wave (km/s) = -0.60701 3.46921 2.41526
# Velocity P-wave (km/s) = 3.79518 7.37955 5.86776
#
# Compressibility (1/GPa) = 0.03885336
#
# Stress axis : x y z
#
# Youngs Moduli (GPa) = 16.70667 90.38005 63.26515
#
# Poissons Ratio (x) = 0.45315 0.80328
# Poissons Ratio (y) = 0.08376 0.39389
# Poissons Ratio (z) = 0.21213 0.56271
#
# Static dielectric constant tensor:
#      x y z
#    x 2.487220 0.000000 0.000000 
#    y 0.000000 3.425690 0.000000 
#    z 0.000000 0.000000 3.452050 
# 
# 
# High freq. dielectric constant tensor:
#      x y z
#    x 1.581710 0.000000 0.000000 
#    y 0.000000 1.682020 0.000000 
#    z 0.000000 0.000000 1.684310 
# 
# From -- ./inp_files/76524.got.cif
#   From: 2010.03.12/outbox.cif.g09.slc.cpg/sg65_39_cif.got.tgz:76524.got - 2010.04.10 20:52:16.
