data_PCOD8272031
_publ_section_title
;
Structure prediction by ZEFSAII (Michael W. Deem and Ramdas Pophale) SiO2 
 PCOD8272031
Probable space group: C M M M
;
_chemical_formula_sum "Si O2"
_cell_formula_units_Z 112
_cell_length_a 14.488679
_cell_length_b 14.504548
_cell_length_c 25.993770
_cell_angle_alpha 90.000000
_cell_angle_beta 90.000000
_cell_angle_gamma 90.000000
_cell_volume 5462.635995
_symmetry_space_group_name_H-M "C M M M"
_symmetry_group_IT_number 65
_symmetry_cell_setting 'orthorhombic'
loop_
_space_group_symop_operation_xyz
x,y,z
-x,-y,z
x,-y,-z
-x,y,-z
-x,-y,-z
x,y,-z
-x,y,z
x,-y,z
1/2+x,1/2+y,z
1/2-x,1/2-y,z
1/2+x,1/2-y,-z
1/2-x,1/2+y,-z
1/2-x,1/2-y,-z
1/2+x,1/2+y,-z
1/2-x,1/2+y,z
1/2+x,1/2-y,z
loop_
_atom_site_type_symbol
_atom_site_label
_atom_site_fract_x
_atom_site_fract_y
_atom_site_fract_z
Si Si1 0.397366 0.601330 0.391660
Si Si2 0.605673 0.793610 0.646891
Si Si3 0.710758 0.895324 0.557751
Si Si4 0.599947 0.396054 0.886167
Si Si5 0.107607 0.392890 0.251777
Si Si6 0.354610 0.226574 0.055313
Si Si7 0.199107 0.607269 0.147725
O O1 0.500000 0.610937 0.416334
O O2 0.387082 0.500000 0.364842
O O3 0.383669 0.682514 0.349571
O O4 0.321498 0.611472 0.436254
O O5 0.500000 0.824777 0.640044
O O6 0.661184 0.828623 0.597617
O O7 0.645992 0.837047 0.699082
O O8 0.685968 0.863434 0.500000
O O9 0.677092 0.000000 0.567281
O O10 0.500000 0.392316 0.856206
O O11 0.614093 0.500000 0.908326
O O12 0.592182 0.321389 0.931594
O O13 0.690630 0.369975 0.852427
O O14 0.127988 0.500000 0.261855
O O15 0.161361 0.355549 0.201883
O O16 0.000000 0.373836 0.242823
O O17 0.250000 0.250000 0.046582
O O18 0.360440 0.152981 0.101674
O O19 0.393655 0.189003 0.000000
O O20 0.179127 0.500000 0.142323
#
# Coordination Sequence:
#
# PCOD8272031 Si02
#       7
#    16  16  16  16  16  16  16
#     4   9  19  36  56  79 108 143 185 227 266 317
#     4  10  20  35  58  85 111 142 180 224 275 328
#     4  10  21  36  55  81 113 147 182 224 274 325
#     4   9  18  33  53  78 108 142 182 225 269 323
#     4   9  18  34  57  83 109 139 178 223 271 326
#     4   9  18  32  50  75 108 144 181 221 265 315
#     4   9  18  34  57  83 110 142 180 224 275 327
#
# _framework density 20.502922000000002
#
# number of rings (size 3 to 8) (size 9 to 14) (size 15 to 20)
#    0.000    2.714    0.000    0.857    0.000    4.000 
#    0.000   11.429    0.000    5.143    0.000   13.000 
#    0.000    0.000    0.000    0.000    0.000    0.000 
#
# Total GULP energy -693764.380660 kJ/mol
# GULP energy per Si atom -12388.649655 kJ/mol
# Density = 2.045626 g / cm^3
# Si number density = 20.502922 Si / 1000 Ang^3
#
#
#
# Elastic Constant Matrix: (Units=GPa)
#
#
# Indices 1 2 3 4 5 6 
#
# 1 89.1300 39.9608 54.2733 0.0000 0.0000 0.0000
# 2 39.9608 106.3374 75.2634 0.0000 0.0000 0.0000
# 3 54.2733 75.2634 166.3732 0.0000 0.0000 0.0000
# 4 0.0000 0.0000 0.0000 25.4986 0.0000 0.0000
# 5 0.0000 0.0000 0.0000 0.0000 35.3163 0.0000
# 6 0.0000 0.0000 0.0000 0.0000 0.0000 22.0352
#
#
#
# Elastic Compliance Matrix: (Units=1/GPa)
#
#
# Indices 1 2 3 4 5 6 
#
# 1 0.014675 -0.003128 -0.003372 0.000000 0.000000 0.000000
# 2 -0.003128 0.014500 -0.005539 0.000000 0.000000 0.000000
# 3 -0.003372 -0.005539 0.009616 0.000000 0.000000 0.000000
# 4 0.000000 0.000000 0.000000 0.039218 0.000000 0.000000
# 5 0.000000 0.000000 0.000000 0.000000 0.028316 0.000000
# 6 0.000000 0.000000 0.000000 0.000000 0.000000 0.045382
#
#
# Mechanical properties :
#
#
# Convention : Reuss Voigt Hill
#
# Bulk Modulus (GPa) = 67.96691 77.87062 72.91877
# Shear Modulus (GPa) = 27.67166 29.39289 28.53227
#
# Velocity S-wave (km/s) = 3.67774 3.79039 3.73449
# Velocity P-wave (km/s) = 7.15934 7.56431 7.36461
#
# Compressibility (1/GPa) = 0.01471304
#
# Stress axis : x y z
#
# Youngs Moduli (GPa) = 68.14086 68.96577 103.98913
#
# Poissons Ratio (x) = 0.21573 0.35068
# Poissons Ratio (y) = 0.21315 0.57600
# Poissons Ratio (z) = 0.22979 0.38200
#
# Static dielectric constant tensor:
#      x y z
#    x 4.141210 0.000000 0.000000 
#    y 0.000000 3.948050 0.000000 
#    z 0.000000 0.000000 3.636640 
# 
# 
# High freq. dielectric constant tensor:
#      x y z
#    x 1.805930 0.000000 0.000000 
#    y 0.000000 1.810740 0.000000 
#    z 0.000000 0.000000 1.766390 
# 
# From -- ./inp_files/69979.got.cif
#   From: 2010.03.12/outbox.cif.g09.slc.cpg/sg65_35_cif.got.tgz:69979.got - 2010.04.10 20:52:16.
