data_PCOD8272697
_publ_section_title
;
Structure prediction by ZEFSAII (Michael W. Deem and Ramdas Pophale) SiO2 
 PCOD8272697
Probable space group: C M M M
;
_chemical_formula_sum "Si O2"
_cell_formula_units_Z 72
_cell_length_a 9.531355
_cell_length_b 15.377089
_cell_length_c 27.679386
_cell_angle_alpha 90.000000
_cell_angle_beta 90.000000
_cell_angle_gamma 90.000000
_cell_volume 4056.815207
_symmetry_space_group_name_H-M "C M M M"
_symmetry_group_IT_number 65
_symmetry_cell_setting 'orthorhombic'
loop_
_space_group_symop_operation_xyz
x,y,z
-x,-y,z
x,-y,-z
-x,y,-z
-x,-y,-z
x,y,-z
-x,y,z
x,-y,z
1/2+x,1/2+y,z
1/2-x,1/2-y,z
1/2+x,1/2-y,-z
1/2-x,1/2+y,-z
1/2-x,1/2-y,-z
1/2+x,1/2+y,-z
1/2-x,1/2+y,z
1/2+x,1/2-y,z
loop_
_atom_site_type_symbol
_atom_site_label
_atom_site_fract_x
_atom_site_fract_y
_atom_site_fract_z
Si Si1 0.163541 0.333502 0.112631
Si Si2 0.835454 0.000000 0.383199
Si Si3 0.837441 0.167543 0.444324
Si Si4 0.166763 0.500000 0.945545
Si Si5 0.664809 0.000000 0.714615
Si Si6 0.161976 0.332693 0.224362
O O1 0.250000 0.250000 0.095260
O O2 0.221391 0.414607 0.081985
O O3 0.192431 0.354330 0.168594
O O4 0.000000 0.315759 0.102895
O O5 0.791800 0.084246 0.413713
O O6 0.749405 0.000000 0.334442
O O7 0.000000 0.000000 0.371463
O O8 0.802771 0.146981 0.500000
O O9 0.750000 0.250000 0.425474
O O10 0.000000 0.189733 0.437109
O O11 0.000000 0.500000 0.944920
O O12 0.225844 0.500000 0.000000
O O13 0.709220 0.084335 0.744984
O O14 0.500000 0.000000 0.703440
O O15 0.250000 0.250000 0.242326
O O16 0.000000 0.310120 0.232722
#
# Coordination Sequence:
#
# PCOD8272697 Si02
#       6
#    16   8  16   8   8  16
#     4   9  17  31  51  72  94 123 161 201 239 282
#     4  10  21  35  51  73 102 133 161 193 239 290
#     4   9  18  34  55  76  98 127 163 200 237 280
#     4   9  17  29  47  71  98 129 161 192 234 291
#     4  10  21  35  50  70  98 130 162 197 239 286
#     4   9  18  33  52  72  94 124 162 202 241 282
#
# _framework density 17.747913
#
# number of rings (size 3 to 8) (size 9 to 14) (size 15 to 20)
#    0.000    2.778    0.000    1.000    0.000    7.111 
#    0.000    5.000    0.000    9.333    0.000    0.000 
#    0.000    0.000    0.000    0.000    0.000    0.000 
#
# Total GULP energy -446479.291481 kJ/mol
# GULP energy per Si atom -12402.202541 kJ/mol
# Density = 1.770752 g / cm^3
# Si number density = 17.747913 Si / 1000 Ang^3
#
#
#
# Elastic Constant Matrix: (Units=GPa)
#
#
# Indices 1 2 3 4 5 6 
#
# 1 50.0386 71.4844 48.4028 0.0000 0.0000 0.0000
# 2 71.4844 199.6824 99.5999 0.0000 0.0000 0.0000
# 3 48.4028 99.5999 107.7466 0.0000 0.0000 0.0000
# 4 0.0000 0.0000 0.0000 12.7011 0.0000 0.0000
# 5 0.0000 0.0000 0.0000 0.0000 22.6822 0.0000
# 6 0.0000 0.0000 0.0000 0.0000 0.0000 34.8421
#
#
#
# Elastic Compliance Matrix: (Units=1/GPa)
#
#
# Indices 1 2 3 4 5 6 
#
# 1 0.046190 -0.011478 -0.010140 0.000000 0.000000 0.000000
# 2 -0.011478 0.012145 -0.006070 0.000000 0.000000 0.000000
# 3 -0.010140 -0.006070 0.019447 0.000000 0.000000 0.000000
# 4 0.000000 0.000000 0.000000 0.078733 0.000000 0.000000
# 5 0.000000 0.000000 0.000000 0.000000 0.044087 0.000000
# 6 0.000000 0.000000 0.000000 0.000000 0.000000 0.028701
#
#
# Mechanical properties :
#
#
# Convention : Reuss Voigt Hill
#
# Bulk Modulus (GPa) = 44.63036 88.49352 66.56194
# Shear Modulus (GPa) = 17.11457 23.24378 20.17917
#
# Velocity S-wave (km/s) = 3.10871 3.62285 3.37558
# Velocity P-wave (km/s) = 6.17145 8.21399 7.26487
#
# Compressibility (1/GPa) = 0.02240627
#
# Stress axis : x y z
#
# Youngs Moduli (GPa) = 21.64963 82.34007 51.42085
#
# Poissons Ratio (x) = 0.94510 0.52139
# Poissons Ratio (y) = 0.24849 0.31214
# Poissons Ratio (z) = 0.21952 0.49982
#
# Static dielectric constant tensor:
#      x y z
#    x 3.132440 0.000000 0.000000 
#    y 0.000000 3.463200 0.000000 
#    z 0.000000 0.000000 3.274420 
# 
# 
# High freq. dielectric constant tensor:
#      x y z
#    x 1.668200 0.000000 0.000000 
#    y 0.000000 1.698980 0.000000 
#    z 0.000000 0.000000 1.684190 
# 
# From -- ./inp_files/69675.got.cif
#   From: 2010.03.12/outbox.cif.g09.slc.cpg/sg65_35_cif.got.tgz:69675.got - 2010.04.10 20:52:16.
