data_PCOD8272008
_publ_section_title
;
Structure prediction by ZEFSAII (Michael W. Deem and Ramdas Pophale) SiO2 
 PCOD8272008
Probable space group: C M M M
;
_chemical_formula_sum "Si O2"
_cell_formula_units_Z 64
_cell_length_a 9.010489
_cell_length_b 15.809282
_cell_length_c 22.244743
_cell_angle_alpha 90.000000
_cell_angle_beta 90.000000
_cell_angle_gamma 90.000000
_cell_volume 3168.749438
_symmetry_space_group_name_H-M "C M M M"
_symmetry_group_IT_number 65
_symmetry_cell_setting 'orthorhombic'
loop_
_space_group_symop_operation_xyz
x,y,z
-x,-y,z
x,-y,-z
-x,y,-z
-x,-y,-z
x,y,-z
-x,y,z
x,-y,z
1/2+x,1/2+y,z
1/2-x,1/2-y,z
1/2+x,1/2-y,-z
1/2-x,1/2+y,-z
1/2-x,1/2-y,-z
1/2+x,1/2+y,-z
1/2-x,1/2+y,z
1/2+x,1/2-y,z
loop_
_atom_site_type_symbol
_atom_site_label
_atom_site_fract_x
_atom_site_fract_y
_atom_site_fract_z
Si Si1 0.336100 0.598515 0.884828
Si Si2 0.324590 0.836500 0.360270
Si Si3 0.675827 0.840009 0.000000
Si Si4 0.328909 0.099005 0.768590
Si Si5 0.823450 0.500000 0.568207
O O1 0.500000 0.638813 0.895989
O O2 0.352868 0.500000 0.874496
O O3 0.265397 0.637079 0.824159
O O4 0.228549 0.611621 0.940894
O O5 0.500000 0.828260 0.367831
O O6 0.250000 0.750000 0.383344
O O7 0.279497 0.851815 0.291092
O O8 0.263348 0.915292 0.399362
O O9 0.750000 0.750000 0.000000
O O10 0.500000 0.833771 0.000000
O O11 0.500000 0.115065 0.783860
O O12 0.299488 0.000000 0.757819
O O13 0.765512 0.500000 0.500000
O O14 0.000000 0.500000 0.571842
#
# Coordination Sequence:
#
# PCOD8272008 Si02
#       5
#    16  16   8  16   8
#     4  10  21  37  58  84 113 145 185 233 285 340
#     4  10  20  35  57  86 117 153 196 244 293 347
#     4  12  25  40  57  77 107 147 189 236 289 344
#     4   9  17  33  56  79 107 146 193 237 282 341
#     4   9  18  36  61  85 115 158 201 238 283 347
#
# _framework density 20.197244000000001
#
# number of rings (size 3 to 8) (size 9 to 14) (size 15 to 20)
#    0.000    2.125    1.250    2.250    0.000    5.500 
#    0.000    3.125    0.000    0.750    0.000    0.000 
#    0.000    0.000    0.000    0.000    0.000    0.000 
#
# Total GULP energy -396792.510019 kJ/mol
# GULP energy per Si atom -12399.765938 kJ/mol
# Density = 2.015127 g / cm^3
# Si number density = 20.197244 Si / 1000 Ang^3
#
#
#
# Elastic Constant Matrix: (Units=GPa)
#
#
# Indices 1 2 3 4 5 6 
#
# 1 100.9515 36.2498 56.5160 0.0000 0.0000 0.0000
# 2 36.2498 98.6769 63.2555 0.0000 0.0000 0.0000
# 3 56.5160 63.2555 151.1290 0.0000 0.0000 0.0000
# 4 0.0000 0.0000 0.0000 12.4181 0.0000 0.0000
# 5 0.0000 0.0000 0.0000 0.0000 18.2675 0.0000
# 6 0.0000 0.0000 0.0000 0.0000 0.0000 30.2929
#
#
#
# Elastic Compliance Matrix: (Units=1/GPa)
#
#
# Indices 1 2 3 4 5 6 
#
# 1 0.012883 -0.002247 -0.003877 0.000000 0.000000 0.000000
# 2 -0.002247 0.014242 -0.005121 0.000000 0.000000 0.000000
# 3 -0.003877 -0.005121 0.010210 0.000000 0.000000 0.000000
# 4 0.000000 0.000000 0.000000 0.080528 0.000000 0.000000
# 5 0.000000 0.000000 0.000000 0.000000 0.054742 0.000000
# 6 0.000000 0.000000 0.000000 0.000000 0.000000 0.033011
#
#
# Mechanical properties :
#
#
# Convention : Reuss Voigt Hill
#
# Bulk Modulus (GPa) = 67.36241 73.64445 70.50343
# Shear Modulus (GPa) = 21.45417 25.17812 23.31614
#
# Velocity S-wave (km/s) = 3.26273 3.53457 3.40136
# Velocity P-wave (km/s) = 6.90062 7.29379 7.09993
#
# Compressibility (1/GPa) = 0.01484507
#
# Stress axis : x y z
#
# Youngs Moduli (GPa) = 77.61974 70.21368 97.94269
#
# Poissons Ratio (x) = 0.15780 0.37974
# Poissons Ratio (y) = 0.17444 0.50154
# Poissons Ratio (z) = 0.30095 0.35954
#
# Static dielectric constant tensor:
#      x y z
#    x 3.507980 0.000000 0.000000 
#    y 0.000000 3.599760 0.000000 
#    z 0.000000 0.000000 3.689370 
# 
# 
# High freq. dielectric constant tensor:
#      x y z
#    x 1.771530 0.000000 0.000000 
#    y 0.000000 1.782600 0.000000 
#    z 0.000000 0.000000 1.794240 
# 
# From -- ./inp_files/66782.got.cif
#   From: 2010.03.12/outbox.cif.g09.slc.cpg/sg65_34_cif.got.tgz:66782.got - 2010.04.10 20:52:16.
