data_PCOD8272468
_publ_section_title
;
Structure prediction by ZEFSAII (Michael W. Deem and Ramdas Pophale) SiO2 
 PCOD8272468
Probable space group: C M M M
;
_chemical_formula_sum "Si O2"
_cell_formula_units_Z 48
_cell_length_a 37.248882
_cell_length_b 7.776010
_cell_length_c 7.954221
_cell_angle_alpha 90.000000
_cell_angle_beta 90.000000
_cell_angle_gamma 90.000000
_cell_volume 2303.921650
_symmetry_space_group_name_H-M "C M M M"
_symmetry_group_IT_number 65
_symmetry_cell_setting 'orthorhombic'
loop_
_space_group_symop_operation_xyz
x,y,z
-x,-y,z
x,-y,-z
-x,y,-z
-x,-y,-z
x,y,-z
-x,y,z
x,-y,z
1/2+x,1/2+y,z
1/2-x,1/2-y,z
1/2+x,1/2-y,-z
1/2-x,1/2+y,-z
1/2-x,1/2-y,-z
1/2+x,1/2+y,-z
1/2-x,1/2+y,z
1/2+x,1/2-y,z
loop_
_atom_site_type_symbol
_atom_site_label
_atom_site_fract_x
_atom_site_fract_y
_atom_site_fract_z
Si Si1 0.708809 0.202094 0.500000
Si Si2 0.089637 0.807690 0.691464
Si Si3 0.040713 0.500000 0.198089
Si Si4 0.835927 0.298051 0.813751
O O1 0.750000 0.250000 0.500000
O O2 0.690298 0.278189 0.669254
O O3 0.704390 0.000000 0.500000
O O4 0.101748 0.778795 0.500000
O O5 0.059004 0.672510 0.735475
O O6 0.124877 0.785232 0.804157
O O7 0.074159 0.000000 0.720370
O O8 0.000000 0.500000 0.263929
O O9 0.042881 0.500000 0.000000
O O10 0.840856 0.500000 0.788122
O O11 0.820099 0.256267 0.000000
#
# Coordination Sequence:
#
# PCOD8272468 Si02
#       4
#     8  16   8  16
#     4  10  22  38  58  86 124 163 206 257 315 383
#     4  11  23  39  64  95 125 163 217 269 317 381
#     4  11  25  43  63  91 131 173 213 268 329 383
#     4  10  20  37  62  89 120 163 212 262 317 377
#
# _framework density 20.834040999999999
#
# number of rings (size 3 to 8) (size 9 to 14) (size 15 to 20)
#    0.000    1.500    3.333    1.500    0.000    6.667 
#    0.000    3.333    0.000    0.000    0.000    0.000 
#    0.000    0.000    0.000    0.000    0.000    0.000 
#
# Total GULP energy -297610.729400 kJ/mol
# GULP energy per Si atom -12400.447058 kJ/mol
# Density = 2.078662 g / cm^3
# Si number density = 20.834041 Si / 1000 Ang^3
#
#
#
# Elastic Constant Matrix: (Units=GPa)
#
#
# Indices 1 2 3 4 5 6 
#
# 1 144.0414 51.0759 65.8266 0.0000 0.0000 0.0000
# 2 51.0759 95.9698 48.6926 0.0000 0.0000 0.0000
# 3 65.8266 48.6926 153.6367 0.0000 0.0000 0.0000
# 4 0.0000 0.0000 0.0000 15.1449 0.0000 0.0000
# 5 0.0000 0.0000 0.0000 0.0000 29.8370 0.0000
# 6 0.0000 0.0000 0.0000 0.0000 0.0000 25.3092
#
#
#
# Elastic Compliance Matrix: (Units=1/GPa)
#
#
# Indices 1 2 3 4 5 6 
#
# 1 0.009569 -0.003590 -0.002962 0.000000 0.000000 0.000000
# 2 -0.003590 0.013763 -0.002824 0.000000 0.000000 0.000000
# 3 -0.002962 -0.002824 0.008673 0.000000 0.000000 0.000000
# 4 0.000000 0.000000 0.000000 0.066029 0.000000 0.000000
# 5 0.000000 0.000000 0.000000 0.000000 0.033515 0.000000
# 6 0.000000 0.000000 0.000000 0.000000 0.000000 0.039511
#
#
# Mechanical properties :
#
#
# Convention : Reuss Voigt Hill
#
# Bulk Modulus (GPa) = 75.45200 80.53756 77.99478
# Shear Modulus (GPa) = 25.74259 29.26174 27.50217
#
# Velocity S-wave (km/s) = 3.51893 3.75175 3.63720
# Velocity P-wave (km/s) = 7.26669 7.58341 7.42674
#
# Compressibility (1/GPa) = 0.01325346
#
# Stress axis : x y z
#
# Youngs Moduli (GPa) = 104.50327 72.65708 115.29979
#
# Poissons Ratio (x) = 0.26082 0.34154
# Poissons Ratio (y) = 0.37515 0.32560
# Poissons Ratio (z) = 0.30956 0.20518
#
# Static dielectric constant tensor:
#      x y z
#    x 3.380120 0.000000 0.000000 
#    y 0.000000 3.762580 0.000000 
#    z 0.000000 0.000000 4.156060 
# 
# 
# High freq. dielectric constant tensor:
#      x y z
#    x 1.796150 0.000000 0.000000 
#    y 0.000000 1.813600 0.000000 
#    z 0.000000 0.000000 1.835350 
# 
# From -- ./inp_files/17526.got.cif
#   From: 2010.03.12/outbox.cif.g09.slc.cpg/sg65_9_cif.got.tgz:17526.got - 2010.04.10 20:52:16.
