data_PCOD8272896
_publ_section_title
;
Structure prediction by ZEFSAII (Michael W. Deem and Ramdas Pophale) SiO2 
 PCOD8272896
Probable space group: C M M M
;
_chemical_formula_sum "Si O2"
_cell_formula_units_Z 72
_cell_length_a 8.917820
_cell_length_b 29.338458
_cell_length_c 15.105602
_cell_angle_alpha 90.000000
_cell_angle_beta 90.000000
_cell_angle_gamma 90.000000
_cell_volume 3952.155501
_symmetry_space_group_name_H-M "C M M M"
_symmetry_group_IT_number 65
_symmetry_cell_setting 'orthorhombic'
loop_
_space_group_symop_operation_xyz
x,y,z
-x,-y,z
x,-y,-z
-x,y,-z
-x,-y,-z
x,y,-z
-x,y,z
x,-y,z
1/2+x,1/2+y,z
1/2-x,1/2-y,z
1/2+x,1/2-y,-z
1/2-x,1/2+y,-z
1/2-x,1/2-y,-z
1/2+x,1/2+y,-z
1/2-x,1/2+y,z
1/2+x,1/2-y,z
loop_
_atom_site_type_symbol
_atom_site_label
_atom_site_fract_x
_atom_site_fract_y
_atom_site_fract_z
Si Si1 0.679235 0.551594 0.691363
Si Si2 0.324219 0.203464 0.099377
Si Si3 0.175343 0.797743 0.602514
Si Si4 0.338755 0.553244 0.500000
Si Si5 0.677130 0.138612 0.255714
O O1 0.500000 0.557055 0.693663
O O2 0.724211 0.500000 0.718432
O O3 0.744024 0.564390 0.592556
O O4 0.760136 0.587202 0.756116
O O5 0.500000 0.211343 0.102122
O O6 0.250000 0.250000 0.132722
O O7 0.274837 0.163546 0.165353
O O8 0.270081 0.190824 0.000000
O O9 0.206939 0.809453 0.500000
O O10 0.250000 0.750000 0.629412
O O11 0.246716 0.837775 0.660074
O O12 0.000000 0.793964 0.622770
O O13 0.372461 0.500000 0.500000
O O14 0.500000 0.579006 0.500000
O O15 0.500000 0.138293 0.269377
#
# Coordination Sequence:
#
# PCOD8272896 Si02
#       5
#    16  16  16   8  16
#     4   9  18  33  52  73 100 136 177 218 259 304
#     4   9  19  36  56  78 104 133 166 207 257 310
#     4  10  21  36  52  71 101 140 176 209 248 300
#     4   7  12  26  47  67  88 121 166 209 247 289
#     4  11  22  33  51  78 106 135 169 213 259 309
#
# _framework density 18.217907
#
# number of rings (size 3 to 8) (size 9 to 14) (size 15 to 20)
#    0.000    2.556    0.000    3.333    1.556    5.333 
#    0.000    0.000    0.000    2.667    0.000    4.667 
#    0.000    0.000    0.000    0.000    0.000    0.000 
#
# Total GULP energy -446216.710292 kJ/mol
# GULP energy per Si atom -12394.908619 kJ/mol
# Density = 1.817644 g / cm^3
# Si number density = 18.217907 Si / 1000 Ang^3
#
#
#
# Elastic Constant Matrix: (Units=GPa)
#
#
# Indices 1 2 3 4 5 6 
#
# 1 61.4615 52.2959 39.3354 0.0000 0.0000 0.0000
# 2 52.2959 143.8226 71.0138 0.0000 0.0000 0.0000
# 3 39.3354 71.0138 85.6794 0.0000 0.0000 0.0000
# 4 0.0000 0.0000 0.0000 23.9498 0.0000 0.0000
# 5 0.0000 0.0000 0.0000 0.0000 6.7410 0.0000
# 6 0.0000 0.0000 0.0000 0.0000 0.0000 32.9141
#
#
#
# Elastic Compliance Matrix: (Units=1/GPa)
#
#
# Indices 1 2 3 4 5 6 
#
# 1 0.025748 -0.005968 -0.006874 0.000000 0.000000 0.000000
# 2 -0.005968 0.013153 -0.008162 0.000000 0.000000 0.000000
# 3 -0.006874 -0.008162 0.021592 0.000000 0.000000 0.000000
# 4 0.000000 0.000000 0.000000 0.041754 0.000000 0.000000
# 5 0.000000 0.000000 0.000000 0.000000 0.148346 0.000000
# 6 0.000000 0.000000 0.000000 0.000000 0.000000 0.030382
#
#
# Mechanical properties :
#
#
# Convention : Reuss Voigt Hill
#
# Bulk Modulus (GPa) = 54.09831 68.47263 61.28547
# Shear Modulus (GPa) = 15.19089 21.27555 18.23322
#
# Velocity S-wave (km/s) = 2.89077 3.42107 3.16704
# Velocity P-wave (km/s) = 6.39544 7.29876 6.86198
#
# Compressibility (1/GPa) = 0.01848487
#
# Stress axis : x y z
#
# Youngs Moduli (GPa) = 38.83793 76.02839 46.31324
#
# Poissons Ratio (x) = 0.45374 0.31838
# Poissons Ratio (y) = 0.23179 0.37799
# Poissons Ratio (z) = 0.26699 0.62052
#
# Static dielectric constant tensor:
#      x y z
#    x 3.213920 0.000000 0.000000 
#    y 0.000000 3.423940 0.000000 
#    z 0.000000 0.000000 3.530800 
# 
# 
# High freq. dielectric constant tensor:
#      x y z
#    x 1.693730 0.000000 0.000000 
#    y 0.000000 1.706600 0.000000 
#    z 0.000000 0.000000 1.689400 
# 
# From -- ./inp_files/36941.got.cif
#   From: 2010.03.12/outbox.cif.g09.slc.cpg/sg65_19_cif.got.tgz:36941.got - 2010.04.10 20:52:16.
