data_PCOD8272531
_publ_section_title
;
Structure prediction by ZEFSAII (Michael W. Deem and Ramdas Pophale) SiO2 
 PCOD8272531
Probable space group: C M M M
;
_chemical_formula_sum "Si O2"
_cell_formula_units_Z 96
_cell_length_a 19.025647
_cell_length_b 22.403701
_cell_length_c 11.263745
_cell_angle_alpha 90.000000
_cell_angle_beta 90.000000
_cell_angle_gamma 90.000000
_cell_volume 4801.113937
_symmetry_space_group_name_H-M "C M M M"
_symmetry_group_IT_number 65
_symmetry_cell_setting 'orthorhombic'
loop_
_space_group_symop_operation_xyz
x,y,z
-x,-y,z
x,-y,-z
-x,y,-z
-x,-y,-z
x,y,-z
-x,y,z
x,-y,z
1/2+x,1/2+y,z
1/2-x,1/2-y,z
1/2+x,1/2-y,-z
1/2-x,1/2+y,-z
1/2-x,1/2-y,-z
1/2+x,1/2+y,-z
1/2-x,1/2+y,z
1/2+x,1/2-y,z
loop_
_atom_site_type_symbol
_atom_site_label
_atom_site_fract_x
_atom_site_fract_y
_atom_site_fract_z
Si Si1 0.807510 0.200248 0.000000
Si Si2 0.582210 0.799355 0.000000
Si Si3 0.578223 0.262257 0.362001
Si Si4 0.080337 0.639213 0.755764
Si Si5 0.698619 0.068719 0.360958
Si Si6 0.580873 0.566568 0.129557
Si Si7 0.819586 0.146102 0.248714
O O1 0.750000 0.250000 0.000000
O O2 0.793089 0.160712 0.883374
O O3 0.882925 0.233615 0.000000
O O4 0.604491 0.837409 0.884986
O O5 0.500000 0.785346 0.000000
O O6 0.579737 0.275251 0.500000
O O7 0.500000 0.280556 0.311246
O O8 0.589863 0.192538 0.338176
O O9 0.644832 0.295983 0.306371
O O10 0.128740 0.584436 0.713709
O O11 0.000000 0.616271 0.759641
O O12 0.683022 0.075429 0.500000
O O13 0.758586 0.116673 0.326917
O O14 0.719903 0.000000 0.330859
O O15 0.500000 0.566701 0.161649
O O16 0.610123 0.500000 0.121014
O O17 0.618672 0.598058 0.238176
O O18 0.594148 0.597863 0.000000
#
# Coordination Sequence:
#
# PCOD8272531 Si02
#       7
#     8   8  16  16  16  16  16
#     4  12  24  36  54  86 124 160 192 234 294 373
#     4  10  20  38  64  96 130 160 188 236 308 378
#     4  10  21  36  58  90 123 157 197 241 294 357
#     4  10  21  41  67  94 124 154 195 252 313 374
#     4  11  26  45  63  85 117 164 217 262 305 354
#     4   9  18  33  53  80 113 149 192 239 288 346
#     4  12  22  37  59  85 121 159 199 244 302 359
#
# _framework density 19.995359000000001
#
# number of rings (size 3 to 8) (size 9 to 14) (size 15 to 20)
#    0.000    1.500    2.500    3.500    0.000    2.000 
#    0.000    3.750    0.000    1.500    0.000    7.000 
#    0.000    0.000    0.000    0.000    0.000    0.000 
#
# Total GULP energy -595068.490693 kJ/mol
# GULP energy per Si atom -12397.260223 kJ/mol
# Density = 1.994985 g / cm^3
# Si number density = 19.995359 Si / 1000 Ang^3
#
#
#
# Elastic Constant Matrix: (Units=GPa)
#
#
# Indices 1 2 3 4 5 6 
#
# 1 65.1958 29.3868 19.3552 0.0000 0.0000 0.0000
# 2 29.3868 67.3119 23.9870 0.0000 0.0000 0.0000
# 3 19.3552 23.9870 81.9017 0.0000 0.0000 0.0000
# 4 0.0000 0.0000 0.0000 32.0492 0.0000 0.0000
# 5 0.0000 0.0000 0.0000 0.0000 30.0539 0.0000
# 6 0.0000 0.0000 0.0000 0.0000 0.0000 11.1697
#
#
#
# Elastic Compliance Matrix: (Units=1/GPa)
#
#
# Indices 1 2 3 4 5 6 
#
# 1 0.019497 -0.007670 -0.002361 0.000000 0.000000 0.000000
# 2 -0.007670 0.019605 -0.003929 0.000000 0.000000 0.000000
# 3 -0.002361 -0.003929 0.013918 0.000000 0.000000 0.000000
# 4 0.000000 0.000000 0.000000 0.031202 0.000000 0.000000
# 5 0.000000 0.000000 0.000000 0.000000 0.033274 0.000000
# 6 0.000000 0.000000 0.000000 0.000000 0.000000 0.089528
#
#
# Mechanical properties :
#
#
# Convention : Reuss Voigt Hill
#
# Bulk Modulus (GPa) = 39.84213 39.98529 39.91371
# Shear Modulus (GPa) = 20.54977 24.09992 22.32484
#
# Velocity S-wave (km/s) = 3.20930 3.47547 3.34503
# Velocity P-wave (km/s) = 5.80532 6.01215 5.90964
#
# Compressibility (1/GPa) = 0.02509906
#
# Stress axis : x y z
#
# Youngs Moduli (GPa) = 51.29044 51.00702 71.84691
#
# Poissons Ratio (x) = 0.39125 0.16963
# Poissons Ratio (y) = 0.39342 0.28230
# Poissons Ratio (z) = 0.12110 0.20041
#
# Static dielectric constant tensor:
#      x y z
#    x 3.674750 0.000000 0.000000 
#    y 0.000000 3.723980 0.000000 
#    z 0.000000 0.000000 3.680000 
# 
# 
# High freq. dielectric constant tensor:
#      x y z
#    x 1.784350 0.000000 0.000000 
#    y 0.000000 1.770100 0.000000 
#    z 0.000000 0.000000 1.781220 
# 
# From -- ./inp_files/29049.got.cif
#   From: 2010.03.12/outbox.cif.g09.slc.cpg/sg65_15_cif.got.tgz:29049.got - 2010.04.10 20:52:16.
