data_PCOD8272594
_publ_section_title
;
Structure prediction by ZEFSAII (Michael W. Deem and Ramdas Pophale) SiO2 
 PCOD8272594
Probable space group: C M M M
;
_chemical_formula_sum "Si O2"
_cell_formula_units_Z 80
_cell_length_a 13.928818
_cell_length_b 18.067227
_cell_length_c 18.790588
_cell_angle_alpha 90.000000
_cell_angle_beta 90.000000
_cell_angle_gamma 90.000000
_cell_volume 4728.747615
_symmetry_space_group_name_H-M "C M M M"
_symmetry_group_IT_number 65
_symmetry_cell_setting 'orthorhombic'
loop_
_space_group_symop_operation_xyz
x,y,z
-x,-y,z
x,-y,-z
-x,y,-z
-x,-y,-z
x,y,-z
-x,y,z
x,-y,z
1/2+x,1/2+y,z
1/2-x,1/2-y,z
1/2+x,1/2-y,-z
1/2-x,1/2+y,-z
1/2-x,1/2-y,-z
1/2+x,1/2+y,-z
1/2-x,1/2+y,z
1/2+x,1/2-y,z
loop_
_atom_site_type_symbol
_atom_site_label
_atom_site_fract_x
_atom_site_fract_y
_atom_site_fract_z
Si Si1 0.609301 0.413395 0.697537
Si Si2 0.891346 0.411911 0.921587
Si Si3 0.285852 0.086985 0.786005
Si Si4 0.274065 0.667542 0.418932
Si Si5 0.392597 0.912266 0.646564
O O1 0.500000 0.393908 0.717285
O O2 0.622096 0.500000 0.678830
O O3 0.675845 0.392428 0.765731
O O4 0.641418 0.366893 0.628881
O O5 0.886913 0.500000 0.921617
O O6 0.819394 0.378115 0.861575
O O7 0.000000 0.386383 0.904180
O O8 0.860441 0.382536 0.000000
O O9 0.355282 0.115971 0.723320
O O10 0.298326 0.000000 0.792396
O O11 0.310740 0.667169 0.500000
O O12 0.250000 0.750000 0.392539
O O13 0.176409 0.620058 0.413985
O O14 0.500000 0.882294 0.634509
O O15 0.388965 0.000000 0.641748
#
# Coordination Sequence:
#
# PCOD8272594 Si02
#       5
#    16  16  16  16  16
#     4   9  18  32  49  66  83 111 153 192 220 250
#     4   8  12  17  29  54  87 119 146 171 206 255
#     4   8  13  23  39  58  83 113 144 178 213 250
#     4  10  21  34  46  63  88 114 139 173 221 271
#     4   9  17  29  46  66  86 111 142 174 211 257
#
# _framework density 16.917798999999999
#
# number of rings (size 3 to 8) (size 9 to 14) (size 15 to 20)
#    0.000    3.200    0.000    3.000    0.000    5.600 
#    0.000    4.000    0.000    0.600    0.000    4.200 
#    0.000   12.800    0.000   16.000    0.000   16.000 
#
# Total GULP energy -495695.183780 kJ/mol
# GULP energy per Si atom -12392.379594 kJ/mol
# Density = 1.687929 g / cm^3
# Si number density = 16.917799 Si / 1000 Ang^3
#
#
#
# Elastic Constant Matrix: (Units=GPa)
#
#
# Indices 1 2 3 4 5 6 
#
# 1 125.6952 23.8433 50.4324 0.0000 0.0000 0.0000
# 2 23.8433 28.8578 23.4041 0.0000 0.0000 0.0000
# 3 50.4324 23.4041 106.2717 0.0000 0.0000 0.0000
# 4 0.0000 0.0000 0.0000 3.3590 0.0000 0.0000
# 5 0.0000 0.0000 0.0000 0.0000 21.5575 0.0000
# 6 0.0000 0.0000 0.0000 0.0000 0.0000 10.8258
#
#
#
# Elastic Compliance Matrix: (Units=1/GPa)
#
#
# Indices 1 2 3 4 5 6 
#
# 1 0.010535 -0.005661 -0.003753 0.000000 0.000000 0.000000
# 2 -0.005661 0.045230 -0.007274 0.000000 0.000000 0.000000
# 3 -0.003753 -0.007274 0.012793 0.000000 0.000000 0.000000
# 4 0.000000 0.000000 0.000000 0.297704 0.000000 0.000000
# 5 0.000000 0.000000 0.000000 0.000000 0.046387 0.000000
# 6 0.000000 0.000000 0.000000 0.000000 0.000000 0.092372
#
#
# Mechanical properties :
#
#
# Convention : Reuss Voigt Hill
#
# Bulk Modulus (GPa) = 28.42431 50.68716 39.55573
# Shear Modulus (GPa) = 9.08885 18.02481 13.55683
#
# Velocity S-wave (km/s) = 2.32035 3.26764 2.83386
# Velocity P-wave (km/s) = 4.90067 6.65301 5.84291
#
# Compressibility (1/GPa) = 0.03518115
#
# Stress axis : x y z
#
# Youngs Moduli (GPa) = 94.91824 22.10946 78.16836
#
# Poissons Ratio (x) = 0.12516 0.29336
# Poissons Ratio (y) = 0.53733 0.56863
# Poissons Ratio (z) = 0.35623 0.16083
#
# Static dielectric constant tensor:
#      x y z
#    x 3.289080 0.000000 0.000000 
#    y 0.000000 2.772380 0.000000 
#    z 0.000000 0.000000 3.392610 
# 
# 
# High freq. dielectric constant tensor:
#      x y z
#    x 1.650590 0.000000 0.000000 
#    y 0.000000 1.604360 0.000000 
#    z 0.000000 0.000000 1.646250 
# 
# From -- ./inp_files/52863.got.cif
#   From: 2010.03.12/outbox.cif.g09.slc.cpg/sg65_27_cif.got.tgz:52863.got - 2010.04.10 20:52:16.
