data_PCOD8272574
_publ_section_title
;
Structure prediction by ZEFSAII (Michael W. Deem and Ramdas Pophale) SiO2 
 PCOD8272574
Probable space group: C M M M
;
_chemical_formula_sum "Si O2"
_cell_formula_units_Z 120
_cell_length_a 31.847948
_cell_length_b 15.230909
_cell_length_c 14.236292
_cell_angle_alpha 90.000000
_cell_angle_beta 90.000000
_cell_angle_gamma 90.000000
_cell_volume 6905.643686
_symmetry_space_group_name_H-M "C M M M"
_symmetry_group_IT_number 65
_symmetry_cell_setting 'orthorhombic'
loop_
_space_group_symop_operation_xyz
x,y,z
-x,-y,z
x,-y,-z
-x,y,-z
-x,-y,-z
x,y,-z
-x,y,z
x,-y,z
1/2+x,1/2+y,z
1/2-x,1/2-y,z
1/2+x,1/2-y,-z
1/2-x,1/2+y,-z
1/2-x,1/2-y,-z
1/2+x,1/2+y,-z
1/2-x,1/2+y,z
1/2+x,1/2-y,z
loop_
_atom_site_type_symbol
_atom_site_label
_atom_site_fract_x
_atom_site_fract_y
_atom_site_fract_z
Si Si1 0.549229 0.835530 0.231458
Si Si2 0.664734 0.098233 0.890404
Si Si3 0.747420 0.897006 0.781843
Si Si4 0.893372 0.602460 0.608524
Si Si5 0.201591 0.604574 0.396576
Si Si6 0.672862 0.602059 0.891795
Si Si7 0.894864 0.243252 0.108624
Si Si8 0.048991 0.500000 0.104553
O O1 0.500000 0.831634 0.253240
O O2 0.573532 0.843083 0.329856
O O3 0.563954 0.747440 0.175456
O O4 0.562187 0.914794 0.162367
O O5 0.709204 0.126494 0.849013
O O6 0.631525 0.171095 0.860250
O O7 0.650584 0.000000 0.855391
O O8 0.671766 0.098088 0.000000
O O9 0.736001 0.859309 0.677951
O O10 0.790402 0.858117 0.825068
O O11 0.754018 0.000000 0.776179
O O12 0.902182 0.624822 0.500000
O O13 0.900508 0.500000 0.627752
O O14 0.845692 0.630913 0.634812
O O15 0.212172 0.642869 0.500000
O O16 0.203042 0.500000 0.400166
O O17 0.663832 0.500000 0.871770
O O18 0.630469 0.654660 0.869245
O O19 0.686464 0.616872 0.000000
O O20 0.908431 0.246921 0.000000
O O21 0.000000 0.500000 0.087410
O O22 0.071139 0.500000 0.000000
#
# Coordination Sequence:
#
# PCOD8272574 Si02
#       8
#    16  16  16  16  16  16  16   8
#     4  11  21  32  47  68  94 126 162 198 241 292
#     4   9  17  27  40  63  94 124 153 183 219 270
#     4   9  15  25  44  66  91 122 154 195 238 277
#     4   9  17  30  47  68  97 133 172 208 236 269
#     4   8  14  24  40  64  92 123 158 194 232 278
#     4   9  18  33  51  70  92 120 159 206 254 296
#     4  10  21  33  47  68  94 128 163 198 241 291
#     4   9  18  30  43  63  93 127 156 184 223 277
#
# _framework density 17.377091
#
# number of rings (size 3 to 8) (size 9 to 14) (size 15 to 20)
#    0.000    2.733    0.667    2.400    0.933    4.267 
#    0.000    2.667    0.000    1.200    0.000    4.667 
#    0.000    0.000    0.000    1.200    0.000    0.000 
#
# Total GULP energy -743624.750486 kJ/mol
# GULP energy per Si atom -12393.745841 kJ/mol
# Density = 1.733754 g / cm^3
# Si number density = 17.377091 Si / 1000 Ang^3
#
#
#
# Elastic Constant Matrix: (Units=GPa)
#
#
# Indices 1 2 3 4 5 6 
#
# 1 74.0189 25.9222 59.2476 0.0000 0.0000 0.0000
# 2 25.9222 33.0495 29.7684 0.0000 0.0000 0.0000
# 3 59.2476 29.7684 86.2902 0.0000 0.0000 0.0000
# 4 0.0000 0.0000 0.0000 12.8643 0.0000 0.0000
# 5 0.0000 0.0000 0.0000 0.0000 26.3861 0.0000
# 6 0.0000 0.0000 0.0000 0.0000 0.0000 15.9437
#
#
#
# Elastic Compliance Matrix: (Units=1/GPa)
#
#
# Indices 1 2 3 4 5 6 
#
# 1 0.031231 -0.007517 -0.018850 0.000000 0.000000 0.000000
# 2 -0.007517 0.045707 -0.010607 0.000000 0.000000 0.000000
# 3 -0.018850 -0.010607 0.028191 0.000000 0.000000 0.000000
# 4 0.000000 0.000000 0.000000 0.077735 0.000000 0.000000
# 5 0.000000 0.000000 0.000000 0.000000 0.037899 0.000000
# 6 0.000000 0.000000 0.000000 0.000000 0.000000 0.062721
#
#
# Mechanical properties :
#
#
# Convention : Reuss Voigt Hill
#
# Bulk Modulus (GPa) = 32.07103 47.02612 39.54857
# Shear Modulus (GPa) = 13.59339 16.26684 14.93012
#
# Velocity S-wave (km/s) = 2.79992 3.06291 2.93436
# Velocity P-wave (km/s) = 5.38040 6.29519 5.85569
#
# Compressibility (1/GPa) = 0.03118079
#
# Stress axis : x y z
#
# Youngs Moduli (GPa) = 32.01926 21.87826 35.47254
#
# Poissons Ratio (x) = 0.16446 0.66867
# Poissons Ratio (y) = 0.24069 0.37625
# Poissons Ratio (z) = 0.60358 0.23206
#
# Static dielectric constant tensor:
#      x y z
#    x 3.188230 0.000000 0.000000 
#    y 0.000000 2.925160 0.000000 
#    z 0.000000 0.000000 3.500710 
# 
# 
# High freq. dielectric constant tensor:
#      x y z
#    x 1.660620 0.000000 0.000000 
#    y 0.000000 1.620650 0.000000 
#    z 0.000000 0.000000 1.677090 
# 
# From -- ./inp_files/48079.got.cif
#   From: 2010.03.12/outbox.cif.g09.slc.cpg/sg65_25_cif.got.tgz:48079.got - 2010.04.10 20:52:16.
