data_PCOD8272747
_publ_section_title
;
Structure prediction by ZEFSAII (Michael W. Deem and Ramdas Pophale) SiO2 
 PCOD8272747
Probable space group: C M M M
;
_chemical_formula_sum "Si O2"
_cell_formula_units_Z 80
_cell_length_a 18.365603
_cell_length_b 9.424040
_cell_length_c 25.666526
_cell_angle_alpha 90.000000
_cell_angle_beta 90.000000
_cell_angle_gamma 90.000000
_cell_volume 4442.315538
_symmetry_space_group_name_H-M "C M M M"
_symmetry_group_IT_number 65
_symmetry_cell_setting 'orthorhombic'
loop_
_space_group_symop_operation_xyz
x,y,z
-x,-y,z
x,-y,-z
-x,y,-z
-x,-y,-z
x,y,-z
-x,y,z
x,-y,z
1/2+x,1/2+y,z
1/2-x,1/2-y,z
1/2+x,1/2-y,-z
1/2-x,1/2+y,-z
1/2-x,1/2-y,-z
1/2+x,1/2+y,-z
1/2-x,1/2+y,z
1/2+x,1/2-y,z
loop_
_atom_site_type_symbol
_atom_site_label
_atom_site_fract_x
_atom_site_fract_y
_atom_site_fract_z
Si Si1 0.824436 0.333667 0.300227
Si Si2 0.915475 0.336079 0.401437
Si Si3 0.083734 0.334670 0.200444
Si Si4 0.083835 0.835201 0.899863
Si Si5 0.675436 0.333103 0.000000
Si Si6 0.086608 0.839429 0.500000
O O1 0.807715 0.500000 0.298906
O O2 0.750000 0.250000 0.302323
O O3 0.871861 0.292091 0.350219
O O4 0.868986 0.285389 0.249504
O O5 0.903526 0.500000 0.416324
O O6 0.884726 0.241366 0.448771
O O7 0.000000 0.304980 0.390368
O O8 0.093474 0.500000 0.188928
O O9 0.112306 0.250873 0.150045
O O10 0.000000 0.296820 0.212628
O O11 0.000000 0.799267 0.912007
O O12 0.094611 0.000000 0.887556
O O13 0.130042 0.786833 0.949480
O O14 0.750000 0.250000 0.000000
O O15 0.691001 0.500000 0.000000
O O16 0.000000 0.836420 0.500000
O O17 0.116767 0.000000 0.500000
#
# Coordination Sequence:
#
# PCOD8272747 Si02
#       6
#    16  16  16  16   8   8
#     4  10  21  35  51  73 102 134 166 202 246 295
#     4   9  17  32  54  75  96 128 169 206 241 289
#     4   9  18  34  55  77 100 128 165 208 250 292
#     4   9  18  34  55  76  98 128 167 208 249 293
#     4  10  21  35  51  73 103 136 168 204 246 294
#     4   9  17  29  48  77 106 127 155 203 256 295
#
# _framework density 18.008627000000001
#
# number of rings (size 3 to 8) (size 9 to 14) (size 15 to 20)
#    0.000    2.700    0.000    1.200    0.000    8.000 
#    0.000    4.500    0.000    9.000    0.000    0.000 
#    0.000    0.000    0.000    0.000    0.000    0.000 
#
# Total GULP energy -496093.612739 kJ/mol
# GULP energy per Si atom -12402.340318 kJ/mol
# Density = 1.796764 g / cm^3
# Si number density = 18.008627 Si / 1000 Ang^3
#
#
#
# Elastic Constant Matrix: (Units=GPa)
#
#
# Indices 1 2 3 4 5 6 
#
# 1 93.5633 51.5669 86.4290 0.0000 0.0000 0.0000
# 2 51.5669 69.0872 82.8245 0.0000 0.0000 0.0000
# 3 86.4290 82.8245 198.4967 0.0000 0.0000 0.0000
# 4 0.0000 0.0000 0.0000 32.9578 0.0000 0.0000
# 5 0.0000 0.0000 0.0000 0.0000 4.0023 0.0000
# 6 0.0000 0.0000 0.0000 0.0000 0.0000 30.9528
#
#
#
# Elastic Compliance Matrix: (Units=1/GPa)
#
#
# Indices 1 2 3 4 5 6 
#
# 1 0.020421 -0.009169 -0.005066 0.000000 0.000000 0.000000
# 2 -0.009169 0.033079 -0.009810 0.000000 0.000000 0.000000
# 3 -0.005066 -0.009810 0.011337 0.000000 0.000000 0.000000
# 4 0.000000 0.000000 0.000000 0.030342 0.000000 0.000000
# 5 0.000000 0.000000 0.000000 0.000000 0.249853 0.000000
# 6 0.000000 0.000000 0.000000 0.000000 0.000000 0.032307
#
#
# Mechanical properties :
#
#
# Convention : Reuss Voigt Hill
#
# Bulk Modulus (GPa) = 59.71265 89.19869 74.45567
# Shear Modulus (GPa) = 11.60060 22.93771 17.26915
#
# Velocity S-wave (km/s) = 2.54080 3.57277 3.10003
# Velocity P-wave (km/s) = 6.46818 8.16445 7.36531
#
# Compressibility (1/GPa) = 0.01674687
#
# Stress axis : x y z
#
# Youngs Moduli (GPa) = 48.96918 30.23039 88.20756
#
# Poissons Ratio (x) = 0.27719 0.44683
# Poissons Ratio (y) = 0.44902 0.86533
# Poissons Ratio (z) = 0.24806 0.29656
#
# Static dielectric constant tensor:
#      x y z
#    x 3.160290 0.000000 0.000000 
#    y 0.000000 3.298350 0.000000 
#    z 0.000000 0.000000 3.522030 
# 
# 
# High freq. dielectric constant tensor:
#      x y z
#    x 1.681930 0.000000 0.000000 
#    y 0.000000 1.691430 0.000000 
#    z 0.000000 0.000000 1.711760 
# 
# From -- ./inp_files/75068.got.cif
#   From: 2010.03.12/outbox.cif.g09.slc.cpg/sg65_38_cif.got.tgz:75068.got - 2010.04.10 20:52:16.
