data_PCOD8272883
_publ_section_title
;
Structure prediction by ZEFSAII (Michael W. Deem and Ramdas Pophale) SiO2 
 PCOD8272883
Probable space group: C M M M
;
_chemical_formula_sum "Si O2"
_cell_formula_units_Z 80
_cell_length_a 27.123770
_cell_length_b 18.785994
_cell_length_c 8.865926
_cell_angle_alpha 90.000000
_cell_angle_beta 90.000000
_cell_angle_gamma 90.000000
_cell_volume 4517.605822
_symmetry_space_group_name_H-M "C M M M"
_symmetry_group_IT_number 65
_symmetry_cell_setting 'orthorhombic'
loop_
_space_group_symop_operation_xyz
x,y,z
-x,-y,z
x,-y,-z
-x,y,-z
-x,-y,-z
x,y,-z
-x,y,z
x,-y,z
1/2+x,1/2+y,z
1/2-x,1/2-y,z
1/2+x,1/2-y,-z
1/2-x,1/2+y,-z
1/2-x,1/2-y,-z
1/2+x,1/2+y,-z
1/2-x,1/2+y,z
1/2+x,1/2-y,z
loop_
_atom_site_type_symbol
_atom_site_label
_atom_site_fract_x
_atom_site_fract_y
_atom_site_fract_z
Si Si1 0.200069 0.212483 0.177493
Si Si2 0.945086 0.578215 0.678844
Si Si3 0.610183 0.214219 0.674889
Si Si4 0.946172 0.145998 0.325768
Si Si5 0.153686 0.080602 0.678862
O O1 0.250000 0.250000 0.233998
O O2 0.156491 0.264741 0.225129
O O3 0.193843 0.134372 0.251866
O O4 0.200151 0.201404 0.000000
O O5 0.948046 0.585268 0.500000
O O6 0.924928 0.500000 0.725445
O O7 0.908584 0.638789 0.740314
O O8 0.000000 0.588909 0.745572
O O9 0.626435 0.210211 0.500000
O O10 0.566177 0.270830 0.695207
O O11 0.950633 0.126191 0.500000
O O12 0.901324 0.098928 0.257073
O O13 0.000000 0.130430 0.249447
O O14 0.154215 0.091844 0.500000
O O15 0.167428 0.000000 0.724458
#
# Coordination Sequence:
#
# PCOD8272883 Si02
#       5
#    16  16  16  16  16
#     4  10  21  36  52  68  88 120 161 199 237 281
#     4   8  13  22  40  69 101 127 152 187 232 280
#     4   9  16  27  46  70  94 121 156 197 236 274
#     4   8  13  22  40  68  98 125 152 181 215 261
#     4   9  18  32  51  76 101 123 151 188 229 273
#
# _framework density 17.708496
#
# number of rings (size 3 to 8) (size 9 to 14) (size 15 to 20)
#    0.000    3.200    0.000    3.000    0.000    4.800 
#    0.000    3.000    0.000   19.200    0.000    7.000 
#    0.000    0.000    0.000    0.000    0.000    0.000 
#
# Total GULP energy -495676.340649 kJ/mol
# GULP energy per Si atom -12391.908516 kJ/mol
# Density = 1.766819 g / cm^3
# Si number density = 17.708496 Si / 1000 Ang^3
#
#
#
# Elastic Constant Matrix: (Units=GPa)
#
#
# Indices 1 2 3 4 5 6 
#
# 1 106.9961 64.5197 23.9615 0.0000 0.0000 0.0000
# 2 64.5197 158.7787 26.8527 0.0000 0.0000 0.0000
# 3 23.9615 26.8527 23.9038 0.0000 0.0000 0.0000
# 4 0.0000 0.0000 0.0000 11.5414 0.0000 0.0000
# 5 0.0000 0.0000 0.0000 0.0000 -0.4854 0.0000
# 6 0.0000 0.0000 0.0000 0.0000 0.0000 20.7145
#
#
#
# Elastic Compliance Matrix: (Units=1/GPa)
#
#
# Indices 1 2 3 4 5 6 
#
# 1 0.013892 -0.004062 -0.009363 0.000000 0.000000 0.000000
# 2 -0.004062 0.008963 -0.005997 0.000000 0.000000 0.000000
# 3 -0.009363 -0.005997 0.057957 0.000000 0.000000 0.000000
# 4 0.000000 0.000000 0.000000 0.086644 0.000000 0.000000
# 5 0.000000 0.000000 0.000000 0.000000 -2.060009 0.000000
# 6 0.000000 0.000000 0.000000 0.000000 0.000000 0.048275
#
#
# Mechanical properties :
#
#
# Convention : Reuss Voigt Hill
#
# Bulk Modulus (GPa) = 23.82748 57.81627 40.82187
# Shear Modulus (GPa) = -2.79104 17.97708 7.59302
#
# Velocity S-wave (km/s) = -1.25679 3.18962 2.07294
# Velocity P-wave (km/s) = 3.37321 6.80329 5.36951
#
# Compressibility (1/GPa) = 0.04196834
#
# Stress axis : x y z
#
# Youngs Moduli (GPa) = 71.98313 111.57331 17.25426
#
# Poissons Ratio (x) = 0.45316 0.16155
# Poissons Ratio (y) = 0.29237 0.10347
# Poissons Ratio (z) = 0.67398 0.66911
#
# Static dielectric constant tensor:
#      x y z
#    x 3.355700 0.000000 0.000000 
#    y 0.000000 3.486590 0.000000 
#    z 0.000000 0.000000 2.798890 
# 
# 
# High freq. dielectric constant tensor:
#      x y z
#    x 1.673980 0.000000 0.000000 
#    y 0.000000 1.691910 0.000000 
#    z 0.000000 0.000000 1.634140 
# 
# From -- ./inp_files/9661.got.cif
#   From: 2010.03.12/outbox.cif.g09.slc.cpg/sg65_5_cif.got.tgz:9661.got - 2010.04.10 20:52:16.
