data_PCOD8272423
_publ_section_title
;
Structure prediction by ZEFSAII (Michael W. Deem and Ramdas Pophale) SiO2 
 PCOD8272423
Probable space group: C M M M
;
_chemical_formula_sum "Si O2"
_cell_formula_units_Z 68
_cell_length_a 23.348754
_cell_length_b 7.383136
_cell_length_c 19.963237
_cell_angle_alpha 90.000000
_cell_angle_beta 90.000000
_cell_angle_gamma 90.000000
_cell_volume 3441.403060
_symmetry_space_group_name_H-M "C M M M"
_symmetry_group_IT_number 65
_symmetry_cell_setting 'orthorhombic'
loop_
_space_group_symop_operation_xyz
x,y,z
-x,-y,z
x,-y,-z
-x,y,-z
-x,-y,-z
x,y,-z
-x,y,z
x,-y,z
1/2+x,1/2+y,z
1/2-x,1/2-y,z
1/2+x,1/2-y,-z
1/2-x,1/2+y,-z
1/2-x,1/2-y,-z
1/2+x,1/2+y,-z
1/2-x,1/2+y,z
1/2+x,1/2-y,z
loop_
_atom_site_type_symbol
_atom_site_label
_atom_site_fract_x
_atom_site_fract_y
_atom_site_fract_z
Si Si1 0.500000 0.212636 0.752381
Si Si2 0.378849 0.213301 0.299938
Si Si3 0.814662 0.288285 0.426435
Si Si4 0.816876 0.711568 0.833062
Si Si5 0.623797 0.500000 0.922278
Si Si6 0.000000 0.000000 0.133976
O O1 0.555096 0.269355 0.708819
O O2 0.500000 0.318711 0.821758
O O3 0.500000 0.000000 0.770140
O O4 0.355621 0.299218 0.369533
O O5 0.341870 0.285303 0.237365
O O6 0.371315 0.000000 0.303453
O O7 0.826881 0.200835 0.500000
O O8 0.825891 0.500000 0.431145
O O9 0.750000 0.250000 0.404145
O O10 0.830183 0.500000 0.843592
O O11 0.750000 0.750000 0.834813
O O12 0.848347 0.819471 0.891674
O O13 0.555646 0.500000 0.912468
O O14 0.638483 0.500000 0.000000
#
# Coordination Sequence:
#
# PCOD8272423 Si02
#       6
#     8  16  16  16   8   4
#     4  10  20  37  60  85 118 147 197 255 299 339
#     4   9  18  33  56  83 113 153 195 245 292 347
#     4   9  17  31  50  78 114 151 190 235 292 352
#     4  11  22  40  63  91 124 158 201 246 302 361
#     4  12  27  44  64  92 124 157 198 247 303 371
#     4  12  23  44  68  90 113 162 202 246 299 364
#
# _framework density 19.759383
#
# number of rings (size 3 to 8) (size 9 to 14) (size 15 to 20)
#    0.000    1.882    3.529    0.882    0.000    0.941 
#    4.235    0.588    0.000    5.647    0.000    0.824 
#    0.000    0.000    0.000    0.000    0.000    0.000 
#
# Total GULP energy -421543.009117 kJ/mol
# GULP energy per Si atom -12398.323798 kJ/mol
# Density = 1.971441 g / cm^3
# Si number density = 19.759383 Si / 1000 Ang^3
#
#
#
# Elastic Constant Matrix: (Units=GPa)
#
#
# Indices 1 2 3 4 5 6 
#
# 1 160.4762 22.3060 84.0548 0.0000 0.0000 0.0000
# 2 22.3060 75.1914 33.8839 0.0000 0.0000 0.0000
# 3 84.0548 33.8839 174.3920 0.0000 0.0000 0.0000
# 4 0.0000 0.0000 0.0000 12.6937 0.0000 0.0000
# 5 0.0000 0.0000 0.0000 0.0000 39.3134 0.0000
# 6 0.0000 0.0000 0.0000 0.0000 0.0000 -8.5407
#
#
#
# Elastic Compliance Matrix: (Units=1/GPa)
#
#
# Indices 1 2 3 4 5 6 
#
# 1 0.008372 -0.000729 -0.003894 0.000000 0.000000 0.000000
# 2 -0.000729 0.014639 -0.002493 0.000000 0.000000 0.000000
# 3 -0.003894 -0.002493 0.008095 0.000000 0.000000 0.000000
# 4 0.000000 0.000000 0.000000 0.078779 0.000000 0.000000
# 5 0.000000 0.000000 0.000000 0.000000 0.025437 0.000000
# 6 0.000000 0.000000 0.000000 0.000000 0.000000 -0.117086
#
#
# Mechanical properties :
#
#
# Convention : Reuss Voigt Hill
#
# Bulk Modulus (GPa) = 59.25828 76.72767 67.99298
# Shear Modulus (GPa) = 131.25922 26.68093 78.97007
#
# Velocity S-wave (km/s) = 8.15923 3.67862 6.32871
# Velocity P-wave (km/s) = 10.90042 7.54707 9.37490
#
# Compressibility (1/GPa) = 0.01687528
#
# Stress axis : x y z
#
# Youngs Moduli (GPa) = 119.44254 68.31028 123.52883
#
# Poissons Ratio (x) = 0.04980 0.48098
# Poissons Ratio (y) = 0.08708 0.30795
# Poissons Ratio (z) = 0.46507 0.17029
#
# Static dielectric constant tensor:
#      x y z
#    x 3.774030 0.000000 0.000000 
#    y 0.000000 6.149700 0.000000 
#    z 0.000000 0.000000 3.832960 
# 
# 
# High freq. dielectric constant tensor:
#      x y z
#    x 1.773450 0.000000 0.000000 
#    y 0.000000 1.768960 0.000000 
#    z 0.000000 0.000000 1.764710 
# 
# From -- ./inp_files/49784.got.cif
#   From: 2010.03.12/outbox.cif.g09.slc.cpg/sg65_25_cif.got.tgz:49784.got - 2010.04.10 20:52:16.
