data_PCOD8272657
_publ_section_title
;
Structure prediction by ZEFSAII (Michael W. Deem and Ramdas Pophale) SiO2 
 PCOD8272657
Probable space group: C M M M
;
_chemical_formula_sum "Si O2"
_cell_formula_units_Z 64
_cell_length_a 28.663987
_cell_length_b 14.367213
_cell_length_c 8.715927
_cell_angle_alpha 90.000000
_cell_angle_beta 90.000000
_cell_angle_gamma 90.000000
_cell_volume 3589.407061
_symmetry_space_group_name_H-M "C M M M"
_symmetry_group_IT_number 65
_symmetry_cell_setting 'orthorhombic'
loop_
_space_group_symop_operation_xyz
x,y,z
-x,-y,z
x,-y,-z
-x,y,-z
-x,-y,-z
x,y,-z
-x,y,z
x,-y,z
1/2+x,1/2+y,z
1/2-x,1/2-y,z
1/2+x,1/2-y,-z
1/2-x,1/2+y,-z
1/2-x,1/2-y,-z
1/2+x,1/2+y,-z
1/2-x,1/2+y,z
1/2+x,1/2-y,z
loop_
_atom_site_type_symbol
_atom_site_label
_atom_site_fract_x
_atom_site_fract_y
_atom_site_fract_z
Si Si1 0.801042 0.500000 0.182967
Si Si2 0.946221 0.000000 0.319341
Si Si3 0.802576 0.000000 0.818858
Si Si4 0.051843 0.500000 0.182594
Si Si5 0.625383 0.852787 0.817675
Si Si6 0.878287 0.855844 0.182407
O O1 0.749085 0.500000 0.255451
O O2 0.828513 0.407727 0.239832
O O3 0.799165 0.500000 0.000000
O O4 0.923122 0.906929 0.251659
O O5 0.939559 0.000000 0.500000
O O6 0.000000 0.000000 0.270291
O O7 0.830988 0.908547 0.766056
O O8 0.797176 0.000000 0.000000
O O9 0.079325 0.592063 0.238846
O O10 0.000000 0.500000 0.254546
O O11 0.049372 0.500000 0.000000
O O12 0.624516 0.748600 0.750291
O O13 0.626082 0.848492 0.000000
O O14 0.883631 0.857295 0.000000
#
# Coordination Sequence:
#
# PCOD8272657 Si02
#       6
#     8   8   8   8  16  16
#     4   8  13  22  36  59  93 123 143 171 215 259
#     4  10  21  35  48  63  85 114 145 175 214 265
#     4   8  14  23  36  58  88 118 145 176 214 255
#     4   8  13  21  32  50  80 114 143 172 213 263
#     4   8  14  23  36  58  88 117 143 175 215 256
#     4   9  17  29  45  67  90 111 143 183 218 252
#
# _framework density 17.830244
#
# number of rings (size 3 to 8) (size 9 to 14) (size 15 to 20)
#    0.000    3.500    0.000    2.625    0.000    3.000 
#    0.000    7.500    0.000    0.000    0.000   17.500 
#    0.000    9.000    0.000    0.000    0.000    0.000 
#
# Total GULP energy -396576.609120 kJ/mol
# GULP energy per Si atom -12393.019035 kJ/mol
# Density = 1.778966 g / cm^3
# Si number density = 17.830244 Si / 1000 Ang^3
#
#
#
# Elastic Constant Matrix: (Units=GPa)
#
#
# Indices 1 2 3 4 5 6 
#
# 1 191.1684 101.6127 18.0369 0.0000 0.0000 0.0000
# 2 101.6127 199.9879 14.4354 0.0000 0.0000 0.0000
# 3 18.0369 14.4354 13.1867 0.0000 0.0000 0.0000
# 4 0.0000 0.0000 0.0000 3.1614 0.0000 0.0000
# 5 0.0000 0.0000 0.0000 0.0000 6.3652 0.0000
# 6 0.0000 0.0000 0.0000 0.0000 0.0000 14.5718
#
#
#
# Elastic Compliance Matrix: (Units=1/GPa)
#
#
# Indices 1 2 3 4 5 6 
#
# 1 0.007686 -0.003416 -0.006773 0.000000 0.000000 0.000000
# 2 -0.003416 0.006948 -0.002933 0.000000 0.000000 0.000000
# 3 -0.006773 -0.002933 0.088309 0.000000 0.000000 0.000000
# 4 0.000000 0.000000 0.000000 0.316317 0.000000 0.000000
# 5 0.000000 0.000000 0.000000 0.000000 0.157103 0.000000
# 6 0.000000 0.000000 0.000000 0.000000 0.000000 0.068626
#
#
# Mechanical properties :
#
#
# Convention : Reuss Voigt Hill
#
# Bulk Modulus (GPa) = 13.03810 74.72367 43.88089
# Shear Modulus (GPa) = 7.17566 22.83689 15.00627
#
# Velocity S-wave (km/s) = 2.00828 3.58270 2.90421
# Velocity P-wave (km/s) = 3.56452 7.68854 5.99247
#
# Compressibility (1/GPa) = 0.07669826
#
# Stress axis : x y z
#
# Youngs Moduli (GPa) = 130.10839 143.93063 11.32386
#
# Poissons Ratio (x) = 0.49171 0.07670
# Poissons Ratio (y) = 0.44449 0.03321
# Poissons Ratio (z) = 0.88123 0.42214
#
# Static dielectric constant tensor:
#      x y z
#    x 3.627930 0.000000 0.000000 
#    y 0.000000 3.648860 0.000000 
#    z 0.000000 0.000000 2.624320 
# 
# 
# High freq. dielectric constant tensor:
#      x y z
#    x 1.696560 0.000000 0.000000 
#    y 0.000000 1.697180 0.000000 
#    z 0.000000 0.000000 1.621260 
# 
# From -- ./inp_files/17978.got.cif
#   From: 2010.03.12/outbox.cif.g09.slc.cpg/sg65_9_cif.got.tgz:17978.got - 2010.04.10 20:52:16.
