data_PCOD8272457
_publ_section_title
;
Structure prediction by ZEFSAII (Michael W. Deem and Ramdas Pophale) SiO2 
 PCOD8272457
Probable space group: C M M M
;
_chemical_formula_sum "Si O2"
_cell_formula_units_Z 56
_cell_length_a 17.521360
_cell_length_b 10.655188
_cell_length_c 15.643651
_cell_angle_alpha 90.000000
_cell_angle_beta 90.000000
_cell_angle_gamma 90.000000
_cell_volume 2920.566156
_symmetry_space_group_name_H-M "C M M M"
_symmetry_group_IT_number 65
_symmetry_cell_setting 'orthorhombic'
loop_
_space_group_symop_operation_xyz
x,y,z
-x,-y,z
x,-y,-z
-x,y,-z
-x,-y,-z
x,y,-z
-x,y,z
x,-y,z
1/2+x,1/2+y,z
1/2-x,1/2-y,z
1/2+x,1/2-y,-z
1/2-x,1/2+y,-z
1/2-x,1/2-y,-z
1/2+x,1/2+y,-z
1/2-x,1/2+y,z
1/2+x,1/2-y,z
loop_
_atom_site_type_symbol
_atom_site_label
_atom_site_fract_x
_atom_site_fract_y
_atom_site_fract_z
Si Si1 0.415786 0.646996 0.337348
Si Si2 0.089952 0.500000 0.094568
Si Si3 0.813697 0.141359 0.000000
Si Si4 0.409141 0.733388 0.154686
Si Si5 0.184043 0.148682 0.500000
O O1 0.500000 0.706342 0.351429
O O2 0.423674 0.500000 0.330380
O O3 0.380122 0.695975 0.248708
O O4 0.363800 0.684128 0.416533
O O5 0.116931 0.622501 0.144867
O O6 0.000000 0.500000 0.085465
O O7 0.126562 0.500000 0.000000
O O8 0.750000 0.250000 0.000000
O O9 0.866850 0.151660 0.083511
O O10 0.778157 0.000000 0.000000
O O11 0.500000 0.713135 0.144195
O O12 0.250000 0.250000 0.500000
O O13 0.208834 0.000000 0.500000
#
# Coordination Sequence:
#
# PCOD8272457 Si02
#       5
#    16   8   8  16   8
#     4   9  18  35  61  88 111 142 191 246 289 330
#     4   9  16  30  56  85 113 151 187 228 285 342
#     4  12  27  39  54  82 118 157 192 237 291 343
#     4  10  20  37  62  86 113 148 197 247 288 337
#     4  10  21  39  61  85 117 154 188 226 284 352
#
# _framework density 19.174364000000001
#
# number of rings (size 3 to 8) (size 9 to 14) (size 15 to 20)
#    0.000    2.143    1.429    1.714    2.000    5.143 
#    2.571    0.000    0.000    0.857    0.000    0.000 
#    0.000    0.000    0.000    0.000    0.000    0.000 
#
# Total GULP energy -347076.856279 kJ/mol
# GULP energy per Si atom -12395.602010 kJ/mol
# Density = 1.913072 g / cm^3
# Si number density = 19.174364 Si / 1000 Ang^3
#
#
#
# Elastic Constant Matrix: (Units=GPa)
#
#
# Indices 1 2 3 4 5 6 
#
# 1 72.9258 49.4752 69.5117 0.0000 0.0000 0.0000
# 2 49.4752 79.1983 51.3843 0.0000 0.0000 0.0000
# 3 69.5117 51.3843 195.7252 0.0000 0.0000 0.0000
# 4 0.0000 0.0000 0.0000 34.3898 0.0000 0.0000
# 5 0.0000 0.0000 0.0000 0.0000 18.6732 0.0000
# 6 0.0000 0.0000 0.0000 0.0000 0.0000 28.6005
#
#
#
# Elastic Compliance Matrix: (Units=1/GPa)
#
#
# Indices 1 2 3 4 5 6 
#
# 1 0.029941 -0.014229 -0.006898 0.000000 0.000000 0.000000
# 2 -0.014229 0.021981 -0.000717 0.000000 0.000000 0.000000
# 3 -0.006898 -0.000717 0.007747 0.000000 0.000000 0.000000
# 4 0.000000 0.000000 0.000000 0.029078 0.000000 0.000000
# 5 0.000000 0.000000 0.000000 0.000000 0.053553 0.000000
# 6 0.000000 0.000000 0.000000 0.000000 0.000000 0.034964
#
#
# Mechanical properties :
#
#
# Convention : Reuss Voigt Hill
#
# Bulk Modulus (GPa) = 62.57482 76.51016 69.54249
# Shear Modulus (GPa) = 22.09664 28.16456 25.13060
#
# Velocity S-wave (km/s) = 3.39839 3.83674 3.62420
# Velocity P-wave (km/s) = 6.93572 7.72116 7.33896
#
# Compressibility (1/GPa) = 0.01598087
#
# Stress axis : x y z
#
# Youngs Moduli (GPa) = 33.39938 45.49484 129.07654
#
# Poissons Ratio (x) = 0.64732 0.89036
# Poissons Ratio (y) = 0.47522 0.09259
# Poissons Ratio (z) = 0.23039 0.03264
#
# Static dielectric constant tensor:
#      x y z
#    x 3.929940 0.000000 0.000000 
#    y 0.000000 3.670340 0.000000 
#    z 0.000000 0.000000 3.150260 
# 
# 
# High freq. dielectric constant tensor:
#      x y z
#    x 1.729860 0.000000 0.000000 
#    y 0.000000 1.742630 0.000000 
#    z 0.000000 0.000000 1.754500 
# 
# From -- ./inp_files/41824.got.cif
#   From: 2010.03.12/outbox.cif.g09.slc.cpg/sg65_21_cif.got.tgz:41824.got - 2010.04.10 20:52:16.
