data_PCOD8272246
_publ_section_title
;
Structure prediction by ZEFSAII (Michael W. Deem and Ramdas Pophale) SiO2 
 PCOD8272246
Probable space group: C M M M
;
_chemical_formula_sum "Si O2"
_cell_formula_units_Z 104
_cell_length_a 9.246630
_cell_length_b 28.717102
_cell_length_c 20.156320
_cell_angle_alpha 90.000000
_cell_angle_beta 90.000000
_cell_angle_gamma 90.000000
_cell_volume 5352.236990
_symmetry_space_group_name_H-M "C M M M"
_symmetry_group_IT_number 65
_symmetry_cell_setting 'orthorhombic'
loop_
_space_group_symop_operation_xyz
x,y,z
-x,-y,z
x,-y,-z
-x,y,-z
-x,-y,-z
x,y,-z
-x,y,z
x,-y,z
1/2+x,1/2+y,z
1/2-x,1/2-y,z
1/2+x,1/2-y,-z
1/2-x,1/2+y,-z
1/2-x,1/2-y,-z
1/2+x,1/2+y,-z
1/2-x,1/2+y,z
1/2+x,1/2-y,z
loop_
_atom_site_type_symbol
_atom_site_label
_atom_site_fract_x
_atom_site_fract_y
_atom_site_fract_z
Si Si1 0.666754 0.605595 0.074699
Si Si2 0.335546 0.054589 0.188654
Si Si3 0.326205 0.800573 0.500000
Si Si4 0.163864 0.793207 0.269267
Si Si5 0.832150 0.794764 0.880163
Si Si6 0.164920 0.856931 0.389663
Si Si7 0.168030 0.052628 0.320533
O O1 0.500000 0.598543 0.095729
O O2 0.765544 0.577360 0.124414
O O3 0.706972 0.660195 0.076764
O O4 0.694239 0.587574 0.000000
O O5 0.500000 0.071676 0.194697
O O6 0.255328 0.069042 0.256021
O O7 0.324379 0.000000 0.177648
O O8 0.500000 0.794314 0.500000
O O9 0.250000 0.750000 0.500000
O O10 0.277239 0.830692 0.436763
O O11 0.250000 0.750000 0.300649
O O12 0.219187 0.805352 0.195448
O O13 0.183374 0.837859 0.315355
O O14 0.000000 0.776432 0.266755
O O15 0.750000 0.750000 0.909442
O O16 0.000000 0.783018 0.883694
O O17 0.200751 0.912160 0.382118
O O18 0.000000 0.849458 0.415742
O O19 0.000000 0.055539 0.301291
O O20 0.210997 0.000000 0.342465
#
# Coordination Sequence:
#
# PCOD8272246 Si02
#       7
#    16  16   8  16  16  16  16
#     4  10  21  36  53  73 100 139 186 230 273 328
#     4  10  21  36  55  81 112 143 176 221 277 332
#     4  12  26  42  59  82 115 155 194 229 269 320
#     4   9  17  29  48  73 100 130 166 213 266 317
#     4   9  18  33  51  74 103 133 170 218 271 325
#     4  10  20  36  58  83 112 147 186 227 270 317
#     4   9  18  35  61  89 114 143 181 224 270 321
#
# _framework density 19.431127
#
# number of rings (size 3 to 8) (size 9 to 14) (size 15 to 20)
#    0.000    2.308    0.000    2.538    0.000    7.385 
#    0.000    5.000    0.000    2.308    0.000    0.000 
#    0.000    0.000    0.000    0.000    0.000    0.000 
#
# Total GULP energy -644725.522322 kJ/mol
# GULP energy per Si atom -12398.567737 kJ/mol
# Density = 1.938690 g / cm^3
# Si number density = 19.431127 Si / 1000 Ang^3
#
#
#
# Elastic Constant Matrix: (Units=GPa)
#
#
# Indices 1 2 3 4 5 6 
#
# 1 94.8403 49.7107 45.8570 0.0000 0.0000 0.0000
# 2 49.7107 88.6929 45.6160 0.0000 0.0000 0.0000
# 3 45.8570 45.6160 72.1824 0.0000 0.0000 0.0000
# 4 0.0000 0.0000 0.0000 26.0808 0.0000 0.0000
# 5 0.0000 0.0000 0.0000 0.0000 22.9674 0.0000
# 6 0.0000 0.0000 0.0000 0.0000 0.0000 31.7887
#
#
#
# Elastic Compliance Matrix: (Units=1/GPa)
#
#
# Indices 1 2 3 4 5 6 
#
# 1 0.017086 -0.005917 -0.007115 0.000000 0.000000 0.000000
# 2 -0.005917 0.018753 -0.008092 0.000000 0.000000 0.000000
# 3 -0.007115 -0.008092 0.023488 0.000000 0.000000 0.000000
# 4 0.000000 0.000000 0.000000 0.038342 0.000000 0.000000
# 5 0.000000 0.000000 0.000000 0.000000 0.043540 0.000000
# 6 0.000000 0.000000 0.000000 0.000000 0.000000 0.031458
#
#
# Mechanical properties :
#
#
# Convention : Reuss Voigt Hill
#
# Bulk Modulus (GPa) = 58.55410 59.78702 59.17056
# Shear Modulus (GPa) = 22.66464 23.80284 23.23374
#
# Velocity S-wave (km/s) = 3.41898 3.50378 3.46164
# Velocity P-wave (km/s) = 6.76650 6.87052 6.81871
#
# Compressibility (1/GPa) = 0.01707822
#
# Stress axis : x y z
#
# Youngs Moduli (GPa) = 58.52858 53.32492 42.57488
#
# Poissons Ratio (x) = 0.31551 0.30294
# Poissons Ratio (y) = 0.34629 0.34452
# Poissons Ratio (z) = 0.41645 0.43152
#
# Static dielectric constant tensor:
#      x y z
#    x 3.586110 0.000000 0.000000 
#    y 0.000000 3.684410 0.000000 
#    z 0.000000 0.000000 3.419360 
# 
# 
# High freq. dielectric constant tensor:
#      x y z
#    x 1.747770 0.000000 0.000000 
#    y 0.000000 1.762740 0.000000 
#    z 0.000000 0.000000 1.743780 
# 
# From -- ./inp_files/60838.got.cif
#   From: 2010.03.12/outbox.cif.g09.slc.cpg/sg65_31_cif.got.tgz:60838.got - 2010.04.10 20:52:16.
