data_PCOD8272562
_publ_section_title
;
Structure prediction by ZEFSAII (Michael W. Deem and Ramdas Pophale) SiO2 
 PCOD8272562
Probable space group: C M M M
;
_chemical_formula_sum "Si O2"
_cell_formula_units_Z 72
_cell_length_a 9.044921
_cell_length_b 23.371070
_cell_length_c 17.585055
_cell_angle_alpha 90.000000
_cell_angle_beta 90.000000
_cell_angle_gamma 90.000000
_cell_volume 3717.295664
_symmetry_space_group_name_H-M "C M M M"
_symmetry_group_IT_number 65
_symmetry_cell_setting 'orthorhombic'
loop_
_space_group_symop_operation_xyz
x,y,z
-x,-y,z
x,-y,-z
-x,y,-z
-x,-y,-z
x,y,-z
-x,y,z
x,-y,z
1/2+x,1/2+y,z
1/2-x,1/2-y,z
1/2+x,1/2-y,-z
1/2-x,1/2+y,-z
1/2-x,1/2-y,-z
1/2+x,1/2+y,-z
1/2-x,1/2+y,z
1/2+x,1/2-y,z
loop_
_atom_site_type_symbol
_atom_site_label
_atom_site_fract_x
_atom_site_fract_y
_atom_site_fract_z
Si Si1 0.828770 0.891178 0.912927
Si Si2 0.330009 0.308723 0.216786
Si Si3 0.674898 0.000000 0.152748
Si Si4 0.669692 0.623017 0.632756
Si Si5 0.674939 0.188287 0.500000
Si Si6 0.829878 0.000000 0.313107
O O1 0.776536 0.837666 0.861690
O O2 0.000000 0.906147 0.895807
O O3 0.730984 0.945449 0.893124
O O4 0.803964 0.873457 0.000000
O O5 0.500000 0.292938 0.212329
O O6 0.250000 0.250000 0.233233
O O7 0.295850 0.352983 0.283918
O O8 0.729091 0.000000 0.239082
O O9 0.500000 0.000000 0.153102
O O10 0.500000 0.634969 0.608711
O O11 0.778337 0.652973 0.573935
O O12 0.702885 0.555266 0.634797
O O13 0.500000 0.196836 0.500000
O O14 0.750000 0.250000 0.500000
O O15 0.000000 0.000000 0.285262
#
# Coordination Sequence:
#
# PCOD8272562 Si02
#       6
#    16  16   8  16   8   8
#     4  10  21  39  61  83 113 159 208 248 295 359
#     4  10  21  37  59  86 116 154 201 248 297 354
#     4  12  23  35  57  90 125 154 192 249 308 356
#     4  10  21  40  66  92 120 156 202 247 294 351
#     4  12  26  43  64  91 127 162 202 246 293 352
#     4  10  20  40  68  92 120 159 201 240 287 361
#
# _framework density 19.368919000000002
#
# number of rings (size 3 to 8) (size 9 to 14) (size 15 to 20)
#    0.000    1.556    2.222    3.000    0.000    7.111 
#    0.000    2.222    0.000    0.000    0.000    0.000 
#    0.000    0.000    0.000    0.000    0.000    0.000 
#
# Total GULP energy -446553.291841 kJ/mol
# GULP energy per Si atom -12404.258107 kJ/mol
# Density = 1.932483 g / cm^3
# Si number density = 19.368919 Si / 1000 Ang^3
#
#
#
# Elastic Constant Matrix: (Units=GPa)
#
#
# Indices 1 2 3 4 5 6 
#
# 1 96.0494 55.2748 48.6703 0.0000 0.0000 0.0000
# 2 55.2748 149.1859 46.8112 0.0000 0.0000 0.0000
# 3 48.6703 46.8112 105.5449 0.0000 0.0000 0.0000
# 4 0.0000 0.0000 0.0000 18.6740 0.0000 0.0000
# 5 0.0000 0.0000 0.0000 0.0000 26.2696 0.0000
# 6 0.0000 0.0000 0.0000 0.0000 0.0000 19.3971
#
#
#
# Elastic Compliance Matrix: (Units=1/GPa)
#
#
# Indices 1 2 3 4 5 6 
#
# 1 0.015440 -0.004050 -0.005323 0.000000 0.000000 0.000000
# 2 -0.004050 0.008849 -0.002057 0.000000 0.000000 0.000000
# 3 -0.005323 -0.002057 0.012842 0.000000 0.000000 0.000000
# 4 0.000000 0.000000 0.000000 0.053550 0.000000 0.000000
# 5 0.000000 0.000000 0.000000 0.000000 0.038067 0.000000
# 6 0.000000 0.000000 0.000000 0.000000 0.000000 0.051554
#
#
# Mechanical properties :
#
#
# Convention : Reuss Voigt Hill
#
# Bulk Modulus (GPa) = 70.08084 72.47696 71.27890
# Shear Modulus (GPa) = 24.04778 26.20308 25.12543
#
# Velocity S-wave (km/s) = 3.52741 3.68209 3.60558
# Velocity P-wave (km/s) = 7.26986 7.45503 7.36303
#
# Compressibility (1/GPa) = 0.01426924
#
# Stress axis : x y z
#
# Youngs Moduli (GPa) = 64.76863 113.00541 77.87072
#
# Poissons Ratio (x) = 0.45769 0.41454
# Poissons Ratio (y) = 0.26232 0.16019
# Poissons Ratio (z) = 0.34479 0.23246
#
# Static dielectric constant tensor:
#      x y z
#    x 3.445070 0.000000 0.000000 
#    y 0.000000 3.823070 0.000000 
#    z 0.000000 0.000000 3.621470 
# 
# 
# High freq. dielectric constant tensor:
#      x y z
#    x 1.741870 0.000000 0.000000 
#    y 0.000000 1.764430 0.000000 
#    z 0.000000 0.000000 1.760920 
# 
# From -- ./inp_files/49580.got.cif
#   From: 2010.03.12/outbox.cif.g09.slc.cpg/sg65_25_cif.got.tgz:49580.got - 2010.04.10 20:52:16.
