data_PCOD8272229
_publ_section_title
;
Structure prediction by ZEFSAII (Michael W. Deem and Ramdas Pophale) SiO2 
 PCOD8272229
Probable space group: C M M M
;
_chemical_formula_sum "Si O2"
_cell_formula_units_Z 104
_cell_length_a 32.542436
_cell_length_b 18.886635
_cell_length_c 9.224727
_cell_angle_alpha 90.000000
_cell_angle_beta 90.000000
_cell_angle_gamma 90.000000
_cell_volume 5669.675056
_symmetry_space_group_name_H-M "C M M M"
_symmetry_group_IT_number 65
_symmetry_cell_setting 'orthorhombic'
loop_
_space_group_symop_operation_xyz
x,y,z
-x,-y,z
x,-y,-z
-x,y,-z
-x,-y,-z
x,y,-z
-x,y,z
x,-y,z
1/2+x,1/2+y,z
1/2-x,1/2-y,z
1/2+x,1/2-y,-z
1/2-x,1/2+y,-z
1/2-x,1/2-y,-z
1/2+x,1/2+y,-z
1/2-x,1/2+y,z
1/2+x,1/2-y,z
loop_
_atom_site_type_symbol
_atom_site_label
_atom_site_fract_x
_atom_site_fract_y
_atom_site_fract_z
Si Si1 0.423233 0.579896 0.334796
Si Si2 0.118400 0.335410 0.827677
Si Si3 0.952654 0.581949 0.331328
Si Si4 0.857064 0.195619 0.332939
Si Si5 0.199724 0.418588 0.169923
Si Si6 0.500000 0.584443 0.837944
Si Si7 0.764881 0.173068 0.330661
O O1 0.438233 0.581624 0.500000
O O2 0.412797 0.500000 0.285629
O O3 0.383074 0.625398 0.309755
O O4 0.459632 0.613915 0.240448
O O5 0.076988 0.369292 0.764042
O O6 0.124492 0.256965 0.766351
O O7 0.157771 0.381216 0.778661
O O8 0.114004 0.332275 0.000000
O O9 0.943768 0.596427 0.500000
O O10 0.944190 0.500000 0.293523
O O11 0.000000 0.601011 0.294791
O O12 0.856832 0.221805 0.500000
O O13 0.812187 0.170561 0.283346
O O14 0.196310 0.500000 0.215661
O O15 0.239342 0.386013 0.246922
O O16 0.206078 0.408930 0.000000
O O17 0.500000 0.500000 0.829352
O O18 0.500000 0.613716 0.000000
O O19 0.758558 0.158916 0.500000
O O20 0.750000 0.250000 0.283621
#
# Coordination Sequence:
#
# PCOD8272229 Si02
#       7
#    16  16  16  16  16   8  16
#     4   9  18  34  56  80 106 140 182 224 270 327
#     4  11  22  36  56  82 115 151 188 229 273 326
#     4   9  19  37  60  84 111 146 187 231 280 331
#     4  10  21  37  57  81 111 146 185 228 278 333
#     4  10  22  38  56  82 114 148 187 228 273 329
#     4   9  17  31  53  79 107 137 170 217 270 319
#     4  10  20  36  58  82 109 142 184 232 277 324
#
# _framework density 18.343204
#
# number of rings (size 3 to 8) (size 9 to 14) (size 15 to 20)
#    0.000    2.231    1.538    1.615    0.000    5.231 
#    1.385    2.308    0.000    1.846    0.000    0.000 
#    0.000    0.000    0.000    0.000    0.000    0.000 
#
# Total GULP energy -644888.176449 kJ/mol
# GULP energy per Si atom -12401.695701 kJ/mol
# Density = 1.830145 g / cm^3
# Si number density = 18.343204 Si / 1000 Ang^3
#
#
#
# Elastic Constant Matrix: (Units=GPa)
#
#
# Indices 1 2 3 4 5 6 
#
# 1 151.6457 61.1418 62.3122 0.0000 0.0000 0.0000
# 2 61.1418 93.9130 46.7479 0.0000 0.0000 0.0000
# 3 62.3122 46.7479 72.3583 0.0000 0.0000 0.0000
# 4 0.0000 0.0000 0.0000 26.9998 0.0000 0.0000
# 5 0.0000 0.0000 0.0000 0.0000 -21.7566 0.0000
# 6 0.0000 0.0000 0.0000 0.0000 0.0000 22.1740
#
#
#
# Elastic Compliance Matrix: (Units=1/GPa)
#
#
# Indices 1 2 3 4 5 6 
#
# 1 0.010972 -0.003597 -0.007125 0.000000 0.000000 0.000000
# 2 -0.003597 0.016875 -0.007805 0.000000 0.000000 0.000000
# 3 -0.007125 -0.007805 0.024999 0.000000 0.000000 0.000000
# 4 0.000000 0.000000 0.000000 0.037037 0.000000 0.000000
# 5 0.000000 0.000000 0.000000 0.000000 -0.045963 0.000000
# 6 0.000000 0.000000 0.000000 0.000000 0.000000 0.045098
#
#
# Mechanical properties :
#
#
# Convention : Reuss Voigt Hill
#
# Bulk Modulus (GPa) = 63.32286 73.14676 68.23481
# Shear Modulus (GPa) = 38.07051 15.33112 26.70081
#
# Velocity S-wave (km/s) = 4.56066 2.89414 3.81940
# Velocity P-wave (km/s) = 7.89487 7.15062 7.53194
#
# Compressibility (1/GPa) = 0.01579209
#
# Stress axis : x y z
#
# Youngs Moduli (GPa) = 91.13897 59.25979 40.00239
#
# Poissons Ratio (x) = 0.21314 0.28503
# Poissons Ratio (y) = 0.32780 0.31221
# Poissons Ratio (z) = 0.64939 0.46252
#
# Static dielectric constant tensor:
#      x y z
#    x 3.430560 0.000000 0.000000 
#    y 0.000000 3.300030 0.000000 
#    z 0.000000 0.000000 3.340800 
# 
# 
# High freq. dielectric constant tensor:
#      x y z
#    x 1.723700 0.000000 0.000000 
#    y 0.000000 1.703950 0.000000 
#    z 0.000000 0.000000 1.706510 
# 
# From -- ./inp_files/18677.got.cif
#   From: 2010.03.12/outbox.cif.g09.slc.cpg/sg65_10_cif.got.tgz:18677.got - 2010.04.10 20:52:16.
