data_PCOD8272781
_publ_section_title
;
Structure prediction by ZEFSAII (Michael W. Deem and Ramdas Pophale) SiO2 
 PCOD8272781
Probable space group: C M M M
;
_chemical_formula_sum "Si O2"
_cell_formula_units_Z 80
_cell_length_a 29.336592
_cell_length_b 9.843905
_cell_length_c 14.862573
_cell_angle_alpha 90.000000
_cell_angle_beta 90.000000
_cell_angle_gamma 90.000000
_cell_volume 4292.112291
_symmetry_space_group_name_H-M "C M M M"
_symmetry_group_IT_number 65
_symmetry_cell_setting 'orthorhombic'
loop_
_space_group_symop_operation_xyz
x,y,z
-x,-y,z
x,-y,-z
-x,y,-z
-x,-y,-z
x,y,-z
-x,y,z
x,-y,z
1/2+x,1/2+y,z
1/2-x,1/2-y,z
1/2+x,1/2-y,-z
1/2-x,1/2+y,-z
1/2-x,1/2-y,-z
1/2+x,1/2+y,-z
1/2-x,1/2+y,z
1/2+x,1/2-y,z
loop_
_atom_site_type_symbol
_atom_site_label
_atom_site_fract_x
_atom_site_fract_y
_atom_site_fract_z
Si Si1 0.109510 0.156668 0.605496
Si Si2 0.611425 0.838763 0.099099
Si Si3 0.788247 0.849226 0.607047
Si Si4 0.712083 0.849412 0.893294
Si Si5 0.053293 0.341461 0.734214
O O1 0.102719 0.178353 0.500000
O O2 0.160910 0.197883 0.634964
O O3 0.073945 0.254986 0.653427
O O4 0.099972 0.000000 0.631378
O O5 0.661871 0.790491 0.129835
O O6 0.574598 0.789291 0.171669
O O7 0.612193 0.000000 0.092180
O O8 0.598924 0.779109 0.000000
O O9 0.785120 0.850354 0.500000
O O10 0.750000 0.750000 0.649016
O O11 0.778477 0.000000 0.644188
O O12 0.750000 0.750000 0.850502
O O13 0.718990 0.000000 0.852093
O O14 0.717572 0.857328 0.000000
O O15 0.064150 0.500000 0.717557
O O16 0.000000 0.313428 0.739072
#
# Coordination Sequence:
#
# PCOD8272781 Si02
#       5
#    16  16  16  16  16
#     4   9  19  36  55  74 100 136 172 202 241 300
#     4   8  15  30  51  73  99 131 163 197 244 300
#     4   8  14  26  46  72  99 127 161 198 236 284
#     4   8  13  23  42  67  94 125 159 193 231 280
#     4  10  21  35  52  76 101 125 163 217 265 299
#
# _framework density 18.638842
#
# number of rings (size 3 to 8) (size 9 to 14) (size 15 to 20)
#    0.000    3.400    0.000    2.400    0.000    2.400 
#    0.000    8.000    0.000    6.600    0.000    1.400 
#    0.000    0.000    0.000    0.000    0.000    0.000 
#
# Total GULP energy -495774.720127 kJ/mol
# GULP energy per Si atom -12394.368003 kJ/mol
# Density = 1.859642 g / cm^3
# Si number density = 18.638842 Si / 1000 Ang^3
#
#
#
# Elastic Constant Matrix: (Units=GPa)
#
#
# Indices 1 2 3 4 5 6 
#
# 1 155.1888 75.4593 57.4165 0.0000 0.0000 0.0000
# 2 75.4593 78.4472 40.1524 0.0000 0.0000 0.0000
# 3 57.4165 40.1524 61.7620 0.0000 0.0000 0.0000
# 4 0.0000 0.0000 0.0000 14.0660 0.0000 0.0000
# 5 0.0000 0.0000 0.0000 0.0000 8.8982 0.0000
# 6 0.0000 0.0000 0.0000 0.0000 0.0000 33.3067
#
#
#
# Elastic Compliance Matrix: (Units=1/GPa)
#
#
# Indices 1 2 3 4 5 6 
#
# 1 0.013507 -0.009840 -0.006160 0.000000 0.000000 0.000000
# 2 -0.009840 0.026273 -0.007933 0.000000 0.000000 0.000000
# 3 -0.006160 -0.007933 0.027075 0.000000 0.000000 0.000000
# 4 0.000000 0.000000 0.000000 0.071093 0.000000 0.000000
# 5 0.000000 0.000000 0.000000 0.000000 0.112382 0.000000
# 6 0.000000 0.000000 0.000000 0.000000 0.000000 0.030024
#
#
# Mechanical properties :
#
#
# Convention : Reuss Voigt Hill
#
# Bulk Modulus (GPa) = 52.65952 71.27270 61.96611
# Shear Modulus (GPa) = 14.94544 19.41217 17.17880
#
# Velocity S-wave (km/s) = 2.83476 3.23071 3.03919
# Velocity P-wave (km/s) = 6.24727 7.22762 6.75525
#
# Compressibility (1/GPa) = 0.01898992
#
# Stress axis : x y z
#
# Youngs Moduli (GPa) = 74.03313 38.06188 36.93466
#
# Poissons Ratio (x) = 0.37453 0.22751
# Poissons Ratio (y) = 0.72849 0.29299
# Poissons Ratio (z) = 0.45604 0.30193
#
# Static dielectric constant tensor:
#      x y z
#    x 3.559470 0.000000 0.000000 
#    y 0.000000 3.416770 0.000000 
#    z 0.000000 0.000000 3.271240 
# 
# 
# High freq. dielectric constant tensor:
#      x y z
#    x 1.725440 0.000000 0.000000 
#    y 0.000000 1.698160 0.000000 
#    z 0.000000 0.000000 1.705150 
# 
# From -- ./inp_files/38258.got.cif
#   From: 2010.03.12/outbox.cif.g09.slc.cpg/sg65_20_cif.got.tgz:38258.got - 2010.04.10 20:52:16.
