data_PCOD8272444
_publ_section_title
;
Structure prediction by ZEFSAII (Michael W. Deem and Ramdas Pophale) SiO2 
 PCOD8272444
Probable space group: C M M M
;
_chemical_formula_sum "Si O2"
_cell_formula_units_Z 72
_cell_length_a 16.604036
_cell_length_b 8.575529
_cell_length_c 24.911715
_cell_angle_alpha 90.000000
_cell_angle_beta 90.000000
_cell_angle_gamma 90.000000
_cell_volume 3547.139047
_symmetry_space_group_name_H-M "C M M M"
_symmetry_group_IT_number 65
_symmetry_cell_setting 'orthorhombic'
loop_
_space_group_symop_operation_xyz
x,y,z
-x,-y,z
x,-y,-z
-x,y,-z
-x,-y,-z
x,y,-z
-x,y,z
x,-y,z
1/2+x,1/2+y,z
1/2-x,1/2-y,z
1/2+x,1/2-y,-z
1/2-x,1/2+y,-z
1/2-x,1/2-y,-z
1/2+x,1/2+y,-z
1/2-x,1/2+y,z
1/2+x,1/2-y,z
loop_
_atom_site_type_symbol
_atom_site_label
_atom_site_fract_x
_atom_site_fract_y
_atom_site_fract_z
Si Si1 0.161867 0.684453 0.442307
Si Si2 0.333243 0.318336 0.235882
Si Si3 0.161836 0.315961 0.120694
Si Si4 0.407813 0.828901 0.666420
Si Si5 0.500000 0.185054 0.061133
O O1 0.120398 0.730243 0.500000
O O2 0.163071 0.500000 0.436802
O O3 0.250000 0.750000 0.442748
O O4 0.119427 0.753375 0.389277
O O5 0.327486 0.500000 0.222385
O O6 0.250000 0.250000 0.258034
O O7 0.357484 0.228940 0.181789
O O8 0.395615 0.286171 0.283380
O O9 0.168063 0.500000 0.114504
O O10 0.250000 0.250000 0.102037
O O11 0.084034 0.251748 0.087399
O O12 0.500000 0.859859 0.659762
O O13 0.366266 0.000000 0.676101
O O14 0.500000 0.000000 0.066011
O O15 0.500000 0.242739 0.000000
#
# Coordination Sequence:
#
# PCOD8272444 Si02
#       5
#    16  16  16  16   8
#     4   9  18  33  53  75  99 133 177 223 270 324
#     4  11  22  37  57  81 110 144 185 232 281 333
#     4  10  20  37  61  88 118 156 197 241 290 344
#     4  10  21  35  52  77 109 143 179 222 276 334
#     4   9  20  38  61  89 121 159 198 235 284 345
#
# _framework density 20.298048999999999
#
# number of rings (size 3 to 8) (size 9 to 14) (size 15 to 20)
#    0.000    2.111    0.000    4.667    1.556    4.000 
#    0.000    3.889    0.000    4.667    0.000    4.667 
#    0.000    0.000    0.000    0.000    0.000    0.000 
#
# Total GULP energy -446000.662223 kJ/mol
# GULP energy per Si atom -12388.907284 kJ/mol
# Density = 2.025185 g / cm^3
# Si number density = 20.298049 Si / 1000 Ang^3
#
#
#
# Elastic Constant Matrix: (Units=GPa)
#
#
# Indices 1 2 3 4 5 6 
#
# 1 113.1722 21.2436 74.3877 0.0000 0.0000 0.0000
# 2 21.2436 46.8377 16.6800 0.0000 0.0000 0.0000
# 3 74.3877 16.6800 143.5387 0.0000 0.0000 0.0000
# 4 0.0000 0.0000 0.0000 196.1345 0.0000 0.0000
# 5 0.0000 0.0000 0.0000 0.0000 -19.3429 0.0000
# 6 0.0000 0.0000 0.0000 0.0000 0.0000 24.3222
#
#
#
# Elastic Compliance Matrix: (Units=1/GPa)
#
#
# Indices 1 2 3 4 5 6 
#
# 1 0.014067 -0.003948 -0.006832 0.000000 0.000000 0.000000
# 2 -0.003948 0.023380 -0.000671 0.000000 0.000000 0.000000
# 3 -0.006832 -0.000671 0.010585 0.000000 0.000000 0.000000
# 4 0.000000 0.000000 0.000000 0.005099 0.000000 0.000000
# 5 0.000000 0.000000 0.000000 0.000000 -0.051699 0.000000
# 6 0.000000 0.000000 0.000000 0.000000 0.000000 0.041115
#
#
# Mechanical properties :
#
#
# Convention : Reuss Voigt Hill
#
# Bulk Modulus (GPa) = 39.79000 58.68570 49.23785
# Shear Modulus (GPa) = 67.72791 52.97192 60.34991
#
# Velocity S-wave (km/s) = 5.78266 5.11407 5.45861
# Velocity P-wave (km/s) = 8.01442 7.99039 8.00242
#
# Compressibility (1/GPa) = 0.02513194
#
# Stress axis : x y z
#
# Youngs Moduli (GPa) = 71.08588 42.77207 94.47168
#
# Poissons Ratio (x) = 0.16884 0.64540
# Poissons Ratio (y) = 0.28061 0.06340
# Poissons Ratio (z) = 0.48563 0.02870
#
# Static dielectric constant tensor:
#      x y z
#    x 3.818450 0.000000 0.000000 
#    y 0.000000 3.501830 0.000000 
#    z 0.000000 0.000000 4.007980 
# 
# 
# High freq. dielectric constant tensor:
#      x y z
#    x 1.786100 0.000000 0.000000 
#    y 0.000000 1.774050 0.000000 
#    z 0.000000 0.000000 1.804730 
# 
# From -- ./inp_files/72483.got.cif
#   From: 2010.03.12/outbox.cif.g09.slc.cpg/sg65_37_cif.got.tgz:72483.got - 2010.04.10 20:52:16.
