data_PCOD8272595
_publ_section_title
;
Structure prediction by ZEFSAII (Michael W. Deem and Ramdas Pophale) SiO2 
 PCOD8272595
Probable space group: C M M M
;
_chemical_formula_sum "Si O2"
_cell_formula_units_Z 104
_cell_length_a 31.977832
_cell_length_b 20.334086
_cell_length_c 9.165238
_cell_angle_alpha 90.000000
_cell_angle_beta 90.000000
_cell_angle_gamma 90.000000
_cell_volume 5959.604229
_symmetry_space_group_name_H-M "C M M M"
_symmetry_group_IT_number 65
_symmetry_cell_setting 'orthorhombic'
loop_
_space_group_symop_operation_xyz
x,y,z
-x,-y,z
x,-y,-z
-x,y,-z
-x,-y,-z
x,y,-z
-x,y,z
x,-y,z
1/2+x,1/2+y,z
1/2-x,1/2-y,z
1/2+x,1/2-y,-z
1/2-x,1/2+y,-z
1/2-x,1/2-y,-z
1/2+x,1/2+y,-z
1/2-x,1/2+y,z
1/2+x,1/2-y,z
loop_
_atom_site_type_symbol
_atom_site_label
_atom_site_fract_x
_atom_site_fract_y
_atom_site_fract_z
Si Si1 0.572294 0.127285 0.163538
Si Si2 0.181058 0.071778 0.327246
Si Si3 0.049290 0.500000 0.665595
Si Si4 0.634157 0.301491 0.672163
Si Si5 0.045791 0.750164 0.332432
Si Si6 0.223549 0.575354 0.329378
Si Si7 0.334786 0.177136 0.835350
O O1 0.567746 0.062773 0.257009
O O2 0.545558 0.185191 0.235230
O O3 0.620710 0.143168 0.163166
O O4 0.555355 0.116147 0.000000
O O5 0.178159 0.069062 0.500000
O O6 0.150218 0.128333 0.267030
O O7 0.228569 0.087160 0.282131
O O8 0.167513 0.000000 0.264352
O O9 0.065078 0.500000 0.500000
O O10 0.000000 0.500000 0.676745
O O11 0.641451 0.294849 0.500000
O O12 0.584612 0.297111 0.712451
O O13 0.661967 0.245255 0.747310
O O14 0.051546 0.728344 0.500000
O O15 0.000000 0.784757 0.310420
O O16 0.216940 0.589337 0.500000
O O17 0.210451 0.500000 0.292994
O O18 0.196975 0.627124 0.238938
O O19 0.319682 0.192209 0.000000
#
# Coordination Sequence:
#
# PCOD8272595 Si02
#       7
#    16  16   8  16  16  16  16
#     4  10  21  34  47  65  90 123 160 198 240 285
#     4   8  15  30  52  76  98 122 159 201 236 279
#     4  11  23  35  47  65  89 119 157 201 247 289
#     4   9  17  31  52  73  95 127 162 196 238 286
#     4   9  17  30  48  70  95 122 156 196 236 282
#     4   9  18  32  50  71  94 125 166 205 238 280
#     4  10  21  34  47  68  99 128 158 200 244 285
#
# _framework density 17.450824000000001
#
# number of rings (size 3 to 8) (size 9 to 14) (size 15 to 20)
#    0.000    2.692    0.000    2.538    1.077    5.538 
#    0.000    3.846    0.000    1.846    0.000    3.231 
#    0.000    0.000    0.000    7.692    0.000    8.000 
#
# Total GULP energy -644558.484663 kJ/mol
# GULP energy per Si atom -12395.355474 kJ/mol
# Density = 1.741110 g / cm^3
# Si number density = 17.450824 Si / 1000 Ang^3
#
#
#
# Elastic Constant Matrix: (Units=GPa)
#
#
# Indices 1 2 3 4 5 6 
#
# 1 85.1028 68.9675 27.1233 0.0000 0.0000 0.0000
# 2 68.9675 131.3104 47.1938 0.0000 0.0000 0.0000
# 3 27.1233 47.1938 68.5772 0.0000 0.0000 0.0000
# 4 0.0000 0.0000 0.0000 4.9778 0.0000 0.0000
# 5 0.0000 0.0000 0.0000 0.0000 14.6718 0.0000
# 6 0.0000 0.0000 0.0000 0.0000 0.0000 37.1491
#
#
#
# Elastic Compliance Matrix: (Units=1/GPa)
#
#
# Indices 1 2 3 4 5 6 
#
# 1 0.020503 -0.010435 -0.000928 0.000000 0.000000 0.000000
# 2 -0.010435 0.015429 -0.006491 0.000000 0.000000 0.000000
# 3 -0.000928 -0.006491 0.019416 0.000000 0.000000 0.000000
# 4 0.000000 0.000000 0.000000 0.200893 0.000000 0.000000
# 5 0.000000 0.000000 0.000000 0.000000 0.068158 0.000000
# 6 0.000000 0.000000 0.000000 0.000000 0.000000 0.026919
#
#
# Mechanical properties :
#
#
# Convention : Reuss Voigt Hill
#
# Bulk Modulus (GPa) = 50.91576 63.50662 57.21119
# Shear Modulus (GPa) = 12.70416 20.80679 16.75547
#
# Velocity S-wave (km/s) = 2.70107 3.45673 3.10200
# Velocity P-wave (km/s) = 6.24242 7.23897 6.75909
#
# Compressibility (1/GPa) = 0.01964028
#
# Stress axis : x y z
#
# Youngs Moduli (GPa) = 48.77363 64.81215 51.50380
#
# Poissons Ratio (x) = 0.67632 0.04779
# Poissons Ratio (y) = 0.50896 0.33431
# Poissons Ratio (z) = 0.04526 0.42069
#
# Static dielectric constant tensor:
#      x y z
#    x 3.348580 0.000000 0.000000 
#    y 0.000000 3.646640 0.000000 
#    z 0.000000 0.000000 3.273090 
# 
# 
# High freq. dielectric constant tensor:
#      x y z
#    x 1.675010 0.000000 0.000000 
#    y 0.000000 1.662300 0.000000 
#    z 0.000000 0.000000 1.663430 
# 
# From -- ./inp_files/18672.got.cif
#   From: 2010.03.12/outbox.cif.g09.slc.cpg/sg65_10_cif.got.tgz:18672.got - 2010.04.10 20:52:16.
