data_PCOD8272448
_publ_section_title
;
Structure prediction by ZEFSAII (Michael W. Deem and Ramdas Pophale) SiO2 
 PCOD8272448
Probable space group: C M M M
;
_chemical_formula_sum "Si O2"
_cell_formula_units_Z 64
_cell_length_a 16.554019
_cell_length_b 8.558145
_cell_length_c 22.131616
_cell_angle_alpha 90.000000
_cell_angle_beta 90.000000
_cell_angle_gamma 90.000000
_cell_volume 3135.423550
_symmetry_space_group_name_H-M "C M M M"
_symmetry_group_IT_number 65
_symmetry_cell_setting 'orthorhombic'
loop_
_space_group_symop_operation_xyz
x,y,z
-x,-y,z
x,-y,-z
-x,y,-z
-x,-y,-z
x,y,-z
-x,y,z
x,-y,z
1/2+x,1/2+y,z
1/2-x,1/2-y,z
1/2+x,1/2-y,-z
1/2-x,1/2+y,-z
1/2-x,1/2-y,-z
1/2+x,1/2+y,-z
1/2-x,1/2+y,z
1/2+x,1/2-y,z
loop_
_atom_site_type_symbol
_atom_site_label
_atom_site_fract_x
_atom_site_fract_y
_atom_site_fract_z
Si Si1 0.338420 0.315735 0.363630
Si Si2 0.162345 0.814218 0.000000
Si Si3 0.500000 0.685515 0.431205
Si Si4 0.407454 0.671625 0.876594
Si Si5 0.333675 0.818021 0.233911
O O1 0.332395 0.500000 0.370744
O O2 0.250000 0.250000 0.384484
O O3 0.415966 0.250881 0.401440
O O4 0.358058 0.271306 0.294834
O O5 0.250000 0.750000 0.000000
O O6 0.123354 0.748287 0.938375
O O7 0.155865 0.000000 0.000000
O O8 0.500000 0.500000 0.425864
O O9 0.500000 0.743510 0.500000
O O10 0.500000 0.643846 0.886432
O O11 0.366587 0.500000 0.865116
O O12 0.396355 0.785666 0.819503
O O13 0.250000 0.750000 0.209067
O O14 0.327945 0.000000 0.249099
#
# Coordination Sequence:
#
# PCOD8272448 Si02
#       5
#    16   8   8  16  16
#     4  10  20  37  61  88 119 158 199 244 295 349
#     4  10  21  37  57  79 105 144 187 232 280 338
#     4   9  20  38  61  89 121 158 199 238 287 355
#     4  10  21  37  57  81 111 146 186 231 285 343
#     4  11  22  37  57  83 114 148 190 237 287 341
#
# _framework density 20.411916000000002
#
# number of rings (size 3 to 8) (size 9 to 14) (size 15 to 20)
#    0.000    1.875    0.000    5.625    1.750    5.500 
#    0.000    1.875    0.000    7.500    0.000    0.000 
#    0.000    0.000    0.000    0.000    0.000    0.000 
#
# Total GULP energy -396601.400990 kJ/mol
# GULP energy per Si atom -12393.793781 kJ/mol
# Density = 2.036546 g / cm^3
# Si number density = 20.411916 Si / 1000 Ang^3
#
#
#
# Elastic Constant Matrix: (Units=GPa)
#
#
# Indices 1 2 3 4 5 6 
#
# 1 141.6116 26.8518 79.9344 0.0000 0.0000 0.0000
# 2 26.8518 54.4375 16.2398 0.0000 0.0000 0.0000
# 3 79.9344 16.2398 135.5496 0.0000 0.0000 0.0000
# 4 0.0000 0.0000 0.0000 -4.8676 0.0000 0.0000
# 5 0.0000 0.0000 0.0000 0.0000 68.0320 0.0000
# 6 0.0000 0.0000 0.0000 0.0000 0.0000 28.6804
#
#
#
# Elastic Compliance Matrix: (Units=1/GPa)
#
#
# Indices 1 2 3 4 5 6 
#
# 1 0.011263 -0.003707 -0.006198 0.000000 0.000000 0.000000
# 2 -0.003707 0.020270 -0.000243 0.000000 0.000000 0.000000
# 3 -0.006198 -0.000243 0.011061 0.000000 0.000000 0.000000
# 4 0.000000 0.000000 0.000000 -0.205441 0.000000 0.000000
# 5 0.000000 0.000000 0.000000 0.000000 0.014699 0.000000
# 6 0.000000 0.000000 0.000000 0.000000 0.000000 0.034867
#
#
# Mechanical properties :
#
#
# Convention : Reuss Voigt Hill
#
# Bulk Modulus (GPa) = 44.84209 64.18341 54.51275
# Shear Modulus (GPa) = -58.44293 32.27383 -13.08455
#
# Velocity S-wave (km/s) = -5.35667 3.98065 -2.53459
# Velocity P-wave (km/s) = 4.03017 7.25533 4.26600
#
# Compressibility (1/GPa) = 0.02230048
#
# Stress axis : x y z
#
# Youngs Moduli (GPa) = 88.78863 49.33304 90.40590
#
# Poissons Ratio (x) = 0.18286 0.56030
# Poissons Ratio (y) = 0.32910 0.02195
# Poissons Ratio (z) = 0.55028 0.01198
#
# Static dielectric constant tensor:
#      x y z
#    x 3.964420 0.000000 0.000000 
#    y 0.000000 3.461290 0.000000 
#    z 0.000000 0.000000 3.672590 
# 
# 
# High freq. dielectric constant tensor:
#      x y z
#    x 1.803800 0.000000 0.000000 
#    y 0.000000 1.779370 0.000000 
#    z 0.000000 0.000000 1.801980 
# 
# From -- ./inp_files/69559.got.cif
#   From: 2010.03.12/outbox.cif.g09.slc.cpg/sg65_35_cif.got.tgz:69559.got - 2010.04.10 20:52:16.
