data_PCOD8272361
_publ_section_title
;
Structure prediction by ZEFSAII (Michael W. Deem and Ramdas Pophale) SiO2 
 PCOD8272361
Probable space group: C M M M
;
_chemical_formula_sum "Si O2"
_cell_formula_units_Z 60
_cell_length_a 10.465133
_cell_length_b 26.936570
_cell_length_c 11.481554
_cell_angle_alpha 90.000000
_cell_angle_beta 90.000000
_cell_angle_gamma 90.000000
_cell_volume 3236.590226
_symmetry_space_group_name_H-M "C M M M"
_symmetry_group_IT_number 65
_symmetry_cell_setting 'orthorhombic'
loop_
_space_group_symop_operation_xyz
x,y,z
-x,-y,z
x,-y,-z
-x,y,-z
-x,-y,-z
x,y,-z
-x,y,z
x,-y,z
1/2+x,1/2+y,z
1/2-x,1/2-y,z
1/2+x,1/2-y,-z
1/2-x,1/2+y,-z
1/2-x,1/2-y,-z
1/2+x,1/2+y,-z
1/2-x,1/2+y,z
1/2+x,1/2-y,z
loop_
_atom_site_type_symbol
_atom_site_label
_atom_site_fract_x
_atom_site_fract_y
_atom_site_fract_z
Si Si1 0.000000 0.290105 0.864135
Si Si2 0.251159 0.646405 0.865799
Si Si3 0.852914 0.556118 0.256674
Si Si4 0.500000 0.363698 0.500000
Si Si5 0.000000 0.187161 0.255941
Si Si6 0.276178 0.443481 0.500000
O O1 0.126164 0.321514 0.836294
O O2 0.000000 0.245414 0.772309
O O3 0.000000 0.272361 0.000000
O O4 0.227772 0.589603 0.831214
O O5 0.372274 0.664807 0.796285
O O6 0.286077 0.649706 0.000000
O O7 0.826826 0.500000 0.217304
O O8 0.812838 0.564838 0.389171
O O9 0.000000 0.570462 0.244932
O O10 0.500000 0.325783 0.392146
O O11 0.381261 0.400866 0.500000
O O12 0.333874 0.500000 0.500000
#
# Coordination Sequence:
#
# PCOD8272361 Si02
#       6
#     8  16  16   4   8   8
#     4  10  22  42  66  87 113 160 210 243 287 355
#     4  11  22  39  63  89 120 159 199 244 299 356
#     4  10  20  36  61  91 121 155 198 248 297 353
#     4  12  23  38  60  86 118 158 193 244 312 354
#     4  12  24  41  60  87 122 153 201 253 297 352
#     4  10  20  38  60  84 116 161 206 241 290 358
#
# _framework density 18.538028000000001
#
# number of rings (size 3 to 8) (size 9 to 14) (size 15 to 20)
#    0.000    1.333    4.000    2.600    0.000    4.267 
#    0.000    6.000    0.000    1.600    0.000    0.000 
#    0.000    0.000    0.000    0.000    0.000    0.000 
#
# Total GULP energy -372006.265765 kJ/mol
# GULP energy per Si atom -12400.208859 kJ/mol
# Density = 1.849583 g / cm^3
# Si number density = 18.538028 Si / 1000 Ang^3
#
#
#
# Elastic Constant Matrix: (Units=GPa)
#
#
# Indices 1 2 3 4 5 6 
#
# 1 116.2711 45.6323 52.0871 0.0000 0.0000 0.0000
# 2 45.6323 113.2203 62.2045 0.0000 0.0000 0.0000
# 3 52.0871 62.2045 106.7724 0.0000 0.0000 0.0000
# 4 0.0000 0.0000 0.0000 39.3412 0.0000 0.0000
# 5 0.0000 0.0000 0.0000 0.0000 40.4652 0.0000
# 6 0.0000 0.0000 0.0000 0.0000 0.0000 23.3135
#
#
#
# Elastic Compliance Matrix: (Units=1/GPa)
#
#
# Indices 1 2 3 4 5 6 
#
# 1 0.011386 -0.002261 -0.004237 0.000000 0.000000 0.000000
# 2 -0.002261 0.013439 -0.006727 0.000000 0.000000 0.000000
# 3 -0.004237 -0.006727 0.015352 0.000000 0.000000 0.000000
# 4 0.000000 0.000000 0.000000 0.025419 0.000000 0.000000
# 5 0.000000 0.000000 0.000000 0.000000 0.024713 0.000000
# 6 0.000000 0.000000 0.000000 0.000000 0.000000 0.042894
#
#
# Mechanical properties :
#
#
# Convention : Reuss Voigt Hill
#
# Bulk Modulus (GPa) = 72.84770 72.90128 72.87449
# Shear Modulus (GPa) = 30.44554 32.37995 31.41275
#
# Velocity S-wave (km/s) = 4.05696 4.18386 4.12090
# Velocity P-wave (km/s) = 7.83115 7.92150 7.87646
#
# Compressibility (1/GPa) = 0.01372727
#
# Stress axis : x y z
#
# Youngs Moduli (GPa) = 87.82560 74.40868 65.13977
#
# Poissons Ratio (x) = 0.16824 0.27601
# Poissons Ratio (y) = 0.19858 0.43817
# Poissons Ratio (z) = 0.37214 0.50051
#
# Static dielectric constant tensor:
#      x y z
#    x 3.527080 0.000000 0.000000 
#    y 0.000000 3.553430 0.000000 
#    z 0.000000 0.000000 3.408420 
# 
# 
# High freq. dielectric constant tensor:
#      x y z
#    x 1.731840 0.000000 0.000000 
#    y 0.000000 1.727440 0.000000 
#    z 0.000000 0.000000 1.717750 
# 
# From -- ./inp_files/22268.got.cif
#   From: 2010.03.12/outbox.cif.g09.slc.cpg/sg65_12_cif.got.tgz:22268.got - 2010.04.10 20:52:16.
