data_PCOD8272760
_publ_section_title
;
Structure prediction by ZEFSAII (Michael W. Deem and Ramdas Pophale) SiO2 
 PCOD8272760
Probable space group: C M M M
;
_chemical_formula_sum "Si O2"
_cell_formula_units_Z 64
_cell_length_a 9.327828
_cell_length_b 40.244819
_cell_length_c 9.611333
_cell_angle_alpha 90.000000
_cell_angle_beta 90.000000
_cell_angle_gamma 90.000000
_cell_volume 3608.063167
_symmetry_space_group_name_H-M "C M M M"
_symmetry_group_IT_number 65
_symmetry_cell_setting 'orthorhombic'
loop_
_space_group_symop_operation_xyz
x,y,z
-x,-y,z
x,-y,-z
-x,y,-z
-x,-y,-z
x,y,-z
-x,y,z
x,-y,z
1/2+x,1/2+y,z
1/2-x,1/2-y,z
1/2+x,1/2-y,-z
1/2-x,1/2+y,-z
1/2-x,1/2-y,-z
1/2+x,1/2+y,-z
1/2-x,1/2+y,z
1/2+x,1/2-y,z
loop_
_atom_site_type_symbol
_atom_site_label
_atom_site_fract_x
_atom_site_fract_y
_atom_site_fract_z
Si Si1 0.163423 0.538600 0.660108
Si Si2 0.833720 0.655095 0.839015
Si Si3 0.166760 0.089819 0.161818
Si Si4 0.666824 0.217490 0.660321
O O1 0.189821 0.548129 0.500000
O O2 0.195366 0.500000 0.684812
O O3 0.272179 0.558747 0.754980
O O4 0.000000 0.546969 0.702181
O O5 0.744764 0.623312 0.788419
O O6 0.779363 0.686427 0.750601
O O7 0.000000 0.647563 0.809925
O O8 0.804752 0.663131 0.000000
O O9 0.000000 0.093644 0.194833
O O10 0.196439 0.083266 0.000000
O O11 0.701793 0.209650 0.500000
O O12 0.500000 0.224230 0.684781
O O13 0.750000 0.250000 0.712268
#
# Coordination Sequence:
#
# PCOD8272760 Si02
#       4
#    16  16  16  16
#     4   9  19  36  56  77 101 131 169 210 250 296
#     4   9  18  33  51  70  95 129 167 204 243 290
#     4  10  21  35  51  75 106 136 167 206 252 300
#     4   9  18  32  49  70  96 125 158 198 244 293
#
# _framework density 17.738050000000001
#
# number of rings (size 3 to 8) (size 9 to 14) (size 15 to 20)
#    0.000    2.750    0.000    1.500    0.000    5.500 
#    0.000    6.250    0.000    0.000    0.000    0.000 
#    0.000    0.000    0.000    0.000    0.000    0.000 
#
# Total GULP energy -396901.434996 kJ/mol
# GULP energy per Si atom -12403.169844 kJ/mol
# Density = 1.769768 g / cm^3
# Si number density = 17.738050 Si / 1000 Ang^3
#
#
#
# Elastic Constant Matrix: (Units=GPa)
#
#
# Indices 1 2 3 4 5 6 
#
# 1 83.0542 70.0695 46.9147 0.0000 0.0000 0.0000
# 2 70.0695 129.8929 66.3756 0.0000 0.0000 0.0000
# 3 46.9147 66.3756 64.8732 0.0000 0.0000 0.0000
# 4 0.0000 0.0000 0.0000 36.9995 0.0000 0.0000
# 5 0.0000 0.0000 0.0000 0.0000 26.6554 0.0000
# 6 0.0000 0.0000 0.0000 0.0000 0.0000 36.5486
#
#
#
# Elastic Compliance Matrix: (Units=1/GPa)
#
#
# Indices 1 2 3 4 5 6 
#
# 1 0.024231 -0.008628 -0.008696 0.000000 0.000000 0.000000
# 2 -0.008628 0.019206 -0.013412 0.000000 0.000000 0.000000
# 3 -0.008696 -0.013412 0.035426 0.000000 0.000000 0.000000
# 4 0.000000 0.000000 0.000000 0.027027 0.000000 0.000000
# 5 0.000000 0.000000 0.000000 0.000000 0.037516 0.000000
# 6 0.000000 0.000000 0.000000 0.000000 0.000000 0.027361
#
#
# Mechanical properties :
#
#
# Convention : Reuss Voigt Hill
#
# Bulk Modulus (GPa) = 57.49608 71.61554 64.55581
# Shear Modulus (GPa) = 21.00529 26.33805 23.67167
#
# Velocity S-wave (km/s) = 3.44495 3.85753 3.65706
# Velocity P-wave (km/s) = 6.95039 7.76546 7.36920
#
# Compressibility (1/GPa) = 0.01739249
#
# Stress axis : x y z
#
# Youngs Moduli (GPa) = 41.26908 52.06676 28.22808
#
# Poissons Ratio (x) = 0.44921 0.24547
# Poissons Ratio (y) = 0.35605 0.37858
# Poissons Ratio (z) = 0.35888 0.69830
#
# Static dielectric constant tensor:
#      x y z
#    x 3.246980 0.000000 0.000000 
#    y 0.000000 3.310760 0.000000 
#    z 0.000000 0.000000 3.238770 
# 
# 
# High freq. dielectric constant tensor:
#      x y z
#    x 1.683780 0.000000 0.000000 
#    y 0.000000 1.691340 0.000000 
#    z 0.000000 0.000000 1.682160 
# 
# From -- ./inp_files/4885.got.cif
#   From: 2010.03.12/outbox.cif.g09.slc.cpg/sg65_3_cif.got.tgz:4885.got - 2010.04.10 20:52:16.
