data_PCOD8272464
_publ_section_title
;
Structure prediction by ZEFSAII (Michael W. Deem and Ramdas Pophale) SiO2 
 PCOD8272464
Probable space group: C M M M
;
_chemical_formula_sum "Si O2"
_cell_formula_units_Z 72
_cell_length_a 24.138658
_cell_length_b 19.050415
_cell_length_c 7.565261
_cell_angle_alpha 90.000000
_cell_angle_beta 90.000000
_cell_angle_gamma 90.000000
_cell_volume 3478.896259
_symmetry_space_group_name_H-M "C M M M"
_symmetry_group_IT_number 65
_symmetry_cell_setting 'orthorhombic'
loop_
_space_group_symop_operation_xyz
x,y,z
-x,-y,z
x,-y,-z
-x,y,-z
-x,-y,-z
x,y,-z
-x,y,z
x,-y,z
1/2+x,1/2+y,z
1/2-x,1/2-y,z
1/2+x,1/2-y,-z
1/2-x,1/2+y,-z
1/2-x,1/2-y,-z
1/2+x,1/2+y,-z
1/2-x,1/2+y,z
1/2+x,1/2-y,z
loop_
_atom_site_type_symbol
_atom_site_label
_atom_site_fract_x
_atom_site_fract_y
_atom_site_fract_z
Si Si1 0.500000 0.919931 0.789236
Si Si2 0.936612 0.821429 0.195128
Si Si3 0.772014 0.672002 0.206254
Si Si4 0.398662 0.825374 0.208557
Si Si5 0.278555 0.578301 0.500000
Si Si6 0.091445 0.077286 0.500000
O O1 0.555869 0.880957 0.716780
O O2 0.500000 0.000000 0.717507
O O3 0.500000 0.920131 0.000000
O O4 0.908377 0.752960 0.282413
O O5 0.929646 0.886727 0.322477
O O6 0.000000 0.801451 0.172944
O O7 0.911473 0.839115 0.000000
O O8 0.750000 0.750000 0.250928
O O9 0.835748 0.657110 0.261634
O O10 0.737695 0.617619 0.320940
O O11 0.762587 0.655741 0.000000
O O12 0.406050 0.822403 0.000000
O O13 0.252683 0.500000 0.500000
O O14 0.343531 0.574114 0.500000
O O15 0.065391 0.000000 0.500000
#
# Coordination Sequence:
#
# PCOD8272464 Si02
#       6
#     8  16  16  16   8   8
#     4   9  16  28  50  83 121 156 189 231 288 354
#     4  10  20  37  62  88 118 154 191 236 292 355
#     4  10  21  38  63  91 116 151 204 258 303 353
#     4   9  17  32  56  87 119 151 194 242 290 352
#     4  11  25  42  58  81 119 161 201 249 302 359
#     4  11  25  41  57  83 116 152 197 244 297 357
#
# _framework density 20.696217999999998
#
# number of rings (size 3 to 8) (size 9 to 14) (size 15 to 20)
#    0.000    2.111    1.111    2.000    0.000    6.222 
#    0.000    5.556    0.000    0.000    0.000    2.333 
#    0.000    0.000    0.000    0.000    0.000    0.000 
#
# Total GULP energy -446263.702139 kJ/mol
# GULP energy per Si atom -12396.213948 kJ/mol
# Density = 2.064911 g / cm^3
# Si number density = 20.696218 Si / 1000 Ang^3
#
#
#
# Elastic Constant Matrix: (Units=GPa)
#
#
# Indices 1 2 3 4 5 6 
#
# 1 82.2871 17.4107 9.9819 0.0000 0.0000 0.0000
# 2 17.4107 127.3918 46.4877 0.0000 0.0000 0.0000
# 3 9.9819 46.4877 84.1273 0.0000 0.0000 0.0000
# 4 0.0000 0.0000 0.0000 26.0998 0.0000 0.0000
# 5 0.0000 0.0000 0.0000 0.0000 22.8025 0.0000
# 6 0.0000 0.0000 0.0000 0.0000 0.0000 31.4863
#
#
#
# Elastic Compliance Matrix: (Units=1/GPa)
#
#
# Indices 1 2 3 4 5 6 
#
# 1 0.012545 -0.001467 -0.000678 0.000000 0.000000 0.000000
# 2 -0.001467 0.010004 -0.005354 0.000000 0.000000 0.000000
# 3 -0.000678 -0.005354 0.014926 0.000000 0.000000 0.000000
# 4 0.000000 0.000000 0.000000 0.038314 0.000000 0.000000
# 5 0.000000 0.000000 0.000000 0.000000 0.043855 0.000000
# 6 0.000000 0.000000 0.000000 0.000000 0.000000 0.031760
#
#
# Mechanical properties :
#
#
# Convention : Reuss Voigt Hill
#
# Bulk Modulus (GPa) = 44.48989 49.06297 46.77643
# Shear Modulus (GPa) = 28.75302 30.73944 29.74623
#
# Velocity S-wave (km/s) = 3.73136 3.85810 3.79526
# Velocity P-wave (km/s) = 6.33304 6.60335 6.46961
#
# Compressibility (1/GPa) = 0.02247701
#
# Stress axis : x y z
#
# Youngs Moduli (GPa) = 79.71157 99.95873 66.99830
#
# Poissons Ratio (x) = 0.14666 0.04541
# Poissons Ratio (y) = 0.11696 0.35871
# Poissons Ratio (z) = 0.05402 0.53519
#
# Static dielectric constant tensor:
#      x y z
#    x 3.921020 0.000000 0.000000 
#    y 0.000000 4.002660 0.000000 
#    z 0.000000 0.000000 3.516170 
# 
# 
# High freq. dielectric constant tensor:
#      x y z
#    x 1.819740 0.000000 0.000000 
#    y 0.000000 1.803940 0.000000 
#    z 0.000000 0.000000 1.798950 
# 
# From -- ./inp_files/13619.got.cif
#   From: 2010.03.12/outbox.cif.g09.slc.cpg/sg65_7_cif.got.tgz:13619.got - 2010.04.10 20:52:16.
