data_PCOD8272077
_publ_section_title
;
Structure prediction by ZEFSAII (Michael W. Deem and Ramdas Pophale) SiO2 
 PCOD8272077
Probable space group: C M M M
;
_chemical_formula_sum "Si O2"
_cell_formula_units_Z 72
_cell_length_a 17.505947
_cell_length_b 22.532369
_cell_length_c 8.636346
_cell_angle_alpha 90.000000
_cell_angle_beta 90.000000
_cell_angle_gamma 90.000000
_cell_volume 3406.610631
_symmetry_space_group_name_H-M "C M M M"
_symmetry_group_IT_number 65
_symmetry_cell_setting 'orthorhombic'
loop_
_space_group_symop_operation_xyz
x,y,z
-x,-y,z
x,-y,-z
-x,y,-z
-x,-y,-z
x,y,-z
-x,y,z
x,-y,z
1/2+x,1/2+y,z
1/2-x,1/2-y,z
1/2+x,1/2-y,-z
1/2-x,1/2+y,-z
1/2-x,1/2-y,-z
1/2+x,1/2+y,-z
1/2-x,1/2+y,z
1/2+x,1/2-y,z
loop_
_atom_site_type_symbol
_atom_site_label
_atom_site_fract_x
_atom_site_fract_y
_atom_site_fract_z
Si Si1 0.306139 0.835339 0.184250
Si Si2 0.584177 0.065268 0.183330
Si Si3 0.587934 0.500000 0.183348
Si Si4 0.149326 0.878634 0.319252
Si Si5 0.584762 0.270188 0.178483
O O1 0.357629 0.887949 0.253769
O O2 0.224490 0.844510 0.259946
O O3 0.348297 0.774495 0.234427
O O4 0.297556 0.837952 0.000000
O O5 0.500000 0.075803 0.253562
O O6 0.614155 0.000000 0.228218
O O7 0.579756 0.072749 0.000000
O O8 0.500000 0.500000 0.244948
O O9 0.633038 0.441741 0.239716
O O10 0.588992 0.500000 0.000000
O O11 0.153604 0.890671 0.500000
O O12 0.084013 0.831018 0.277209
O O13 0.500000 0.241189 0.198063
O O14 0.599275 0.286761 0.000000
#
# Coordination Sequence:
#
# PCOD8272077 Si02
#       5
#    16  16   8  16  16
#     4  10  20  35  59  89 122 161 206 253 301 354
#     4   8  14  26  48  81 116 149 194 251 302 347
#     4  11  25  47  73  95 116 151 202 255 307 364
#     4  12  26  41  60  90 127 163 200 248 307 371
#     4  10  21  39  63  90 121 160 210 263 308 356
#
# _framework density 21.135376000000001
#
# number of rings (size 3 to 8) (size 9 to 14) (size 15 to 20)
#    0.000    1.889    0.000    5.000    1.556   10.222 
#    0.000    0.000    0.000    2.000    0.000    1.556 
#    0.000    0.000    0.000    0.000    0.000    0.000 
#
# Total GULP energy -446234.329604 kJ/mol
# GULP energy per Si atom -12395.398045 kJ/mol
# Density = 2.108727 g / cm^3
# Si number density = 21.135376 Si / 1000 Ang^3
#
#
#
# Elastic Constant Matrix: (Units=GPa)
#
#
# Indices 1 2 3 4 5 6 
#
# 1 105.7299 53.5109 26.3927 0.0000 0.0000 0.0000
# 2 53.5109 146.8995 38.0343 0.0000 0.0000 0.0000
# 3 26.3927 38.0343 63.3796 0.0000 0.0000 0.0000
# 4 0.0000 0.0000 0.0000 18.9820 0.0000 0.0000
# 5 0.0000 0.0000 0.0000 0.0000 -3.5760 0.0000
# 6 0.0000 0.0000 0.0000 0.0000 0.0000 -365.0336
#
#
#
# Elastic Compliance Matrix: (Units=1/GPa)
#
#
# Indices 1 2 3 4 5 6 
#
# 1 0.012005 -0.003645 -0.002812 0.000000 0.000000 0.000000
# 2 -0.003645 0.009166 -0.003983 0.000000 0.000000 0.000000
# 3 -0.002812 -0.003983 0.019339 0.000000 0.000000 0.000000
# 4 0.000000 0.000000 0.000000 0.052681 0.000000 0.000000
# 5 0.000000 0.000000 0.000000 0.000000 -0.279640 0.000000
# 6 0.000000 0.000000 0.000000 0.000000 0.000000 -0.002739
#
#
# Mechanical properties :
#
#
# Convention : Reuss Voigt Hill
#
# Bulk Modulus (GPa) = 50.94011 61.32053 56.13032
# Shear Modulus (GPa) = -30.90903 -56.72078 -43.81490
#
# Velocity S-wave (km/s) = -3.82832 -5.18605 -4.55803
# Velocity P-wave (km/s) = 2.14773 2.60461 1.04194
#
# Compressibility (1/GPa) = 0.01963090
#
# Stress axis : x y z
#
# Youngs Moduli (GPa) = 83.30096 109.09475 51.70909
#
# Poissons Ratio (x) = 0.39764 0.14539
# Poissons Ratio (y) = 0.30363 0.20595
# Poissons Ratio (z) = 0.23422 0.43451
#
# Static dielectric constant tensor:
#      x y z
#    x 4.154520 0.000000 0.000000 
#    y 0.000000 4.049080 0.000000 
#    z 0.000000 0.000000 3.374250 
# 
# 
# High freq. dielectric constant tensor:
#      x y z
#    x 1.842440 0.000000 0.000000 
#    y 0.000000 1.844570 0.000000 
#    z 0.000000 0.000000 1.781470 
# 
# From -- ./inp_files/9250.got.cif
#   From: 2010.03.12/outbox.cif.g09.slc.cpg/sg65_5_cif.got.tgz:9250.got - 2010.04.10 20:52:16.
