data_PCOD8272858
_publ_section_title
;
Structure prediction by ZEFSAII (Michael W. Deem and Ramdas Pophale) SiO2 
 PCOD8272858
Probable space group: C M M M
;
_chemical_formula_sum "Si O2"
_cell_formula_units_Z 100
_cell_length_a 20.207496
_cell_length_b 26.561609
_cell_length_c 9.692414
_cell_angle_alpha 90.000000
_cell_angle_beta 90.000000
_cell_angle_gamma 90.000000
_cell_volume 5202.341257
_symmetry_space_group_name_H-M "C M M M"
_symmetry_group_IT_number 65
_symmetry_cell_setting 'orthorhombic'
loop_
_space_group_symop_operation_xyz
x,y,z
-x,-y,z
x,-y,-z
-x,y,-z
-x,-y,-z
x,y,-z
-x,y,z
x,-y,z
1/2+x,1/2+y,z
1/2-x,1/2-y,z
1/2+x,1/2-y,-z
1/2-x,1/2+y,-z
1/2-x,1/2-y,-z
1/2+x,1/2+y,-z
1/2-x,1/2+y,z
1/2+x,1/2-y,z
loop_
_atom_site_type_symbol
_atom_site_label
_atom_site_fract_x
_atom_site_fract_y
_atom_site_fract_z
Si Si1 0.500000 0.000000 0.755304
Si Si2 0.500000 0.108369 0.654802
Si Si3 0.639865 0.370173 0.845698
Si Si4 0.379938 0.828138 0.333497
Si Si5 0.351275 0.000000 0.155606
Si Si6 0.791557 0.394826 0.839344
Si Si7 0.077312 0.054166 0.349750
Si Si8 0.077121 0.765320 0.157940
O O1 0.500000 0.951552 0.658779
O O2 0.568176 0.000000 0.842189
O O3 0.500000 0.127844 0.500000
O O4 0.434672 0.131904 0.721168
O O5 0.713434 0.390437 0.822029
O O6 0.591691 0.401037 0.751149
O O7 0.627053 0.311517 0.814172
O O8 0.617040 0.381290 0.000000
O O9 0.370877 0.825123 0.500000
O O10 0.315100 0.849083 0.258191
O O11 0.400381 0.774650 0.272157
O O12 0.319597 0.948677 0.219622
O O13 0.326999 0.000000 0.000000
O O14 0.812753 0.386986 0.000000
O O15 0.108978 0.065520 0.500000
O O16 0.000000 0.050309 0.366263
O O17 0.104694 0.000000 0.295422
O O18 0.000000 0.779899 0.182293
O O19 0.086265 0.745549 0.000000
#
# Coordination Sequence:
#
# PCOD8272858 Si02
#       8
#     4   8  16  16   8  16  16  16
#     4  12  18  36  60  86 116 146 192 240 298 334
#     4  10  21  35  55  84 117 147 185 233 292 343
#     4  10  22  38  60  86 117 154 198 247 289 345
#     4  11  22  39  60  86 116 150 194 241 290 350
#     4  10  21  35  55  84 116 150 192 234 286 350
#     4  10  22  40  58  83 119 158 194 237 292 351
#     4   9  19  36  57  83 117 154 193 241 299 358
#     4  10  21  38  60  87 115 149 192 242 298 350
#
# _framework density 19.222114000000001
#
# number of rings (size 3 to 8) (size 9 to 14) (size 15 to 20)
#    0.000    1.920    2.400    1.680    1.120    3.200 
#    0.000    4.400    0.000    0.000    0.000    0.000 
#    0.000    0.000    0.000    0.000    0.000    0.000 
#
# Total GULP energy -619563.230697 kJ/mol
# GULP energy per Si atom -12391.264614 kJ/mol
# Density = 1.917836 g / cm^3
# Si number density = 19.222114 Si / 1000 Ang^3
#
#
#
# Elastic Constant Matrix: (Units=GPa)
#
#
# Indices 1 2 3 4 5 6 
#
# 1 62.1134 46.9884 31.0279 0.0000 0.0000 0.0000
# 2 46.9884 119.6234 59.0058 0.0000 0.0000 0.0000
# 3 31.0279 59.0058 89.5902 0.0000 0.0000 0.0000
# 4 0.0000 0.0000 0.0000 32.8991 0.0000 0.0000
# 5 0.0000 0.0000 0.0000 0.0000 21.2322 0.0000
# 6 0.0000 0.0000 0.0000 0.0000 0.0000 30.0423
#
#
#
# Elastic Compliance Matrix: (Units=1/GPa)
#
#
# Indices 1 2 3 4 5 6 
#
# 1 0.023454 -0.007711 -0.003044 0.000000 0.000000 0.000000
# 2 -0.007711 0.014918 -0.007154 0.000000 0.000000 0.000000
# 3 -0.003044 -0.007154 0.016928 0.000000 0.000000 0.000000
# 4 0.000000 0.000000 0.000000 0.030396 0.000000 0.000000
# 5 0.000000 0.000000 0.000000 0.000000 0.047098 0.000000
# 6 0.000000 0.000000 0.000000 0.000000 0.000000 0.033286
#
#
# Mechanical properties :
#
#
# Convention : Reuss Voigt Hill
#
# Bulk Modulus (GPa) = 51.33397 60.59679 55.96538
# Shear Modulus (GPa) = 23.99319 25.78836 24.89077
#
# Velocity S-wave (km/s) = 3.53683 3.66676 3.60238
# Velocity P-wave (km/s) = 6.59110 7.03703 6.81771
#
# Compressibility (1/GPa) = 0.01948028
#
# Stress axis : x y z
#
# Youngs Moduli (GPa) = 42.63733 67.03533 59.07321
#
# Poissons Ratio (x) = 0.51692 0.17982
# Poissons Ratio (y) = 0.32878 0.42263
# Poissons Ratio (z) = 0.12979 0.47959
#
# Static dielectric constant tensor:
#      x y z
#    x 3.528970 0.000000 0.000000 
#    y 0.000000 3.561500 0.000000 
#    z 0.000000 0.000000 3.444800 
# 
# 
# High freq. dielectric constant tensor:
#      x y z
#    x 1.744070 0.000000 0.000000 
#    y 0.000000 1.755230 0.000000 
#    z 0.000000 0.000000 1.738090 
# 
# From -- ./inp_files/12488.got.cif
#   From: 2010.03.12/outbox.cif.g09.slc.cpg/sg65_7_cif.got.tgz:12488.got - 2010.04.10 20:52:16.
