data_PCOD8272966
_publ_section_title
;
Structure prediction by ZEFSAII (Michael W. Deem and Ramdas Pophale) SiO2 
 PCOD8272966
Probable space group: C M M M
;
_chemical_formula_sum "Si O2"
_cell_formula_units_Z 72
_cell_length_a 8.865697
_cell_length_b 18.501414
_cell_length_c 23.008916
_cell_angle_alpha 90.000000
_cell_angle_beta 90.000000
_cell_angle_gamma 90.000000
_cell_volume 3774.104877
_symmetry_space_group_name_H-M "C M M M"
_symmetry_group_IT_number 65
_symmetry_cell_setting 'orthorhombic'
loop_
_space_group_symop_operation_xyz
x,y,z
-x,-y,z
x,-y,-z
-x,y,-z
-x,-y,-z
x,y,-z
-x,y,z
x,-y,z
1/2+x,1/2+y,z
1/2-x,1/2-y,z
1/2+x,1/2-y,-z
1/2-x,1/2+y,-z
1/2-x,1/2-y,-z
1/2+x,1/2+y,-z
1/2-x,1/2+y,z
1/2+x,1/2-y,z
loop_
_atom_site_type_symbol
_atom_site_label
_atom_site_fract_x
_atom_site_fract_y
_atom_site_fract_z
Si Si1 0.179002 0.080350 0.713492
Si Si2 0.179943 0.828691 0.395576
Si Si3 0.331818 0.414688 0.841484
Si Si4 0.176410 0.585437 0.500000
Si Si5 0.323451 0.823749 0.065295
O O1 0.234019 0.138184 0.665996
O O2 0.231196 0.107201 0.777503
O O3 0.000000 0.074610 0.713386
O O4 0.244996 0.000000 0.699710
O O5 0.250000 0.750000 0.403399
O O6 0.243550 0.881774 0.444004
O O7 0.000000 0.823901 0.400817
O O8 0.500000 0.382873 0.851109
O O9 0.336975 0.500000 0.845725
O O10 0.221556 0.387132 0.891306
O O11 0.202606 0.500000 0.500000
O O12 0.000000 0.605465 0.500000
O O13 0.500000 0.813538 0.066256
O O14 0.250000 0.750000 0.087847
O O15 0.266863 0.842503 0.000000
#
# Coordination Sequence:
#
# PCOD8272966 Si02
#       5
#    16  16  16   8  16
#     4   8  16  33  56  80 106 139 179 220 262 313
#     4  11  22  37  58  83 113 146 181 220 264 315
#     4   9  18  34  56  81 109 140 175 217 265 317
#     4  11  24  41  60  83 111 141 178 225 272 317
#     4  10  21  36  53  74 103 139 179 223 269 319
#
# _framework density 19.077370999999999
#
# number of rings (size 3 to 8) (size 9 to 14) (size 15 to 20)
#    0.000    2.333    0.000    4.000    0.000    4.889 
#    0.000    6.667    0.000    2.667    0.000    0.000 
#    0.000    0.000    0.000    0.000    0.000    0.000 
#
# Total GULP energy -446355.629635 kJ/mol
# GULP energy per Si atom -12398.767490 kJ/mol
# Density = 1.903395 g / cm^3
# Si number density = 19.077371 Si / 1000 Ang^3
#
#
#
# Elastic Constant Matrix: (Units=GPa)
#
#
# Indices 1 2 3 4 5 6 
#
# 1 72.2612 36.3393 44.3763 0.0000 0.0000 0.0000
# 2 36.3393 84.5616 61.8266 0.0000 0.0000 0.0000
# 3 44.3763 61.8266 140.1526 0.0000 0.0000 0.0000
# 4 0.0000 0.0000 0.0000 23.6976 0.0000 0.0000
# 5 0.0000 0.0000 0.0000 0.0000 -9.4472 0.0000
# 6 0.0000 0.0000 0.0000 0.0000 0.0000 26.3609
#
#
#
# Elastic Compliance Matrix: (Units=1/GPa)
#
#
# Indices 1 2 3 4 5 6 
#
# 1 0.018760 -0.005489 -0.003518 0.000000 0.000000 0.000000
# 2 -0.005489 0.019062 -0.006671 0.000000 0.000000 0.000000
# 3 -0.003518 -0.006671 0.011192 0.000000 0.000000 0.000000
# 4 0.000000 0.000000 0.000000 0.042198 0.000000 0.000000
# 5 0.000000 0.000000 0.000000 0.000000 -0.105851 0.000000
# 6 0.000000 0.000000 0.000000 0.000000 0.000000 0.037935
#
#
# Mechanical properties :
#
#
# Convention : Reuss Voigt Hill
#
# Bulk Modulus (GPa) = 56.63622 64.67332 60.65477
# Shear Modulus (GPa) = 82.59141 18.41780 50.50460
#
# Velocity S-wave (km/s) = 6.58687 3.11050 5.15083
# Velocity P-wave (km/s) = 9.35955 6.84649 8.19987
#
# Compressibility (1/GPa) = 0.01765655
#
# Stress axis : x y z
#
# Youngs Moduli (GPa) = 53.30523 52.46018 89.35061
#
# Poissons Ratio (x) = 0.28798 0.31436
# Poissons Ratio (y) = 0.29261 0.59605
# Poissons Ratio (z) = 0.18755 0.34996
#
# Static dielectric constant tensor:
#      x y z
#    x 3.488710 0.000000 0.000000 
#    y 0.000000 3.436120 0.000000 
#    z 0.000000 0.000000 3.920440 
# 
# 
# High freq. dielectric constant tensor:
#      x y z
#    x 1.725160 0.000000 0.000000 
#    y 0.000000 1.739140 0.000000 
#    z 0.000000 0.000000 1.757340 
# 
# From -- ./inp_files/67096.got.cif
#   From: 2010.03.12/outbox.cif.g09.slc.cpg/sg65_34_cif.got.tgz:67096.got - 2010.04.10 20:52:16.
