data_PCOD8272921
_publ_section_title
;
Structure prediction by ZEFSAII (Michael W. Deem and Ramdas Pophale) SiO2 
 PCOD8272921
Probable space group: C M M M
;
_chemical_formula_sum "Si O2"
_cell_formula_units_Z 96
_cell_length_a 9.341916
_cell_length_b 19.536366
_cell_length_c 30.565048
_cell_angle_alpha 90.000000
_cell_angle_beta 90.000000
_cell_angle_gamma 90.000000
_cell_volume 5578.337970
_symmetry_space_group_name_H-M "C M M M"
_symmetry_group_IT_number 65
_symmetry_cell_setting 'orthorhombic'
loop_
_space_group_symop_operation_xyz
x,y,z
-x,-y,z
x,-y,-z
-x,y,-z
-x,-y,-z
x,y,-z
-x,y,z
x,-y,z
1/2+x,1/2+y,z
1/2-x,1/2-y,z
1/2+x,1/2-y,-z
1/2-x,1/2+y,-z
1/2-x,1/2-y,-z
1/2+x,1/2+y,-z
1/2-x,1/2+y,z
1/2+x,1/2-y,z
loop_
_atom_site_type_symbol
_atom_site_label
_atom_site_fract_x
_atom_site_fract_y
_atom_site_fract_z
Si Si1 0.665881 0.317360 0.551163
Si Si2 0.665480 0.919943 0.608995
Si Si3 0.339248 0.418601 0.951615
Si Si4 0.161228 0.418306 0.870461
Si Si5 0.341186 0.918627 0.293009
Si Si6 0.660994 0.418322 0.787658
O O1 0.687645 0.330534 0.500000
O O2 0.500000 0.308351 0.563387
O O3 0.750000 0.250000 0.566593
O O4 0.730287 0.382274 0.575750
O O5 0.500000 0.902940 0.598539
O O6 0.704355 0.895578 0.658285
O O7 0.694682 0.000000 0.603408
O O8 0.500000 0.392169 0.942118
O O9 0.338450 0.500000 0.949691
O O10 0.233075 0.388940 0.914791
O O11 0.288911 0.394227 0.000000
O O12 0.161807 0.500000 0.870763
O O13 0.249369 0.390569 0.828904
O O14 0.000000 0.390023 0.867672
O O15 0.500000 0.890788 0.281970
O O16 0.231067 0.889521 0.257065
O O17 0.344558 0.000000 0.291296
O O18 0.500000 0.389828 0.790896
O O19 0.661170 0.500000 0.787507
#
# Coordination Sequence:
#
# PCOD8272921 Si02
#       6
#    16  16  16  16  16  16
#     4  10  21  36  53  72  95 124 157 192 228 267
#     4   9  18  32  50  72  97 124 152 184 225 272
#     4   8  13  20  27  33  43  61  87 124 172 223
#     4   9  15  20  26  36  50  70  98 133 174 223
#     4   8  14  25  39  55  77 103 129 158 196 243
#     4   9  15  21  30  44  62  85 113 145 183 229
#
# _framework density 17.209426000000001
#
# number of rings (size 3 to 8) (size 9 to 14) (size 15 to 20)
#    0.000    3.167    0.000    3.000    0.000    6.667 
#    0.000    5.000    0.000    0.000    0.000    0.000 
#    0.000    0.000    0.000    0.000    0.000    0.000 
#
# Total GULP energy -594974.824336 kJ/mol
# GULP energy per Si atom -12395.308840 kJ/mol
# Density = 1.717026 g / cm^3
# Si number density = 17.209426 Si / 1000 Ang^3
#
#
#
# Elastic Constant Matrix: (Units=GPa)
#
#
# Indices 1 2 3 4 5 6 
#
# 1 149.5589 29.5739 85.9414 0.0000 0.0000 0.0000
# 2 29.5739 22.4308 29.4180 0.0000 0.0000 0.0000
# 3 85.9414 29.4180 115.7080 0.0000 0.0000 0.0000
# 4 0.0000 0.0000 0.0000 -0.0178 0.0000 0.0000
# 5 0.0000 0.0000 0.0000 0.0000 39.6401 0.0000
# 6 0.0000 0.0000 0.0000 0.0000 0.0000 14.0650
#
#
#
# Elastic Compliance Matrix: (Units=1/GPa)
#
#
# Indices 1 2 3 4 5 6 
#
# 1 0.012234 -0.006320 -0.007480 0.000000 0.000000 0.000000
# 2 -0.006320 0.070148 -0.013140 0.000000 0.000000 0.000000
# 3 -0.007480 -0.013140 0.017539 0.000000 0.000000 0.000000
# 4 0.000000 0.000000 0.000000-56.184674 0.000000 0.000000
# 5 0.000000 0.000000 0.000000 0.000000 0.025227 0.000000
# 6 0.000000 0.000000 0.000000 0.000000 0.000000 0.071099
#
#
# Mechanical properties :
#
#
# Convention : Reuss Voigt Hill
#
# Bulk Modulus (GPa) = 21.72023 64.17380 42.94701
# Shear Modulus (GPa) = -0.08941 20.25508 10.08283
#
# Velocity S-wave (km/s) = -0.22819 3.43443 2.42314
# Velocity P-wave (km/s) = 3.54670 7.28683 5.73049
#
# Compressibility (1/GPa) = 0.04604003
#
# Stress axis : x y z
#
# Youngs Moduli (GPa) = 81.73624 14.25559 57.01537
#
# Poissons Ratio (x) = 0.09010 0.42649
# Poissons Ratio (y) = 0.51660 0.74920
# Poissons Ratio (z) = 0.61140 0.18732
#
# Static dielectric constant tensor:
#      x y z
#    x 3.418000 0.000000 0.000000 
#    y 0.000000 2.436230 0.000000 
#    z 0.000000 0.000000 3.487300 
# 
# 
# High freq. dielectric constant tensor:
#      x y z
#    x 1.674190 0.000000 0.000000 
#    y 0.000000 1.574320 0.000000 
#    z 0.000000 0.000000 1.680070 
# 
# From -- ./inp_files/73447.got.cif
#   From: 2010.03.12/outbox.cif.g09.slc.cpg/sg65_37_cif.got.tgz:73447.got - 2010.04.10 20:52:16.
