data_PCOD8272638
_publ_section_title
;
Structure prediction by ZEFSAII (Michael W. Deem and Ramdas Pophale) SiO2 
 PCOD8272638
Probable space group: C M M M
;
_chemical_formula_sum "Si O2"
_cell_formula_units_Z 88
_cell_length_a 10.365467
_cell_length_b 18.599909
_cell_length_c 25.288713
_cell_angle_alpha 90.000000
_cell_angle_beta 90.000000
_cell_angle_gamma 90.000000
_cell_volume 4875.581500
_symmetry_space_group_name_H-M "C M M M"
_symmetry_group_IT_number 65
_symmetry_cell_setting 'orthorhombic'
loop_
_space_group_symop_operation_xyz
x,y,z
-x,-y,z
x,-y,-z
-x,y,-z
-x,-y,-z
x,y,-z
-x,y,z
x,-y,z
1/2+x,1/2+y,z
1/2-x,1/2-y,z
1/2+x,1/2-y,-z
1/2-x,1/2+y,-z
1/2-x,1/2-y,-z
1/2+x,1/2+y,-z
1/2-x,1/2+y,z
1/2+x,1/2-y,z
loop_
_atom_site_type_symbol
_atom_site_label
_atom_site_fract_x
_atom_site_fract_y
_atom_site_fract_z
Si Si1 0.145660 0.585615 0.264144
Si Si2 0.747594 0.835091 0.060489
Si Si3 0.353975 0.416288 0.652408
Si Si4 0.000000 0.080670 0.937729
Si Si5 0.353884 0.690966 0.560389
Si Si6 0.353884 0.077691 0.149993
O O1 0.144172 0.500000 0.266065
O O2 0.249503 0.615803 0.306165
O O3 0.200153 0.609121 0.205670
O O4 0.000000 0.615291 0.276116
O O5 0.750000 0.750000 0.066150
O O6 0.878897 0.872196 0.080464
O O7 0.645062 0.866790 0.101155
O O8 0.713439 0.856314 0.000000
O O9 0.500000 0.402497 0.673646
O O10 0.329337 0.500000 0.642824
O O11 0.332447 0.378783 0.596210
O O12 0.000000 0.000000 0.912770
O O13 0.000000 0.073447 0.000000
O O14 0.329001 0.667337 0.500000
O O15 0.500000 0.721376 0.567264
O O16 0.250000 0.750000 0.578267
O O17 0.500000 0.061724 0.164186
O O18 0.289199 0.000000 0.134496
#
# Coordination Sequence:
#
# PCOD8272638 Si02
#       6
#    16  16  16   8  16  16
#     4   8  15  30  50  71  98 131 163 198 247 302
#     4  10  21  34  51  73 101 132 163 203 254 306
#     4   9  17  30  50  76 102 127 164 211 251 293
#     4   9  18  34  52  70  97 133 169 201 241 305
#     4   9  18  32  49  70 100 137 171 205 248 296
#     4   9  18  33  53  75  97 123 160 203 244 295
#
# _framework density 18.049128
#
# number of rings (size 3 to 8) (size 9 to 14) (size 15 to 20)
#    0.000    3.000    0.000    1.636    1.273    2.545 
#    1.636    3.636    0.000    2.182    0.000    5.091 
#    0.000    0.000    0.000    0.000    0.000    0.000 
#
# Total GULP energy -545120.960001 kJ/mol
# GULP energy per Si atom -12389.112727 kJ/mol
# Density = 1.800805 g / cm^3
# Si number density = 18.049128 Si / 1000 Ang^3
#
#
#
# Elastic Constant Matrix: (Units=GPa)
#
#
# Indices 1 2 3 4 5 6 
#
# 1 85.0316 37.8523 52.3068 0.0000 0.0000 0.0000
# 2 37.8523 72.6981 47.7953 0.0000 0.0000 0.0000
# 3 52.3068 47.7953 116.8104 0.0000 0.0000 0.0000
# 4 0.0000 0.0000 0.0000 23.2056 0.0000 0.0000
# 5 0.0000 0.0000 0.0000 0.0000 28.8358 0.0000
# 6 0.0000 0.0000 0.0000 0.0000 0.0000 23.6522
#
#
#
# Elastic Compliance Matrix: (Units=1/GPa)
#
#
# Indices 1 2 3 4 5 6 
#
# 1 0.017694 -0.005477 -0.005682 0.000000 0.000000 0.000000
# 2 -0.005477 0.020513 -0.005941 0.000000 0.000000 0.000000
# 3 -0.005682 -0.005941 0.013536 0.000000 0.000000 0.000000
# 4 0.000000 0.000000 0.000000 0.043093 0.000000 0.000000
# 5 0.000000 0.000000 0.000000 0.000000 0.034679 0.000000
# 6 0.000000 0.000000 0.000000 0.000000 0.000000 0.042279
#
#
# Mechanical properties :
#
#
# Convention : Reuss Voigt Hill
#
# Bulk Modulus (GPa) = 57.00254 61.16100 59.08177
# Shear Modulus (GPa) = 23.60250 24.24443 23.92346
#
# Velocity S-wave (km/s) = 3.62011 3.66901 3.64464
# Velocity P-wave (km/s) = 7.00885 7.20474 7.10747
#
# Compressibility (1/GPa) = 0.01754308
#
# Stress axis : x y z
#
# Youngs Moduli (GPa) = 56.51702 48.74947 73.87683
#
# Poissons Ratio (x) = 0.26701 0.41977
# Poissons Ratio (y) = 0.30955 0.43888
# Poissons Ratio (z) = 0.32113 0.28961
#
# Static dielectric constant tensor:
#      x y z
#    x 3.513440 0.000000 0.000000 
#    y 0.000000 3.052130 0.000000 
#    z 0.000000 0.000000 3.373030 
# 
# 
# High freq. dielectric constant tensor:
#      x y z
#    x 1.697120 0.000000 0.000000 
#    y 0.000000 1.671860 0.000000 
#    z 0.000000 0.000000 1.697040 
# 
# From -- ./inp_files/61455.got.cif
#   From: 2010.03.12/outbox.cif.g09.slc.cpg/sg65_31_cif.got.tgz:61455.got - 2010.04.10 20:52:16.
