data_PCOD8272160
_publ_section_title
;
Structure prediction by ZEFSAII (Michael W. Deem and Ramdas Pophale) SiO2 
 PCOD8272160
Probable space group: C M M M
;
_chemical_formula_sum "Si O2"
_cell_formula_units_Z 72
_cell_length_a 8.865372
_cell_length_b 27.190268
_cell_length_c 16.009445
_cell_angle_alpha 90.000000
_cell_angle_beta 90.000000
_cell_angle_gamma 90.000000
_cell_volume 3859.106184
_symmetry_space_group_name_H-M "C M M M"
_symmetry_group_IT_number 65
_symmetry_cell_setting 'orthorhombic'
loop_
_space_group_symop_operation_xyz
x,y,z
-x,-y,z
x,-y,-z
-x,y,-z
-x,-y,-z
x,y,-z
-x,y,z
x,-y,z
1/2+x,1/2+y,z
1/2-x,1/2-y,z
1/2+x,1/2-y,-z
1/2-x,1/2+y,-z
1/2-x,1/2-y,-z
1/2+x,1/2+y,-z
1/2-x,1/2+y,z
1/2+x,1/2-y,z
loop_
_atom_site_type_symbol
_atom_site_label
_atom_site_fract_x
_atom_site_fract_y
_atom_site_fract_z
Si Si1 0.676533 0.144499 0.092179
Si Si2 0.321982 0.057350 0.500000
Si Si3 0.822682 0.107347 0.340359
Si Si4 0.820635 0.697766 0.257050
Si Si5 0.323973 0.445105 0.169406
O O1 0.500000 0.137640 0.101279
O O2 0.733984 0.181901 0.163684
O O3 0.747072 0.090695 0.102995
O O4 0.720721 0.164827 0.000000
O O5 0.500000 0.065884 0.500000
O O6 0.249967 0.082499 0.579966
O O7 0.280006 0.000000 0.500000
O O8 0.743931 0.159792 0.324751
O O9 0.787660 0.071569 0.263301
O O10 0.000000 0.115497 0.354026
O O11 0.750000 0.750000 0.278192
O O12 0.000000 0.700233 0.264151
O O13 0.500000 0.443647 0.151596
O O14 0.259423 0.500000 0.157131
#
# Coordination Sequence:
#
# PCOD8272160 Si02
#       5
#    16   8  16  16  16
#     4   9  19  34  50  72 103 137 175 219 264 313
#     4  11  23  37  56  85 118 147 175 211 257 307
#     4  10  20  36  57  80 107 140 179 220 262 311
#     4  10  20  36  57  79 105 138 176 219 268 319
#     4   9  18  32  50  73 102 137 176 217 261 310
#
# _framework density 18.657169
#
# number of rings (size 3 to 8) (size 9 to 14) (size 15 to 20)
#    0.000    2.333    0.000    2.333    0.000    5.333 
#    0.000    2.778    0.000    0.000    0.000    0.000 
#    0.000    0.000    0.000    0.000    0.000    0.000 
#
# Total GULP energy -446426.289988 kJ/mol
# GULP energy per Si atom -12400.730277 kJ/mol
# Density = 1.861470 g / cm^3
# Si number density = 18.657169 Si / 1000 Ang^3
#
#
#
# Elastic Constant Matrix: (Units=GPa)
#
#
# Indices 1 2 3 4 5 6 
#
# 1 67.7157 45.5829 43.3051 0.0000 0.0000 0.0000
# 2 45.5829 130.8183 41.8447 0.0000 0.0000 0.0000
# 3 43.3051 41.8447 95.8688 0.0000 0.0000 0.0000
# 4 0.0000 0.0000 0.0000 18.8509 0.0000 0.0000
# 5 0.0000 0.0000 0.0000 0.0000 29.6997 0.0000
# 6 0.0000 0.0000 0.0000 0.0000 0.0000 33.8886
#
#
#
# Elastic Compliance Matrix: (Units=1/GPa)
#
#
# Indices 1 2 3 4 5 6 
#
# 1 0.023907 -0.005667 -0.008325 0.000000 0.000000 0.000000
# 2 -0.005667 0.010228 -0.001904 0.000000 0.000000 0.000000
# 3 -0.008325 -0.001904 0.015023 0.000000 0.000000 0.000000
# 4 0.000000 0.000000 0.000000 0.053048 0.000000 0.000000
# 5 0.000000 0.000000 0.000000 0.000000 0.033670 0.000000
# 6 0.000000 0.000000 0.000000 0.000000 0.000000 0.029508
#
#
# Mechanical properties :
#
#
# Convention : Reuss Voigt Hill
#
# Bulk Modulus (GPa) = 57.59127 61.76312 59.67720
# Shear Modulus (GPa) = 24.63470 27.39918 26.01694
#
# Velocity S-wave (km/s) = 3.63766 3.83634 3.73832
# Velocity P-wave (km/s) = 6.96983 7.26632 7.11962
#
# Compressibility (1/GPa) = 0.01736374
#
# Stress axis : x y z
#
# Youngs Moduli (GPa) = 41.82947 97.77056 66.56550
#
# Poissons Ratio (x) = 0.55408 0.55418
# Poissons Ratio (y) = 0.23705 0.12677
# Poissons Ratio (z) = 0.34824 0.18620
#
# Static dielectric constant tensor:
#      x y z
#    x 3.452790 0.000000 0.000000 
#    y 0.000000 3.546440 0.000000 
#    z 0.000000 0.000000 3.456640 
# 
# 
# High freq. dielectric constant tensor:
#      x y z
#    x 1.728690 0.000000 0.000000 
#    y 0.000000 1.725250 0.000000 
#    z 0.000000 0.000000 1.721010 
# 
# From -- ./inp_files/36527.got.cif
#   From: 2010.03.12/outbox.cif.g09.slc.cpg/sg65_19_cif.got.tgz:36527.got - 2010.04.10 20:52:16.
