data_PCOD8272903
_publ_section_title
;
Structure prediction by ZEFSAII (Michael W. Deem and Ramdas Pophale) SiO2 
 PCOD8272903
Probable space group: C M M M
;
_chemical_formula_sum "Si O2"
_cell_formula_units_Z 104
_cell_length_a 9.124414
_cell_length_b 19.915996
_cell_length_c 31.948686
_cell_angle_alpha 90.000000
_cell_angle_beta 90.000000
_cell_angle_gamma 90.000000
_cell_volume 5805.772495
_symmetry_space_group_name_H-M "C M M M"
_symmetry_group_IT_number 65
_symmetry_cell_setting 'orthorhombic'
loop_
_space_group_symop_operation_xyz
x,y,z
-x,-y,z
x,-y,-z
-x,y,-z
-x,-y,-z
x,y,-z
-x,y,z
x,-y,z
1/2+x,1/2+y,z
1/2-x,1/2-y,z
1/2+x,1/2-y,-z
1/2-x,1/2+y,-z
1/2-x,1/2-y,-z
1/2+x,1/2+y,-z
1/2-x,1/2+y,z
1/2+x,1/2-y,z
loop_
_atom_site_type_symbol
_atom_site_label
_atom_site_fract_x
_atom_site_fract_y
_atom_site_fract_z
Si Si1 0.173641 0.077869 0.590638
Si Si2 0.171409 0.317637 0.648457
Si Si3 0.332284 0.422190 0.896533
Si Si4 0.332296 0.577738 0.800374
Si Si5 0.171094 0.682852 0.951738
Si Si6 0.329954 0.816896 0.254330
Si Si7 0.660067 0.579341 0.500000
O O1 0.261565 0.119268 0.624715
O O2 0.236088 0.099391 0.544175
O O3 0.000000 0.091996 0.593625
O O4 0.206497 0.000000 0.599446
O O5 0.250000 0.250000 0.632720
O O6 0.203865 0.329849 0.697131
O O7 0.000000 0.311396 0.638866
O O8 0.500000 0.406217 0.908503
O O9 0.297510 0.500000 0.904213
O O10 0.302901 0.403000 0.848447
O O11 0.224448 0.380452 0.925523
O O12 0.500000 0.593511 0.788408
O O13 0.296951 0.500000 0.792753
O O14 0.225353 0.619399 0.771117
O O15 0.250000 0.750000 0.935448
O O16 0.000000 0.692797 0.944643
O O17 0.210389 0.669247 0.000000
O O18 0.500000 0.806761 0.245639
O O19 0.250000 0.750000 0.238227
O O20 0.639704 0.500000 0.500000
O O21 0.500000 0.613113 0.500000
#
# Coordination Sequence:
#
# PCOD8272903 Si02
#       7
#    16  16  16  16  16  16   8
#     4   9  17  31  53  78 102 131 167 205 248 299
#     4  10  21  36  52  72 101 134 169 210 253 299
#     4   9  19  36  56  78 105 137 171 207 251 302
#     4   9  19  36  56  78 105 135 168 208 251 298
#     4  10  21  36  54  77 105 137 174 215 256 299
#     4  10  21  36  54  75 100 133 171 210 253 301
#     4   7  12  26  48  73 100 129 163 203 244 291
#
# _framework density 17.913205000000001
#
# number of rings (size 3 to 8) (size 9 to 14) (size 15 to 20)
#    0.000    2.692    0.000    3.231    0.000    5.846 
#    0.000    6.923    0.000    1.385    0.000    0.000 
#    0.000    0.000    0.000    0.000    0.000    0.000 
#
# Total GULP energy -644713.342120 kJ/mol
# GULP energy per Si atom -12398.333502 kJ/mol
# Density = 1.787243 g / cm^3
# Si number density = 17.913205 Si / 1000 Ang^3
#
#
#
# Elastic Constant Matrix: (Units=GPa)
#
#
# Indices 1 2 3 4 5 6 
#
# 1 90.3277 59.1889 55.9914 0.0000 0.0000 0.0000
# 2 59.1889 95.7830 61.4843 0.0000 0.0000 0.0000
# 3 55.9914 61.4843 80.7121 0.0000 0.0000 0.0000
# 4 0.0000 0.0000 0.0000 -19.7788 0.0000 0.0000
# 5 0.0000 0.0000 0.0000 0.0000 28.6540 0.0000
# 6 0.0000 0.0000 0.0000 0.0000 0.0000 37.5603
#
#
#
# Elastic Compliance Matrix: (Units=1/GPa)
#
#
# Indices 1 2 3 4 5 6 
#
# 1 0.021787 -0.007361 -0.009507 0.000000 0.000000 0.000000
# 2 -0.007361 0.022918 -0.012352 0.000000 0.000000 0.000000
# 3 -0.009507 -0.012352 0.028394 0.000000 0.000000 0.000000
# 4 0.000000 0.000000 0.000000 -0.050559 0.000000 0.000000
# 5 0.000000 0.000000 0.000000 0.000000 0.034899 0.000000
# 6 0.000000 0.000000 0.000000 0.000000 0.000000 0.026624
#
#
# Mechanical properties :
#
#
# Convention : Reuss Voigt Hill
#
# Bulk Modulus (GPa) = 68.21279 68.90581 68.55930
# Shear Modulus (GPa) = 33.92409 15.29762 24.61086
#
# Velocity S-wave (km/s) = 4.35651 2.92547 3.71063
# Velocity P-wave (km/s) = 7.96667 7.06832 7.53090
#
# Compressibility (1/GPa) = 0.01466001
#
# Stress axis : x y z
#
# Youngs Moduli (GPa) = 45.89876 43.63476 35.21868
#
# Poissons Ratio (x) = 0.32118 0.33482
# Poissons Ratio (y) = 0.33785 0.43501
# Poissons Ratio (z) = 0.43636 0.53896
#
# Static dielectric constant tensor:
#      x y z
#    x 3.212400 0.000000 0.000000 
#    y 0.000000 3.200390 0.000000 
#    z 0.000000 0.000000 3.387940 
# 
# 
# High freq. dielectric constant tensor:
#      x y z
#    x 1.688160 0.000000 0.000000 
#    y 0.000000 1.688720 0.000000 
#    z 0.000000 0.000000 1.696880 
# 
# From -- ./inp_files/73314.got.cif
#   From: 2010.03.12/outbox.cif.g09.slc.cpg/sg65_37_cif.got.tgz:73314.got - 2010.04.10 20:52:16.
