data_PCOD8272989
_publ_section_title
;
Structure prediction by ZEFSAII (Michael W. Deem and Ramdas Pophale) SiO2 
 PCOD8272989
Probable space group: C M M M
;
_chemical_formula_sum "Si O2"
_cell_formula_units_Z 96
_cell_length_a 8.889490
_cell_length_b 19.072195
_cell_length_c 30.522623
_cell_angle_alpha 90.000000
_cell_angle_beta 90.000000
_cell_angle_gamma 90.000000
_cell_volume 5174.869196
_symmetry_space_group_name_H-M "C M M M"
_symmetry_group_IT_number 65
_symmetry_cell_setting 'orthorhombic'
loop_
_space_group_symop_operation_xyz
x,y,z
-x,-y,z
x,-y,-z
-x,y,-z
-x,-y,-z
x,y,-z
-x,y,z
x,-y,z
1/2+x,1/2+y,z
1/2-x,1/2-y,z
1/2+x,1/2-y,-z
1/2-x,1/2+y,-z
1/2-x,1/2-y,-z
1/2+x,1/2+y,-z
1/2-x,1/2+y,z
1/2+x,1/2-y,z
loop_
_atom_site_type_symbol
_atom_site_label
_atom_site_fract_x
_atom_site_fract_y
_atom_site_fract_z
Si Si1 0.823608 0.674432 0.205621
Si Si2 0.675493 0.174990 0.698119
Si Si3 0.824177 0.178107 0.550769
Si Si4 0.177034 0.173879 0.879402
Si Si5 0.177784 0.419772 0.618762
Si Si6 0.671866 0.081212 0.050446
O O1 0.750000 0.750000 0.207112
O O2 0.791511 0.641169 0.253638
O O3 0.743515 0.635520 0.164629
O O4 0.000000 0.679292 0.195945
O O5 0.500000 0.188262 0.692542
O O6 0.750000 0.250000 0.690747
O O7 0.735297 0.120241 0.662223
O O8 0.786136 0.166057 0.500000
O O9 0.750000 0.250000 0.567972
O O10 0.756346 0.112423 0.576276
O O11 0.000000 0.183502 0.559686
O O12 0.250000 0.250000 0.885900
O O13 0.214365 0.126505 0.920982
O O14 0.000000 0.182236 0.874798
O O15 0.228808 0.500000 0.623020
O O16 0.000000 0.413063 0.613053
O O17 0.500000 0.098773 0.063219
O O18 0.706119 0.000000 0.058959
O O19 0.701014 0.100358 0.000000
#
# Coordination Sequence:
#
# PCOD8272989 Si02
#       6
#    16  16  16  16  16  16
#     4   9  16  29  49  73 101 132 169 212 258 305
#     4   9  18  32  52  76 100 131 172 215 257 303
#     4  10  21  37  57  80 105 134 172 216 259 307
#     4  11  21  33  52  78 108 138 171 213 258 305
#     4  10  21  36  53  76 108 142 175 212 256 306
#     4   9  19  37  58  77 100 133 172 212 256 309
#
# _framework density 18.551193000000001
#
# number of rings (size 3 to 8) (size 9 to 14) (size 15 to 20)
#    0.000    2.333    0.000    4.500    0.000    5.333 
#    0.000    3.333    0.000    3.000    0.000    0.000 
#    0.000    0.000    0.000    0.000    0.000    0.000 
#
# Total GULP energy -595061.866086 kJ/mol
# GULP energy per Si atom -12397.122210 kJ/mol
# Density = 1.850897 g / cm^3
# Si number density = 18.551193 Si / 1000 Ang^3
#
#
#
# Elastic Constant Matrix: (Units=GPa)
#
#
# Indices 1 2 3 4 5 6 
#
# 1 92.1802 44.9804 55.4243 0.0000 0.0000 0.0000
# 2 44.9804 98.4976 69.8627 0.0000 0.0000 0.0000
# 3 55.4243 69.8627 126.0152 0.0000 0.0000 0.0000
# 4 0.0000 0.0000 0.0000 9.4867 0.0000 0.0000
# 5 0.0000 0.0000 0.0000 0.0000 30.6534 0.0000
# 6 0.0000 0.0000 0.0000 0.0000 0.0000 26.3359
#
#
#
# Elastic Compliance Matrix: (Units=1/GPa)
#
#
# Indices 1 2 3 4 5 6 
#
# 1 0.015527 -0.003703 -0.004776 0.000000 0.000000 0.000000
# 2 -0.003703 0.017615 -0.008137 0.000000 0.000000 0.000000
# 3 -0.004776 -0.008137 0.014547 0.000000 0.000000 0.000000
# 4 0.000000 0.000000 0.000000 0.105411 0.000000 0.000000
# 5 0.000000 0.000000 0.000000 0.000000 0.032623 0.000000
# 6 0.000000 0.000000 0.000000 0.000000 0.000000 0.037971
#
#
# Mechanical properties :
#
#
# Convention : Reuss Voigt Hill
#
# Bulk Modulus (GPa) = 69.17102 73.02530 71.09816
# Shear Modulus (GPa) = 19.10254 23.05692 21.07973
#
# Velocity S-wave (km/s) = 3.21241 3.52928 3.37456
# Velocity P-wave (km/s) = 7.15031 7.48715 7.32067
#
# Compressibility (1/GPa) = 0.01445692
#
# Stress axis : x y z
#
# Youngs Moduli (GPa) = 64.40418 56.76960 68.74063
#
# Poissons Ratio (x) = 0.21021 0.32832
# Poissons Ratio (y) = 0.23848 0.55935
# Poissons Ratio (z) = 0.30761 0.46194
#
# Static dielectric constant tensor:
#      x y z
#    x 3.391270 0.000000 0.000000 
#    y 0.000000 3.160710 0.000000 
#    z 0.000000 0.000000 4.058520 
# 
# 
# High freq. dielectric constant tensor:
#      x y z
#    x 1.722330 0.000000 0.000000 
#    y 0.000000 1.688970 0.000000 
#    z 0.000000 0.000000 1.740320 
# 
# From -- ./inp_files/73147.got.cif
#   From: 2010.03.12/outbox.cif.g09.slc.cpg/sg65_37_cif.got.tgz:73147.got - 2010.04.10 20:52:16.
