data_PCOD8272632
_publ_section_title
;
Structure prediction by ZEFSAII (Michael W. Deem and Ramdas Pophale) SiO2 
 PCOD8272632
Probable space group: C M M M
;
_chemical_formula_sum "Si O2"
_cell_formula_units_Z 88
_cell_length_a 13.967384
_cell_length_b 28.840440
_cell_length_c 11.725164
_cell_angle_alpha 90.000000
_cell_angle_beta 90.000000
_cell_angle_gamma 90.000000
_cell_volume 4723.195053
_symmetry_space_group_name_H-M "C M M M"
_symmetry_group_IT_number 65
_symmetry_cell_setting 'orthorhombic'
loop_
_space_group_symop_operation_xyz
x,y,z
-x,-y,z
x,-y,-z
-x,y,-z
-x,-y,-z
x,y,-z
-x,y,z
x,-y,z
1/2+x,1/2+y,z
1/2-x,1/2-y,z
1/2+x,1/2-y,-z
1/2-x,1/2+y,-z
1/2-x,1/2-y,-z
1/2+x,1/2+y,-z
1/2-x,1/2+y,z
1/2+x,1/2-y,z
loop_
_atom_site_type_symbol
_atom_site_label
_atom_site_fract_x
_atom_site_fract_y
_atom_site_fract_z
Si Si1 0.774125 0.364113 0.724673
Si Si2 0.610468 0.863752 0.500000
Si Si3 0.613366 0.210447 0.869738
Si Si4 0.500000 0.946030 0.121863
Si Si5 0.207417 0.447413 0.136123
Si Si6 0.894919 0.795472 0.722989
Si Si7 0.137164 0.743816 0.500000
O O1 0.830732 0.380520 0.611606
O O2 0.841165 0.332148 0.802138
O O3 0.733339 0.409047 0.794739
O O4 0.677673 0.336658 0.695072
O O5 0.500000 0.882797 0.500000
O O6 0.607214 0.808969 0.500000
O O7 0.500000 0.205195 0.857027
O O8 0.645562 0.260706 0.820449
O O9 0.647461 0.207991 0.000000
O O10 0.599785 0.934927 0.184107
O O11 0.500000 0.000000 0.094297
O O12 0.500000 0.919420 0.000000
O O13 0.237642 0.500000 0.168712
O O14 0.215042 0.440956 0.000000
O O15 0.909736 0.765754 0.610163
O O16 0.000000 0.815238 0.757981
O O17 0.250000 0.750000 0.500000
#
# Coordination Sequence:
#
# PCOD8272632 Si02
#       7
#    16   8  16   8  16  16   8
#     4  12  22  35  55  78 106 143 183 223 265 319
#     4  12  24  35  51  80 113 143 177 214 258 317
#     4  10  21  34  50  76 109 141 173 214 268 327
#     4   7  12  26  48  73  99 127 163 206 251 309
#     4   9  19  35  56  81 107 139 180 224 270 324
#     4  11  22  36  54  76 106 144 185 227 267 310
#     4  12  18  37  57  76 106 147 186 220 260 311
#
# _framework density 18.631457000000001
#
# number of rings (size 3 to 8) (size 9 to 14) (size 15 to 20)
#    0.000    1.545    3.636    3.545    2.545    2.182 
#    0.000    0.455    0.000    1.091    0.000    1.273 
#    0.000    2.909    0.000    0.000    0.000    0.000 
#
# Total GULP energy -545237.986673 kJ/mol
# GULP energy per Si atom -12391.772424 kJ/mol
# Density = 1.858905 g / cm^3
# Si number density = 18.631457 Si / 1000 Ang^3
#
#
#
# Elastic Constant Matrix: (Units=GPa)
#
#
# Indices 1 2 3 4 5 6 
#
# 1 58.2005 17.4988 20.6607 0.0000 0.0000 0.0000
# 2 17.4988 83.4181 33.6693 0.0000 0.0000 0.0000
# 3 20.6607 33.6693 104.5666 0.0000 0.0000 0.0000
# 4 0.0000 0.0000 0.0000 32.8696 0.0000 0.0000
# 5 0.0000 0.0000 0.0000 0.0000 20.9689 0.0000
# 6 0.0000 0.0000 0.0000 0.0000 0.0000 8.1377
#
#
#
# Elastic Compliance Matrix: (Units=1/GPa)
#
#
# Indices 1 2 3 4 5 6 
#
# 1 0.019049 -0.002847 -0.002847 0.000000 0.000000 0.000000
# 2 -0.002847 0.014204 -0.004011 0.000000 0.000000 0.000000
# 3 -0.002847 -0.004011 0.011417 0.000000 0.000000 0.000000
# 4 0.000000 0.000000 0.000000 0.030423 0.000000 0.000000
# 5 0.000000 0.000000 0.000000 0.000000 0.047690 0.000000
# 6 0.000000 0.000000 0.000000 0.000000 0.000000 0.122884
#
#
# Mechanical properties :
#
#
# Convention : Reuss Voigt Hill
#
# Bulk Modulus (GPa) = 39.58808 43.31588 41.45198
# Shear Modulus (GPa) = 18.28174 24.01900 21.15037
#
# Velocity S-wave (km/s) = 3.13586 3.59439 3.37292
# Velocity P-wave (km/s) = 5.86563 6.36596 6.12091
#
# Compressibility (1/GPa) = 0.02526013
#
# Stress axis : x y z
#
# Youngs Moduli (GPa) = 52.49736 70.40309 87.58606
#
# Poissons Ratio (x) = 0.20042 0.24937
# Poissons Ratio (y) = 0.14945 0.35131
# Poissons Ratio (z) = 0.14946 0.28239
#
# Static dielectric constant tensor:
#      x y z
#    x 3.927170 0.000000 0.000000 
#    y 0.000000 3.254270 0.000000 
#    z 0.000000 0.000000 3.522510 
# 
# 
# High freq. dielectric constant tensor:
#      x y z
#    x 1.708710 0.000000 0.000000 
#    y 0.000000 1.697980 0.000000 
#    z 0.000000 0.000000 1.722480 
# 
# From -- ./inp_files/25197.got.cif
#   From: 2010.03.12/outbox.cif.g09.slc.cpg/sg65_13_cif.got.tgz:25197.got - 2010.04.10 20:52:16.
