data_PCOD8272053
_publ_section_title
;
Structure prediction by ZEFSAII (Michael W. Deem and Ramdas Pophale) SiO2 
 PCOD8272053
Probable space group: C M M M
;
_chemical_formula_sum "Si O2"
_cell_formula_units_Z 104
_cell_length_a 11.308312
_cell_length_b 28.561838
_cell_length_c 17.323419
_cell_angle_alpha 90.000000
_cell_angle_beta 90.000000
_cell_angle_gamma 90.000000
_cell_volume 5595.224848
_symmetry_space_group_name_H-M "C M M M"
_symmetry_group_IT_number 65
_symmetry_cell_setting 'orthorhombic'
loop_
_space_group_symop_operation_xyz
x,y,z
-x,-y,z
x,-y,-z
-x,y,-z
-x,-y,-z
x,y,-z
-x,y,z
x,-y,z
1/2+x,1/2+y,z
1/2-x,1/2-y,z
1/2+x,1/2-y,-z
1/2-x,1/2+y,-z
1/2-x,1/2-y,-z
1/2+x,1/2+y,-z
1/2-x,1/2+y,z
1/2+x,1/2-y,z
loop_
_atom_site_type_symbol
_atom_site_label
_atom_site_fract_x
_atom_site_fract_y
_atom_site_fract_z
Si Si1 0.248611 0.054366 0.589634
Si Si2 0.867023 0.686401 0.914019
Si Si3 0.364333 0.220888 0.249454
Si Si4 0.365919 0.113413 0.715229
Si Si5 0.000000 0.943684 0.827979
Si Si6 0.500000 0.445014 0.349215
Si Si7 0.376767 0.947897 0.000000
Si Si8 0.757311 0.904761 0.132723
O O1 0.277350 0.059605 0.500000
O O2 0.337442 0.089026 0.633863
O O3 0.116429 0.073156 0.606858
O O4 0.264829 0.000000 0.615832
O O5 0.854880 0.723330 0.844229
O O6 0.768370 0.646857 0.900475
O O7 0.000000 0.664877 0.908585
O O8 0.847385 0.708691 0.000000
O O9 0.500000 0.238522 0.272177
O O10 0.250000 0.250000 0.281885
O O11 0.345237 0.169265 0.284820
O O12 0.500000 0.102756 0.737046
O O13 0.285775 0.088875 0.779686
O O14 0.000000 0.928208 0.738812
O O15 0.106900 0.918577 0.870941
O O16 0.000000 0.000000 0.837740
O O17 0.500000 0.500000 0.354122
O O18 0.305808 0.940848 0.077769
O O19 0.500000 0.917791 0.000000
O O20 0.417233 0.000000 0.000000
#
# Coordination Sequence:
#
# PCOD8272053 Si02
#       8
#    16  16  16  16   8   8   8  16
#     4  10  20  35  58  88 119 151 188 230 278 337
#     4   9  17  33  57  78 103 138 177 227 290 347
#     4   9  19  37  58  84 112 148 188 234 286 342
#     4  10  21  37  58  83 115 150 186 228 286 340
#     4  11  22  34  50  70 105 151 193 239 286 326
#     4   9  17  34  54  76 110 151 189 228 276 330
#     4  11  22  33  49  71  96 134 189 240 276 321
#     4  11  20  35  52  71 100 141 192 231 276 332
#
# _framework density 18.587278000000001
#
# number of rings (size 3 to 8) (size 9 to 14) (size 15 to 20)
#    0.000    2.077    2.308    3.000    0.000    2.769 
#    6.923    1.538    0.000    0.462    0.000    0.000 
#    0.000    0.000    0.000    0.000    0.000    0.000 
#
# Total GULP energy -644214.563445 kJ/mol
# GULP energy per Si atom -12388.741605 kJ/mol
# Density = 1.854497 g / cm^3
# Si number density = 18.587278 Si / 1000 Ang^3
#
#
#
# Elastic Constant Matrix: (Units=GPa)
#
#
# Indices 1 2 3 4 5 6 
#
# 1 147.3539 50.5300 35.5017 0.0000 0.0000 0.0000
# 2 50.5300 54.4157 24.6309 0.0000 0.0000 0.0000
# 3 35.5017 24.6309 67.7336 0.0000 0.0000 0.0000
# 4 0.0000 0.0000 0.0000 17.9859 0.0000 0.0000
# 5 0.0000 0.0000 0.0000 0.0000 38.9326 0.0000
# 6 0.0000 0.0000 0.0000 0.0000 0.0000 29.7374
#
#
#
# Elastic Compliance Matrix: (Units=1/GPa)
#
#
# Indices 1 2 3 4 5 6 
#
# 1 0.010245 -0.008478 -0.002287 0.000000 0.000000 0.000000
# 2 -0.008478 0.029014 -0.006107 0.000000 0.000000 0.000000
# 3 -0.002287 -0.006107 0.018183 0.000000 0.000000 0.000000
# 4 0.000000 0.000000 0.000000 0.055599 0.000000 0.000000
# 5 0.000000 0.000000 0.000000 0.000000 0.025685 0.000000
# 6 0.000000 0.000000 0.000000 0.000000 0.000000 0.033628
#
#
# Mechanical properties :
#
#
# Convention : Reuss Voigt Hill
#
# Bulk Modulus (GPa) = 42.19738 54.53650 48.36694
# Shear Modulus (GPa) = 23.36485 27.92053 25.64269
#
# Velocity S-wave (km/s) = 3.54931 3.87994 3.71830
# Velocity P-wave (km/s) = 6.28875 7.03394 6.67176
#
# Compressibility (1/GPa) = 0.02369816
#
# Stress axis : x y z
#
# Youngs Moduli (GPa) = 97.61312 34.46607 54.99634
#
# Poissons Ratio (x) = 0.29220 0.12575
# Poissons Ratio (y) = 0.82756 0.33587
# Poissons Ratio (z) = 0.22320 0.21049
#
# Static dielectric constant tensor:
#      x y z
#    x 3.604800 0.000000 0.000000 
#    y 0.000000 3.067850 0.000000 
#    z 0.000000 0.000000 3.402890 
# 
# 
# High freq. dielectric constant tensor:
#      x y z
#    x 1.735170 0.000000 0.000000 
#    y 0.000000 1.686980 0.000000 
#    z 0.000000 0.000000 1.708530 
# 
# From -- ./inp_files/51982.got.cif
#   From: 2010.03.12/outbox.cif.g09.slc.cpg/sg65_26_cif.got.tgz:51982.got - 2010.04.10 20:52:16.
