data_PCOD8272746
_publ_section_title
;
Structure prediction by ZEFSAII (Michael W. Deem and Ramdas Pophale) SiO2 
 PCOD8272746
Probable space group: C M M M
;
_chemical_formula_sum "Si O2"
_cell_formula_units_Z 104
_cell_length_a 9.412191
_cell_length_b 26.452191
_cell_length_c 23.027112
_cell_angle_alpha 90.000000
_cell_angle_beta 90.000000
_cell_angle_gamma 90.000000
_cell_volume 5733.130861
_symmetry_space_group_name_H-M "C M M M"
_symmetry_group_IT_number 65
_symmetry_cell_setting 'orthorhombic'
loop_
_space_group_symop_operation_xyz
x,y,z
-x,-y,z
x,-y,-z
-x,y,-z
-x,-y,-z
x,y,-z
-x,y,z
x,-y,z
1/2+x,1/2+y,z
1/2-x,1/2-y,z
1/2+x,1/2-y,-z
1/2-x,1/2+y,-z
1/2-x,1/2-y,-z
1/2+x,1/2+y,-z
1/2-x,1/2+y,z
1/2+x,1/2-y,z
loop_
_atom_site_type_symbol
_atom_site_label
_atom_site_fract_x
_atom_site_fract_y
_atom_site_fract_z
Si Si1 0.831235 0.099691 0.130107
Si Si2 0.330570 0.500000 0.065825
Si Si3 0.661656 0.941704 0.363478
Si Si4 0.160214 0.797715 0.329727
Si Si5 0.334766 0.365604 0.566205
Si Si6 0.335097 0.299337 0.067880
Si Si7 0.163912 0.101855 0.738016
O O1 0.770721 0.050314 0.097192
O O2 0.774079 0.151262 0.100826
O O3 0.780022 0.096755 0.196529
O O4 0.000000 0.100229 0.126150
O O5 0.500000 0.500000 0.067866
O O6 0.274780 0.500000 0.000000
O O7 0.500000 0.921806 0.358319
O O8 0.741255 0.913628 0.415994
O O9 0.740603 0.933662 0.302304
O O10 0.664642 0.000000 0.379985
O O11 0.250000 0.750000 0.310622
O O12 0.208344 0.818699 0.392783
O O13 0.181062 0.840179 0.281014
O O14 0.000000 0.778820 0.332888
O O15 0.303194 0.350486 0.500000
O O16 0.500000 0.379596 0.576344
O O17 0.500000 0.290250 0.082371
O O18 0.250000 0.250000 0.089373
O O19 0.310800 0.308978 0.000000
O O20 0.000000 0.084497 0.732282
#
# Coordination Sequence:
#
# PCOD8272746 Si02
#       7
#    16   8  16  16  16  16  16
#     4   9  17  29  47  73 101 131 169 213 258 305
#     4   9  16  26  44  74 107 133 162 209 266 313
#     4  10  21  35  51  73 102 133 164 204 254 302
#     4   9  18  32  49  71  99 131 164 203 248 294
#     4   9  19  36  55  76 102 131 168 209 246 294
#     4   9  17  30  48  71 101 134 167 207 255 306
#     4   9  19  34  51  72  98 129 170 212 249 297
#
# _framework density 18.140176
#
# number of rings (size 3 to 8) (size 9 to 14) (size 15 to 20)
#    0.000    2.846    0.000    1.846    1.077    7.077 
#    0.000    2.308    0.000    0.000    0.000    0.000 
#    0.000    3.692    0.000    0.000    0.000    0.000 
#
# Total GULP energy -644787.169135 kJ/mol
# GULP energy per Si atom -12399.753253 kJ/mol
# Density = 1.809889 g / cm^3
# Si number density = 18.140176 Si / 1000 Ang^3
#
#
#
# Elastic Constant Matrix: (Units=GPa)
#
#
# Indices 1 2 3 4 5 6 
#
# 1 50.4436 27.7185 16.5893 0.0000 0.0000 0.0000
# 2 27.7185 98.2686 33.9639 0.0000 0.0000 0.0000
# 3 16.5893 33.9639 110.2512 0.0000 0.0000 0.0000
# 4 0.0000 0.0000 0.0000 14.7052 0.0000 0.0000
# 5 0.0000 0.0000 0.0000 0.0000 11.6977 0.0000
# 6 0.0000 0.0000 0.0000 0.0000 0.0000 29.5136
#
#
#
# Elastic Compliance Matrix: (Units=1/GPa)
#
#
# Indices 1 2 3 4 5 6 
#
# 1 0.023738 -0.006112 -0.001689 0.000000 0.000000 0.000000
# 2 -0.006112 0.012962 -0.003074 0.000000 0.000000 0.000000
# 3 -0.001689 -0.003074 0.010271 0.000000 0.000000 0.000000
# 4 0.000000 0.000000 0.000000 0.068003 0.000000 0.000000
# 5 0.000000 0.000000 0.000000 0.000000 0.085487 0.000000
# 6 0.000000 0.000000 0.000000 0.000000 0.000000 0.033883
#
#
# Mechanical properties :
#
#
# Convention : Reuss Voigt Hill
#
# Bulk Modulus (GPa) = 39.64688 46.16743 42.90716
# Shear Modulus (GPa) = 18.90351 23.22941 21.06646
#
# Velocity S-wave (km/s) = 3.23163 3.58236 3.41150
# Velocity P-wave (km/s) = 5.98564 6.52815 6.26277
#
# Compressibility (1/GPa) = 0.02522266
#
# Stress axis : x y z
#
# Youngs Moduli (GPa) = 42.12639 77.14566 97.35990
#
# Poissons Ratio (x) = 0.47152 0.16444
# Poissons Ratio (y) = 0.25748 0.29924
# Poissons Ratio (z) = 0.07115 0.23711
#
# Static dielectric constant tensor:
#      x y z
#    x 3.151170 0.000000 0.000000 
#    y 0.000000 3.310980 0.000000 
#    z 0.000000 0.000000 3.429800 
# 
# 
# High freq. dielectric constant tensor:
#      x y z
#    x 1.672290 0.000000 0.000000 
#    y 0.000000 1.703610 0.000000 
#    z 0.000000 0.000000 1.706220 
# 
# From -- ./inp_files/68179.got.cif
#   From: 2010.03.12/outbox.cif.g09.slc.cpg/sg65_35_cif.got.tgz:68179.got - 2010.04.10 20:52:16.
