data_PCOD8272841
_publ_section_title
;
Structure prediction by ZEFSAII (Michael W. Deem and Ramdas Pophale) SiO2 
 PCOD8272841
Probable space group: C M M M
;
_chemical_formula_sum "Si O2"
_cell_formula_units_Z 88
_cell_length_a 18.023958
_cell_length_b 11.126109
_cell_length_c 22.869570
_cell_angle_alpha 90.000000
_cell_angle_beta 90.000000
_cell_angle_gamma 90.000000
_cell_volume 4586.184012
_symmetry_space_group_name_H-M "C M M M"
_symmetry_group_IT_number 65
_symmetry_cell_setting 'orthorhombic'
loop_
_space_group_symop_operation_xyz
x,y,z
-x,-y,z
x,-y,-z
-x,y,-z
-x,-y,-z
x,y,-z
-x,y,z
x,-y,z
1/2+x,1/2+y,z
1/2-x,1/2-y,z
1/2+x,1/2-y,-z
1/2-x,1/2+y,-z
1/2-x,1/2-y,-z
1/2+x,1/2+y,-z
1/2-x,1/2+y,z
1/2+x,1/2-y,z
loop_
_atom_site_type_symbol
_atom_site_label
_atom_site_fract_x
_atom_site_fract_y
_atom_site_fract_z
Si Si1 0.193456 0.360206 0.433257
Si Si2 0.662594 0.258722 0.899757
Si Si3 0.837550 0.242015 0.234928
Si Si4 0.419460 0.138666 0.664869
Si Si5 0.583756 0.500000 0.762757
Si Si6 0.919763 0.362538 0.000000
Si Si7 0.416335 0.500000 0.900831
O O1 0.166002 0.357422 0.500000
O O2 0.221449 0.500000 0.419154
O O3 0.250000 0.250000 0.422494
O O4 0.125950 0.320665 0.391969
O O5 0.750000 0.250000 0.908351
O O6 0.640821 0.233524 0.832454
O O7 0.631013 0.386106 0.921985
O O8 0.625530 0.161347 0.941003
O O9 0.750000 0.250000 0.243967
O O10 0.875476 0.341337 0.274897
O O11 0.869019 0.114746 0.257795
O O12 0.500000 0.204845 0.665676
O O13 0.434313 0.000000 0.660048
O O14 0.500000 0.500000 0.736140
O O15 0.577798 0.500000 0.831809
O O16 0.937289 0.500000 0.000000
O O17 0.000000 0.294471 0.000000
O O18 0.500000 0.500000 0.927521
#
# Coordination Sequence:
#
# PCOD8272841 Si02
#       7
#    16  16  16  16   8   8   8
#     4   9  18  35  59  84 113 151 194 242 292 340
#     4  10  22  39  60  83 111 145 184 234 286 335
#     4  10  21  36  58  83 111 147 188 234 284 337
#     4  10  21  35  53  82 117 151 190 232 278 340
#     4   9  18  34  55  80 111 144 183 230 283 342
#     4  11  25  41  57  81 113 147 181 221 277 349
#     4   9  18  35  60  85 106 137 186 234 274 332
#
# _framework density 19.188065999999999
#
# number of rings (size 3 to 8) (size 9 to 14) (size 15 to 20)
#    0.000    2.273    0.000    1.909    2.545    3.636 
#    1.636    4.545    0.000    0.000    0.000    2.545 
#    0.000    0.000    0.000    0.000    0.000    0.000 
#
# Total GULP energy -545252.503699 kJ/mol
# GULP energy per Si atom -12392.102357 kJ/mol
# Density = 1.914439 g / cm^3
# Si number density = 19.188066 Si / 1000 Ang^3
#
#
#
# Elastic Constant Matrix: (Units=GPa)
#
#
# Indices 1 2 3 4 5 6 
#
# 1 148.4538 47.5571 70.6292 0.0000 0.0000 0.0000
# 2 47.5571 67.4079 32.3107 0.0000 0.0000 0.0000
# 3 70.6292 32.3107 107.1347 0.0000 0.0000 0.0000
# 4 0.0000 0.0000 0.0000 25.3546 0.0000 0.0000
# 5 0.0000 0.0000 0.0000 0.0000 141.8646 0.0000
# 6 0.0000 0.0000 0.0000 0.0000 0.0000 32.0679
#
#
#
# Elastic Compliance Matrix: (Units=1/GPa)
#
#
# Indices 1 2 3 4 5 6 
#
# 1 0.011119 -0.005063 -0.005803 0.000000 0.000000 0.000000
# 2 -0.005063 0.019647 -0.002588 0.000000 0.000000 0.000000
# 3 -0.005803 -0.002588 0.013940 0.000000 0.000000 0.000000
# 4 0.000000 0.000000 0.000000 0.039441 0.000000 0.000000
# 5 0.000000 0.000000 0.000000 0.000000 0.007049 0.000000
# 6 0.000000 0.000000 0.000000 0.000000 0.000000 0.031184
#
#
# Mechanical properties :
#
#
# Convention : Reuss Voigt Hill
#
# Bulk Modulus (GPa) = 56.18341 69.33226 62.75784
# Shear Modulus (GPa) = 32.21213 51.35738 41.78476
#
# Velocity S-wave (km/s) = 4.10171 5.17913 4.67158
# Velocity P-wave (km/s) = 7.19555 8.48386 7.86613
#
# Compressibility (1/GPa) = 0.01779885
#
# Stress axis : x y z
#
# Youngs Moduli (GPa) = 89.93574 50.89747 71.73404
#
# Poissons Ratio (x) = 0.25769 0.41630
# Poissons Ratio (y) = 0.45533 0.18562
# Poissons Ratio (z) = 0.52193 0.13171
#
# Static dielectric constant tensor:
#      x y z
#    x 4.020360 0.000000 0.000000 
#    y 0.000000 3.601540 0.000000 
#    z 0.000000 0.000000 3.443100 
# 
# 
# High freq. dielectric constant tensor:
#      x y z
#    x 1.754480 0.000000 0.000000 
#    y 0.000000 1.742150 0.000000 
#    z 0.000000 0.000000 1.741150 
# 
# From -- ./inp_files/63656.got.cif
#   From: 2010.03.12/outbox.cif.g09.slc.cpg/sg65_32_cif.got.tgz:63656.got - 2010.04.10 20:52:16.
