data_PCOD8272828
_publ_section_title
;
Structure prediction by ZEFSAII (Michael W. Deem and Ramdas Pophale) SiO2 
 PCOD8272828
Probable space group: C M M M
;
_chemical_formula_sum "Si O2"
_cell_formula_units_Z 72
_cell_length_a 18.736391
_cell_length_b 8.786079
_cell_length_c 23.051000
_cell_angle_alpha 90.000000
_cell_angle_beta 90.000000
_cell_angle_gamma 90.000000
_cell_volume 3794.642055
_symmetry_space_group_name_H-M "C M M M"
_symmetry_group_IT_number 65
_symmetry_cell_setting 'orthorhombic'
loop_
_space_group_symop_operation_xyz
x,y,z
-x,-y,z
x,-y,-z
-x,y,-z
-x,-y,-z
x,y,-z
-x,y,z
x,-y,z
1/2+x,1/2+y,z
1/2-x,1/2-y,z
1/2+x,1/2-y,-z
1/2-x,1/2+y,-z
1/2-x,1/2-y,-z
1/2+x,1/2+y,-z
1/2-x,1/2+y,z
1/2+x,1/2-y,z
loop_
_atom_site_type_symbol
_atom_site_label
_atom_site_fract_x
_atom_site_fract_y
_atom_site_fract_z
Si Si1 0.672333 0.319953 0.000000
Si Si2 0.172673 0.820300 0.330120
Si Si3 0.417774 0.323423 0.109787
Si Si4 0.920123 0.180874 0.435694
Si Si5 0.916927 0.323981 0.769970
O O1 0.750000 0.250000 0.000000
O O2 0.629930 0.263921 0.056689
O O3 0.677840 0.500000 0.000000
O O4 0.250000 0.750000 0.325381
O O5 0.133876 0.753420 0.387631
O O6 0.127242 0.777545 0.274179
O O7 0.179755 0.000000 0.333542
O O8 0.500000 0.296375 0.092882
O O9 0.403623 0.500000 0.123778
O O10 0.395406 0.224900 0.165329
O O11 0.895418 0.234438 0.500000
O O12 0.000000 0.242601 0.422930
O O13 0.921274 0.000000 0.432721
O O14 0.897559 0.500000 0.761211
O O15 0.000000 0.291336 0.758869
#
# Coordination Sequence:
#
# PCOD8272828 Si02
#       5
#     8  16  16  16  16
#     4  10  21  35  53  79 109 140 172 212 262 314
#     4  11  22  35  53  78 109 145 181 218 265 318
#     4   9  18  35  58  80 103 136 179 220 258 307
#     4   8  15  30  53  79 104 133 174 221 265 313
#     4  10  21  37  57  81 108 138 176 223 270 316
#
# _framework density 18.974121
#
# number of rings (size 3 to 8) (size 9 to 14) (size 15 to 20)
#    0.000    2.444    0.000    3.000    0.000    5.778 
#    0.000    2.222    0.000    5.333    0.000    7.778 
#    0.000    0.000    0.000    0.000    0.000    0.000 
#
# Total GULP energy -446433.939266 kJ/mol
# GULP energy per Si atom -12400.942757 kJ/mol
# Density = 1.893094 g / cm^3
# Si number density = 18.974121 Si / 1000 Ang^3
#
#
#
# Elastic Constant Matrix: (Units=GPa)
#
#
# Indices 1 2 3 4 5 6 
#
# 1 103.8820 31.9538 84.1303 0.0000 0.0000 0.0000
# 2 31.9538 44.7888 33.0069 0.0000 0.0000 0.0000
# 3 84.1303 33.0069 146.3443 0.0000 0.0000 0.0000
# 4 0.0000 0.0000 0.0000 15.5340 0.0000 0.0000
# 5 0.0000 0.0000 0.0000 0.0000 8.3108 0.0000
# 6 0.0000 0.0000 0.0000 0.0000 0.0000 20.4436
#
#
#
# Elastic Compliance Matrix: (Units=1/GPa)
#
#
# Indices 1 2 3 4 5 6 
#
# 1 0.019605 -0.006814 -0.009734 0.000000 0.000000 0.000000
# 2 -0.006814 0.029146 -0.002657 0.000000 0.000000 0.000000
# 3 -0.009734 -0.002657 0.013028 0.000000 0.000000 0.000000
# 4 0.000000 0.000000 0.000000 0.064375 0.000000 0.000000
# 5 0.000000 0.000000 0.000000 0.000000 0.120325 0.000000
# 6 0.000000 0.000000 0.000000 0.000000 0.000000 0.048915
#
#
# Mechanical properties :
#
#
# Convention : Reuss Voigt Hill
#
# Bulk Modulus (GPa) = 42.78805 65.91078 54.34942
# Shear Modulus (GPa) = 14.63728 18.58596 16.61162
#
# Velocity S-wave (km/s) = 2.78048 3.13316 2.96207
# Velocity P-wave (km/s) = 5.73653 6.92109 6.35647
#
# Compressibility (1/GPa) = 0.02337101
#
# Stress axis : x y z
#
# Youngs Moduli (GPa) = 51.00653 34.31010 76.75663
#
# Poissons Ratio (x) = 0.23378 0.74714
# Poissons Ratio (y) = 0.34755 0.20391
# Poissons Ratio (z) = 0.49649 0.09115
#
# Static dielectric constant tensor:
#      x y z
#    x 3.415340 0.000000 0.000000 
#    y 0.000000 3.228790 0.000000 
#    z 0.000000 0.000000 3.730090 
# 
# 
# High freq. dielectric constant tensor:
#      x y z
#    x 1.735360 0.000000 0.000000 
#    y 0.000000 1.715200 0.000000 
#    z 0.000000 0.000000 1.752850 
# 
# From -- ./inp_files/64292.got.cif
#   From: 2010.03.12/outbox.cif.g09.slc.cpg/sg65_33_cif.got.tgz:64292.got - 2010.04.10 20:52:16.
