data_PCOD8272461
_publ_section_title
;
Structure prediction by ZEFSAII (Michael W. Deem and Ramdas Pophale) SiO2 
 PCOD8272461
Probable space group: C M M M
;
_chemical_formula_sum "Si O2"
_cell_formula_units_Z 72
_cell_length_a 7.684525
_cell_length_b 18.483975
_cell_length_c 26.570220
_cell_angle_alpha 90.000000
_cell_angle_beta 90.000000
_cell_angle_gamma 90.000000
_cell_volume 3774.049140
_symmetry_space_group_name_H-M "C M M M"
_symmetry_group_IT_number 65
_symmetry_cell_setting 'orthorhombic'
loop_
_space_group_symop_operation_xyz
x,y,z
-x,-y,z
x,-y,-z
-x,y,-z
-x,-y,-z
x,y,-z
-x,y,z
x,-y,z
1/2+x,1/2+y,z
1/2-x,1/2-y,z
1/2+x,1/2-y,-z
1/2-x,1/2+y,-z
1/2-x,1/2-y,-z
1/2+x,1/2+y,-z
1/2-x,1/2+y,z
1/2+x,1/2-y,z
loop_
_atom_site_type_symbol
_atom_site_label
_atom_site_fract_x
_atom_site_fract_y
_atom_site_fract_z
Si Si1 0.704143 0.666821 0.500000
Si Si2 0.192551 0.414374 0.704164
Si Si3 0.293504 0.418111 0.404291
Si Si4 0.000000 0.914146 0.886792
Si Si5 0.200129 0.330695 0.059075
Si Si6 0.000000 0.913727 0.227219
O O1 0.500000 0.654129 0.500000
O O2 0.750000 0.750000 0.500000
O O3 0.782835 0.629540 0.450050
O O4 0.217472 0.500000 0.701328
O O5 0.223674 0.384046 0.647932
O O6 0.330175 0.382530 0.744078
O O7 0.000000 0.392527 0.722744
O O8 0.500000 0.416434 0.402532
O O9 0.226082 0.500000 0.411851
O O10 0.175524 0.886858 0.913064
O O11 0.000000 0.885070 0.829644
O O12 0.000000 0.000000 0.889631
O O13 0.250000 0.250000 0.076060
O O14 0.000000 0.347042 0.073512
O O15 0.231702 0.340010 0.000000
O O16 0.000000 0.000000 0.227474
#
# Coordination Sequence:
#
# PCOD8272461 Si02
#       6
#     8  16  16   8  16   8
#     4  10  21  33  47  71 101 138 165 199 265 332
#     4   9  16  28  50  77 102 135 178 222 270 324
#     4   9  16  30  52  75  98 126 171 223 261 305
#     4  11  23  36  57  92 128 158 193 249 306 346
#     4  10  20  37  62  88 116 160 207 242 287 353
#     4   9  18  33  50  76 116 150 176 223 284 333
#
# _framework density 19.077653999999999
#
# number of rings (size 3 to 8) (size 9 to 14) (size 15 to 20)
#    0.000    2.444    2.222    0.667    0.000    4.444 
#    0.000    3.333    0.000    4.667    0.000    0.000 
#    0.000    0.000    0.000    0.000    0.000    0.000 
#
# Total GULP energy -446344.460207 kJ/mol
# GULP energy per Si atom -12398.457228 kJ/mol
# Density = 1.903423 g / cm^3
# Si number density = 19.077654 Si / 1000 Ang^3
#
#
#
# Elastic Constant Matrix: (Units=GPa)
#
#
# Indices 1 2 3 4 5 6 
#
# 1 129.9822 32.7709 72.8997 0.0000 0.0000 0.0000
# 2 32.7709 68.4565 46.6786 0.0000 0.0000 0.0000
# 3 72.8997 46.6786 129.6333 0.0000 0.0000 0.0000
# 4 0.0000 0.0000 0.0000 4.4627 0.0000 0.0000
# 5 0.0000 0.0000 0.0000 0.0000 9.6233 0.0000
# 6 0.0000 0.0000 0.0000 0.0000 0.0000 23.1438
#
#
#
# Elastic Compliance Matrix: (Units=1/GPa)
#
#
# Indices 1 2 3 4 5 6 
#
# 1 0.011343 -0.001432 -0.005863 0.000000 0.000000 0.000000
# 2 -0.001432 0.019543 -0.006232 0.000000 0.000000 0.000000
# 3 -0.005863 -0.006232 0.013255 0.000000 0.000000 0.000000
# 4 0.000000 0.000000 0.000000 0.224080 0.000000 0.000000
# 5 0.000000 0.000000 0.000000 0.000000 0.103914 0.000000
# 6 0.000000 0.000000 0.000000 0.000000 0.000000 0.043208
#
#
# Mechanical properties :
#
#
# Convention : Reuss Voigt Hill
#
# Bulk Modulus (GPa) = 58.52405 70.30780 64.41592
# Shear Modulus (GPa) = 11.15844 19.16081 15.15962
#
# Velocity S-wave (km/s) = 2.42109 3.17260 2.82197
# Velocity P-wave (km/s) = 6.20958 7.09606 6.66757
#
# Compressibility (1/GPa) = 0.01708699
#
# Stress axis : x y z
#
# Youngs Moduli (GPa) = 88.16352 51.17050 75.44360
#
# Poissons Ratio (x) = 0.07328 0.44231
# Poissons Ratio (y) = 0.12626 0.47013
# Poissons Ratio (z) = 0.51689 0.31887
#
# Static dielectric constant tensor:
#      x y z
#    x 3.574640 0.000000 0.000000 
#    y 0.000000 3.053860 0.000000 
#    z 0.000000 0.000000 3.685380 
# 
# 
# High freq. dielectric constant tensor:
#      x y z
#    x 1.751020 0.000000 0.000000 
#    y 0.000000 1.694540 0.000000 
#    z 0.000000 0.000000 1.745150 
# 
# From -- ./inp_files/67264.got.cif
#   From: 2010.03.12/outbox.cif.g09.slc.cpg/sg65_34_cif.got.tgz:67264.got - 2010.04.10 20:52:16.
