data_PCOD8272227
_publ_section_title
;
Structure prediction by ZEFSAII (Michael W. Deem and Ramdas Pophale) SiO2 
 PCOD8272227
Probable space group: C M M M
;
_chemical_formula_sum "Si O2"
_cell_formula_units_Z 96
_cell_length_a 8.810345
_cell_length_b 19.045792
_cell_length_c 30.006263
_cell_angle_alpha 90.000000
_cell_angle_beta 90.000000
_cell_angle_gamma 90.000000
_cell_volume 5035.050881
_symmetry_space_group_name_H-M "C M M M"
_symmetry_group_IT_number 65
_symmetry_cell_setting 'orthorhombic'
loop_
_space_group_symop_operation_xyz
x,y,z
-x,-y,z
x,-y,-z
-x,y,-z
-x,-y,-z
x,y,-z
-x,y,z
x,-y,z
1/2+x,1/2+y,z
1/2-x,1/2-y,z
1/2+x,1/2-y,-z
1/2-x,1/2+y,-z
1/2-x,1/2-y,-z
1/2+x,1/2+y,-z
1/2-x,1/2+y,z
1/2+x,1/2-y,z
loop_
_atom_site_type_symbol
_atom_site_label
_atom_site_fract_x
_atom_site_fract_y
_atom_site_fract_z
Si Si1 0.321991 0.322112 0.950146
Si Si2 0.323357 0.580512 0.620774
Si Si3 0.679752 0.824142 0.203123
Si Si4 0.679155 0.323107 0.297144
Si Si5 0.322872 0.581441 0.129984
Si Si6 0.321943 0.178004 0.449204
O O1 0.500000 0.310709 0.950489
O O2 0.250000 0.250000 0.932370
O O3 0.275584 0.384990 0.917330
O O4 0.262614 0.340276 0.000000
O O5 0.500000 0.589274 0.610216
O O6 0.275109 0.500000 0.625775
O O7 0.279922 0.618197 0.666764
O O8 0.232109 0.612544 0.579680
O O9 0.500000 0.816303 0.206147
O O10 0.750000 0.750000 0.187529
O O11 0.745684 0.846676 0.250900
O O12 0.723552 0.884395 0.168656
O O13 0.500000 0.314054 0.290269
O O14 0.750000 0.250000 0.313871
O O15 0.500000 0.593922 0.140294
O O16 0.281959 0.500000 0.127399
O O17 0.270038 0.164487 0.500000
O O18 0.500000 0.185970 0.445125
O O19 0.250000 0.250000 0.430722
#
# Coordination Sequence:
#
# PCOD8272227 Si02
#       6
#    16  16  16  16  16  16
#     4   9  18  33  54  79 105 137 179 223 266 315
#     4  10  22  38  56  81 113 148 182 219 268 323
#     4  11  22  37  58  82 108 140 181 225 269 319
#     4  10  20  36  58  82 108 140 181 226 271 320
#     4  10  21  36  54  78 110 146 180 219 270 322
#     4  10  21  37  58  83 110 143 184 228 272 319
#
# _framework density 19.066341999999999
#
# number of rings (size 3 to 8) (size 9 to 14) (size 15 to 20)
#    0.000    2.000    0.000    4.500    0.000    7.667 
#    0.000    5.000    0.000    0.000    0.000    3.500 
#    0.000    0.000    0.000    0.000    0.000    0.000 
#
# Total GULP energy -595390.988247 kJ/mol
# GULP energy per Si atom -12403.978922 kJ/mol
# Density = 1.902295 g / cm^3
# Si number density = 19.066342 Si / 1000 Ang^3
#
#
#
# Elastic Constant Matrix: (Units=GPa)
#
#
# Indices 1 2 3 4 5 6 
#
# 1 84.5071 54.9794 56.3786 0.0000 0.0000 0.0000
# 2 54.9794 150.7905 90.5837 0.0000 0.0000 0.0000
# 3 56.3786 90.5837 119.8818 0.0000 0.0000 0.0000
# 4 0.0000 0.0000 0.0000 -16.6539 0.0000 0.0000
# 5 0.0000 0.0000 0.0000 0.0000 21.8799 0.0000
# 6 0.0000 0.0000 0.0000 0.0000 0.0000 30.6443
#
#
#
# Elastic Compliance Matrix: (Units=1/GPa)
#
#
# Indices 1 2 3 4 5 6 
#
# 1 0.017815 -0.002678 -0.006355 0.000000 0.000000 0.000000
# 2 -0.002678 0.012547 -0.008221 0.000000 0.000000 0.000000
# 3 -0.006355 -0.008221 0.017542 0.000000 0.000000 0.000000
# 4 0.000000 0.000000 0.000000 -0.060046 0.000000 0.000000
# 5 0.000000 0.000000 0.000000 0.000000 0.045704 0.000000
# 6 0.000000 0.000000 0.000000 0.000000 0.000000 0.032632
#
#
# Mechanical properties :
#
#
# Convention : Reuss Voigt Hill
#
# Bulk Modulus (GPa) = 74.64700 84.34032 79.49366
# Shear Modulus (GPa) = 47.54347 17.38990 32.46669
#
# Velocity S-wave (km/s) = 4.99899 3.02333 4.13101
# Velocity P-wave (km/s) = 8.51799 7.51788 8.03351
#
# Compressibility (1/GPa) = 0.01339639
#
# Stress axis : x y z
#
# Youngs Moduli (GPa) = 56.13201 79.70219 57.00686
#
# Poissons Ratio (x) = 0.21346 0.36225
# Poissons Ratio (y) = 0.15033 0.46865
# Poissons Ratio (z) = 0.35669 0.65522
#
# Static dielectric constant tensor:
#      x y z
#    x 3.465740 0.000000 0.000000 
#    y 0.000000 3.516550 0.000000 
#    z 0.000000 0.000000 3.659910 
# 
# 
# High freq. dielectric constant tensor:
#      x y z
#    x 1.742150 0.000000 0.000000 
#    y 0.000000 1.737030 0.000000 
#    z 0.000000 0.000000 1.752570 
# 
# From -- ./inp_files/73182.got.cif
#   From: 2010.03.12/outbox.cif.g09.slc.cpg/sg65_37_cif.got.tgz:73182.got - 2010.04.10 20:52:16.
