data_PCOD8272400
_publ_section_title
;
Structure prediction by ZEFSAII (Michael W. Deem and Ramdas Pophale) SiO2 
 PCOD8272400
Probable space group: C M M M
;
_chemical_formula_sum "Si O2"
_cell_formula_units_Z 72
_cell_length_a 18.761250
_cell_length_b 22.156099
_cell_length_c 9.294650
_cell_angle_alpha 90.000000
_cell_angle_beta 90.000000
_cell_angle_gamma 90.000000
_cell_volume 3863.563978
_symmetry_space_group_name_H-M "C M M M"
_symmetry_group_IT_number 65
_symmetry_cell_setting 'orthorhombic'
loop_
_space_group_symop_operation_xyz
x,y,z
-x,-y,z
x,-y,-z
-x,y,-z
-x,-y,-z
x,y,-z
-x,y,z
x,-y,z
1/2+x,1/2+y,z
1/2-x,1/2-y,z
1/2+x,1/2-y,-z
1/2-x,1/2+y,-z
1/2-x,1/2-y,-z
1/2+x,1/2+y,-z
1/2-x,1/2+y,z
1/2+x,1/2-y,z
loop_
_atom_site_type_symbol
_atom_site_label
_atom_site_fract_x
_atom_site_fract_y
_atom_site_fract_z
Si Si1 0.417978 0.730032 0.334031
Si Si2 0.416488 0.500000 0.167353
Si Si3 0.156468 0.107105 0.333557
Si Si4 0.582910 0.151460 0.167270
Si Si5 0.686216 0.930178 0.664793
O O1 0.406901 0.747387 0.500000
O O2 0.500000 0.713773 0.301275
O O3 0.370059 0.673323 0.289520
O O4 0.391816 0.786516 0.240639
O O5 0.500000 0.500000 0.195974
O O6 0.384104 0.440543 0.236713
O O7 0.397432 0.500000 0.000000
O O8 0.139077 0.092626 0.500000
O O9 0.240573 0.104940 0.304440
O O10 0.500000 0.139699 0.197341
O O11 0.624939 0.095351 0.233416
O O12 0.600270 0.156150 0.000000
O O13 0.662217 0.921804 0.500000
O O14 0.698360 0.000000 0.702362
#
# Coordination Sequence:
#
# PCOD8272400 Si02
#       5
#    16   8  16  16  16
#     4   9  18  34  58  85 111 144 187 233 277 323
#     4  11  23  35  51  81 118 155 192 229 273 324
#     4  10  20  37  59  83 112 148 191 233 276 329
#     4  10  22  39  58  81 111 147 185 229 283 342
#     4  10  21  38  59  83 112 145 185 234 284 332
#
# _framework density 18.635643999999999
#
# number of rings (size 3 to 8) (size 9 to 14) (size 15 to 20)
#    0.000    2.111    1.111    1.667    0.000    6.667 
#    0.000    8.889    0.000    0.000    0.000    0.000 
#    0.000    0.000    0.000    0.000    0.000    0.000 
#
# Total GULP energy -446588.916198 kJ/mol
# GULP energy per Si atom -12405.247672 kJ/mol
# Density = 1.859323 g / cm^3
# Si number density = 18.635644 Si / 1000 Ang^3
#
#
#
# Elastic Constant Matrix: (Units=GPa)
#
#
# Indices 1 2 3 4 5 6 
#
# 1 78.7165 56.4579 51.4928 0.0000 0.0000 0.0000
# 2 56.4579 100.3452 49.9228 0.0000 0.0000 0.0000
# 3 51.4928 49.9228 88.5041 0.0000 0.0000 0.0000
# 4 0.0000 0.0000 0.0000 -16.2631 0.0000 0.0000
# 5 0.0000 0.0000 0.0000 0.0000 27.4650 0.0000
# 6 0.0000 0.0000 0.0000 0.0000 0.0000 44.0869
#
#
#
# Elastic Compliance Matrix: (Units=1/GPa)
#
#
# Indices 1 2 3 4 5 6 
#
# 1 0.026077 -0.009903 -0.009586 0.000000 0.000000 0.000000
# 2 -0.009903 0.017614 -0.004174 0.000000 0.000000 0.000000
# 3 -0.009586 -0.004174 0.019231 0.000000 0.000000 0.000000
# 4 0.000000 0.000000 0.000000 -0.061489 0.000000 0.000000
# 5 0.000000 0.000000 0.000000 0.000000 0.036410 0.000000
# 6 0.000000 0.000000 0.000000 0.000000 0.000000 0.022682
#
#
# Mechanical properties :
#
#
# Convention : Reuss Voigt Hill
#
# Bulk Modulus (GPa) = 64.11912 64.81254 64.46583
# Shear Modulus (GPa) = 44.22820 18.37057 31.29938
#
# Velocity S-wave (km/s) = 4.87695 3.14311 4.10267
# Velocity P-wave (km/s) = 8.13599 6.93012 7.55714
#
# Compressibility (1/GPa) = 0.01559597
#
# Stress axis : x y z
#
# Youngs Moduli (GPa) = 38.34756 56.77343 52.00031
#
# Poissons Ratio (x) = 0.56222 0.49848
# Poissons Ratio (y) = 0.37975 0.21705
# Poissons Ratio (z) = 0.36761 0.23697
#
# Static dielectric constant tensor:
#      x y z
#    x 3.402790 0.000000 0.000000 
#    y 0.000000 3.303910 0.000000 
#    z 0.000000 0.000000 3.422300 
# 
# 
# High freq. dielectric constant tensor:
#      x y z
#    x 1.724170 0.000000 0.000000 
#    y 0.000000 1.729280 0.000000 
#    z 0.000000 0.000000 1.721120 
# 
# From -- ./inp_files/9232.got.cif
#   From: 2010.03.12/outbox.cif.g09.slc.cpg/sg65_5_cif.got.tgz:9232.got - 2010.04.10 20:52:16.
