data_PCOD8272584
_publ_section_title
;
Structure prediction by ZEFSAII (Michael W. Deem and Ramdas Pophale) SiO2 
 PCOD8272584
Probable space group: C M M M
;
_chemical_formula_sum "Si O2"
_cell_formula_units_Z 72
_cell_length_a 17.970108
_cell_length_b 7.794120
_cell_length_c 27.144582
_cell_angle_alpha 90.000000
_cell_angle_beta 90.000000
_cell_angle_gamma 90.000000
_cell_volume 3801.902136
_symmetry_space_group_name_H-M "C M M M"
_symmetry_group_IT_number 65
_symmetry_cell_setting 'orthorhombic'
loop_
_space_group_symop_operation_xyz
x,y,z
-x,-y,z
x,-y,-z
-x,y,-z
-x,-y,-z
x,y,-z
-x,y,z
x,-y,z
1/2+x,1/2+y,z
1/2-x,1/2-y,z
1/2+x,1/2-y,-z
1/2-x,1/2+y,-z
1/2-x,1/2-y,-z
1/2+x,1/2+y,-z
1/2-x,1/2+y,z
1/2+x,1/2-y,z
loop_
_atom_site_type_symbol
_atom_site_label
_atom_site_fract_x
_atom_site_fract_y
_atom_site_fract_z
Si Si1 0.411892 0.303448 0.946922
Si Si2 0.411823 0.500000 0.668705
Si Si3 0.164767 0.700377 0.500000
Si Si4 0.088298 0.687641 0.156302
Si Si5 0.587813 0.802898 0.401394
Si Si6 0.910977 0.000000 0.779124
O O1 0.500000 0.284696 0.947273
O O2 0.388538 0.500000 0.940996
O O3 0.379071 0.204766 0.899393
O O4 0.381478 0.232505 0.000000
O O5 0.500000 0.500000 0.670936
O O6 0.384996 0.674769 0.641769
O O7 0.378582 0.500000 0.723804
O O8 0.153021 0.500000 0.500000
O O9 0.250000 0.750000 0.500000
O O10 0.125581 0.771126 0.549094
O O11 0.110694 0.500000 0.176742
O O12 0.120535 0.832035 0.192824
O O13 0.000000 0.709658 0.153975
O O14 0.500000 0.792673 0.409210
O O15 0.611739 0.000000 0.388981
O O16 0.000000 0.000000 0.778376
#
# Coordination Sequence:
#
# PCOD8272584 Si02
#       6
#    16   8   8  16  16   8
#     4   8  12  18  27  37  52  77 109 148 198 254
#     4   9  18  29  46  64  80 113 148 181 219 257
#     4  10  21  33  50  76 102 126 149 183 224 266
#     4   9  15  21  30  42  59  85 114 154 208 257
#     4   9  18  33  50  69  94 123 155 185 218 265
#     4   9  16  26  34  48  70  88 122 167 209 253
#
# _framework density 18.937889999999999
#
# number of rings (size 3 to 8) (size 9 to 14) (size 15 to 20)
#    0.000    3.111    1.111    1.000    1.556    2.667 
#    0.000    8.333    0.000    0.000    0.000    0.000 
#    0.000    0.000    0.000    0.000    0.000    0.000 
#
# Total GULP energy -446021.133246 kJ/mol
# GULP energy per Si atom -12389.475924 kJ/mol
# Density = 1.889479 g / cm^3
# Si number density = 18.937890 Si / 1000 Ang^3
#
#
#
# Elastic Constant Matrix: (Units=GPa)
#
#
# Indices 1 2 3 4 5 6 
#
# 1 14.2153 10.6272 15.9754 0.0000 0.0000 0.0000
# 2 10.6272 126.8167 95.2402 0.0000 0.0000 0.0000
# 3 15.9754 95.2402 187.8078 0.0000 0.0000 0.0000
# 4 0.0000 0.0000 0.0000 19.5830 0.0000 0.0000
# 5 0.0000 0.0000 0.0000 0.0000 0.5403 0.0000
# 6 0.0000 0.0000 0.0000 0.0000 0.0000 8.9017
#
#
#
# Elastic Compliance Matrix: (Units=1/GPa)
#
#
# Indices 1 2 3 4 5 6 
#
# 1 0.078277 -0.002518 -0.005382 0.000000 0.000000 0.000000
# 2 -0.002518 0.012817 -0.006285 0.000000 0.000000 0.000000
# 3 -0.005382 -0.006285 0.008970 0.000000 0.000000 0.000000
# 4 0.000000 0.000000 0.000000 0.051065 0.000000 0.000000
# 5 0.000000 0.000000 0.000000 0.000000 1.850913 0.000000
# 6 0.000000 0.000000 0.000000 0.000000 0.000000 0.112338
#
#
# Mechanical properties :
#
#
# Convention : Reuss Voigt Hill
#
# Bulk Modulus (GPa) = 13.94820 63.61392 38.78106
# Shear Modulus (GPa) = 2.30771 19.60481 10.95626
#
# Velocity S-wave (km/s) = 1.10509 3.22097 2.40789
# Velocity P-wave (km/s) = 3.00158 6.89178 5.31536
#
# Compressibility (1/GPa) = 0.07169385
#
# Stress axis : x y z
#
# Youngs Moduli (GPa) = 12.77511 78.02280 111.48550
#
# Poissons Ratio (x) = 0.19646 0.59996
# Poissons Ratio (y) = 0.03217 0.70073
# Poissons Ratio (z) = 0.06875 0.49040
#
# Static dielectric constant tensor:
#      x y z
#    x 2.614110 0.000000 0.000000 
#    y 0.000000 3.625530 0.000000 
#    z 0.000000 0.000000 -8.193250 
# 
# 
# High freq. dielectric constant tensor:
#      x y z
#    x 1.641470 0.000000 0.000000 
#    y 0.000000 1.742990 0.000000 
#    z 0.000000 0.000000 1.746260 
# 
# From -- ./inp_files/74634.got.cif
#   From: 2010.03.12/outbox.cif.g09.slc.cpg/sg65_38_cif.got.tgz:74634.got - 2010.04.10 20:52:16.
