data_PCOD8272981
_publ_section_title
;
Structure prediction by ZEFSAII (Michael W. Deem and Ramdas Pophale) SiO2 
 PCOD8272981
Probable space group: C M M M
;
_chemical_formula_sum "Si O2"
_cell_formula_units_Z 96
_cell_length_a 19.646892
_cell_length_b 30.148436
_cell_length_c 8.956710
_cell_angle_alpha 90.000000
_cell_angle_beta 90.000000
_cell_angle_gamma 90.000000
_cell_volume 5305.265929
_symmetry_space_group_name_H-M "C M M M"
_symmetry_group_IT_number 65
_symmetry_cell_setting 'orthorhombic'
loop_
_space_group_symop_operation_xyz
x,y,z
-x,-y,z
x,-y,-z
-x,y,-z
-x,-y,-z
x,y,-z
-x,y,z
x,-y,z
1/2+x,1/2+y,z
1/2-x,1/2-y,z
1/2+x,1/2-y,-z
1/2-x,1/2+y,-z
1/2-x,1/2-y,-z
1/2+x,1/2+y,-z
1/2-x,1/2+y,z
1/2+x,1/2-y,z
loop_
_atom_site_type_symbol
_atom_site_label
_atom_site_fract_x
_atom_site_fract_y
_atom_site_fract_z
Si Si1 0.291753 0.706287 0.823708
Si Si2 0.573373 0.837604 0.676885
Si Si3 0.707692 0.448207 0.172779
Si Si4 0.922811 0.237098 0.674248
Si Si5 0.713372 0.125767 0.677149
Si Si6 0.425509 0.447364 0.332811
O O1 0.250000 0.750000 0.773450
O O2 0.369768 0.708288 0.769055
O O3 0.259596 0.663495 0.748024
O O4 0.289858 0.699989 0.000000
O O5 0.571007 0.836544 0.500000
O O6 0.500000 0.855472 0.737442
O O7 0.584615 0.787461 0.732469
O O8 0.635312 0.868139 0.732560
O O9 0.716583 0.500000 0.208770
O O10 0.764562 0.422527 0.266454
O O11 0.632933 0.430605 0.221199
O O12 0.717142 0.437597 0.000000
O O13 0.904283 0.233248 0.500000
O O14 0.000000 0.220094 0.702784
O O15 0.719552 0.128588 0.500000
O O16 0.409358 0.429999 0.500000
O O17 0.500000 0.429557 0.281068
O O18 0.427181 0.500000 0.333144
#
# Coordination Sequence:
#
# PCOD8272981 Si02
#       6
#    16  16  16  16  16  16
#     4  11  22  34  50  76 112 145 172 210 257 313
#     4   8  15  29  51  79 105 130 167 216 264 308
#     4  10  21  36  53  75 107 142 175 217 268 320
#     4   9  17  32  54  77 104 140 181 221 260 307
#     4  11  21  34  57  81 104 137 178 222 263 312
#     4   8  14  27  49  75 100 127 165 212 256 303
#
# _framework density 18.095229
#
# number of rings (size 3 to 8) (size 9 to 14) (size 15 to 20)
#    0.000    2.500    1.667    3.000    0.000    2.333 
#    0.000    2.500    0.000    7.500    0.000    3.500 
#    0.000    0.000    0.000    0.000    0.000    0.000 
#
# Total GULP energy -595004.355784 kJ/mol
# GULP energy per Si atom -12395.924079 kJ/mol
# Density = 1.805404 g / cm^3
# Si number density = 18.095229 Si / 1000 Ang^3
#
#
#
# Elastic Constant Matrix: (Units=GPa)
#
#
# Indices 1 2 3 4 5 6 
#
# 1 159.9868 53.5935 50.7145 0.0000 0.0000 0.0000
# 2 53.5935 60.0644 33.1422 0.0000 0.0000 0.0000
# 3 50.7145 33.1422 70.3166 0.0000 0.0000 0.0000
# 4 0.0000 0.0000 0.0000 24.8647 0.0000 0.0000
# 5 0.0000 0.0000 0.0000 0.0000 15.2004 0.0000
# 6 0.0000 0.0000 0.0000 0.0000 0.0000 23.8613
#
#
#
# Elastic Compliance Matrix: (Units=1/GPa)
#
#
# Indices 1 2 3 4 5 6 
#
# 1 0.009655 -0.006450 -0.003923 0.000000 0.000000 0.000000
# 2 -0.006450 0.026809 -0.007984 0.000000 0.000000 0.000000
# 3 -0.003923 -0.007984 0.020814 0.000000 0.000000 0.000000
# 4 0.000000 0.000000 0.000000 0.040218 0.000000 0.000000
# 5 0.000000 0.000000 0.000000 0.000000 0.065788 0.000000
# 6 0.000000 0.000000 0.000000 0.000000 0.000000 0.041909
#
#
# Mechanical properties :
#
#
# Convention : Reuss Voigt Hill
#
# Bulk Modulus (GPa) = 48.62969 62.80760 55.71865
# Shear Modulus (GPa) = 20.09955 22.97978 21.53966
#
# Velocity S-wave (km/s) = 3.33643 3.56748 3.45389
# Velocity P-wave (km/s) = 6.46336 7.19403 6.83846
#
# Compressibility (1/GPa) = 0.02056357
#
# Stress axis : x y z
#
# Youngs Moduli (GPa) = 103.57550 37.30056 48.04416
#
# Poissons Ratio (x) = 0.24058 0.18849
# Poissons Ratio (y) = 0.66805 0.38359
# Poissons Ratio (z) = 0.40636 0.29781
#
# Static dielectric constant tensor:
#      x y z
#    x 3.910390 0.000000 0.000000 
#    y 0.000000 3.077610 0.000000 
#    z 0.000000 0.000000 3.193920 
# 
# 
# High freq. dielectric constant tensor:
#      x y z
#    x 1.713500 0.000000 0.000000 
#    y 0.000000 1.666290 0.000000 
#    z 0.000000 0.000000 1.687450 
# 
# From -- ./inp_files/12318.got.cif
#   From: 2010.03.12/outbox.cif.g09.slc.cpg/sg65_7_cif.got.tgz:12318.got - 2010.04.10 20:52:16.
