data_PCOD8272668
_publ_section_title
;
Structure prediction by ZEFSAII (Michael W. Deem and Ramdas Pophale) SiO2 
 PCOD8272668
Probable space group: C M M M
;
_chemical_formula_sum "Si O2"
_cell_formula_units_Z 72
_cell_length_a 19.019501
_cell_length_b 9.638194
_cell_length_c 23.209591
_cell_angle_alpha 90.000000
_cell_angle_beta 90.000000
_cell_angle_gamma 90.000000
_cell_volume 4254.634619
_symmetry_space_group_name_H-M "C M M M"
_symmetry_group_IT_number 65
_symmetry_cell_setting 'orthorhombic'
loop_
_space_group_symop_operation_xyz
x,y,z
-x,-y,z
x,-y,-z
-x,y,-z
-x,-y,-z
x,y,-z
-x,y,z
x,-y,z
1/2+x,1/2+y,z
1/2-x,1/2-y,z
1/2+x,1/2-y,-z
1/2-x,1/2+y,-z
1/2-x,1/2-y,-z
1/2+x,1/2+y,-z
1/2-x,1/2+y,z
1/2+x,1/2-y,z
loop_
_atom_site_type_symbol
_atom_site_label
_atom_site_fract_x
_atom_site_fract_y
_atom_site_fract_z
Si Si1 0.681366 0.839727 0.435264
Si Si2 0.580963 0.338527 0.107042
Si Si3 0.916362 0.654209 0.212349
Si Si4 0.922454 0.335212 0.661812
Si Si5 0.178452 0.837193 0.000000
O O1 0.651093 0.822716 0.500000
O O2 0.750000 0.750000 0.426699
O O3 0.625292 0.779149 0.390027
O O4 0.699540 0.000000 0.422489
O O5 0.500000 0.298417 0.092105
O O6 0.586350 0.500000 0.121109
O O7 0.609892 0.257740 0.162867
O O8 0.631225 0.296321 0.054712
O O9 0.886976 0.500000 0.198781
O O10 0.890368 0.706567 0.275447
O O11 0.000000 0.649721 0.214545
O O12 0.927938 0.500000 0.659134
O O13 0.000000 0.269982 0.653609
O O14 0.250000 0.750000 0.000000
O O15 0.197199 0.000000 0.000000
#
# Coordination Sequence:
#
# PCOD8272668 Si02
#       5
#    16  16  16  16   8
#     4   9  17  29  45  64  87 117 151 185 221 262
#     4   9  17  31  51  71  90 115 149 184 217 259
#     4   8  14  26  45  68  92 116 143 179 222 263
#     4   8  14  26  45  68  91 114 144 184 225 261
#     4  10  21  35  49  67  93 122 148 180 224 264
#
# _framework density 16.922723000000001
#
# number of rings (size 3 to 8) (size 9 to 14) (size 15 to 20)
#    0.000    3.333    0.000    1.667    0.000    2.667 
#    0.000    4.444    0.000   10.667    0.000    3.111 
#    0.000    0.000    0.000    0.000    0.000    0.000 
#
# Total GULP energy -446169.227453 kJ/mol
# GULP energy per Si atom -12393.589651 kJ/mol
# Density = 1.688421 g / cm^3
# Si number density = 16.922723 Si / 1000 Ang^3
#
#
#
# Elastic Constant Matrix: (Units=GPa)
#
#
# Indices 1 2 3 4 5 6 
#
# 1 75.4630 36.6672 75.5784 0.0000 0.0000 0.0000
# 2 36.6672 46.9801 57.3308 0.0000 0.0000 0.0000
# 3 75.5784 57.3308 175.8920 0.0000 0.0000 0.0000
# 4 0.0000 0.0000 0.0000 24.1706 0.0000 0.0000
# 5 0.0000 0.0000 0.0000 0.0000 7.4260 0.0000
# 6 0.0000 0.0000 0.0000 0.0000 0.0000 20.0462
#
#
#
# Elastic Compliance Matrix: (Units=1/GPa)
#
#
# Indices 1 2 3 4 5 6 
#
# 1 0.026406 -0.011230 -0.007686 0.000000 0.000000 0.000000
# 2 -0.011230 0.040120 -0.008251 0.000000 0.000000 0.000000
# 3 -0.007686 -0.008251 0.011677 0.000000 0.000000 0.000000
# 4 0.000000 0.000000 0.000000 0.041373 0.000000 0.000000
# 5 0.000000 0.000000 0.000000 0.000000 0.134662 0.000000
# 6 0.000000 0.000000 0.000000 0.000000 0.000000 0.049885
#
#
# Mechanical properties :
#
#
# Convention : Reuss Voigt Hill
#
# Bulk Modulus (GPa) = 41.89663 70.83200 56.36432
# Shear Modulus (GPa) = 13.64581 18.91247 16.27914
#
# Velocity S-wave (km/s) = 2.84273 3.34665 3.10493
# Velocity P-wave (km/s) = 5.96541 7.54191 6.79951
#
# Compressibility (1/GPa) = 0.02386827
#
# Stress axis : x y z
#
# Youngs Moduli (GPa) = 37.87053 24.92533 85.63653
#
# Poissons Ratio (x) = 0.27991 0.65819
# Poissons Ratio (y) = 0.42529 0.70662
# Poissons Ratio (z) = 0.29107 0.20567
#
# Static dielectric constant tensor:
#      x y z
#    x 3.046380 0.000000 0.000000 
#    y 0.000000 2.996940 0.000000 
#    z 0.000000 0.000000 3.580440 
# 
# 
# High freq. dielectric constant tensor:
#      x y z
#    x 1.622750 0.000000 0.000000 
#    y 0.000000 1.626930 0.000000 
#    z 0.000000 0.000000 1.669650 
# 
# From -- ./inp_files/54090.got.cif
#   From: 2010.03.12/outbox.cif.g09.slc.cpg/sg65_28_cif.got.tgz:54090.got - 2010.04.10 20:52:16.
