data_PCOD8272169
_publ_section_title
;
Structure prediction by ZEFSAII (Michael W. Deem and Ramdas Pophale) SiO2 
 PCOD8272169
Probable space group: C M M M
;
_chemical_formula_sum "Si O2"
_cell_formula_units_Z 72
_cell_length_a 14.366394
_cell_length_b 30.053981
_cell_length_c 8.961809
_cell_angle_alpha 90.000000
_cell_angle_beta 90.000000
_cell_angle_gamma 90.000000
_cell_volume 3869.416365
_symmetry_space_group_name_H-M "C M M M"
_symmetry_group_IT_number 65
_symmetry_cell_setting 'orthorhombic'
loop_
_space_group_symop_operation_xyz
x,y,z
-x,-y,z
x,-y,-z
-x,y,-z
-x,-y,-z
x,y,-z
-x,y,z
x,-y,z
1/2+x,1/2+y,z
1/2-x,1/2-y,z
1/2+x,1/2-y,-z
1/2-x,1/2+y,-z
1/2-x,1/2-y,-z
1/2+x,1/2+y,-z
1/2-x,1/2+y,z
1/2+x,1/2-y,z
loop_
_atom_site_type_symbol
_atom_site_label
_atom_site_fract_x
_atom_site_fract_y
_atom_site_fract_z
Si Si1 0.302040 0.367639 0.325668
Si Si2 0.500000 0.663611 0.323961
Si Si3 0.186934 0.291837 0.824377
Si Si4 0.000000 0.447086 0.167221
Si Si5 0.316519 0.049862 0.327316
Si Si6 0.000000 0.735660 0.677687
O O1 0.292175 0.354667 0.500000
O O2 0.408307 0.362571 0.269081
O O3 0.237455 0.336336 0.227394
O O4 0.271939 0.418616 0.296649
O O5 0.500000 0.666265 0.500000
O O6 0.500000 0.713744 0.260154
O O7 0.250000 0.250000 0.778159
O O8 0.089772 0.289524 0.738836
O O9 0.168479 0.293329 0.000000
O O10 0.906743 0.429458 0.246135
O O11 0.000000 0.500000 0.174707
O O12 0.000000 0.428593 0.000000
O O13 0.342411 0.048550 0.500000
O O14 0.292027 0.000000 0.269620
O O15 0.000000 0.733823 0.500000
#
# Coordination Sequence:
#
# PCOD8272169 Si02
#       6
#    16   8  16   8  16   8
#     4  10  20  36  57  80 108 144 187 224 267 324
#     4   9  18  33  55  80 104 138 184 227 260 315
#     4  11  23  37  54  80 112 141 176 225 276 321
#     4   9  17  30  51  76 103 138 176 215 264 321
#     4   9  18  33  54  80 110 142 177 221 270 319
#     4  11  21  36  60  82 108 145 185 224 268 322
#
# _framework density 18.607458000000001
#
# number of rings (size 3 to 8) (size 9 to 14) (size 15 to 20)
#    0.000    2.111    2.222    1.333    0.000    4.000 
#    0.000    2.222    0.000    3.333    0.000    0.000 
#    0.000    5.333    0.000    0.000    0.000    0.000 
#
# Total GULP energy -446441.294693 kJ/mol
# GULP energy per Si atom -12401.147075 kJ/mol
# Density = 1.856511 g / cm^3
# Si number density = 18.607458 Si / 1000 Ang^3
#
#
#
# Elastic Constant Matrix: (Units=GPa)
#
#
# Indices 1 2 3 4 5 6 
#
# 1 166.4872 63.6223 44.8202 0.0000 0.0000 0.0000
# 2 63.6223 93.3422 29.8855 0.0000 0.0000 0.0000
# 3 44.8202 29.8855 61.6931 0.0000 0.0000 0.0000
# 4 0.0000 0.0000 0.0000 20.1150 0.0000 0.0000
# 5 0.0000 0.0000 0.0000 0.0000 13.0460 0.0000
# 6 0.0000 0.0000 0.0000 0.0000 0.0000 28.8887
#
#
#
# Elastic Compliance Matrix: (Units=1/GPa)
#
#
# Indices 1 2 3 4 5 6 
#
# 1 0.008956 -0.004760 -0.004201 0.000000 0.000000 0.000000
# 2 -0.004760 0.015209 -0.003910 0.000000 0.000000 0.000000
# 3 -0.004201 -0.003910 0.021155 0.000000 0.000000 0.000000
# 4 0.000000 0.000000 0.000000 0.049714 0.000000 0.000000
# 5 0.000000 0.000000 0.000000 0.000000 0.076652 0.000000
# 6 0.000000 0.000000 0.000000 0.000000 0.000000 0.034616
#
#
# Mechanical properties :
#
#
# Convention : Reuss Voigt Hill
#
# Bulk Modulus (GPa) = 51.07291 66.46426 58.76859
# Shear Modulus (GPa) = 20.95818 24.62290 22.79054
#
# Velocity S-wave (km/s) = 3.35973 3.64164 3.50352
# Velocity P-wave (km/s) = 6.52361 7.31292 6.92951
#
# Compressibility (1/GPa) = 0.01957985
#
# Stress axis : x y z
#
# Youngs Moduli (GPa) = 111.65329 65.74960 47.26918
#
# Poissons Ratio (x) = 0.31294 0.19858
# Poissons Ratio (y) = 0.53142 0.18482
# Poissons Ratio (z) = 0.46907 0.25707
#
# Static dielectric constant tensor:
#      x y z
#    x 3.644860 0.000000 0.000000 
#    y 0.000000 3.413220 0.000000 
#    z 0.000000 0.000000 3.314670 
# 
# 
# High freq. dielectric constant tensor:
#      x y z
#    x 1.726980 0.000000 0.000000 
#    y 0.000000 1.711280 0.000000 
#    z 0.000000 0.000000 1.711240 
# 
# From -- ./inp_files/7412.got.cif
#   From: 2010.03.12/outbox.cif.g09.slc.cpg/sg65_4_cif.got.tgz:7412.got - 2010.04.10 20:52:16.
