data_PCOD8272791
_publ_section_title
;
Structure prediction by ZEFSAII (Michael W. Deem and Ramdas Pophale) SiO2 
 PCOD8272791
Probable space group: C M M M
;
_chemical_formula_sum "Si O2"
_cell_formula_units_Z 80
_cell_length_a 19.227738
_cell_length_b 9.217050
_cell_length_c 24.482690
_cell_angle_alpha 90.000000
_cell_angle_beta 90.000000
_cell_angle_gamma 90.000000
_cell_volume 4338.896322
_symmetry_space_group_name_H-M "C M M M"
_symmetry_group_IT_number 65
_symmetry_cell_setting 'orthorhombic'
loop_
_space_group_symop_operation_xyz
x,y,z
-x,-y,z
x,-y,-z
-x,y,-z
-x,-y,-z
x,y,-z
-x,y,z
x,-y,z
1/2+x,1/2+y,z
1/2-x,1/2-y,z
1/2+x,1/2-y,-z
1/2-x,1/2+y,-z
1/2-x,1/2-y,-z
1/2+x,1/2+y,-z
1/2-x,1/2+y,z
1/2+x,1/2-y,z
loop_
_atom_site_type_symbol
_atom_site_label
_atom_site_fract_x
_atom_site_fract_y
_atom_site_fract_z
Si Si1 0.318685 0.332194 0.362678
Si Si2 0.581567 0.164522 0.438195
Si Si3 0.580479 0.831096 0.157335
Si Si4 0.179984 0.169379 0.235742
Si Si5 0.818373 0.668510 0.061643
O O1 0.307328 0.500000 0.374884
O O2 0.250000 0.250000 0.382505
O O3 0.383486 0.275808 0.396973
O O4 0.333872 0.302371 0.299332
O O5 0.606157 0.196843 0.500000
O O6 0.500000 0.188692 0.433163
O O7 0.601354 0.000000 0.422060
O O8 0.500000 0.788851 0.152165
O O9 0.613973 0.735238 0.204880
O O10 0.616381 0.792556 0.099688
O O11 0.590189 0.000000 0.172066
O O12 0.250000 0.250000 0.216198
O O13 0.188019 0.000000 0.222130
O O14 0.800612 0.500000 0.063939
O O15 0.750000 0.750000 0.083452
O O16 0.837139 0.717924 0.000000
#
# Coordination Sequence:
#
# PCOD8272791 Si02
#       5
#    16  16  16  16  16
#     4  10  21  36  55  79 105 135 173 216 261 308
#     4   9  19  36  56  78 106 140 175 211 255 307
#     4  10  21  35  52  77 107 139 175 213 257 309
#     4  10  21  37  56  77 103 136 174 216 261 309
#     4   9  18  33  53  76 102 134 173 215 257 304
#
# _framework density 18.43787
#
# number of rings (size 3 to 8) (size 9 to 14) (size 15 to 20)
#    0.000    2.400    0.000    2.400    0.000    7.600 
#    0.000    7.000    0.000    0.000    0.000    4.200 
#    0.000    0.000    0.000    0.000    0.000    0.000 
#
# Total GULP energy -496140.915321 kJ/mol
# GULP energy per Si atom -12403.522883 kJ/mol
# Density = 1.839590 g / cm^3
# Si number density = 18.437870 Si / 1000 Ang^3
#
#
#
# Elastic Constant Matrix: (Units=GPa)
#
#
# Indices 1 2 3 4 5 6 
#
# 1 128.5873 66.0588 66.3088 0.0000 0.0000 0.0000
# 2 66.0588 95.9395 60.0979 0.0000 0.0000 0.0000
# 3 66.3088 60.0979 85.5975 0.0000 0.0000 0.0000
# 4 0.0000 0.0000 0.0000 30.4910 0.0000 0.0000
# 5 0.0000 0.0000 0.0000 0.0000 31.5326 0.0000
# 6 0.0000 0.0000 0.0000 0.0000 0.0000 35.7644
#
#
#
# Elastic Compliance Matrix: (Units=1/GPa)
#
#
# Indices 1 2 3 4 5 6 
#
# 1 0.014257 -0.005174 -0.007412 0.000000 0.000000 0.000000
# 2 -0.005174 0.020484 -0.010374 0.000000 0.000000 0.000000
# 3 -0.007412 -0.010374 0.024708 0.000000 0.000000 0.000000
# 4 0.000000 0.000000 0.000000 0.032797 0.000000 0.000000
# 5 0.000000 0.000000 0.000000 0.000000 0.031713 0.000000
# 6 0.000000 0.000000 0.000000 0.000000 0.000000 0.027961
#
#
# Mechanical properties :
#
#
# Convention : Reuss Voigt Hill
#
# Bulk Modulus (GPa) = 73.91111 77.22835 75.56973
# Shear Modulus (GPa) = 24.71005 27.40152 26.05578
#
# Velocity S-wave (km/s) = 3.66482 3.85925 3.76329
# Velocity P-wave (km/s) = 7.62112 7.86353 7.74327
#
# Compressibility (1/GPa) = 0.01352977
#
# Stress axis : x y z
#
# Youngs Moduli (GPa) = 70.14298 48.81892 40.47335
#
# Poissons Ratio (x) = 0.25257 0.29997
# Poissons Ratio (y) = 0.36289 0.41987
# Poissons Ratio (z) = 0.51987 0.50644
#
# Static dielectric constant tensor:
#      x y z
#    x 3.321240 0.000000 0.000000 
#    y 0.000000 3.406750 0.000000 
#    z 0.000000 0.000000 3.465450 
# 
# 
# High freq. dielectric constant tensor:
#      x y z
#    x 1.711010 0.000000 0.000000 
#    y 0.000000 1.716880 0.000000 
#    z 0.000000 0.000000 1.720690 
# 
# From -- ./inp_files/72753.got.cif
#   From: 2010.03.12/outbox.cif.g09.slc.cpg/sg65_37_cif.got.tgz:72753.got - 2010.04.10 20:52:16.
