data_PCOD8272739
_publ_section_title
;
Structure prediction by ZEFSAII (Michael W. Deem and Ramdas Pophale) SiO2 
 PCOD8272739
Probable space group: C M M M
;
_chemical_formula_sum "Si O2"
_cell_formula_units_Z 104
_cell_length_a 18.621628
_cell_length_b 10.127602
_cell_length_c 30.421776
_cell_angle_alpha 90.000000
_cell_angle_beta 90.000000
_cell_angle_gamma 90.000000
_cell_volume 5737.316873
_symmetry_space_group_name_H-M "C M M M"
_symmetry_group_IT_number 65
_symmetry_cell_setting 'orthorhombic'
loop_
_space_group_symop_operation_xyz
x,y,z
-x,-y,z
x,-y,-z
-x,y,-z
-x,-y,-z
x,y,-z
-x,y,z
x,-y,z
1/2+x,1/2+y,z
1/2-x,1/2-y,z
1/2+x,1/2-y,-z
1/2-x,1/2+y,-z
1/2-x,1/2-y,-z
1/2+x,1/2+y,-z
1/2-x,1/2+y,z
1/2+x,1/2-y,z
loop_
_atom_site_type_symbol
_atom_site_label
_atom_site_fract_x
_atom_site_fract_y
_atom_site_fract_z
Si Si1 0.685007 0.652264 0.550152
Si Si2 0.421074 0.655408 0.625479
Si Si3 0.684550 0.347700 0.701027
Si Si4 0.665591 0.743008 0.051054
Si Si5 0.683887 0.346410 0.800967
Si Si6 0.580289 0.000000 0.051748
Si Si7 0.921731 0.147581 0.873704
O O1 0.658974 0.667956 0.500000
O O2 0.708032 0.500000 0.559725
O O3 0.750000 0.750000 0.560675
O O4 0.620279 0.698406 0.581350
O O5 0.500000 0.722308 0.625499
O O6 0.429967 0.500000 0.625953
O O7 0.378961 0.700021 0.669146
O O8 0.707612 0.500000 0.691329
O O9 0.750000 0.250000 0.691729
O O10 0.656748 0.333713 0.750930
O O11 0.750000 0.750000 0.060908
O O12 0.627208 0.876608 0.066857
O O13 0.626148 0.637804 0.081768
O O14 0.652044 0.708303 0.000000
O O15 0.704180 0.500000 0.811579
O O16 0.750000 0.250000 0.809519
O O17 0.622195 0.289054 0.833224
O O18 0.500000 0.000000 0.072676
O O19 0.572581 0.000000 0.000000
O O20 0.000000 0.218153 0.880840
O O21 0.937624 0.000000 0.859223
#
# Coordination Sequence:
#
# PCOD8272739 Si02
#       7
#    16  16  16  16  16   8  16
#     4   9  17  29  46  67  92 125 163 204 248 291
#     4   9  17  28  44  70  99 125 160 203 243 289
#     4   9  17  30  51  74  95 124 160 200 243 287
#     4  10  21  35  54  76 100 129 164 203 241 285
#     4   9  18  34  54  75  99 127 161 200 243 289
#     4   9  18  34  54  74  99 131 165 201 242 290
#     4  10  21  35  51  73 101 129 157 193 239 291
#
# _framework density 18.126940000000001
#
# number of rings (size 3 to 8) (size 9 to 14) (size 15 to 20)
#    0.000    2.692    0.000    1.385    1.077    2.154 
#    1.385    5.385    0.000    1.846    0.000    6.462 
#    0.000    0.000    0.000    0.000    0.000    0.000 
#
# Total GULP energy -644400.644118 kJ/mol
# GULP energy per Si atom -12392.320079 kJ/mol
# Density = 1.808568 g / cm^3
# Si number density = 18.126940 Si / 1000 Ang^3
#
#
#
# Elastic Constant Matrix: (Units=GPa)
#
#
# Indices 1 2 3 4 5 6 
#
# 1 167.8734 41.2311 93.3691 0.0000 0.0000 0.0000
# 2 41.2311 51.9048 26.4779 0.0000 0.0000 0.0000
# 3 93.3691 26.4779 125.8014 0.0000 0.0000 0.0000
# 4 0.0000 0.0000 0.0000 19.3167 0.0000 0.0000
# 5 0.0000 0.0000 0.0000 0.0000 28.4484 0.0000
# 6 0.0000 0.0000 0.0000 0.0000 0.0000 19.5689
#
#
#
# Elastic Compliance Matrix: (Units=1/GPa)
#
#
# Indices 1 2 3 4 5 6 
#
# 1 0.011296 -0.005261 -0.007277 0.000000 0.000000 0.000000
# 2 -0.005261 0.024034 -0.001154 0.000000 0.000000 0.000000
# 3 -0.007277 -0.001154 0.013593 0.000000 0.000000 0.000000
# 4 0.000000 0.000000 0.000000 0.051769 0.000000 0.000000
# 5 0.000000 0.000000 0.000000 0.000000 0.035151 0.000000
# 6 0.000000 0.000000 0.000000 0.000000 0.000000 0.051101
#
#
# Mechanical properties :
#
#
# Convention : Reuss Voigt Hill
#
# Bulk Modulus (GPa) = 46.42615 74.19288 60.30952
# Shear Modulus (GPa) = 22.57262 25.76689 24.16975
#
# Velocity S-wave (km/s) = 3.53264 3.77433 3.65548
# Velocity P-wave (km/s) = 6.50436 7.74678 7.15260
#
# Compressibility (1/GPa) = 0.02153958
#
# Stress axis : x y z
#
# Youngs Moduli (GPa) = 88.52462 41.60786 73.56968
#
# Poissons Ratio (x) = 0.21891 0.53534
# Poissons Ratio (y) = 0.46576 0.08487
# Poissons Ratio (z) = 0.64417 0.04800
#
# Static dielectric constant tensor:
#      x y z
#    x 3.619990 0.000000 0.000000 
#    y 0.000000 3.248550 0.000000 
#    z 0.000000 0.000000 3.425900 
# 
# 
# High freq. dielectric constant tensor:
#      x y z
#    x 1.700840 0.000000 0.000000 
#    y 0.000000 1.676720 0.000000 
#    z 0.000000 0.000000 1.709250 
# 
# From -- ./inp_files/75202.got.cif
#   From: 2010.03.12/outbox.cif.g09.slc.cpg/sg65_38_cif.got.tgz:75202.got - 2010.04.10 20:52:16.
