data_PCOD8272086
_publ_section_title
;
Structure prediction by ZEFSAII (Michael W. Deem and Ramdas Pophale) SiO2 
 PCOD8272086
Probable space group: C M M M
;
_chemical_formula_sum "Si O2"
_cell_formula_units_Z 88
_cell_length_a 14.043171
_cell_length_b 14.067042
_cell_length_c 23.361294
_cell_angle_alpha 90.000000
_cell_angle_beta 90.000000
_cell_angle_gamma 90.000000
_cell_volume 4614.927294
_symmetry_space_group_name_H-M "C M M M"
_symmetry_group_IT_number 65
_symmetry_cell_setting 'orthorhombic'
loop_
_space_group_symop_operation_xyz
x,y,z
-x,-y,z
x,-y,-z
-x,y,-z
-x,-y,-z
x,y,-z
-x,y,z
x,-y,z
1/2+x,1/2+y,z
1/2-x,1/2-y,z
1/2+x,1/2-y,-z
1/2-x,1/2+y,-z
1/2-x,1/2-y,-z
1/2+x,1/2+y,-z
1/2-x,1/2+y,z
1/2+x,1/2-y,z
loop_
_atom_site_type_symbol
_atom_site_label
_atom_site_fract_x
_atom_site_fract_y
_atom_site_fract_z
Si Si1 0.780052 0.886920 0.326877
Si Si2 0.394188 0.612269 0.436922
Si Si3 0.602906 0.500000 0.933018
Si Si4 0.739411 0.139470 0.064095
Si Si5 0.386839 0.779853 0.722560
Si Si6 0.892037 0.394801 0.168124
O O1 0.815951 0.857826 0.390255
O O2 0.671641 0.848678 0.321206
O O3 0.849460 0.828882 0.283062
O O4 0.787459 0.000000 0.314706
O O5 0.364765 0.651232 0.500000
O O6 0.500000 0.651417 0.420285
O O7 0.400037 0.500000 0.439198
O O8 0.500000 0.500000 0.901525
O O9 0.661180 0.593790 0.914942
O O10 0.585103 0.500000 0.000000
O O11 0.750000 0.250000 0.064186
O O12 0.659301 0.109139 0.107734
O O13 0.713356 0.102771 0.000000
O O14 0.500000 0.788367 0.710582
O O15 0.358689 0.816245 0.786025
O O16 0.877338 0.500000 0.195361
O O17 0.000000 0.375371 0.152343
#
# Coordination Sequence:
#
# PCOD8272086 Si02
#       6
#    16  16   8  16  16  16
#     4  10  20  35  60  86 109 149 196 237 273 330
#     4   8  14  27  51  84 118 148 182 230 286 335
#     4   9  18  36  59  83 115 149 176 210 272 347
#     4  10  21  36  59  87 113 144 182 229 282 340
#     4  10  22  38  55  81 116 152 189 234 290 337
#     4  10  21  38  60  82 108 145 188 235 285 339
#
# _framework density 19.068556000000001
#
# number of rings (size 3 to 8) (size 9 to 14) (size 15 to 20)
#    0.000    2.455    0.909    1.636    2.545    3.273 
#    0.000    4.545    0.000    1.636    0.000    2.545 
#    0.000    0.000    0.000    0.000    0.000    0.000 
#
# Total GULP energy -545171.125867 kJ/mol
# GULP energy per Si atom -12390.252861 kJ/mol
# Density = 1.902516 g / cm^3
# Si number density = 19.068556 Si / 1000 Ang^3
#
#
#
# Elastic Constant Matrix: (Units=GPa)
#
#
# Indices 1 2 3 4 5 6 
#
# 1 132.2199 53.7297 68.3422 0.0000 0.0000 0.0000
# 2 53.7297 120.0565 40.3096 0.0000 0.0000 0.0000
# 3 68.3422 40.3096 102.0143 0.0000 0.0000 0.0000
# 4 0.0000 0.0000 0.0000 25.7791 0.0000 0.0000
# 5 0.0000 0.0000 0.0000 0.0000 30.4998 0.0000
# 6 0.0000 0.0000 0.0000 0.0000 0.0000 22.9582
#
#
#
# Elastic Compliance Matrix: (Units=1/GPa)
#
#
# Indices 1 2 3 4 5 6 
#
# 1 0.012567 -0.003225 -0.007144 0.000000 0.000000 0.000000
# 2 -0.003225 0.010431 -0.001961 0.000000 0.000000 0.000000
# 3 -0.007144 -0.001961 0.015364 0.000000 0.000000 0.000000
# 4 0.000000 0.000000 0.000000 0.038791 0.000000 0.000000
# 5 0.000000 0.000000 0.000000 0.000000 0.032787 0.000000
# 6 0.000000 0.000000 0.000000 0.000000 0.000000 0.043557
#
#
# Mechanical properties :
#
#
# Convention : Reuss Voigt Hill
#
# Bulk Modulus (GPa) = 72.99172 75.45043 74.22108
# Shear Modulus (GPa) = 27.36353 28.64137 28.00245
#
# Velocity S-wave (km/s) = 3.79226 3.87980 3.83628
# Velocity P-wave (km/s) = 7.58529 7.72815 7.65705
#
# Compressibility (1/GPa) = 0.01370018
#
# Stress axis : x y z
#
# Youngs Moduli (GPa) = 79.57641 95.86553 65.08903
#
# Poissons Ratio (x) = 0.30919 0.46501
# Poissons Ratio (y) = 0.25666 0.12765
# Poissons Ratio (z) = 0.56851 0.18800
#
# Static dielectric constant tensor:
#      x y z
#    x 3.640630 0.000000 0.000000 
#    y 0.000000 3.516700 0.000000 
#    z 0.000000 0.000000 3.760320 
# 
# 
# High freq. dielectric constant tensor:
#      x y z
#    x 1.740430 0.000000 0.000000 
#    y 0.000000 1.737440 0.000000 
#    z 0.000000 0.000000 1.730400 
# 
# From -- ./inp_files/74246.got.cif
#   From: 2010.03.12/outbox.cif.g09.slc.cpg/sg65_38_cif.got.tgz:74246.got - 2010.04.10 20:52:16.
