data_PCOD8272076
_publ_section_title
;
Structure prediction by ZEFSAII (Michael W. Deem and Ramdas Pophale) SiO2 
 PCOD8272076
Probable space group: C M M M
;
_chemical_formula_sum "Si O2"
_cell_formula_units_Z 96
_cell_length_a 14.270172
_cell_length_b 22.318939
_cell_length_c 15.170397
_cell_angle_alpha 90.000000
_cell_angle_beta 90.000000
_cell_angle_gamma 90.000000
_cell_volume 4831.697085
_symmetry_space_group_name_H-M "C M M M"
_symmetry_group_IT_number 65
_symmetry_cell_setting 'orthorhombic'
loop_
_space_group_symop_operation_xyz
x,y,z
-x,-y,z
x,-y,-z
-x,y,-z
-x,-y,-z
x,y,-z
-x,y,z
x,-y,z
1/2+x,1/2+y,z
1/2-x,1/2-y,z
1/2+x,1/2-y,-z
1/2-x,1/2+y,-z
1/2-x,1/2-y,-z
1/2+x,1/2+y,-z
1/2-x,1/2+y,z
1/2+x,1/2-y,z
loop_
_atom_site_type_symbol
_atom_site_label
_atom_site_fract_x
_atom_site_fract_y
_atom_site_fract_z
Si Si1 0.855724 0.770396 0.599295
Si Si2 0.897913 0.355073 0.656857
Si Si3 0.792110 0.619652 0.829667
Si Si4 0.610490 0.000000 0.104557
Si Si5 0.387933 0.932844 0.500000
Si Si6 0.393380 0.333311 0.775397
Si Si7 0.605773 0.224718 0.902721
O O1 0.876922 0.794514 0.500000
O O2 0.750000 0.750000 0.609600
O O3 0.915594 0.710968 0.617726
O O4 0.880737 0.821824 0.670575
O O5 0.832081 0.353599 0.739972
O O6 0.849076 0.398652 0.585525
O O7 0.000000 0.380702 0.683393
O O8 0.835537 0.556085 0.854102
O O9 0.679168 0.616977 0.814361
O O10 0.822825 0.668658 0.901917
O O11 0.500000 0.000000 0.130171
O O12 0.622739 0.000000 0.000000
O O13 0.500000 0.930401 0.500000
O O14 0.348570 0.000000 0.500000
O O15 0.500000 0.354813 0.794292
O O16 0.369543 0.272360 0.827587
O O17 0.500000 0.200465 0.887133
O O18 0.614389 0.254273 0.000000
#
# Coordination Sequence:
#
# PCOD8272076 Si02
#       7
#    16  16  16   8   8  16  16
#     4  11  20  34  56  86 123 165 209 253 309 372
#     4  11  20  32  53  81 115 154 191 242 304 363
#     4  12  23  39  59  86 119 157 199 247 302 362
#     4  11  26  46  69  96 122 153 197 248 309 380
#     4   9  20  34  49  76 113 153 198 238 291 357
#     4  11  23  39  58  86 122 162 208 253 305 365
#     4  10  20  35  59  89 121 155 190 237 302 368
#
# _framework density 19.868794999999999
#
# number of rings (size 3 to 8) (size 9 to 14) (size 15 to 20)
#    0.000    1.167    4.167    3.000    1.167    4.333 
#    0.000    0.417    0.000    0.500    0.000    0.000 
#    0.000    2.000    0.000    0.000    0.000    0.000 
#
# Total GULP energy -595004.256469 kJ/mol
# GULP energy per Si atom -12395.922010 kJ/mol
# Density = 1.982357 g / cm^3
# Si number density = 19.868795 Si / 1000 Ang^3
#
#
#
# Elastic Constant Matrix: (Units=GPa)
#
#
# Indices 1 2 3 4 5 6 
#
# 1 131.7675 41.6249 31.3977 0.0000 0.0000 0.0000
# 2 41.6249 72.2362 28.0766 0.0000 0.0000 0.0000
# 3 31.3977 28.0766 108.3513 0.0000 0.0000 0.0000
# 4 0.0000 0.0000 0.0000 20.1119 0.0000 0.0000
# 5 0.0000 0.0000 0.0000 0.0000 21.0743 0.0000
# 6 0.0000 0.0000 0.0000 0.0000 0.0000 26.9729
#
#
#
# Elastic Compliance Matrix: (Units=1/GPa)
#
#
# Indices 1 2 3 4 5 6 
#
# 1 0.009487 -0.004891 -0.001482 0.000000 0.000000 0.000000
# 2 -0.004891 0.017915 -0.003225 0.000000 0.000000 0.000000
# 3 -0.001482 -0.003225 0.010494 0.000000 0.000000 0.000000
# 4 0.000000 0.000000 0.000000 0.049722 0.000000 0.000000
# 5 0.000000 0.000000 0.000000 0.000000 0.047451 0.000000
# 6 0.000000 0.000000 0.000000 0.000000 0.000000 0.037074
#
#
# Mechanical properties :
#
#
# Convention : Reuss Voigt Hill
#
# Bulk Modulus (GPa) = 53.47219 57.17259 55.32239
# Shear Modulus (GPa) = 25.30706 27.71555 26.51131
#
# Velocity S-wave (km/s) = 3.57278 3.73893 3.65680
# Velocity P-wave (km/s) = 6.63255 6.89035 6.76268
#
# Compressibility (1/GPa) = 0.01870131
#
# Stress axis : x y z
#
# Youngs Moduli (GPa) = 105.40477 55.81829 95.28961
#
# Poissons Ratio (x) = 0.27300 0.14120
# Poissons Ratio (y) = 0.51553 0.30731
# Poissons Ratio (z) = 0.15619 0.18002
#
# Static dielectric constant tensor:
#      x y z
#    x 3.794670 0.000000 0.000000 
#    y 0.000000 3.266340 0.000000 
#    z 0.000000 0.000000 3.825990 
# 
# 
# High freq. dielectric constant tensor:
#      x y z
#    x 1.773900 0.000000 0.000000 
#    y 0.000000 1.722110 0.000000 
#    z 0.000000 0.000000 1.793300 
# 
# From -- ./inp_files/40442.got.cif
#   From: 2010.03.12/outbox.cif.g09.slc.cpg/sg65_21_cif.got.tgz:40442.got - 2010.04.10 20:52:16.
