data_PCOD8272358
_publ_section_title
;
Structure prediction by ZEFSAII (Michael W. Deem and Ramdas Pophale) SiO2 
 PCOD8272358
Probable space group: C M M M
;
_chemical_formula_sum "Si O2"
_cell_formula_units_Z 72
_cell_length_a 24.620166
_cell_length_b 10.355280
_cell_length_c 15.617114
_cell_angle_alpha 90.000000
_cell_angle_beta 90.000000
_cell_angle_gamma 90.000000
_cell_volume 3981.563108
_symmetry_space_group_name_H-M "C M M M"
_symmetry_group_IT_number 65
_symmetry_cell_setting 'orthorhombic'
loop_
_space_group_symop_operation_xyz
x,y,z
-x,-y,z
x,-y,-z
-x,y,-z
-x,-y,-z
x,y,-z
-x,y,z
x,-y,z
1/2+x,1/2+y,z
1/2-x,1/2-y,z
1/2+x,1/2-y,-z
1/2-x,1/2+y,-z
1/2-x,1/2-y,-z
1/2+x,1/2+y,-z
1/2-x,1/2+y,z
1/2+x,1/2-y,z
loop_
_atom_site_type_symbol
_atom_site_label
_atom_site_fract_x
_atom_site_fract_y
_atom_site_fract_z
Si Si1 0.938597 0.152797 0.500000
Si Si2 0.500000 0.653478 0.093233
Si Si3 0.696870 0.345426 0.000000
Si Si4 0.884515 0.847910 0.843502
Si Si5 0.298362 0.500000 0.406430
Si Si6 0.828149 0.500000 0.406013
Si Si7 0.636556 0.269597 0.344613
O O1 0.911546 0.201881 0.411744
O O2 0.000000 0.206044 0.500000
O O3 0.938079 0.000000 0.500000
O O4 0.500000 0.500000 0.090454
O O5 0.444566 0.703166 0.134845
O O6 0.500000 0.713996 0.000000
O O7 0.750000 0.250000 0.000000
O O8 0.660358 0.312713 0.916037
O O9 0.712755 0.500000 0.000000
O O10 0.876637 0.776783 0.754568
O O11 0.883940 0.000000 0.828725
O O12 0.327178 0.500000 0.500000
O O13 0.235298 0.500000 0.418080
O O14 0.314781 0.629908 0.358300
O O15 0.855768 0.500000 0.500000
O O16 0.844773 0.375627 0.354143
#
# Coordination Sequence:
#
# PCOD8272358 Si02
#       7
#     8   8   8  16   8   8  16
#     4  11  22  37  60  88 117 154 199 253 302 346
#     4   9  16  32  62  90 115 142 188 251 303 336
#     4  10  22  41  61  89 123 158 195 240 298 360
#     4  10  20  36  61  90 117 152 198 246 294 355
#     4  11  20  38  60  83 114 157 197 246 292 341
#     4  11  24  38  60  83 118 161 205 240 290 351
#     4  12  21  40  58  88 121 154 198 244 296 352
#
# _framework density 18.083351
#
# number of rings (size 3 to 8) (size 9 to 14) (size 15 to 20)
#    0.000    1.333    5.556    0.667    1.556    3.556 
#    2.000    1.111    0.000    0.000    0.000    1.556 
#    0.000    0.000    0.000    0.000    0.000    0.000 
#
# Total GULP energy -446092.933086 kJ/mol
# GULP energy per Si atom -12391.470364 kJ/mol
# Density = 1.804219 g / cm^3
# Si number density = 18.083351 Si / 1000 Ang^3
#
#
#
# Elastic Constant Matrix: (Units=GPa)
#
#
# Indices 1 2 3 4 5 6 
#
# 1 120.6775 51.7598 69.5209 0.0000 0.0000 0.0000
# 2 51.7598 113.6090 56.3808 0.0000 0.0000 0.0000
# 3 69.5209 56.3808 179.1802 0.0000 0.0000 0.0000
# 4 0.0000 0.0000 0.0000 25.7747 0.0000 0.0000
# 5 0.0000 0.0000 0.0000 0.0000 55.6879 0.0000
# 6 0.0000 0.0000 0.0000 0.0000 0.0000 75.4416
#
#
#
# Elastic Compliance Matrix: (Units=1/GPa)
#
#
# Indices 1 2 3 4 5 6 
#
# 1 0.011850 -0.003694 -0.003435 0.000000 0.000000 0.000000
# 2 -0.003694 0.011582 -0.002211 0.000000 0.000000 0.000000
# 3 -0.003435 -0.002211 0.007610 0.000000 0.000000 0.000000
# 4 0.000000 0.000000 0.000000 0.038798 0.000000 0.000000
# 5 0.000000 0.000000 0.000000 0.000000 0.017957 0.000000
# 6 0.000000 0.000000 0.000000 0.000000 0.000000 0.013255
#
#
# Mechanical properties :
#
#
# Convention : Reuss Voigt Hill
#
# Bulk Modulus (GPa) = 80.90035 85.42108 83.16071
# Shear Modulus (GPa) = 40.37014 47.10119 43.73566
#
# Velocity S-wave (km/s) = 4.73000 5.10914 4.92322
# Velocity P-wave (km/s) = 8.64090 9.06335 8.85465
#
# Compressibility (1/GPa) = 0.01236089
#
# Stress axis : x y z
#
# Youngs Moduli (GPa) = 84.38817 86.33741 131.41116
#
# Poissons Ratio (x) = 0.31892 0.45145
# Poissons Ratio (y) = 0.31172 0.29059
# Poissons Ratio (z) = 0.28991 0.19092
#
# Static dielectric constant tensor:
#      x y z
#    x 6.611000 0.000000 0.000000 
#    y 0.000000 3.118650 0.000000 
#    z 0.000000 0.000000 3.501450 
# 
# 
# High freq. dielectric constant tensor:
#      x y z
#    x 1.706790 0.000000 0.000000 
#    y 0.000000 1.675300 0.000000 
#    z 0.000000 0.000000 1.713880 
# 
# From -- ./inp_files/36735.got.cif
#   From: 2010.03.12/outbox.cif.g09.slc.cpg/sg65_19_cif.got.tgz:36735.got - 2010.04.10 20:52:16.
