data_PCOD8272511
_publ_section_title
;
Structure prediction by ZEFSAII (Michael W. Deem and Ramdas Pophale) SiO2 
 PCOD8272511
Probable space group: C M M M
;
_chemical_formula_sum "Si O2"
_cell_formula_units_Z 64
_cell_length_a 23.400527
_cell_length_b 13.453855
_cell_length_c 10.304821
_cell_angle_alpha 90.000000
_cell_angle_beta 90.000000
_cell_angle_gamma 90.000000
_cell_volume 3244.238943
_symmetry_space_group_name_H-M "C M M M"
_symmetry_group_IT_number 65
_symmetry_cell_setting 'orthorhombic'
loop_
_space_group_symop_operation_xyz
x,y,z
-x,-y,z
x,-y,-z
-x,y,-z
-x,-y,-z
x,y,-z
-x,y,z
x,-y,z
1/2+x,1/2+y,z
1/2-x,1/2-y,z
1/2+x,1/2-y,-z
1/2-x,1/2+y,-z
1/2-x,1/2-y,-z
1/2+x,1/2+y,-z
1/2-x,1/2+y,z
1/2+x,1/2-y,z
loop_
_atom_site_type_symbol
_atom_site_label
_atom_site_fract_x
_atom_site_fract_y
_atom_site_fract_z
Si Si1 0.432542 0.889368 0.000000
Si Si2 0.250000 0.250000 0.298395
Si Si3 0.811972 0.387645 0.500000
Si Si4 0.936442 0.670804 0.500000
Si Si5 0.435488 0.740155 0.220096
Si Si6 0.835376 0.110287 0.847810
O O1 0.412579 0.831778 0.869380
O O2 0.500000 0.901530 0.000000
O O3 0.404526 0.000000 0.000000
O O4 0.210020 0.325353 0.377661
O O5 0.209757 0.185235 0.209869
O O6 0.786906 0.500000 0.500000
O O7 0.881225 0.400581 0.500000
O O8 0.931571 0.737749 0.627647
O O9 0.000000 0.617165 0.500000
O O10 0.500000 0.715617 0.178503
O O11 0.399056 0.642636 0.191019
O O12 0.825468 0.000000 0.791275
O O13 0.827511 0.110707 0.000000
#
# Coordination Sequence:
#
# PCOD8272511 Si02
#       6
#     8   8   8   8  16  16
#     4   9  18  34  57  84 119 164 204 243 306 376
#     4  11  23  44  60  84 127 163 198 258 308 366
#     4  11  23  39  65  92 116 161 210 248 304 372
#     4  10  21  39  61  89 127 161 195 249 311 364
#     4  10  20  38  61  90 127 161 201 256 310 368
#     4  11  23  40  65  92 119 159 209 259 312 368
#
# _framework density 19.727277000000001
#
# number of rings (size 3 to 8) (size 9 to 14) (size 15 to 20)
#    0.000    1.625    3.750    1.125    0.000    1.750 
#    0.000    5.625    0.000    2.250    0.000    0.000 
#    0.000    0.000    0.000    0.000    0.000    0.000 
#
# Total GULP energy -396667.821625 kJ/mol
# GULP energy per Si atom -12395.869426 kJ/mol
# Density = 1.968238 g / cm^3
# Si number density = 19.727277 Si / 1000 Ang^3
#
#
#
# Elastic Constant Matrix: (Units=GPa)
#
#
# Indices 1 2 3 4 5 6 
#
# 1 113.0435 66.0619 30.4054 0.0000 0.0000 0.0000
# 2 66.0619 157.2469 64.8579 0.0000 0.0000 0.0000
# 3 30.4054 64.8579 120.5271 0.0000 0.0000 0.0000
# 4 0.0000 0.0000 0.0000 -87.7742 0.0000 0.0000
# 5 0.0000 0.0000 0.0000 0.0000 29.5055 0.0000
# 6 0.0000 0.0000 0.0000 0.0000 0.0000 6.6624
#
#
#
# Elastic Compliance Matrix: (Units=1/GPa)
#
#
# Indices 1 2 3 4 5 6 
#
# 1 0.011739 -0.004769 -0.000395 0.000000 0.000000 0.000000
# 2 -0.004769 0.010111 -0.004238 0.000000 0.000000 0.000000
# 3 -0.000395 -0.004238 0.010677 0.000000 0.000000 0.000000
# 4 0.000000 0.000000 0.000000 -0.011393 0.000000 0.000000
# 5 0.000000 0.000000 0.000000 0.000000 0.033892 0.000000
# 6 0.000000 0.000000 0.000000 0.000000 0.000000 0.150097
#
#
# Mechanical properties :
#
#
# Convention : Reuss Voigt Hill
#
# Bulk Modulus (GPa) = 72.86835 79.27421 76.07128
# Shear Modulus (GPa) = 21.88171 4.97822 13.42996
#
# Velocity S-wave (km/s) = 3.33409 1.59028 2.61201
# Velocity P-wave (km/s) = 7.19997 6.60638 6.90956
#
# Compressibility (1/GPa) = 0.01372338
#
# Stress axis : x y z
#
# Youngs Moduli (GPa) = 85.18353 98.90416 93.65897
#
# Poissons Ratio (x) = 0.47166 0.03702
# Poissons Ratio (y) = 0.40623 0.39691
# Poissons Ratio (z) = 0.03367 0.41913
#
# Static dielectric constant tensor:
#      x y z
#    x 3.741190 0.000000 0.000000 
#    y 0.000000 3.028920 0.000000 
#    z 0.000000 0.000000 3.698510 
# 
# 
# High freq. dielectric constant tensor:
#      x y z
#    x 1.770980 0.000000 0.000000 
#    y 0.000000 1.756980 0.000000 
#    z 0.000000 0.000000 1.781350 
# 
# From -- ./inp_files/13401.got.cif
#   From: 2010.03.12/outbox.cif.g09.slc.cpg/sg65_7_cif.got.tgz:13401.got - 2010.04.10 20:52:16.
