data_PCOD8272787
_publ_section_title
;
Structure prediction by ZEFSAII (Michael W. Deem and Ramdas Pophale) SiO2 
 PCOD8272787
Probable space group: C M M M
;
_chemical_formula_sum "Si O2"
_cell_formula_units_Z 88
_cell_length_a 7.896569
_cell_length_b 19.438496
_cell_length_c 29.525441
_cell_angle_alpha 90.000000
_cell_angle_beta 90.000000
_cell_angle_gamma 90.000000
_cell_volume 4532.079163
_symmetry_space_group_name_H-M "C M M M"
_symmetry_group_IT_number 65
_symmetry_cell_setting 'orthorhombic'
loop_
_space_group_symop_operation_xyz
x,y,z
-x,-y,z
x,-y,-z
-x,y,-z
-x,-y,-z
x,y,-z
-x,y,z
x,-y,z
1/2+x,1/2+y,z
1/2-x,1/2-y,z
1/2+x,1/2-y,-z
1/2-x,1/2+y,-z
1/2-x,1/2-y,-z
1/2+x,1/2+y,-z
1/2-x,1/2+y,z
1/2+x,1/2-y,z
loop_
_atom_site_type_symbol
_atom_site_label
_atom_site_fract_x
_atom_site_fract_y
_atom_site_fract_z
Si Si1 0.301804 0.175211 0.304814
Si Si2 0.700371 0.174461 0.204481
Si Si3 0.304614 0.919262 0.613846
Si Si4 0.801268 0.175206 0.948812
Si Si5 0.803394 0.423890 0.872109
Si Si6 0.000000 0.081439 0.449560
O O1 0.500000 0.171773 0.299551
O O2 0.250000 0.250000 0.323454
O O3 0.221879 0.161616 0.254914
O O4 0.242281 0.117737 0.340310
O O5 0.500000 0.167638 0.205258
O O6 0.750000 0.250000 0.187149
O O7 0.779551 0.119268 0.169397
O O8 0.500000 0.899884 0.600697
O O9 0.173720 0.894541 0.575048
O O10 0.288955 0.000000 0.622758
O O11 0.750000 0.250000 0.929438
O O12 0.719649 0.115206 0.919320
O O13 0.000000 0.166467 0.947103
O O14 0.731421 0.167404 0.000000
O O15 0.719483 0.500000 0.874458
O O16 0.000000 0.432059 0.862428
O O17 0.000000 0.113551 0.500000
O O18 0.000000 0.000000 0.452350
#
# Coordination Sequence:
#
# PCOD8272787 Si02
#       6
#    16  16  16  16  16   8
#     4   9  18  31  50  76 101 135 173 210 258 307
#     4   9  18  33  51  73 101 132 172 211 250 305
#     4   9  18  32  51  77 105 136 176 219 265 315
#     4  10  21  37  57  78 100 130 170 215 261 310
#     4  10  21  35  52  76 106 140 172 208 260 312
#     4   9  18  32  52  78 106 138 175 219 268 314
#
# _framework density 19.417134999999998
#
# number of rings (size 3 to 8) (size 9 to 14) (size 15 to 20)
#    0.000    2.636    0.000    1.091    1.273    5.091 
#    0.000    7.273    0.000    0.545    0.000    0.000 
#    0.000    0.000    0.000    0.000    0.000    0.000 
#
# Total GULP energy -545416.106993 kJ/mol
# GULP energy per Si atom -12395.820613 kJ/mol
# Density = 1.937294 g / cm^3
# Si number density = 19.417135 Si / 1000 Ang^3
#
#
#
# Elastic Constant Matrix: (Units=GPa)
#
#
# Indices 1 2 3 4 5 6 
#
# 1 45.5873 23.6600 35.0526 0.0000 0.0000 0.0000
# 2 23.6600 129.3906 83.3293 0.0000 0.0000 0.0000
# 3 35.0526 83.3293 139.6052 0.0000 0.0000 0.0000
# 4 0.0000 0.0000 0.0000 33.4770 0.0000 0.0000
# 5 0.0000 0.0000 0.0000 0.0000 20.9384 0.0000
# 6 0.0000 0.0000 0.0000 0.0000 0.0000 22.1999
#
#
#
# Elastic Compliance Matrix: (Units=1/GPa)
#
#
# Indices 1 2 3 4 5 6 
#
# 1 0.027254 -0.000937 -0.006284 0.000000 0.000000 0.000000
# 2 -0.000937 0.012587 -0.007278 0.000000 0.000000 0.000000
# 3 -0.006284 -0.007278 0.013085 0.000000 0.000000 0.000000
# 4 0.000000 0.000000 0.000000 0.029871 0.000000 0.000000
# 5 0.000000 0.000000 0.000000 0.000000 0.047759 0.000000
# 6 0.000000 0.000000 0.000000 0.000000 0.000000 0.045045
#
#
# Mechanical properties :
#
#
# Convention : Reuss Voigt Hill
#
# Bulk Modulus (GPa) = 41.79055 66.51855 54.15455
# Shear Modulus (GPa) = 23.52121 26.82581 25.17351
#
# Velocity S-wave (km/s) = 3.48424 3.72096 3.60454
# Velocity P-wave (km/s) = 6.14458 7.26586 6.72862
#
# Compressibility (1/GPa) = 0.02392885
#
# Stress axis : x y z
#
# Youngs Moduli (GPa) = 36.69208 79.44821 76.42389
#
# Poissons Ratio (x) = 0.07441 0.48024
# Poissons Ratio (y) = 0.03437 0.55620
# Poissons Ratio (z) = 0.23057 0.57821
#
# Static dielectric constant tensor:
#      x y z
#    x 3.467690 0.000000 0.000000 
#    y 0.000000 3.552100 0.000000 
#    z 0.000000 0.000000 3.968230 
# 
# 
# High freq. dielectric constant tensor:
#      x y z
#    x 1.748440 0.000000 0.000000 
#    y 0.000000 1.741620 0.000000 
#    z 0.000000 0.000000 1.755260 
# 
# From -- ./inp_files/76457.got.cif
#   From: 2010.03.12/outbox.cif.g09.slc.cpg/sg65_39_cif.got.tgz:76457.got - 2010.04.10 20:52:16.
