data_PCOD8272707
_publ_section_title
;
Structure prediction by ZEFSAII (Michael W. Deem and Ramdas Pophale) SiO2 
 PCOD8272707
Probable space group: C M M M
;
_chemical_formula_sum "Si O2"
_cell_formula_units_Z 72
_cell_length_a 27.474175
_cell_length_b 16.155309
_cell_length_c 9.197695
_cell_angle_alpha 90.000000
_cell_angle_beta 90.000000
_cell_angle_gamma 90.000000
_cell_volume 4082.431754
_symmetry_space_group_name_H-M "C M M M"
_symmetry_group_IT_number 65
_symmetry_cell_setting 'orthorhombic'
loop_
_space_group_symop_operation_xyz
x,y,z
-x,-y,z
x,-y,-z
-x,y,-z
-x,-y,-z
x,y,-z
-x,y,z
x,-y,z
1/2+x,1/2+y,z
1/2-x,1/2-y,z
1/2+x,1/2-y,-z
1/2-x,1/2+y,-z
1/2-x,1/2-y,-z
1/2+x,1/2+y,-z
1/2-x,1/2+y,z
1/2+x,1/2-y,z
loop_
_atom_site_type_symbol
_atom_site_label
_atom_site_fract_x
_atom_site_fract_y
_atom_site_fract_z
Si Si1 0.359105 0.594463 0.833728
Si Si2 0.804648 0.233267 0.327800
Si Si3 0.944499 0.834004 0.669137
Si Si4 0.944043 0.500000 0.325829
Si Si5 0.104551 0.334368 0.670014
O O1 0.342209 0.500000 0.821894
O O2 0.320078 0.648130 0.746620
O O3 0.412497 0.603713 0.763997
O O4 0.361178 0.624305 0.000000
O O5 0.808205 0.220546 0.500000
O O6 0.750000 0.250000 0.275909
O O7 0.840849 0.308122 0.277988
O O8 0.932844 0.849229 0.500000
O O9 0.932360 0.739305 0.711044
O O10 0.000000 0.852655 0.706865
O O11 0.943942 0.500000 0.500000
O O12 0.915507 0.419767 0.260690
O O13 0.000000 0.500000 0.270575
O O14 0.105682 0.349139 0.500000
#
# Coordination Sequence:
#
# PCOD8272707 Si02
#       5
#    16  16  16   8  16
#     4  10  21  35  50  71  99 130 165 203 245 296
#     4   9  18  34  53  73  96 125 162 205 253 297
#     4   9  17  30  49  71  97 131 167 203 246 295
#     4   9  14  20  36  64  97 127 151 185 236 287
#     4   8  14  25  41  65  97 125 155 193 237 293
#
# _framework density 17.636548000000001
#
# number of rings (size 3 to 8) (size 9 to 14) (size 15 to 20)
#    0.000    3.000    0.000    2.667    0.000    5.778 
#    2.000    2.222    0.000    0.000    0.000    7.000 
#    0.000   21.333    0.000    0.000    0.000    0.000 
#
# Total GULP energy -446221.096114 kJ/mol
# GULP energy per Si atom -12395.030448 kJ/mol
# Density = 1.759641 g / cm^3
# Si number density = 17.636548 Si / 1000 Ang^3
#
#
#
# Elastic Constant Matrix: (Units=GPa)
#
#
# Indices 1 2 3 4 5 6 
#
# 1 146.0438 55.3351 35.7500 0.0000 0.0000 0.0000
# 2 55.3351 101.0333 28.7233 0.0000 0.0000 0.0000
# 3 35.7500 28.7233 40.1006 0.0000 0.0000 0.0000
# 4 0.0000 0.0000 0.0000 16.3532 0.0000 0.0000
# 5 0.0000 0.0000 0.0000 0.0000 8.7191 0.0000
# 6 0.0000 0.0000 0.0000 0.0000 0.0000 16.7854
#
#
#
# Elastic Compliance Matrix: (Units=1/GPa)
#
#
# Indices 1 2 3 4 5 6 
#
# 1 0.009691 -0.003581 -0.006075 0.000000 0.000000 0.000000
# 2 -0.003581 0.013752 -0.006658 0.000000 0.000000 0.000000
# 3 -0.006075 -0.006658 0.035122 0.000000 0.000000 0.000000
# 4 0.000000 0.000000 0.000000 0.061150 0.000000 0.000000
# 5 0.000000 0.000000 0.000000 0.000000 0.114691 0.000000
# 6 0.000000 0.000000 0.000000 0.000000 0.000000 0.059576
#
#
# Mechanical properties :
#
#
# Convention : Reuss Voigt Hill
#
# Bulk Modulus (GPa) = 38.55365 58.53272 48.54319
# Shear Modulus (GPa) = 14.91408 19.52949 17.22178
#
# Velocity S-wave (km/s) = 2.91113 3.33127 3.12826
# Velocity P-wave (km/s) = 5.76257 6.93230 6.37432
#
# Compressibility (1/GPa) = 0.02593788
#
# Stress axis : x y z
#
# Youngs Moduli (GPa) = 103.18847 72.71882 28.47218
#
# Poissons Ratio (x) = 0.26038 0.17297
# Poissons Ratio (y) = 0.36948 0.18956
# Poissons Ratio (z) = 0.62686 0.48415
#
# Static dielectric constant tensor:
#      x y z
#    x 3.549410 0.000000 0.000000 
#    y 0.000000 3.345930 0.000000 
#    z 0.000000 0.000000 2.932370 
# 
# 
# High freq. dielectric constant tensor:
#      x y z
#    x 1.685010 0.000000 0.000000 
#    y 0.000000 1.680300 0.000000 
#    z 0.000000 0.000000 1.641710 
# 
# From -- ./inp_files/7638.got.cif
#   From: 2010.03.12/outbox.cif.g09.slc.cpg/sg65_4_cif.got.tgz:7638.got - 2010.04.10 20:52:16.
