data_PCOD8272731
_publ_section_title
;
Structure prediction by ZEFSAII (Michael W. Deem and Ramdas Pophale) SiO2 
 PCOD8272731
Probable space group: C M M M
;
_chemical_formula_sum "Si O2"
_cell_formula_units_Z 80
_cell_length_a 26.830484
_cell_length_b 9.397522
_cell_length_c 18.730326
_cell_angle_alpha 90.000000
_cell_angle_beta 90.000000
_cell_angle_gamma 90.000000
_cell_volume 4722.665590
_symmetry_space_group_name_H-M "C M M M"
_symmetry_group_IT_number 65
_symmetry_cell_setting 'orthorhombic'
loop_
_space_group_symop_operation_xyz
x,y,z
-x,-y,z
x,-y,-z
-x,y,-z
-x,-y,-z
x,y,-z
-x,y,z
x,-y,z
1/2+x,1/2+y,z
1/2-x,1/2-y,z
1/2+x,1/2-y,-z
1/2-x,1/2+y,-z
1/2-x,1/2-y,-z
1/2+x,1/2+y,-z
1/2-x,1/2+y,z
1/2+x,1/2-y,z
loop_
_atom_site_type_symbol
_atom_site_label
_atom_site_fract_x
_atom_site_fract_y
_atom_site_fract_z
Si Si1 0.798904 0.835045 0.419314
Si Si2 0.201437 0.162221 0.845532
Si Si3 0.899432 0.834923 0.918610
Si Si4 0.636573 0.665441 0.711822
Si Si5 0.442541 0.836128 0.792262
O O1 0.815317 0.796640 0.500000
O O2 0.750000 0.750000 0.396317
O O3 0.844545 0.794856 0.367347
O O4 0.785277 0.000000 0.411337
O O5 0.250000 0.250000 0.865241
O O6 0.158673 0.195915 0.903424
O O7 0.180790 0.201444 0.767140
O O8 0.218166 0.000000 0.848678
O O9 0.933892 0.738977 0.868395
O O10 0.911227 0.000000 0.902209
O O11 0.911673 0.795443 0.000000
O O12 0.621367 0.500000 0.718433
O O13 0.588488 0.760121 0.729426
O O14 0.500000 0.822932 0.770978
O O15 0.425839 0.000000 0.798349
#
# Coordination Sequence:
#
# PCOD8272731 Si02
#       5
#    16  16  16  16  16
#     4   9  17  29  47  74 106 135 162 193 230 273
#     4   9  17  28  43  65  92 122 156 190 223 264
#     4   9  19  35  51  68  93 124 157 191 230 283
#     4   9  18  32  49  69  95 127 161 195 230 276
#     4  10  21  35  51  72  94 116 150 199 248 288
#
# _framework density 16.939585999999998
#
# number of rings (size 3 to 8) (size 9 to 14) (size 15 to 20)
#    0.000    2.800    0.000    2.400    0.000    6.800 
#    0.000    2.000    0.000    0.600    0.000    4.200 
#    0.000    0.000    0.000    0.000    0.000    0.000 
#
# Total GULP energy -496009.800862 kJ/mol
# GULP energy per Si atom -12400.245022 kJ/mol
# Density = 1.690103 g / cm^3
# Si number density = 16.939586 Si / 1000 Ang^3
#
#
#
# Elastic Constant Matrix: (Units=GPa)
#
#
# Indices 1 2 3 4 5 6 
#
# 1 86.8702 56.9552 45.0196 0.0000 0.0000 0.0000
# 2 56.9552 84.0747 48.0197 0.0000 0.0000 0.0000
# 3 45.0196 48.0197 107.8854 0.0000 0.0000 0.0000
# 4 0.0000 0.0000 0.0000 18.4305 0.0000 0.0000
# 5 0.0000 0.0000 0.0000 0.0000 15.4082 0.0000
# 6 0.0000 0.0000 0.0000 0.0000 0.0000 32.8246
#
#
#
# Elastic Compliance Matrix: (Units=1/GPa)
#
#
# Indices 1 2 3 4 5 6 
#
# 1 0.021576 -0.012703 -0.003349 0.000000 0.000000 0.000000
# 2 -0.012703 0.023428 -0.005127 0.000000 0.000000 0.000000
# 3 -0.003349 -0.005127 0.012949 0.000000 0.000000 0.000000
# 4 0.000000 0.000000 0.000000 0.054258 0.000000 0.000000
# 5 0.000000 0.000000 0.000000 0.000000 0.064901 0.000000
# 6 0.000000 0.000000 0.000000 0.000000 0.000000 0.030465
#
#
# Mechanical properties :
#
#
# Convention : Reuss Voigt Hill
#
# Bulk Modulus (GPa) = 64.12772 64.31326 64.22049
# Shear Modulus (GPa) = 19.59764 21.92172 20.75968
#
# Velocity S-wave (km/s) = 3.40503 3.60128 3.50453
# Velocity P-wave (km/s) = 7.30739 7.43915 7.37356
#
# Compressibility (1/GPa) = 0.01559388
#
# Stress axis : x y z
#
# Youngs Moduli (GPa) = 46.34799 42.68370 77.22836
#
# Poissons Ratio (x) = 0.54223 0.25865
# Poissons Ratio (y) = 0.58878 0.39594
# Poissons Ratio (z) = 0.15523 0.21883
#
# Static dielectric constant tensor:
#      x y z
#    x 2.951360 0.000000 0.000000 
#    y 0.000000 3.190310 0.000000 
#    z 0.000000 0.000000 3.293880 
# 
# 
# High freq. dielectric constant tensor:
#      x y z
#    x 1.637580 0.000000 0.000000 
#    y 0.000000 1.654770 0.000000 
#    z 0.000000 0.000000 1.648140 
# 
# From -- ./inp_files/49878.got.cif
#   From: 2010.03.12/outbox.cif.g09.slc.cpg/sg65_25_cif.got.tgz:49878.got - 2010.04.10 20:52:16.
