data_PCOD8272099
_publ_section_title
;
Structure prediction by ZEFSAII (Michael W. Deem and Ramdas Pophale) SiO2 
 PCOD8272099
Probable space group: C M M M
;
_chemical_formula_sum "Si O2"
_cell_formula_units_Z 104
_cell_length_a 26.775035
_cell_length_b 17.835185
_cell_length_c 11.798750
_cell_angle_alpha 90.000000
_cell_angle_beta 90.000000
_cell_angle_gamma 90.000000
_cell_volume 5634.347969
_symmetry_space_group_name_H-M "C M M M"
_symmetry_group_IT_number 65
_symmetry_cell_setting 'orthorhombic'
loop_
_space_group_symop_operation_xyz
x,y,z
-x,-y,z
x,-y,-z
-x,y,-z
-x,-y,-z
x,y,-z
-x,y,z
x,-y,z
1/2+x,1/2+y,z
1/2-x,1/2-y,z
1/2+x,1/2-y,-z
1/2-x,1/2+y,-z
1/2-x,1/2-y,-z
1/2+x,1/2+y,-z
1/2-x,1/2+y,z
1/2+x,1/2-y,z
loop_
_atom_site_type_symbol
_atom_site_label
_atom_site_fract_x
_atom_site_fract_y
_atom_site_fract_z
Si Si1 0.558675 0.415745 0.870113
Si Si2 0.855530 0.412828 0.000000
Si Si3 0.213119 0.817963 0.874790
Si Si4 0.056678 0.500000 0.634625
Si Si5 0.794685 0.588553 0.779411
Si Si6 0.879798 0.643218 0.366113
Si Si7 0.941906 0.695717 0.000000
Si Si8 0.393850 0.276350 0.207625
O O1 0.500000 0.408063 0.856646
O O2 0.576140 0.500000 0.841074
O O3 0.585007 0.360886 0.778358
O O4 0.574253 0.396099 0.000000
O O5 0.825449 0.385338 0.109714
O O6 0.911072 0.381015 0.000000
O O7 0.861979 0.500000 0.000000
O O8 0.250000 0.750000 0.888035
O O9 0.238203 0.880660 0.792995
O O10 0.164073 0.783529 0.820085
O O11 0.201814 0.852420 0.000000
O O12 0.056482 0.500000 0.500000
O O13 0.085033 0.574794 0.678142
O O14 0.000000 0.500000 0.682080
O O15 0.791887 0.500000 0.764189
O O16 0.823097 0.625146 0.672457
O O17 0.881015 0.650433 0.500000
O O18 0.899545 0.722454 0.316743
O O19 0.927807 0.742832 0.890655
O O20 0.000000 0.675813 0.000000
#
# Coordination Sequence:
#
# PCOD8272099 Si02
#       8
#    16   8  16   8  16  16   8  16
#     4   9  18  34  57  85 117 150 183 231 301 372
#     4  10  20  36  53  78 118 155 188 236 299 359
#     4  11  20  33  55  82 113 146 185 231 293 364
#     4   9  20  40  62  83 111 157 215 260 291 332
#     4  11  21  37  59  85 115 152 197 244 299 356
#     4  11  23  39  60  84 119 166 210 253 292 345
#     4  12  22  34  56  87 117 154 200 241 301 368
#     4  12  22  37  57  87 120 153 198 246 300 358
#
# _framework density 18.458214000000002
#
# number of rings (size 3 to 8) (size 9 to 14) (size 15 to 20)
#    0.000    1.308    6.154    0.923    0.000    2.000 
#    0.000    1.538    0.000    0.462    0.000    1.077 
#    0.000    0.000    0.000    0.000    0.000    0.000 
#
# Total GULP energy -644682.154892 kJ/mol
# GULP energy per Si atom -12397.733748 kJ/mol
# Density = 1.841620 g / cm^3
# Si number density = 18.458214 Si / 1000 Ang^3
#
#
#
# Elastic Constant Matrix: (Units=GPa)
#
#
# Indices 1 2 3 4 5 6 
#
# 1 87.8563 41.4056 21.8188 0.0000 0.0000 0.0000
# 2 41.4056 124.7012 47.9274 0.0000 0.0000 0.0000
# 3 21.8188 47.9274 74.0784 0.0000 0.0000 0.0000
# 4 0.0000 0.0000 0.0000 26.5618 0.0000 0.0000
# 5 0.0000 0.0000 0.0000 0.0000 20.4440 0.0000
# 6 0.0000 0.0000 0.0000 0.0000 0.0000 40.8878
#
#
#
# Elastic Compliance Matrix: (Units=1/GPa)
#
#
# Indices 1 2 3 4 5 6 
#
# 1 0.013609 -0.003964 -0.001444 0.000000 0.000000 0.000000
# 2 -0.003964 0.011828 -0.006485 0.000000 0.000000 0.000000
# 3 -0.001444 -0.006485 0.018120 0.000000 0.000000 0.000000
# 4 0.000000 0.000000 0.000000 0.037648 0.000000 0.000000
# 5 0.000000 0.000000 0.000000 0.000000 0.048914 0.000000
# 6 0.000000 0.000000 0.000000 0.000000 0.000000 0.024457
#
#
# Mechanical properties :
#
#
# Convention : Reuss Voigt Hill
#
# Bulk Modulus (GPa) = 50.57717 56.54883 53.56300
# Shear Modulus (GPa) = 27.03416 29.27765 28.15591
#
# Velocity S-wave (km/s) = 3.83118 3.98698 3.90986
# Velocity P-wave (km/s) = 6.85791 7.20398 7.03308
#
# Compressibility (1/GPa) = 0.01977177
#
# Stress axis : x y z
#
# Youngs Moduli (GPa) = 73.48155 84.54766 55.18750
#
# Poissons Ratio (x) = 0.33513 0.07968
# Poissons Ratio (y) = 0.29126 0.35788
# Poissons Ratio (z) = 0.10609 0.54828
#
# Static dielectric constant tensor:
#      x y z
#    x 3.791440 0.000000 0.000000 
#    y 0.000000 3.706770 0.000000 
#    z 0.000000 0.000000 3.186390 
# 
# 
# High freq. dielectric constant tensor:
#      x y z
#    x 1.714930 0.000000 0.000000 
#    y 0.000000 1.730760 0.000000 
#    z 0.000000 0.000000 1.671780 
# 
# From -- ./inp_files/32565.got.cif
#   From: 2010.03.12/outbox.cif.g09.slc.cpg/sg65_17_cif.got.tgz:32565.got - 2010.04.10 20:52:16.
