data_PCOD8272382
_publ_section_title
;
Structure prediction by ZEFSAII (Michael W. Deem and Ramdas Pophale) SiO2 
 PCOD8272382
Probable space group: C M M M
;
_chemical_formula_sum "Si O2"
_cell_formula_units_Z 96
_cell_length_a 22.094026
_cell_length_b 14.576051
_cell_length_c 15.419137
_cell_angle_alpha 90.000000
_cell_angle_beta 90.000000
_cell_angle_gamma 90.000000
_cell_volume 4965.635156
_symmetry_space_group_name_H-M "C M M M"
_symmetry_group_IT_number 65
_symmetry_cell_setting 'orthorhombic'
loop_
_space_group_symop_operation_xyz
x,y,z
-x,-y,z
x,-y,-z
-x,y,-z
-x,-y,-z
x,y,-z
-x,y,z
x,-y,z
1/2+x,1/2+y,z
1/2-x,1/2-y,z
1/2+x,1/2-y,-z
1/2-x,1/2+y,-z
1/2-x,1/2-y,-z
1/2+x,1/2+y,-z
1/2-x,1/2+y,z
1/2+x,1/2-y,z
loop_
_atom_site_type_symbol
_atom_site_label
_atom_site_fract_x
_atom_site_fract_y
_atom_site_fract_z
Si Si1 0.754352 0.603450 0.247730
Si Si2 0.123673 0.679756 0.310698
Si Si3 0.570488 0.000000 0.397742
Si Si4 0.430690 0.756756 0.857784
Si Si5 0.428400 0.897816 0.000000
Si Si6 0.805740 0.818144 0.594385
Si Si7 0.335243 0.393893 0.900919
O O1 0.776872 0.500000 0.236699
O O2 0.812874 0.667033 0.259579
O O3 0.709509 0.607927 0.331178
O O4 0.719415 0.637200 0.161746
O O5 0.102283 0.588678 0.358451
O O6 0.074082 0.713449 0.242224
O O7 0.134069 0.760156 0.380913
O O8 0.500000 0.000000 0.373363
O O9 0.580963 0.000000 0.500000
O O10 0.500000 0.734725 0.880229
O O11 0.406662 0.842183 0.915287
O O12 0.394266 0.665087 0.879379
O O13 0.500000 0.908613 0.000000
O O14 0.398791 0.000000 0.000000
O O15 0.816761 0.865445 0.500000
O O16 0.750000 0.750000 0.585818
O O17 0.352041 0.500000 0.883388
O O18 0.314424 0.378492 0.000000
#
# Coordination Sequence:
#
# PCOD8272382 Si02
#       7
#    16  16   8  16   8  16  16
#     4  10  20  37  57  84 117 150 192 240 296 356
#     4  11  21  38  57  82 117 156 194 240 292 352
#     4  11  24  40  60  89 123 161 204 246 291 349
#     4  11  22  37  59  85 115 155 198 242 298 358
#     4   9  20  36  53  78 113 149 194 240 279 344
#     4   9  18  32  54  82 111 143 185 237 292 345
#     4  10  21  39  62  87 117 150 193 251 305 360
#
# _framework density 19.332874
#
# number of rings (size 3 to 8) (size 9 to 14) (size 15 to 20)
#    0.000    1.833    3.333    1.000    1.167    1.333 
#    1.500    1.667    0.000    0.000    0.000    0.000 
#    0.000    2.667    0.000    0.000    0.000    0.000 
#
# Total GULP energy -595179.267218 kJ/mol
# GULP energy per Si atom -12399.568067 kJ/mol
# Density = 1.928887 g / cm^3
# Si number density = 19.332874 Si / 1000 Ang^3
#
#
#
# Elastic Constant Matrix: (Units=GPa)
#
#
# Indices 1 2 3 4 5 6 
#
# 1 73.8547 27.7828 36.3279 0.0000 0.0000 0.0000
# 2 27.7828 60.2756 20.7794 0.0000 0.0000 0.0000
# 3 36.3279 20.7794 126.6348 0.0000 0.0000 0.0000
# 4 0.0000 0.0000 0.0000 26.7350 0.0000 0.0000
# 5 0.0000 0.0000 0.0000 0.0000 16.0715 0.0000
# 6 0.0000 0.0000 0.0000 0.0000 0.0000 23.2121
#
#
#
# Elastic Compliance Matrix: (Units=1/GPa)
#
#
# Indices 1 2 3 4 5 6 
#
# 1 0.018162 -0.006970 -0.004067 0.000000 0.000000 0.000000
# 2 -0.006970 0.020260 -0.001325 0.000000 0.000000 0.000000
# 3 -0.004067 -0.001325 0.009281 0.000000 0.000000 0.000000
# 4 0.000000 0.000000 0.000000 0.037404 0.000000 0.000000
# 5 0.000000 0.000000 0.000000 0.000000 0.062222 0.000000
# 6 0.000000 0.000000 0.000000 0.000000 0.000000 0.043081
#
#
# Mechanical properties :
#
#
# Convention : Reuss Voigt Hill
#
# Bulk Modulus (GPa) = 43.51557 47.83838 45.67697
# Shear Modulus (GPa) = 22.44245 24.92873 23.68559
#
# Velocity S-wave (km/s) = 3.41081 3.59478 3.50401
# Velocity P-wave (km/s) = 6.17001 6.48292 6.32840
#
# Compressibility (1/GPa) = 0.02298028
#
# Stress axis : x y z
#
# Youngs Moduli (GPa) = 55.05935 49.35895 107.75010
#
# Poissons Ratio (x) = 0.34401 0.43818
# Poissons Ratio (y) = 0.38374 0.14277
# Poissons Ratio (z) = 0.22390 0.06540
#
# Static dielectric constant tensor:
#      x y z
#    x 3.318140 0.000000 0.000000 
#    y 0.000000 3.483300 0.000000 
#    z 0.000000 0.000000 3.919040 
# 
# 
# High freq. dielectric constant tensor:
#      x y z
#    x 1.726950 0.000000 0.000000 
#    y 0.000000 1.747060 0.000000 
#    z 0.000000 0.000000 1.768150 
# 
# From -- ./inp_files/45668.got.cif
#   From: 2010.03.12/outbox.cif.g09.slc.cpg/sg65_23_cif.got.tgz:45668.got - 2010.04.10 20:52:16.
