data_PCOD8272144
_publ_section_title
;
Structure prediction by ZEFSAII (Michael W. Deem and Ramdas Pophale) SiO2 
 PCOD8272144
Probable space group: C M M M
;
_chemical_formula_sum "Si O2"
_cell_formula_units_Z 88
_cell_length_a 14.618944
_cell_length_b 23.435093
_cell_length_c 13.660478
_cell_angle_alpha 90.000000
_cell_angle_beta 90.000000
_cell_angle_gamma 90.000000
_cell_volume 4680.029386
_symmetry_space_group_name_H-M "C M M M"
_symmetry_group_IT_number 65
_symmetry_cell_setting 'orthorhombic'
loop_
_space_group_symop_operation_xyz
x,y,z
-x,-y,z
x,-y,-z
-x,y,-z
-x,-y,-z
x,y,-z
-x,y,z
x,-y,z
1/2+x,1/2+y,z
1/2-x,1/2-y,z
1/2+x,1/2-y,-z
1/2-x,1/2+y,-z
1/2-x,1/2-y,-z
1/2+x,1/2+y,-z
1/2-x,1/2+y,z
1/2+x,1/2-y,z
loop_
_atom_site_type_symbol
_atom_site_label
_atom_site_fract_x
_atom_site_fract_y
_atom_site_fract_z
Si Si1 0.391043 0.245867 0.203059
Si Si2 0.685830 0.564239 0.197626
Si Si3 0.220873 0.436349 0.609557
Si Si4 0.751130 0.829321 0.112588
Si Si5 0.394134 0.174253 0.390631
Si Si6 0.000000 0.932574 0.891247
O O1 0.500000 0.254537 0.183875
O O2 0.348514 0.198303 0.130414
O O3 0.331784 0.302669 0.181594
O O4 0.370570 0.224696 0.314246
O O5 0.701393 0.500000 0.159094
O O6 0.694928 0.567862 0.314957
O O7 0.758486 0.604262 0.141455
O O8 0.586841 0.588546 0.169299
O O9 0.259801 0.427887 0.500000
O O10 0.175344 0.500000 0.619309
O O11 0.150698 0.386393 0.637093
O O12 0.779023 0.821093 0.000000
O O13 0.364540 0.194408 0.500000
O O14 0.500000 0.160410 0.386411
O O15 0.000000 0.000000 0.899805
O O16 0.000000 0.905186 0.000000
#
# Coordination Sequence:
#
# PCOD8272144 Si02
#       6
#    16  16  16  16  16   8
#     4  10  21  38  56  79 112 145 182 229 274 323
#     4  10  20  36  56  81 111 140 179 232 281 329
#     4   9  17  31  53  81 112 145 180 220 272 330
#     4  11  23  37  56  82 107 142 190 228 277 335
#     4   9  17  32  55  81 111 146 182 221 266 321
#     4   9  18  32  51  75 103 139 182 226 272 317
#
# _framework density 18.8033
#
# number of rings (size 3 to 8) (size 9 to 14) (size 15 to 20)
#    0.000    2.273    1.818    1.636    1.273    2.909 
#    0.000    5.000    0.000    3.273    0.000    1.273 
#    0.000    0.000    0.000    0.000    0.000    0.000 
#
# Total GULP energy -545165.115396 kJ/mol
# GULP energy per Si atom -12390.116259 kJ/mol
# Density = 1.876050 g / cm^3
# Si number density = 18.803300 Si / 1000 Ang^3
#
#
#
# Elastic Constant Matrix: (Units=GPa)
#
#
# Indices 1 2 3 4 5 6 
#
# 1 72.5138 24.0624 42.4662 0.0000 0.0000 0.0000
# 2 24.0624 76.3269 43.9748 0.0000 0.0000 0.0000
# 3 42.4662 43.9748 128.0166 0.0000 0.0000 0.0000
# 4 0.0000 0.0000 0.0000 22.9612 0.0000 0.0000
# 5 0.0000 0.0000 0.0000 0.0000 28.6564 0.0000
# 6 0.0000 0.0000 0.0000 0.0000 0.0000 21.1346
#
#
#
# Elastic Compliance Matrix: (Units=1/GPa)
#
#
# Indices 1 2 3 4 5 6 
#
# 1 0.017556 -0.002717 -0.004890 0.000000 0.000000 0.000000
# 2 -0.002717 0.016755 -0.004854 0.000000 0.000000 0.000000
# 3 -0.004890 -0.004854 0.011101 0.000000 0.000000 0.000000
# 4 0.000000 0.000000 0.000000 0.043552 0.000000 0.000000
# 5 0.000000 0.000000 0.000000 0.000000 0.034896 0.000000
# 6 0.000000 0.000000 0.000000 0.000000 0.000000 0.047316
#
#
# Mechanical properties :
#
#
# Convention : Reuss Voigt Hill
#
# Bulk Modulus (GPa) = 48.80708 55.31821 52.06264
# Shear Modulus (GPa) = 24.63922 25.64070 25.13996
#
# Velocity S-wave (km/s) = 3.62383 3.69674 3.66046
# Velocity P-wave (km/s) = 6.59716 6.90684 6.75377
#
# Compressibility (1/GPa) = 0.02048883
#
# Stress axis : x y z
#
# Youngs Moduli (GPa) = 56.96033 59.68468 90.08052
#
# Poissons Ratio (x) = 0.16217 0.44053
# Poissons Ratio (y) = 0.15476 0.43726
# Poissons Ratio (z) = 0.27856 0.28971
#
# Static dielectric constant tensor:
#      x y z
#    x 3.337810 0.000000 0.000000 
#    y 0.000000 3.518280 0.000000 
#    z 0.000000 0.000000 3.705740 
# 
# 
# High freq. dielectric constant tensor:
#      x y z
#    x 1.702670 0.000000 0.000000 
#    y 0.000000 1.736180 0.000000 
#    z 0.000000 0.000000 1.738150 
# 
# From -- ./inp_files/25154.got.cif
#   From: 2010.03.12/outbox.cif.g09.slc.cpg/sg65_13_cif.got.tgz:25154.got - 2010.04.10 20:52:16.
