data_PCOD8272618
_publ_section_title
;
Structure prediction by ZEFSAII (Michael W. Deem and Ramdas Pophale) SiO2 
 PCOD8272618
Probable space group: C M M M
;
_chemical_formula_sum "Si O2"
_cell_formula_units_Z 88
_cell_length_a 20.467520
_cell_length_b 9.623187
_cell_length_c 24.459071
_cell_angle_alpha 90.000000
_cell_angle_beta 90.000000
_cell_angle_gamma 90.000000
_cell_volume 4817.526434
_symmetry_space_group_name_H-M "C M M M"
_symmetry_group_IT_number 65
_symmetry_cell_setting 'orthorhombic'
loop_
_space_group_symop_operation_xyz
x,y,z
-x,-y,z
x,-y,-z
-x,y,-z
-x,-y,-z
x,y,-z
-x,y,z
x,-y,z
1/2+x,1/2+y,z
1/2-x,1/2-y,z
1/2+x,1/2-y,-z
1/2-x,1/2+y,-z
1/2-x,1/2-y,-z
1/2+x,1/2+y,-z
1/2-x,1/2+y,z
1/2+x,1/2-y,z
loop_
_atom_site_type_symbol
_atom_site_label
_atom_site_fract_x
_atom_site_fract_y
_atom_site_fract_z
Si Si1 0.926023 0.339797 0.749149
Si Si2 0.139131 0.334418 0.939801
Si Si3 0.808738 0.338612 0.827125
Si Si4 0.000000 0.649297 0.936293
Si Si5 0.311544 0.661049 0.563008
Si Si6 0.925748 0.161030 0.644170
O O1 0.919193 0.500000 0.731897
O O2 0.876909 0.301855 0.798032
O O3 0.906509 0.248887 0.697097
O O4 0.000000 0.306384 0.768824
O O5 0.130565 0.500000 0.941931
O O6 0.187770 0.293331 0.891143
O O7 0.067704 0.269516 0.923579
O O8 0.163127 0.280502 0.000000
O O9 0.791642 0.500000 0.820433
O O10 0.750000 0.250000 0.800570
O O11 0.000000 0.500000 0.904454
O O12 0.000000 0.617580 0.000000
O O13 0.326226 0.695561 0.500000
O O14 0.293978 0.500000 0.571587
O O15 0.250000 0.750000 0.584513
O O16 0.376687 0.703359 0.595728
O O17 0.000000 0.194053 0.625159
O O18 0.918155 0.000000 0.659650
#
# Coordination Sequence:
#
# PCOD8272618 Si02
#       6
#    16  16  16   8  16  16
#     4   9  19  35  53  72  95 126 164 206 248 287
#     4   8  14  25  43  68  95 121 152 193 240 287
#     4  10  21  34  49  71  99 128 159 197 242 293
#     4   7  10  18  36  64  91 111 139 185 232 269
#     4   9  18  32  50  74 104 136 168 202 241 286
#     4   9  18  33  53  76 100 128 164 204 246 291
#
# _framework density 18.266635000000001
#
# number of rings (size 3 to 8) (size 9 to 14) (size 15 to 20)
#    0.000    3.182    0.000    1.091    1.273    2.909 
#    0.000    5.455    0.000    0.000    0.000    5.091 
#    0.000    2.182    0.000    0.000    0.000    0.000 
#
# Total GULP energy -545195.947208 kJ/mol
# GULP energy per Si atom -12390.816982 kJ/mol
# Density = 1.822506 g / cm^3
# Si number density = 18.266635 Si / 1000 Ang^3
#
#
#
# Elastic Constant Matrix: (Units=GPa)
#
#
# Indices 1 2 3 4 5 6 
#
# 1 122.2991 50.5265 66.6954 0.0000 0.0000 0.0000
# 2 50.5265 44.3367 43.1431 0.0000 0.0000 0.0000
# 3 66.6954 43.1431 96.5657 0.0000 0.0000 0.0000
# 4 0.0000 0.0000 0.0000 19.9745 0.0000 0.0000
# 5 0.0000 0.0000 0.0000 0.0000 23.6470 0.0000
# 6 0.0000 0.0000 0.0000 0.0000 0.0000 22.7058
#
#
#
# Elastic Compliance Matrix: (Units=1/GPa)
#
#
# Indices 1 2 3 4 5 6 
#
# 1 0.016924 -0.013998 -0.005435 0.000000 0.000000 0.000000
# 2 -0.013998 0.051480 -0.013332 0.000000 0.000000 0.000000
# 3 -0.005435 -0.013332 0.020066 0.000000 0.000000 0.000000
# 4 0.000000 0.000000 0.000000 0.050064 0.000000 0.000000
# 5 0.000000 0.000000 0.000000 0.000000 0.042289 0.000000
# 6 0.000000 0.000000 0.000000 0.000000 0.000000 0.044042
#
#
# Mechanical properties :
#
#
# Convention : Reuss Voigt Hill
#
# Bulk Modulus (GPa) = 43.59213 64.88127 54.23670
# Shear Modulus (GPa) = 16.77636 20.12122 18.44879
#
# Velocity S-wave (km/s) = 3.03382 3.32253 3.18145
# Velocity P-wave (km/s) = 6.01567 7.09331 6.57660
#
# Compressibility (1/GPa) = 0.02293992
#
# Stress axis : x y z
#
# Youngs Moduli (GPa) = 59.08936 19.42520 49.83632
#
# Poissons Ratio (x) = 0.27191 0.27085
# Poissons Ratio (y) = 0.82711 0.66441
# Poissons Ratio (z) = 0.32114 0.25897
#
# Static dielectric constant tensor:
#      x y z
#    x 3.553440 0.000000 0.000000 
#    y 0.000000 3.035940 0.000000 
#    z 0.000000 0.000000 3.335220 
# 
# 
# High freq. dielectric constant tensor:
#      x y z
#    x 1.717040 0.000000 0.000000 
#    y 0.000000 1.668110 0.000000 
#    z 0.000000 0.000000 1.699220 
# 
# From -- ./inp_files/71028.got.cif
#   From: 2010.03.12/outbox.cif.g09.slc.cpg/sg65_36_cif.got.tgz:71028.got - 2010.04.10 20:52:16.
