data_PCOD8272159
_publ_section_title
;
Structure prediction by ZEFSAII (Michael W. Deem and Ramdas Pophale) SiO2 
 PCOD8272159
Probable space group: C M M M
;
_chemical_formula_sum "Si O2"
_cell_formula_units_Z 80
_cell_length_a 7.869319
_cell_length_b 17.864923
_cell_length_c 29.081776
_cell_angle_alpha 90.000000
_cell_angle_beta 90.000000
_cell_angle_gamma 90.000000
_cell_volume 4088.455023
_symmetry_space_group_name_H-M "C M M M"
_symmetry_group_IT_number 65
_symmetry_cell_setting 'orthorhombic'
loop_
_space_group_symop_operation_xyz
x,y,z
-x,-y,z
x,-y,-z
-x,y,-z
-x,-y,-z
x,y,-z
-x,y,z
x,-y,z
1/2+x,1/2+y,z
1/2-x,1/2-y,z
1/2+x,1/2-y,-z
1/2-x,1/2+y,-z
1/2-x,1/2-y,-z
1/2+x,1/2+y,-z
1/2-x,1/2+y,z
1/2+x,1/2-y,z
loop_
_atom_site_type_symbol
_atom_site_label
_atom_site_fract_x
_atom_site_fract_y
_atom_site_fract_z
Si Si1 0.691734 0.410897 0.500000
Si Si2 0.000000 0.088830 0.760474
Si Si3 0.193354 0.166562 0.090298
Si Si4 0.187436 0.410996 0.597420
Si Si5 0.693508 0.911544 0.000000
Si Si6 0.500000 0.589501 0.342689
Si Si7 0.189611 0.586365 0.822067
O O1 0.694943 0.500000 0.500000
O O2 0.500000 0.381083 0.500000
O O3 0.783892 0.380175 0.454272
O O4 0.170499 0.117241 0.786184
O O5 0.000000 0.121892 0.709013
O O6 0.000000 0.000000 0.757978
O O7 0.250000 0.250000 0.078713
O O8 0.306703 0.132850 0.130958
O O9 0.000000 0.164273 0.107061
O O10 0.211577 0.117889 0.044745
O O11 0.200165 0.500000 0.596751
O O12 0.331736 0.379391 0.631655
O O13 0.000000 0.385229 0.614275
O O14 0.500000 0.882584 0.000000
O O15 0.703179 0.000000 0.000000
O O16 0.500000 0.500000 0.342701
O O17 0.228381 0.500000 0.834000
O O18 0.000000 0.595266 0.800753
#
# Coordination Sequence:
#
# PCOD8272159 Si02
#       7
#     8   8  16  16   8   8  16
#     4   9  13  19  29  40  61  97 138 185 239 293
#     4   9  18  32  49  69  93 125 164 210 263 311
#     4  12  24  39  59  84 114 144 179 220 264 310
#     4   9  15  21  30  45  68 100 140 189 244 297
#     4  11  24  41  60  85 117 151 184 214 254 314
#     4   9  16  25  36  53  77 104 143 196 251 301
#     4  10  20  36  57  79 104 136 175 216 262 318
#
# _framework density 19.567294
#
# number of rings (size 3 to 8) (size 9 to 14) (size 15 to 20)
#    0.000    2.000    2.000    3.300    0.000    5.200 
#    0.000    4.000    0.000    0.000    0.000    0.000 
#    0.000    0.000    0.000    0.000    0.000    0.000 
#
# Total GULP energy -495976.151341 kJ/mol
# GULP energy per Si atom -12399.403784 kJ/mol
# Density = 1.952276 g / cm^3
# Si number density = 19.567294 Si / 1000 Ang^3
#
#
#
# Elastic Constant Matrix: (Units=GPa)
#
#
# Indices 1 2 3 4 5 6 
#
# 1 165.2695 16.3067 66.4862 0.0000 0.0000 0.0000
# 2 16.3067 34.3114 17.0728 0.0000 0.0000 0.0000
# 3 66.4862 17.0728 152.7019 0.0000 0.0000 0.0000
# 4 0.0000 0.0000 0.0000 -2.9567 0.0000 0.0000
# 5 0.0000 0.0000 0.0000 0.0000 17.2970 0.0000
# 6 0.0000 0.0000 0.0000 0.0000 0.0000 13.9191
#
#
#
# Elastic Compliance Matrix: (Units=1/GPa)
#
#
# Indices 1 2 3 4 5 6 
#
# 1 0.007469 -0.002045 -0.003023 0.000000 0.000000 0.000000
# 2 -0.002045 0.031422 -0.002623 0.000000 0.000000 0.000000
# 3 -0.003023 -0.002623 0.008158 0.000000 0.000000 0.000000
# 4 0.000000 0.000000 0.000000 -0.338213 0.000000 0.000000
# 5 0.000000 0.000000 0.000000 0.000000 0.057814 0.000000
# 6 0.000000 0.000000 0.000000 0.000000 0.000000 0.071844
#
#
# Mechanical properties :
#
#
# Convention : Reuss Voigt Hill
#
# Bulk Modulus (GPa) = 31.57900 61.33493 46.45696
# Shear Modulus (GPa) = -36.88141 22.47968 -7.20087
#
# Velocity S-wave (km/s) = -4.34620 3.39313 -1.92043
# Velocity P-wave (km/s) = 3.00203 6.83848 4.34469
#
# Compressibility (1/GPa) = 0.03166661
#
# Stress axis : x y z
#
# Youngs Moduli (GPa) = 133.89159 31.82502 122.57563
#
# Poissons Ratio (x) = 0.06509 0.37057
# Poissons Ratio (y) = 0.27384 0.32147
# Poissons Ratio (z) = 0.40478 0.08346
#
# Static dielectric constant tensor:
#      x y z
#    x 3.870670 0.000000 0.000000 
#    y 0.000000 2.950760 0.000000 
#    z 0.000000 0.000000 3.648290 
# 
# 
# High freq. dielectric constant tensor:
#      x y z
#    x 1.784400 0.000000 0.000000 
#    y 0.000000 1.695370 0.000000 
#    z 0.000000 0.000000 1.759860 
# 
# From -- ./inp_files/72975.got.cif
#   From: 2010.03.12/outbox.cif.g09.slc.cpg/sg65_37_cif.got.tgz:72975.got - 2010.04.10 20:52:16.
