data_PCOD8272139
_publ_section_title
;
Structure prediction by ZEFSAII (Michael W. Deem and Ramdas Pophale) SiO2 
 PCOD8272139
Probable space group: C M M M
;
_chemical_formula_sum "Si O2"
_cell_formula_units_Z 88
_cell_length_a 30.919425
_cell_length_b 10.380487
_cell_length_c 14.243344
_cell_angle_alpha 90.000000
_cell_angle_beta 90.000000
_cell_angle_gamma 90.000000
_cell_volume 4571.525021
_symmetry_space_group_name_H-M "C M M M"
_symmetry_group_IT_number 65
_symmetry_cell_setting 'orthorhombic'
loop_
_space_group_symop_operation_xyz
x,y,z
-x,-y,z
x,-y,-z
-x,y,-z
-x,-y,-z
x,y,-z
-x,y,z
x,-y,z
1/2+x,1/2+y,z
1/2-x,1/2-y,z
1/2+x,1/2-y,-z
1/2-x,1/2+y,-z
1/2-x,1/2-y,-z
1/2+x,1/2+y,-z
1/2-x,1/2+y,z
1/2+x,1/2-y,z
loop_
_atom_site_type_symbol
_atom_site_label
_atom_site_fract_x
_atom_site_fract_y
_atom_site_fract_z
Si Si1 0.049144 0.758088 0.205933
Si Si2 0.127726 0.854340 0.102051
Si Si3 0.786808 0.153864 0.205104
Si Si4 0.949115 0.500000 0.105664
Si Si5 0.579318 0.348508 0.606091
Si Si6 0.323248 0.651614 0.600983
O O1 0.083180 0.856344 0.160645
O O2 0.065898 0.621414 0.166923
O O3 0.050725 0.768325 0.319138
O O4 0.000000 0.787158 0.172602
O O5 0.168726 0.797263 0.157658
O O6 0.140421 0.000000 0.084366
O O7 0.122045 0.785491 0.000000
O O8 0.750000 0.250000 0.164743
O O9 0.791009 0.188388 0.315546
O O10 0.776753 0.000000 0.189659
O O11 0.000000 0.500000 0.095542
O O12 0.928795 0.500000 0.000000
O O13 0.563097 0.319328 0.500000
O O14 0.574548 0.500000 0.627901
O O15 0.628235 0.297644 0.619308
O O16 0.306025 0.705200 0.500000
O O17 0.328133 0.500000 0.594786
#
# Coordination Sequence:
#
# PCOD8272139 Si02
#       6
#    16  16  16   8  16  16
#     4  11  21  35  57  83 110 145 190 233 276 334
#     4  10  21  37  56  79 110 144 178 229 291 338
#     4  10  20  36  56  80 110 143 182 229 282 342
#     4   9  20  38  55  73 103 145 190 238 285 327
#     4   9  17  31  53  83 117 149 181 220 273 338
#     4   8  14  28  52  77 105 144 181 215 266 330
#
# _framework density 19.249593000000001
#
# number of rings (size 3 to 8) (size 9 to 14) (size 15 to 20)
#    0.000    2.455    1.818    2.182    0.000    3.636 
#    1.636    2.273    0.000    1.636    0.000    0.000 
#    0.000    0.000    0.000    0.000    0.000    0.000 
#
# Total GULP energy -545075.406984 kJ/mol
# GULP energy per Si atom -12388.077431 kJ/mol
# Density = 1.920578 g / cm^3
# Si number density = 19.249593 Si / 1000 Ang^3
#
#
#
# Elastic Constant Matrix: (Units=GPa)
#
#
# Indices 1 2 3 4 5 6 
#
# 1 106.5729 24.8517 41.1695 0.0000 0.0000 0.0000
# 2 24.8517 52.3990 39.1564 0.0000 0.0000 0.0000
# 3 41.1695 39.1564 136.3855 0.0000 0.0000 0.0000
# 4 0.0000 0.0000 0.0000 20.2515 0.0000 0.0000
# 5 0.0000 0.0000 0.0000 0.0000 18.0304 0.0000
# 6 0.0000 0.0000 0.0000 0.0000 0.0000 23.0407
#
#
#
# Elastic Compliance Matrix: (Units=1/GPa)
#
#
# Indices 1 2 3 4 5 6 
#
# 1 0.011109 -0.003517 -0.002343 0.000000 0.000000 0.000000
# 2 -0.003517 0.025411 -0.006234 0.000000 0.000000 0.000000
# 3 -0.002343 -0.006234 0.009829 0.000000 0.000000 0.000000
# 4 0.000000 0.000000 0.000000 0.049379 0.000000 0.000000
# 5 0.000000 0.000000 0.000000 0.000000 0.055462 0.000000
# 6 0.000000 0.000000 0.000000 0.000000 0.000000 0.043401
#
#
# Mechanical properties :
#
#
# Convention : Reuss Voigt Hill
#
# Bulk Modulus (GPa) = 45.12698 56.19029 50.65864
# Shear Modulus (GPa) = 22.10757 24.94318 23.52538
#
# Velocity S-wave (km/s) = 3.39258 3.60360 3.49968
# Velocity P-wave (km/s) = 6.23219 6.82410 6.53485
#
# Compressibility (1/GPa) = 0.02215969
#
# Stress axis : x y z
#
# Youngs Moduli (GPa) = 90.01900 39.35326 101.73713
#
# Poissons Ratio (x) = 0.13842 0.23842
# Poissons Ratio (y) = 0.31664 0.63420
# Poissons Ratio (z) = 0.21095 0.24532
#
# Static dielectric constant tensor:
#      x y z
#    x 3.309200 0.000000 0.000000 
#    y 0.000000 3.140720 0.000000 
#    z 0.000000 0.000000 4.341070 
# 
# 
# High freq. dielectric constant tensor:
#      x y z
#    x 1.735510 0.000000 0.000000 
#    y 0.000000 1.698930 0.000000 
#    z 0.000000 0.000000 1.767350 
# 
# From -- ./inp_files/46769.got.cif
#   From: 2010.03.12/outbox.cif.g09.slc.cpg/sg65_24_cif.got.tgz:46769.got - 2010.04.10 20:52:16.
