data_PCOD8272868
_publ_section_title
;
Structure prediction by ZEFSAII (Michael W. Deem and Ramdas Pophale) SiO2 
 PCOD8272868
Probable space group: C M M M
;
_chemical_formula_sum "Si O2"
_cell_formula_units_Z 88
_cell_length_a 21.163557
_cell_length_b 16.067155
_cell_length_c 13.201375
_cell_angle_alpha 90.000000
_cell_angle_beta 90.000000
_cell_angle_gamma 90.000000
_cell_volume 4488.971141
_symmetry_space_group_name_H-M "C M M M"
_symmetry_group_IT_number 65
_symmetry_cell_setting 'orthorhombic'
loop_
_space_group_symop_operation_xyz
x,y,z
-x,-y,z
x,-y,-z
-x,y,-z
-x,-y,-z
x,y,-z
-x,y,z
x,-y,z
1/2+x,1/2+y,z
1/2-x,1/2-y,z
1/2+x,1/2-y,-z
1/2-x,1/2+y,-z
1/2-x,1/2-y,-z
1/2+x,1/2+y,-z
1/2-x,1/2+y,z
1/2+x,1/2-y,z
loop_
_atom_site_type_symbol
_atom_site_label
_atom_site_fract_x
_atom_site_fract_y
_atom_site_fract_z
Si Si1 0.180501 0.713206 0.616826
Si Si2 0.429502 0.500000 0.752599
Si Si3 0.071223 0.843312 0.615448
Si Si4 0.815321 0.000000 0.119185
Si Si5 0.870580 0.401906 0.212619
Si Si6 0.755830 0.341541 0.885518
Si Si7 0.000000 0.400953 0.116372
O O1 0.178359 0.684225 0.500000
O O2 0.250000 0.750000 0.642092
O O3 0.124863 0.777397 0.641449
O O4 0.162396 0.634893 0.686541
O O5 0.500000 0.500000 0.793734
O O6 0.414168 0.579069 0.685219
O O7 0.388614 0.500000 0.854232
O O8 0.077159 0.873276 0.500000
O O9 0.000000 0.807868 0.635276
O O10 0.785448 0.915164 0.166902
O O11 0.803413 0.000000 0.000000
O O12 0.871638 0.500000 0.227296
O O13 0.827823 0.373117 0.118072
O O14 0.940133 0.369065 0.182094
O O15 0.750000 0.250000 0.831486
O O16 0.732443 0.330705 0.000000
O O17 0.000000 0.500000 0.109305
O O18 0.000000 0.365852 0.000000
#
# Coordination Sequence:
#
# PCOD8272868 Si02
#       7
#    16   8  16   8  16  16   8
#     4  10  23  40  57  85 122 155 192 243 297 352
#     4  10  21  35  58  85 112 147 188 236 285 342
#     4   9  19  37  61  85 110 147 193 240 288 341
#     4  10  22  38  57  85 118 153 194 232 290 355
#     4  11  22  36  60  85 114 156 194 240 294 352
#     4  10  21  37  59  84 110 147 194 244 290 346
#     4   9  20  38  59  87 119 148 192 247 296 345
#
# _framework density 19.603603
#
# number of rings (size 3 to 8) (size 9 to 14) (size 15 to 20)
#    0.000    2.091    0.909    1.364    6.364    2.364 
#    0.000    0.000    0.000    1.636    0.000    0.000 
#    0.000    0.000    0.000    0.000    0.000    0.000 
#
# Total GULP energy -545215.952985 kJ/mol
# GULP energy per Si atom -12391.271659 kJ/mol
# Density = 1.955898 g / cm^3
# Si number density = 19.603603 Si / 1000 Ang^3
#
#
#
# Elastic Constant Matrix: (Units=GPa)
#
#
# Indices 1 2 3 4 5 6 
#
# 1 158.9157 62.4107 40.9008 0.0000 0.0000 0.0000
# 2 62.4107 114.8786 36.9560 0.0000 0.0000 0.0000
# 3 40.9008 36.9560 60.2834 0.0000 0.0000 0.0000
# 4 0.0000 0.0000 0.0000 16.0009 0.0000 0.0000
# 5 0.0000 0.0000 0.0000 0.0000 -1.8437 0.0000
# 6 0.0000 0.0000 0.0000 0.0000 0.0000 23.5018
#
#
#
# Elastic Compliance Matrix: (Units=1/GPa)
#
#
# Indices 1 2 3 4 5 6 
#
# 1 0.008617 -0.003489 -0.003708 0.000000 0.000000 0.000000
# 2 -0.003489 0.012256 -0.005146 0.000000 0.000000 0.000000
# 3 -0.003708 -0.005146 0.022259 0.000000 0.000000 0.000000
# 4 0.000000 0.000000 0.000000 0.062496 0.000000 0.000000
# 5 0.000000 0.000000 0.000000 0.000000 -0.542373 0.000000
# 6 0.000000 0.000000 0.000000 0.000000 0.000000 0.042550
#
#
# Mechanical properties :
#
#
# Convention : Reuss Voigt Hill
#
# Bulk Modulus (GPa) = 54.21178 68.29032 61.25105
# Shear Modulus (GPa) = -13.76041 20.45247 3.34603
#
# Velocity S-wave (km/s) = -2.65228 3.23352 1.30788
# Velocity P-wave (km/s) = 4.28189 6.98943 5.79598
#
# Compressibility (1/GPa) = 0.01844618
#
# Stress axis : x y z
#
# Youngs Moduli (GPa) = 116.04951 81.59500 44.92611
#
# Poissons Ratio (x) = 0.28466 0.16658
# Poissons Ratio (y) = 0.40485 0.23120
# Poissons Ratio (z) = 0.43028 0.41991
#
# Static dielectric constant tensor:
#      x y z
#    x 3.798120 0.000000 0.000000 
#    y 0.000000 3.610970 0.000000 
#    z 0.000000 0.000000 3.407550 
# 
# 
# High freq. dielectric constant tensor:
#      x y z
#    x 1.776320 0.000000 0.000000 
#    y 0.000000 1.755490 0.000000 
#    z 0.000000 0.000000 1.756150 
# 
# From -- ./inp_files/42547.got.cif
#   From: 2010.03.12/outbox.cif.g09.slc.cpg/sg65_22_cif.got.tgz:42547.got - 2010.04.10 20:52:16.
