data_PCOD8272459
_publ_section_title
;
Structure prediction by ZEFSAII (Michael W. Deem and Ramdas Pophale) SiO2 
 PCOD8272459
Probable space group: C M M M
;
_chemical_formula_sum "Si O2"
_cell_formula_units_Z 88
_cell_length_a 18.546897
_cell_length_b 7.785167
_cell_length_c 31.440264
_cell_angle_alpha 90.000000
_cell_angle_beta 90.000000
_cell_angle_gamma 90.000000
_cell_volume 4539.681428
_symmetry_space_group_name_H-M "C M M M"
_symmetry_group_IT_number 65
_symmetry_cell_setting 'orthorhombic'
loop_
_space_group_symop_operation_xyz
x,y,z
-x,-y,z
x,-y,-z
-x,y,-z
-x,-y,-z
x,y,-z
-x,y,z
x,-y,z
1/2+x,1/2+y,z
1/2-x,1/2-y,z
1/2+x,1/2-y,-z
1/2-x,1/2+y,-z
1/2-x,1/2-y,-z
1/2+x,1/2+y,-z
1/2-x,1/2+y,z
1/2+x,1/2-y,z
loop_
_atom_site_type_symbol
_atom_site_label
_atom_site_fract_x
_atom_site_fract_y
_atom_site_fract_z
Si Si1 0.414185 0.690405 0.246775
Si Si2 0.914407 0.500000 0.906621
Si Si3 0.830110 0.197353 0.949846
Si Si4 0.081041 0.706003 0.500000
Si Si5 0.331699 0.194327 0.578617
Si Si6 0.580496 0.701845 0.341793
Si Si7 0.585817 0.000000 0.809695
O O1 0.500000 0.683716 0.245185
O O2 0.383812 0.500000 0.235306
O O3 0.390972 0.745526 0.294396
O O4 0.383311 0.829500 0.213477
O O5 0.886360 0.325608 0.928140
O O6 0.887555 0.500000 0.858033
O O7 0.000000 0.500000 0.910387
O O8 0.750000 0.250000 0.935493
O O9 0.845804 0.000000 0.936171
O O10 0.838744 0.219568 0.000000
O O11 0.078698 0.500000 0.500000
O O12 0.121458 0.785325 0.458405
O O13 0.000000 0.779288 0.500000
O O14 0.250000 0.250000 0.579422
O O15 0.365197 0.215853 0.625070
O O16 0.332538 0.000000 0.565141
O O17 0.500000 0.777818 0.348601
O O18 0.578700 0.500000 0.348573
O O19 0.500000 0.000000 0.806992
#
# Coordination Sequence:
#
# PCOD8272459 Si02
#       7
#    16   8  16   8  16  16   8
#     4   8  15  29  50  76 107 142 182 233 280 331
#     4  11  23  36  55  92 131 158 195 260 312 354
#     4  10  20  37  62  87 114 160 211 251 299 365
#     4   9  19  36  55  77 104 131 170 219 260 310
#     4  11  22  35  53  76 105 143 174 209 262 325
#     4   9  18  33  54  81 107 131 173 228 271 312
#     4   9  18  31  50  79 116 154 190 227 289 357
#
# _framework density 19.384620000000002
#
# number of rings (size 3 to 8) (size 9 to 14) (size 15 to 20)
#    0.000    2.455    0.909    2.727    1.273    2.909 
#    0.000    4.091    0.000    4.364    0.000    0.000 
#    0.000    0.000    0.000    0.000    0.000    0.000 
#
# Total GULP energy -545418.061639 kJ/mol
# GULP energy per Si atom -12395.865037 kJ/mol
# Density = 1.934050 g / cm^3
# Si number density = 19.384620 Si / 1000 Ang^3
#
#
#
# Elastic Constant Matrix: (Units=GPa)
#
#
# Indices 1 2 3 4 5 6 
#
# 1 100.0282 41.1631 52.1599 0.0000 0.0000 0.0000
# 2 41.1631 111.9176 64.6810 0.0000 0.0000 0.0000
# 3 52.1599 64.6810 112.5371 0.0000 0.0000 0.0000
# 4 0.0000 0.0000 0.0000 15.2470 0.0000 0.0000
# 5 0.0000 0.0000 0.0000 0.0000 8.6356 0.0000
# 6 0.0000 0.0000 0.0000 0.0000 0.0000 11.3809
#
#
#
# Elastic Compliance Matrix: (Units=1/GPa)
#
#
# Indices 1 2 3 4 5 6 
#
# 1 0.013481 -0.002017 -0.005089 0.000000 0.000000 0.000000
# 2 -0.002017 0.013681 -0.006928 0.000000 0.000000 0.000000
# 3 -0.005089 -0.006928 0.015227 0.000000 0.000000 0.000000
# 4 0.000000 0.000000 0.000000 0.065587 0.000000 0.000000
# 5 0.000000 0.000000 0.000000 0.000000 0.115800 0.000000
# 6 0.000000 0.000000 0.000000 0.000000 0.000000 0.087867
#
#
# Mechanical properties :
#
#
# Convention : Reuss Voigt Hill
#
# Bulk Modulus (GPa) = 69.83281 71.16567 70.49924
# Shear Modulus (GPa) = 14.51443 18.15128 16.33286
#
# Velocity S-wave (km/s) = 2.73932 3.06334 2.90585
# Velocity P-wave (km/s) = 6.79030 7.02170 6.90697
#
# Compressibility (1/GPa) = 0.01431992
#
# Stress axis : x y z
#
# Youngs Moduli (GPa) = 74.17907 73.09301 65.67423
#
# Poissons Ratio (x) = 0.14744 0.33421
# Poissons Ratio (y) = 0.14964 0.45501
# Poissons Ratio (z) = 0.37749 0.50641
#
# Static dielectric constant tensor:
#      x y z
#    x 3.223980 0.000000 0.000000 
#    y 0.000000 3.687680 0.000000 
#    z 0.000000 0.000000 3.670060 
# 
# 
# High freq. dielectric constant tensor:
#      x y z
#    x 1.722620 0.000000 0.000000 
#    y 0.000000 1.758520 0.000000 
#    z 0.000000 0.000000 1.756330 
# 
# From -- ./inp_files/78034.got.cif
#   From: 2010.03.12/outbox.cif.g09.slc.cpg/sg65_40_cif.got.tgz:78034.got - 2010.04.10 20:52:16.
