data_PCOD8272161
_publ_section_title
;
Structure prediction by ZEFSAII (Michael W. Deem and Ramdas Pophale) SiO2 
 PCOD8272161
Probable space group: C M M M
;
_chemical_formula_sum "Si O2"
_cell_formula_units_Z 72
_cell_length_a 27.222657
_cell_length_b 8.618191
_cell_length_c 16.230187
_cell_angle_alpha 90.000000
_cell_angle_beta 90.000000
_cell_angle_gamma 90.000000
_cell_volume 3807.765106
_symmetry_space_group_name_H-M "C M M M"
_symmetry_group_IT_number 65
_symmetry_cell_setting 'orthorhombic'
loop_
_space_group_symop_operation_xyz
x,y,z
-x,-y,z
x,-y,-z
-x,y,-z
-x,-y,-z
x,y,-z
-x,y,z
x,-y,z
1/2+x,1/2+y,z
1/2-x,1/2-y,z
1/2+x,1/2-y,-z
1/2-x,1/2+y,-z
1/2-x,1/2-y,-z
1/2+x,1/2+y,-z
1/2-x,1/2+y,z
1/2+x,1/2-y,z
loop_
_atom_site_type_symbol
_atom_site_label
_atom_site_fract_x
_atom_site_fract_y
_atom_site_fract_z
Si Si1 0.697645 0.684193 0.254226
Si Si2 0.604627 0.818069 0.661812
Si Si3 0.943774 0.816178 0.500000
Si Si4 0.055090 0.179526 0.813902
Si Si5 0.851439 0.817383 0.910145
O O1 0.698182 0.500000 0.256546
O O2 0.750000 0.750000 0.280861
O O3 0.657570 0.744090 0.318733
O O4 0.684290 0.746219 0.161836
O O5 0.584391 0.746304 0.578779
O O6 0.565914 0.782165 0.733926
O O7 0.611129 0.000000 0.651170
O O8 0.000000 0.756058 0.500000
O O9 0.942271 0.000000 0.500000
O O10 0.092228 0.224235 0.887316
O O11 0.000000 0.212190 0.845135
O O12 0.062568 0.000000 0.788347
O O13 0.844908 0.000000 0.916433
O O14 0.839195 0.742477 0.000000
#
# Coordination Sequence:
#
# PCOD8272161 Si02
#       5
#    16  16   8  16  16
#     4  10  20  36  57  79 105 139 178 220 269 320
#     4  11  22  36  55  80 109 140 177 219 262 311
#     4  11  23  39  60  85 114 145 175 211 257 307
#     4   9  17  30  49  73 104 143 182 220 266 317
#     4   8  15  28  47  74 106 138 176 222 267 315
#
# _framework density 18.908729999999998
#
# number of rings (size 3 to 8) (size 9 to 14) (size 15 to 20)
#    0.000    2.333    0.000    5.000    0.000    4.889 
#    0.000    2.778    0.000   16.000    0.000    6.222 
#    0.000    0.000    0.000    0.000    0.000    0.000 
#
# Total GULP energy -446318.727031 kJ/mol
# GULP energy per Si atom -12397.742418 kJ/mol
# Density = 1.886569 g / cm^3
# Si number density = 18.908730 Si / 1000 Ang^3
#
#
#
# Elastic Constant Matrix: (Units=GPa)
#
#
# Indices 1 2 3 4 5 6 
#
# 1 137.1871 38.7773 50.3423 0.0000 0.0000 0.0000
# 2 38.7773 74.0789 33.8673 0.0000 0.0000 0.0000
# 3 50.3423 33.8673 124.3004 0.0000 0.0000 0.0000
# 4 0.0000 0.0000 0.0000 -20.8957 0.0000 0.0000
# 5 0.0000 0.0000 0.0000 0.0000 13.4337 0.0000
# 6 0.0000 0.0000 0.0000 0.0000 0.0000 27.1225
#
#
#
# Elastic Compliance Matrix: (Units=1/GPa)
#
#
# Indices 1 2 3 4 5 6 
#
# 1 0.009336 -0.003608 -0.002798 0.000000 0.000000 0.000000
# 2 -0.003608 0.016814 -0.003120 0.000000 0.000000 0.000000
# 3 -0.002798 -0.003120 0.010028 0.000000 0.000000 0.000000
# 4 0.000000 0.000000 0.000000 -0.047857 0.000000 0.000000
# 5 0.000000 0.000000 0.000000 0.000000 0.074440 0.000000
# 6 0.000000 0.000000 0.000000 0.000000 0.000000 0.036870
#
#
# Mechanical properties :
#
#
# Convention : Reuss Voigt Hill
#
# Bulk Modulus (GPa) = 58.38901 64.61558 61.50229
# Shear Modulus (GPa) = 40.19563 18.10406 29.14985
#
# Velocity S-wave (km/s) = 4.61561 3.09762 3.93059
# Velocity P-wave (km/s) = 7.70400 6.85858 7.29355
#
# Compressibility (1/GPa) = 0.01712651
#
# Stress axis : x y z
#
# Youngs Moduli (GPa) = 107.11385 59.47413 99.71707
#
# Poissons Ratio (x) = 0.21457 0.27902
# Poissons Ratio (y) = 0.38644 0.31112
# Poissons Ratio (z) = 0.29972 0.18556
#
# Static dielectric constant tensor:
#      x y z
#    x 4.095910 0.000000 0.000000 
#    y 0.000000 3.288510 0.000000 
#    z 0.000000 0.000000 3.682130 
# 
# 
# High freq. dielectric constant tensor:
#      x y z
#    x 1.739960 0.000000 0.000000 
#    y 0.000000 1.717450 0.000000 
#    z 0.000000 0.000000 1.728870 
# 
# From -- ./inp_files/36544.got.cif
#   From: 2010.03.12/outbox.cif.g09.slc.cpg/sg65_19_cif.got.tgz:36544.got - 2010.04.10 20:52:16.
