data_PCOD8272588
_publ_section_title
;
Structure prediction by ZEFSAII (Michael W. Deem and Ramdas Pophale) SiO2 
 PCOD8272588
Probable space group: C M M M
;
_chemical_formula_sum "Si O2"
_cell_formula_units_Z 80
_cell_length_a 7.729499
_cell_length_b 18.179667
_cell_length_c 29.566880
_cell_angle_alpha 90.000000
_cell_angle_beta 90.000000
_cell_angle_gamma 90.000000
_cell_volume 4154.729637
_symmetry_space_group_name_H-M "C M M M"
_symmetry_group_IT_number 65
_symmetry_cell_setting 'orthorhombic'
loop_
_space_group_symop_operation_xyz
x,y,z
-x,-y,z
x,-y,-z
-x,y,-z
-x,-y,-z
x,y,-z
-x,y,z
x,-y,z
1/2+x,1/2+y,z
1/2-x,1/2-y,z
1/2+x,1/2-y,-z
1/2-x,1/2+y,-z
1/2-x,1/2-y,-z
1/2+x,1/2+y,-z
1/2-x,1/2+y,z
1/2+x,1/2-y,z
loop_
_atom_site_type_symbol
_atom_site_label
_atom_site_fract_x
_atom_site_fract_y
_atom_site_fract_z
Si Si1 0.798097 0.334595 0.500000
Si Si2 0.000000 0.087095 0.755991
Si Si3 0.299221 0.165530 0.088865
Si Si4 0.199170 0.413413 0.589605
Si Si5 0.802500 0.920098 0.000000
Si Si6 0.500000 0.587106 0.344633
Si Si7 0.199466 0.586541 0.821839
O O1 0.750000 0.250000 0.500000
O O2 0.726138 0.373381 0.454989
O O3 0.000000 0.347065 0.500000
O O4 0.824326 0.112803 0.781198
O O5 0.000000 0.121779 0.705682
O O6 0.000000 0.000000 0.752820
O O7 0.500000 0.155056 0.091108
O O8 0.250000 0.250000 0.087711
O O9 0.236046 0.126975 0.043913
O O10 0.224714 0.126651 0.133638
O O11 0.213624 0.500000 0.581020
O O12 0.324444 0.387134 0.630147
O O13 0.000000 0.391357 0.601037
O O14 0.000000 0.938904 0.000000
O O15 0.704413 0.000000 0.000000
O O16 0.500000 0.500000 0.341502
O O17 0.215193 0.500000 0.830618
O O18 0.000000 0.608119 0.810401
#
# Coordination Sequence:
#
# PCOD8272588 Si02
#       7
#     8   8  16  16   8   8  16
#     4  10  21  33  50  78 104 144 181 219 266 318
#     4   9  18  32  55  83 111 137 174 229 276 326
#     4  11  23  38  57  82 111 147 182 225 270 324
#     4   9  18  33  52  76 108 141 179 224 266 318
#     4  11  24  39  58  83 113 147 182 219 268 329
#     4   9  18  31  52  83 107 138 177 219 282 324
#     4   9  19  35  56  82 109 142 182 225 276 325
#
# _framework density 19.255163
#
# number of rings (size 3 to 8) (size 9 to 14) (size 15 to 20)
#    0.000    2.300    0.000    2.100    4.200    3.600 
#    0.000    5.500    0.000    1.200    0.000    0.000 
#    0.000    0.000    0.000    0.000    0.000    0.000 
#
# Total GULP energy -495845.735450 kJ/mol
# GULP energy per Si atom -12396.143386 kJ/mol
# Density = 1.921134 g / cm^3
# Si number density = 19.255163 Si / 1000 Ang^3
#
#
#
# Elastic Constant Matrix: (Units=GPa)
#
#
# Indices 1 2 3 4 5 6 
#
# 1 89.6842 28.9724 80.3413 0.0000 0.0000 0.0000
# 2 28.9724 76.0210 57.6655 0.0000 0.0000 0.0000
# 3 80.3413 57.6655 203.8068 0.0000 0.0000 0.0000
# 4 0.0000 0.0000 0.0000 2.8899 0.0000 0.0000
# 5 0.0000 0.0000 0.0000 0.0000 40.2279 0.0000
# 6 0.0000 0.0000 0.0000 0.0000 0.0000 8.3161
#
#
#
# Elastic Compliance Matrix: (Units=1/GPa)
#
#
# Indices 1 2 3 4 5 6 
#
# 1 0.017433 -0.001822 -0.006357 0.000000 0.000000 0.000000
# 2 -0.001822 0.016939 -0.004075 0.000000 0.000000 0.000000
# 3 -0.006357 -0.004075 0.008565 0.000000 0.000000 0.000000
# 4 0.000000 0.000000 0.000000 0.346030 0.000000 0.000000
# 5 0.000000 0.000000 0.000000 0.000000 0.024858 0.000000
# 6 0.000000 0.000000 0.000000 0.000000 0.000000 0.120249
#
#
# Mechanical properties :
#
#
# Convention : Reuss Voigt Hill
#
# Bulk Modulus (GPa) = 54.25578 78.16339 66.20959
# Shear Modulus (GPa) = 8.85385 23.78897 16.32141
#
# Velocity S-wave (km/s) = 2.14666 3.51872 2.91458
# Velocity P-wave (km/s) = 5.86367 7.56242 6.76656
#
# Compressibility (1/GPa) = 0.01843121
#
# Stress axis : x y z
#
# Youngs Moduli (GPa) = 57.36111 59.03375 116.74984
#
# Poissons Ratio (x) = 0.10757 0.74215
# Poissons Ratio (y) = 0.10452 0.47571
# Poissons Ratio (z) = 0.36463 0.24054
#
# Static dielectric constant tensor:
#      x y z
#    x 3.746560 0.000000 0.000000 
#    y 0.000000 3.273840 0.000000 
#    z 0.000000 0.000000 3.800990 
# 
# 
# High freq. dielectric constant tensor:
#      x y z
#    x 1.759490 0.000000 0.000000 
#    y 0.000000 1.725290 0.000000 
#    z 0.000000 0.000000 1.751880 
# 
# From -- ./inp_files/72976.got.cif
#   From: 2010.03.12/outbox.cif.g09.slc.cpg/sg65_37_cif.got.tgz:72976.got - 2010.04.10 20:52:16.
