data_PCOD8272356
_publ_section_title
;
Structure prediction by ZEFSAII (Michael W. Deem and Ramdas Pophale) SiO2 
 PCOD8272356
Probable space group: C M M M
;
_chemical_formula_sum "Si O2"
_cell_formula_units_Z 88
_cell_length_a 29.834939
_cell_length_b 8.766725
_cell_length_c 16.654952
_cell_angle_alpha 90.000000
_cell_angle_beta 90.000000
_cell_angle_gamma 90.000000
_cell_volume 4356.181067
_symmetry_space_group_name_H-M "C M M M"
_symmetry_group_IT_number 65
_symmetry_cell_setting 'orthorhombic'
loop_
_space_group_symop_operation_xyz
x,y,z
-x,-y,z
x,-y,-z
-x,y,-z
-x,-y,-z
x,y,-z
-x,y,z
x,-y,z
1/2+x,1/2+y,z
1/2-x,1/2-y,z
1/2+x,1/2-y,-z
1/2-x,1/2+y,-z
1/2-x,1/2-y,-z
1/2+x,1/2+y,-z
1/2-x,1/2+y,z
1/2+x,1/2-y,z
loop_
_atom_site_type_symbol
_atom_site_label
_atom_site_fract_x
_atom_site_fract_y
_atom_site_fract_z
Si Si1 0.203257 0.819747 0.909197
Si Si2 0.114969 0.320725 0.368235
Si Si3 0.447793 0.319588 0.500000
Si Si4 0.620493 0.676846 0.197800
Si Si5 0.207019 0.167695 0.592652
Si Si6 0.050759 0.328519 0.093312
O O1 0.250000 0.750000 0.879548
O O2 0.165355 0.764468 0.846963
O O3 0.207152 0.000000 0.908214
O O4 0.191789 0.763113 0.000000
O O5 0.110185 0.500000 0.379054
O O6 0.075762 0.243556 0.420024
O O7 0.110389 0.275901 0.275892
O O8 0.163391 0.270075 0.398725
O O9 0.442210 0.500000 0.500000
O O10 0.500000 0.270977 0.500000
O O11 0.624141 0.500000 0.221159
O O12 0.579312 0.701312 0.138218
O O13 0.217751 0.143398 0.500000
O O14 0.250000 0.250000 0.633693
O O15 0.199972 0.000000 0.632884
O O16 0.068511 0.500000 0.110886
O O17 0.000000 0.314069 0.123696
O O18 0.053865 0.291457 0.000000
#
# Coordination Sequence:
#
# PCOD8272356 Si02
#       6
#    16  16   8  16  16  16
#     4   9  19  36  58  85 118 159 205 249 293 345
#     4  12  25  41  63  90 123 159 200 248 303 364
#     4  11  25  47  72  93 116 151 197 249 307 371
#     4  11  23  38  58  86 122 159 200 250 300 353
#     4  10  20  36  61  89 120 154 193 239 290 347
#     4   9  19  37  60  86 117 152 192 241 298 361
#
# _framework density 20.201180000000001
#
# number of rings (size 3 to 8) (size 9 to 14) (size 15 to 20)
#    0.000    1.727    0.909    4.091    0.000    5.818 
#    0.000    4.545    0.000    0.000    0.000    0.000 
#    0.000    0.000    0.000    0.000    0.000    0.000 
#
# Total GULP energy -545650.959277 kJ/mol
# GULP energy per Si atom -12401.158165 kJ/mol
# Density = 2.015520 g / cm^3
# Si number density = 20.201180 Si / 1000 Ang^3
#
#
#
# Elastic Constant Matrix: (Units=GPa)
#
#
# Indices 1 2 3 4 5 6 
#
# 1 154.9270 57.5004 64.5478 0.0000 0.0000 0.0000
# 2 57.5004 93.4797 36.3529 0.0000 0.0000 0.0000
# 3 64.5478 36.3529 91.5845 0.0000 0.0000 0.0000
# 4 0.0000 0.0000 0.0000 27.6617 0.0000 0.0000
# 5 0.0000 0.0000 0.0000 0.0000 3.9760 0.0000
# 6 0.0000 0.0000 0.0000 0.0000 0.0000 33.3817
#
#
#
# Elastic Compliance Matrix: (Units=1/GPa)
#
#
# Indices 1 2 3 4 5 6 
#
# 1 0.010354 -0.004176 -0.005640 0.000000 0.000000 0.000000
# 2 -0.004176 0.014334 -0.002747 0.000000 0.000000 0.000000
# 3 -0.005640 -0.002747 0.015984 0.000000 0.000000 0.000000
# 4 0.000000 0.000000 0.000000 0.036151 0.000000 0.000000
# 5 0.000000 0.000000 0.000000 0.000000 0.251508 0.000000
# 6 0.000000 0.000000 0.000000 0.000000 0.000000 0.029957
#
#
# Mechanical properties :
#
#
# Convention : Reuss Voigt Hill
#
# Bulk Modulus (GPa) = 64.31844 72.97704 68.64774
# Shear Modulus (GPa) = 12.86683 25.10990 18.98837
#
# Velocity S-wave (km/s) = 2.52649 3.52943 3.06921
# Velocity P-wave (km/s) = 6.35759 7.26724 6.82758
#
# Compressibility (1/GPa) = 0.01554764
#
# Stress axis : x y z
#
# Youngs Moduli (GPa) = 96.57817 69.76340 62.56151
#
# Poissons Ratio (x) = 0.29131 0.35286
# Poissons Ratio (y) = 0.40328 0.17184
# Poissons Ratio (z) = 0.54472 0.19162
#
# Static dielectric constant tensor:
#      x y z
#    x 3.759800 0.000000 0.000000 
#    y 0.000000 3.750110 0.000000 
#    z 0.000000 0.000000 2.983990 
# 
# 
# High freq. dielectric constant tensor:
#      x y z
#    x 1.795170 0.000000 0.000000 
#    y 0.000000 1.792900 0.000000 
#    z 0.000000 0.000000 1.783120 
# 
# From -- ./inp_files/58031.got.cif
#   From: 2010.03.12/outbox.cif.g09.slc.cpg/sg65_30_cif.got.tgz:58031.got - 2010.04.10 20:52:16.
