data_PCOD8272089
_publ_section_title
;
Structure prediction by ZEFSAII (Michael W. Deem and Ramdas Pophale) SiO2 
 PCOD8272089
Probable space group: C M M M
;
_chemical_formula_sum "Si O2"
_cell_formula_units_Z 80
_cell_length_a 14.548064
_cell_length_b 23.346229
_cell_length_c 11.589230
_cell_angle_alpha 90.000000
_cell_angle_beta 90.000000
_cell_angle_gamma 90.000000
_cell_volume 3936.194281
_symmetry_space_group_name_H-M "C M M M"
_symmetry_group_IT_number 65
_symmetry_cell_setting 'orthorhombic'
loop_
_space_group_symop_operation_xyz
x,y,z
-x,-y,z
x,-y,-z
-x,y,-z
-x,-y,-z
x,y,-z
-x,y,z
x,-y,z
1/2+x,1/2+y,z
1/2-x,1/2-y,z
1/2+x,1/2-y,-z
1/2-x,1/2+y,-z
1/2-x,1/2-y,-z
1/2+x,1/2+y,-z
1/2-x,1/2+y,z
1/2+x,1/2-y,z
loop_
_atom_site_type_symbol
_atom_site_label
_atom_site_fract_x
_atom_site_fract_y
_atom_site_fract_z
Si Si1 0.104972 0.621593 0.706689
Si Si2 0.242510 0.433702 0.136386
Si Si3 0.142526 0.747107 0.631229
Si Si4 0.699498 0.939254 0.500000
Si Si5 0.099321 0.081109 0.500000
Si Si6 0.899627 0.861578 0.258922
O O1 0.147413 0.596973 0.825483
O O2 0.108460 0.689508 0.693560
O O3 0.172053 0.596424 0.610537
O O4 0.000000 0.600155 0.695258
O O5 0.248388 0.500000 0.181290
O O6 0.327045 0.395999 0.182675
O O7 0.245910 0.432832 0.000000
O O8 0.099883 0.752420 0.500000
O O9 0.250000 0.750000 0.616177
O O10 0.114540 0.793654 0.727898
O O11 0.808027 0.955999 0.500000
O O12 0.646768 0.000000 0.500000
O O13 0.104947 0.120898 0.390629
O O14 0.000000 0.047111 0.500000
O O15 0.000000 0.874177 0.204191
#
# Coordination Sequence:
#
# PCOD8272089 Si02
#       6
#    16  16  16   8   8  16
#     4  12  25  41  64  98 133 170 215 264 322 386
#     4  11  26  48  69  89 122 172 227 279 325 375
#     4  11  20  37  66  98 136 174 207 252 318 396
#     4  12  23  38  59  92 137 174 210 263 325 389
#     4  10  20  35  60  95 133 167 204 255 319 393
#     4  11  22  39  66 100 132 166 210 260 323 395
#
# _framework density 20.324200000000001
#
# number of rings (size 3 to 8) (size 9 to 14) (size 15 to 20)
#    0.000    0.800    6.000    1.500    0.000    4.200 
#    0.000    6.000    0.000    2.400    0.000    0.000 
#    0.000    0.000    0.000    0.000    0.000    0.000 
#
# Total GULP energy -495578.679570 kJ/mol
# GULP energy per Si atom -12389.466989 kJ/mol
# Density = 2.027794 g / cm^3
# Si number density = 20.324200 Si / 1000 Ang^3
#
#
#
# Elastic Constant Matrix: (Units=GPa)
#
#
# Indices 1 2 3 4 5 6 
#
# 1 160.7973 39.7874 36.2833 0.0000 0.0000 0.0000
# 2 39.7874 150.3419 42.1284 0.0000 0.0000 0.0000
# 3 36.2833 42.1284 77.5940 0.0000 0.0000 0.0000
# 4 0.0000 0.0000 0.0000 13.7305 0.0000 0.0000
# 5 0.0000 0.0000 0.0000 0.0000 14.3113 0.0000
# 6 0.0000 0.0000 0.0000 0.0000 0.0000 -55.1871
#
#
#
# Elastic Compliance Matrix: (Units=1/GPa)
#
#
# Indices 1 2 3 4 5 6 
#
# 1 0.007109 -0.001120 -0.002716 0.000000 0.000000 0.000000
# 2 -0.001120 0.008022 -0.003831 0.000000 0.000000 0.000000
# 3 -0.002716 -0.003831 0.016238 0.000000 0.000000 0.000000
# 4 0.000000 0.000000 0.000000 0.072830 0.000000 0.000000
# 5 0.000000 0.000000 0.000000 0.000000 0.069875 0.000000
# 6 0.000000 0.000000 0.000000 0.000000 0.000000 -0.018120
#
#
# Mechanical properties :
#
#
# Convention : Reuss Voigt Hill
#
# Bulk Modulus (GPa) = 62.37071 69.45905 65.91488
# Shear Modulus (GPa) = 28.30725 12.60655 20.45690
#
# Velocity S-wave (km/s) = 3.73605 2.49323 3.17603
# Velocity P-wave (km/s) = 7.02604 6.52212 6.77876
#
# Compressibility (1/GPa) = 0.01603317
#
# Stress axis : x y z
#
# Youngs Moduli (GPa) = 140.66541 124.66343 61.58490
#
# Poissons Ratio (x) = 0.13966 0.16726
# Poissons Ratio (y) = 0.15759 0.23595
# Poissons Ratio (z) = 0.38204 0.47763
#
# Static dielectric constant tensor:
#      x y z
#    x 4.029860 0.000000 0.000000 
#    y 0.000000 3.965720 0.000000 
#    z 0.000000 0.000000 4.303760 
# 
# 
# High freq. dielectric constant tensor:
#      x y z
#    x 1.809570 0.000000 0.000000 
#    y 0.000000 1.809530 0.000000 
#    z 0.000000 0.000000 1.761940 
# 
# From -- ./inp_files/24700.got.cif
#   From: 2010.03.12/outbox.cif.g09.slc.cpg/sg65_13_cif.got.tgz:24700.got - 2010.04.10 20:52:16.
