data_PCOD8272835
_publ_section_title
;
Structure prediction by ZEFSAII (Michael W. Deem and Ramdas Pophale) SiO2 
 PCOD8272835
Probable space group: C M M M
;
_chemical_formula_sum "Si O2"
_cell_formula_units_Z 88
_cell_length_a 18.526967
_cell_length_b 8.858430
_cell_length_c 27.932494
_cell_angle_alpha 90.000000
_cell_angle_beta 90.000000
_cell_angle_gamma 90.000000
_cell_volume 4584.276454
_symmetry_space_group_name_H-M "C M M M"
_symmetry_group_IT_number 65
_symmetry_cell_setting 'orthorhombic'
loop_
_space_group_symop_operation_xyz
x,y,z
-x,-y,z
x,-y,-z
-x,y,-z
-x,-y,-z
x,y,-z
-x,y,z
x,-y,z
1/2+x,1/2+y,z
1/2-x,1/2-y,z
1/2+x,1/2-y,-z
1/2-x,1/2+y,-z
1/2-x,1/2-y,-z
1/2+x,1/2+y,-z
1/2-x,1/2+y,z
1/2+x,1/2-y,z
loop_
_atom_site_type_symbol
_atom_site_label
_atom_site_fract_x
_atom_site_fract_y
_atom_site_fract_z
Si Si1 0.083194 0.173999 0.408608
Si Si2 0.416496 0.176101 0.309699
Si Si3 0.416492 0.823987 0.142320
Si Si4 0.828148 0.821979 0.773948
Si Si5 0.327862 0.678609 0.500000
Si Si6 0.676184 0.823476 0.053398
O O1 0.104007 0.275730 0.363300
O O2 0.129841 0.233996 0.452999
O O3 0.000000 0.194573 0.422834
O O4 0.100123 0.000000 0.396278
O O5 0.500000 0.214218 0.298692
O O6 0.366525 0.269144 0.274302
O O7 0.400710 0.000000 0.303047
O O8 0.500000 0.781489 0.144047
O O9 0.375758 0.724560 0.180948
O O10 0.387965 0.781106 0.089519
O O11 0.403666 0.000000 0.153955
O O12 0.750000 0.750000 0.778604
O O13 0.819443 0.000000 0.772793
O O14 0.321922 0.500000 0.500000
O O15 0.250000 0.750000 0.500000
O O16 0.750000 0.750000 0.072072
O O17 0.689721 0.000000 0.052552
O O18 0.655935 0.764656 0.000000
#
# Coordination Sequence:
#
# PCOD8272835 Si02
#       6
#    16  16  16  16   8  16
#     4   9  18  35  58  81 107 144 189 229 267 318
#     4  10  21  38  60  86 115 145 180 225 276 329
#     4  10  21  37  57  82 113 147 184 229 277 325
#     4  12  25  40  59  82 110 145 185 228 276 331
#     4  10  21  35  53  79 111 146 182 226 276 324
#     4   9  18  33  54  80 110 146 186 226 271 324
#
# _framework density 19.19605
#
# number of rings (size 3 to 8) (size 9 to 14) (size 15 to 20)
#    0.000    2.000    0.000    3.545    0.000    8.727 
#    0.000    3.636    0.000    2.727    0.000    3.818 
#    0.000    0.000    0.000    0.000    0.000    0.000 
#
# Total GULP energy -545752.100625 kJ/mol
# GULP energy per Si atom -12403.456832 kJ/mol
# Density = 1.915236 g / cm^3
# Si number density = 19.196050 Si / 1000 Ang^3
#
#
#
# Elastic Constant Matrix: (Units=GPa)
#
#
# Indices 1 2 3 4 5 6 
#
# 1 139.4790 61.6465 87.6697 0.0000 0.0000 0.0000
# 2 61.6465 85.0912 56.3350 0.0000 0.0000 0.0000
# 3 87.6697 56.3350 132.5004 0.0000 0.0000 0.0000
# 4 0.0000 0.0000 0.0000 31.4210 0.0000 0.0000
# 5 0.0000 0.0000 0.0000 0.0000 -415.3700 0.0000
# 6 0.0000 0.0000 0.0000 0.0000 0.0000 31.8894
#
#
#
# Elastic Compliance Matrix: (Units=1/GPa)
#
#
# Indices 1 2 3 4 5 6 
#
# 1 0.013936 -0.005555 -0.006859 0.000000 0.000000 0.000000
# 2 -0.005555 0.018571 -0.004220 0.000000 0.000000 0.000000
# 3 -0.006859 -0.004220 0.013880 0.000000 0.000000 0.000000
# 4 0.000000 0.000000 0.000000 0.031826 0.000000 0.000000
# 5 0.000000 0.000000 0.000000 0.000000 -0.002407 0.000000
# 6 0.000000 0.000000 0.000000 0.000000 0.000000 0.031358
#
#
# Mechanical properties :
#
#
# Convention : Reuss Voigt Hill
#
# Bulk Modulus (GPa) = 76.23182 85.37477 80.80329
# Shear Modulus (GPa) = 34.52945 -60.31729 -12.89392
#
# Velocity S-wave (km/s) = 4.24580 -5.61159 -2.59452
# Velocity P-wave (km/s) = 7.98963 1.60784 5.76279
#
# Compressibility (1/GPa) = 0.01311788
#
# Stress axis : x y z
#
# Youngs Moduli (GPa) = 71.75629 53.84854 72.04843
#
# Poissons Ratio (x) = 0.29915 0.49417
# Poissons Ratio (y) = 0.39863 0.30404
# Poissons Ratio (z) = 0.49217 0.22724
#
# Static dielectric constant tensor:
#      x y z
#    x 3.588180 0.000000 0.000000 
#    y 0.000000 3.479460 0.000000 
#    z 0.000000 0.000000 3.773460 
# 
# 
# High freq. dielectric constant tensor:
#      x y z
#    x 1.747890 0.000000 0.000000 
#    y 0.000000 1.741790 0.000000 
#    z 0.000000 0.000000 1.761960 
# 
# From -- ./inp_files/77861.got.cif
#   From: 2010.03.12/outbox.cif.g09.slc.cpg/sg65_39_cif.got.tgz:77861.got - 2010.04.10 20:52:16.
