data_PCOD8272305
_publ_section_title
;
Structure prediction by ZEFSAII (Michael W. Deem and Ramdas Pophale) SiO2 
 PCOD8272305
Probable space group: C M M M
;
_chemical_formula_sum "Si O2"
_cell_formula_units_Z 64
_cell_length_a 14.804685
_cell_length_b 8.461040
_cell_length_c 25.955145
_cell_angle_alpha 90.000000
_cell_angle_beta 90.000000
_cell_angle_gamma 90.000000
_cell_volume 3251.220158
_symmetry_space_group_name_H-M "C M M M"
_symmetry_group_IT_number 65
_symmetry_cell_setting 'orthorhombic'
loop_
_space_group_symop_operation_xyz
x,y,z
-x,-y,z
x,-y,-z
-x,y,-z
-x,-y,-z
x,y,-z
-x,y,z
x,-y,z
1/2+x,1/2+y,z
1/2-x,1/2-y,z
1/2+x,1/2-y,-z
1/2-x,1/2+y,-z
1/2-x,1/2-y,-z
1/2+x,1/2+y,-z
1/2-x,1/2+y,z
1/2+x,1/2-y,z
loop_
_atom_site_type_symbol
_atom_site_label
_atom_site_fract_x
_atom_site_fract_y
_atom_site_fract_z
Si Si1 0.843695 0.687474 0.611163
Si Si2 0.000000 0.316545 0.209278
Si Si3 0.851870 0.186475 0.136934
Si Si4 0.599969 0.813079 0.500000
Si Si5 0.500000 0.312324 0.057408
Si Si6 0.500000 0.682650 0.320392
O O1 0.856132 0.500000 0.616858
O O2 0.750000 0.750000 0.633252
O O3 0.850139 0.744363 0.551631
O O4 0.914696 0.778168 0.645295
O O5 0.907620 0.242215 0.186865
O O6 0.000000 0.290277 0.269983
O O7 0.000000 0.500000 0.196133
O O8 0.750000 0.250000 0.135613
O O9 0.909212 0.244906 0.086986
O O10 0.845858 0.000000 0.138534
O O11 0.500000 0.739278 0.500000
O O12 0.593368 0.000000 0.500000
O O13 0.500000 0.500000 0.054963
O O14 0.500000 0.238781 0.000000
O O15 0.500000 0.500000 0.304057
#
# Coordination Sequence:
#
# PCOD8272305 Si02
#       6
#    16   8  16   8   8   8
#     4  11  22  39  61  87 118 152 190 232 283 339
#     4  11  23  41  63  85 111 147 191 242 297 348
#     4  10  20  36  59  87 119 156 198 242 288 341
#     4   9  17  34  60  85 114 152 188 229 278 335
#     4   8  16  32  54  83 122 163 200 240 285 333
#     4  12  25  42  61  86 116 148 189 237 291 347
#
# _framework density 19.684916999999999
#
# number of rings (size 3 to 8) (size 9 to 14) (size 15 to 20)
#    0.000    1.750    1.250    4.875    0.000    1.500 
#    0.000    7.500    0.000   12.750    0.000    0.000 
#    0.000    0.000    0.000    0.000    0.000    0.000 
#
# Total GULP energy -396747.173442 kJ/mol
# GULP energy per Si atom -12398.349170 kJ/mol
# Density = 1.964011 g / cm^3
# Si number density = 19.684917 Si / 1000 Ang^3
#
#
#
# Elastic Constant Matrix: (Units=GPa)
#
#
# Indices 1 2 3 4 5 6 
#
# 1 185.1799 33.5171 58.6990 0.0000 0.0000 0.0000
# 2 33.5171 73.9322 18.3936 0.0000 0.0000 0.0000
# 3 58.6990 18.3936 126.4749 0.0000 0.0000 0.0000
# 4 0.0000 0.0000 0.0000 23.2527 0.0000 0.0000
# 5 0.0000 0.0000 0.0000 0.0000 37.7424 0.0000
# 6 0.0000 0.0000 0.0000 0.0000 0.0000 32.7996
#
#
#
# Elastic Compliance Matrix: (Units=1/GPa)
#
#
# Indices 1 2 3 4 5 6 
#
# 1 0.006703 -0.002350 -0.002769 0.000000 0.000000 0.000000
# 2 -0.002350 0.014858 -0.001070 0.000000 0.000000 0.000000
# 3 -0.002769 -0.001070 0.009348 0.000000 0.000000 0.000000
# 4 0.000000 0.000000 0.000000 0.043006 0.000000 0.000000
# 5 0.000000 0.000000 0.000000 0.000000 0.026495 0.000000
# 6 0.000000 0.000000 0.000000 0.000000 0.000000 0.030488
#
#
# Mechanical properties :
#
#
# Convention : Reuss Voigt Hill
#
# Bulk Modulus (GPa) = 53.96769 67.42292 60.69531
# Shear Modulus (GPa) = 33.45529 37.09075 35.27302
#
# Velocity S-wave (km/s) = 4.12702 4.34547 4.23765
# Velocity P-wave (km/s) = 7.08414 7.71381 7.40567
#
# Compressibility (1/GPa) = 0.01852960
#
# Stress axis : x y z
#
# Youngs Moduli (GPa) = 149.17953 67.30607 106.97884
#
# Poissons Ratio (x) = 0.15817 0.29626
# Poissons Ratio (y) = 0.35057 0.11448
# Poissons Ratio (z) = 0.41313 0.07203
#
# Static dielectric constant tensor:
#      x y z
#    x 3.626730 0.000000 0.000000 
#    y 0.000000 3.429810 0.000000 
#    z 0.000000 0.000000 3.778030 
# 
# 
# High freq. dielectric constant tensor:
#      x y z
#    x 1.779800 0.000000 0.000000 
#    y 0.000000 1.757760 0.000000 
#    z 0.000000 0.000000 1.767050 
# 
# From -- ./inp_files/69603.got.cif
#   From: 2010.03.12/outbox.cif.g09.slc.cpg/sg65_35_cif.got.tgz:69603.got - 2010.04.10 20:52:16.
