data_PCOD8272616
_publ_section_title
;
Structure prediction by ZEFSAII (Michael W. Deem and Ramdas Pophale) SiO2 
 PCOD8272616
Probable space group: C M M M
;
_chemical_formula_sum "Si O2"
_cell_formula_units_Z 72
_cell_length_a 17.604181
_cell_length_b 27.213150
_cell_length_c 7.781624
_cell_angle_alpha 90.000000
_cell_angle_beta 90.000000
_cell_angle_gamma 90.000000
_cell_volume 3727.905399
_symmetry_space_group_name_H-M "C M M M"
_symmetry_group_IT_number 65
_symmetry_cell_setting 'orthorhombic'
loop_
_space_group_symop_operation_xyz
x,y,z
-x,-y,z
x,-y,-z
-x,y,-z
-x,-y,-z
x,y,-z
-x,y,z
x,-y,z
1/2+x,1/2+y,z
1/2-x,1/2-y,z
1/2+x,1/2-y,-z
1/2-x,1/2+y,-z
1/2-x,1/2-y,-z
1/2+x,1/2+y,-z
1/2-x,1/2+y,z
1/2+x,1/2-y,z
loop_
_atom_site_type_symbol
_atom_site_label
_atom_site_fract_x
_atom_site_fract_y
_atom_site_fract_z
Si Si1 0.766068 0.802482 0.195473
Si Si2 0.153671 0.054619 0.801686
Si Si3 0.686636 0.899919 0.200848
Si Si4 0.584114 0.348593 0.694828
Si Si5 0.910827 0.442742 0.500000
O O1 0.750000 0.750000 0.289321
O O2 0.714119 0.846311 0.270568
O O3 0.854963 0.816438 0.201846
O O4 0.741243 0.797205 0.000000
O O5 0.243268 0.063038 0.777102
O O6 0.103957 0.093591 0.697414
O O7 0.134152 0.000000 0.734927
O O8 0.131800 0.061040 0.000000
O O9 0.619980 0.917879 0.325303
O O10 0.659964 0.898834 0.000000
O O11 0.586246 0.330365 0.500000
O O12 0.500000 0.340107 0.773283
O O13 0.889523 0.500000 0.500000
O O14 0.000000 0.434072 0.500000
#
# Coordination Sequence:
#
# PCOD8272616 Si02
#       5
#    16  16  16  16   8
#     4   9  19  37  61  84 103 135 183 227 273 328
#     4   9  18  32  52  77 102 138 185 222 260 311
#     4   9  19  37  58  82 112 142 182 234 279 330
#     4  10  21  34  48  75 113 144 173 213 263 316
#     4  11  24  38  55  82 111 147 192 231 286 348
#
# _framework density 19.313796
#
# number of rings (size 3 to 8) (size 9 to 14) (size 15 to 20)
#    0.000    2.556    0.000    2.667    6.222    4.889 
#    0.000    4.444    0.000    4.000    0.000    0.000 
#    0.000    0.000    0.000    0.000    0.000    0.000 
#
# Total GULP energy -446199.232377 kJ/mol
# GULP energy per Si atom -12394.423122 kJ/mol
# Density = 1.926984 g / cm^3
# Si number density = 19.313796 Si / 1000 Ang^3
#
#
#
# Elastic Constant Matrix: (Units=GPa)
#
#
# Indices 1 2 3 4 5 6 
#
# 1 108.6913 60.6768 32.4292 0.0000 0.0000 0.0000
# 2 60.6768 141.8685 21.2195 0.0000 0.0000 0.0000
# 3 32.4292 21.2195 62.9653 0.0000 0.0000 0.0000
# 4 0.0000 0.0000 0.0000 2.4017 0.0000 0.0000
# 5 0.0000 0.0000 0.0000 0.0000 22.4124 0.0000
# 6 0.0000 0.0000 0.0000 0.0000 0.0000 15.4461
#
#
#
# Elastic Compliance Matrix: (Units=1/GPa)
#
#
# Indices 1 2 3 4 5 6 
#
# 1 0.013584 -0.005016 -0.005306 0.000000 0.000000 0.000000
# 2 -0.005016 0.009275 -0.000542 0.000000 0.000000 0.000000
# 3 -0.005306 -0.000542 0.018797 0.000000 0.000000 0.000000
# 4 0.000000 0.000000 0.000000 0.416380 0.000000 0.000000
# 5 0.000000 0.000000 0.000000 0.000000 0.044618 0.000000
# 6 0.000000 0.000000 0.000000 0.000000 0.000000 0.064741
#
#
# Mechanical properties :
#
#
# Convention : Reuss Voigt Hill
#
# Bulk Modulus (GPa) = 50.18081 60.24180 55.21130
# Shear Modulus (GPa) = 8.39256 21.33200 14.86228
#
# Velocity S-wave (km/s) = 2.08682 3.32700 2.77703
# Velocity P-wave (km/s) = 5.64311 6.78361 6.23947
#
# Compressibility (1/GPa) = 0.01992794
#
# Stress axis : x y z
#
# Youngs Moduli (GPa) = 73.61831 107.81347 53.19979
#
# Poissons Ratio (x) = 0.54080 0.28225
# Poissons Ratio (y) = 0.36928 0.02885
# Poissons Ratio (z) = 0.39058 0.05847
#
# Static dielectric constant tensor:
#      x y z
#    x 3.322200 0.000000 0.000000 
#    y 0.000000 3.870640 0.000000 
#    z 0.000000 0.000000 3.378750 
# 
# 
# High freq. dielectric constant tensor:
#      x y z
#    x 1.729440 0.000000 0.000000 
#    y 0.000000 1.753240 0.000000 
#    z 0.000000 0.000000 1.745140 
# 
# From -- ./inp_files/9456.got.cif
#   From: 2010.03.12/outbox.cif.g09.slc.cpg/sg65_5_cif.got.tgz:9456.got - 2010.04.10 20:52:16.
