data_PCOD8272629
_publ_section_title
;
Structure prediction by ZEFSAII (Michael W. Deem and Ramdas Pophale) SiO2 
 PCOD8272629
Probable space group: C M M M
;
_chemical_formula_sum "Si O2"
_cell_formula_units_Z 96
_cell_length_a 19.363285
_cell_length_b 14.832303
_cell_length_c 16.847361
_cell_angle_alpha 90.000000
_cell_angle_beta 90.000000
_cell_angle_gamma 90.000000
_cell_volume 4838.597630
_symmetry_space_group_name_H-M "C M M M"
_symmetry_group_IT_number 65
_symmetry_cell_setting 'orthorhombic'
loop_
_space_group_symop_operation_xyz
x,y,z
-x,-y,z
x,-y,-z
-x,y,-z
-x,-y,-z
x,y,-z
-x,y,z
x,-y,z
1/2+x,1/2+y,z
1/2-x,1/2-y,z
1/2+x,1/2-y,-z
1/2-x,1/2+y,-z
1/2-x,1/2-y,-z
1/2+x,1/2+y,-z
1/2-x,1/2+y,z
1/2+x,1/2-y,z
loop_
_atom_site_type_symbol
_atom_site_label
_atom_site_fract_x
_atom_site_fract_y
_atom_site_fract_z
Si Si1 0.199301 0.606170 0.826808
Si Si2 0.290517 0.103767 0.651280
Si Si3 0.075608 0.832785 0.500000
Si Si4 0.840564 0.896164 0.092508
Si Si5 0.781876 0.899334 0.500000
Si Si6 0.579690 0.758641 0.823519
Si Si7 0.075551 0.298956 0.645095
O O1 0.180380 0.500000 0.826099
O O2 0.225859 0.640256 0.739784
O O3 0.261314 0.628920 0.886685
O O4 0.130021 0.659985 0.852740
O O5 0.245469 0.150472 0.580616
O O6 0.371105 0.119839 0.633468
O O7 0.272217 0.000000 0.651035
O O8 0.135409 0.906816 0.500000
O O9 0.086345 0.774099 0.422220
O O10 0.000000 0.879169 0.500000
O O11 0.895273 0.835344 0.139240
O O12 0.855082 0.000000 0.115848
O O13 0.851332 0.879180 0.000000
O O14 0.750845 0.000000 0.500000
O O15 0.500000 0.778093 0.849479
O O16 0.584952 0.748343 0.728833
O O17 0.000000 0.343678 0.639198
#
# Coordination Sequence:
#
# PCOD8272629 Si02
#       7
#    16  16   8  16   8  16  16
#     4   9  19  36  58  83 114 149 184 226 277 333
#     4   9  18  32  51  78 107 136 174 220 266 312
#     4  10  21  36  50  68 102 144 183 222 264 312
#     4  10  22  40  61  83 109 144 186 230 276 330
#     4  10  21  34  50  74 102 134 181 232 270 310
#     4  10  21  36  56  85 116 146 185 230 277 332
#     4   9  19  34  51  75 107 142 178 214 260 319
#
# _framework density 19.840461000000001
#
# number of rings (size 3 to 8) (size 9 to 14) (size 15 to 20)
#    0.000    2.500    0.000    1.000    2.333    4.167 
#    0.000    4.167    0.000    6.000    0.000    3.500 
#    0.000    0.000    0.000    0.000    0.000    0.000 
#
# Total GULP energy -594875.056197 kJ/mol
# GULP energy per Si atom -12393.230337 kJ/mol
# Density = 1.979530 g / cm^3
# Si number density = 19.840461 Si / 1000 Ang^3
#
#
#
# Elastic Constant Matrix: (Units=GPa)
#
#
# Indices 1 2 3 4 5 6 
#
# 1 115.5828 30.0690 31.4698 0.0000 0.0000 0.0000
# 2 30.0690 50.0700 21.1541 0.0000 0.0000 0.0000
# 3 31.4698 21.1541 64.6162 0.0000 0.0000 0.0000
# 4 0.0000 0.0000 0.0000 12.6024 0.0000 0.0000
# 5 0.0000 0.0000 0.0000 0.0000-3233.7411 0.0000
# 6 0.0000 0.0000 0.0000 0.0000 0.0000 32.5083
#
#
#
# Elastic Compliance Matrix: (Units=1/GPa)
#
#
# Indices 1 2 3 4 5 6 
#
# 1 0.010965 -0.005023 -0.003696 0.000000 0.000000 0.000000
# 2 -0.005023 0.025479 -0.005895 0.000000 0.000000 0.000000
# 3 -0.003696 -0.005895 0.019206 0.000000 0.000000 0.000000
# 4 0.000000 0.000000 0.000000 0.079350 0.000000 0.000000
# 5 0.000000 0.000000 0.000000 0.000000 -0.000309 0.000000
# 6 0.000000 0.000000 0.000000 0.000000 0.000000 0.030761
#
#
# Mechanical properties :
#
#
# Convention : Reuss Voigt Hill
#
# Bulk Modulus (GPa) = 37.84719 43.96165 40.90442
# Shear Modulus (GPa) = 24.57151 -627.88770 -301.65810
#
# Velocity S-wave (km/s) = 3.52299 -17.80886 -12.34390
# Velocity P-wave (km/s) = 5.97208 20.01670 13.50930
#
# Compressibility (1/GPa) = 0.02642204
#
# Stress axis : x y z
#
# Youngs Moduli (GPa) = 91.20030 39.24739 52.06777
#
# Poissons Ratio (x) = 0.19716 0.19242
# Poissons Ratio (y) = 0.45814 0.30693
# Poissons Ratio (z) = 0.33704 0.23136
#
# Static dielectric constant tensor:
#      x y z
#    x 3.742250 0.000000 0.000000 
#    y 0.000000 3.351810 0.000000 
#    z 0.000000 0.000000 3.845620 
# 
# 
# High freq. dielectric constant tensor:
#      x y z
#    x 1.776490 0.000000 0.000000 
#    y 0.000000 1.751410 0.000000 
#    z 0.000000 0.000000 1.780300 
# 
# From -- ./inp_files/44179.got.cif
#   From: 2010.03.12/outbox.cif.g09.slc.cpg/sg65_23_cif.got.tgz:44179.got - 2010.04.10 20:52:16.
