data_PCOD8272129
_publ_section_title
;
Structure prediction by ZEFSAII (Michael W. Deem and Ramdas Pophale) SiO2 
 PCOD8272129
Probable space group: C M M M
;
_chemical_formula_sum "Si O2"
_cell_formula_units_Z 88
_cell_length_a 30.314093
_cell_length_b 9.114787
_cell_length_c 16.916162
_cell_angle_alpha 90.000000
_cell_angle_beta 90.000000
_cell_angle_gamma 90.000000
_cell_volume 4674.045529
_symmetry_space_group_name_H-M "C M M M"
_symmetry_group_IT_number 65
_symmetry_cell_setting 'orthorhombic'
loop_
_space_group_symop_operation_xyz
x,y,z
-x,-y,z
x,-y,-z
-x,y,-z
-x,-y,-z
x,y,-z
-x,y,z
x,-y,z
1/2+x,1/2+y,z
1/2-x,1/2-y,z
1/2+x,1/2-y,-z
1/2-x,1/2+y,-z
1/2-x,1/2-y,-z
1/2+x,1/2+y,-z
1/2-x,1/2+y,z
1/2+x,1/2-y,z
loop_
_atom_site_type_symbol
_atom_site_label
_atom_site_fract_x
_atom_site_fract_y
_atom_site_fract_z
Si Si1 0.204625 0.827712 0.909859
Si Si2 0.114573 0.174975 0.375485
Si Si3 0.552317 0.174398 0.500000
Si Si4 0.624162 0.674224 0.195651
Si Si5 0.210848 0.158328 0.410172
Si Si6 0.048405 0.174574 0.087724
O O1 0.250000 0.750000 0.888229
O O2 0.168960 0.769176 0.845967
O O3 0.211741 0.000000 0.901093
O O4 0.189564 0.789901 0.000000
O O5 0.075344 0.256832 0.421996
O O6 0.116331 0.226923 0.284832
O O7 0.162097 0.228546 0.408431
O O8 0.107765 0.000000 0.386238
O O9 0.500000 0.213401 0.500000
O O10 0.559287 0.000000 0.500000
O O11 0.623717 0.500000 0.191997
O O12 0.583751 0.743440 0.146892
O O13 0.225475 0.135537 0.500000
O O14 0.250000 0.250000 0.367404
O O15 0.208651 0.000000 0.366536
O O16 0.000000 0.223781 0.116532
O O17 0.051829 0.000000 0.086774
O O18 0.057790 0.235013 0.000000
#
# Coordination Sequence:
#
# PCOD8272129 Si02
#       6
#    16  16   8  16  16  16
#     4   9  17  30  48  72 106 147 185 217 251 295
#     4  10  20  36  56  79 105 132 170 219 263 308
#     4  11  25  43  60  77 100 133 172 211 260 325
#     4   9  17  28  46  72 101 132 167 209 255 298
#     4   9  17  30  48  71  98 126 158 197 244 294
#     4   8  13  22  38  63  96 129 159 195 242 296
#
# _framework density 18.827373000000001
#
# number of rings (size 3 to 8) (size 9 to 14) (size 15 to 20)
#    0.000    2.818    0.909    1.364    0.000    5.091 
#    0.000    2.727    0.000    0.000    0.000    0.000 
#    0.000    0.000    0.000   12.545    0.000   11.273 
#
# Total GULP energy -545170.270537 kJ/mol
# GULP energy per Si atom -12390.233421 kJ/mol
# Density = 1.878452 g / cm^3
# Si number density = 18.827373 Si / 1000 Ang^3
#
#
#
# Elastic Constant Matrix: (Units=GPa)
#
#
# Indices 1 2 3 4 5 6 
#
# 1 176.6086 48.3349 83.6481 0.0000 0.0000 0.0000
# 2 48.3349 40.2563 28.7435 0.0000 0.0000 0.0000
# 3 83.6481 28.7435 129.4025 0.0000 0.0000 0.0000
# 4 0.0000 0.0000 0.0000 11.7014 0.0000 0.0000
# 5 0.0000 0.0000 0.0000 0.0000 14.8856 0.0000
# 6 0.0000 0.0000 0.0000 0.0000 0.0000 25.8162
#
#
#
# Elastic Compliance Matrix: (Units=1/GPa)
#
#
# Indices 1 2 3 4 5 6 
#
# 1 0.010374 -0.009113 -0.004682 0.000000 0.000000 0.000000
# 2 -0.009113 0.037528 -0.002445 0.000000 0.000000 0.000000
# 3 -0.004682 -0.002445 0.011297 0.000000 0.000000 0.000000
# 4 0.000000 0.000000 0.000000 0.085460 0.000000 0.000000
# 5 0.000000 0.000000 0.000000 0.000000 0.067179 0.000000
# 6 0.000000 0.000000 0.000000 0.000000 0.000000 0.038735
#
#
# Mechanical properties :
#
#
# Convention : Reuss Voigt Hill
#
# Bulk Modulus (GPa) = 37.42525 74.19115 55.80820
# Shear Modulus (GPa) = 17.12571 22.85004 19.98788
#
# Velocity S-wave (km/s) = 3.01926 3.48754 3.26182
# Velocity P-wave (km/s) = 5.66355 7.46383 6.62513
#
# Compressibility (1/GPa) = 0.02671993
#
# Stress axis : x y z
#
# Youngs Moduli (GPa) = 96.39908 26.64663 88.51746
#
# Poissons Ratio (x) = 0.24282 0.41439
# Poissons Ratio (y) = 0.87845 0.21646
# Poissons Ratio (z) = 0.45129 0.06516
#
# Static dielectric constant tensor:
#      x y z
#    x 3.679640 0.000000 0.000000 
#    y 0.000000 3.128660 0.000000 
#    z 0.000000 0.000000 3.586380 
# 
# 
# High freq. dielectric constant tensor:
#      x y z
#    x 1.744270 0.000000 0.000000 
#    y 0.000000 1.677000 0.000000 
#    z 0.000000 0.000000 1.727840 
# 
# From -- ./inp_files/58030.got.cif
#   From: 2010.03.12/outbox.cif.g09.slc.cpg/sg65_30_cif.got.tgz:58030.got - 2010.04.10 20:52:16.
