data_PCOD8272653
_publ_section_title
;
Structure prediction by ZEFSAII (Michael W. Deem and Ramdas Pophale) SiO2 
 PCOD8272653
Probable space group: C M M M
;
_chemical_formula_sum "Si O2"
_cell_formula_units_Z 64
_cell_length_a 18.159773
_cell_length_b 9.135327
_cell_length_c 21.828342
_cell_angle_alpha 90.000000
_cell_angle_beta 90.000000
_cell_angle_gamma 90.000000
_cell_volume 3621.222938
_symmetry_space_group_name_H-M "C M M M"
_symmetry_group_IT_number 65
_symmetry_cell_setting 'orthorhombic'
loop_
_space_group_symop_operation_xyz
x,y,z
-x,-y,z
x,-y,-z
-x,y,-z
-x,-y,-z
x,y,-z
-x,y,z
x,-y,z
1/2+x,1/2+y,z
1/2-x,1/2-y,z
1/2+x,1/2-y,-z
1/2-x,1/2+y,-z
1/2-x,1/2-y,-z
1/2+x,1/2+y,-z
1/2-x,1/2+y,z
1/2+x,1/2-y,z
loop_
_atom_site_type_symbol
_atom_site_label
_atom_site_fract_x
_atom_site_fract_y
_atom_site_fract_z
Si Si1 0.086631 0.500000 0.928912
Si Si2 0.083444 0.830044 0.742488
Si Si3 0.821427 0.338264 0.839571
Si Si4 0.413963 0.334108 0.398128
Si Si5 0.827671 0.327261 0.500000
O O1 0.122380 0.644856 0.897271
O O2 0.000000 0.500000 0.917318
O O3 0.106677 0.500000 0.000000
O O4 0.139406 0.740504 0.783528
O O5 0.105735 0.802463 0.672297
O O6 0.000000 0.775586 0.754185
O O7 0.089733 0.000000 0.759231
O O8 0.796788 0.500000 0.816928
O O9 0.750000 0.250000 0.861659
O O10 0.500000 0.312598 0.409822
O O11 0.391089 0.500000 0.415627
O O12 0.370996 0.218917 0.439219
O O13 0.817183 0.500000 0.500000
O O14 0.750000 0.250000 0.500000
#
# Coordination Sequence:
#
# PCOD8272653 Si02
#       5
#     8  16  16  16   8
#     4   9  20  38  60  84 113 152 196 236 278 334
#     4   9  18  34  58  84 112 146 186 231 280 337
#     4  10  21  34  55  83 116 151 188 229 284 333
#     4   9  19  37  59  81 106 142 182 226 280 337
#     4  12  25  38  53  75 105 143 185 232 287 336
#
# _framework density 17.673587000000001
#
# number of rings (size 3 to 8) (size 9 to 14) (size 15 to 20)
#    0.750    1.625    0.000    4.500    0.000    4.500 
#    0.000    2.500    0.000    0.000    0.000    5.250 
#    0.000    0.000    0.000    0.000    0.000    0.000 
#
# Total GULP energy -396709.533219 kJ/mol
# GULP energy per Si atom -12397.172913 kJ/mol
# Density = 1.763336 g / cm^3
# Si number density = 17.673587 Si / 1000 Ang^3
#
#
#
# Elastic Constant Matrix: (Units=GPa)
#
#
# Indices 1 2 3 4 5 6 
#
# 1 108.3269 61.6956 69.1950 0.0000 0.0000 0.0000
# 2 61.6956 110.0938 60.6120 0.0000 0.0000 0.0000
# 3 69.1950 60.6120 113.0876 0.0000 0.0000 0.0000
# 4 0.0000 0.0000 0.0000 22.9875 0.0000 0.0000
# 5 0.0000 0.0000 0.0000 0.0000 11.5812 0.0000
# 6 0.0000 0.0000 0.0000 0.0000 0.0000 35.1666
#
#
#
# Elastic Compliance Matrix: (Units=1/GPa)
#
#
# Indices 1 2 3 4 5 6 
#
# 1 0.017187 -0.005450 -0.007595 0.000000 0.000000 0.000000
# 2 -0.005450 0.014613 -0.004498 0.000000 0.000000 0.000000
# 3 -0.007595 -0.004498 0.015901 0.000000 0.000000 0.000000
# 4 0.000000 0.000000 0.000000 0.043502 0.000000 0.000000
# 5 0.000000 0.000000 0.000000 0.000000 0.086347 0.000000
# 6 0.000000 0.000000 0.000000 0.000000 0.000000 0.028436
#
#
# Mechanical properties :
#
#
# Convention : Reuss Voigt Hill
#
# Bulk Modulus (GPa) = 79.26879 79.39038 79.32959
# Shear Modulus (GPa) = 20.38521 23.28077 21.83299
#
# Velocity S-wave (km/s) = 3.39990 3.63335 3.51856
# Velocity P-wave (km/s) = 7.76926 7.91325 7.84158
#
# Compressibility (1/GPa) = 0.01261530
#
# Stress axis : x y z
#
# Youngs Moduli (GPa) = 58.18514 68.43002 62.89055
#
# Poissons Ratio (x) = 0.37293 0.47765
# Poissons Ratio (y) = 0.31709 0.28288
# Poissons Ratio (z) = 0.44192 0.30779
#
# Static dielectric constant tensor:
#      x y z
#    x 3.269080 0.000000 0.000000 
#    y 0.000000 3.192610 0.000000 
#    z 0.000000 0.000000 3.246790 
# 
# 
# High freq. dielectric constant tensor:
#      x y z
#    x 1.688840 0.000000 0.000000 
#    y 0.000000 1.675390 0.000000 
#    z 0.000000 0.000000 1.680150 
# 
# From -- ./inp_files/70282.got.cif
#   From: 2010.03.12/outbox.cif.g09.slc.cpg/sg65_36_cif.got.tgz:70282.got - 2010.04.10 20:52:16.
