data_PCOD8272111
_publ_section_title
;
Structure prediction by ZEFSAII (Michael W. Deem and Ramdas Pophale) SiO2 
 PCOD8272111
Probable space group: C M M M
;
_chemical_formula_sum "Si O2"
_cell_formula_units_Z 72
_cell_length_a 9.016794
_cell_length_b 28.218779
_cell_length_c 15.241451
_cell_angle_alpha 90.000000
_cell_angle_beta 90.000000
_cell_angle_gamma 90.000000
_cell_volume 3878.079254
_symmetry_space_group_name_H-M "C M M M"
_symmetry_group_IT_number 65
_symmetry_cell_setting 'orthorhombic'
loop_
_space_group_symop_operation_xyz
x,y,z
-x,-y,z
x,-y,-z
-x,y,-z
-x,-y,-z
x,y,-z
-x,y,z
x,-y,z
1/2+x,1/2+y,z
1/2-x,1/2-y,z
1/2+x,1/2-y,-z
1/2-x,1/2+y,-z
1/2-x,1/2-y,-z
1/2+x,1/2+y,-z
1/2-x,1/2+y,z
1/2+x,1/2-y,z
loop_
_atom_site_type_symbol
_atom_site_label
_atom_site_fract_x
_atom_site_fract_y
_atom_site_fract_z
Si Si1 0.832067 0.201607 0.000000
Si Si2 0.331053 0.555149 0.399660
Si Si3 0.173653 0.800974 0.809536
Si Si4 0.669292 0.555961 0.900458
Si Si5 0.674109 0.110645 0.748208
O O1 0.750000 0.250000 0.000000
O O2 0.797780 0.175610 0.092520
O O3 0.000000 0.217575 0.000000
O O4 0.306544 0.570676 0.500000
O O5 0.500000 0.565759 0.370495
O O6 0.296384 0.500000 0.387974
O O7 0.217411 0.583737 0.340198
O O8 0.250000 0.750000 0.799556
O O9 0.247586 0.838006 0.743431
O O10 0.000000 0.795467 0.788867
O O11 0.500000 0.570422 0.878275
O O12 0.689744 0.500000 0.890655
O O13 0.778445 0.581103 0.833308
O O14 0.707283 0.571858 0.000000
O O15 0.500000 0.118358 0.751143
#
# Coordination Sequence:
#
# PCOD8272111 Si02
#       5
#     8  16  16  16  16
#     4   8  16  30  50  72  95 130 175 224 272 313
#     4   9  19  38  63  87 110 140 181 228 277 329
#     4  10  20  36  55  77 106 143 187 234 279 324
#     4   9  19  36  55  74 102 144 190 231 271 319
#     4  12  24  34  51  82 115 148 182 221 273 333
#
# _framework density 18.565892999999999
#
# number of rings (size 3 to 8) (size 9 to 14) (size 15 to 20)
#    0.000    2.222    0.000    4.667    1.556    5.333 
#    0.000    2.222    0.000    0.667    0.000    0.000 
#    0.000    0.000    0.000    0.000    0.000    0.000 
#
# Total GULP energy -446257.282435 kJ/mol
# GULP energy per Si atom -12396.035623 kJ/mol
# Density = 1.852364 g / cm^3
# Si number density = 18.565893 Si / 1000 Ang^3
#
#
#
# Elastic Constant Matrix: (Units=GPa)
#
#
# Indices 1 2 3 4 5 6 
#
# 1 120.8142 50.7432 48.3120 0.0000 0.0000 0.0000
# 2 50.7432 67.9354 47.1487 0.0000 0.0000 0.0000
# 3 48.3120 47.1487 86.4197 0.0000 0.0000 0.0000
# 4 0.0000 0.0000 0.0000 22.2886 0.0000 0.0000
# 5 0.0000 0.0000 0.0000 0.0000 24.1915 0.0000
# 6 0.0000 0.0000 0.0000 0.0000 0.0000 31.1204
#
#
#
# Elastic Compliance Matrix: (Units=1/GPa)
#
#
# Indices 1 2 3 4 5 6 
#
# 1 0.012544 -0.007247 -0.003059 0.000000 0.000000 0.000000
# 2 -0.007247 0.027876 -0.011158 0.000000 0.000000 0.000000
# 3 -0.003059 -0.011158 0.019369 0.000000 0.000000 0.000000
# 4 0.000000 0.000000 0.000000 0.044866 0.000000 0.000000
# 5 0.000000 0.000000 0.000000 0.000000 0.041337 0.000000
# 6 0.000000 0.000000 0.000000 0.000000 0.000000 0.032133
#
#
# Mechanical properties :
#
#
# Convention : Reuss Voigt Hill
#
# Bulk Modulus (GPa) = 59.30202 63.06413 61.18307
# Shear Modulus (GPa) = 22.05829 24.11781 23.08805
#
# Velocity S-wave (km/s) = 3.45063 3.60813 3.53026
# Velocity P-wave (km/s) = 6.92001 7.16935 7.04578
#
# Compressibility (1/GPa) = 0.01686283
#
# Stress axis : x y z
#
# Youngs Moduli (GPa) = 79.71901 35.87300 51.62920
#
# Poissons Ratio (x) = 0.25995 0.15794
# Poissons Ratio (y) = 0.57768 0.57605
# Poissons Ratio (z) = 0.24387 0.40025
#
# Static dielectric constant tensor:
#      x y z
#    x 3.329260 0.000000 0.000000 
#    y 0.000000 3.278290 0.000000 
#    z 0.000000 0.000000 3.377000 
# 
# 
# High freq. dielectric constant tensor:
#      x y z
#    x 1.717790 0.000000 0.000000 
#    y 0.000000 1.717850 0.000000 
#    z 0.000000 0.000000 1.708260 
# 
# From -- ./inp_files/36557.got.cif
#   From: 2010.03.12/outbox.cif.g09.slc.cpg/sg65_19_cif.got.tgz:36557.got - 2010.04.10 20:52:16.
