data_PCOD8272022
_publ_section_title
;
Structure prediction by ZEFSAII (Michael W. Deem and Ramdas Pophale) SiO2 
 PCOD8272022
Probable space group: C M M M
;
_chemical_formula_sum "Si O2"
_cell_formula_units_Z 72
_cell_length_a 8.989244
_cell_length_b 23.315262
_cell_length_c 17.520499
_cell_angle_alpha 90.000000
_cell_angle_beta 90.000000
_cell_angle_gamma 90.000000
_cell_volume 3672.061449
_symmetry_space_group_name_H-M "C M M M"
_symmetry_group_IT_number 65
_symmetry_cell_setting 'orthorhombic'
loop_
_space_group_symop_operation_xyz
x,y,z
-x,-y,z
x,-y,-z
-x,y,-z
-x,-y,-z
x,y,-z
-x,y,z
x,-y,z
1/2+x,1/2+y,z
1/2-x,1/2-y,z
1/2+x,1/2-y,-z
1/2-x,1/2+y,-z
1/2-x,1/2-y,-z
1/2+x,1/2+y,-z
1/2-x,1/2+y,z
1/2+x,1/2-y,z
loop_
_atom_site_type_symbol
_atom_site_label
_atom_site_fract_x
_atom_site_fract_y
_atom_site_fract_z
Si Si1 0.823945 0.500000 0.912420
Si Si2 0.326557 0.612518 0.859652
Si Si3 0.325634 0.691062 0.717899
Si Si4 0.674281 0.310599 0.000000
Si Si5 0.323144 0.124077 0.587799
Si Si6 0.337715 0.000000 0.590160
O O1 0.765942 0.445457 0.866092
O O2 0.000000 0.500000 0.911425
O O3 0.764240 0.500000 0.000000
O O4 0.500000 0.597807 0.868392
O O5 0.289992 0.641984 0.779309
O O6 0.272887 0.655077 0.925844
O O7 0.500000 0.701925 0.709459
O O8 0.250000 0.750000 0.744685
O O9 0.258661 0.671996 0.637071
O O10 0.750000 0.250000 0.000000
O O11 0.500000 0.300282 0.000000
O O12 0.284408 0.137136 0.500000
O O13 0.500000 0.126343 0.601058
O O14 0.258845 0.060437 0.612243
O O15 0.500000 0.000000 0.629097
O O16 0.359851 0.000000 0.500000
#
# Coordination Sequence:
#
# PCOD8272022 Si02
#       6
#     8  16  16   8  16   8
#     4  11  23  38  61  94 123 151 192 241 286 336
#     4  10  22  40  61  84 115 156 193 232 290 351
#     4  11  24  40  58  83 115 152 197 246 296 349
#     4  10  20  35  58  83 109 148 192 232 279 336
#     4   9  18  35  60  87 116 154 197 241 293 351
#     4   7  12  27  53  82 108 136 177 226 275 334
#
# _framework density 19.607514999999999
#
# number of rings (size 3 to 8) (size 9 to 14) (size 15 to 20)
#    0.000    2.222    1.111    3.000    0.000    4.889 
#    0.000    2.778    0.000    2.000    0.000    0.000 
#    0.000    0.000    0.000    0.000    0.000    0.000 
#
# Total GULP energy -446330.691811 kJ/mol
# GULP energy per Si atom -12398.074773 kJ/mol
# Density = 1.956289 g / cm^3
# Si number density = 19.607515 Si / 1000 Ang^3
#
#
#
# Elastic Constant Matrix: (Units=GPa)
#
#
# Indices 1 2 3 4 5 6 
#
# 1 70.6448 61.2661 47.2132 0.0000 0.0000 0.0000
# 2 61.2661 146.1629 52.7471 0.0000 0.0000 0.0000
# 3 47.2132 52.7471 100.9689 0.0000 0.0000 0.0000
# 4 0.0000 0.0000 0.0000 41.1631 0.0000 0.0000
# 5 0.0000 0.0000 0.0000 0.0000 26.5607 0.0000
# 6 0.0000 0.0000 0.0000 0.0000 0.0000 32.5867
#
#
#
# Elastic Compliance Matrix: (Units=1/GPa)
#
#
# Indices 1 2 3 4 5 6 
#
# 1 0.026829 -0.008279 -0.008220 0.000000 0.000000 0.000000
# 2 -0.008279 0.010986 -0.001868 0.000000 0.000000 0.000000
# 3 -0.008220 -0.001868 0.014724 0.000000 0.000000 0.000000
# 4 0.000000 0.000000 0.000000 0.024294 0.000000 0.000000
# 5 0.000000 0.000000 0.000000 0.000000 0.037650 0.000000
# 6 0.000000 0.000000 0.000000 0.000000 0.000000 0.030687
#
#
# Mechanical properties :
#
#
# Convention : Reuss Voigt Hill
#
# Bulk Modulus (GPa) = 63.27416 71.13660 67.20538
# Shear Modulus (GPa) = 26.71336 30.49878 28.60607
#
# Velocity S-wave (km/s) = 3.69508 3.94822 3.82374
# Velocity P-wave (km/s) = 7.10952 7.55934 7.33788
#
# Compressibility (1/GPa) = 0.01580424
#
# Stress axis : x y z
#
# Youngs Moduli (GPa) = 37.27281 91.02385 67.91823
#
# Poissons Ratio (x) = 0.75362 0.55830
# Poissons Ratio (y) = 0.30859 0.12686
# Poissons Ratio (z) = 0.30639 0.17002
#
# Static dielectric constant tensor:
#      x y z
#    x 3.332720 0.000000 0.000000 
#    y 0.000000 3.481220 0.000000 
#    z 0.000000 0.000000 3.530280 
# 
# 
# High freq. dielectric constant tensor:
#      x y z
#    x 1.743630 0.000000 0.000000 
#    y 0.000000 1.778930 0.000000 
#    z 0.000000 0.000000 1.760110 
# 
# From -- ./inp_files/49577.got.cif
#   From: 2010.03.12/outbox.cif.g09.slc.cpg/sg65_25_cif.got.tgz:49577.got - 2010.04.10 20:52:16.
