data_PCOD8272118
_publ_section_title
;
Structure prediction by ZEFSAII (Michael W. Deem and Ramdas Pophale) SiO2 
 PCOD8272118
Probable space group: C M M M
;
_chemical_formula_sum "Si O2"
_cell_formula_units_Z 88
_cell_length_a 13.120988
_cell_length_b 13.235036
_cell_length_c 27.900379
_cell_angle_alpha 90.000000
_cell_angle_beta 90.000000
_cell_angle_gamma 90.000000
_cell_volume 4845.089100
_symmetry_space_group_name_H-M "C M M M"
_symmetry_group_IT_number 65
_symmetry_cell_setting 'orthorhombic'
loop_
_space_group_symop_operation_xyz
x,y,z
-x,-y,z
x,-y,-z
-x,y,-z
-x,-y,-z
x,y,-z
-x,y,z
x,-y,z
1/2+x,1/2+y,z
1/2-x,1/2-y,z
1/2+x,1/2-y,-z
1/2-x,1/2+y,-z
1/2-x,1/2-y,-z
1/2+x,1/2+y,-z
1/2-x,1/2+y,z
1/2+x,1/2-y,z
loop_
_atom_site_type_symbol
_atom_site_label
_atom_site_fract_x
_atom_site_fract_y
_atom_site_fract_z
Si Si1 0.119141 0.619377 0.154335
Si Si2 0.618490 0.118406 0.949496
Si Si3 0.311060 0.613601 0.598031
Si Si4 0.250000 0.250000 0.774281
Si Si5 0.614248 0.810117 0.555274
Si Si6 0.618466 0.616669 0.704080
O O1 0.136113 0.500000 0.159678
O O2 0.160217 0.658581 0.101737
O O3 0.183788 0.674526 0.194283
O O4 0.000000 0.645739 0.160653
O O5 0.500000 0.143142 0.950133
O O6 0.637222 0.000000 0.949921
O O7 0.666185 0.163211 0.000000
O O8 0.346984 0.500000 0.586005
O O9 0.373134 0.690245 0.564434
O O10 0.190246 0.625662 0.588409
O O11 0.330567 0.639772 0.653114
O O12 0.327535 0.314654 0.743023
O O13 0.639034 0.832325 0.500000
O O14 0.500000 0.843854 0.568183
O O15 0.500000 0.645915 0.701448
O O16 0.632912 0.500000 0.718446
#
# Coordination Sequence:
#
# PCOD8272118 Si02
#       6
#    16  16  16   8  16  16
#     4   9  18  31  47  71 100 127 161 203 243 289
#     4   7  10  20  40  63  89 124 160 193 234 282
#     4  10  20  36  56  74  96 130 170 206 237 276
#     4  12  20  32  53  74  97 130 160 198 254 302
#     4  10  21  35  52  79 111 135 157 191 237 288
#     4  10  22  38  54  73  97 127 165 206 246 290
#
# _framework density 18.16272
#
# number of rings (size 3 to 8) (size 9 to 14) (size 15 to 20)
#    0.000    2.545    0.000    5.455    0.000    2.909 
#    0.000    3.182    0.000    2.182    0.000    0.000 
#    0.000    0.000    0.000   22.182    0.000    1.455 
#
# Total GULP energy -545142.172859 kJ/mol
# GULP energy per Si atom -12389.594838 kJ/mol
# Density = 1.812138 g / cm^3
# Si number density = 18.162720 Si / 1000 Ang^3
#
#
#
# Elastic Constant Matrix: (Units=GPa)
#
#
# Indices 1 2 3 4 5 6 
#
# 1 100.3446 30.8257 78.8587 0.0000 0.0000 0.0000
# 2 30.8257 51.5978 41.8475 0.0000 0.0000 0.0000
# 3 78.8587 41.8475 137.6222 0.0000 0.0000 0.0000
# 4 0.0000 0.0000 0.0000 42.1069 0.0000 0.0000
# 5 0.0000 0.0000 0.0000 0.0000 3.5799 0.0000
# 6 0.0000 0.0000 0.0000 0.0000 0.0000 19.0856
#
#
#
# Elastic Compliance Matrix: (Units=1/GPa)
#
#
# Indices 1 2 3 4 5 6 
#
# 1 0.018535 -0.003265 -0.009628 0.000000 0.000000 0.000000
# 2 -0.003265 0.026300 -0.006126 0.000000 0.000000 0.000000
# 3 -0.009628 -0.006126 0.014646 0.000000 0.000000 0.000000
# 4 0.000000 0.000000 0.000000 0.023749 0.000000 0.000000
# 5 0.000000 0.000000 0.000000 0.000000 0.279340 0.000000
# 6 0.000000 0.000000 0.000000 0.000000 0.000000 0.052396
#
#
# Mechanical properties :
#
#
# Convention : Reuss Voigt Hill
#
# Bulk Modulus (GPa) = 46.63585 65.84761 56.24173
# Shear Modulus (GPa) = 10.86598 22.15664 16.51131
#
# Velocity S-wave (km/s) = 2.44858 3.49649 3.01836
# Velocity P-wave (km/s) = 5.80745 7.25490 6.57115
#
# Compressibility (1/GPa) = 0.02144273
#
# Stress axis : x y z
#
# Youngs Moduli (GPa) = 53.95192 38.02309 68.27735
#
# Poissons Ratio (x) = 0.12413 0.65738
# Poissons Ratio (y) = 0.17613 0.41830
# Poissons Ratio (z) = 0.51945 0.23295
#
# Static dielectric constant tensor:
#      x y z
#    x 3.216980 0.000000 0.000000 
#    y 0.000000 3.178850 0.000000 
#    z 0.000000 0.000000 3.696640 
# 
# 
# High freq. dielectric constant tensor:
#      x y z
#    x 1.689100 0.000000 0.000000 
#    y 0.000000 1.683270 0.000000 
#    z 0.000000 0.000000 1.721280 
# 
# From -- ./inp_files/69876.got.cif
#   From: 2010.03.12/outbox.cif.g09.slc.cpg/sg65_35_cif.got.tgz:69876.got - 2010.04.10 20:52:16.
