data_PCOD8272818
_publ_section_title
;
Structure prediction by ZEFSAII (Michael W. Deem and Ramdas Pophale) SiO2 
 PCOD8272818
Probable space group: C M M M
;
_chemical_formula_sum "Si O2"
_cell_formula_units_Z 64
_cell_length_a 27.971240
_cell_length_b 14.864094
_cell_length_c 7.886943
_cell_angle_alpha 90.000000
_cell_angle_beta 90.000000
_cell_angle_gamma 90.000000
_cell_volume 3279.131740
_symmetry_space_group_name_H-M "C M M M"
_symmetry_group_IT_number 65
_symmetry_cell_setting 'orthorhombic'
loop_
_space_group_symop_operation_xyz
x,y,z
-x,-y,z
x,-y,-z
-x,y,-z
-x,-y,-z
x,y,-z
-x,y,z
x,-y,z
1/2+x,1/2+y,z
1/2-x,1/2-y,z
1/2+x,1/2-y,-z
1/2-x,1/2+y,-z
1/2-x,1/2-y,-z
1/2+x,1/2+y,-z
1/2-x,1/2+y,z
1/2+x,1/2-y,z
loop_
_atom_site_type_symbol
_atom_site_label
_atom_site_fract_x
_atom_site_fract_y
_atom_site_fract_z
Si Si1 0.708425 0.000000 0.201828
Si Si2 0.185791 0.000000 0.199180
Si Si3 0.617311 0.339317 0.801454
Si Si4 0.447310 0.000000 0.305830
Si Si5 0.944127 0.897561 0.500000
Si Si6 0.130874 0.634419 0.803965
O O1 0.761468 0.000000 0.283871
O O2 0.678808 0.086976 0.267882
O O3 0.713619 0.000000 0.000000
O O4 0.158044 0.909843 0.254530
O O5 0.191238 0.000000 0.000000
O O6 0.573052 0.352349 0.675204
O O7 0.636377 0.239525 0.765895
O O8 0.602140 0.352353 0.000000
O O9 0.417608 0.909169 0.267721
O O10 0.500000 0.000000 0.213440
O O11 0.458784 0.000000 0.500000
O O12 0.000000 0.886968 0.500000
O O13 0.926912 0.000000 0.500000
O O14 0.128086 0.613395 0.000000
#
# Coordination Sequence:
#
# PCOD8272818 Si02
#       6
#     8   8  16   8   8  16
#     4   8  15  31  56  86 114 147 189 227 280 341
#     4   9  17  32  58  86 114 148 187 232 278 337
#     4  10  21  38  60  86 116 151 190 235 286 338
#     4  10  21  35  53  77 107 145 186 231 283 339
#     4  11  24  40  60  82 112 152 190 239 288 337
#     4   9  19  35  56  82 113 146 185 234 281 336
#
# _framework density 19.517363
#
# number of rings (size 3 to 8) (size 9 to 14) (size 15 to 20)
#    0.000    2.500    1.250    1.125    1.750    3.500 
#    0.000    8.750   11.000    1.500    0.000    0.000 
#    0.000    0.000    0.000    0.000    0.000    0.000 
#
# Total GULP energy -396548.712749 kJ/mol
# GULP energy per Si atom -12392.147273 kJ/mol
# Density = 1.947294 g / cm^3
# Si number density = 19.517363 Si / 1000 Ang^3
#
#
#
# Elastic Constant Matrix: (Units=GPa)
#
#
# Indices 1 2 3 4 5 6 
#
# 1 107.8695 64.7517 33.6102 0.0000 0.0000 0.0000
# 2 64.7517 162.7249 34.8804 0.0000 0.0000 0.0000
# 3 33.6102 34.8804 67.2987 0.0000 0.0000 0.0000
# 4 0.0000 0.0000 0.0000 11.9452 0.0000 0.0000
# 5 0.0000 0.0000 0.0000 0.0000 -904.9621 0.0000
# 6 0.0000 0.0000 0.0000 0.0000 0.0000 17.6080
#
#
#
# Elastic Compliance Matrix: (Units=1/GPa)
#
#
# Indices 1 2 3 4 5 6 
#
# 1 0.013228 -0.004329 -0.004363 0.000000 0.000000 0.000000
# 2 -0.004329 0.008330 -0.002156 0.000000 0.000000 0.000000
# 3 -0.004363 -0.002156 0.018155 0.000000 0.000000 0.000000
# 4 0.000000 0.000000 0.000000 0.083716 0.000000 0.000000
# 5 0.000000 0.000000 0.000000 0.000000 -0.001105 0.000000
# 6 0.000000 0.000000 0.000000 0.000000 0.000000 0.056792
#
#
# Mechanical properties :
#
#
# Convention : Reuss Voigt Hill
#
# Bulk Modulus (GPa) = 55.49632 67.15308 61.32470
# Shear Modulus (GPa) = 24.17598 -161.43839 -68.63121
#
# Velocity S-wave (km/s) = 3.52332 -9.10466 -5.93637
# Velocity P-wave (km/s) = 6.71177 8.72037 3.93682
#
# Compressibility (1/GPa) = 0.01801921
#
# Stress axis : x y z
#
# Youngs Moduli (GPa) = 75.59583 120.05063 55.08049
#
# Poissons Ratio (x) = 0.51965 0.24031
# Poissons Ratio (y) = 0.32722 0.11873
# Poissons Ratio (z) = 0.32982 0.25877
#
# Static dielectric constant tensor:
#      x y z
#    x 3.752170 0.000000 0.000000 
#    y 0.000000 3.833640 0.000000 
#    z 0.000000 0.000000 3.390290 
# 
# 
# High freq. dielectric constant tensor:
#      x y z
#    x 1.756310 0.000000 0.000000 
#    y 0.000000 1.766480 0.000000 
#    z 0.000000 0.000000 1.746840 
# 
# From -- ./inp_files/13446.got.cif
#   From: 2010.03.12/outbox.cif.g09.slc.cpg/sg65_7_cif.got.tgz:13446.got - 2010.04.10 20:52:16.
