data_PCOD8272942
_publ_section_title
;
Structure prediction by ZEFSAII (Michael W. Deem and Ramdas Pophale) SiO2 
 PCOD8272942
Probable space group: C M M M
;
_chemical_formula_sum "Si O2"
_cell_formula_units_Z 88
_cell_length_a 9.131275
_cell_length_b 18.230429
_cell_length_c 28.849421
_cell_angle_alpha 90.000000
_cell_angle_beta 90.000000
_cell_angle_gamma 90.000000
_cell_volume 4802.478313
_symmetry_space_group_name_H-M "C M M M"
_symmetry_group_IT_number 65
_symmetry_cell_setting 'orthorhombic'
loop_
_space_group_symop_operation_xyz
x,y,z
-x,-y,z
x,-y,-z
-x,y,-z
-x,-y,-z
x,y,-z
-x,y,z
x,-y,z
1/2+x,1/2+y,z
1/2-x,1/2-y,z
1/2+x,1/2-y,-z
1/2-x,1/2+y,-z
1/2-x,1/2-y,-z
1/2+x,1/2+y,-z
1/2-x,1/2+y,z
1/2+x,1/2-y,z
loop_
_atom_site_type_symbol
_atom_site_label
_atom_site_fract_x
_atom_site_fract_y
_atom_site_fract_z
Si Si1 0.170820 0.584160 0.090491
Si Si2 0.829935 0.914414 0.261504
Si Si3 0.665178 0.587240 0.000000
Si Si4 0.329396 0.326579 0.451087
Si Si5 0.826821 0.327855 0.818301
Si Si6 0.171203 0.827086 0.649022
O O1 0.215659 0.500000 0.100544
O O2 0.217992 0.632078 0.134306
O O3 0.000000 0.590286 0.079770
O O4 0.255131 0.616738 0.046026
O O5 0.728459 0.876893 0.223706
O O6 0.781892 0.884522 0.311781
O O7 0.000000 0.897434 0.250933
O O8 0.797102 0.000000 0.260869
O O9 0.672607 0.500000 0.000000
O O10 0.500000 0.616885 0.000000
O O11 0.289992 0.369700 0.500000
O O12 0.500000 0.309858 0.450654
O O13 0.250000 0.250000 0.452386
O O14 0.287653 0.363857 0.401563
O O15 0.750000 0.250000 0.816604
O O16 0.000000 0.317608 0.813987
O O17 0.250000 0.750000 0.657442
O O18 0.000000 0.810420 0.652133
#
# Coordination Sequence:
#
# PCOD8272942 Si02
#       6
#    16  16   8  16  16  16
#     4   9  18  34  55  77 103 136 171 206 246 293
#     4  10  21  36  53  73  99 132 168 208 255 305
#     4   9  17  29  50  81 110 135 167 207 246 287
#     4   8  13  22  38  61  89 120 155 196 240 287
#     4  11  23  38  56  78 104 134 170 211 256 305
#     4   9  17  29  46  69  96 126 161 202 249 298
#
# _framework density 18.323872999999999
#
# number of rings (size 3 to 8) (size 9 to 14) (size 15 to 20)
#    0.000    2.636    0.000    1.909    0.000    5.818 
#    0.000    2.273    0.000    0.545    0.000    3.818 
#    0.000    0.000    0.000   31.091    0.000   15.636 
#
# Total GULP energy -545187.681846 kJ/mol
# GULP energy per Si atom -12390.629133 kJ/mol
# Density = 1.828217 g / cm^3
# Si number density = 18.323873 Si / 1000 Ang^3
#
#
#
# Elastic Constant Matrix: (Units=GPa)
#
#
# Indices 1 2 3 4 5 6 
#
# 1 54.1497 34.5279 64.0722 0.0000 0.0000 0.0000
# 2 34.5279 81.9153 68.4574 0.0000 0.0000 0.0000
# 3 64.0722 68.4574 204.2873 0.0000 0.0000 0.0000
# 4 0.0000 0.0000 0.0000 -24.9940 0.0000 0.0000
# 5 0.0000 0.0000 0.0000 0.0000 27.7976 0.0000
# 6 0.0000 0.0000 0.0000 0.0000 0.0000 14.4476
#
#
#
# Elastic Compliance Matrix: (Units=1/GPa)
#
#
# Indices 1 2 3 4 5 6 
#
# 1 0.032089 -0.007104 -0.007684 0.000000 0.000000 0.000000
# 2 -0.007104 0.018529 -0.003981 0.000000 0.000000 0.000000
# 3 -0.007684 -0.003981 0.008639 0.000000 0.000000 0.000000
# 4 0.000000 0.000000 0.000000 -0.040010 0.000000 0.000000
# 5 0.000000 0.000000 0.000000 0.000000 0.035974 0.000000
# 6 0.000000 0.000000 0.000000 0.000000 0.000000 0.069216
#
#
# Mechanical properties :
#
#
# Convention : Reuss Voigt Hill
#
# Bulk Modulus (GPa) = 46.04245 74.94081 60.49163
# Shear Modulus (GPa) = 29.54815 15.00323 22.27569
#
# Velocity S-wave (km/s) = 4.02001 2.86454 3.49042
# Velocity P-wave (km/s) = 6.83585 7.20607 7.02340
#
# Compressibility (1/GPa) = 0.02171909
#
# Stress axis : x y z
#
# Youngs Moduli (GPa) = 31.16342 53.96862 115.75471
#
# Poissons Ratio (x) = 0.38342 0.88941
# Poissons Ratio (y) = 0.22140 0.46082
# Poissons Ratio (z) = 0.23945 0.21485
#
# Static dielectric constant tensor:
#      x y z
#    x 3.348060 0.000000 0.000000 
#    y 0.000000 3.043850 0.000000 
#    z 0.000000 0.000000 4.096600 
# 
# 
# High freq. dielectric constant tensor:
#      x y z
#    x 1.708950 0.000000 0.000000 
#    y 0.000000 1.668240 0.000000 
#    z 0.000000 0.000000 1.742310 
# 
# From -- ./inp_files/76569.got.cif
#   From: 2010.03.12/outbox.cif.g09.slc.cpg/sg65_39_cif.got.tgz:76569.got - 2010.04.10 20:52:16.
