data_PCOD8272192
_publ_section_title
;
Structure prediction by ZEFSAII (Michael W. Deem and Ramdas Pophale) SiO2 
 PCOD8272192
Probable space group: C M M M
;
_chemical_formula_sum "Si O2"
_cell_formula_units_Z 76
_cell_length_a 25.208607
_cell_length_b 7.487466
_cell_length_c 20.091579
_cell_angle_alpha 90.000000
_cell_angle_beta 90.000000
_cell_angle_gamma 90.000000
_cell_volume 3792.257163
_symmetry_space_group_name_H-M "C M M M"
_symmetry_group_IT_number 65
_symmetry_cell_setting 'orthorhombic'
loop_
_space_group_symop_operation_xyz
x,y,z
-x,-y,z
x,-y,-z
-x,y,-z
-x,-y,-z
x,y,-z
-x,y,z
x,-y,z
1/2+x,1/2+y,z
1/2-x,1/2-y,z
1/2+x,1/2-y,-z
1/2-x,1/2+y,-z
1/2-x,1/2-y,-z
1/2+x,1/2+y,-z
1/2-x,1/2+y,z
1/2+x,1/2-y,z
loop_
_atom_site_type_symbol
_atom_site_label
_atom_site_fract_x
_atom_site_fract_y
_atom_site_fract_z
Si Si1 0.596640 0.707876 0.857841
Si Si2 0.058072 0.294521 0.000000
Si Si3 0.389470 0.000000 0.576573
Si Si4 0.192932 0.207758 0.221463
Si Si5 0.000000 0.500000 0.657346
Si Si6 0.500000 0.286259 0.230263
Si Si7 0.690557 0.289275 0.628128
O O1 0.598289 0.500000 0.846615
O O2 0.592039 0.745147 0.935756
O O3 0.650103 0.796482 0.828241
O O4 0.548781 0.783037 0.814092
O O5 0.046539 0.500000 0.000000
O O6 0.000000 0.196852 0.000000
O O7 0.445509 0.000000 0.615375
O O8 0.354322 0.177398 0.589944
O O9 0.405590 0.000000 0.500000
O O10 0.250000 0.250000 0.190325
O O11 0.188184 0.284396 0.296048
O O12 0.183009 0.000000 0.226471
O O13 0.000000 0.681943 0.700343
O O14 0.500000 0.500000 0.244048
O O15 0.677727 0.500000 0.621132
O O16 0.750000 0.250000 0.600069
#
# Coordination Sequence:
#
# PCOD8272192 Si02
#       7
#    16   8   8  16   4   8  16
#     4  10  20  36  57  83 114 154 196 243 300 362
#     4  11  23  35  50  79 118 149 192 244 296 355
#     4  12  27  44  64  94 131 174 212 248 309 387
#     4   9  19  34  57  86 115 148 193 243 299 357
#     4  12  27  44  66  91 130 174 208 260 310 373
#     4  10  22  40  66  94 118 155 209 262 311 359
#     4  10  20  41  67  98 129 159 207 268 321 367
#
# _framework density 20.040835000000001
#
# number of rings (size 3 to 8) (size 9 to 14) (size 15 to 20)
#    0.000    1.789    2.105    1.737    2.947    4.632 
#    0.000    0.526    0.000    1.895    0.000    0.000 
#    0.000    0.000    0.000    0.000    0.000    0.000 
#
# Total GULP energy -470995.608073 kJ/mol
# GULP energy per Si atom -12394.621265 kJ/mol
# Density = 1.999522 g / cm^3
# Si number density = 20.040835 Si / 1000 Ang^3
#
#
#
# Elastic Constant Matrix: (Units=GPa)
#
#
# Indices 1 2 3 4 5 6 
#
# 1 167.1465 36.0397 85.0625 0.0000 0.0000 0.0000
# 2 36.0397 76.9614 26.6919 0.0000 0.0000 0.0000
# 3 85.0625 26.6919 137.1945 0.0000 0.0000 0.0000
# 4 0.0000 0.0000 0.0000 19.5215 0.0000 0.0000
# 5 0.0000 0.0000 0.0000 0.0000 24.2992 0.0000
# 6 0.0000 0.0000 0.0000 0.0000 0.0000 21.9622
#
#
#
# Elastic Compliance Matrix: (Units=1/GPa)
#
#
# Indices 1 2 3 4 5 6 
#
# 1 0.009165 -0.002489 -0.005198 0.000000 0.000000 0.000000
# 2 -0.002489 0.014610 -0.001299 0.000000 0.000000 0.000000
# 3 -0.005198 -0.001299 0.010765 0.000000 0.000000 0.000000
# 4 0.000000 0.000000 0.000000 0.051226 0.000000 0.000000
# 5 0.000000 0.000000 0.000000 0.000000 0.041154 0.000000
# 6 0.000000 0.000000 0.000000 0.000000 0.000000 0.045533
#
#
# Mechanical properties :
#
#
# Convention : Reuss Voigt Hill
#
# Bulk Modulus (GPa) = 60.36240 75.21005 67.78623
# Shear Modulus (GPa) = 25.51729 28.72379 27.12054
#
# Velocity S-wave (km/s) = 3.57215 3.78995 3.68266
# Velocity P-wave (km/s) = 6.87014 7.53403 7.20973
#
# Compressibility (1/GPa) = 0.01656660
#
# Stress axis : x y z
#
# Youngs Moduli (GPa) = 109.11347 68.44796 92.89739
#
# Poissons Ratio (x) = 0.17036 0.48289
# Poissons Ratio (y) = 0.27157 0.12069
# Poissons Ratio (z) = 0.56718 0.08893
#
# Static dielectric constant tensor:
#      x y z
#    x 4.107500 0.000000 0.000000 
#    y 0.000000 3.567820 0.000000 
#    z 0.000000 0.000000 3.488590 
# 
# 
# High freq. dielectric constant tensor:
#      x y z
#    x 1.788880 0.000000 0.000000 
#    y 0.000000 1.784660 0.000000 
#    z 0.000000 0.000000 1.767660 
# 
# From -- ./inp_files/57336.got.cif
#   From: 2010.03.12/outbox.cif.g09.slc.cpg/sg65_29_cif.got.tgz:57336.got - 2010.04.10 20:52:16.
