data_PCOD8272460
_publ_section_title
;
Structure prediction by ZEFSAII (Michael W. Deem and Ramdas Pophale) SiO2 
 PCOD8272460
Probable space group: C M M M
;
_chemical_formula_sum "Si O2"
_cell_formula_units_Z 72
_cell_length_a 12.927830
_cell_length_b 32.374630
_cell_length_c 9.055874
_cell_angle_alpha 90.000000
_cell_angle_beta 90.000000
_cell_angle_gamma 90.000000
_cell_volume 3790.188569
_symmetry_space_group_name_H-M "C M M M"
_symmetry_group_IT_number 65
_symmetry_cell_setting 'orthorhombic'
loop_
_space_group_symop_operation_xyz
x,y,z
-x,-y,z
x,-y,-z
-x,y,-z
-x,-y,-z
x,y,-z
-x,y,z
x,-y,z
1/2+x,1/2+y,z
1/2-x,1/2-y,z
1/2+x,1/2-y,-z
1/2-x,1/2+y,-z
1/2-x,1/2-y,-z
1/2+x,1/2+y,-z
1/2-x,1/2+y,z
1/2+x,1/2-y,z
loop_
_atom_site_type_symbol
_atom_site_label
_atom_site_fract_x
_atom_site_fract_y
_atom_site_fract_z
Si Si1 0.879156 0.140391 0.171563
Si Si2 0.500000 0.223996 0.827893
Si Si3 0.380010 0.000000 0.675217
Si Si4 0.000000 0.633051 0.825139
Si Si5 0.347111 0.277633 0.339236
Si Si6 0.304667 0.080466 0.172765
O O1 0.831229 0.177194 0.269126
O O2 0.808224 0.100325 0.205066
O O3 0.000000 0.131663 0.211616
O O4 0.868743 0.152687 0.000000
O O5 0.500000 0.178723 0.753056
O O6 0.596048 0.250711 0.781105
O O7 0.500000 0.217883 0.000000
O O8 0.500000 0.000000 0.730752
O O9 0.376475 0.000000 0.500000
O O10 0.316417 0.038854 0.735319
O O11 0.103817 0.610470 0.770913
O O12 0.000000 0.635994 0.000000
O O13 0.402312 0.283361 0.500000
O O14 0.250000 0.250000 0.371013
O O15 0.317586 0.070438 0.000000
#
# Coordination Sequence:
#
# PCOD8272460 Si02
#       6
#    16   8   8   8  16  16
#     4  10  21  38  60  87 117 155 201 247 295 349
#     4  11  21  35  56  82 113 151 199 250 292 338
#     4  11  23  39  60  91 124 150 185 236 301 368
#     4   9  18  32  54  85 114 146 193 247 294 342
#     4  11  23  37  54  80 116 157 199 244 298 355
#     4  10  20  37  62  88 116 151 194 240 294 357
#
# _framework density 18.996414999999999
#
# number of rings (size 3 to 8) (size 9 to 14) (size 15 to 20)
#    0.000    1.667    2.222    2.667    0.000    4.889 
#    0.000    2.778    0.000    3.333    0.000    0.000 
#    0.000    0.000    0.000    0.000    0.000    0.000 
#
# Total GULP energy -446114.143570 kJ/mol
# GULP energy per Si atom -12392.059544 kJ/mol
# Density = 1.895318 g / cm^3
# Si number density = 18.996415 Si / 1000 Ang^3
#
#
#
# Elastic Constant Matrix: (Units=GPa)
#
#
# Indices 1 2 3 4 5 6 
#
# 1 109.3829 53.0429 35.3107 0.0000 0.0000 0.0000
# 2 53.0429 148.1681 54.8000 0.0000 0.0000 0.0000
# 3 35.3107 54.8000 71.3987 0.0000 0.0000 0.0000
# 4 0.0000 0.0000 0.0000 20.6561 0.0000 0.0000
# 5 0.0000 0.0000 0.0000 0.0000 7.6426 0.0000
# 6 0.0000 0.0000 0.0000 0.0000 0.0000 30.0912
#
#
#
# Elastic Compliance Matrix: (Units=1/GPa)
#
#
# Indices 1 2 3 4 5 6 
#
# 1 0.011685 -0.002857 -0.003586 0.000000 0.000000 0.000000
# 2 -0.002857 0.010123 -0.006357 0.000000 0.000000 0.000000
# 3 -0.003586 -0.006357 0.020658 0.000000 0.000000 0.000000
# 4 0.000000 0.000000 0.000000 0.048412 0.000000 0.000000
# 5 0.000000 0.000000 0.000000 0.000000 0.130846 0.000000
# 6 0.000000 0.000000 0.000000 0.000000 0.000000 0.033232
#
#
# Mechanical properties :
#
#
# Convention : Reuss Voigt Hill
#
# Bulk Modulus (GPa) = 59.28787 68.36188 63.82488
# Shear Modulus (GPa) = 17.47163 24.06437 20.76800
#
# Velocity S-wave (km/s) = 3.03600 3.56305 3.31003
# Velocity P-wave (km/s) = 6.60057 7.27956 6.94836
#
# Compressibility (1/GPa) = 0.01686686
#
# Stress axis : x y z
#
# Youngs Moduli (GPa) = 85.57761 98.78686 48.40656
#
# Poissons Ratio (x) = 0.28222 0.17360
# Poissons Ratio (y) = 0.24448 0.30770
# Poissons Ratio (z) = 0.30691 0.62795
#
# Static dielectric constant tensor:
#      x y z
#    x 3.505760 0.000000 0.000000 
#    y 0.000000 3.530000 0.000000 
#    z 0.000000 0.000000 3.383110 
# 
# 
# High freq. dielectric constant tensor:
#      x y z
#    x 1.738640 0.000000 0.000000 
#    y 0.000000 1.738590 0.000000 
#    z 0.000000 0.000000 1.731360 
# 
# From -- ./inp_files/7345.got.cif
#   From: 2010.03.12/outbox.cif.g09.slc.cpg/sg65_4_cif.got.tgz:7345.got - 2010.04.10 20:52:16.
