data_PCOD8272363
_publ_section_title
;
Structure prediction by ZEFSAII (Michael W. Deem and Ramdas Pophale) SiO2 
 PCOD8272363
Probable space group: C M M M
;
_chemical_formula_sum "Si O2"
_cell_formula_units_Z 88
_cell_length_a 16.667778
_cell_length_b 19.379032
_cell_length_c 13.663403
_cell_angle_alpha 90.000000
_cell_angle_beta 90.000000
_cell_angle_gamma 90.000000
_cell_volume 4413.352996
_symmetry_space_group_name_H-M "C M M M"
_symmetry_group_IT_number 65
_symmetry_cell_setting 'orthorhombic'
loop_
_space_group_symop_operation_xyz
x,y,z
-x,-y,z
x,-y,-z
-x,y,-z
-x,-y,-z
x,y,-z
-x,y,z
x,-y,z
1/2+x,1/2+y,z
1/2-x,1/2-y,z
1/2+x,1/2-y,-z
1/2-x,1/2+y,-z
1/2-x,1/2-y,-z
1/2+x,1/2+y,-z
1/2-x,1/2+y,z
1/2+x,1/2-y,z
loop_
_atom_site_type_symbol
_atom_site_label
_atom_site_fract_x
_atom_site_fract_y
_atom_site_fract_z
Si Si1 0.159759 0.418171 0.280408
Si Si2 0.595135 0.425245 0.108520
Si Si3 0.000000 0.418271 0.390702
Si Si4 0.405159 0.163219 0.886220
Si Si5 0.286652 0.324691 0.391022
Si Si6 0.094194 0.199593 0.231116
O O1 0.174062 0.500000 0.289095
O O2 0.079669 0.392133 0.336448
O O3 0.145022 0.398092 0.166349
O O4 0.234076 0.378423 0.328383
O O5 0.500000 0.417162 0.103563
O O6 0.618555 0.500000 0.153699
O O7 0.632346 0.364722 0.172471
O O8 0.631047 0.419115 0.000000
O O9 0.000000 0.500000 0.393482
O O10 0.000000 0.387244 0.500000
O O11 0.500000 0.148830 0.878719
O O12 0.380169 0.232393 0.828118
O O13 0.379472 0.168757 0.000000
O O14 0.300253 0.355760 0.500000
O O15 0.250000 0.250000 0.399591
O O16 0.371060 0.308628 0.339281
O O17 0.000000 0.195199 0.241534
#
# Coordination Sequence:
#
# PCOD8272363 Si02
#       6
#    16  16   8  16  16  16
#     4  11  22  39  61  89 122 158 202 249 304 365
#     4   8  14  27  51  83 115 148 190 240 289 338
#     4   9  18  34  59  89 117 149 195 248 298 356
#     4  10  20  36  61  92 125 162 201 243 300 368
#     4  11  24  42  61  84 118 158 199 250 309 359
#     4  10  20  37  61  89 120 159 205 248 298 364
#
# _framework density 19.939488000000001
#
# number of rings (size 3 to 8) (size 9 to 14) (size 15 to 20)
#    0.000    2.091    2.727    1.636    0.000    4.727 
#    0.000    3.636    0.000    0.000    0.000    3.818 
#    0.000    0.000    0.000    0.000    0.000    0.000 
#
# Total GULP energy -545349.958365 kJ/mol
# GULP energy per Si atom -12394.317236 kJ/mol
# Density = 1.989411 g / cm^3
# Si number density = 19.939488 Si / 1000 Ang^3
#
#
#
# Elastic Constant Matrix: (Units=GPa)
#
#
# Indices 1 2 3 4 5 6 
#
# 1 38.2916 21.7536 45.3388 0.0000 0.0000 0.0000
# 2 21.7536 97.8731 46.5550 0.0000 0.0000 0.0000
# 3 45.3388 46.5550 151.5170 0.0000 0.0000 0.0000
# 4 0.0000 0.0000 0.0000 31.1525 0.0000 0.0000
# 5 0.0000 0.0000 0.0000 0.0000 23.1283 0.0000
# 6 0.0000 0.0000 0.0000 0.0000 0.0000 24.4857
#
#
#
# Elastic Compliance Matrix: (Units=1/GPa)
#
#
# Indices 1 2 3 4 5 6 
#
# 1 0.041680 -0.003902 -0.011273 0.000000 0.000000 0.000000
# 2 -0.003902 0.012331 -0.002621 0.000000 0.000000 0.000000
# 3 -0.011273 -0.002621 0.010779 0.000000 0.000000 0.000000
# 4 0.000000 0.000000 0.000000 0.032100 0.000000 0.000000
# 5 0.000000 0.000000 0.000000 0.000000 0.043237 0.000000
# 6 0.000000 0.000000 0.000000 0.000000 0.000000 0.040840
#
#
# Mechanical properties :
#
#
# Convention : Reuss Voigt Hill
#
# Bulk Modulus (GPa) = 34.24958 57.21961 45.73459
# Shear Modulus (GPa) = 22.09535 27.35560 24.72547
#
# Velocity S-wave (km/s) = 3.33246 3.70798 3.52522
# Velocity P-wave (km/s) = 5.65872 6.86229 6.28936
#
# Compressibility (1/GPa) = 0.02919744
#
# Stress axis : x y z
#
# Youngs Moduli (GPa) = 23.99250 81.09352 92.77594
#
# Poissons Ratio (x) = 0.31640 1.04587
# Poissons Ratio (y) = 0.09361 0.24321
# Poissons Ratio (z) = 0.27047 0.21258
#
# Static dielectric constant tensor:
#      x y z
#    x 3.328340 0.000000 0.000000 
#    y 0.000000 3.745750 0.000000 
#    z 0.000000 0.000000 4.010490 
# 
# 
# High freq. dielectric constant tensor:
#      x y z
#    x 1.753640 0.000000 0.000000 
#    y 0.000000 1.780370 0.000000 
#    z 0.000000 0.000000 1.781130 
# 
# From -- ./inp_files/26810.got.cif
#   From: 2010.03.12/outbox.cif.g09.slc.cpg/sg65_14_cif.got.tgz:26810.got - 2010.04.10 20:52:16.
