data_PCOD8272576
_publ_section_title
;
Structure prediction by ZEFSAII (Michael W. Deem and Ramdas Pophale) SiO2 
 PCOD8272576
Probable space group: C M M M
;
_chemical_formula_sum "Si O2"
_cell_formula_units_Z 48
_cell_length_a 18.219802
_cell_length_b 7.353231
_cell_length_c 19.530802
_cell_angle_alpha 90.000000
_cell_angle_beta 90.000000
_cell_angle_gamma 90.000000
_cell_volume 2616.627731
_symmetry_space_group_name_H-M "C M M M"
_symmetry_group_IT_number 65
_symmetry_cell_setting 'orthorhombic'
loop_
_space_group_symop_operation_xyz
x,y,z
-x,-y,z
x,-y,-z
-x,y,-z
-x,-y,-z
x,y,-z
-x,y,z
x,-y,z
1/2+x,1/2+y,z
1/2-x,1/2-y,z
1/2+x,1/2-y,-z
1/2-x,1/2+y,-z
1/2-x,1/2-y,-z
1/2+x,1/2+y,-z
1/2-x,1/2+y,z
1/2+x,1/2-y,z
loop_
_atom_site_type_symbol
_atom_site_label
_atom_site_fract_x
_atom_site_fract_y
_atom_site_fract_z
Si Si1 0.912547 0.000000 0.606152
Si Si2 0.835395 0.710942 0.000000
Si Si3 0.413977 0.208762 0.134101
Si Si4 0.412770 0.795161 0.500000
Si Si5 0.413315 0.500000 0.241672
O O1 0.885990 0.182795 0.566897
O O2 0.878047 0.000000 0.682479
O O3 0.000000 0.000000 0.608215
O O4 0.750000 0.750000 0.000000
O O5 0.871925 0.792631 0.068409
O O6 0.853891 0.500000 0.000000
O O7 0.500000 0.233171 0.119986
O O8 0.388056 0.320575 0.200603
O O9 0.392874 0.000000 0.148039
O O10 0.500000 0.808136 0.500000
O O11 0.379077 0.000000 0.500000
O O12 0.500000 0.500000 0.249593
#
# Coordination Sequence:
#
# PCOD8272576 Si02
#       5
#     8   8  16   8   8
#     4   8  14  23  33  54  82 109 151 186 208 253
#     4  10  21  33  48  68  88 114 151 193 234 276
#     4   9  18  32  47  64  87 116 152 192 233 275
#     4   8  13  21  34  51  79 118 149 176 210 250
#     4   9  17  27  43  63  85 117 151 189 229 265
#
# _framework density 18.344221000000001
#
# number of rings (size 3 to 8) (size 9 to 14) (size 15 to 20)
#    0.000    3.167    0.000    1.500    2.333    3.333 
#    0.000    9.167    0.000    0.000    0.000    0.000 
#    0.000    0.000    0.000    6.000    2.667    7.000 
#
# Total GULP energy -297452.029622 kJ/mol
# GULP energy per Si atom -12393.834568 kJ/mol
# Density = 1.830247 g / cm^3
# Si number density = 18.344221 Si / 1000 Ang^3
#
#
#
# Elastic Constant Matrix: (Units=GPa)
#
#
# Indices 1 2 3 4 5 6 
#
# 1 31.5283 15.3960 31.4030 0.0000 0.0000 0.0000
# 2 15.3960 133.3298 85.4461 0.0000 0.0000 0.0000
# 3 31.4030 85.4461 204.9985 0.0000 0.0000 0.0000
# 4 0.0000 0.0000 0.0000 47.5649 0.0000 0.0000
# 5 0.0000 0.0000 0.0000 0.0000 2.5972 0.0000
# 6 0.0000 0.0000 0.0000 0.0000 0.0000 11.1222
#
#
#
# Elastic Compliance Matrix: (Units=1/GPa)
#
#
# Indices 1 2 3 4 5 6 
#
# 1 0.037505 -0.000885 -0.005376 0.000000 0.000000 0.000000
# 2 -0.000885 0.010255 -0.004139 0.000000 0.000000 0.000000
# 3 -0.005376 -0.004139 0.007427 0.000000 0.000000 0.000000
# 4 0.000000 0.000000 0.000000 0.021024 0.000000 0.000000
# 5 0.000000 0.000000 0.000000 0.000000 0.385025 0.000000
# 6 0.000000 0.000000 0.000000 0.000000 0.000000 0.089911
#
#
# Mechanical properties :
#
#
# Convention : Reuss Voigt Hill
#
# Bulk Modulus (GPa) = 29.08189 70.48297 49.78243
# Shear Modulus (GPa) = 8.57033 28.09763 18.33398
#
# Velocity S-wave (km/s) = 2.16381 3.91792 3.16482
# Velocity P-wave (km/s) = 4.70432 7.67937 6.36802
#
# Compressibility (1/GPa) = 0.03438567
#
# Stress axis : x y z
#
# Youngs Moduli (GPa) = 26.66333 97.51556 134.64915
#
# Poissons Ratio (x) = 0.08634 0.72390
# Poissons Ratio (y) = 0.02361 0.55727
# Poissons Ratio (z) = 0.14335 0.40359
#
# Static dielectric constant tensor:
#      x y z
#    x 2.726260 0.000000 0.000000 
#    y 0.000000 3.651760 0.000000 
#    z 0.000000 0.000000 3.781770 
# 
# 
# High freq. dielectric constant tensor:
#      x y z
#    x 1.643100 0.000000 0.000000 
#    y 0.000000 1.720520 0.000000 
#    z 0.000000 0.000000 1.715740 
# 
# From -- ./inp_files/41675.got.cif
#   From: 2010.03.12/outbox.cif.g09.slc.cpg/sg65_21_cif.got.tgz:41675.got - 2010.04.10 20:52:16.
