data_PCOD8272498
_publ_section_title
;
Structure prediction by ZEFSAII (Michael W. Deem and Ramdas Pophale) SiO2 
 PCOD8272498
Probable space group: C M M M
;
_chemical_formula_sum "Si O2"
_cell_formula_units_Z 40
_cell_length_a 24.582703
_cell_length_b 7.770807
_cell_length_c 10.517725
_cell_angle_alpha 90.000000
_cell_angle_beta 90.000000
_cell_angle_gamma 90.000000
_cell_volume 2009.174087
_symmetry_space_group_name_H-M "C M M M"
_symmetry_group_IT_number 65
_symmetry_cell_setting 'orthorhombic'
loop_
_space_group_symop_operation_xyz
x,y,z
-x,-y,z
x,-y,-z
-x,y,-z
-x,-y,-z
x,y,-z
-x,y,z
x,-y,z
1/2+x,1/2+y,z
1/2-x,1/2-y,z
1/2+x,1/2-y,-z
1/2-x,1/2+y,-z
1/2-x,1/2-y,-z
1/2+x,1/2+y,-z
1/2-x,1/2+y,z
1/2+x,1/2-y,z
loop_
_atom_site_type_symbol
_atom_site_label
_atom_site_fract_x
_atom_site_fract_y
_atom_site_fract_z
Si Si1 0.733536 0.000000 0.358207
Si Si2 0.938882 0.295429 0.500000
Si Si3 0.323880 0.500000 0.142571
Si Si4 0.635152 0.809916 0.273825
O O1 0.694365 0.168433 0.342264
O O2 0.759226 0.000000 0.500000
O O3 0.777004 0.000000 0.246486
O O4 0.937808 0.500000 0.500000
O O5 0.907849 0.231831 0.625881
O O6 0.000000 0.221074 0.500000
O O7 0.360397 0.328300 0.160362
O O8 0.299691 0.500000 0.000000
O O9 0.616789 0.000000 0.221709
#
# Coordination Sequence:
#
# PCOD8272498 Si02
#       4
#     8   8   8  16
#     4  10  20  38  58  84 117 152 191 232 284 338
#     4   9  16  35  64  92 114 138 185 243 301 344
#     4  12  26  36  54  83 118 165 196 222 272 338
#     4   9  20  38  55  84 117 144 189 239 285 330
#
# _framework density 19.908677999999998
#
# number of rings (size 3 to 8) (size 9 to 14) (size 15 to 20)
#    1.200    1.000    2.000    1.200    2.800    5.600 
#    0.000    2.000    0.000    2.400    0.000    5.600 
#    0.000    0.000    0.000    0.000    0.000    0.000 
#
# Total GULP energy -247787.932151 kJ/mol
# GULP energy per Si atom -12389.396608 kJ/mol
# Density = 1.986336 g / cm^3
# Si number density = 19.908678 Si / 1000 Ang^3
#
#
#
# Elastic Constant Matrix: (Units=GPa)
#
#
# Indices 1 2 3 4 5 6 
#
# 1 94.9088 17.7162 52.1815 0.0000 0.0000 0.0000
# 2 17.7162 95.8233 48.5060 0.0000 0.0000 0.0000
# 3 52.1815 48.5060 143.6474 0.0000 0.0000 0.0000
# 4 0.0000 0.0000 0.0000 22.9934 0.0000 0.0000
# 5 0.0000 0.0000 0.0000 0.0000 3.1222 0.0000
# 6 0.0000 0.0000 0.0000 0.0000 0.0000 -0.3305
#
#
#
# Elastic Compliance Matrix: (Units=1/GPa)
#
#
# Indices 1 2 3 4 5 6 
#
# 1 0.013166 -0.000016 -0.004777 0.000000 0.000000 0.000000
# 2 -0.000016 0.012587 -0.004245 0.000000 0.000000 0.000000
# 3 -0.004777 -0.004245 0.010130 0.000000 0.000000 0.000000
# 4 0.000000 0.000000 0.000000 0.043491 0.000000 0.000000
# 5 0.000000 0.000000 0.000000 0.000000 0.320290 0.000000
# 6 0.000000 0.000000 0.000000 0.000000 0.000000 -3.025466
#
#
# Mechanical properties :
#
#
# Convention : Reuss Voigt Hill
#
# Bulk Modulus (GPa) = 56.15489 63.46521 59.81005
# Shear Modulus (GPa) = -1.92175 19.55540 8.81682
#
# Velocity S-wave (km/s) = -0.98355 3.13750 2.10671
# Velocity P-wave (km/s) = 5.19400 6.71361 6.00209
#
# Compressibility (1/GPa) = 0.01780789
#
# Stress axis : x y z
#
# Youngs Moduli (GPa) = 75.95322 79.44396 98.71444
#
# Poissons Ratio (x) = 0.00126 0.47159
# Poissons Ratio (y) = 0.00121 0.41901
# Poissons Ratio (z) = 0.36285 0.33722
#
# Static dielectric constant tensor:
#      x y z
#    x 3.543040 0.000000 0.000000 
#    y 0.000000 3.733070 0.000000 
#    z 0.000000 0.000000 3.237730 
# 
# 
# High freq. dielectric constant tensor:
#      x y z
#    x 1.743920 0.000000 0.000000 
#    y 0.000000 1.782030 0.000000 
#    z 0.000000 0.000000 1.740400 
# 
# From -- ./inp_files/12974.got.cif
#   From: 2010.03.12/outbox.cif.g09.slc.cpg/sg65_7_cif.got.tgz:12974.got - 2010.04.10 20:52:16.
