data_PCOD8272733
_publ_section_title
;
Structure prediction by ZEFSAII (Michael W. Deem and Ramdas Pophale) SiO2 
 PCOD8272733
Probable space group: C M M M
;
_chemical_formula_sum "Si O2"
_cell_formula_units_Z 80
_cell_length_a 9.219116
_cell_length_b 18.351199
_cell_length_c 25.890981
_cell_angle_alpha 90.000000
_cell_angle_beta 90.000000
_cell_angle_gamma 90.000000
_cell_volume 4380.283606
_symmetry_space_group_name_H-M "C M M M"
_symmetry_group_IT_number 65
_symmetry_cell_setting 'orthorhombic'
loop_
_space_group_symop_operation_xyz
x,y,z
-x,-y,z
x,-y,-z
-x,y,-z
-x,-y,-z
x,y,-z
-x,y,z
x,-y,z
1/2+x,1/2+y,z
1/2-x,1/2-y,z
1/2+x,1/2-y,-z
1/2-x,1/2+y,-z
1/2-x,1/2-y,-z
1/2+x,1/2+y,-z
1/2-x,1/2+y,z
1/2+x,1/2-y,z
loop_
_atom_site_type_symbol
_atom_site_label
_atom_site_fract_x
_atom_site_fract_y
_atom_site_fract_z
Si Si1 0.663950 0.913245 0.099288
Si Si2 0.331516 0.584391 0.199881
Si Si3 0.163832 0.586690 0.500000
Si Si4 0.164352 0.913033 0.000000
Si Si5 0.669069 0.415748 0.600081
Si Si6 0.670625 0.673879 0.699941
O O1 0.500000 0.883098 0.097137
O O2 0.739997 0.885533 0.151547
O O3 0.752774 0.882659 0.050369
O O4 0.664967 0.000000 0.097876
O O5 0.500000 0.595982 0.186964
O O6 0.298119 0.500000 0.210977
O O7 0.281593 0.628866 0.249840
O O8 0.169885 0.500000 0.500000
O O9 0.244166 0.615960 0.551043
O O10 0.000000 0.616286 0.500000
O O11 0.000000 0.883282 0.000000
O O12 0.164334 0.000000 0.000000
O O13 0.500000 0.405468 0.588454
O O14 0.706429 0.500000 0.610424
O O15 0.720114 0.371319 0.649974
O O16 0.500000 0.687296 0.699524
O O17 0.750000 0.750000 0.700093
#
# Coordination Sequence:
#
# PCOD8272733 Si02
#       6
#    16  16   8   8  16  16
#     4   9  16  25  39  63  94 124 155 195 242 287
#     4   9  17  31  50  70  93 124 163 202 238 282
#     4   9  17  29  48  77 106 127 153 195 244 287
#     4   9  15  23  37  59  90 127 160 191 234 287
#     4   9  17  32  54  76  98 128 165 200 235 281
#     4  10  21  35  51  72  98 128 162 201 244 288
#
# _framework density 18.263658
#
# number of rings (size 3 to 8) (size 9 to 14) (size 15 to 20)
#    0.000    2.800    0.000    1.800    0.000    8.800 
#    0.000    0.500    0.000    6.000    0.000    0.700 
#    0.000    0.000    0.000    0.000    0.000    0.000 
#
# Total GULP energy -496029.241045 kJ/mol
# GULP energy per Si atom -12400.731026 kJ/mol
# Density = 1.822209 g / cm^3
# Si number density = 18.263658 Si / 1000 Ang^3
#
#
#
# Elastic Constant Matrix: (Units=GPa)
#
#
# Indices 1 2 3 4 5 6 
#
# 1 107.6457 36.9665 96.1146 0.0000 0.0000 0.0000
# 2 36.9665 55.4410 57.8004 0.0000 0.0000 0.0000
# 3 96.1146 57.8004 210.4489 0.0000 0.0000 0.0000
# 4 0.0000 0.0000 0.0000 1.3371 0.0000 0.0000
# 5 0.0000 0.0000 0.0000 0.0000 27.3835 0.0000
# 6 0.0000 0.0000 0.0000 0.0000 0.0000 21.5086
#
#
#
# Elastic Compliance Matrix: (Units=1/GPa)
#
#
# Indices 1 2 3 4 5 6 
#
# 1 0.016413 -0.004384 -0.006292 0.000000 0.000000 0.000000
# 2 -0.004384 0.026445 -0.005261 0.000000 0.000000 0.000000
# 3 -0.006292 -0.005261 0.009070 0.000000 0.000000 0.000000
# 4 0.000000 0.000000 0.000000 0.747893 0.000000 0.000000
# 5 0.000000 0.000000 0.000000 0.000000 0.036518 0.000000
# 6 0.000000 0.000000 0.000000 0.000000 0.000000 0.046493
#
#
# Mechanical properties :
#
#
# Convention : Reuss Voigt Hill
#
# Bulk Modulus (GPa) = 49.86379 83.92207 66.89293
# Shear Modulus (GPa) = 5.42657 22.22279 13.82468
#
# Velocity S-wave (km/s) = 1.72560 3.49202 2.75426
# Velocity P-wave (km/s) = 5.59747 7.89360 6.84254
#
# Compressibility (1/GPa) = 0.02005463
#
# Stress axis : x y z
#
# Youngs Moduli (GPa) = 60.92609 37.81390 110.24930
#
# Poissons Ratio (x) = 0.16578 0.69369
# Poissons Ratio (y) = 0.26711 0.58002
# Poissons Ratio (z) = 0.38335 0.19894
#
# Static dielectric constant tensor:
#      x y z
#    x 3.425050 0.000000 0.000000 
#    y 0.000000 2.871480 0.000000 
#    z 0.000000 0.000000 3.613450 
# 
# 
# High freq. dielectric constant tensor:
#      x y z
#    x 1.709240 0.000000 0.000000 
#    y 0.000000 1.654450 0.000000 
#    z 0.000000 0.000000 1.726900 
# 
# From -- ./inp_files/70809.got.cif
#   From: 2010.03.12/outbox.cif.g09.slc.cpg/sg65_36_cif.got.tgz:70809.got - 2010.04.10 20:52:16.
