data_PCOD8272264
_publ_section_title
;
Structure prediction by ZEFSAII (Michael W. Deem and Ramdas Pophale) SiO2 
 PCOD8272264
Probable space group: C M M M
;
_chemical_formula_sum "Si O2"
_cell_formula_units_Z 80
_cell_length_a 15.766050
_cell_length_b 8.890273
_cell_length_c 28.806694
_cell_angle_alpha 90.000000
_cell_angle_beta 90.000000
_cell_angle_gamma 90.000000
_cell_volume 4037.675534
_symmetry_space_group_name_H-M "C M M M"
_symmetry_group_IT_number 65
_symmetry_cell_setting 'orthorhombic'
loop_
_space_group_symop_operation_xyz
x,y,z
-x,-y,z
x,-y,-z
-x,y,-z
-x,-y,-z
x,y,-z
-x,y,z
x,-y,z
1/2+x,1/2+y,z
1/2-x,1/2-y,z
1/2+x,1/2-y,-z
1/2-x,1/2+y,-z
1/2-x,1/2-y,-z
1/2+x,1/2+y,-z
1/2-x,1/2+y,z
1/2+x,1/2-y,z
loop_
_atom_site_type_symbol
_atom_site_label
_atom_site_fract_x
_atom_site_fract_y
_atom_site_fract_z
Si Si1 0.907021 0.840482 0.500000
Si Si2 0.500000 0.821749 0.746146
Si Si3 0.337437 0.176751 0.584024
Si Si4 0.338953 0.822447 0.310853
Si Si5 0.901407 0.321588 0.000000
Si Si6 0.837265 0.178228 0.906605
Si Si7 0.500000 0.324908 0.845051
O O1 0.900730 0.740796 0.546252
O O2 0.000000 0.901066 0.500000
O O3 0.852783 0.000000 0.500000
O O4 0.584829 0.759665 0.721073
O O5 0.500000 0.771320 0.798833
O O6 0.500000 0.000000 0.743029
O O7 0.250000 0.250000 0.569407
O O8 0.362542 0.223740 0.636429
O O9 0.332012 0.000000 0.579673
O O10 0.250000 0.750000 0.294928
O O11 0.328436 0.000000 0.305814
O O12 0.855207 0.251476 0.043954
O O13 0.889458 0.500000 0.000000
O O14 0.000000 0.275289 0.000000
O O15 0.750000 0.250000 0.886511
O O16 0.915616 0.219404 0.873247
O O17 0.826900 0.000000 0.911832
O O18 0.500000 0.500000 0.832489
#
# Coordination Sequence:
#
# PCOD8272264 Si02
#       7
#     8   8  16  16   8  16   8
#     4  11  24  37  50  77 115 147 184 229 276 333
#     4  10  22  40  63  88 117 152 192 244 299 352
#     4  10  20  36  59  81 109 146 186 228 278 340
#     4   9  20  38  61  88 116 148 190 239 290 349
#     4  11  22  37  62  94 126 162 206 249 295 351
#     4  11  23  41  63  89 124 164 206 249 297 350
#     4  10  24  43  61  86 120 159 200 246 300 356
#
# _framework density 19.813379999999999
#
# number of rings (size 3 to 8) (size 9 to 14) (size 15 to 20)
#    0.000    1.800    1.000    2.400    1.400    5.200 
#    0.000    4.000    0.000    0.000    0.000    0.000 
#    0.000    0.000    0.000    0.000    0.000    0.000 
#
# Total GULP energy -495881.173031 kJ/mol
# GULP energy per Si atom -12397.029326 kJ/mol
# Density = 1.976828 g / cm^3
# Si number density = 19.813380 Si / 1000 Ang^3
#
#
#
# Elastic Constant Matrix: (Units=GPa)
#
#
# Indices 1 2 3 4 5 6 
#
# 1 155.7243 47.4859 71.0483 0.0000 0.0000 0.0000
# 2 47.4859 71.8474 39.7533 0.0000 0.0000 0.0000
# 3 71.0483 39.7533 118.3650 0.0000 0.0000 0.0000
# 4 0.0000 0.0000 0.0000 34.4974 0.0000 0.0000
# 5 0.0000 0.0000 0.0000 0.0000 24.1002 0.0000
# 6 0.0000 0.0000 0.0000 0.0000 0.0000 29.3461
#
#
#
# Elastic Compliance Matrix: (Units=1/GPa)
#
#
# Indices 1 2 3 4 5 6 
#
# 1 0.009658 -0.003901 -0.004487 0.000000 0.000000 0.000000
# 2 -0.003901 0.018670 -0.003929 0.000000 0.000000 0.000000
# 3 -0.004487 -0.003929 0.012462 0.000000 0.000000 0.000000
# 4 0.000000 0.000000 0.000000 0.028988 0.000000 0.000000
# 5 0.000000 0.000000 0.000000 0.000000 0.041493 0.000000
# 6 0.000000 0.000000 0.000000 0.000000 0.000000 0.034076
#
#
# Mechanical properties :
#
#
# Convention : Reuss Voigt Hill
#
# Bulk Modulus (GPa) = 61.89630 73.61239 67.75435
# Shear Modulus (GPa) = 28.51158 30.09870 29.30514
#
# Velocity S-wave (km/s) = 3.79754 3.90180 3.85002
# Velocity P-wave (km/s) = 7.10886 7.58500 7.35079
#
# Compressibility (1/GPa) = 0.01615605
#
# Stress axis : x y z
#
# Youngs Moduli (GPa) = 103.53706 53.56058 80.24640
#
# Poissons Ratio (x) = 0.20892 0.36010
# Poissons Ratio (y) = 0.40386 0.31531
# Poissons Ratio (z) = 0.46461 0.21045
#
# Static dielectric constant tensor:
#      x y z
#    x 3.817350 0.000000 0.000000 
#    y 0.000000 3.577450 0.000000 
#    z 0.000000 0.000000 3.581520 
# 
# 
# High freq. dielectric constant tensor:
#      x y z
#    x 1.781170 0.000000 0.000000 
#    y 0.000000 1.778820 0.000000 
#    z 0.000000 0.000000 1.770300 
# 
# From -- ./inp_files/75140.got.cif
#   From: 2010.03.12/outbox.cif.g09.slc.cpg/sg65_38_cif.got.tgz:75140.got - 2010.04.10 20:52:16.
