data_PCOD8272683
_publ_section_title
;
Structure prediction by ZEFSAII (Michael W. Deem and Ramdas Pophale) SiO2 
 PCOD8272683
Probable space group: C M M M
;
_chemical_formula_sum "Si O2"
_cell_formula_units_Z 88
_cell_length_a 26.721471
_cell_length_b 9.373720
_cell_length_c 21.676001
_cell_angle_alpha 90.000000
_cell_angle_beta 90.000000
_cell_angle_gamma 90.000000
_cell_volume 5429.395781
_symmetry_space_group_name_H-M "C M M M"
_symmetry_group_IT_number 65
_symmetry_cell_setting 'orthorhombic'
loop_
_space_group_symop_operation_xyz
x,y,z
-x,-y,z
x,-y,-z
-x,y,-z
-x,-y,-z
x,y,-z
-x,y,z
x,-y,z
1/2+x,1/2+y,z
1/2-x,1/2-y,z
1/2+x,1/2-y,-z
1/2-x,1/2+y,-z
1/2-x,1/2-y,-z
1/2+x,1/2+y,-z
1/2-x,1/2+y,z
1/2+x,1/2-y,z
loop_
_atom_site_type_symbol
_atom_site_label
_atom_site_fract_x
_atom_site_fract_y
_atom_site_fract_z
Si Si1 0.299571 0.837646 0.000000
Si Si2 0.698252 0.166294 0.133410
Si Si3 0.201272 0.337314 0.368757
Si Si4 0.361508 0.833249 0.749024
Si Si5 0.057527 0.835796 0.319701
Si Si6 0.400759 0.165509 0.570337
O O1 0.250000 0.750000 0.000000
O O2 0.327345 0.805295 0.934632
O O3 0.282269 0.000000 0.000000
O O4 0.750000 0.250000 0.141203
O O5 0.658167 0.216594 0.184125
O O6 0.710583 0.000000 0.143414
O O7 0.217659 0.500000 0.372721
O O8 0.250000 0.250000 0.386636
O O9 0.181906 0.299175 0.300305
O O10 0.157618 0.301683 0.417550
O O11 0.410677 0.742579 0.733300
O O12 0.375954 0.000000 0.747093
O O13 0.064906 0.762049 0.386130
O O14 0.000000 0.823292 0.300143
O O15 0.074550 0.000000 0.324620
O O16 0.413975 0.202580 0.500000
O O17 0.411791 0.000000 0.585637
#
# Coordination Sequence:
#
# PCOD8272683 Si02
#       6
#     8  16  16  16  16  16
#     4   8  14  24  38  60  93 128 157 185 216 251
#     4   9  16  26  42  66  96 128 158 186 217 255
#     4   9  17  28  42  62  88 116 146 179 211 246
#     4   9  18  31  46  65  89 118 152 185 218 262
#     4  10  21  35  50  69  90 109 136 182 234 275
#     4   9  19  35  51  67  89 117 148 178 211 261
#
# _framework density 16.208065000000001
#
# number of rings (size 3 to 8) (size 9 to 14) (size 15 to 20)
#    0.000    2.909    0.000    2.182    0.000    6.182 
#    0.000    1.818    0.000    0.000    0.000    0.636 
#    0.000    5.091    0.000    0.000    0.000    0.000 
#
# Total GULP energy -545346.417312 kJ/mol
# GULP energy per Si atom -12394.236757 kJ/mol
# Density = 1.617117 g / cm^3
# Si number density = 16.208065 Si / 1000 Ang^3
#
#
#
# Elastic Constant Matrix: (Units=GPa)
#
#
# Indices 1 2 3 4 5 6 
#
# 1 70.4859 42.4093 37.8243 0.0000 0.0000 0.0000
# 2 42.4093 66.6429 40.3859 0.0000 0.0000 0.0000
# 3 37.8243 40.3859 127.6189 0.0000 0.0000 0.0000
# 4 0.0000 0.0000 0.0000 16.6909 0.0000 0.0000
# 5 0.0000 0.0000 0.0000 0.0000 11.7673 0.0000
# 6 0.0000 0.0000 0.0000 0.0000 0.0000 28.1002
#
#
#
# Elastic Compliance Matrix: (Units=1/GPa)
#
#
# Indices 1 2 3 4 5 6 
#
# 1 0.023768 -0.013432 -0.002794 0.000000 0.000000 0.000000
# 2 -0.013432 0.026157 -0.004296 0.000000 0.000000 0.000000
# 3 -0.002794 -0.004296 0.010023 0.000000 0.000000 0.000000
# 4 0.000000 0.000000 0.000000 0.059913 0.000000 0.000000
# 5 0.000000 0.000000 0.000000 0.000000 0.084981 0.000000
# 6 0.000000 0.000000 0.000000 0.000000 0.000000 0.035587
#
#
# Mechanical properties :
#
#
# Convention : Reuss Voigt Hill
#
# Bulk Modulus (GPa) = 52.89985 56.22075 54.56030
# Shear Modulus (GPa) = 17.37464 20.92023 19.14743
#
# Velocity S-wave (km/s) = 3.27765 3.59657 3.44081
# Velocity P-wave (km/s) = 6.85805 7.21175 7.03712
#
# Compressibility (1/GPa) = 0.01890365
#
# Stress axis : x y z
#
# Youngs Moduli (GPa) = 42.07293 38.23089 99.76558
#
# Poissons Ratio (x) = 0.51353 0.27872
# Poissons Ratio (y) = 0.56513 0.42863
# Poissons Ratio (z) = 0.11754 0.16426
#
# Static dielectric constant tensor:
#      x y z
#    x 2.713270 0.000000 0.000000 
#    y 0.000000 3.059560 0.000000 
#    z 0.000000 0.000000 3.520270 
# 
# 
# High freq. dielectric constant tensor:
#      x y z
#    x 1.591970 0.000000 0.000000 
#    y 0.000000 1.626510 0.000000 
#    z 0.000000 0.000000 1.626560 
# 
# From -- ./inp_files/65750.got.cif
#   From: 2010.03.12/outbox.cif.g09.slc.cpg/sg65_33_cif.got.tgz:65750.got - 2010.04.10 20:52:16.
