data_PCOD8272877
_publ_section_title
;
Structure prediction by ZEFSAII (Michael W. Deem and Ramdas Pophale) SiO2 
 PCOD8272877
Probable space group: C M M M
;
_chemical_formula_sum "Si O2"
_cell_formula_units_Z 104
_cell_length_a 28.973075
_cell_length_b 8.888306
_cell_length_c 26.097561
_cell_angle_alpha 90.000000
_cell_angle_beta 90.000000
_cell_angle_gamma 90.000000
_cell_volume 6720.684526
_symmetry_space_group_name_H-M "C M M M"
_symmetry_group_IT_number 65
_symmetry_cell_setting 'orthorhombic'
loop_
_space_group_symop_operation_xyz
x,y,z
-x,-y,z
x,-y,-z
-x,y,-z
-x,-y,-z
x,y,-z
-x,y,z
x,-y,z
1/2+x,1/2+y,z
1/2-x,1/2-y,z
1/2+x,1/2-y,-z
1/2-x,1/2+y,-z
1/2-x,1/2-y,-z
1/2+x,1/2+y,-z
1/2-x,1/2+y,z
1/2+x,1/2-y,z
loop_
_atom_site_type_symbol
_atom_site_label
_atom_site_fract_x
_atom_site_fract_y
_atom_site_fract_z
Si Si1 0.299857 0.824270 0.847549
Si Si2 0.945614 0.332297 0.500000
Si Si3 0.298328 0.323827 0.559434
Si Si4 0.638030 0.178663 0.357820
Si Si5 0.799326 0.324550 0.265029
Si Si6 0.947087 0.822493 0.604310
Si Si7 0.800030 0.824429 0.944441
O O1 0.250000 0.750000 0.846597
O O2 0.321405 0.790344 0.791385
O O3 0.327639 0.749579 0.895888
O O4 0.295974 0.000000 0.857913
O O5 0.923352 0.500000 0.500000
O O6 0.930063 0.239829 0.450398
O O7 0.000000 0.347689 0.500000
O O8 0.309338 0.292926 0.500000
O O9 0.295926 0.500000 0.571810
O O10 0.250000 0.250000 0.575541
O O11 0.338271 0.246334 0.591895
O O12 0.664759 0.234554 0.307166
O O13 0.586080 0.245022 0.353690
O O14 0.636126 0.000000 0.361781
O O15 0.790473 0.500000 0.271627
O O16 0.750000 0.250000 0.273875
O O17 0.000000 0.778149 0.616483
O O18 0.940352 0.000000 0.604397
O O19 0.750000 0.750000 0.946612
O O20 0.794671 0.000000 0.934047
O O21 0.824623 0.795679 0.000000
#
# Coordination Sequence:
#
# PCOD8272877 Si02
#       7
#    16   8  16  16  16  16  16
#     4   9  15  24  37  52  73 101 135 172 211 247
#     4   9  17  31  51  71  88 107 130 157 195 245
#     4  10  21  36  51  67  89 114 141 175 215 256
#     4  11  22  34  50  69  89 113 144 177 214 260
#     4   9  19  32  45  63  85 111 143 182 218 250
#     4  10  21  36  52  70  92 114 137 169 210 256
#     4   9  15  21  30  47  71  98 131 170 209 246
#
# _framework density 15.474615
#
# number of rings (size 3 to 8) (size 9 to 14) (size 15 to 20)
#    0.000    2.385    0.000    3.923    1.077    6.769 
#    0.000    0.000    0.000    0.000    0.000    0.000 
#    0.000    0.000    0.000    0.000    0.000    0.769 
#
# Total GULP energy -644387.233718 kJ/mol
# GULP energy per Si atom -12392.062187 kJ/mol
# Density = 1.543939 g / cm^3
# Si number density = 15.474615 Si / 1000 Ang^3
#
#
#
# Elastic Constant Matrix: (Units=GPa)
#
#
# Indices 1 2 3 4 5 6 
#
# 1 63.8773 33.1209 50.1959 0.0000 0.0000 0.0000
# 2 33.1209 86.4471 50.0612 0.0000 0.0000 0.0000
# 3 50.1959 50.0612 119.4602 0.0000 0.0000 0.0000
# 4 0.0000 0.0000 0.0000 22.6984 0.0000 0.0000
# 5 0.0000 0.0000 0.0000 0.0000 5.2891 0.0000
# 6 0.0000 0.0000 0.0000 0.0000 0.0000 20.0150
#
#
#
# Elastic Compliance Matrix: (Units=1/GPa)
#
#
# Indices 1 2 3 4 5 6 
#
# 1 0.024658 -0.004552 -0.008454 0.000000 0.000000 0.000000
# 2 -0.004552 0.016115 -0.004840 0.000000 0.000000 0.000000
# 3 -0.008454 -0.004840 0.013952 0.000000 0.000000 0.000000
# 4 0.000000 0.000000 0.000000 0.044056 0.000000 0.000000
# 5 0.000000 0.000000 0.000000 0.000000 0.189068 0.000000
# 6 0.000000 0.000000 0.000000 0.000000 0.000000 0.049963
#
#
# Mechanical properties :
#
#
# Convention : Reuss Voigt Hill
#
# Bulk Modulus (GPa) = 52.54127 59.61561 56.07844
# Shear Modulus (GPa) = 13.16319 18.69427 15.92873
#
# Velocity S-wave (km/s) = 2.91972 3.47949 3.21182
# Velocity P-wave (km/s) = 6.73745 7.39938 7.07616
#
# Compressibility (1/GPa) = 0.01903266
#
# Stress axis : x y z
#
# Youngs Moduli (GPa) = 40.55444 62.05450 71.67681
#
# Poissons Ratio (x) = 0.28247 0.60592
# Poissons Ratio (y) = 0.18460 0.34695
# Poissons Ratio (z) = 0.34283 0.30037
#
# Static dielectric constant tensor:
#      x y z
#    x 2.663150 0.000000 0.000000 
#    y 0.000000 3.133570 0.000000 
#    z 0.000000 0.000000 3.950630 
# 
# 
# High freq. dielectric constant tensor:
#      x y z
#    x 1.535580 0.000000 0.000000 
#    y 0.000000 1.613190 0.000000 
#    z 0.000000 0.000000 1.596730 
# 
# From -- ./inp_files/76240.got.cif
#   From: 2010.03.12/outbox.cif.g09.slc.cpg/sg65_39_cif.got.tgz:76240.got - 2010.04.10 20:52:16.
