data_PCOD8272434
_publ_section_title
;
Structure prediction by ZEFSAII (Michael W. Deem and Ramdas Pophale) SiO2 
 PCOD8272434
Probable space group: C M M M
;
_chemical_formula_sum "Si O2"
_cell_formula_units_Z 72
_cell_length_a 8.748929
_cell_length_b 15.712246
_cell_length_c 26.089618
_cell_angle_alpha 90.000000
_cell_angle_beta 90.000000
_cell_angle_gamma 90.000000
_cell_volume 3586.417809
_symmetry_space_group_name_H-M "C M M M"
_symmetry_group_IT_number 65
_symmetry_cell_setting 'orthorhombic'
loop_
_space_group_symop_operation_xyz
x,y,z
-x,-y,z
x,-y,-z
-x,y,-z
-x,-y,-z
x,y,-z
-x,y,z
x,-y,z
1/2+x,1/2+y,z
1/2-x,1/2-y,z
1/2+x,1/2-y,-z
1/2-x,1/2+y,-z
1/2-x,1/2-y,-z
1/2+x,1/2+y,-z
1/2-x,1/2+y,z
1/2+x,1/2-y,z
loop_
_atom_site_type_symbol
_atom_site_label
_atom_site_fract_x
_atom_site_fract_y
_atom_site_fract_z
Si Si1 0.681320 0.500000 0.762749
Si Si2 0.818757 0.000000 0.119844
Si Si3 0.680095 0.341922 0.500000
Si Si4 0.680570 0.337829 0.941386
Si Si5 0.324392 0.597570 0.390917
Si Si6 0.819983 0.661911 0.706738
O O1 0.500000 0.500000 0.756191
O O2 0.734182 0.500000 0.821576
O O3 0.746680 0.584421 0.737288
O O4 0.753297 0.084256 0.092112
O O5 0.000000 0.000000 0.114813
O O6 0.500000 0.334830 0.500000
O O7 0.750000 0.250000 0.500000
O O8 0.734580 0.391610 0.449185
O O9 0.500000 0.331822 0.936489
O O10 0.750000 0.250000 0.919973
O O11 0.731592 0.353016 0.000000
O O12 0.500000 0.627678 0.385301
O O13 0.307444 0.500000 0.374537
O O14 0.219982 0.653633 0.353511
O O15 0.750000 0.750000 0.727987
O O16 0.000000 0.662129 0.714829
#
# Coordination Sequence:
#
# PCOD8272434 Si02
#       6
#     8   8   8  16  16  16
#     4  11  23  42  63  87 119 154 198 253 305 354
#     4   9  19  35  58  84 113 153 196 237 288 348
#     4  10  21  35  53  83 117 154 192 232 284 349
#     4   9  17  32  55  84 118 155 194 235 281 338
#     4  10  20  37  61  86 117 153 192 238 292 351
#     4  12  25  42  64  89 117 154 200 247 300 359
#
# _framework density 20.075742999999999
#
# number of rings (size 3 to 8) (size 9 to 14) (size 15 to 20)
#    0.000    1.778    1.111    3.667    0.000    6.222 
#    0.000    5.000    0.000    4.667    0.000    0.000 
#    0.000    0.000    0.000    0.000    0.000    0.000 
#
# Total GULP energy -446487.835058 kJ/mol
# GULP energy per Si atom -12402.439863 kJ/mol
# Density = 2.003005 g / cm^3
# Si number density = 20.075743 Si / 1000 Ang^3
#
#
#
# Elastic Constant Matrix: (Units=GPa)
#
#
# Indices 1 2 3 4 5 6 
#
# 1 73.8723 49.1478 41.2996 0.0000 0.0000 0.0000
# 2 49.1478 172.9143 76.9710 0.0000 0.0000 0.0000
# 3 41.2996 76.9710 125.4325 0.0000 0.0000 0.0000
# 4 0.0000 0.0000 0.0000 16.7397 0.0000 0.0000
# 5 0.0000 0.0000 0.0000 0.0000 19.5778 0.0000
# 6 0.0000 0.0000 0.0000 0.0000 0.0000 35.7580
#
#
#
# Elastic Compliance Matrix: (Units=1/GPa)
#
#
# Indices 1 2 3 4 5 6 
#
# 1 0.017932 -0.003396 -0.003820 0.000000 0.000000 0.000000
# 2 -0.003396 0.008600 -0.004159 0.000000 0.000000 0.000000
# 3 -0.003820 -0.004159 0.011782 0.000000 0.000000 0.000000
# 4 0.000000 0.000000 0.000000 0.059738 0.000000 0.000000
# 5 0.000000 0.000000 0.000000 0.000000 0.051078 0.000000
# 6 0.000000 0.000000 0.000000 0.000000 0.000000 0.027966
#
#
# Mechanical properties :
#
#
# Convention : Reuss Voigt Hill
#
# Bulk Modulus (GPa) = 64.25321 78.56179 71.40750
# Shear Modulus (GPa) = 24.38601 28.06849 26.22725
#
# Velocity S-wave (km/s) = 3.48904 3.74321 3.61836
# Velocity P-wave (km/s) = 6.95025 7.60919 7.28718
#
# Compressibility (1/GPa) = 0.01556343
#
# Stress axis : x y z
#
# Youngs Moduli (GPa) = 55.76545 116.28008 84.87256
#
# Poissons Ratio (x) = 0.39494 0.32422
# Poissons Ratio (y) = 0.18940 0.35298
# Poissons Ratio (z) = 0.21303 0.48361
#
# Static dielectric constant tensor:
#      x y z
#    x 3.459910 0.000000 0.000000 
#    y 0.000000 3.821040 0.000000 
#    z 0.000000 0.000000 3.874830 
# 
# 
# High freq. dielectric constant tensor:
#      x y z
#    x 1.762240 0.000000 0.000000 
#    y 0.000000 1.799360 0.000000 
#    z 0.000000 0.000000 1.784160 
# 
# From -- ./inp_files/72612.got.cif
#   From: 2010.03.12/outbox.cif.g09.slc.cpg/sg65_37_cif.got.tgz:72612.got - 2010.04.10 20:52:16.
