data_PCOD8272171
_publ_section_title
;
Structure prediction by ZEFSAII (Michael W. Deem and Ramdas Pophale) SiO2 
 PCOD8272171
Probable space group: C M M M
;
_chemical_formula_sum "Si O2"
_cell_formula_units_Z 120
_cell_length_a 20.907183
_cell_length_b 22.725107
_cell_length_c 13.801420
_cell_angle_alpha 90.000000
_cell_angle_beta 90.000000
_cell_angle_gamma 90.000000
_cell_volume 6557.302664
_symmetry_space_group_name_H-M "C M M M"
_symmetry_group_IT_number 65
_symmetry_cell_setting 'orthorhombic'
loop_
_space_group_symop_operation_xyz
x,y,z
-x,-y,z
x,-y,-z
-x,y,-z
-x,-y,-z
x,y,-z
-x,y,z
x,-y,z
1/2+x,1/2+y,z
1/2-x,1/2-y,z
1/2+x,1/2-y,-z
1/2-x,1/2+y,-z
1/2-x,1/2-y,-z
1/2+x,1/2+y,-z
1/2-x,1/2+y,z
1/2+x,1/2-y,z
loop_
_atom_site_type_symbol
_atom_site_label
_atom_site_fract_x
_atom_site_fract_y
_atom_site_fract_z
Si Si1 0.574110 0.247724 0.237661
Si Si2 0.500000 0.433413 0.885546
Si Si3 0.759799 0.068196 0.112878
Si Si4 0.863129 0.567697 0.242900
Si Si5 0.072791 0.069192 0.391944
Si Si6 0.379213 0.625331 0.791031
Si Si7 0.573778 0.855632 0.895959
Si Si8 0.073947 0.347820 0.387754
O O1 0.500000 0.264351 0.219941
O O2 0.617445 0.304884 0.224717
O O3 0.601425 0.200568 0.160735
O O4 0.582591 0.217585 0.343212
O O5 0.500000 0.500000 0.842722
O O6 0.561769 0.398985 0.851234
O O7 0.500000 0.435637 0.000000
O O8 0.702628 0.082736 0.187178
O O9 0.816956 0.109710 0.147610
O O10 0.780100 0.000000 0.122582
O O11 0.742477 0.081979 0.000000
O O12 0.867892 0.500000 0.272863
O O13 0.917200 0.584457 0.164521
O O14 0.876281 0.606119 0.339274
O O15 0.087600 0.093158 0.500000
O O16 0.122189 0.097214 0.316409
O O17 0.000000 0.086318 0.362307
O O18 0.081676 0.000000 0.390541
O O19 0.500000 0.844916 0.910924
O O20 0.608372 0.860684 0.000000
O O21 0.091379 0.344336 0.500000
O O22 0.000000 0.368363 0.370846
#
# Coordination Sequence:
#
# PCOD8272171 Si02
#       8
#    16   8  16  16  16  16  16  16
#     4   9  18  33  50  78 110 142 180 222 276 332
#     4  11  22  32  47  75 107 139 185 252 312 342
#     4  10  22  38  54  75 109 153 195 234 280 333
#     4  10  20  36  57  80 109 144 179 217 266 333
#     4   9  17  29  46  69  96 126 165 221 287 340
#     4  12  20  33  53  76 105 145 195 241 281 336
#     4   9  18  32  51  75 105 136 169 217 271 322
#     4   9  19  37  62  89 118 144 170 217 278 336
#
# _framework density 18.300207
#
# number of rings (size 3 to 8) (size 9 to 14) (size 15 to 20)
#    0.000    2.200    1.333    3.600    0.000    4.800 
#    0.000    6.000    0.000    5.600    0.000    0.000 
#    0.000    0.000    0.000    0.000    0.000    0.000 
#
# Total GULP energy -743657.641153 kJ/mol
# GULP energy per Si atom -12394.294019 kJ/mol
# Density = 1.825855 g / cm^3
# Si number density = 18.300207 Si / 1000 Ang^3
#
#
#
# Elastic Constant Matrix: (Units=GPa)
#
#
# Indices 1 2 3 4 5 6 
#
# 1 62.0058 45.9456 40.3874 0.0000 0.0000 0.0000
# 2 45.9456 90.4867 36.6944 0.0000 0.0000 0.0000
# 3 40.3874 36.6944 115.7117 0.0000 0.0000 0.0000
# 4 0.0000 0.0000 0.0000 15.7613 0.0000 0.0000
# 5 0.0000 0.0000 0.0000 0.0000 26.9703 0.0000
# 6 0.0000 0.0000 0.0000 0.0000 0.0000 34.9601
#
#
#
# Elastic Compliance Matrix: (Units=1/GPa)
#
#
# Indices 1 2 3 4 5 6 
#
# 1 0.029427 -0.012367 -0.006349 0.000000 0.000000 0.000000
# 2 -0.012367 0.017880 -0.001353 0.000000 0.000000 0.000000
# 3 -0.006349 -0.001353 0.011287 0.000000 0.000000 0.000000
# 4 0.000000 0.000000 0.000000 0.063446 0.000000 0.000000
# 5 0.000000 0.000000 0.000000 0.000000 0.037078 0.000000
# 6 0.000000 0.000000 0.000000 0.000000 0.000000 0.028604
#
#
# Mechanical properties :
#
#
# Convention : Reuss Voigt Hill
#
# Bulk Modulus (GPa) = 54.18686 57.13986 55.66336
# Shear Modulus (GPa) = 21.36630 25.21680 23.29155
#
# Velocity S-wave (km/s) = 3.42064 3.71610 3.57143
# Velocity P-wave (km/s) = 6.72869 7.05010 6.89127
#
# Compressibility (1/GPa) = 0.01845466
#
# Stress axis : x y z
#
# Youngs Moduli (GPa) = 33.98247 55.92924 88.59393
#
# Poissons Ratio (x) = 0.69168 0.56250
# Poissons Ratio (y) = 0.42026 0.11991
# Poissons Ratio (z) = 0.21576 0.07570
#
# Static dielectric constant tensor:
#      x y z
#    x 3.245550 0.000000 0.000000 
#    y 0.000000 3.328350 0.000000 
#    z 0.000000 0.000000 3.874960 
# 
# 
# High freq. dielectric constant tensor:
#      x y z
#    x 1.676310 0.000000 0.000000 
#    y 0.000000 1.702750 0.000000 
#    z 0.000000 0.000000 1.724580 
# 
# From -- ./inp_files/44706.got.cif
#   From: 2010.03.12/outbox.cif.g09.slc.cpg/sg65_23_cif.got.tgz:44706.got - 2010.04.10 20:52:16.
