data_PCOD8272790
_publ_section_title
;
Structure prediction by ZEFSAII (Michael W. Deem and Ramdas Pophale) SiO2 
 PCOD8272790
Probable space group: C M M M
;
_chemical_formula_sum "Si O2"
_cell_formula_units_Z 88
_cell_length_a 9.139552
_cell_length_b 19.286524
_cell_length_c 27.448750
_cell_angle_alpha 90.000000
_cell_angle_beta 90.000000
_cell_angle_gamma 90.000000
_cell_volume 4838.396350
_symmetry_space_group_name_H-M "C M M M"
_symmetry_group_IT_number 65
_symmetry_cell_setting 'orthorhombic'
loop_
_space_group_symop_operation_xyz
x,y,z
-x,-y,z
x,-y,-z
-x,y,-z
-x,-y,-z
x,y,-z
-x,y,z
x,-y,z
1/2+x,1/2+y,z
1/2-x,1/2-y,z
1/2+x,1/2-y,-z
1/2-x,1/2+y,-z
1/2-x,1/2-y,-z
1/2+x,1/2+y,-z
1/2-x,1/2+y,z
1/2+x,1/2-y,z
loop_
_atom_site_type_symbol
_atom_site_label
_atom_site_fract_x
_atom_site_fract_y
_atom_site_fract_z
Si Si1 0.671025 0.081107 0.105268
Si Si2 0.670899 0.919948 0.359955
Si Si3 0.670455 0.181109 0.445046
Si Si4 0.338681 0.917830 0.000000
Si Si5 0.830231 0.180762 0.824039
Si Si6 0.829624 0.820095 0.289386
O O1 0.500000 0.100801 0.109783
O O2 0.764970 0.116768 0.146782
O O3 0.693179 0.000000 0.112979
O O4 0.734964 0.104437 0.051548
O O5 0.500000 0.911309 0.347879
O O6 0.712024 0.883529 0.410987
O O7 0.763119 0.886043 0.316687
O O8 0.715828 0.000000 0.364432
O O9 0.721186 0.162736 0.500000
O O10 0.500000 0.197265 0.443096
O O11 0.750000 0.250000 0.425644
O O12 0.500000 0.885158 0.000000
O O13 0.353195 0.000000 0.000000
O O14 0.750000 0.250000 0.841651
O O15 0.801398 0.166657 0.767380
O O16 0.000000 0.188936 0.835840
O O17 0.750000 0.750000 0.307032
O O18 0.000000 0.812445 0.301730
#
# Coordination Sequence:
#
# PCOD8272790 Si02
#       6
#    16  16  16   8  16  16
#     4   9  17  31  53  78 103 133 168 206 249 298
#     4  10  21  35  52  77 107 137 170 209 252 299
#     4   9  18  33  53  76 102 134 172 211 250 295
#     4   7  12  26  48  73 100 131 167 203 242 293
#     4  10  21  36  53  74 101 132 168 210 255 303
#     4  10  21  37  56  75  98 132 171 211 255 303
#
# _framework density 18.187844999999999
#
# number of rings (size 3 to 8) (size 9 to 14) (size 15 to 20)
#    0.000    2.636    0.000    2.727    0.000    6.182 
#    0.000    6.364    0.000    1.636    0.000    3.818 
#    0.000    0.000    0.000    0.000    0.000    0.000 
#
# Total GULP energy -545480.343325 kJ/mol
# GULP energy per Si atom -12397.280530 kJ/mol
# Density = 1.814645 g / cm^3
# Si number density = 18.187845 Si / 1000 Ang^3
#
#
#
# Elastic Constant Matrix: (Units=GPa)
#
#
# Indices 1 2 3 4 5 6 
#
# 1 80.0999 59.7810 57.3467 0.0000 0.0000 0.0000
# 2 59.7810 119.9832 69.4669 0.0000 0.0000 0.0000
# 3 57.3467 69.4669 96.9548 0.0000 0.0000 0.0000
# 4 0.0000 0.0000 0.0000 27.0449 0.0000 0.0000
# 5 0.0000 0.0000 0.0000 0.0000 23.8959 0.0000
# 6 0.0000 0.0000 0.0000 0.0000 0.0000 31.9238
#
#
#
# Elastic Compliance Matrix: (Units=1/GPa)
#
#
# Indices 1 2 3 4 5 6 
#
# 1 0.024270 -0.006461 -0.009725 0.000000 0.000000 0.000000
# 2 -0.006461 0.015963 -0.007616 0.000000 0.000000 0.000000
# 3 -0.009725 -0.007616 0.021523 0.000000 0.000000 0.000000
# 4 0.000000 0.000000 0.000000 0.036976 0.000000 0.000000
# 5 0.000000 0.000000 0.000000 0.000000 0.041848 0.000000
# 6 0.000000 0.000000 0.000000 0.000000 0.000000 0.031325
#
#
# Mechanical properties :
#
#
# Convention : Reuss Voigt Hill
#
# Bulk Modulus (GPa) = 70.66749 74.46969 72.56859
# Shear Modulus (GPa) = 22.29896 23.93579 23.11737
#
# Velocity S-wave (km/s) = 3.50528 3.63165 3.56902
# Velocity P-wave (km/s) = 7.43782 7.65629 7.54785
#
# Compressibility (1/GPa) = 0.01415078
#
# Stress axis : x y z
#
# Youngs Moduli (GPa) = 41.20382 62.64456 46.46218
#
# Poissons Ratio (x) = 0.40478 0.45186
# Poissons Ratio (y) = 0.26624 0.35383
# Poissons Ratio (z) = 0.40072 0.47707
#
# Static dielectric constant tensor:
#      x y z
#    x 3.253350 0.000000 0.000000 
#    y 0.000000 3.225940 0.000000 
#    z 0.000000 0.000000 3.596770 
# 
# 
# High freq. dielectric constant tensor:
#      x y z
#    x 1.693480 0.000000 0.000000 
#    y 0.000000 1.691230 0.000000 
#    z 0.000000 0.000000 1.718180 
# 
# From -- ./inp_files/76616.got.cif
#   From: 2010.03.12/outbox.cif.g09.slc.cpg/sg65_39_cif.got.tgz:76616.got - 2010.04.10 20:52:16.
