data_PCOD8272551
_publ_section_title
;
Structure prediction by ZEFSAII (Michael W. Deem and Ramdas Pophale) SiO2 
 PCOD8272551
Probable space group: C M M M
;
_chemical_formula_sum "Si O2"
_cell_formula_units_Z 56
_cell_length_a 15.751283
_cell_length_b 11.345230
_cell_length_c 16.122649
_cell_angle_alpha 90.000000
_cell_angle_beta 90.000000
_cell_angle_gamma 90.000000
_cell_volume 2881.148468
_symmetry_space_group_name_H-M "C M M M"
_symmetry_group_IT_number 65
_symmetry_cell_setting 'orthorhombic'
loop_
_space_group_symop_operation_xyz
x,y,z
-x,-y,z
x,-y,-z
-x,y,-z
-x,-y,-z
x,y,-z
-x,y,z
x,-y,z
1/2+x,1/2+y,z
1/2-x,1/2-y,z
1/2+x,1/2-y,-z
1/2-x,1/2+y,-z
1/2-x,1/2-y,-z
1/2+x,1/2+y,-z
1/2-x,1/2+y,z
1/2+x,1/2-y,z
loop_
_atom_site_type_symbol
_atom_site_label
_atom_site_fract_x
_atom_site_fract_y
_atom_site_fract_z
Si Si1 0.500000 0.131693 0.903733
Si Si2 0.812381 0.636593 0.500000
Si Si3 0.900200 0.000000 0.905285
Si Si4 0.154461 0.236144 0.826395
Si Si5 0.099421 0.366176 0.327277
O O1 0.412016 0.182473 0.872845
O O2 0.500000 0.000000 0.872278
O O3 0.500000 0.150155 0.000000
O O4 0.772771 0.500000 0.500000
O O5 0.750000 0.750000 0.500000
O O6 0.872541 0.652006 0.421229
O O7 0.870974 0.104670 0.846870
O O8 0.000000 0.000000 0.915512
O O9 0.861666 0.000000 0.000000
O O10 0.250000 0.250000 0.859678
O O11 0.149842 0.271469 0.729258
O O12 0.119922 0.500000 0.298334
O O13 0.000000 0.339402 0.318907
#
# Coordination Sequence:
#
# PCOD8272551 Si02
#       5
#     8   8   8  16  16
#     4  11  24  43  65  90 124 164 214 275 328 386
#     4  10  21  39  63  99 131 168 210 261 321 383
#     4  11  24  44  64  86 128 176 215 266 332 399
#     4  12  25  41  65  95 127 167 218 268 326 386
#     4  10  20  39  67  93 126 166 216 267 314 377
#
# _framework density 19.436693000000002
#
# number of rings (size 3 to 8) (size 9 to 14) (size 15 to 20)
#    0.000    1.143    2.857    3.000    4.000    4.000 
#    2.571    0.000    0.000    0.857    0.000    0.000 
#    0.000    0.000    0.000    0.000    0.000    0.000 
#
# Total GULP energy -346973.509174 kJ/mol
# GULP energy per Si atom -12391.911042 kJ/mol
# Density = 1.939245 g / cm^3
# Si number density = 19.436693 Si / 1000 Ang^3
#
#
#
# Elastic Constant Matrix: (Units=GPa)
#
#
# Indices 1 2 3 4 5 6 
#
# 1 137.3210 60.3353 37.5114 0.0000 0.0000 0.0000
# 2 60.3353 171.5578 56.2675 0.0000 0.0000 0.0000
# 3 37.5114 56.2675 139.7613 0.0000 0.0000 0.0000
# 4 0.0000 0.0000 0.0000 46.4886 0.0000 0.0000
# 5 0.0000 0.0000 0.0000 0.0000 210.4549 0.0000
# 6 0.0000 0.0000 0.0000 0.0000 0.0000 25.3442
#
#
#
# Elastic Compliance Matrix: (Units=1/GPa)
#
#
# Indices 1 2 3 4 5 6 
#
# 1 0.008810 -0.002676 -0.001287 0.000000 0.000000 0.000000
# 2 -0.002676 0.007529 -0.002313 0.000000 0.000000 0.000000
# 3 -0.001287 -0.002313 0.008432 0.000000 0.000000 0.000000
# 4 0.000000 0.000000 0.000000 0.021511 0.000000 0.000000
# 5 0.000000 0.000000 0.000000 0.000000 0.004752 0.000000
# 6 0.000000 0.000000 0.000000 0.000000 0.000000 0.039457
#
#
# Mechanical properties :
#
#
# Convention : Reuss Voigt Hill
#
# Bulk Modulus (GPa) = 81.84656 84.09647 82.97152
# Shear Modulus (GPa) = 46.67948 76.09260 61.38604
#
# Velocity S-wave (km/s) = 4.90595 6.26370 5.62593
# Velocity P-wave (km/s) = 8.61927 9.78124 9.21858
#
# Compressibility (1/GPa) = 0.01221798
#
# Stress axis : x y z
#
# Youngs Moduli (GPa) = 113.51244 132.82608 118.60136
#
# Poissons Ratio (x) = 0.35546 0.15265
# Poissons Ratio (y) = 0.30377 0.27429
# Poissons Ratio (z) = 0.14610 0.30719
#
# Static dielectric constant tensor:
#      x y z
#    x 3.489330 0.000000 0.000000 
#    y 0.000000 3.966890 0.000000 
#    z 0.000000 0.000000 3.833050 
# 
# 
# High freq. dielectric constant tensor:
#      x y z
#    x 1.757840 0.000000 0.000000 
#    y 0.000000 1.763720 0.000000 
#    z 0.000000 0.000000 1.771660 
# 
# From -- ./inp_files/39299.got.cif
#   From: 2010.03.12/outbox.cif.g09.slc.cpg/sg65_20_cif.got.tgz:39299.got - 2010.04.10 20:52:16.
