data_PCOD8272717
_publ_section_title
;
Structure prediction by ZEFSAII (Michael W. Deem and Ramdas Pophale) SiO2 
 PCOD8272717
Probable space group: C M M M
;
_chemical_formula_sum "Si O2"
_cell_formula_units_Z 64
_cell_length_a 20.794260
_cell_length_b 17.531348
_cell_length_c 9.220346
_cell_angle_alpha 90.000000
_cell_angle_beta 90.000000
_cell_angle_gamma 90.000000
_cell_volume 3361.290121
_symmetry_space_group_name_H-M "C M M M"
_symmetry_group_IT_number 65
_symmetry_cell_setting 'orthorhombic'
loop_
_space_group_symop_operation_xyz
x,y,z
-x,-y,z
x,-y,-z
-x,y,-z
-x,-y,-z
x,y,-z
-x,y,z
x,-y,z
1/2+x,1/2+y,z
1/2-x,1/2-y,z
1/2+x,1/2-y,-z
1/2-x,1/2+y,-z
1/2-x,1/2-y,-z
1/2+x,1/2+y,-z
1/2-x,1/2+y,z
1/2+x,1/2-y,z
loop_
_atom_site_type_symbol
_atom_site_label
_atom_site_fract_x
_atom_site_fract_y
_atom_site_fract_z
Si Si1 0.320161 0.783454 0.166695
Si Si2 0.000000 0.409861 0.838519
Si Si3 0.075658 0.000000 0.157482
Si Si4 0.927323 0.164676 0.173134
Si Si5 0.125447 0.587783 0.669664
O O1 0.250000 0.750000 0.184967
O O2 0.374697 0.725571 0.227544
O O3 0.318616 0.859811 0.264537
O O4 0.334508 0.804796 0.000000
O O5 0.061762 0.382513 0.750659
O O6 0.000000 0.500000 0.850750
O O7 0.000000 0.372855 0.000000
O O8 0.092813 0.080429 0.237786
O O9 0.000000 0.000000 0.133285
O O10 0.110179 0.000000 0.000000
O O11 0.000000 0.187951 0.223709
O O12 0.925713 0.158409 0.000000
O O13 0.116370 0.600742 0.500000
O O14 0.141289 0.500000 0.704770
#
# Coordination Sequence:
#
# PCOD8272717 Si02
#       5
#    16   8   8  16  16
#     4  10  21  35  50  78 113 141 179 230 279 325
#     4   9  17  31  55  85 111 136 171 224 283 325
#     4   7  10  20  40  66  93 121 160 208 258 313
#     4   8  14  26  46  71  99 133 171 213 264 322
#     4  10  21  37  56  78 107 146 190 228 268 332
#
# _framework density 19.040309000000001
#
# number of rings (size 3 to 8) (size 9 to 14) (size 15 to 20)
#    0.000    3.000    0.000    2.625    1.750    3.500 
#    2.250    0.000    0.000    0.000    0.000    0.000 
#    0.000    3.000    0.000    0.000    0.000    0.000 
#
# Total GULP energy -396493.915014 kJ/mol
# GULP energy per Si atom -12390.434844 kJ/mol
# Density = 1.899697 g / cm^3
# Si number density = 19.040309 Si / 1000 Ang^3
#
#
#
# Elastic Constant Matrix: (Units=GPa)
#
#
# Indices 1 2 3 4 5 6 
#
# 1 85.1652 57.0231 33.7409 0.0000 0.0000 0.0000
# 2 57.0231 121.0027 51.5008 0.0000 0.0000 0.0000
# 3 33.7409 51.5008 75.1925 0.0000 0.0000 0.0000
# 4 0.0000 0.0000 0.0000 21.6486 0.0000 0.0000
# 5 0.0000 0.0000 0.0000 0.0000 15.7004 0.0000
# 6 0.0000 0.0000 0.0000 0.0000 0.0000 20.5717
#
#
#
# Elastic Compliance Matrix: (Units=1/GPa)
#
#
# Indices 1 2 3 4 5 6 
#
# 1 0.017665 -0.006988 -0.003141 0.000000 0.000000 0.000000
# 2 -0.006988 0.014429 -0.006747 0.000000 0.000000 0.000000
# 3 -0.003141 -0.006747 0.019330 0.000000 0.000000 0.000000
# 4 0.000000 0.000000 0.000000 0.046192 0.000000 0.000000
# 5 0.000000 0.000000 0.000000 0.000000 0.063692 0.000000
# 6 0.000000 0.000000 0.000000 0.000000 0.000000 0.048611
#
#
# Mechanical properties :
#
#
# Convention : Reuss Voigt Hill
#
# Bulk Modulus (GPa) = 56.58510 62.87667 59.73088
# Shear Modulus (GPa) = 20.03517 20.85718 20.44618
#
# Velocity S-wave (km/s) = 3.24736 3.31331 3.28050
# Velocity P-wave (km/s) = 6.62145 6.90883 6.76667
#
# Compressibility (1/GPa) = 0.01767250
#
# Stress axis : x y z
#
# Youngs Moduli (GPa) = 56.60900 69.30445 51.73411
#
# Poissons Ratio (x) = 0.48431 0.16247
# Poissons Ratio (y) = 0.39559 0.34905
# Poissons Ratio (z) = 0.17778 0.46760
#
# Static dielectric constant tensor:
#      x y z
#    x 3.333930 0.000000 0.000000 
#    y 0.000000 3.832270 0.000000 
#    z 0.000000 0.000000 3.067570 
# 
# 
# High freq. dielectric constant tensor:
#      x y z
#    x 1.718310 0.000000 0.000000 
#    y 0.000000 1.756670 0.000000 
#    z 0.000000 0.000000 1.689810 
# 
# From -- ./inp_files/8817.got.cif
#   From: 2010.03.12/outbox.cif.g09.slc.cpg/sg65_5_cif.got.tgz:8817.got - 2010.04.10 20:52:16.
