data_PCOD8272084
_publ_section_title
;
Structure prediction by ZEFSAII (Michael W. Deem and Ramdas Pophale) SiO2 
 PCOD8272084
Probable space group: C M M M
;
_chemical_formula_sum "Si O2"
_cell_formula_units_Z 88
_cell_length_a 12.561535
_cell_length_b 23.575641
_cell_length_c 13.886950
_cell_angle_alpha 90.000000
_cell_angle_beta 90.000000
_cell_angle_gamma 90.000000
_cell_volume 4112.568022
_symmetry_space_group_name_H-M "C M M M"
_symmetry_group_IT_number 65
_symmetry_cell_setting 'orthorhombic'
loop_
_space_group_symop_operation_xyz
x,y,z
-x,-y,z
x,-y,-z
-x,y,-z
-x,-y,-z
x,y,-z
-x,y,z
x,-y,z
1/2+x,1/2+y,z
1/2-x,1/2-y,z
1/2+x,1/2-y,-z
1/2-x,1/2+y,-z
1/2-x,1/2-y,-z
1/2+x,1/2+y,-z
1/2-x,1/2+y,z
1/2+x,1/2-y,z
loop_
_atom_site_type_symbol
_atom_site_label
_atom_site_fract_x
_atom_site_fract_y
_atom_site_fract_z
Si Si1 0.000000 0.261385 0.386349
Si Si2 0.000000 0.215863 0.884884
Si Si3 0.117517 0.000000 0.610604
Si Si4 0.329393 0.295999 0.258365
Si Si5 0.500000 0.106702 0.385473
Si Si6 0.500000 0.155087 0.110895
Si Si7 0.671598 0.937576 0.893082
Si Si8 0.769658 0.411447 0.303271
O O1 0.103265 0.230485 0.344943
O O2 0.000000 0.254019 0.500000
O O3 0.000000 0.327379 0.357288
O O4 0.898284 0.185670 0.835838
O O5 0.000000 0.281760 0.843569
O O6 0.000000 0.208659 0.000000
O O7 0.186068 0.944111 0.631385
O O8 0.092760 0.000000 0.500000
O O9 0.000000 0.000000 0.662519
O O10 0.250000 0.250000 0.215004
O O11 0.262152 0.346141 0.305509
O O12 0.500000 0.096302 0.500000
O O13 0.607908 0.079330 0.340002
O O14 0.598968 0.115703 0.138079
O O15 0.500000 0.168753 0.000000
O O16 0.752753 0.937229 0.804278
O O17 0.614911 0.000000 0.895969
O O18 0.721223 0.926401 0.000000
#
# Coordination Sequence:
#
# PCOD8272084 Si02
#       8
#     8   8   8  16   8   8  16  16
#     4  10  23  41  60  94 131 169 220 275 340 402
#     4  10  23  40  59  93 134 177 226 277 335 402
#     4  11  28  51  72  96 129 179 235 279 331 402
#     4  11  23  39  64  95 131 176 225 275 334 406
#     4  11  24  42  70 104 139 171 213 281 350 409
#     4   9  17  31  56  88 129 176 218 262 321 392
#     4  10  20  35  59  93 130 171 219 268 328 398
#     4  12  24  44  70  99 138 176 225 279 343 399
#
# _framework density 21.397822999999999
#
# number of rings (size 3 to 8) (size 9 to 14) (size 15 to 20)
#    0.000    1.364    2.727    2.455    5.091    4.364 
#    0.000    0.909    0.000    0.545    0.000    0.000 
#    0.000    0.000    0.000    0.000    0.000    0.000 
#
# Total GULP energy -545076.568798 kJ/mol
# GULP energy per Si atom -12388.103836 kJ/mol
# Density = 2.134912 g / cm^3
# Si number density = 21.397823 Si / 1000 Ang^3
#
#
#
# Elastic Constant Matrix: (Units=GPa)
#
#
# Indices 1 2 3 4 5 6 
#
# 1 137.1477 32.9286 41.5868 0.0000 0.0000 0.0000
# 2 32.9286 84.5653 9.6331 0.0000 0.0000 0.0000
# 3 41.5868 9.6331 108.1327 0.0000 0.0000 0.0000
# 4 0.0000 0.0000 0.0000 19.3141 0.0000 0.0000
# 5 0.0000 0.0000 0.0000 0.0000 18.8948 0.0000
# 6 0.0000 0.0000 0.0000 0.0000 0.0000 26.9227
#
#
#
# Elastic Compliance Matrix: (Units=1/GPa)
#
#
# Indices 1 2 3 4 5 6 
#
# 1 0.009013 -0.003147 -0.003186 0.000000 0.000000 0.000000
# 2 -0.003147 0.013045 0.000048 0.000000 0.000000 0.000000
# 3 -0.003186 0.000048 0.010469 0.000000 0.000000 0.000000
# 4 0.000000 0.000000 0.000000 0.051776 0.000000 0.000000
# 5 0.000000 0.000000 0.000000 0.000000 0.052925 0.000000
# 6 0.000000 0.000000 0.000000 0.000000 0.000000 0.037143
#
#
# Mechanical properties :
#
#
# Convention : Reuss Voigt Hill
#
# Bulk Modulus (GPa) = 50.10590 55.34920 52.72755
# Shear Modulus (GPa) = 25.82748 29.40613 27.61681
#
# Velocity S-wave (km/s) = 3.47798 3.71112 3.59644
# Velocity P-wave (km/s) = 6.29251 6.65478 6.47618
#
# Compressibility (1/GPa) = 0.01995773
#
# Stress axis : x y z
#
# Youngs Moduli (GPa) = 110.95123 76.65800 95.52087
#
# Poissons Ratio (x) = 0.24121 0.30433
# Poissons Ratio (y) = 0.34912 -0.00459
# Poissons Ratio (z) = 0.35349 -0.00368
#
# Static dielectric constant tensor:
#      x y z
#    x 4.027280 0.000000 0.000000 
#    y 0.000000 3.901530 0.000000 
#    z 0.000000 0.000000 3.918130 
# 
# 
# High freq. dielectric constant tensor:
#      x y z
#    x 1.819860 0.000000 0.000000 
#    y 0.000000 1.839590 0.000000 
#    z 0.000000 0.000000 1.854520 
# 
# From -- ./inp_files/38464.got.cif
#   From: 2010.03.12/outbox.cif.g09.slc.cpg/sg65_20_cif.got.tgz:38464.got - 2010.04.10 20:52:16.
