data_PCOD8272829
_publ_section_title
;
Structure prediction by ZEFSAII (Michael W. Deem and Ramdas Pophale) SiO2 
 PCOD8272829
Probable space group: C M M M
;
_chemical_formula_sum "Si O2"
_cell_formula_units_Z 88
_cell_length_a 8.835447
_cell_length_b 18.641530
_cell_length_c 28.093414
_cell_angle_alpha 90.000000
_cell_angle_beta 90.000000
_cell_angle_gamma 90.000000
_cell_volume 4627.160878
_symmetry_space_group_name_H-M "C M M M"
_symmetry_group_IT_number 65
_symmetry_cell_setting 'orthorhombic'
loop_
_space_group_symop_operation_xyz
x,y,z
-x,-y,z
x,-y,-z
-x,y,-z
-x,-y,-z
x,y,-z
-x,y,z
x,-y,z
1/2+x,1/2+y,z
1/2-x,1/2-y,z
1/2+x,1/2-y,-z
1/2-x,1/2+y,-z
1/2-x,1/2-y,-z
1/2+x,1/2+y,-z
1/2-x,1/2+y,z
1/2+x,1/2-y,z
loop_
_atom_site_type_symbol
_atom_site_label
_atom_site_fract_x
_atom_site_fract_y
_atom_site_fract_z
Si Si1 0.320864 0.327971 0.771465
Si Si2 0.679013 0.327631 0.500000
Si Si3 0.320038 0.580075 0.860519
Si Si4 0.678512 0.675012 0.053441
Si Si5 0.176176 0.582997 0.311086
Si Si6 0.325208 0.582602 0.409623
O O1 0.500000 0.320509 0.772513
O O2 0.250000 0.250000 0.773574
O O3 0.259455 0.373082 0.816499
O O4 0.272823 0.368183 0.723827
O O5 0.500000 0.321650 0.500000
O O6 0.750000 0.250000 0.500000
O O7 0.734365 0.369988 0.453362
O O8 0.500000 0.576945 0.859305
O O9 0.251920 0.500000 0.856778
O O10 0.263370 0.614487 0.910139
O O11 0.500000 0.684167 0.056677
O O12 0.750000 0.750000 0.068998
O O13 0.729114 0.653139 0.000000
O O14 0.214101 0.500000 0.300498
O O15 0.223829 0.603330 0.364450
O O16 0.000000 0.599709 0.304315
O O17 0.500000 0.598521 0.397388
O O18 0.302998 0.500000 0.424068
#
# Coordination Sequence:
#
# PCOD8272829 Si02
#       6
#    16   8  16  16  16  16
#     4  11  22  36  55  77 104 139 177 218 265 316
#     4  10  21  35  53  79 109 140 174 216 262 308
#     4   9  18  32  51  76 103 132 171 217 261 308
#     4   9  17  30  50  75 103 135 169 208 255 307
#     4  10  21  37  57  82 110 138 173 218 265 315
#     4   9  18  35  58  80 104 139 181 218 255 305
#
# _framework density 19.018142000000001
#
# number of rings (size 3 to 8) (size 9 to 14) (size 15 to 20)
#    0.000    2.364    0.000    2.455    0.000    4.727 
#    0.000    4.545    0.000    5.455    0.000    2.545 
#    0.000    0.000    0.000    0.000    0.000    0.000 
#
# Total GULP energy -545690.613912 kJ/mol
# GULP energy per Si atom -12402.059407 kJ/mol
# Density = 1.897486 g / cm^3
# Si number density = 19.018142 Si / 1000 Ang^3
#
#
#
# Elastic Constant Matrix: (Units=GPa)
#
#
# Indices 1 2 3 4 5 6 
#
# 1 41.7531 36.6983 31.7132 0.0000 0.0000 0.0000
# 2 36.6983 150.7264 97.6932 0.0000 0.0000 0.0000
# 3 31.7132 97.6932 141.6716 0.0000 0.0000 0.0000
# 4 0.0000 0.0000 0.0000 31.6063 0.0000 0.0000
# 5 0.0000 0.0000 0.0000 0.0000 18.7649 0.0000
# 6 0.0000 0.0000 0.0000 0.0000 0.0000 27.2552
#
#
#
# Elastic Compliance Matrix: (Units=1/GPa)
#
#
# Indices 1 2 3 4 5 6 
#
# 1 0.031234 -0.005557 -0.003160 0.000000 0.000000 0.000000
# 2 -0.005557 0.012985 -0.007710 0.000000 0.000000 0.000000
# 3 -0.003160 -0.007710 0.013083 0.000000 0.000000 0.000000
# 4 0.000000 0.000000 0.000000 0.031639 0.000000 0.000000
# 5 0.000000 0.000000 0.000000 0.000000 0.053291 0.000000
# 6 0.000000 0.000000 0.000000 0.000000 0.000000 0.036690
#
#
# Mechanical properties :
#
#
# Convention : Reuss Voigt Hill
#
# Bulk Modulus (GPa) = 40.90285 74.04005 57.47145
# Shear Modulus (GPa) = 22.73496 26.72836 24.73166
#
# Velocity S-wave (km/s) = 3.46126 3.75295 3.61005
# Velocity P-wave (km/s) = 6.12599 7.60232 6.90373
#
# Compressibility (1/GPa) = 0.02444817
#
# Stress axis : x y z
#
# Youngs Moduli (GPa) = 32.01592 77.01349 76.43693
#
# Poissons Ratio (x) = 0.42793 0.24155
# Poissons Ratio (y) = 0.17790 0.58934
# Poissons Ratio (z) = 0.10117 0.59378
#
# Static dielectric constant tensor:
#      x y z
#    x 3.258000 0.000000 0.000000 
#    y 0.000000 3.594610 0.000000 
#    z 0.000000 0.000000 3.689140 
# 
# 
# High freq. dielectric constant tensor:
#      x y z
#    x 1.718240 0.000000 0.000000 
#    y 0.000000 1.741670 0.000000 
#    z 0.000000 0.000000 1.754000 
# 
# From -- ./inp_files/76455.got.cif
#   From: 2010.03.12/outbox.cif.g09.slc.cpg/sg65_39_cif.got.tgz:76455.got - 2010.04.10 20:52:16.
