data_PCOD8272700
_publ_section_title
;
Structure prediction by ZEFSAII (Michael W. Deem and Ramdas Pophale) SiO2 
 PCOD8272700
Probable space group: C M M M
;
_chemical_formula_sum "Si O2"
_cell_formula_units_Z 112
_cell_length_a 15.578170
_cell_length_b 17.446175
_cell_length_c 23.209855
_cell_angle_alpha 90.000000
_cell_angle_beta 90.000000
_cell_angle_gamma 90.000000
_cell_volume 6307.962323
_symmetry_space_group_name_H-M "C M M M"
_symmetry_group_IT_number 65
_symmetry_cell_setting 'orthorhombic'
loop_
_space_group_symop_operation_xyz
x,y,z
-x,-y,z
x,-y,-z
-x,y,-z
-x,-y,-z
x,y,-z
-x,y,z
x,-y,z
1/2+x,1/2+y,z
1/2-x,1/2-y,z
1/2+x,1/2-y,-z
1/2-x,1/2+y,-z
1/2-x,1/2-y,-z
1/2+x,1/2+y,-z
1/2-x,1/2+y,z
1/2+x,1/2-y,z
loop_
_atom_site_type_symbol
_atom_site_label
_atom_site_fract_x
_atom_site_fract_y
_atom_site_fract_z
Si Si1 0.255467 0.408587 0.347361
Si Si2 0.166478 0.197651 0.435594
Si Si3 0.403010 0.342888 0.865593
Si Si4 0.405169 0.194280 0.651944
Si Si5 0.744923 0.587594 0.935305
Si Si6 0.171745 0.199343 0.747069
Si Si7 0.095631 0.687460 0.933144
O O1 0.255241 0.500000 0.343922
O O2 0.312976 0.381179 0.401675
O O3 0.158814 0.377273 0.355268
O O4 0.294520 0.373343 0.289077
O O5 0.134978 0.177213 0.500000
O O6 0.250000 0.250000 0.436288
O O7 0.095610 0.248142 0.402719
O O8 0.500000 0.373987 0.874182
O O9 0.335864 0.401611 0.893383
O O10 0.385886 0.333722 0.798027
O O11 0.389795 0.262810 0.896657
O O12 0.500000 0.159271 0.657759
O O13 0.384235 0.244434 0.707913
O O14 0.771197 0.500000 0.935203
O O15 0.830545 0.629608 0.912605
O O16 0.720512 0.615012 0.000000
O O17 0.250000 0.250000 0.772241
O O18 0.000000 0.653105 0.921489
O O19 0.106079 0.708374 0.000000
#
# Coordination Sequence:
#
# PCOD8272700 Si02
#       7
#    16  16  16  16  16  16  16
#     4   9  18  31  48  72  99 127 159 196 240 286
#     4   8  15  29  48  68  92 128 168 195 221 268
#     4  11  21  33  53  76  96 125 166 208 248 289
#     4   9  17  30  49  73  99 124 154 196 243 290
#     4  10  21  35  50  71 102 135 161 192 240 297
#     4   9  18  33  51  69  92 126 166 203 239 284
#     4   9  18  33  54  78  99 122 159 205 247 288
#
# _framework density 17.755337999999998
#
# number of rings (size 3 to 8) (size 9 to 14) (size 15 to 20)
#    0.000    2.714    0.000    3.857    0.000    4.000 
#    0.000    2.143    0.000   10.286    0.000   12.000 
#    0.000    0.000    0.000    0.000    0.000    0.000 
#
# Total GULP energy -694198.268005 kJ/mol
# GULP energy per Si atom -12396.397643 kJ/mol
# Density = 1.771493 g / cm^3
# Si number density = 17.755338 Si / 1000 Ang^3
#
#
#
# Elastic Constant Matrix: (Units=GPa)
#
#
# Indices 1 2 3 4 5 6 
#
# 1 92.6066 30.6190 26.0018 0.0000 0.0000 0.0000
# 2 30.6190 91.0454 22.7304 0.0000 0.0000 0.0000
# 3 26.0018 22.7304 75.6233 0.0000 0.0000 0.0000
# 4 0.0000 0.0000 0.0000 32.0284 0.0000 0.0000
# 5 0.0000 0.0000 0.0000 0.0000 16.6625 0.0000
# 6 0.0000 0.0000 0.0000 0.0000 0.0000 13.8992
#
#
#
# Elastic Compliance Matrix: (Units=1/GPa)
#
#
# Indices 1 2 3 4 5 6 
#
# 1 0.012905 -0.003494 -0.003387 0.000000 0.000000 0.000000
# 2 -0.003494 0.012821 -0.002652 0.000000 0.000000 0.000000
# 3 -0.003387 -0.002652 0.015185 0.000000 0.000000 0.000000
# 4 0.000000 0.000000 0.000000 0.031222 0.000000 0.000000
# 5 0.000000 0.000000 0.000000 0.000000 0.060015 0.000000
# 6 0.000000 0.000000 0.000000 0.000000 0.000000 0.071947
#
#
# Mechanical properties :
#
#
# Convention : Reuss Voigt Hill
#
# Bulk Modulus (GPa) = 45.77893 46.44195 46.11044
# Shear Modulus (GPa) = 21.69743 24.51297 23.10520
#
# Velocity S-wave (km/s) = 3.49954 3.71967 3.61128
# Velocity P-wave (km/s) = 6.49370 6.68291 6.58899
#
# Compressibility (1/GPa) = 0.02184411
#
# Stress axis : x y z
#
# Youngs Moduli (GPa) = 77.49159 77.99813 65.85420
#
# Poissons Ratio (x) = 0.27255 0.22303
# Poissons Ratio (y) = 0.27078 0.17465
# Poissons Ratio (z) = 0.26244 0.20686
#
# Static dielectric constant tensor:
#      x y z
#    x 3.341110 0.000000 0.000000 
#    y 0.000000 2.989300 0.000000 
#    z 0.000000 0.000000 3.451890 
# 
# 
# High freq. dielectric constant tensor:
#      x y z
#    x 1.687830 0.000000 0.000000 
#    y 0.000000 1.662120 0.000000 
#    z 0.000000 0.000000 1.688470 
# 
# From -- ./inp_files/69962.got.cif
#   From: 2010.03.12/outbox.cif.g09.slc.cpg/sg65_35_cif.got.tgz:69962.got - 2010.04.10 20:52:16.
