data_PCOD8272272
_publ_section_title
;
Structure prediction by ZEFSAII (Michael W. Deem and Ramdas Pophale) SiO2 
 PCOD8272272
Probable space group: C M M M
;
_chemical_formula_sum "Si O2"
_cell_formula_units_Z 72
_cell_length_a 32.677182
_cell_length_b 14.465269
_cell_length_c 7.377644
_cell_angle_alpha 90.000000
_cell_angle_beta 90.000000
_cell_angle_gamma 90.000000
_cell_volume 3487.295957
_symmetry_space_group_name_H-M "C M M M"
_symmetry_group_IT_number 65
_symmetry_cell_setting 'orthorhombic'
loop_
_space_group_symop_operation_xyz
x,y,z
-x,-y,z
x,-y,-z
-x,y,-z
-x,-y,-z
x,y,-z
-x,y,z
x,-y,z
1/2+x,1/2+y,z
1/2-x,1/2-y,z
1/2+x,1/2-y,-z
1/2-x,1/2+y,-z
1/2-x,1/2-y,-z
1/2+x,1/2+y,-z
1/2-x,1/2+y,z
1/2+x,1/2-y,z
loop_
_atom_site_type_symbol
_atom_site_label
_atom_site_fract_x
_atom_site_fract_y
_atom_site_fract_z
Si Si1 0.545561 0.101401 0.214598
Si Si2 0.742367 0.896815 0.215555
Si Si3 0.094297 0.777516 0.784103
Si Si4 0.046975 0.108917 0.500000
Si Si5 0.813322 0.234103 0.785373
O O1 0.500000 0.124160 0.287970
O O2 0.577085 0.178516 0.282154
O O3 0.559464 0.000000 0.285775
O O4 0.544669 0.100665 0.000000
O O5 0.785001 0.850744 0.281941
O O6 0.705087 0.832023 0.285156
O O7 0.738272 0.000000 0.298535
O O8 0.741982 0.901952 0.000000
O O9 0.068819 0.856222 0.682959
O O10 0.140934 0.781276 0.713998
O O11 0.090110 0.792767 0.000000
O O12 0.000000 0.142076 0.500000
O O13 0.050312 0.000000 0.500000
O O14 0.813516 0.237504 0.000000
#
# Coordination Sequence:
#
# PCOD8272272 Si02
#       5
#    16  16  16   8  16
#     4   8  14  26  47  76 106 135 170 213 265 327
#     4   8  13  23  41  68 106 145 177 216 264 312
#     4  10  20  36  59  83 110 145 184 230 279 324
#     4  11  26  44  59  80 109 141 184 234 281 333
#     4   8  15  26  43  73 105 136 180 221 259 318
#
# _framework density 20.646367999999999
#
# number of rings (size 3 to 8) (size 9 to 14) (size 15 to 20)
#    0.000    3.222    0.000    2.667    0.000    3.556 
#    0.000    8.333    0.000    4.667    0.000    1.556 
#    0.000    0.000    0.000    0.000    0.000    0.000 
#
# Total GULP energy -446123.915125 kJ/mol
# GULP energy per Si atom -12392.330976 kJ/mol
# Density = 2.059938 g / cm^3
# Si number density = 20.646368 Si / 1000 Ang^3
#
#
#
# Elastic Constant Matrix: (Units=GPa)
#
#
# Indices 1 2 3 4 5 6 
#
# 1 177.4480 79.8353 28.7529 0.0000 0.0000 0.0000
# 2 79.8353 148.6380 22.0240 0.0000 0.0000 0.0000
# 3 28.7529 22.0240 54.1901 0.0000 0.0000 0.0000
# 4 0.0000 0.0000 0.0000 1.2250 0.0000 0.0000
# 5 0.0000 0.0000 0.0000 0.0000 4.4066 0.0000
# 6 0.0000 0.0000 0.0000 0.0000 0.0000 19.7457
#
#
#
# Elastic Compliance Matrix: (Units=1/GPa)
#
#
# Indices 1 2 3 4 5 6 
#
# 1 0.007755 -0.003784 -0.002577 0.000000 0.000000 0.000000
# 2 -0.003784 0.009005 -0.001652 0.000000 0.000000 0.000000
# 3 -0.002577 -0.001652 0.020492 0.000000 0.000000 0.000000
# 4 0.000000 0.000000 0.000000 0.816349 0.000000 0.000000
# 5 0.000000 0.000000 0.000000 0.000000 0.226932 0.000000
# 6 0.000000 0.000000 0.000000 0.000000 0.000000 0.050644
#
#
# Mechanical properties :
#
#
# Convention : Reuss Voigt Hill
#
# Bulk Modulus (GPa) = 47.11061 71.27785 59.19423
# Shear Modulus (GPa) = 4.33171 21.71972 13.02571
#
# Velocity S-wave (km/s) = 1.45004 3.24695 2.51449
# Velocity P-wave (km/s) = 5.06664 6.97532 6.09614
#
# Compressibility (1/GPa) = 0.02122664
#
# Stress axis : x y z
#
# Youngs Moduli (GPa) = 128.94362 111.05206 48.79837
#
# Poissons Ratio (x) = 0.42018 0.12576
# Poissons Ratio (y) = 0.48787 0.08062
# Poissons Ratio (z) = 0.33231 0.18348
#
# Static dielectric constant tensor:
#      x y z
#    x 4.082500 0.000000 0.000000 
#    y 0.000000 4.038740 0.000000 
#    z 0.000000 0.000000 3.295520 
# 
# 
# High freq. dielectric constant tensor:
#      x y z
#    x 1.805480 0.000000 0.000000 
#    y 0.000000 1.806760 0.000000 
#    z 0.000000 0.000000 1.783400 
# 
# From -- ./inp_files/18012.got.cif
#   From: 2010.03.12/outbox.cif.g09.slc.cpg/sg65_10_cif.got.tgz:18012.got - 2010.04.10 20:52:16.
