data_PCOD8272350
_publ_section_title
;
Structure prediction by ZEFSAII (Michael W. Deem and Ramdas Pophale) SiO2 
 PCOD8272350
Probable space group: C M M M
;
_chemical_formula_sum "Si O2"
_cell_formula_units_Z 72
_cell_length_a 17.482846
_cell_length_b 23.755378
_cell_length_c 9.001072
_cell_angle_alpha 90.000000
_cell_angle_beta 90.000000
_cell_angle_gamma 90.000000
_cell_volume 3738.249751
_symmetry_space_group_name_H-M "C M M M"
_symmetry_group_IT_number 65
_symmetry_cell_setting 'orthorhombic'
loop_
_space_group_symop_operation_xyz
x,y,z
-x,-y,z
x,-y,-z
-x,y,-z
-x,-y,-z
x,y,-z
-x,y,z
x,-y,z
1/2+x,1/2+y,z
1/2-x,1/2-y,z
1/2+x,1/2-y,-z
1/2-x,1/2+y,-z
1/2-x,1/2-y,-z
1/2+x,1/2+y,-z
1/2-x,1/2+y,z
1/2+x,1/2-y,z
loop_
_atom_site_type_symbol
_atom_site_label
_atom_site_fract_x
_atom_site_fract_y
_atom_site_fract_z
Si Si1 0.275670 0.689666 0.671711
Si Si2 0.000000 0.433990 0.175021
Si Si3 0.106664 0.000000 0.159163
Si Si4 0.585645 0.376660 0.175132
Si Si5 0.350634 0.900386 0.329338
Si Si6 0.781226 0.500000 0.161419
O O1 0.299918 0.694102 0.500000
O O2 0.250000 0.750000 0.737399
O O3 0.349246 0.662875 0.753518
O O4 0.196878 0.656132 0.691254
O O5 0.071274 0.399575 0.238137
O O6 0.000000 0.500000 0.226071
O O7 0.000000 0.429546 0.000000
O O8 0.086300 0.941032 0.242651
O O9 0.194429 0.000000 0.122881
O O10 0.062987 0.000000 0.000000
O O11 0.500000 0.351810 0.204981
O O12 0.603684 0.379496 0.000000
O O13 0.369563 0.913427 0.500000
O O14 0.297081 0.947130 0.261527
O O15 0.826179 0.500000 0.000000
#
# Coordination Sequence:
#
# PCOD8272350 Si02
#       6
#    16   8   8  16  16   8
#     4  10  23  43  62  81 111 154 199 240 287 338
#     4  11  23  37  57  87 122 154 184 231 292 353
#     4   9  17  31  55  86 120 153 180 219 279 344
#     4  10  20  36  60  90 121 151 188 231 280 339
#     4  11  22  37  59  84 113 151 195 241 287 343
#     4  11  19  31  56  85 115 154 190 230 290 347
#
# _framework density 19.260349999999999
#
# number of rings (size 3 to 8) (size 9 to 14) (size 15 to 20)
#    0.000    1.667    3.333    1.667    0.000    3.556 
#    2.000    0.556    0.000    1.333    0.000    0.000 
#    0.000    0.000    0.000    0.000    0.000    0.000 
#
# Total GULP energy -445998.907272 kJ/mol
# GULP energy per Si atom -12388.858535 kJ/mol
# Density = 1.921651 g / cm^3
# Si number density = 19.260350 Si / 1000 Ang^3
#
#
#
# Elastic Constant Matrix: (Units=GPa)
#
#
# Indices 1 2 3 4 5 6 
#
# 1 147.0622 55.7267 54.5415 0.0000 0.0000 0.0000
# 2 55.7267 131.1246 48.5547 0.0000 0.0000 0.0000
# 3 54.5415 48.5547 82.5895 0.0000 0.0000 0.0000
# 4 0.0000 0.0000 0.0000 21.1444 0.0000 0.0000
# 5 0.0000 0.0000 0.0000 0.0000 31.7141 0.0000
# 6 0.0000 0.0000 0.0000 0.0000 0.0000 12.6629
#
#
#
# Elastic Compliance Matrix: (Units=1/GPa)
#
#
# Indices 1 2 3 4 5 6 
#
# 1 0.009471 -0.002185 -0.004970 0.000000 0.000000 0.000000
# 2 -0.002185 0.010252 -0.004585 0.000000 0.000000 0.000000
# 3 -0.004970 -0.004585 0.018086 0.000000 0.000000 0.000000
# 4 0.000000 0.000000 0.000000 0.047294 0.000000 0.000000
# 5 0.000000 0.000000 0.000000 0.000000 0.031532 0.000000
# 6 0.000000 0.000000 0.000000 0.000000 0.000000 0.078971
#
#
# Mechanical properties :
#
#
# Convention : Reuss Voigt Hill
#
# Bulk Modulus (GPa) = 69.78358 75.38025 72.58191
# Shear Modulus (GPa) = 22.33523 26.56785 24.45154
#
# Velocity S-wave (km/s) = 3.40906 3.71807 3.56691
# Velocity P-wave (km/s) = 7.19763 7.59306 7.39799
#
# Compressibility (1/GPa) = 0.01433002
#
# Stress axis : x y z
#
# Youngs Moduli (GPa) = 105.58548 97.53725 55.29208
#
# Poissons Ratio (x) = 0.21308 0.27481
# Poissons Ratio (y) = 0.23067 0.25350
# Poissons Ratio (z) = 0.52478 0.44719
#
# Static dielectric constant tensor:
#      x y z
#    x 3.648660 0.000000 0.000000 
#    y 0.000000 3.580720 0.000000 
#    z 0.000000 0.000000 3.459840 
# 
# 
# High freq. dielectric constant tensor:
#      x y z
#    x 1.768530 0.000000 0.000000 
#    y 0.000000 1.737320 0.000000 
#    z 0.000000 0.000000 1.736080 
# 
# From -- ./inp_files/9339.got.cif
#   From: 2010.03.12/outbox.cif.g09.slc.cpg/sg65_5_cif.got.tgz:9339.got - 2010.04.10 20:52:16.
