data_PCOD8272248
_publ_section_title
;
Structure prediction by ZEFSAII (Michael W. Deem and Ramdas Pophale) SiO2 
 PCOD8272248
Probable space group: C M M M
;
_chemical_formula_sum "Si O2"
_cell_formula_units_Z 80
_cell_length_a 26.827035
_cell_length_b 8.395665
_cell_length_c 18.552413
_cell_angle_alpha 90.000000
_cell_angle_beta 90.000000
_cell_angle_gamma 90.000000
_cell_volume 4178.574800
_symmetry_space_group_name_H-M "C M M M"
_symmetry_group_IT_number 65
_symmetry_cell_setting 'orthorhombic'
loop_
_space_group_symop_operation_xyz
x,y,z
-x,-y,z
x,-y,-z
-x,y,-z
-x,-y,-z
x,y,-z
-x,y,z
x,-y,z
1/2+x,1/2+y,z
1/2-x,1/2-y,z
1/2+x,1/2-y,-z
1/2-x,1/2+y,-z
1/2-x,1/2-y,-z
1/2+x,1/2+y,-z
1/2-x,1/2+y,z
1/2+x,1/2-y,z
loop_
_atom_site_type_symbol
_atom_site_label
_atom_site_fract_x
_atom_site_fract_y
_atom_site_fract_z
Si Si1 0.401239 0.314402 0.647780
Si Si2 0.805895 0.688237 0.000000
Si Si3 0.556300 0.184848 0.788901
Si Si4 0.442212 0.187660 0.500000
Si Si5 0.152080 0.185126 0.146805
Si Si6 0.803816 0.313575 0.711383
O O1 0.410987 0.500000 0.659260
O O2 0.435233 0.218974 0.704492
O O3 0.415711 0.263024 0.568414
O O4 0.343269 0.276415 0.660905
O O5 0.750000 0.750000 0.000000
O O6 0.835457 0.751790 0.068417
O O7 0.805574 0.500000 0.000000
O O8 0.500000 0.230659 0.810152
O O9 0.593480 0.287944 0.838054
O O10 0.567042 0.000000 0.803280
O O11 0.500000 0.235054 0.500000
O O12 0.434383 0.000000 0.500000
O O13 0.185443 0.278941 0.204684
O O14 0.165078 0.000000 0.153081
O O15 0.807524 0.500000 0.696881
O O16 0.750000 0.250000 0.689153
#
# Coordination Sequence:
#
# PCOD8272248 Si02
#       6
#    16   8  16   8  16  16
#     4  11  22  36  56  84 114 145 185 230 276 326
#     4  12  24  40  59  82 113 146 182 225 277 331
#     4  10  20  36  58  83 112 148 187 227 274 326
#     4  11  23  39  58  81 112 149 185 225 277 331
#     4  11  22  37  57  84 114 145 185 229 275 326
#     4  11  21  37  59  83 112 147 186 227 274 325
#
# _framework density 19.145284
#
# number of rings (size 3 to 8) (size 9 to 14) (size 15 to 20)
#    0.000    1.100    0.000   10.800    0.000    4.800 
#    0.000    1.000    0.000    3.000    0.000    0.000 
#    0.000    0.000    0.000    0.000    0.000    0.000 
#
# Total GULP energy -496232.096631 kJ/mol
# GULP energy per Si atom -12405.802416 kJ/mol
# Density = 1.910171 g / cm^3
# Si number density = 19.145284 Si / 1000 Ang^3
#
#
#
# Elastic Constant Matrix: (Units=GPa)
#
#
# Indices 1 2 3 4 5 6 
#
# 1 111.7350 23.5808 47.8392 0.0000 0.0000 0.0000
# 2 23.5808 75.8318 13.8771 0.0000 0.0000 0.0000
# 3 47.8392 13.8771 116.4466 0.0000 0.0000 0.0000
# 4 0.0000 0.0000 0.0000 32.7568 0.0000 0.0000
# 5 0.0000 0.0000 0.0000 0.0000 20.9021 0.0000
# 6 0.0000 0.0000 0.0000 0.0000 0.0000 34.2057
#
#
#
# Elastic Compliance Matrix: (Units=1/GPa)
#
#
# Indices 1 2 3 4 5 6 
#
# 1 0.011393 -0.002746 -0.004353 0.000000 0.000000 0.000000
# 2 -0.002746 0.014143 -0.000557 0.000000 0.000000 0.000000
# 3 -0.004353 -0.000557 0.010442 0.000000 0.000000 0.000000
# 4 0.000000 0.000000 0.000000 0.030528 0.000000 0.000000
# 5 0.000000 0.000000 0.000000 0.000000 0.047842 0.000000
# 6 0.000000 0.000000 0.000000 0.000000 0.000000 0.029235
#
#
# Mechanical properties :
#
#
# Convention : Reuss Voigt Hill
#
# Bulk Modulus (GPa) = 48.39064 52.73418 50.56241
# Shear Modulus (GPa) = 30.15944 32.15402 31.15673
#
# Velocity S-wave (km/s) = 3.97330 4.10259 4.03846
# Velocity P-wave (km/s) = 6.81028 7.07429 6.94354
#
# Compressibility (1/GPa) = 0.02066515
#
# Stress axis : x y z
#
# Youngs Moduli (GPa) = 87.77179 70.70626 95.76257
#
# Poissons Ratio (x) = 0.19417 0.41689
# Poissons Ratio (y) = 0.24104 0.05336
# Poissons Ratio (z) = 0.38210 0.03940
#
# Static dielectric constant tensor:
#      x y z
#    x 3.653930 0.000000 0.000000 
#    y 0.000000 3.708740 0.000000 
#    z 0.000000 0.000000 3.421220 
# 
# 
# High freq. dielectric constant tensor:
#      x y z
#    x 1.754510 0.000000 0.000000 
#    y 0.000000 1.766670 0.000000 
#    z 0.000000 0.000000 1.732430 
# 
# From -- ./inp_files/57320.got.cif
#   From: 2010.03.12/outbox.cif.g09.slc.cpg/sg65_29_cif.got.tgz:57320.got - 2010.04.10 20:52:16.
