data_PCOD8272541
_publ_section_title
;
Structure prediction by ZEFSAII (Michael W. Deem and Ramdas Pophale) SiO2 
 PCOD8272541
Probable space group: C M M M
;
_chemical_formula_sum "Si O2"
_cell_formula_units_Z 88
_cell_length_a 7.431985
_cell_length_b 19.762302
_cell_length_c 29.484144
_cell_angle_alpha 90.000000
_cell_angle_beta 90.000000
_cell_angle_gamma 90.000000
_cell_volume 4330.428574
_symmetry_space_group_name_H-M "C M M M"
_symmetry_group_IT_number 65
_symmetry_cell_setting 'orthorhombic'
loop_
_space_group_symop_operation_xyz
x,y,z
-x,-y,z
x,-y,-z
-x,y,-z
-x,-y,-z
x,y,-z
-x,y,z
x,-y,z
1/2+x,1/2+y,z
1/2-x,1/2-y,z
1/2+x,1/2-y,-z
1/2-x,1/2+y,-z
1/2-x,1/2-y,-z
1/2+x,1/2+y,-z
1/2-x,1/2+y,z
1/2+x,1/2-y,z
loop_
_atom_site_type_symbol
_atom_site_label
_atom_site_fract_x
_atom_site_fract_y
_atom_site_fract_z
Si Si1 0.290722 0.175620 0.299991
Si Si2 0.714111 0.075807 0.225715
Si Si3 0.288243 0.826627 0.597709
Si Si4 0.710390 0.174626 0.949797
Si Si5 0.785984 0.424132 0.874558
Si Si6 0.000000 0.078179 0.446371
O O1 0.500000 0.161481 0.302477
O O2 0.250000 0.250000 0.281230
O O3 0.200170 0.123739 0.264409
O O4 0.213566 0.166958 0.350719
O O5 0.500000 0.079638 0.226703
O O6 0.781948 0.098039 0.175582
O O7 0.779984 0.000000 0.236159
O O8 0.500000 0.842701 0.593147
O O9 0.250000 0.750000 0.580298
O O10 0.179158 0.882167 0.569311
O O11 0.500000 0.161163 0.952530
O O12 0.750000 0.250000 0.932826
O O13 0.799150 0.124291 0.913021
O O14 0.795684 0.162966 0.000000
O O15 0.720142 0.500000 0.885052
O O16 0.000000 0.420519 0.875567
O O17 0.000000 0.077626 0.500000
O O18 0.000000 0.000000 0.428323
#
# Coordination Sequence:
#
# PCOD8272541 Si02
#       6
#    16  16  16  16  16   8
#     4   9  18  30  51  77 104 134 170 216 262 310
#     4   8  14  26  43  66  95 126 162 201 246 305
#     4  10  20  39  64  90 120 158 203 247 292 351
#     4   9  17  28  42  62  87 114 148 192 243 298
#     4   8  14  25  42  63  88 118 155 201 245 289
#     4  11  26  44  62  92 129 159 197 251 303 351
#
# _framework density 20.321313
#
# number of rings (size 3 to 8) (size 9 to 14) (size 15 to 20)
#    0.000    3.000    0.909    1.091    1.273    2.909 
#    0.000    4.545    0.000    0.545    0.000    5.091 
#    0.000    0.000    0.000    0.000    0.000    0.000 
#
# Total GULP energy -545283.566002 kJ/mol
# GULP energy per Si atom -12392.808318 kJ/mol
# Density = 2.027506 g / cm^3
# Si number density = 20.321313 Si / 1000 Ang^3
#
#
#
# Elastic Constant Matrix: (Units=GPa)
#
#
# Indices 1 2 3 4 5 6 
#
# 1 57.7514 23.0981 16.7980 0.0000 0.0000 0.0000
# 2 23.0981 154.9380 94.0841 0.0000 0.0000 0.0000
# 3 16.7980 94.0841 120.1831 0.0000 0.0000 0.0000
# 4 0.0000 0.0000 0.0000 55.1268 0.0000 0.0000
# 5 0.0000 0.0000 0.0000 0.0000 0.8687 0.0000
# 6 0.0000 0.0000 0.0000 0.0000 0.0000 21.0358
#
#
#
# Elastic Compliance Matrix: (Units=1/GPa)
#
#
# Indices 1 2 3 4 5 6 
#
# 1 0.018455 -0.002259 -0.000811 0.000000 0.000000 0.000000
# 2 -0.002259 0.012579 -0.009531 0.000000 0.000000 0.000000
# 3 -0.000811 -0.009531 0.015896 0.000000 0.000000 0.000000
# 4 0.000000 0.000000 0.000000 0.018140 0.000000 0.000000
# 5 0.000000 0.000000 0.000000 0.000000 1.151154 0.000000
# 6 0.000000 0.000000 0.000000 0.000000 0.000000 0.047538
#
#
# Mechanical properties :
#
#
# Convention : Reuss Voigt Hill
#
# Bulk Modulus (GPa) = 46.02661 66.75921 56.39291
# Shear Modulus (GPa) = 3.85741 28.66574 16.26158
#
# Velocity S-wave (km/s) = 1.37925 3.75990 2.83189
# Velocity P-wave (km/s) = 5.02345 7.19530 6.20513
#
# Compressibility (1/GPa) = 0.02172656
#
# Stress axis : x y z
#
# Youngs Moduli (GPa) = 54.18606 79.49901 62.91026
#
# Poissons Ratio (x) = 0.17956 0.05104
# Poissons Ratio (y) = 0.12238 0.59963
# Poissons Ratio (z) = 0.04396 0.75774
#
# Static dielectric constant tensor:
#      x y z
#    x 3.328000 0.000000 0.000000 
#    y 0.000000 3.840500 0.000000 
#    z 0.000000 0.000000 4.117890 
# 
# 
# High freq. dielectric constant tensor:
#      x y z
#    x 1.775230 0.000000 0.000000 
#    y 0.000000 1.787420 0.000000 
#    z 0.000000 0.000000 1.794040 
# 
# From -- ./inp_files/76629.got.cif
#   From: 2010.03.12/outbox.cif.g09.slc.cpg/sg65_39_cif.got.tgz:76629.got - 2010.04.10 20:52:16.
