data_PCOD8272276
_publ_section_title
;
Structure prediction by ZEFSAII (Michael W. Deem and Ramdas Pophale) SiO2 
 PCOD8272276
Probable space group: C M M M
;
_chemical_formula_sum "Si O2"
_cell_formula_units_Z 72
_cell_length_a 18.984547
_cell_length_b 8.845298
_cell_length_c 23.169348
_cell_angle_alpha 90.000000
_cell_angle_beta 90.000000
_cell_angle_gamma 90.000000
_cell_volume 3890.689028
_symmetry_space_group_name_H-M "C M M M"
_symmetry_group_IT_number 65
_symmetry_cell_setting 'orthorhombic'
loop_
_space_group_symop_operation_xyz
x,y,z
-x,-y,z
x,-y,-z
-x,y,-z
-x,-y,-z
x,y,-z
-x,y,z
x,-y,z
1/2+x,1/2+y,z
1/2-x,1/2-y,z
1/2+x,1/2-y,-z
1/2-x,1/2+y,-z
1/2-x,1/2-y,-z
1/2+x,1/2+y,-z
1/2-x,1/2+y,z
1/2+x,1/2-y,z
loop_
_atom_site_type_symbol
_atom_site_label
_atom_site_fract_x
_atom_site_fract_y
_atom_site_fract_z
Si Si1 0.417769 0.177009 0.400170
Si Si2 0.418926 0.823060 0.168057
Si Si3 0.416465 0.330430 0.282987
Si Si4 0.176600 0.321680 0.935531
Si Si5 0.672627 0.679245 0.500000
O O1 0.500000 0.215736 0.410763
O O2 0.393027 0.226586 0.336479
O O3 0.370483 0.269445 0.444247
O O4 0.403767 0.000000 0.408208
O O5 0.500000 0.780973 0.159723
O O6 0.386029 0.738942 0.223694
O O7 0.381062 0.765073 0.110151
O O8 0.407996 0.000000 0.178226
O O9 0.500000 0.330808 0.279027
O O10 0.387018 0.500000 0.291348
O O11 0.184891 0.500000 0.933360
O O12 0.250000 0.250000 0.917084
O O13 0.154114 0.268925 0.000000
O O14 0.679939 0.500000 0.500000
O O15 0.750000 0.750000 0.500000
#
# Coordination Sequence:
#
# PCOD8272276 Si02
#       5
#    16  16  16  16   8
#     4  10  20  36  59  84 109 139 177 217 257 306
#     4   9  17  30  49  73 100 129 163 206 255 303
#     4   9  17  30  50  77 106 134 167 209 256 304
#     4   9  18  32  49  69  95 129 167 206 249 299
#     4  12  25  40  57  79 111 145 177 216 263 310
#
# _framework density 18.505718000000002
#
# number of rings (size 3 to 8) (size 9 to 14) (size 15 to 20)
#    0.000    2.444    0.000    2.667    0.000    6.667 
#    0.000    3.333    0.000    2.667    0.000    6.222 
#    0.000    0.000    0.000    0.000    0.000    0.000 
#
# Total GULP energy -446381.370638 kJ/mol
# GULP energy per Si atom -12399.482518 kJ/mol
# Density = 1.846360 g / cm^3
# Si number density = 18.505718 Si / 1000 Ang^3
#
#
#
# Elastic Constant Matrix: (Units=GPa)
#
#
# Indices 1 2 3 4 5 6 
#
# 1 74.2068 44.6329 69.2251 0.0000 0.0000 0.0000
# 2 44.6329 89.2530 58.2195 0.0000 0.0000 0.0000
# 3 69.2251 58.2195 159.1438 0.0000 0.0000 0.0000
# 4 0.0000 0.0000 0.0000 31.1342 0.0000 0.0000
# 5 0.0000 0.0000 0.0000 0.0000 -2.5310 0.0000
# 6 0.0000 0.0000 0.0000 0.0000 0.0000 25.3201
#
#
#
# Elastic Compliance Matrix: (Units=1/GPa)
#
#
# Indices 1 2 3 4 5 6 
#
# 1 0.025901 -0.007359 -0.008574 0.000000 0.000000 0.000000
# 2 -0.007359 0.016807 -0.002947 0.000000 0.000000 0.000000
# 3 -0.008574 -0.002947 0.011091 0.000000 0.000000 0.000000
# 4 0.000000 0.000000 0.000000 0.032119 0.000000 0.000000
# 5 0.000000 0.000000 0.000000 0.000000 -0.395100 0.000000
# 6 0.000000 0.000000 0.000000 0.000000 0.000000 0.039494
#
#
# Mechanical properties :
#
#
# Convention : Reuss Voigt Hill
#
# Bulk Modulus (GPa) = 62.35369 74.08430 68.21899
# Shear Modulus (GPa) = -22.06726 20.81973 -0.62376
#
# Velocity S-wave (km/s) = -3.45694 3.35780 -0.58120
# Velocity P-wave (km/s) = 4.22297 7.42652 6.04097
#
# Compressibility (1/GPa) = 0.01603754
#
# Stress axis : x y z
#
# Youngs Moduli (GPa) = 38.60877 59.49991 90.15952
#
# Poissons Ratio (x) = 0.43788 0.77305
# Poissons Ratio (y) = 0.28413 0.26572
# Poissons Ratio (z) = 0.33104 0.17536
#
# Static dielectric constant tensor:
#      x y z
#    x 3.160810 0.000000 0.000000 
#    y 0.000000 3.464370 0.000000 
#    z 0.000000 0.000000 3.782190 
# 
# 
# High freq. dielectric constant tensor:
#      x y z
#    x 1.684540 0.000000 0.000000 
#    y 0.000000 1.721260 0.000000 
#    z 0.000000 0.000000 1.736050 
# 
# From -- ./inp_files/64332.got.cif
#   From: 2010.03.12/outbox.cif.g09.slc.cpg/sg65_33_cif.got.tgz:64332.got - 2010.04.10 20:52:16.
