data_PCOD8272183
_publ_section_title
;
Structure prediction by ZEFSAII (Michael W. Deem and Ramdas Pophale) SiO2 
 PCOD8272183
Probable space group: C M M M
;
_chemical_formula_sum "Si O2"
_cell_formula_units_Z 88
_cell_length_a 9.704611
_cell_length_b 27.765533
_cell_length_c 17.979511
_cell_angle_alpha 90.000000
_cell_angle_beta 90.000000
_cell_angle_gamma 90.000000
_cell_volume 4844.645709
_symmetry_space_group_name_H-M "C M M M"
_symmetry_group_IT_number 65
_symmetry_cell_setting 'orthorhombic'
loop_
_space_group_symop_operation_xyz
x,y,z
-x,-y,z
x,-y,-z
-x,y,-z
-x,-y,-z
x,y,-z
-x,y,z
x,-y,z
1/2+x,1/2+y,z
1/2-x,1/2-y,z
1/2+x,1/2-y,-z
1/2-x,1/2+y,-z
1/2-x,1/2-y,-z
1/2+x,1/2+y,-z
1/2-x,1/2+y,z
1/2+x,1/2-y,z
loop_
_atom_site_type_symbol
_atom_site_label
_atom_site_fract_x
_atom_site_fract_y
_atom_site_fract_z
Si Si1 0.839529 0.702448 0.500000
Si Si2 0.841924 0.054744 0.143514
Si Si3 0.160081 0.296962 0.217216
Si Si4 0.157598 0.636213 0.916116
Si Si5 0.159082 0.361279 0.358891
Si Si6 0.341022 0.554607 0.315572
O O1 0.750000 0.750000 0.500000
O O2 0.799796 0.672163 0.427543
O O3 0.000000 0.716801 0.500000
O O4 0.747519 0.088525 0.093511
O O5 0.800668 0.060236 0.229434
O O6 0.000000 0.069844 0.131449
O O7 0.818410 0.000000 0.117242
O O8 0.250000 0.250000 0.229480
O O9 0.204454 0.321577 0.139624
O O10 0.194461 0.333735 0.283062
O O11 0.000000 0.282077 0.217712
O O12 0.000000 0.621950 0.899065
O O13 0.175869 0.655626 0.000000
O O14 0.247786 0.409906 0.364313
O O15 0.000000 0.376322 0.362520
O O16 0.500000 0.568147 0.327940
O O17 0.312857 0.500000 0.341895
#
# Coordination Sequence:
#
# PCOD8272183 Si02
#       6
#     8  16  16  16  16  16
#     4  10  22  38  57  84 115 143 178 223 269 316
#     4   9  18  33  53  78 107 138 175 219 264 313
#     4  10  21  36  54  76 101 134 176 218 263 314
#     4  10  21  36  52  74 106 139 175 220 265 314
#     4  10  20  36  57  82 110 141 177 217 262 316
#     4   9  18  33  55  83 111 140 178 220 261 312
#
# _framework density 18.164382
#
# number of rings (size 3 to 8) (size 9 to 14) (size 15 to 20)
#    0.000    2.364    1.818    1.636    0.000    4.000 
#    0.000    4.091    0.000    2.727    0.000    0.000 
#    0.000    0.000    0.000    0.000    0.000    0.000 
#
# Total GULP energy -545724.911721 kJ/mol
# GULP energy per Si atom -12402.838903 kJ/mol
# Density = 1.812304 g / cm^3
# Si number density = 18.164382 Si / 1000 Ang^3
#
#
#
# Elastic Constant Matrix: (Units=GPa)
#
#
# Indices 1 2 3 4 5 6 
#
# 1 70.6404 64.9138 37.4478 0.0000 0.0000 0.0000
# 2 64.9138 110.6977 45.7319 0.0000 0.0000 0.0000
# 3 37.4478 45.7319 95.5429 0.0000 0.0000 0.0000
# 4 0.0000 0.0000 0.0000 14.6889 0.0000 0.0000
# 5 0.0000 0.0000 0.0000 0.0000 19.6818 0.0000
# 6 0.0000 0.0000 0.0000 0.0000 0.0000 42.6918
#
#
#
# Elastic Compliance Matrix: (Units=1/GPa)
#
#
# Indices 1 2 3 4 5 6 
#
# 1 0.032154 -0.017013 -0.004459 0.000000 0.000000 0.000000
# 2 -0.017013 0.020262 -0.003030 0.000000 0.000000 0.000000
# 3 -0.004459 -0.003030 0.013665 0.000000 0.000000 0.000000
# 4 0.000000 0.000000 0.000000 0.068079 0.000000 0.000000
# 5 0.000000 0.000000 0.000000 0.000000 0.050808 0.000000
# 6 0.000000 0.000000 0.000000 0.000000 0.000000 0.023424
#
#
# Mechanical properties :
#
#
# Convention : Reuss Voigt Hill
#
# Bulk Modulus (GPa) = 58.56332 63.67423 61.11877
# Shear Modulus (GPa) = 19.00496 23.99831 21.50164
#
# Velocity S-wave (km/s) = 3.23813 3.63874 3.44426
# Velocity P-wave (km/s) = 6.80378 7.26529 7.03832
#
# Compressibility (1/GPa) = 0.01707554
#
# Stress axis : x y z
#
# Youngs Moduli (GPa) = 31.10022 49.35327 73.18083
#
# Poissons Ratio (x) = 0.83965 0.32634
# Poissons Ratio (y) = 0.52911 0.22176
# Poissons Ratio (z) = 0.13869 0.14955
#
# Static dielectric constant tensor:
#      x y z
#    x 3.289460 0.000000 0.000000 
#    y 0.000000 3.218140 0.000000 
#    z 0.000000 0.000000 3.374490 
# 
# 
# High freq. dielectric constant tensor:
#      x y z
#    x 1.701960 0.000000 0.000000 
#    y 0.000000 1.700960 0.000000 
#    z 0.000000 0.000000 1.699610 
# 
# From -- ./inp_files/50291.got.cif
#   From: 2010.03.12/outbox.cif.g09.slc.cpg/sg65_26_cif.got.tgz:50291.got - 2010.04.10 20:52:16.
