data_PCOD8272208
_publ_section_title
;
Structure prediction by ZEFSAII (Michael W. Deem and Ramdas Pophale) SiO2 
 PCOD8272208
Probable space group: C M M M
;
_chemical_formula_sum "Si O2"
_cell_formula_units_Z 104
_cell_length_a 24.187422
_cell_length_b 8.712902
_cell_length_c 27.927738
_cell_angle_alpha 90.000000
_cell_angle_beta 90.000000
_cell_angle_gamma 90.000000
_cell_volume 5885.565166
_symmetry_space_group_name_H-M "C M M M"
_symmetry_group_IT_number 65
_symmetry_cell_setting 'orthorhombic'
loop_
_space_group_symop_operation_xyz
x,y,z
-x,-y,z
x,-y,-z
-x,y,-z
-x,-y,-z
x,y,-z
-x,y,z
x,-y,z
1/2+x,1/2+y,z
1/2-x,1/2-y,z
1/2+x,1/2-y,-z
1/2-x,1/2+y,-z
1/2-x,1/2-y,-z
1/2+x,1/2+y,-z
1/2-x,1/2+y,z
1/2+x,1/2-y,z
loop_
_atom_site_type_symbol
_atom_site_label
_atom_site_fract_x
_atom_site_fract_y
_atom_site_fract_z
Si Si1 0.109773 0.680908 0.800007
Si Si2 0.062039 0.317148 0.102309
Si Si3 0.689407 0.318280 0.273995
Si Si4 0.934341 0.668249 0.000000
Si Si5 0.119157 0.816972 0.634914
Si Si6 0.000000 0.168190 0.348785
Si Si7 0.808020 0.679082 0.555319
Si Si8 0.500000 0.329289 0.763076
O O1 0.117403 0.500000 0.794092
O O2 0.105275 0.729773 0.856152
O O3 0.161657 0.764396 0.775674
O O4 0.053393 0.731573 0.775590
O O5 0.059019 0.500000 0.097592
O O6 0.082252 0.248232 0.050414
O O7 0.000000 0.256683 0.115425
O O8 0.693316 0.500000 0.273739
O O9 0.750000 0.250000 0.278532
O O10 0.653638 0.257395 0.319136
O O11 0.906609 0.500000 0.000000
O O12 0.000000 0.652090 0.000000
O O13 0.144583 0.759007 0.585643
O O14 0.056825 0.746630 0.635927
O O15 0.117531 0.000000 0.636407
O O16 0.000000 0.146310 0.292730
O O17 0.000000 0.000000 0.373162
O O18 0.820506 0.714400 0.500000
O O19 0.806271 0.500000 0.566383
O O20 0.750000 0.750000 0.571345
O O21 0.500000 0.500000 0.787137
#
# Coordination Sequence:
#
# PCOD8272208 Si02
#       8
#    16  16  16   8  16   8  16   8
#     4  11  20  31  49  76 105 134 172 214 255 305
#     4   8  13  22  38  65  99 131 165 205 247 296
#     4  11  23  38  54  75 103 136 171 212 259 307
#     4   7  10  18  34  58  93 132 163 198 247 295
#     4  10  20  36  58  80 105 136 171 208 247 297
#     4   9  18  35  54  76 104 137 172 206 241 292
#     4  10  21  37  57  81 107 135 171 215 260 303
#     4  11  19  33  51  71 103 141 177 212 250 299
#
# _framework density 17.670349999999999
#
# number of rings (size 3 to 8) (size 9 to 14) (size 15 to 20)
#    0.000    2.231    2.308    3.000    0.000    3.385 
#    0.000    0.769    0.000    2.308    0.000    3.231 
#    0.000    0.000    0.000    0.000    0.000    0.000 
#
# Total GULP energy -644395.776552 kJ/mol
# GULP energy per Si atom -12392.226472 kJ/mol
# Density = 1.763013 g / cm^3
# Si number density = 17.670350 Si / 1000 Ang^3
#
#
#
# Elastic Constant Matrix: (Units=GPa)
#
#
# Indices 1 2 3 4 5 6 
#
# 1 139.2525 29.5152 68.6658 0.0000 0.0000 0.0000
# 2 29.5152 34.4979 23.9647 0.0000 0.0000 0.0000
# 3 68.6658 23.9647 113.4594 0.0000 0.0000 0.0000
# 4 0.0000 0.0000 0.0000 14.7539 0.0000 0.0000
# 5 0.0000 0.0000 0.0000 0.0000 20.7735 0.0000
# 6 0.0000 0.0000 0.0000 0.0000 0.0000 24.8425
#
#
#
# Elastic Compliance Matrix: (Units=1/GPa)
#
#
# Indices 1 2 3 4 5 6 
#
# 1 0.011106 -0.005664 -0.005525 0.000000 0.000000 0.000000
# 2 -0.005664 0.036860 -0.004358 0.000000 0.000000 0.000000
# 3 -0.005525 -0.004358 0.013078 0.000000 0.000000 0.000000
# 4 0.000000 0.000000 0.000000 0.067779 0.000000 0.000000
# 5 0.000000 0.000000 0.000000 0.000000 0.048138 0.000000
# 6 0.000000 0.000000 0.000000 0.000000 0.000000 0.040254
#
#
# Mechanical properties :
#
#
# Convention : Reuss Voigt Hill
#
# Bulk Modulus (GPa) = 33.38803 59.05572 46.22188
# Shear Modulus (GPa) = 19.35793 23.07826 21.21809
#
# Velocity S-wave (km/s) = 3.31343 3.61784 3.46898
# Velocity P-wave (km/s) = 5.79434 7.13758 6.50075
#
# Compressibility (1/GPa) = 0.02995085
#
# Stress axis : x y z
#
# Youngs Moduli (GPa) = 90.04024 27.12942 76.46432
#
# Poissons Ratio (x) = 0.15366 0.42248
# Poissons Ratio (y) = 0.50998 0.33322
# Poissons Ratio (z) = 0.49748 0.11822
#
# Static dielectric constant tensor:
#      x y z
#    x 3.215580 0.000000 0.000000 
#    y 0.000000 3.093910 0.000000 
#    z 0.000000 0.000000 3.624450 
# 
# 
# High freq. dielectric constant tensor:
#      x y z
#    x 1.660350 0.000000 0.000000 
#    y 0.000000 1.660670 0.000000 
#    z 0.000000 0.000000 1.692400 
# 
# From -- ./inp_files/78310.got.cif
#   From: 2010.03.12/outbox.cif.g09.slc.cpg/sg65_40_cif.got.tgz:78310.got - 2010.04.10 20:52:16.
