data_PCOD8272713
_publ_section_title
;
Structure prediction by ZEFSAII (Michael W. Deem and Ramdas Pophale) SiO2 
 PCOD8272713
Probable space group: C M M M
;
_chemical_formula_sum "Si O2"
_cell_formula_units_Z 104
_cell_length_a 22.491975
_cell_length_b 27.605925
_cell_length_c 9.211953
_cell_angle_alpha 90.000000
_cell_angle_beta 90.000000
_cell_angle_gamma 90.000000
_cell_volume 5719.810088
_symmetry_space_group_name_H-M "C M M M"
_symmetry_group_IT_number 65
_symmetry_cell_setting 'orthorhombic'
loop_
_space_group_symop_operation_xyz
x,y,z
-x,-y,z
x,-y,-z
-x,y,-z
-x,-y,-z
x,y,-z
-x,y,z
x,-y,z
1/2+x,1/2+y,z
1/2-x,1/2-y,z
1/2+x,1/2-y,-z
1/2-x,1/2+y,-z
1/2-x,1/2-y,-z
1/2+x,1/2+y,-z
1/2-x,1/2+y,z
1/2+x,1/2-y,z
loop_
_atom_site_type_symbol
_atom_site_label
_atom_site_fract_x
_atom_site_fract_y
_atom_site_fract_z
Si Si1 0.432883 0.725076 0.166168
Si Si2 0.747619 0.694025 0.329406
Si Si3 0.064498 0.500000 0.328846
Si Si4 0.636823 0.180671 0.829762
Si Si5 0.375019 0.357413 0.328262
Si Si6 0.929437 0.603025 0.337981
Si Si7 0.431502 0.444216 0.169662
O O1 0.500000 0.744482 0.183716
O O2 0.387718 0.766788 0.217250
O O3 0.425276 0.678541 0.267955
O O4 0.420282 0.709957 0.000000
O O5 0.757196 0.690159 0.500000
O O6 0.750000 0.750000 0.278621
O O7 0.801786 0.667866 0.249180
O O8 0.688266 0.665614 0.281249
O O9 0.054663 0.500000 0.500000
O O10 0.098077 0.449597 0.289446
O O11 0.000000 0.500000 0.251138
O O12 0.588802 0.141657 0.781132
O O13 0.646207 0.177548 0.000000
O O14 0.380564 0.361740 0.500000
O O15 0.386200 0.410304 0.259495
O O16 0.906908 0.617684 0.500000
O O17 0.000000 0.598495 0.339914
O O18 0.500000 0.433187 0.212511
O O19 0.416213 0.500000 0.206677
O O20 0.422083 0.434085 0.000000
#
# Coordination Sequence:
#
# PCOD8272713 Si02
#       7
#    16  16   8  16  16  16  16
#     4  10  21  35  50  73 109 146 174 207 258 322
#     4  10  21  39  57  74 103 141 181 222 264 314
#     4   7  12  26  49  75  99 129 171 209 246 305
#     4  11  22  34  52  77 106 139 179 223 264 313
#     4  11  22  35  56  83 108 138 180 231 272 310
#     4   9  17  31  53  78 105 138 174 214 264 319
#     4   9  19  37  60  85 115 150 181 213 267 338
#
# _framework density 18.182423
#
# number of rings (size 3 to 8) (size 9 to 14) (size 15 to 20)
#    0.000    2.231    1.538    3.231    0.000    5.846 
#    0.000    1.154    1.692    1.385    0.000    0.000 
#    0.000    0.000    0.000    0.000    0.000    0.000 
#
# Total GULP energy -644598.785055 kJ/mol
# GULP energy per Si atom -12396.130482 kJ/mol
# Density = 1.814104 g / cm^3
# Si number density = 18.182423 Si / 1000 Ang^3
#
#
#
# Elastic Constant Matrix: (Units=GPa)
#
#
# Indices 1 2 3 4 5 6 
#
# 1 81.6078 45.9909 39.5227 0.0000 0.0000 0.0000
# 2 45.9909 123.3559 47.7673 0.0000 0.0000 0.0000
# 3 39.5227 47.7673 50.6709 0.0000 0.0000 0.0000
# 4 0.0000 0.0000 0.0000 31.3813 0.0000 0.0000
# 5 0.0000 0.0000 0.0000 0.0000 26.8648 0.0000
# 6 0.0000 0.0000 0.0000 0.0000 0.0000 21.8131
#
#
#
# Elastic Compliance Matrix: (Units=1/GPa)
#
#
# Indices 1 2 3 4 5 6 
#
# 1 0.020078 -0.002239 -0.013550 0.000000 0.000000 0.000000
# 2 -0.002239 0.013017 -0.010525 0.000000 0.000000 0.000000
# 3 -0.013550 -0.010525 0.040226 0.000000 0.000000 0.000000
# 4 0.000000 0.000000 0.000000 0.031866 0.000000 0.000000
# 5 0.000000 0.000000 0.000000 0.000000 0.037223 0.000000
# 6 0.000000 0.000000 0.000000 0.000000 0.000000 0.045844
#
#
# Mechanical properties :
#
#
# Convention : Reuss Voigt Hill
#
# Bulk Modulus (GPa) = 48.32472 58.02182 53.17327
# Shear Modulus (GPa) = 20.17935 24.16875 22.17405
#
# Velocity S-wave (km/s) = 3.33502 3.64983 3.49597
# Velocity P-wave (km/s) = 6.43935 7.05279 6.75304
#
# Compressibility (1/GPa) = 0.02069334
#
# Stress axis : x y z
#
# Youngs Moduli (GPa) = 49.80685 76.82397 24.85973
#
# Poissons Ratio (x) = 0.17198 0.33685
# Poissons Ratio (y) = 0.11150 0.26164
# Poissons Ratio (z) = 0.67488 0.80856
#
# Static dielectric constant tensor:
#      x y z
#    x 3.189050 0.000000 0.000000 
#    y 0.000000 3.556390 0.000000 
#    z 0.000000 0.000000 3.199750 
# 
# 
# High freq. dielectric constant tensor:
#      x y z
#    x 1.685410 0.000000 0.000000 
#    y 0.000000 1.709000 0.000000 
#    z 0.000000 0.000000 1.694520 
# 
# From -- ./inp_files/14729.got.cif
#   From: 2010.03.12/outbox.cif.g09.slc.cpg/sg65_8_cif.got.tgz:14729.got - 2010.04.10 20:52:16.
