data_PCOD8272278
_publ_section_title
;
Structure prediction by ZEFSAII (Michael W. Deem and Ramdas Pophale) SiO2 
 PCOD8272278
Probable space group: C M M M
;
_chemical_formula_sum "Si O2"
_cell_formula_units_Z 64
_cell_length_a 18.529046
_cell_length_b 8.888961
_cell_length_c 20.116259
_cell_angle_alpha 90.000000
_cell_angle_beta 90.000000
_cell_angle_gamma 90.000000
_cell_volume 3313.227664
_symmetry_space_group_name_H-M "C M M M"
_symmetry_group_IT_number 65
_symmetry_cell_setting 'orthorhombic'
loop_
_space_group_symop_operation_xyz
x,y,z
-x,-y,z
x,-y,-z
-x,y,-z
-x,-y,-z
x,y,-z
-x,y,z
x,-y,z
1/2+x,1/2+y,z
1/2-x,1/2-y,z
1/2+x,1/2-y,-z
1/2-x,1/2+y,-z
1/2-x,1/2-y,-z
1/2+x,1/2+y,-z
1/2-x,1/2+y,z
1/2+x,1/2-y,z
loop_
_atom_site_type_symbol
_atom_site_label
_atom_site_fract_x
_atom_site_fract_y
_atom_site_fract_z
Si Si1 0.322866 0.825641 0.738955
Si Si2 0.171618 0.177560 0.500000
Si Si3 0.914878 0.828394 0.000000
Si Si4 0.083224 0.324465 0.616098
Si Si5 0.825276 0.321587 0.889053
O O1 0.250000 0.750000 0.712050
O O2 0.388934 0.786938 0.690202
O O3 0.342682 0.771693 0.813300
O O4 0.305643 0.000000 0.739677
O O5 0.250000 0.250000 0.500000
O O6 0.128078 0.226594 0.564777
O O7 0.180891 0.000000 0.500000
O O8 0.888212 0.744196 0.934200
O O9 0.000000 0.819821 0.000000
O O10 0.887230 0.000000 0.000000
O O11 0.093490 0.500000 0.598941
O O12 0.000000 0.277042 0.612047
O O13 0.821502 0.500000 0.897612
O O14 0.750000 0.250000 0.912621
#
# Coordination Sequence:
#
# PCOD8272278 Si02
#       5
#    16   8   8  16  16
#     4   9  19  35  57  84 111 143 183 226 271 323
#     4  12  25  40  59  83 111 145 189 234 275 324
#     4  11  24  39  54  77 111 147 184 229 280 331
#     4  10  21  38  59  84 116 150 182 222 275 329
#     4  10  20  36  59  84 111 144 184 228 273 325
#
# _framework density 19.316511999999999
#
# number of rings (size 3 to 8) (size 9 to 14) (size 15 to 20)
#    0.000    1.875    0.000    3.750    0.000    8.000 
#    0.000    2.500    0.000    0.000    0.000    0.000 
#    0.000    0.000    0.000    0.000    0.000    0.000 
#
# Total GULP energy -396912.043921 kJ/mol
# GULP energy per Si atom -12403.501373 kJ/mol
# Density = 1.927255 g / cm^3
# Si number density = 19.316512 Si / 1000 Ang^3
#
#
#
# Elastic Constant Matrix: (Units=GPa)
#
#
# Indices 1 2 3 4 5 6 
#
# 1 136.3944 60.4209 69.4161 0.0000 0.0000 0.0000
# 2 60.4209 97.2359 52.5210 0.0000 0.0000 0.0000
# 3 69.4161 52.5210 117.2943 0.0000 0.0000 0.0000
# 4 0.0000 0.0000 0.0000 26.6149 0.0000 0.0000
# 5 0.0000 0.0000 0.0000 0.0000 16.1906 0.0000
# 6 0.0000 0.0000 0.0000 0.0000 0.0000 31.0135
#
#
#
# Elastic Compliance Matrix: (Units=1/GPa)
#
#
# Indices 1 2 3 4 5 6 
#
# 1 0.011956 -0.004758 -0.004945 0.000000 0.000000 0.000000
# 2 -0.004758 0.015459 -0.004106 0.000000 0.000000 0.000000
# 3 -0.004945 -0.004106 0.013291 0.000000 0.000000 0.000000
# 4 0.000000 0.000000 0.000000 0.037573 0.000000 0.000000
# 5 0.000000 0.000000 0.000000 0.000000 0.061764 0.000000
# 6 0.000000 0.000000 0.000000 0.000000 0.000000 0.032244
#
#
# Mechanical properties :
#
#
# Convention : Reuss Voigt Hill
#
# Bulk Modulus (GPa) = 76.41299 79.51564 77.96431
# Shear Modulus (GPa) = 24.47754 26.00156 25.23955
#
# Velocity S-wave (km/s) = 3.56361 3.67288 3.61866
# Velocity P-wave (km/s) = 7.52175 7.69679 7.60978
#
# Compressibility (1/GPa) = 0.01308678
#
# Stress axis : x y z
#
# Youngs Moduli (GPa) = 83.63715 64.68789 75.24026
#
# Poissons Ratio (x) = 0.30781 0.37208
# Poissons Ratio (y) = 0.39798 0.30893
# Poissons Ratio (z) = 0.41361 0.26561
#
# Static dielectric constant tensor:
#      x y z
#    x 3.545270 0.000000 0.000000 
#    y 0.000000 3.579740 0.000000 
#    z 0.000000 0.000000 3.820560 
# 
# 
# High freq. dielectric constant tensor:
#      x y z
#    x 1.750510 0.000000 0.000000 
#    y 0.000000 1.753130 0.000000 
#    z 0.000000 0.000000 1.766540 
# 
# From -- ./inp_files/58787.got.cif
#   From: 2010.03.12/outbox.cif.g09.slc.cpg/sg65_30_cif.got.tgz:58787.got - 2010.04.10 20:52:16.
