data_PCOD8272327
_publ_section_title
;
Structure prediction by ZEFSAII (Michael W. Deem and Ramdas Pophale) SiO2 
 PCOD8272327
Probable space group: C M M M
;
_chemical_formula_sum "Si O2"
_cell_formula_units_Z 72
_cell_length_a 15.474018
_cell_length_b 8.848439
_cell_length_c 27.656384
_cell_angle_alpha 90.000000
_cell_angle_beta 90.000000
_cell_angle_gamma 90.000000
_cell_volume 3786.737109
_symmetry_space_group_name_H-M "C M M M"
_symmetry_group_IT_number 65
_symmetry_cell_setting 'orthorhombic'
loop_
_space_group_symop_operation_xyz
x,y,z
-x,-y,z
x,-y,-z
-x,y,-z
-x,-y,-z
x,y,-z
-x,y,z
x,-y,z
1/2+x,1/2+y,z
1/2-x,1/2-y,z
1/2+x,1/2-y,-z
1/2-x,1/2+y,-z
1/2-x,1/2-y,-z
1/2+x,1/2+y,-z
1/2-x,1/2+y,z
1/2+x,1/2-y,z
loop_
_atom_site_type_symbol
_atom_site_label
_atom_site_fract_x
_atom_site_fract_y
_atom_site_fract_z
Si Si1 0.838622 0.322368 0.219584
Si Si2 0.000000 0.679330 0.610094
Si Si3 0.000000 0.173011 0.942846
Si Si4 0.160099 0.175924 0.443555
Si Si5 0.660148 0.821753 0.108573
Si Si6 0.000000 0.320518 0.720504
O O1 0.829843 0.500000 0.225672
O O2 0.750000 0.250000 0.238203
O O3 0.857962 0.278112 0.164223
O O4 0.915432 0.256100 0.252545
O O5 0.915315 0.743591 0.585226
O O6 0.000000 0.500000 0.605383
O O7 0.000000 0.734186 0.665415
O O8 0.915475 0.255373 0.923582
O O9 0.000000 0.000000 0.925328
O O10 0.000000 0.185486 0.000000
O O11 0.142985 0.202725 0.500000
O O12 0.250000 0.250000 0.427313
O O13 0.162246 0.000000 0.430530
O O14 0.750000 0.750000 0.090907
O O15 0.664628 0.000000 0.101078
O O16 0.000000 0.500000 0.724358
#
# Coordination Sequence:
#
# PCOD8272327 Si02
#       6
#    16   8   8  16  16   8
#     4   9  18  35  57  80 106 138 178 221 265 314
#     4  11  22  35  54  81 114 149 180 217 268 323
#     4  11  24  39  55  79 112 147 182 223 271 323
#     4  10  21  38  59  81 106 139 181 228 274 321
#     4  10  20  36  60  85 109 141 181 226 272 319
#     4   9  19  35  53  76 110 147 178 212 261 319
#
# _framework density 19.013729999999999
#
# number of rings (size 3 to 8) (size 9 to 14) (size 15 to 20)
#    0.000    2.111    0.000    3.000    0.000    7.556 
#    0.000    5.000    0.000    0.000    0.000    0.000 
#    0.000    0.000    0.000    0.000    0.000    0.000 
#
# Total GULP energy -446533.022165 kJ/mol
# GULP energy per Si atom -12403.695060 kJ/mol
# Density = 1.897045 g / cm^3
# Si number density = 19.013730 Si / 1000 Ang^3
#
#
#
# Elastic Constant Matrix: (Units=GPa)
#
#
# Indices 1 2 3 4 5 6 
#
# 1 194.7043 67.8630 85.4399 0.0000 0.0000 0.0000
# 2 67.8630 86.6283 49.2521 0.0000 0.0000 0.0000
# 3 85.4399 49.2521 87.6218 0.0000 0.0000 0.0000
# 4 0.0000 0.0000 0.0000 23.3976 0.0000 0.0000
# 5 0.0000 0.0000 0.0000 0.0000 8.9120 0.0000
# 6 0.0000 0.0000 0.0000 0.0000 0.0000 40.3410
#
#
#
# Elastic Compliance Matrix: (Units=1/GPa)
#
#
# Indices 1 2 3 4 5 6 
#
# 1 0.009550 -0.003214 -0.007505 0.000000 0.000000 0.000000
# 2 -0.003214 0.018047 -0.007010 0.000000 0.000000 0.000000
# 3 -0.007505 -0.007010 0.022672 0.000000 0.000000 0.000000
# 4 0.000000 0.000000 0.000000 0.042739 0.000000 0.000000
# 5 0.000000 0.000000 0.000000 0.000000 0.112209 0.000000
# 6 0.000000 0.000000 0.000000 0.000000 0.000000 0.024789
#
#
# Mechanical properties :
#
#
# Convention : Reuss Voigt Hill
#
# Bulk Modulus (GPa) = 67.52581 86.00716 76.76648
# Shear Modulus (GPa) = 18.49109 25.62342 22.05726
#
# Velocity S-wave (km/s) = 3.12190 3.67499 3.40968
# Velocity P-wave (km/s) = 6.97039 7.95863 7.48085
#
# Compressibility (1/GPa) = 0.01480915
#
# Stress axis : x y z
#
# Youngs Moduli (GPa) = 104.71584 55.41107 44.10807
#
# Poissons Ratio (x) = 0.17809 0.33105
# Poissons Ratio (y) = 0.33655 0.30921
# Poissons Ratio (z) = 0.78593 0.38845
#
# Static dielectric constant tensor:
#      x y z
#    x 3.685640 0.000000 0.000000 
#    y 0.000000 3.490850 0.000000 
#    z 0.000000 0.000000 3.509990 
# 
# 
# High freq. dielectric constant tensor:
#      x y z
#    x 1.757690 0.000000 0.000000 
#    y 0.000000 1.738710 0.000000 
#    z 0.000000 0.000000 1.733960 
# 
# From -- ./inp_files/72576.got.cif
#   From: 2010.03.12/outbox.cif.g09.slc.cpg/sg65_37_cif.got.tgz:72576.got - 2010.04.10 20:52:16.
