data_PCOD8272141
_publ_section_title
;
Structure prediction by ZEFSAII (Michael W. Deem and Ramdas Pophale) SiO2 
 PCOD8272141
Probable space group: C M M M
;
_chemical_formula_sum "Si O2"
_cell_formula_units_Z 88
_cell_length_a 23.692312
_cell_length_b 9.055940
_cell_length_c 22.483617
_cell_angle_alpha 90.000000
_cell_angle_beta 90.000000
_cell_angle_gamma 90.000000
_cell_volume 4823.998435
_symmetry_space_group_name_H-M "C M M M"
_symmetry_group_IT_number 65
_symmetry_cell_setting 'orthorhombic'
loop_
_space_group_symop_operation_xyz
x,y,z
-x,-y,z
x,-y,-z
-x,y,-z
-x,-y,-z
x,y,-z
-x,y,z
x,-y,z
1/2+x,1/2+y,z
1/2-x,1/2-y,z
1/2+x,1/2-y,-z
1/2-x,1/2+y,-z
1/2-x,1/2-y,-z
1/2+x,1/2+y,-z
1/2-x,1/2+y,z
1/2+x,1/2-y,z
loop_
_atom_site_type_symbol
_atom_site_label
_atom_site_fract_x
_atom_site_fract_y
_atom_site_fract_z
Si Si1 0.601281 0.172814 0.618156
Si Si2 0.433266 0.674781 0.500000
Si Si3 0.500000 0.337804 0.185968
Si Si4 0.692990 0.172076 0.933393
Si Si5 0.000000 0.163712 0.324247
Si Si6 0.614755 0.173614 0.173960
Si Si7 0.190139 0.671504 0.715997
O O1 0.599648 0.257330 0.555800
O O2 0.553892 0.240861 0.659738
O O3 0.660556 0.198567 0.651971
O O4 0.589505 0.000000 0.607878
O O5 0.425797 0.500000 0.500000
O O6 0.500000 0.718398 0.500000
O O7 0.500000 0.500000 0.155619
O O8 0.500000 0.361528 0.255475
O O9 0.554826 0.249258 0.166946
O O10 0.750000 0.250000 0.913321
O O11 0.645370 0.217951 0.886971
O O12 0.705256 0.000000 0.930507
O O13 0.674421 0.220605 0.000000
O O14 0.000000 0.000000 0.356032
O O15 0.650483 0.232860 0.230684
O O16 0.605006 0.000000 0.181038
O O17 0.201391 0.500000 0.727055
O O18 0.250000 0.750000 0.716258
#
# Coordination Sequence:
#
# PCOD8272141 Si02
#       7
#    16   8   8  16   8  16  16
#     4  11  22  37  58  83 111 144 183 222 269 328
#     4  11  23  37  56  85 115 142 181 225 272 320
#     4  11  23  35  53  83 113 144 183 225 278 331
#     4   9  18  33  55  82 111 146 188 231 275 324
#     4  11  21  34  54  82 112 143 176 223 278 325
#     4  10  20  36  56  80 112 147 184 225 274 330
#     4  10  22  37  56  82 109 142 182 224 271 324
#
# _framework density 18.242128000000001
#
# number of rings (size 3 to 8) (size 9 to 14) (size 15 to 20)
#    0.000    1.727    2.727    1.909    0.000    4.000 
#    0.000    0.909    0.000    2.727    0.000    0.000 
#    0.000    0.000    0.000    0.000    0.000    0.000 
#
# Total GULP energy -545575.473474 kJ/mol
# GULP energy per Si atom -12399.442579 kJ/mol
# Density = 1.820061 g / cm^3
# Si number density = 18.242128 Si / 1000 Ang^3
#
#
#
# Elastic Constant Matrix: (Units=GPa)
#
#
# Indices 1 2 3 4 5 6 
#
# 1 153.8308 67.0945 68.2651 0.0000 0.0000 0.0000
# 2 67.0945 80.9030 50.8861 0.0000 0.0000 0.0000
# 3 68.2651 50.8861 108.8467 0.0000 0.0000 0.0000
# 4 0.0000 0.0000 0.0000 21.1486 0.0000 0.0000
# 5 0.0000 0.0000 0.0000 0.0000 283.8871 0.0000
# 6 0.0000 0.0000 0.0000 0.0000 0.0000 24.2576
#
#
#
# Elastic Compliance Matrix: (Units=1/GPa)
#
#
# Indices 1 2 3 4 5 6 
#
# 1 0.011192 -0.006894 -0.003796 0.000000 0.000000 0.000000
# 2 -0.006894 0.021756 -0.005847 0.000000 0.000000 0.000000
# 3 -0.003796 -0.005847 0.014302 0.000000 0.000000 0.000000
# 4 0.000000 0.000000 0.000000 0.047285 0.000000 0.000000
# 5 0.000000 0.000000 0.000000 0.000000 0.003523 0.000000
# 6 0.000000 0.000000 0.000000 0.000000 0.000000 0.041224
#
#
# Mechanical properties :
#
#
# Convention : Reuss Voigt Hill
#
# Bulk Modulus (GPa) = 70.54943 79.56353 75.05648
# Shear Modulus (GPa) = 28.23569 76.34763 52.29166
#
# Velocity S-wave (km/s) = 3.93851 6.47636 5.35981
# Velocity P-wave (km/s) = 7.70976 9.98170 8.91837
#
# Compressibility (1/GPa) = 0.01417446
#
# Stress axis : x y z
#
# Youngs Moduli (GPa) = 89.34696 45.96521 69.92181
#
# Poissons Ratio (x) = 0.31689 0.26545
# Poissons Ratio (y) = 0.61597 0.40883
# Poissons Ratio (z) = 0.33920 0.26876
#
# Static dielectric constant tensor:
#      x y z
#    x 3.277020 0.000000 0.000000 
#    y 0.000000 3.488030 0.000000 
#    z 0.000000 0.000000 3.565550 
# 
# 
# High freq. dielectric constant tensor:
#      x y z
#    x 1.699090 0.000000 0.000000 
#    y 0.000000 1.712630 0.000000 
#    z 0.000000 0.000000 1.711580 
# 
# From -- ./inp_files/59930.got.cif
#   From: 2010.03.12/outbox.cif.g09.slc.cpg/sg65_30_cif.got.tgz:59930.got - 2010.04.10 20:52:16.
