data_PCOD8272317
_publ_section_title
;
Structure prediction by ZEFSAII (Michael W. Deem and Ramdas Pophale) SiO2 
 PCOD8272317
Probable space group: C M M M
;
_chemical_formula_sum "Si O2"
_cell_formula_units_Z 68
_cell_length_a 13.687388
_cell_length_b 22.711811
_cell_length_c 11.497022
_cell_angle_alpha 90.000000
_cell_angle_beta 90.000000
_cell_angle_gamma 90.000000
_cell_volume 3574.025990
_symmetry_space_group_name_H-M "C M M M"
_symmetry_group_IT_number 65
_symmetry_cell_setting 'orthorhombic'
loop_
_space_group_symop_operation_xyz
x,y,z
-x,-y,z
x,-y,-z
-x,y,-z
-x,-y,-z
x,y,-z
-x,y,z
x,-y,z
1/2+x,1/2+y,z
1/2-x,1/2-y,z
1/2+x,1/2-y,-z
1/2-x,1/2+y,-z
1/2-x,1/2-y,-z
1/2+x,1/2+y,-z
1/2-x,1/2+y,z
1/2+x,1/2-y,z
loop_
_atom_site_type_symbol
_atom_site_label
_atom_site_fract_x
_atom_site_fract_y
_atom_site_fract_z
Si Si1 0.887534 0.726688 0.367654
Si Si2 0.384605 0.000000 0.769014
Si Si3 0.611618 0.653433 0.249635
Si Si4 0.258035 0.000000 0.000000
Si Si5 0.788548 0.394538 0.363410
Si Si6 0.610165 0.607527 0.000000
O O1 0.862513 0.744766 0.500000
O O2 0.856134 0.781043 0.287041
O O3 0.829509 0.669196 0.328988
O O4 0.000000 0.710759 0.353039
O O5 0.327842 0.000000 0.889649
O O6 0.356013 0.057155 0.695913
O O7 0.500000 0.000000 0.792642
O O8 0.500000 0.641127 0.287770
O O9 0.677739 0.604207 0.314293
O O10 0.625564 0.648943 0.111500
O O11 0.189121 0.056415 0.000000
O O12 0.788967 0.406635 0.500000
O O13 0.500000 0.580712 0.000000
#
# Coordination Sequence:
#
# PCOD8272317 Si02
#       6
#    16   8  16   4  16   8
#     4   9  18  34  58  87 121 159 196 235 289 356
#     4  12  26  43  64  87 116 154 203 254 293 341
#     4  10  20  36  59  89 120 153 195 245 296 354
#     4  12  22  46  66  84 114 158 204 246 294 346
#     4  11  22  38  60  88 122 161 199 240 294 354
#     4  10  21  39  65  89 116 156 200 242 292 356
#
# _framework density 19.026161999999999
#
# number of rings (size 3 to 8) (size 9 to 14) (size 15 to 20)
#    0.000    1.647    2.353    2.824    0.000    5.176 
#    0.000    4.118    0.000    4.235    0.000    0.000 
#    0.000    0.000    0.000    0.000    0.000    0.000 
#
# Total GULP energy -421653.823919 kJ/mol
# GULP energy per Si atom -12401.583056 kJ/mol
# Density = 1.898286 g / cm^3
# Si number density = 19.026162 Si / 1000 Ang^3
#
#
#
# Elastic Constant Matrix: (Units=GPa)
#
#
# Indices 1 2 3 4 5 6 
#
# 1 124.2440 68.8636 62.9648 0.0000 0.0000 0.0000
# 2 68.8636 102.6698 73.4464 0.0000 0.0000 0.0000
# 3 62.9648 73.4464 134.1571 0.0000 0.0000 0.0000
# 4 0.0000 0.0000 0.0000 -4.7608 0.0000 0.0000
# 5 0.0000 0.0000 0.0000 0.0000 27.4118 0.0000
# 6 0.0000 0.0000 0.0000 0.0000 0.0000 30.5135
#
#
#
# Elastic Compliance Matrix: (Units=1/GPa)
#
#
# Indices 1 2 3 4 5 6 
#
# 1 0.013200 -0.007269 -0.002216 0.000000 0.000000 0.000000
# 2 -0.007269 0.020012 -0.007545 0.000000 0.000000 0.000000
# 3 -0.002216 -0.007545 0.012625 0.000000 0.000000 0.000000
# 4 0.000000 0.000000 0.000000 -0.210047 0.000000 0.000000
# 5 0.000000 0.000000 0.000000 0.000000 0.036481 0.000000
# 6 0.000000 0.000000 0.000000 0.000000 0.000000 0.032772
#
#
# Mechanical properties :
#
#
# Convention : Reuss Voigt Hill
#
# Bulk Modulus (GPa) = 84.90014 85.73564 85.31789
# Shear Modulus (GPa) = -87.76310 21.01930 -33.37190
#
# Velocity S-wave (km/s) = -6.79910 3.32740 -4.19262
# Velocity P-wave (km/s) = 4.11306 7.74092 4.63706
#
# Compressibility (1/GPa) = 0.01177854
#
# Stress axis : x y z
#
# Youngs Moduli (GPa) = 75.75483 49.96895 79.21073
#
# Poissons Ratio (x) = 0.36320 0.17555
# Poissons Ratio (y) = 0.55063 0.59762
# Poissons Ratio (z) = 0.16789 0.37700
#
# Static dielectric constant tensor:
#      x y z
#    x 3.759890 0.000000 0.000000 
#    y 0.000000 3.488420 0.000000 
#    z 0.000000 0.000000 3.516670 
# 
# 
# High freq. dielectric constant tensor:
#      x y z
#    x 1.761900 0.000000 0.000000 
#    y 0.000000 1.730930 0.000000 
#    z 0.000000 0.000000 1.739410 
# 
# From -- ./inp_files/24317.got.cif
#   From: 2010.03.12/outbox.cif.g09.slc.cpg/sg65_13_cif.got.tgz:24317.got - 2010.04.10 20:52:16.
