data_PCOD8272694
_publ_section_title
;
Structure prediction by ZEFSAII (Michael W. Deem and Ramdas Pophale) SiO2 
 PCOD8272694
Probable space group: C M M M
;
_chemical_formula_sum "Si O2"
_cell_formula_units_Z 80
_cell_length_a 27.145317
_cell_length_b 18.752017
_cell_length_c 8.866009
_cell_angle_alpha 90.000000
_cell_angle_beta 90.000000
_cell_angle_gamma 90.000000
_cell_volume 4513.059648
_symmetry_space_group_name_H-M "C M M M"
_symmetry_group_IT_number 65
_symmetry_cell_setting 'orthorhombic'
loop_
_space_group_symop_operation_xyz
x,y,z
-x,-y,z
x,-y,-z
-x,y,-z
-x,-y,-z
x,y,-z
-x,y,z
x,-y,z
1/2+x,1/2+y,z
1/2-x,1/2-y,z
1/2+x,1/2-y,-z
1/2-x,1/2+y,-z
1/2-x,1/2-y,-z
1/2+x,1/2+y,-z
1/2-x,1/2+y,z
1/2+x,1/2-y,z
loop_
_atom_site_type_symbol
_atom_site_label
_atom_site_fract_x
_atom_site_fract_y
_atom_site_fract_z
Si Si1 0.055428 0.861332 0.176868
Si Si2 0.944653 0.577448 0.820504
Si Si3 0.103326 0.283147 0.823190
Si Si4 0.200870 0.210945 0.179486
Si Si5 0.348534 0.581405 0.675515
O O1 0.063172 0.777649 0.213733
O O2 0.096074 0.907892 0.262325
O O3 0.000000 0.882701 0.227874
O O4 0.062739 0.875382 0.000000
O O5 0.922803 0.500000 0.772484
O O6 0.912524 0.641541 0.748720
O O7 0.000000 0.584723 0.758447
O O8 0.945569 0.583760 0.000000
O O9 0.156313 0.259955 0.759761
O O10 0.108262 0.294040 0.000000
O O11 0.250000 0.250000 0.238676
O O12 0.192504 0.131770 0.246109
O O13 0.201328 0.203063 0.000000
O O14 0.349371 0.599387 0.500000
O O15 0.332679 0.500000 0.706657
#
# Coordination Sequence:
#
# PCOD8272694 Si02
#       5
#    16  16  16  16  16
#     4   9  17  29  47  70  95 127 164 199 238 284
#     4   8  12  17  28  50  81 114 142 169 208 259
#     4   8  13  23  39  59  86 117 149 185 224 272
#     4   9  18  33  52  72  92 117 153 197 243 286
#     4  10  21  35  50  70  97 128 160 195 238 288
#
# _framework density 17.726333
#
# number of rings (size 3 to 8) (size 9 to 14) (size 15 to 20)
#    0.000    3.200    0.000    3.000    0.000    5.200 
#    0.000    3.000    0.000    3.600    0.000    0.000 
#    0.000    7.200    0.000   44.000    0.000   40.000 
#
# Total GULP energy -495658.985358 kJ/mol
# GULP energy per Si atom -12391.474634 kJ/mol
# Density = 1.768599 g / cm^3
# Si number density = 17.726333 Si / 1000 Ang^3
#
#
#
# Elastic Constant Matrix: (Units=GPa)
#
#
# Indices 1 2 3 4 5 6 
#
# 1 106.4455 55.9661 28.0980 0.0000 0.0000 0.0000
# 2 55.9661 133.5212 31.6757 0.0000 0.0000 0.0000
# 3 28.0980 31.6757 35.1785 0.0000 0.0000 0.0000
# 4 0.0000 0.0000 0.0000 14.7643 0.0000 0.0000
# 5 0.0000 0.0000 0.0000 0.0000 11.2760 0.0000
# 6 0.0000 0.0000 0.0000 0.0000 0.0000 19.5413
#
#
#
# Elastic Compliance Matrix: (Units=1/GPa)
#
#
# Indices 1 2 3 4 5 6 
#
# 1 0.013325 -0.003892 -0.007139 0.000000 0.000000 0.000000
# 2 -0.003892 0.010660 -0.006491 0.000000 0.000000 0.000000
# 3 -0.007139 -0.006491 0.039973 0.000000 0.000000 0.000000
# 4 0.000000 0.000000 0.000000 0.067731 0.000000 0.000000
# 5 0.000000 0.000000 0.000000 0.000000 0.088684 0.000000
# 6 0.000000 0.000000 0.000000 0.000000 0.000000 0.051174
#
#
# Mechanical properties :
#
#
# Convention : Reuss Voigt Hill
#
# Bulk Modulus (GPa) = 34.58297 56.29166 45.43732
# Shear Modulus (GPa) = 15.81140 19.74335 17.77737
#
# Velocity S-wave (km/s) = 2.98983 3.34096 3.17026
# Velocity P-wave (km/s) = 5.60986 6.83430 6.25212
#
# Compressibility (1/GPa) = 0.02891596
#
# Stress axis : x y z
#
# Youngs Moduli (GPa) = 75.04671 93.80471 25.01702
#
# Poissons Ratio (x) = 0.36506 0.17859
# Poissons Ratio (y) = 0.29206 0.16238
# Poissons Ratio (z) = 0.53575 0.60885
#
# Static dielectric constant tensor:
#      x y z
#    x 3.378160 0.000000 0.000000 
#    y 0.000000 3.604860 0.000000 
#    z 0.000000 0.000000 2.833820 
# 
# 
# High freq. dielectric constant tensor:
#      x y z
#    x 1.671120 0.000000 0.000000 
#    y 0.000000 1.694600 0.000000 
#    z 0.000000 0.000000 1.637820 
# 
# From -- ./inp_files/9619.got.cif
#   From: 2010.03.12/outbox.cif.g09.slc.cpg/sg65_5_cif.got.tgz:9619.got - 2010.04.10 20:52:16.
