data_PCOD8272191
_publ_section_title
;
Structure prediction by ZEFSAII (Michael W. Deem and Ramdas Pophale) SiO2 
 PCOD8272191
Probable space group: C M M M
;
_chemical_formula_sum "Si O2"
_cell_formula_units_Z 88
_cell_length_a 8.781349
_cell_length_b 25.765151
_cell_length_c 20.733397
_cell_angle_alpha 90.000000
_cell_angle_beta 90.000000
_cell_angle_gamma 90.000000
_cell_volume 4690.988772
_symmetry_space_group_name_H-M "C M M M"
_symmetry_group_IT_number 65
_symmetry_cell_setting 'orthorhombic'
loop_
_space_group_symop_operation_xyz
x,y,z
-x,-y,z
x,-y,-z
-x,y,-z
-x,-y,-z
x,y,-z
-x,y,z
x,-y,z
1/2+x,1/2+y,z
1/2-x,1/2-y,z
1/2+x,1/2-y,-z
1/2-x,1/2+y,-z
1/2-x,1/2-y,-z
1/2+x,1/2+y,-z
1/2-x,1/2+y,z
1/2+x,1/2-y,z
loop_
_atom_site_type_symbol
_atom_site_label
_atom_site_fract_x
_atom_site_fract_y
_atom_site_fract_z
Si Si1 0.679974 0.560120 0.000000
Si Si2 0.179752 0.500000 0.638883
Si Si3 0.319788 0.695735 0.196947
Si Si4 0.177995 0.900865 0.425216
Si Si5 0.818789 0.596524 0.868420
Si Si6 0.821686 0.196854 0.345035
Si Si7 0.680739 0.000000 0.215926
O O1 0.751674 0.587582 0.061416
O O2 0.726523 0.500000 0.000000
O O3 0.500000 0.567930 0.000000
O O4 0.233304 0.450085 0.600521
O O5 0.247620 0.500000 0.711547
O O6 0.000000 0.500000 0.642079
O O7 0.500000 0.695867 0.186394
O O8 0.250000 0.750000 0.172824
O O9 0.242969 0.651090 0.155669
O O10 0.274635 0.686343 0.271311
O O11 0.214043 0.893003 0.500000
O O12 0.240339 0.850471 0.387855
O O13 0.000000 0.909640 0.412342
O O14 0.759293 0.551113 0.820872
O O15 0.000000 0.597470 0.871743
O O16 0.750000 0.250000 0.371135
O O17 0.000000 0.202631 0.352979
O O18 0.500000 0.000000 0.217046
#
# Coordination Sequence:
#
# PCOD8272191 Si02
#       7
#     8   8  16  16  16  16   8
#     4  11  23  39  58  85 120 153 187 226 268 318
#     4  11  22  36  54  79 108 140 183 232 277 324
#     4  10  20  36  57  83 113 146 186 231 279 330
#     4  10  21  37  54  74 106 147 185 224 277 338
#     4  11  21  37  60  85 114 150 187 225 274 328
#     4   9  19  35  56  81 109 142 182 229 280 331
#     4   9  20  35  55  83 113 142 177 226 281 331
#
# _framework density 18.759371999999999
#
# number of rings (size 3 to 8) (size 9 to 14) (size 15 to 20)
#    0.000    1.909    0.909    3.000    0.000    3.636 
#    0.000    3.182    0.000    0.000    0.000    0.000 
#    0.000    0.000    0.000    0.000    0.000    0.000 
#
# Total GULP energy -545784.247386 kJ/mol
# GULP energy per Si atom -12404.187441 kJ/mol
# Density = 1.871668 g / cm^3
# Si number density = 18.759372 Si / 1000 Ang^3
#
#
#
# Elastic Constant Matrix: (Units=GPa)
#
#
# Indices 1 2 3 4 5 6 
#
# 1 60.8579 55.5651 46.4796 0.0000 0.0000 0.0000
# 2 55.5651 189.3924 87.8649 0.0000 0.0000 0.0000
# 3 46.4796 87.8649 114.7524 0.0000 0.0000 0.0000
# 4 0.0000 0.0000 0.0000 79.0976 0.0000 0.0000
# 5 0.0000 0.0000 0.0000 0.0000 26.1919 0.0000
# 6 0.0000 0.0000 0.0000 0.0000 0.0000 32.7399
#
#
#
# Elastic Compliance Matrix: (Units=1/GPa)
#
#
# Indices 1 2 3 4 5 6 
#
# 1 0.025797 -0.004220 -0.007218 0.000000 0.000000 0.000000
# 2 -0.004220 0.008879 -0.005090 0.000000 0.000000 0.000000
# 3 -0.007218 -0.005090 0.015535 0.000000 0.000000 0.000000
# 4 0.000000 0.000000 0.000000 0.012643 0.000000 0.000000
# 5 0.000000 0.000000 0.000000 0.000000 0.038180 0.000000
# 6 0.000000 0.000000 0.000000 0.000000 0.000000 0.030544
#
#
# Mechanical properties :
#
#
# Convention : Reuss Voigt Hill
#
# Bulk Modulus (GPa) = 58.28567 82.75799 70.52183
# Shear Modulus (GPa) = 29.35114 39.27875 34.31495
#
# Velocity S-wave (km/s) = 3.95981 4.58079 4.28157
# Velocity P-wave (km/s) = 7.21418 8.49644 7.88143
#
# Compressibility (1/GPa) = 0.01715688
#
# Stress axis : x y z
#
# Youngs Moduli (GPa) = 38.76389 112.62112 64.37106
#
# Poissons Ratio (x) = 0.47526 0.46461
# Poissons Ratio (y) = 0.16358 0.32762
# Poissons Ratio (z) = 0.27979 0.57319
#
# Static dielectric constant tensor:
#      x y z
#    x 3.365070 0.000000 0.000000 
#    y 0.000000 3.520360 0.000000 
#    z 0.000000 0.000000 3.510850 
# 
# 
# High freq. dielectric constant tensor:
#      x y z
#    x 1.724720 0.000000 0.000000 
#    y 0.000000 1.741280 0.000000 
#    z 0.000000 0.000000 1.731700 
# 
# From -- ./inp_files/59921.got.cif
#   From: 2010.03.12/outbox.cif.g09.slc.cpg/sg65_30_cif.got.tgz:59921.got - 2010.04.10 20:52:16.
