data_PCOD8272119
_publ_section_title
;
Structure prediction by ZEFSAII (Michael W. Deem and Ramdas Pophale) SiO2 
 PCOD8272119
Probable space group: C M M M
;
_chemical_formula_sum "Si O2"
_cell_formula_units_Z 64
_cell_length_a 15.258728
_cell_length_b 8.864348
_cell_length_c 24.337323
_cell_angle_alpha 90.000000
_cell_angle_beta 90.000000
_cell_angle_gamma 90.000000
_cell_volume 3291.834063
_symmetry_space_group_name_H-M "C M M M"
_symmetry_group_IT_number 65
_symmetry_cell_setting 'orthorhombic'
loop_
_space_group_symop_operation_xyz
x,y,z
-x,-y,z
x,-y,-z
-x,y,-z
-x,-y,-z
x,y,-z
-x,y,z
x,-y,z
1/2+x,1/2+y,z
1/2-x,1/2-y,z
1/2+x,1/2-y,-z
1/2-x,1/2+y,-z
1/2-x,1/2-y,-z
1/2+x,1/2+y,-z
1/2-x,1/2+y,z
1/2+x,1/2-y,z
loop_
_atom_site_type_symbol
_atom_site_label
_atom_site_fract_x
_atom_site_fract_y
_atom_site_fract_z
Si Si1 0.160200 0.178147 0.437553
Si Si2 0.000000 0.821214 0.633796
Si Si3 0.154616 0.677882 0.167495
Si Si4 0.344584 0.676788 0.940574
Si Si5 0.500000 0.824186 0.248718
O O1 0.139260 0.228111 0.500000
O O2 0.250000 0.250000 0.416417
O O3 0.084752 0.241901 0.397998
O O4 0.168439 0.000000 0.433417
O O5 0.000000 0.769030 0.695926
O O6 0.000000 0.000000 0.631809
O O7 0.165945 0.500000 0.161406
O O8 0.250000 0.750000 0.179431
O O9 0.109518 0.742927 0.111386
O O10 0.087881 0.720376 0.215897
O O11 0.336587 0.500000 0.928276
O O12 0.250000 0.750000 0.944350
O O13 0.392548 0.703137 0.000000
O O14 0.500000 0.000000 0.262552
#
# Coordination Sequence:
#
# PCOD8272119 Si02
#       5
#    16   8  16  16   8
#     4   9  18  34  56  83 113 142 174 213 258 309
#     4  10  21  36  56  79 105 142 181 217 259 306
#     4  10  20  36  56  76 101 136 175 216 264 313
#     4   9  16  27  47  76 105 132 165 208 260 316
#     4  10  24  41  54  74 106 141 179 222 263 308
#
# _framework density 19.442049000000001
#
# number of rings (size 3 to 8) (size 9 to 14) (size 15 to 20)
#    0.000    2.500    0.000    3.375    0.000    7.000 
#    0.000    5.625    0.000    7.500    0.000    0.000 
#    0.000    0.000    0.000    0.000    0.000    0.000 
#
# Total GULP energy -396587.449781 kJ/mol
# GULP energy per Si atom -12393.357806 kJ/mol
# Density = 1.939780 g / cm^3
# Si number density = 19.442049 Si / 1000 Ang^3
#
#
#
# Elastic Constant Matrix: (Units=GPa)
#
#
# Indices 1 2 3 4 5 6 
#
# 1 123.4614 42.8946 81.8450 0.0000 0.0000 0.0000
# 2 42.8946 70.9293 48.3301 0.0000 0.0000 0.0000
# 3 81.8450 48.3301 148.7541 0.0000 0.0000 0.0000
# 4 0.0000 0.0000 0.0000 34.0488 0.0000 0.0000
# 5 0.0000 0.0000 0.0000 0.0000 -7.1229 0.0000
# 6 0.0000 0.0000 0.0000 0.0000 0.0000 25.0862
#
#
#
# Elastic Compliance Matrix: (Units=1/GPa)
#
#
# Indices 1 2 3 4 5 6 
#
# 1 0.013584 -0.004010 -0.006171 0.000000 0.000000 0.000000
# 2 -0.004010 0.019291 -0.004061 0.000000 0.000000 0.000000
# 3 -0.006171 -0.004061 0.011437 0.000000 0.000000 0.000000
# 4 0.000000 0.000000 0.000000 0.029370 0.000000 0.000000
# 5 0.000000 0.000000 0.000000 0.000000 -0.140392 0.000000
# 6 0.000000 0.000000 0.000000 0.000000 0.000000 0.039863
#
#
# Mechanical properties :
#
#
# Convention : Reuss Voigt Hill
#
# Bulk Modulus (GPa) = 63.18144 76.58712 69.88428
# Shear Modulus (GPa) = 723.31170 21.74076 372.52623
#
# Velocity S-wave (km/s) = 19.30913 3.34763 13.85729
# Velocity P-wave (km/s) = 23.01502 7.37700 17.08963
#
# Compressibility (1/GPa) = 0.01582743
#
# Stress axis : x y z
#
# Youngs Moduli (GPa) = 73.61722 51.83797 87.43317
#
# Poissons Ratio (x) = 0.20787 0.53955
# Poissons Ratio (y) = 0.29520 0.35509
# Poissons Ratio (z) = 0.45429 0.21053
#
# Static dielectric constant tensor:
#      x y z
#    x 3.507410 0.000000 0.000000 
#    y 0.000000 3.507780 0.000000 
#    z 0.000000 0.000000 3.968860 
# 
# 
# High freq. dielectric constant tensor:
#      x y z
#    x 1.743220 0.000000 0.000000 
#    y 0.000000 1.755420 0.000000 
#    z 0.000000 0.000000 1.764960 
# 
# From -- ./inp_files/63237.got.cif
#   From: 2010.03.12/outbox.cif.g09.slc.cpg/sg65_32_cif.got.tgz:63237.got - 2010.04.10 20:52:16.
