data_PCOD8272107
_publ_section_title
;
Structure prediction by ZEFSAII (Michael W. Deem and Ramdas Pophale) SiO2 
 PCOD8272107
Probable space group: C M M M
;
_chemical_formula_sum "Si O2"
_cell_formula_units_Z 72
_cell_length_a 13.202839
_cell_length_b 13.320034
_cell_length_c 22.021159
_cell_angle_alpha 90.000000
_cell_angle_beta 90.000000
_cell_angle_gamma 90.000000
_cell_volume 3872.690886
_symmetry_space_group_name_H-M "C M M M"
_symmetry_group_IT_number 65
_symmetry_cell_setting 'orthorhombic'
loop_
_space_group_symop_operation_xyz
x,y,z
-x,-y,z
x,-y,-z
-x,y,-z
-x,-y,-z
x,y,-z
-x,y,z
x,-y,z
1/2+x,1/2+y,z
1/2-x,1/2-y,z
1/2+x,1/2-y,-z
1/2-x,1/2+y,-z
1/2-x,1/2-y,-z
1/2+x,1/2+y,-z
1/2-x,1/2+y,z
1/2+x,1/2-y,z
loop_
_atom_site_type_symbol
_atom_site_label
_atom_site_fract_x
_atom_site_fract_y
_atom_site_fract_z
Si Si1 0.309445 0.112995 0.622851
Si Si2 0.118095 0.384396 0.757356
Si Si3 0.886297 0.191695 0.429953
Si Si4 0.750000 0.250000 0.844798
Si Si5 0.115173 0.116993 0.930824
O O1 0.331313 0.136622 0.692611
O O2 0.189282 0.127635 0.611922
O O3 0.371582 0.189163 0.580506
O O4 0.342517 0.000000 0.606020
O O5 0.133286 0.500000 0.776817
O O6 0.171360 0.312864 0.805274
O O7 0.000000 0.356652 0.753816
O O8 0.863718 0.167662 0.500000
O O9 0.000000 0.160328 0.412355
O O10 0.811676 0.174462 0.886160
O O11 0.000000 0.152381 0.919960
O O12 0.125627 0.000000 0.916622
O O13 0.147235 0.139808 0.000000
#
# Coordination Sequence:
#
# PCOD8272107 Si02
#       5
#    16  16  16   8  16
#     4  10  20  36  55  72  98 138 174 203 249 311
#     4  10  22  37  52  75 106 136 169 214 261 301
#     4  10  21  35  52  78 106 128 161 213 262 303
#     4  12  19  32  58  82 101 136 180 214 252 306
#     4   9  19  35  53  77 110 142 173 212 255 300
#
# _framework density 18.591723999999999
#
# number of rings (size 3 to 8) (size 9 to 14) (size 15 to 20)
#    0.000    2.000    0.000    5.667    0.000    3.556 
#    0.000    3.333    0.000    2.667    0.000    9.333 
#    0.000    0.000    0.000    0.000    0.000    0.000 
#
# Total GULP energy -446432.055170 kJ/mol
# GULP energy per Si atom -12400.890421 kJ/mol
# Density = 1.854941 g / cm^3
# Si number density = 18.591724 Si / 1000 Ang^3
#
#
#
# Elastic Constant Matrix: (Units=GPa)
#
#
# Indices 1 2 3 4 5 6 
#
# 1 130.0138 37.5067 78.9327 0.0000 0.0000 0.0000
# 2 37.5067 59.8816 42.4055 0.0000 0.0000 0.0000
# 3 78.9327 42.4055 100.3953 0.0000 0.0000 0.0000
# 4 0.0000 0.0000 0.0000 34.9062 0.0000 0.0000
# 5 0.0000 0.0000 0.0000 0.0000 22.6805 0.0000
# 6 0.0000 0.0000 0.0000 0.0000 0.0000 25.1703
#
#
#
# Elastic Compliance Matrix: (Units=1/GPa)
#
#
# Indices 1 2 3 4 5 6 
#
# 1 0.014806 -0.001470 -0.011020 0.000000 0.000000 0.000000
# 2 -0.001470 0.023972 -0.008970 0.000000 0.000000 0.000000
# 3 -0.011020 -0.008970 0.022413 0.000000 0.000000 0.000000
# 4 0.000000 0.000000 0.000000 0.028648 0.000000 0.000000
# 5 0.000000 0.000000 0.000000 0.000000 0.044091 0.000000
# 6 0.000000 0.000000 0.000000 0.000000 0.000000 0.039729
#
#
# Mechanical properties :
#
#
# Convention : Reuss Voigt Hill
#
# Bulk Modulus (GPa) = 54.72735 67.55337 61.14036
# Shear Modulus (GPa) = 22.45482 25.31445 23.88463
#
# Velocity S-wave (km/s) = 3.47909 3.69399 3.58815
# Velocity P-wave (km/s) = 6.75567 7.38973 7.07980
#
# Compressibility (1/GPa) = 0.01827240
#
# Stress axis : x y z
#
# Youngs Moduli (GPa) = 67.54178 41.71466 44.61650
#
# Poissons Ratio (x) = 0.06131 0.49166
# Poissons Ratio (y) = 0.09928 0.40021
# Poissons Ratio (z) = 0.74429 0.37418
#
# Static dielectric constant tensor:
#      x y z
#    x 3.836530 0.000000 0.000000 
#    y 0.000000 3.436920 0.000000 
#    z 0.000000 0.000000 3.351460 
# 
# 
# High freq. dielectric constant tensor:
#      x y z
#    x 1.730710 0.000000 0.000000 
#    y 0.000000 1.721970 0.000000 
#    z 0.000000 0.000000 1.720400 
# 
# From -- ./inp_files/52734.got.cif
#   From: 2010.03.12/outbox.cif.g09.slc.cpg/sg65_27_cif.got.tgz:52734.got - 2010.04.10 20:52:16.
