data_PCOD8272242
_publ_section_title
;
Structure prediction by ZEFSAII (Michael W. Deem and Ramdas Pophale) SiO2 
 PCOD8272242
Probable space group: C M M M
;
_chemical_formula_sum "Si O2"
_cell_formula_units_Z 104
_cell_length_a 8.680398
_cell_length_b 22.050404
_cell_length_c 26.925983
_cell_angle_alpha 90.000000
_cell_angle_beta 90.000000
_cell_angle_gamma 90.000000
_cell_volume 5153.802316
_symmetry_space_group_name_H-M "C M M M"
_symmetry_group_IT_number 65
_symmetry_cell_setting 'orthorhombic'
loop_
_space_group_symop_operation_xyz
x,y,z
-x,-y,z
x,-y,-z
-x,y,-z
-x,-y,-z
x,y,-z
-x,y,z
x,-y,z
1/2+x,1/2+y,z
1/2-x,1/2-y,z
1/2+x,1/2-y,-z
1/2-x,1/2+y,-z
1/2-x,1/2-y,-z
1/2+x,1/2+y,-z
1/2-x,1/2+y,z
1/2+x,1/2-y,z
loop_
_atom_site_type_symbol
_atom_site_label
_atom_site_fract_x
_atom_site_fract_y
_atom_site_fract_z
Si Si1 0.183657 0.500000 0.898555
Si Si2 0.180703 0.685296 0.813003
Si Si3 0.817463 0.314366 0.000000
Si Si4 0.820465 0.390853 0.277797
Si Si5 0.682025 0.622381 0.906200
Si Si6 0.681435 0.314134 0.557240
Si Si7 0.318275 0.000000 0.788270
Si Si8 0.818769 0.070637 0.620589
O O1 0.257888 0.442502 0.924536
O O2 0.250954 0.500000 0.842712
O O3 0.000000 0.500000 0.903300
O O4 0.250000 0.750000 0.825147
O O5 0.213069 0.669665 0.754604
O O6 0.252874 0.637631 0.851405
O O7 0.000000 0.684985 0.822973
O O8 0.750000 0.250000 0.000000
O O9 0.750232 0.336859 0.948577
O O10 0.000000 0.320094 0.000000
O O11 0.760255 0.442276 0.241246
O O12 0.721935 0.398200 0.327258
O O13 0.000000 0.397099 0.292083
O O14 0.500000 0.626852 0.904603
O O15 0.729718 0.319302 0.500000
O O16 0.500000 0.309729 0.565235
O O17 0.750000 0.250000 0.578998
O O18 0.743199 0.377736 0.581803
O O19 0.500000 0.000000 0.793090
O O20 0.000000 0.064972 0.615138
O O21 0.752487 0.000000 0.614158
#
# Coordination Sequence:
#
# PCOD8272242 Si02
#       8
#     8  16   8  16  16  16   8  16
#     4  11  21  40  66  93 123 158 199 242 292 352
#     4  11  23  40  60  85 117 157 200 244 291 351
#     4  12  26  47  70  91 118 158 198 242 298 356
#     4  10  20  36  58  82 113 155 195 233 286 348
#     4  12  25  42  64  94 124 154 195 245 297 354
#     4   9  19  37  59  81 110 151 197 243 296 358
#     4   9  16  33  58  82 110 148 193 233 276 340
#     4  10  21  35  54  85 119 150 191 246 301 354
#
# _framework density 20.179276000000002
#
# number of rings (size 3 to 8) (size 9 to 14) (size 15 to 20)
#    0.000    1.538    2.308    3.231    0.000    3.077 
#    0.000    6.154    0.000    0.000    0.000    3.231 
#    0.000    0.000    0.000    0.000    0.000    0.000 
#
# Total GULP energy -644197.129986 kJ/mol
# GULP energy per Si atom -12388.406346 kJ/mol
# Density = 2.013335 g / cm^3
# Si number density = 20.179276 Si / 1000 Ang^3
#
#
#
# Elastic Constant Matrix: (Units=GPa)
#
#
# Indices 1 2 3 4 5 6 
#
# 1 92.4635 43.5722 31.5769 0.0000 0.0000 0.0000
# 2 43.5722 150.7918 49.6420 0.0000 0.0000 0.0000
# 3 31.5769 49.6420 90.6839 0.0000 0.0000 0.0000
# 4 0.0000 0.0000 0.0000 43.3460 0.0000 0.0000
# 5 0.0000 0.0000 0.0000 0.0000 31.0596 0.0000
# 6 0.0000 0.0000 0.0000 0.0000 0.0000 33.0721
#
#
#
# Elastic Compliance Matrix: (Units=1/GPa)
#
#
# Indices 1 2 3 4 5 6 
#
# 1 0.013179 -0.002802 -0.003055 0.000000 0.000000 0.000000
# 2 -0.002802 0.008685 -0.003779 0.000000 0.000000 0.000000
# 3 -0.003055 -0.003779 0.014160 0.000000 0.000000 0.000000
# 4 0.000000 0.000000 0.000000 0.023070 0.000000 0.000000
# 5 0.000000 0.000000 0.000000 0.000000 0.032196 0.000000
# 6 0.000000 0.000000 0.000000 0.000000 0.000000 0.030237
#
#
# Mechanical properties :
#
#
# Convention : Reuss Voigt Hill
#
# Bulk Modulus (GPa) = 59.69497 64.83572 62.26535
# Shear Modulus (GPa) = 34.15687 35.43875 34.79781
#
# Velocity S-wave (km/s) = 4.11867 4.19524 4.15713
# Velocity P-wave (km/s) = 7.22942 7.46099 7.34612
#
# Compressibility (1/GPa) = 0.01675183
#
# Stress axis : x y z
#
# Youngs Moduli (GPa) = 75.87854 115.13534 70.62340
#
# Poissons Ratio (x) = 0.32266 0.21575
# Poissons Ratio (y) = 0.21264 0.26687
# Poissons Ratio (z) = 0.23180 0.43507
#
# Static dielectric constant tensor:
#      x y z
#    x 3.559720 0.000000 0.000000 
#    y 0.000000 4.122040 0.000000 
#    z 0.000000 0.000000 0.476920 
# 
# 
# High freq. dielectric constant tensor:
#      x y z
#    x 1.774060 0.000000 0.000000 
#    y 0.000000 1.807000 0.000000 
#    z 0.000000 0.000000 1.786110 
# 
# From -- ./inp_files/73385.got.cif
#   From: 2010.03.12/outbox.cif.g09.slc.cpg/sg65_37_cif.got.tgz:73385.got - 2010.04.10 20:52:16.
