data_PCOD8272132
_publ_section_title
;
Structure prediction by ZEFSAII (Michael W. Deem and Ramdas Pophale) SiO2 
 PCOD8272132
Probable space group: C M M M
;
_chemical_formula_sum "Si O2"
_cell_formula_units_Z 88
_cell_length_a 8.839560
_cell_length_b 24.438236
_cell_length_c 22.477232
_cell_angle_alpha 90.000000
_cell_angle_beta 90.000000
_cell_angle_gamma 90.000000
_cell_volume 4855.604784
_symmetry_space_group_name_H-M "C M M M"
_symmetry_group_IT_number 65
_symmetry_cell_setting 'orthorhombic'
loop_
_space_group_symop_operation_xyz
x,y,z
-x,-y,z
x,-y,-z
-x,y,-z
-x,-y,-z
x,y,-z
-x,y,z
x,-y,z
1/2+x,1/2+y,z
1/2-x,1/2-y,z
1/2+x,1/2-y,-z
1/2-x,1/2+y,-z
1/2-x,1/2-y,-z
1/2+x,1/2+y,-z
1/2-x,1/2+y,z
1/2+x,1/2-y,z
loop_
_atom_site_type_symbol
_atom_site_label
_atom_site_fract_x
_atom_site_fract_y
_atom_site_fract_z
Si Si1 0.821028 0.608723 0.067030
Si Si2 0.320745 0.000000 0.569520
Si Si3 0.833260 0.000000 0.070389
Si Si4 0.677150 0.194221 0.838465
Si Si5 0.322525 0.690219 0.500000
Si Si6 0.680123 0.613975 0.391164
Si Si7 0.679192 0.191694 0.297464
O O1 0.758329 0.552176 0.092214
O O2 0.756463 0.651629 0.114242
O O3 0.000000 0.605749 0.067407
O O4 0.762768 0.622102 0.000000
O O5 0.250954 0.054007 0.599739
O O6 0.500000 0.000000 0.579446
O O7 0.277725 0.000000 0.500000
O O8 0.000000 0.000000 0.099034
O O9 0.843810 0.000000 0.000000
O O10 0.500000 0.199656 0.845142
O O11 0.750000 0.250000 0.858685
O O12 0.720557 0.179195 0.770965
O O13 0.500000 0.699431 0.500000
O O14 0.250000 0.750000 0.500000
O O15 0.269673 0.655063 0.556517
O O16 0.500000 0.607791 0.387411
O O17 0.746083 0.640998 0.331687
O O18 0.500000 0.194075 0.309124
O O19 0.750000 0.250000 0.317567
#
# Coordination Sequence:
#
# PCOD8272132 Si02
#       7
#    16   8   8  16   8  16  16
#     4   9  17  31  51  74 101 136 176 216 264 322
#     4  11  23  39  60  85 112 147 181 215 262 319
#     4   9  17  29  46  71 100 129 164 210 261 308
#     4   9  19  34  52  75 105 140 176 217 265 317
#     4  10  22  35  52  79 109 136 166 210 259 304
#     4  11  22  38  58  81 109 143 179 219 265 313
#     4  10  20  36  56  79 107 141 181 223 269 320
#
# _framework density 18.123386
#
# number of rings (size 3 to 8) (size 9 to 14) (size 15 to 20)
#    0.000    2.182    0.909    2.182    0.000    6.182 
#    0.000    0.909    0.000    2.182    0.000    0.000 
#    0.000    0.000    0.000    0.000    0.000    0.000 
#
# Total GULP energy -545537.664154 kJ/mol
# GULP energy per Si atom -12398.583276 kJ/mol
# Density = 1.808214 g / cm^3
# Si number density = 18.123386 Si / 1000 Ang^3
#
#
#
# Elastic Constant Matrix: (Units=GPa)
#
#
# Indices 1 2 3 4 5 6 
#
# 1 49.5098 53.1872 36.6773 0.0000 0.0000 0.0000
# 2 53.1872 185.1715 90.0371 0.0000 0.0000 0.0000
# 3 36.6773 90.0371 97.3075 0.0000 0.0000 0.0000
# 4 0.0000 0.0000 0.0000 25.4102 0.0000 0.0000
# 5 0.0000 0.0000 0.0000 0.0000 20.3009 0.0000
# 6 0.0000 0.0000 0.0000 0.0000 0.0000 36.5117
#
#
#
# Elastic Compliance Matrix: (Units=1/GPa)
#
#
# Indices 1 2 3 4 5 6 
#
# 1 0.031204 -0.005897 -0.006305 0.000000 0.000000 0.000000
# 2 -0.005897 0.010932 -0.007892 0.000000 0.000000 0.000000
# 3 -0.006305 -0.007892 0.019956 0.000000 0.000000 0.000000
# 4 0.000000 0.000000 0.000000 0.039354 0.000000 0.000000
# 5 0.000000 0.000000 0.000000 0.000000 0.049259 0.000000
# 6 0.000000 0.000000 0.000000 0.000000 0.000000 0.027388
#
#
# Mechanical properties :
#
#
# Convention : Reuss Voigt Hill
#
# Bulk Modulus (GPa) = 45.65614 76.86577 61.26095
# Shear Modulus (GPa) = 22.16487 26.58372 24.37430
#
# Velocity S-wave (km/s) = 3.50093 3.83406 3.67128
# Velocity P-wave (km/s) = 6.44892 7.88065 7.20046
#
# Compressibility (1/GPa) = 0.02190286
#
# Stress axis : x y z
#
# Youngs Moduli (GPa) = 32.04731 91.47711 50.11103
#
# Poissons Ratio (x) = 0.53945 0.31595
# Poissons Ratio (y) = 0.18898 0.39549
# Poissons Ratio (z) = 0.20206 0.72196
#
# Static dielectric constant tensor:
#      x y z
#    x 3.373650 0.000000 0.000000 
#    y 0.000000 3.497070 0.000000 
#    z 0.000000 0.000000 3.467230 
# 
# 
# High freq. dielectric constant tensor:
#      x y z
#    x 1.706560 0.000000 0.000000 
#    y 0.000000 1.708370 0.000000 
#    z 0.000000 0.000000 1.694360 
# 
# From -- ./inp_files/67669.got.cif
#   From: 2010.03.12/outbox.cif.g09.slc.cpg/sg65_34_cif.got.tgz:67669.got - 2010.04.10 20:52:16.
