data_PCOD8272533
_publ_section_title
;
Structure prediction by ZEFSAII (Michael W. Deem and Ramdas Pophale) SiO2 
 PCOD8272533
Probable space group: C M M M
;
_chemical_formula_sum "Si O2"
_cell_formula_units_Z 64
_cell_length_a 10.500280
_cell_length_b 30.777312
_cell_length_c 9.325988
_cell_angle_alpha 90.000000
_cell_angle_beta 90.000000
_cell_angle_gamma 90.000000
_cell_volume 3013.883213
_symmetry_space_group_name_H-M "C M M M"
_symmetry_group_IT_number 65
_symmetry_cell_setting 'orthorhombic'
loop_
_space_group_symop_operation_xyz
x,y,z
-x,-y,z
x,-y,-z
-x,y,-z
-x,-y,-z
x,y,-z
-x,y,z
x,-y,z
1/2+x,1/2+y,z
1/2-x,1/2-y,z
1/2+x,1/2-y,-z
1/2-x,1/2+y,-z
1/2-x,1/2-y,-z
1/2+x,1/2+y,-z
1/2-x,1/2+y,z
1/2+x,1/2-y,z
loop_
_atom_site_type_symbol
_atom_site_label
_atom_site_fract_x
_atom_site_fract_y
_atom_site_fract_z
Si Si1 0.500000 0.091877 0.839888
Si Si2 0.747903 0.922901 0.332207
Si Si3 0.644077 0.500000 0.842653
Si Si4 0.500000 0.812938 0.238662
Si Si5 0.219263 0.175599 0.659375
Si Si6 0.000000 0.782580 0.159213
O O1 0.615438 0.073973 0.748664
O O2 0.500000 0.144125 0.858899
O O3 0.500000 0.072043 0.000000
O O4 0.730310 0.933923 0.500000
O O5 0.807746 0.875158 0.311999
O O6 0.834818 0.957729 0.254298
O O7 0.500000 0.500000 0.885137
O O8 0.716404 0.500000 0.000000
O O9 0.369921 0.813645 0.331433
O O10 0.500000 0.769466 0.145167
O O11 0.175479 0.188263 0.500000
O O12 0.130620 0.202774 0.765631
O O13 0.000000 0.802365 0.000000
#
# Coordination Sequence:
#
# PCOD8272533 Si02
#       6
#     8  16   8   8  16   8
#     4  10  20  38  65  92 124 160 198 251 308 363
#     4  10  22  41  64  91 122 159 203 250 303 364
#     4  11  25  42  63  92 123 157 199 247 300 365
#     4  10  22  40  65  93 122 165 213 263 315 373
#     4  10  23  42  65  92 124 164 211 262 314 369
#     4  12  26  39  58  91 130 169 212 259 312 374
#
# _framework density 21.235061999999999
#
# number of rings (size 3 to 8) (size 9 to 14) (size 15 to 20)
#    0.000    1.625    0.000    3.375    1.750   14.500 
#    0.000    2.500    0.000    0.000    0.000    0.000 
#    0.000    0.000    0.000    0.000    0.000    0.000 
#
# Total GULP energy -396629.197058 kJ/mol
# GULP energy per Si atom -12394.662408 kJ/mol
# Density = 2.118673 g / cm^3
# Si number density = 21.235062 Si / 1000 Ang^3
#
#
#
# Elastic Constant Matrix: (Units=GPa)
#
#
# Indices 1 2 3 4 5 6 
#
# 1 112.4346 41.4476 50.6655 0.0000 0.0000 0.0000
# 2 41.4476 101.8166 51.8132 0.0000 0.0000 0.0000
# 3 50.6655 51.8132 174.3754 0.0000 0.0000 0.0000
# 4 0.0000 0.0000 0.0000 15.0990 0.0000 0.0000
# 5 0.0000 0.0000 0.0000 0.0000 29.6491 0.0000
# 6 0.0000 0.0000 0.0000 0.0000 0.0000 29.9416
#
#
#
# Elastic Compliance Matrix: (Units=1/GPa)
#
#
# Indices 1 2 3 4 5 6 
#
# 1 0.011154 -0.003406 -0.002229 0.000000 0.000000 0.000000
# 2 -0.003406 0.012612 -0.002758 0.000000 0.000000 0.000000
# 3 -0.002229 -0.002758 0.007202 0.000000 0.000000 0.000000
# 4 0.000000 0.000000 0.000000 0.066230 0.000000 0.000000
# 5 0.000000 0.000000 0.000000 0.000000 0.033728 0.000000
# 6 0.000000 0.000000 0.000000 0.000000 0.000000 0.033398
#
#
# Mechanical properties :
#
#
# Convention : Reuss Voigt Hill
#
# Bulk Modulus (GPa) = 70.51248 75.16436 72.83842
# Shear Modulus (GPa) = 26.90543 31.25128 29.07835
#
# Velocity S-wave (km/s) = 3.56340 3.84041 3.70450
# Velocity P-wave (km/s) = 7.08577 7.42551 7.25763
#
# Compressibility (1/GPa) = 0.01418189
#
# Stress axis : x y z
#
# Youngs Moduli (GPa) = 89.65303 79.29210 138.85627
#
# Poissons Ratio (x) = 0.27011 0.30947
# Poissons Ratio (y) = 0.30540 0.38291
# Poissons Ratio (z) = 0.19981 0.21866
#
# Static dielectric constant tensor:
#      x y z
#    x 3.757840 0.000000 0.000000 
#    y 0.000000 3.924140 0.000000 
#    z 0.000000 0.000000 3.820310 
# 
# 
# High freq. dielectric constant tensor:
#      x y z
#    x 1.831280 0.000000 0.000000 
#    y 0.000000 1.835710 0.000000 
#    z 0.000000 0.000000 1.842510 
# 
# From -- ./inp_files/5020.got.cif
#   From: 2010.03.12/outbox.cif.g09.slc.cpg/sg65_3_cif.got.tgz:5020.got - 2010.04.10 20:52:16.
