data_PCOD8272065
_publ_section_title
;
Structure prediction by ZEFSAII (Michael W. Deem and Ramdas Pophale) SiO2 
 PCOD8272065
Probable space group: C M M M
;
_chemical_formula_sum "Si O2"
_cell_formula_units_Z 80
_cell_length_a 10.344845
_cell_length_b 23.085041
_cell_length_c 17.810614
_cell_angle_alpha 90.000000
_cell_angle_beta 90.000000
_cell_angle_gamma 90.000000
_cell_volume 4253.373585
_symmetry_space_group_name_H-M "C M M M"
_symmetry_group_IT_number 65
_symmetry_cell_setting 'orthorhombic'
loop_
_space_group_symop_operation_xyz
x,y,z
-x,-y,z
x,-y,-z
-x,y,-z
-x,-y,-z
x,y,-z
-x,y,z
x,-y,z
1/2+x,1/2+y,z
1/2-x,1/2-y,z
1/2+x,1/2-y,-z
1/2-x,1/2+y,-z
1/2-x,1/2-y,-z
1/2+x,1/2+y,-z
1/2-x,1/2+y,z
1/2+x,1/2-y,z
loop_
_atom_site_type_symbol
_atom_site_label
_atom_site_fract_x
_atom_site_fract_y
_atom_site_fract_z
Si Si1 0.844789 0.500000 0.190113
Si Si2 0.651729 0.876904 0.144418
Si Si3 0.843868 0.305184 0.000000
Si Si4 0.500000 0.433962 0.589035
Si Si5 0.856632 0.500000 0.355389
Si Si6 0.850390 0.301926 0.712724
Si Si7 0.234574 0.616162 0.585775
O O1 0.791511 0.557654 0.147917
O O2 0.783342 0.500000 0.274782
O O3 0.000000 0.500000 0.189214
O O4 0.500000 0.881715 0.140006
O O5 0.692294 0.843219 0.219466
O O6 0.700176 0.842503 0.071761
O O7 0.750000 0.250000 0.000000
O O8 0.000000 0.290236 0.000000
O O9 0.500000 0.500000 0.622455
O O10 0.500000 0.440183 0.500000
O O11 0.621018 0.395969 0.616064
O O12 0.835467 0.554859 0.408116
O O13 0.000000 0.500000 0.325814
O O14 0.750000 0.250000 0.712338
O O15 0.837170 0.335881 0.634689
O O16 0.000000 0.280985 0.720916
O O17 0.231702 0.637877 0.500000
#
# Coordination Sequence:
#
# PCOD8272065 Si02
#       7
#     8  16   8   8   8  16  16
#     4   9  16  30  53  82 116 144 170 223 287 335
#     4   9  18  34  56  85 117 145 181 227 280 334
#     4  10  20  35  59  87 115 152 191 226 264 320
#     4   9  18  34  54  80 108 137 175 226 284 336
#     4  11  19  31  54  82 110 143 180 229 289 340
#     4  11  24  40  57  79 110 149 192 239 285 334
#     4  11  22  36  56  80 110 145 188 236 284 340
#
# _framework density 18.808599000000001
#
# number of rings (size 3 to 8) (size 9 to 14) (size 15 to 20)
#    0.000    1.900    3.000    1.500    1.400    2.800 
#    0.000    2.000    0.000    0.000    0.000    0.700 
#    0.000    0.000    0.000    0.000    0.000    0.000 
#
# Total GULP energy -495706.741057 kJ/mol
# GULP energy per Si atom -12392.668526 kJ/mol
# Density = 1.876579 g / cm^3
# Si number density = 18.808599 Si / 1000 Ang^3
#
#
#
# Elastic Constant Matrix: (Units=GPa)
#
#
# Indices 1 2 3 4 5 6 
#
# 1 69.2670 42.7514 25.5946 0.0000 0.0000 0.0000
# 2 42.7514 138.2057 58.2937 0.0000 0.0000 0.0000
# 3 25.5946 58.2937 119.2797 0.0000 0.0000 0.0000
# 4 0.0000 0.0000 0.0000 -86.5743 0.0000 0.0000
# 5 0.0000 0.0000 0.0000 0.0000 14.1579 0.0000
# 6 0.0000 0.0000 0.0000 0.0000 0.0000 37.0827
#
#
#
# Elastic Compliance Matrix: (Units=1/GPa)
#
#
# Indices 1 2 3 4 5 6 
#
# 1 0.018038 -0.004972 -0.001441 0.000000 0.000000 0.000000
# 2 -0.004972 0.010485 -0.004057 0.000000 0.000000 0.000000
# 3 -0.001441 -0.004057 0.010676 0.000000 0.000000 0.000000
# 4 0.000000 0.000000 0.000000 -0.011551 0.000000 0.000000
# 5 0.000000 0.000000 0.000000 0.000000 0.070632 0.000000
# 6 0.000000 0.000000 0.000000 0.000000 0.000000 0.026967
#
#
# Mechanical properties :
#
#
# Convention : Reuss Voigt Hill
#
# Bulk Modulus (GPa) = 54.76859 64.44800 59.60830
# Shear Modulus (GPa) = 32.83593 6.27413 19.55503
#
# Velocity S-wave (km/s) = 4.18280 1.82839 3.22791
# Velocity P-wave (km/s) = 7.24637 6.22872 6.75673
#
# Compressibility (1/GPa) = 0.01825864
#
# Stress axis : x y z
#
# Youngs Moduli (GPa) = 55.43869 95.37512 93.67156
#
# Poissons Ratio (x) = 0.47421 0.13494
# Poissons Ratio (y) = 0.27565 0.38005
# Poissons Ratio (z) = 0.07986 0.38696
#
# Static dielectric constant tensor:
#      x y z
#    x 3.446940 0.000000 0.000000 
#    y 0.000000 3.541650 0.000000 
#    z 0.000000 0.000000 1.421820 
# 
# 
# High freq. dielectric constant tensor:
#      x y z
#    x 1.702220 0.000000 0.000000 
#    y 0.000000 1.730830 0.000000 
#    z 0.000000 0.000000 1.728190 
# 
# From -- ./inp_files/51402.got.cif
#   From: 2010.03.12/outbox.cif.g09.slc.cpg/sg65_26_cif.got.tgz:51402.got - 2010.04.10 20:52:16.
