data_PCOD8272878
_publ_section_title
;
Structure prediction by ZEFSAII (Michael W. Deem and Ramdas Pophale) SiO2 
 PCOD8272878
Probable space group: C M M M
;
_chemical_formula_sum "Si O2"
_cell_formula_units_Z 80
_cell_length_a 8.847990
_cell_length_b 28.978524
_cell_length_c 18.095275
_cell_angle_alpha 90.000000
_cell_angle_beta 90.000000
_cell_angle_gamma 90.000000
_cell_volume 4639.659101
_symmetry_space_group_name_H-M "C M M M"
_symmetry_group_IT_number 65
_symmetry_cell_setting 'orthorhombic'
loop_
_space_group_symop_operation_xyz
x,y,z
-x,-y,z
x,-y,-z
-x,y,-z
-x,-y,-z
x,y,-z
-x,y,z
x,-y,z
1/2+x,1/2+y,z
1/2-x,1/2-y,z
1/2+x,1/2-y,-z
1/2-x,1/2+y,-z
1/2-x,1/2-y,-z
1/2+x,1/2+y,-z
1/2-x,1/2+y,z
1/2+x,1/2-y,z
loop_
_atom_site_type_symbol
_atom_site_label
_atom_site_fract_x
_atom_site_fract_y
_atom_site_fract_z
Si Si1 0.331583 0.445603 0.000000
Si Si2 0.677038 0.201572 0.914371
Si Si3 0.824052 0.798935 0.500000
Si Si4 0.678087 0.300045 0.659532
Si Si5 0.679420 0.638254 0.794200
Si Si6 0.321642 0.052813 0.849167
O O1 0.239111 0.429994 0.071658
O O2 0.346471 0.500000 0.000000
O O3 0.500000 0.423400 0.000000
O O4 0.500000 0.203749 0.897090
O O5 0.750000 0.250000 0.890840
O O6 0.754420 0.161683 0.867319
O O7 0.709604 0.190648 0.000000
O O8 0.750000 0.750000 0.500000
O O9 0.778638 0.822571 0.421447
O O10 0.000000 0.790334 0.500000
O O11 0.500000 0.293499 0.667382
O O12 0.750000 0.250000 0.671443
O O13 0.738278 0.334853 0.721751
O O14 0.500000 0.636685 0.798650
O O15 0.744599 0.586134 0.788601
O O16 0.500000 0.058965 0.848371
O O17 0.275161 0.000000 0.831886
#
# Coordination Sequence:
#
# PCOD8272878 Si02
#       6
#     8  16   8  16  16  16
#     4   9  17  31  51  71  90 115 150 197 249 295
#     4  10  21  36  51  67  92 128 168 206 243 284
#     4   8  14  28  48  70  99 130 159 191 234 285
#     4   9  18  31  49  74 102 132 162 196 237 286
#     4  11  22  33  49  73  99 128 164 203 248 294
#     4  10  21  36  52  70  94 125 162 205 253 300
#
# _framework density 17.242646000000001
#
# number of rings (size 3 to 8) (size 9 to 14) (size 15 to 20)
#    0.000    2.300    0.000    2.700    1.400    6.800 
#    0.000    0.000    0.000    0.000    0.000    0.700 
#    0.000    5.600    0.000    0.000    0.000    0.000 
#
# Total GULP energy -495784.973809 kJ/mol
# GULP energy per Si atom -12394.624345 kJ/mol
# Density = 1.720340 g / cm^3
# Si number density = 17.242646 Si / 1000 Ang^3
#
#
#
# Elastic Constant Matrix: (Units=GPa)
#
#
# Indices 1 2 3 4 5 6 
#
# 1 68.2580 39.3953 38.6835 0.0000 0.0000 0.0000
# 2 39.3953 102.0008 67.0930 0.0000 0.0000 0.0000
# 3 38.6835 67.0930 111.3087 0.0000 0.0000 0.0000
# 4 0.0000 0.0000 0.0000 16.6678 0.0000 0.0000
# 5 0.0000 0.0000 0.0000 0.0000 16.6905 0.0000
# 6 0.0000 0.0000 0.0000 0.0000 0.0000 28.6389
#
#
#
# Elastic Compliance Matrix: (Units=1/GPa)
#
#
# Indices 1 2 3 4 5 6 
#
# 1 0.019757 -0.005160 -0.003756 0.000000 0.000000 0.000000
# 2 -0.005160 0.017592 -0.008811 0.000000 0.000000 0.000000
# 3 -0.003756 -0.008811 0.015600 0.000000 0.000000 0.000000
# 4 0.000000 0.000000 0.000000 0.059996 0.000000 0.000000
# 5 0.000000 0.000000 0.000000 0.000000 0.059914 0.000000
# 6 0.000000 0.000000 0.000000 0.000000 0.000000 0.034918
#
#
# Mechanical properties :
#
#
# Convention : Reuss Voigt Hill
#
# Bulk Modulus (GPa) = 57.15605 63.54567 60.35086
# Shear Modulus (GPa) = 20.07530 21.49249 20.78390
#
# Velocity S-wave (km/s) = 3.41586 3.53437 3.47562
# Velocity P-wave (km/s) = 6.98409 7.32049 7.15426
#
# Compressibility (1/GPa) = 0.01749596
#
# Stress axis : x y z
#
# Youngs Moduli (GPa) = 50.61486 56.84339 64.10234
#
# Poissons Ratio (x) = 0.29332 0.24076
# Poissons Ratio (y) = 0.26118 0.56478
# Poissons Ratio (z) = 0.19010 0.50083
#
# Static dielectric constant tensor:
#      x y z
#    x 3.348950 0.000000 0.000000 
#    y 0.000000 3.183930 0.000000 
#    z 0.000000 0.000000 3.667010 
# 
# 
# High freq. dielectric constant tensor:
#      x y z
#    x 1.677330 0.000000 0.000000 
#    y 0.000000 1.645950 0.000000 
#    z 0.000000 0.000000 1.654670 
# 
# From -- ./inp_files/50215.got.cif
#   From: 2010.03.12/outbox.cif.g09.slc.cpg/sg65_26_cif.got.tgz:50215.got - 2010.04.10 20:52:16.
