data_PCOD8272926
_publ_section_title
;
Structure prediction by ZEFSAII (Michael W. Deem and Ramdas Pophale) SiO2 
 PCOD8272926
Probable space group: C M M M
;
_chemical_formula_sum "Si O2"
_cell_formula_units_Z 104
_cell_length_a 17.367760
_cell_length_b 14.036190
_cell_length_c 23.246408
_cell_angle_alpha 90.000000
_cell_angle_beta 90.000000
_cell_angle_gamma 90.000000
_cell_volume 5666.943770
_symmetry_space_group_name_H-M "C M M M"
_symmetry_group_IT_number 65
_symmetry_cell_setting 'orthorhombic'
loop_
_space_group_symop_operation_xyz
x,y,z
-x,-y,z
x,-y,-z
-x,y,-z
-x,-y,-z
x,y,-z
-x,y,z
x,-y,z
1/2+x,1/2+y,z
1/2-x,1/2-y,z
1/2+x,1/2-y,-z
1/2-x,1/2+y,-z
1/2-x,1/2-y,-z
1/2+x,1/2+y,-z
1/2-x,1/2+y,z
1/2+x,1/2-y,z
loop_
_atom_site_type_symbol
_atom_site_label
_atom_site_fract_x
_atom_site_fract_y
_atom_site_fract_z
Si Si1 0.407936 0.393496 0.876663
Si Si2 0.089338 0.194980 0.436359
Si Si3 0.315443 0.892289 0.719517
Si Si4 0.912356 0.237020 0.773119
Si Si5 0.915797 0.886991 0.000000
Si Si6 0.853724 0.888628 0.321861
Si Si7 0.912071 0.604054 0.605721
O O1 0.500000 0.395403 0.879780
O O2 0.377590 0.500000 0.862001
O O3 0.379659 0.322617 0.827133
O O4 0.374459 0.358630 0.939388
O O5 0.112175 0.157283 0.500000
O O6 0.140907 0.142271 0.388702
O O7 0.104408 0.309216 0.437565
O O8 0.000000 0.172662 0.423497
O O9 0.354206 0.825794 0.767644
O O10 0.229047 0.861262 0.704187
O O11 0.362858 0.879083 0.661884
O O12 0.317956 0.000000 0.742760
O O13 0.914130 0.170632 0.716152
O O14 0.000000 0.272206 0.783394
O O15 0.000000 0.838668 0.000000
O O16 0.925159 0.000000 0.000000
O O17 0.871703 0.000000 0.317228
O O18 0.892639 0.500000 0.577550
O O19 0.000000 0.606048 0.626184
#
# Coordination Sequence:
#
# PCOD8272926 Si02
#       7
#    16  16  16  16   8  16  16
#     4   8  14  24  41  71 107 140 172 206 249 300
#     4  10  21  36  55  79 102 128 164 205 256 313
#     4  10  21  36  53  72  97 130 168 210 254 299
#     4  11  20  31  52  79 104 131 167 210 254 300
#     4   7  10  20  38  62 102 145 171 201 247 294
#     4  11  23  37  52  72 101 135 167 202 249 305
#     4   9  17  32  54  76  97 124 161 205 251 297
#
# _framework density 18.352043999999999
#
# number of rings (size 3 to 8) (size 9 to 14) (size 15 to 20)
#    0.000    2.385    1.538    2.769    0.000    3.385 
#    0.000    3.846    0.000    2.769    0.000    2.692 
#    0.000    5.538    0.000    0.000    0.000    0.000 
#
# Total GULP energy -644396.222267 kJ/mol
# GULP energy per Si atom -12392.235044 kJ/mol
# Density = 1.831027 g / cm^3
# Si number density = 18.352044 Si / 1000 Ang^3
#
#
#
# Elastic Constant Matrix: (Units=GPa)
#
#
# Indices 1 2 3 4 5 6 
#
# 1 51.9057 32.0936 26.5196 0.0000 0.0000 0.0000
# 2 32.0936 86.4073 46.3811 0.0000 0.0000 0.0000
# 3 26.5196 46.3811 121.8550 0.0000 0.0000 0.0000
# 4 0.0000 0.0000 0.0000 25.1758 0.0000 0.0000
# 5 0.0000 0.0000 0.0000 0.0000 7.0074 0.0000
# 6 0.0000 0.0000 0.0000 0.0000 0.0000 22.5939
#
#
#
# Elastic Compliance Matrix: (Units=1/GPa)
#
#
# Indices 1 2 3 4 5 6 
#
# 1 0.025579 -0.008185 -0.002452 0.000000 0.000000 0.000000
# 2 -0.008185 0.017164 -0.004752 0.000000 0.000000 0.000000
# 3 -0.002452 -0.004752 0.010549 0.000000 0.000000 0.000000
# 4 0.000000 0.000000 0.000000 0.039721 0.000000 0.000000
# 5 0.000000 0.000000 0.000000 0.000000 0.142707 0.000000
# 6 0.000000 0.000000 0.000000 0.000000 0.000000 0.044260
#
#
# Mechanical properties :
#
#
# Convention : Reuss Voigt Hill
#
# Bulk Modulus (GPa) = 44.41395 52.23961 48.32678
# Shear Modulus (GPa) = 15.71047 21.30032 18.50539
#
# Velocity S-wave (km/s) = 2.92903 3.41053 3.17891
# Velocity P-wave (km/s) = 5.97432 6.63596 6.31382
#
# Compressibility (1/GPa) = 0.02251545
#
# Stress axis : x y z
#
# Youngs Moduli (GPa) = 39.09480 58.26281 94.79927
#
# Poissons Ratio (x) = 0.47686 0.23240
# Poissons Ratio (y) = 0.31998 0.45045
# Poissons Ratio (z) = 0.09584 0.27685
#
# Static dielectric constant tensor:
#      x y z
#    x 3.173200 0.000000 0.000000 
#    y 0.000000 3.506950 0.000000 
#    z 0.000000 0.000000 3.565630 
# 
# 
# High freq. dielectric constant tensor:
#      x y z
#    x 1.682090 0.000000 0.000000 
#    y 0.000000 1.706660 0.000000 
#    z 0.000000 0.000000 1.698250 
# 
# From -- ./inp_files/70552.got.cif
#   From: 2010.03.12/outbox.cif.g09.slc.cpg/sg65_36_cif.got.tgz:70552.got - 2010.04.10 20:52:16.
