data_PCOD8272435
_publ_section_title
;
Structure prediction by ZEFSAII (Michael W. Deem and Ramdas Pophale) SiO2 
 PCOD8272435
Probable space group: C M M M
;
_chemical_formula_sum "Si O2"
_cell_formula_units_Z 72
_cell_length_a 8.817070
_cell_length_b 15.435017
_cell_length_c 27.615341
_cell_angle_alpha 90.000000
_cell_angle_beta 90.000000
_cell_angle_gamma 90.000000
_cell_volume 3758.216641
_symmetry_space_group_name_H-M "C M M M"
_symmetry_group_IT_number 65
_symmetry_cell_setting 'orthorhombic'
loop_
_space_group_symop_operation_xyz
x,y,z
-x,-y,z
x,-y,-z
-x,y,-z
-x,-y,-z
x,y,-z
-x,y,z
x,-y,z
1/2+x,1/2+y,z
1/2-x,1/2-y,z
1/2+x,1/2-y,-z
1/2-x,1/2+y,-z
1/2-x,1/2-y,-z
1/2+x,1/2+y,-z
1/2-x,1/2+y,z
1/2+x,1/2-y,z
loop_
_atom_site_type_symbol
_atom_site_label
_atom_site_fract_x
_atom_site_fract_y
_atom_site_fract_z
Si Si1 0.177876 0.661543 0.220031
Si Si2 0.826283 0.000000 0.942775
Si Si3 0.823418 0.659367 0.443598
Si Si4 0.820432 0.659907 0.109702
Si Si5 0.179310 0.000000 0.388495
Si Si6 0.179695 0.500000 0.715902
O O1 0.250000 0.750000 0.239879
O O2 0.229660 0.642096 0.165114
O O3 0.231855 0.583526 0.253856
O O4 0.000000 0.673054 0.222340
O O5 0.743511 0.915444 0.923342
O O6 0.000000 0.000000 0.925432
O O7 0.812891 0.000000 0.000000
O O8 0.796185 0.640647 0.500000
O O9 0.750000 0.750000 0.428022
O O10 0.743904 0.584782 0.413715
O O11 0.000000 0.661679 0.430571
O O12 0.750000 0.750000 0.091342
O O13 0.000000 0.663719 0.104178
O O14 0.227657 0.000000 0.333141
O O15 0.000000 0.000000 0.393328
O O16 0.000000 0.500000 0.705757
#
# Coordination Sequence:
#
# PCOD8272435 Si02
#       6
#    16   8  16  16   8   8
#     4   9  19  36  59  84 109 141 182 229 278 330
#     4  11  24  39  55  80 114 151 190 231 278 332
#     4  10  21  39  63  88 113 145 187 234 283 334
#     4  10  20  37  61  87 113 144 185 231 281 334
#     4  12  25  38  55  83 118 155 192 229 276 333
#     4  10  21  38  56  77 112 152 186 226 278 331
#
# _framework density 19.158024000000001
#
# number of rings (size 3 to 8) (size 9 to 14) (size 15 to 20)
#    0.000    1.889    0.000    3.667    0.000    8.444 
#    0.000    3.333    0.000    0.000    0.000    0.000 
#    0.000    0.000    0.000    0.000    0.000    0.000 
#
# Total GULP energy -446559.579947 kJ/mol
# GULP energy per Si atom -12404.432776 kJ/mol
# Density = 1.911442 g / cm^3
# Si number density = 19.158024 Si / 1000 Ang^3
#
#
#
# Elastic Constant Matrix: (Units=GPa)
#
#
# Indices 1 2 3 4 5 6 
#
# 1 106.5887 76.8730 56.5383 0.0000 0.0000 0.0000
# 2 76.8730 189.0937 84.2587 0.0000 0.0000 0.0000
# 3 56.5383 84.2587 89.7835 0.0000 0.0000 0.0000
# 4 0.0000 0.0000 0.0000 -19.6348 0.0000 0.0000
# 5 0.0000 0.0000 0.0000 0.0000 29.2023 0.0000
# 6 0.0000 0.0000 0.0000 0.0000 0.0000 39.1073
#
#
#
# Elastic Compliance Matrix: (Units=1/GPa)
#
#
# Indices 1 2 3 4 5 6 
#
# 1 0.015190 -0.003288 -0.006480 0.000000 0.000000 0.000000
# 2 -0.003288 0.009801 -0.007127 0.000000 0.000000 0.000000
# 3 -0.006480 -0.007127 0.021907 0.000000 0.000000 0.000000
# 4 0.000000 0.000000 0.000000 -0.050930 0.000000 0.000000
# 5 0.000000 0.000000 0.000000 0.000000 0.034244 0.000000
# 6 0.000000 0.000000 0.000000 0.000000 0.000000 0.025571
#
#
# Mechanical properties :
#
#
# Convention : Reuss Voigt Hill
#
# Bulk Modulus (GPa) = 76.28978 91.20064 83.74521
# Shear Modulus (GPa) = 53.22363 20.92135 37.07249
#
# Velocity S-wave (km/s) = 5.27652 3.30819 4.40374
# Velocity P-wave (km/s) = 8.77668 7.89303 8.34655
#
# Compressibility (1/GPa) = 0.01310791
#
# Stress axis : x y z
#
# Youngs Moduli (GPa) = 65.83105 102.03102 45.64699
#
# Poissons Ratio (x) = 0.33547 0.29579
# Poissons Ratio (y) = 0.21645 0.32534
# Poissons Ratio (z) = 0.42659 0.72721
#
# Static dielectric constant tensor:
#      x y z
#    x 3.582900 0.000000 0.000000 
#    y 0.000000 3.712230 0.000000 
#    z 0.000000 0.000000 3.533110 
# 
# 
# High freq. dielectric constant tensor:
#      x y z
#    x 1.752990 0.000000 0.000000 
#    y 0.000000 1.763120 0.000000 
#    z 0.000000 0.000000 1.741270 
# 
# From -- ./inp_files/72588.got.cif
#   From: 2010.03.12/outbox.cif.g09.slc.cpg/sg65_37_cif.got.tgz:72588.got - 2010.04.10 20:52:16.
