data_PCOD8272322
_publ_section_title
;
Structure prediction by ZEFSAII (Michael W. Deem and Ramdas Pophale) SiO2 
 PCOD8272322
Probable space group: C M M M
;
_chemical_formula_sum "Si O2"
_cell_formula_units_Z 96
_cell_length_a 23.746798
_cell_length_b 17.844182
_cell_length_c 12.430372
_cell_angle_alpha 90.000000
_cell_angle_beta 90.000000
_cell_angle_gamma 90.000000
_cell_volume 5267.272997
_symmetry_space_group_name_H-M "C M M M"
_symmetry_group_IT_number 65
_symmetry_cell_setting 'orthorhombic'
loop_
_space_group_symop_operation_xyz
x,y,z
-x,-y,z
x,-y,-z
-x,y,-z
-x,-y,-z
x,y,-z
-x,y,z
x,-y,z
1/2+x,1/2+y,z
1/2-x,1/2-y,z
1/2+x,1/2-y,-z
1/2-x,1/2+y,-z
1/2-x,1/2-y,-z
1/2+x,1/2+y,-z
1/2-x,1/2+y,z
1/2+x,1/2-y,z
loop_
_atom_site_type_symbol
_atom_site_label
_atom_site_fract_x
_atom_site_fract_y
_atom_site_fract_z
Si Si1 0.354068 0.319337 0.127503
Si Si2 0.865936 0.651907 0.194247
Si Si3 0.938497 0.088598 0.500000
Si Si4 0.935416 0.585912 0.375855
Si Si5 0.066985 0.914382 0.267435
Si Si6 0.746109 0.085606 0.876130
Si Si7 0.566676 0.085999 0.000000
O O1 0.349451 0.237685 0.177976
O O2 0.407595 0.361860 0.176041
O O3 0.297590 0.362769 0.160869
O O4 0.361947 0.315409 0.000000
O O5 0.894985 0.640651 0.309467
O O6 0.808953 0.603603 0.193046
O O7 0.910133 0.626116 0.105080
O O8 0.908614 0.110344 0.386431
O O9 0.000000 0.126859 0.500000
O O10 0.946655 0.000000 0.500000
O O11 0.919318 0.595443 0.500000
O O12 0.926450 0.500000 0.338832
O O13 0.000000 0.609190 0.356045
O O14 0.000000 0.905004 0.266247
O O15 0.083863 0.000000 0.242049
O O16 0.764331 0.000000 0.857786
O O17 0.730497 0.101673 0.000000
O O18 0.500000 0.093313 0.000000
O O19 0.586590 0.000000 0.000000
#
# Coordination Sequence:
#
# PCOD8272322 Si02
#       7
#    16  16   8  16  16  16   8
#     4  11  23  37  51  80 118 153 180 227 282 334
#     4  12  21  36  57  82 113 148 181 228 282 335
#     4   7  12  28  54  78  97 128 181 237 275 310
#     4   9  19  37  60  84 111 146 188 230 274 332
#     4   9  18  34  56  79 106 145 191 233 276 329
#     4  10  20  36  60  82 105 144 196 235 269 326
#     4  11  22  34  53  84 115 143 181 228 274 322
#
# _framework density 18.225749
#
# number of rings (size 3 to 8) (size 9 to 14) (size 15 to 20)
#    0.000    2.000    1.667    4.500    0.000    5.333 
#    1.500    0.833    1.833    1.000    0.000    0.000 
#    0.000    0.000    0.000    0.000    0.000    0.000 
#
# Total GULP energy -595163.455783 kJ/mol
# GULP energy per Si atom -12399.238662 kJ/mol
# Density = 1.818427 g / cm^3
# Si number density = 18.225749 Si / 1000 Ang^3
#
#
#
# Elastic Constant Matrix: (Units=GPa)
#
#
# Indices 1 2 3 4 5 6 
#
# 1 79.0353 45.3443 45.4666 0.0000 0.0000 0.0000
# 2 45.3443 101.4252 39.9627 0.0000 0.0000 0.0000
# 3 45.4666 39.9627 87.5026 0.0000 0.0000 0.0000
# 4 0.0000 0.0000 0.0000 27.0879 0.0000 0.0000
# 5 0.0000 0.0000 0.0000 0.0000 23.9440 0.0000
# 6 0.0000 0.0000 0.0000 0.0000 0.0000 19.3882
#
#
#
# Elastic Compliance Matrix: (Units=1/GPa)
#
#
# Indices 1 2 3 4 5 6 
#
# 1 0.020770 -0.006138 -0.007989 0.000000 0.000000 0.000000
# 2 -0.006138 0.013837 -0.003130 0.000000 0.000000 0.000000
# 3 -0.007989 -0.003130 0.017009 0.000000 0.000000 0.000000
# 4 0.000000 0.000000 0.000000 0.036917 0.000000 0.000000
# 5 0.000000 0.000000 0.000000 0.000000 0.041764 0.000000
# 6 0.000000 0.000000 0.000000 0.000000 0.000000 0.051578
#
#
# Mechanical properties :
#
#
# Convention : Reuss Voigt Hill
#
# Bulk Modulus (GPa) = 58.47341 58.83450 58.65396
# Shear Modulus (GPa) = 22.51357 23.22998 22.87178
#
# Velocity S-wave (km/s) = 3.51844 3.57398 3.54632
# Velocity P-wave (km/s) = 6.97556 7.02725 7.00145
#
# Compressibility (1/GPa) = 0.01710179
#
# Stress axis : x y z
#
# Youngs Moduli (GPa) = 48.14699 72.27080 58.79324
#
# Poissons Ratio (x) = 0.44359 0.46969
# Poissons Ratio (y) = 0.29552 0.18403
# Poissons Ratio (z) = 0.38464 0.22621
#
# Static dielectric constant tensor:
#      x y z
#    x 3.226180 0.000000 0.000000 
#    y 0.000000 3.352100 0.000000 
#    z 0.000000 0.000000 3.567150 
# 
# 
# High freq. dielectric constant tensor:
#      x y z
#    x 1.696610 0.000000 0.000000 
#    y 0.000000 1.703530 0.000000 
#    z 0.000000 0.000000 1.700780 
# 
# From -- ./inp_files/27148.got.cif
#   From: 2010.03.12/outbox.cif.g09.slc.cpg/sg65_14_cif.got.tgz:27148.got - 2010.04.10 20:52:16.
