data_PCOD8272371
_publ_section_title
;
Structure prediction by ZEFSAII (Michael W. Deem and Ramdas Pophale) SiO2 
 PCOD8272371
Probable space group: C M M M
;
_chemical_formula_sum "Si O2"
_cell_formula_units_Z 64
_cell_length_a 7.442236
_cell_length_b 29.829065
_cell_length_c 14.317659
_cell_angle_alpha 90.000000
_cell_angle_beta 90.000000
_cell_angle_gamma 90.000000
_cell_volume 3178.447871
_symmetry_space_group_name_H-M "C M M M"
_symmetry_group_IT_number 65
_symmetry_cell_setting 'orthorhombic'
loop_
_space_group_symop_operation_xyz
x,y,z
-x,-y,z
x,-y,-z
-x,y,-z
-x,-y,-z
x,y,-z
-x,y,z
x,-y,z
1/2+x,1/2+y,z
1/2-x,1/2-y,z
1/2+x,1/2-y,-z
1/2-x,1/2+y,-z
1/2-x,1/2-y,-z
1/2+x,1/2+y,-z
1/2-x,1/2+y,z
1/2+x,1/2-y,z
loop_
_atom_site_type_symbol
_atom_site_label
_atom_site_fract_x
_atom_site_fract_y
_atom_site_fract_z
Si Si1 0.500000 0.086491 0.896728
Si Si2 0.288519 0.387018 0.608879
Si Si3 0.707348 0.700595 0.709134
Si Si4 0.000000 0.448978 0.699730
Si Si5 0.291557 0.338985 0.897393
O O1 0.500000 0.050943 0.812969
O O2 0.321040 0.115997 0.886092
O O3 0.500000 0.063434 0.000000
O O4 0.246515 0.389616 0.500000
O O5 0.500000 0.393664 0.629722
O O6 0.210828 0.338958 0.645378
O O7 0.180004 0.425821 0.661121
O O8 0.500000 0.692698 0.702746
O O9 0.750000 0.750000 0.670400
O O10 0.772272 0.695814 0.817094
O O11 0.000000 0.500000 0.665213
O O12 0.500000 0.352093 0.884768
O O13 0.256382 0.317344 0.000000
#
# Coordination Sequence:
#
# PCOD8272371 Si02
#       5
#     8  16  16   8  16
#     4  10  20  36  63  88 120 163 197 241 303 361
#     4  10  23  44  64  86 122 161 202 256 309 360
#     4  10  21  34  56  86 119 161 203 245 301 361
#     4  12  25  41  68  97 121 156 203 253 314 367
#     4   9  18  34  55  81 115 159 205 247 295 355
#
# _framework density 20.135614
#
# number of rings (size 3 to 8) (size 9 to 14) (size 15 to 20)
#    0.000    2.000    2.500    0.375    3.500    2.750 
#    0.000    1.250    0.000    0.000    0.000    5.250 
#    0.000    0.000    0.000    0.000    0.000    0.000 
#
# Total GULP energy -396571.240283 kJ/mol
# GULP energy per Si atom -12392.851259 kJ/mol
# Density = 2.008978 g / cm^3
# Si number density = 20.135614 Si / 1000 Ang^3
#
#
#
# Elastic Constant Matrix: (Units=GPa)
#
#
# Indices 1 2 3 4 5 6 
#
# 1 67.1960 29.1349 39.7987 0.0000 0.0000 0.0000
# 2 29.1349 139.5094 65.8863 0.0000 0.0000 0.0000
# 3 39.7987 65.8863 136.0887 0.0000 0.0000 0.0000
# 4 0.0000 0.0000 0.0000 13.4764 0.0000 0.0000
# 5 0.0000 0.0000 0.0000 0.0000 23.2191 0.0000
# 6 0.0000 0.0000 0.0000 0.0000 0.0000 20.4986
#
#
#
# Elastic Compliance Matrix: (Units=1/GPa)
#
#
# Indices 1 2 3 4 5 6 
#
# 1 0.018297 -0.001678 -0.004539 0.000000 0.000000 0.000000
# 2 -0.001678 0.009447 -0.004083 0.000000 0.000000 0.000000
# 3 -0.004539 -0.004083 0.010652 0.000000 0.000000 0.000000
# 4 0.000000 0.000000 0.000000 0.074204 0.000000 0.000000
# 5 0.000000 0.000000 0.000000 0.000000 0.043068 0.000000
# 6 0.000000 0.000000 0.000000 0.000000 0.000000 0.048784
#
#
# Mechanical properties :
#
#
# Convention : Reuss Voigt Hill
#
# Bulk Modulus (GPa) = 56.18745 68.04822 62.11784
# Shear Modulus (GPa) = 21.64664 25.30378 23.47521
#
# Velocity S-wave (km/s) = 3.28234 3.54880 3.41817
# Velocity P-wave (km/s) = 6.50616 7.11760 6.81874
#
# Compressibility (1/GPa) = 0.01779757
#
# Stress axis : x y z
#
# Youngs Moduli (GPa) = 54.65238 105.85874 93.87745
#
# Poissons Ratio (x) = 0.17760 0.42609
# Poissons Ratio (y) = 0.09169 0.38329
# Poissons Ratio (z) = 0.24806 0.43221
#
# Static dielectric constant tensor:
#      x y z
#    x 3.703720 0.000000 0.000000 
#    y 0.000000 1.595690 0.000000 
#    z 0.000000 0.000000 4.158820 
# 
# 
# High freq. dielectric constant tensor:
#      x y z
#    x 1.794050 0.000000 0.000000 
#    y 0.000000 1.747920 0.000000 
#    z 0.000000 0.000000 1.802770 
# 
# From -- ./inp_files/36404.got.cif
#   From: 2010.03.12/outbox.cif.g09.slc.cpg/sg65_19_cif.got.tgz:36404.got - 2010.04.10 20:52:16.
