data_PCOD8272844
_publ_section_title
;
Structure prediction by ZEFSAII (Michael W. Deem and Ramdas Pophale) SiO2 
 PCOD8272844
Probable space group: C M M M
;
_chemical_formula_sum "Si O2"
_cell_formula_units_Z 72
_cell_length_a 18.644165
_cell_length_b 7.875323
_cell_length_c 24.713374
_cell_angle_alpha 90.000000
_cell_angle_beta 90.000000
_cell_angle_gamma 90.000000
_cell_volume 3628.635578
_symmetry_space_group_name_H-M "C M M M"
_symmetry_group_IT_number 65
_symmetry_cell_setting 'orthorhombic'
loop_
_space_group_symop_operation_xyz
x,y,z
-x,-y,z
x,-y,-z
-x,y,-z
-x,-y,-z
x,y,-z
-x,y,z
x,-y,z
1/2+x,1/2+y,z
1/2-x,1/2-y,z
1/2+x,1/2-y,-z
1/2-x,1/2+y,-z
1/2-x,1/2-y,-z
1/2+x,1/2+y,-z
1/2-x,1/2+y,z
1/2+x,1/2-y,z
loop_
_atom_site_type_symbol
_atom_site_label
_atom_site_fract_x
_atom_site_fract_y
_atom_site_fract_z
Si Si1 0.920852 0.803046 0.158006
Si Si2 0.084239 0.804279 0.363500
Si Si3 0.671744 0.199344 0.939107
Si Si4 0.084807 0.500000 0.439829
Si Si5 0.331988 0.301183 0.743026
O O1 0.887978 0.780748 0.098703
O O2 0.870303 0.718002 0.204201
O O3 0.000000 0.718452 0.159643
O O4 0.928729 0.000000 0.170600
O O5 0.109479 0.673892 0.410211
O O6 0.126274 0.742437 0.310444
O O7 0.000000 0.787063 0.351408
O O8 0.102915 0.000000 0.379814
O O9 0.750000 0.250000 0.916987
O O10 0.662526 0.000000 0.937908
O O11 0.661372 0.270925 0.000000
O O12 0.118728 0.500000 0.500000
O O13 0.000000 0.500000 0.443691
O O14 0.337074 0.500000 0.748551
O O15 0.250000 0.250000 0.739551
#
# Coordination Sequence:
#
# PCOD8272844 Si02
#       5
#    16  16  16   8  16
#     4  10  21  37  56  79 110 143 179 226 277 332
#     4   9  18  34  55  80 112 148 184 228 278 328
#     4  10  21  37  56  78 106 141 182 228 274 327
#     4   9  18  32  54  86 116 144 184 230 274 325
#     4  10  21  35  54  80 107 142 179 223 273 328
#
# _framework density 19.842168000000001
#
# number of rings (size 3 to 8) (size 9 to 14) (size 15 to 20)
#    0.000    2.333    0.000    2.000    1.556    8.000 
#    0.000    4.444    0.000    0.667    0.000    0.000 
#    0.000    0.000    0.000    0.000    0.000    0.000 
#
# Total GULP energy -446317.711413 kJ/mol
# GULP energy per Si atom -12397.714206 kJ/mol
# Density = 1.979701 g / cm^3
# Si number density = 19.842168 Si / 1000 Ang^3
#
#
#
# Elastic Constant Matrix: (Units=GPa)
#
#
# Indices 1 2 3 4 5 6 
#
# 1 124.6445 25.5383 78.0398 0.0000 0.0000 0.0000
# 2 25.5383 57.7661 45.0055 0.0000 0.0000 0.0000
# 3 78.0398 45.0055 155.7156 0.0000 0.0000 0.0000
# 4 0.0000 0.0000 0.0000 25.3129 0.0000 0.0000
# 5 0.0000 0.0000 0.0000 0.0000 27.6224 0.0000
# 6 0.0000 0.0000 0.0000 0.0000 0.0000 23.3009
#
#
#
# Elastic Compliance Matrix: (Units=1/GPa)
#
#
# Indices 1 2 3 4 5 6 
#
# 1 0.011719 -0.000781 -0.005647 0.000000 0.000000 0.000000
# 2 -0.000781 0.022394 -0.006081 0.000000 0.000000 0.000000
# 3 -0.005647 -0.006081 0.011010 0.000000 0.000000 0.000000
# 4 0.000000 0.000000 0.000000 0.039506 0.000000 0.000000
# 5 0.000000 0.000000 0.000000 0.000000 0.036203 0.000000
# 6 0.000000 0.000000 0.000000 0.000000 0.000000 0.042917
#
#
# Mechanical properties :
#
#
# Convention : Reuss Voigt Hill
#
# Bulk Modulus (GPa) = 49.74148 70.58816 60.16482
# Shear Modulus (GPa) = 25.57973 27.88342 26.73158
#
# Velocity S-wave (km/s) = 3.59438 3.75275 3.67442
# Velocity P-wave (km/s) = 6.50762 7.37764 6.95624
#
# Compressibility (1/GPa) = 0.02010394
#
# Stress axis : x y z
#
# Youngs Moduli (GPa) = 85.33468 44.65441 90.82855
#
# Poissons Ratio (x) = 0.03487 0.51293
# Poissons Ratio (y) = 0.06665 0.55233
# Poissons Ratio (z) = 0.48191 0.27155
#
# Static dielectric constant tensor:
#      x y z
#    x 3.458220 0.000000 0.000000 
#    y 0.000000 3.558720 0.000000 
#    z 0.000000 0.000000 3.901760 
# 
# 
# High freq. dielectric constant tensor:
#      x y z
#    x 1.762630 0.000000 0.000000 
#    y 0.000000 1.768660 0.000000 
#    z 0.000000 0.000000 1.775030 
# 
# From -- ./inp_files/64342.got.cif
#   From: 2010.03.12/outbox.cif.g09.slc.cpg/sg65_33_cif.got.tgz:64342.got - 2010.04.10 20:52:16.
