data_PCOD8272854
_publ_section_title
;
Structure prediction by ZEFSAII (Michael W. Deem and Ramdas Pophale) SiO2 
 PCOD8272854
Probable space group: C M M M
;
_chemical_formula_sum "Si O2"
_cell_formula_units_Z 104
_cell_length_a 23.469964
_cell_length_b 25.573586
_cell_length_c 8.881736
_cell_angle_alpha 90.000000
_cell_angle_beta 90.000000
_cell_angle_gamma 90.000000
_cell_volume 5330.916914
_symmetry_space_group_name_H-M "C M M M"
_symmetry_group_IT_number 65
_symmetry_cell_setting 'orthorhombic'
loop_
_space_group_symop_operation_xyz
x,y,z
-x,-y,z
x,-y,-z
-x,y,-z
-x,-y,-z
x,y,-z
-x,y,z
x,-y,z
1/2+x,1/2+y,z
1/2-x,1/2-y,z
1/2+x,1/2-y,-z
1/2-x,1/2+y,-z
1/2-x,1/2-y,-z
1/2+x,1/2+y,-z
1/2-x,1/2+y,z
1/2+x,1/2-y,z
loop_
_atom_site_type_symbol
_atom_site_label
_atom_site_fract_x
_atom_site_fract_y
_atom_site_fract_z
Si Si1 0.218564 0.394038 0.833385
Si Si2 0.207398 0.792126 0.832170
Si Si3 0.000000 0.317659 0.678231
Si Si4 0.932928 0.500000 0.829626
Si Si5 0.681760 0.558270 0.673417
Si Si6 0.390632 0.343079 0.323624
Si Si7 0.602142 0.106893 0.321948
Si Si8 0.500000 0.297124 0.177948
O O1 0.259790 0.345603 0.845933
O O2 0.257286 0.438838 0.757480
O O3 0.164369 0.376775 0.735083
O O4 0.198836 0.412302 0.000000
O O5 0.250000 0.750000 0.760505
O O6 0.154353 0.797773 0.719599
O O7 0.186794 0.774439 0.000000
O O8 0.055789 0.350110 0.731155
O O9 0.000000 0.309541 0.500000
O O10 0.000000 0.260869 0.752875
O O11 0.910561 0.550565 0.745328
O O12 0.000000 0.500000 0.825366
O O13 0.909806 0.500000 0.000000
O O14 0.695401 0.569655 0.500000
O O15 0.656746 0.500000 0.699030
O O16 0.634206 0.600223 0.726875
O O17 0.404283 0.340332 0.500000
O O18 0.446830 0.331665 0.229895
O O19 0.601350 0.102214 0.500000
O O20 0.500000 0.291233 0.000000
#
# Coordination Sequence:
#
# PCOD8272854 Si02
#       8
#    16  16   8   8  16  16  16   8
#     4  10  21  35  54  84 120 153 192 238 286 346
#     4   9  19  36  57  83 116 154 193 236 290 349
#     4  10  24  43  61  85 114 152 202 252 298 349
#     4  11  23  39  59  81 109 147 193 244 295 348
#     4   9  19  38  63  89 118 155 195 240 297 357
#     4  10  21  39  62  89 119 152 197 248 296 353
#     4  11  23  40  60  82 113 152 197 245 296 349
#     4  12  26  42  64  88 120 161 197 241 302 359
#
# _framework density 19.508838000000001
#
# number of rings (size 3 to 8) (size 9 to 14) (size 15 to 20)
#    0.000    1.923    0.769    2.308    3.231    3.385 
#    0.000    0.385    0.000    2.308    0.000    0.000 
#    0.000    0.000    0.000    0.000    0.000    0.000 
#
# Total GULP energy -644728.635082 kJ/mol
# GULP energy per Si atom -12398.627598 kJ/mol
# Density = 1.946443 g / cm^3
# Si number density = 19.508838 Si / 1000 Ang^3
#
#
#
# Elastic Constant Matrix: (Units=GPa)
#
#
# Indices 1 2 3 4 5 6 
#
# 1 125.7246 49.5800 45.9488 0.0000 0.0000 0.0000
# 2 49.5800 85.3840 32.0473 0.0000 0.0000 0.0000
# 3 45.9488 32.0473 84.6297 0.0000 0.0000 0.0000
# 4 0.0000 0.0000 0.0000 24.8700 0.0000 0.0000
# 5 0.0000 0.0000 0.0000 0.0000 30.1940 0.0000
# 6 0.0000 0.0000 0.0000 0.0000 0.0000 15.6654
#
#
#
# Elastic Compliance Matrix: (Units=1/GPa)
#
#
# Indices 1 2 3 4 5 6 
#
# 1 0.011542 -0.005071 -0.004346 0.000000 0.000000 0.000000
# 2 -0.005071 0.015880 -0.003260 0.000000 0.000000 0.000000
# 3 -0.004346 -0.003260 0.015411 0.000000 0.000000 0.000000
# 4 0.000000 0.000000 0.000000 0.040209 0.000000 0.000000
# 5 0.000000 0.000000 0.000000 0.000000 0.033119 0.000000
# 6 0.000000 0.000000 0.000000 0.000000 0.000000 0.063835
#
#
# Mechanical properties :
#
#
# Convention : Reuss Voigt Hill
#
# Bulk Modulus (GPa) = 57.21587 61.21006 59.21297
# Shear Modulus (GPa) = 23.67688 25.35671 24.51679
#
# Velocity S-wave (km/s) = 3.48753 3.60912 3.54884
# Velocity P-wave (km/s) = 6.75344 6.98651 6.87096
#
# Compressibility (1/GPa) = 0.01747767
#
# Stress axis : x y z
#
# Youngs Moduli (GPa) = 86.63936 62.97254 64.89032
#
# Poissons Ratio (x) = 0.31932 0.28204
# Poissons Ratio (y) = 0.43933 0.21156
# Poissons Ratio (z) = 0.37657 0.20530
#
# Static dielectric constant tensor:
#      x y z
#    x 3.746890 0.000000 0.000000 
#    y 0.000000 3.635890 0.000000 
#    z 0.000000 0.000000 3.818160 
# 
# 
# High freq. dielectric constant tensor:
#      x y z
#    x 1.759070 0.000000 0.000000 
#    y 0.000000 1.760360 0.000000 
#    z 0.000000 0.000000 1.764310 
# 
# From -- ./inp_files/12460.got.cif
#   From: 2010.03.12/outbox.cif.g09.slc.cpg/sg65_7_cif.got.tgz:12460.got - 2010.04.10 20:52:16.
