data_PCOD8272742
_publ_section_title
;
Structure prediction by ZEFSAII (Michael W. Deem and Ramdas Pophale) SiO2 
 PCOD8272742
Probable space group: C M M M
;
_chemical_formula_sum "Si O2"
_cell_formula_units_Z 72
_cell_length_a 18.919420
_cell_length_b 9.357389
_cell_length_c 23.027811
_cell_angle_alpha 90.000000
_cell_angle_beta 90.000000
_cell_angle_gamma 90.000000
_cell_volume 4076.760128
_symmetry_space_group_name_H-M "C M M M"
_symmetry_group_IT_number 65
_symmetry_cell_setting 'orthorhombic'
loop_
_space_group_symop_operation_xyz
x,y,z
-x,-y,z
x,-y,-z
-x,y,-z
-x,-y,-z
x,y,-z
-x,y,z
x,-y,z
1/2+x,1/2+y,z
1/2-x,1/2-y,z
1/2+x,1/2-y,-z
1/2-x,1/2+y,-z
1/2-x,1/2-y,-z
1/2+x,1/2+y,-z
1/2-x,1/2+y,z
1/2+x,1/2-y,z
loop_
_atom_site_type_symbol
_atom_site_label
_atom_site_fract_x
_atom_site_fract_y
_atom_site_fract_z
Si Si1 0.418384 0.166387 0.390718
Si Si2 0.418150 0.834902 0.169121
Si Si3 0.415957 0.338547 0.278856
Si Si4 0.180568 0.333869 0.934654
Si Si5 0.676492 0.832646 0.500000
O O1 0.500000 0.202725 0.405682
O O2 0.389857 0.256238 0.336090
O O3 0.369789 0.211366 0.444466
O O4 0.410709 0.000000 0.375435
O O5 0.500000 0.802106 0.159667
O O6 0.386431 0.741292 0.221796
O O7 0.381323 0.789799 0.109180
O O8 0.404893 0.000000 0.184740
O O9 0.500000 0.335635 0.277225
O O10 0.386567 0.500000 0.279989
O O11 0.198533 0.500000 0.930239
O O12 0.250000 0.250000 0.915818
O O13 0.156563 0.292600 0.000000
O O14 0.750000 0.750000 0.500000
O O15 0.693183 0.000000 0.500000
#
# Coordination Sequence:
#
# PCOD8272742 Si02
#       5
#    16  16  16  16   8
#     4   9  17  32  54  75  95 124 163 199 231 276
#     4   9  17  30  49  72  97 125 157 194 237 283
#     4   9  17  29  47  73 101 125 153 194 241 283
#     4   9  18  32  49  69  94 125 160 197 237 282
#     4  10  21  35  51  73 101 130 158 194 240 284
#
# _framework density 17.661083999999999
#
# number of rings (size 3 to 8) (size 9 to 14) (size 15 to 20)
#    0.000    2.889    0.000    1.000    0.000    6.222 
#    0.000    3.333    0.000    3.333    0.000    6.222 
#    0.000    0.000    0.000    0.000    0.000    0.000 
#
# Total GULP energy -446392.159136 kJ/mol
# GULP energy per Si atom -12399.782198 kJ/mol
# Density = 1.762089 g / cm^3
# Si number density = 17.661084 Si / 1000 Ang^3
#
#
#
# Elastic Constant Matrix: (Units=GPa)
#
#
# Indices 1 2 3 4 5 6 
#
# 1 72.8750 44.8882 70.7341 0.0000 0.0000 0.0000
# 2 44.8882 80.7519 77.7262 0.0000 0.0000 0.0000
# 3 70.7341 77.7262 166.3622 0.0000 0.0000 0.0000
# 4 0.0000 0.0000 0.0000 24.5355 0.0000 0.0000
# 5 0.0000 0.0000 0.0000 0.0000 6.6426 0.0000
# 6 0.0000 0.0000 0.0000 0.0000 0.0000 25.1937
#
#
#
# Elastic Compliance Matrix: (Units=1/GPa)
#
#
# Indices 1 2 3 4 5 6 
#
# 1 0.025224 -0.006721 -0.007585 0.000000 0.000000 0.000000
# 2 -0.006721 0.024294 -0.008493 0.000000 0.000000 0.000000
# 3 -0.007585 -0.008493 0.013204 0.000000 0.000000 0.000000
# 4 0.000000 0.000000 0.000000 0.040757 0.000000 0.000000
# 5 0.000000 0.000000 0.000000 0.000000 0.150545 0.000000
# 6 0.000000 0.000000 0.000000 0.000000 0.000000 0.039692
#
#
# Mechanical properties :
#
#
# Convention : Reuss Voigt Hill
#
# Bulk Modulus (GPa) = 58.39432 78.52067 68.45750
# Shear Modulus (GPa) = 14.49185 19.71706 17.10446
#
# Velocity S-wave (km/s) = 2.86764 3.34490 3.11542
# Velocity P-wave (km/s) = 6.64079 7.71194 7.19632
#
# Compressibility (1/GPa) = 0.01712495
#
# Stress axis : x y z
#
# Youngs Moduli (GPa) = 39.64521 41.16180 75.73583
#
# Poissons Ratio (x) = 0.27665 0.57442
# Poissons Ratio (y) = 0.26645 0.64322
# Poissons Ratio (z) = 0.30069 0.34959
#
# Static dielectric constant tensor:
#      x y z
#    x 3.015770 0.000000 0.000000 
#    y 0.000000 3.321220 0.000000 
#    z 0.000000 0.000000 3.487110 
# 
# 
# High freq. dielectric constant tensor:
#      x y z
#    x 1.650870 0.000000 0.000000 
#    y 0.000000 1.680910 0.000000 
#    z 0.000000 0.000000 1.696400 
# 
# From -- ./inp_files/64319.got.cif
#   From: 2010.03.12/outbox.cif.g09.slc.cpg/sg65_33_cif.got.tgz:64319.got - 2010.04.10 20:52:16.
