data_PCOD8272973
_publ_section_title
;
Structure prediction by ZEFSAII (Michael W. Deem and Ramdas Pophale) SiO2 
 PCOD8272973
Probable space group: C M M M
;
_chemical_formula_sum "Si O2"
_cell_formula_units_Z 80
_cell_length_a 9.144624
_cell_length_b 18.225889
_cell_length_c 26.009118
_cell_angle_alpha 90.000000
_cell_angle_beta 90.000000
_cell_angle_gamma 90.000000
_cell_volume 4334.911138
_symmetry_space_group_name_H-M "C M M M"
_symmetry_group_IT_number 65
_symmetry_cell_setting 'orthorhombic'
loop_
_space_group_symop_operation_xyz
x,y,z
-x,-y,z
x,-y,-z
-x,y,-z
-x,-y,-z
x,y,-z
-x,y,z
x,-y,z
1/2+x,1/2+y,z
1/2-x,1/2-y,z
1/2+x,1/2-y,-z
1/2-x,1/2+y,-z
1/2-x,1/2-y,-z
1/2+x,1/2+y,-z
1/2-x,1/2+y,z
1/2+x,1/2-y,z
loop_
_atom_site_type_symbol
_atom_site_label
_atom_site_fract_x
_atom_site_fract_y
_atom_site_fract_z
Si Si1 0.830991 0.825474 0.500000
Si Si2 0.670679 0.672902 0.389131
Si Si3 0.170449 0.584194 0.100223
Si Si4 0.664934 0.412738 0.000000
Si Si5 0.172926 0.672196 0.201501
Si Si6 0.830117 0.914386 0.710084
O O1 0.750000 0.750000 0.500000
O O2 0.791247 0.864454 0.445362
O O3 0.000000 0.806658 0.500000
O O4 0.500000 0.690025 0.384963
O O5 0.750000 0.750000 0.380435
O O6 0.718244 0.615630 0.345627
O O7 0.214934 0.500000 0.111485
O O8 0.255386 0.616719 0.051044
O O9 0.216938 0.632184 0.148850
O O10 0.000000 0.590355 0.088037
O O11 0.672145 0.500000 0.000000
O O12 0.500000 0.383029 0.000000
O O13 0.250000 0.750000 0.203321
O O14 0.228790 0.623018 0.247931
O O15 0.000000 0.682523 0.206586
O O16 0.000000 0.897431 0.721756
O O17 0.797418 0.000000 0.710703
#
# Coordination Sequence:
#
# PCOD8272973 Si02
#       6
#     8  16  16   8  16  16
#     4   8  14  26  45  69  97 129 167 208 249 298
#     4   9  17  30  49  73 100 132 170 211 255 303
#     4   9  18  34  55  77 103 136 172 209 250 300
#     4   9  17  29  50  81 110 135 167 207 250 297
#     4  11  23  38  56  78 104 136 175 216 261 312
#     4  10  21  36  53  75 104 136 171 214 263 312
#
# _framework density 18.454819000000001
#
# number of rings (size 3 to 8) (size 9 to 14) (size 15 to 20)
#    0.000    2.500    0.000    2.100    0.000    6.400 
#    0.000    3.000    0.000    3.000    0.000    0.000 
#    0.000    9.600    0.000    0.000    0.000    0.000 
#
# Total GULP energy -495802.347947 kJ/mol
# GULP energy per Si atom -12395.058699 kJ/mol
# Density = 1.841282 g / cm^3
# Si number density = 18.454819 Si / 1000 Ang^3
#
#
#
# Elastic Constant Matrix: (Units=GPa)
#
#
# Indices 1 2 3 4 5 6 
#
# 1 62.6908 40.5465 69.8702 0.0000 0.0000 0.0000
# 2 40.5465 92.6790 72.8368 0.0000 0.0000 0.0000
# 3 69.8702 72.8368 196.0342 0.0000 0.0000 0.0000
# 4 0.0000 0.0000 0.0000 30.0796 0.0000 0.0000
# 5 0.0000 0.0000 0.0000 0.0000 30.1832 0.0000
# 6 0.0000 0.0000 0.0000 0.0000 0.0000 16.6073
#
#
#
# Elastic Compliance Matrix: (Units=1/GPa)
#
#
# Indices 1 2 3 4 5 6 
#
# 1 0.028947 -0.006435 -0.007927 0.000000 0.000000 0.000000
# 2 -0.006435 0.016671 -0.003900 0.000000 0.000000 0.000000
# 3 -0.007927 -0.003900 0.009376 0.000000 0.000000 0.000000
# 4 0.000000 0.000000 0.000000 0.033245 0.000000 0.000000
# 5 0.000000 0.000000 0.000000 0.000000 0.033131 0.000000
# 6 0.000000 0.000000 0.000000 0.000000 0.000000 0.060214
#
#
# Mechanical properties :
#
#
# Convention : Reuss Voigt Hill
#
# Bulk Modulus (GPa) = 54.14229 79.76788 66.95508
# Shear Modulus (GPa) = 22.29512 26.58407 24.43960
#
# Velocity S-wave (km/s) = 3.47953 3.79950 3.64303
# Velocity P-wave (km/s) = 6.74865 7.90983 7.35220
#
# Compressibility (1/GPa) = 0.01846985
#
# Stress axis : x y z
#
# Youngs Moduli (GPa) = 34.54532 59.98610 106.66063
#
# Poissons Ratio (x) = 0.38600 0.84545
# Poissons Ratio (y) = 0.22229 0.41602
# Poissons Ratio (z) = 0.27382 0.23397
#
# Static dielectric constant tensor:
#      x y z
#    x 3.385480 0.000000 0.000000 
#    y 0.000000 3.153980 0.000000 
#    z 0.000000 0.000000 3.967070 
# 
# 
# High freq. dielectric constant tensor:
#      x y z
#    x 1.715070 0.000000 0.000000 
#    y 0.000000 1.686510 0.000000 
#    z 0.000000 0.000000 1.741760 
# 
# From -- ./inp_files/70867.got.cif
#   From: 2010.03.12/outbox.cif.g09.slc.cpg/sg65_36_cif.got.tgz:70867.got - 2010.04.10 20:52:16.
