data_PCOD8272012
_publ_section_title
;
Structure prediction by ZEFSAII (Michael W. Deem and Ramdas Pophale) SiO2 
 PCOD8272012
Probable space group: C M M M
;
_chemical_formula_sum "Si O2"
_cell_formula_units_Z 112
_cell_length_a 25.245194
_cell_length_b 15.149710
_cell_length_c 14.080329
_cell_angle_alpha 90.000000
_cell_angle_beta 90.000000
_cell_angle_gamma 90.000000
_cell_volume 5385.125570
_symmetry_space_group_name_H-M "C M M M"
_symmetry_group_IT_number 65
_symmetry_cell_setting 'orthorhombic'
loop_
_space_group_symop_operation_xyz
x,y,z
-x,-y,z
x,-y,-z
-x,y,-z
-x,-y,-z
x,y,-z
-x,y,z
x,-y,z
1/2+x,1/2+y,z
1/2-x,1/2-y,z
1/2+x,1/2-y,-z
1/2-x,1/2+y,-z
1/2-x,1/2-y,-z
1/2+x,1/2+y,-z
1/2-x,1/2+y,z
1/2+x,1/2-y,z
loop_
_atom_site_type_symbol
_atom_site_label
_atom_site_fract_x
_atom_site_fract_y
_atom_site_fract_z
Si Si1 0.561136 0.265916 0.783272
Si Si2 0.635213 0.600826 0.108363
Si Si3 0.937077 0.596506 0.106184
Si Si4 0.306590 0.100830 0.288945
Si Si5 0.621900 0.243090 0.390254
Si Si6 0.700992 0.401152 0.607508
Si Si7 0.752750 0.354018 0.893181
O O1 0.500000 0.282895 0.808765
O O2 0.596120 0.343999 0.825726
O O3 0.583591 0.173837 0.825964
O O4 0.568015 0.259675 0.669138
O O5 0.616869 0.500000 0.116272
O O6 0.696067 0.608732 0.142968
O O7 0.630728 0.635334 0.000000
O O8 0.917239 0.500000 0.143324
O O9 0.000000 0.597054 0.105206
O O10 0.915602 0.613427 0.000000
O O11 0.349249 0.161616 0.340045
O O12 0.249622 0.129339 0.328697
O O13 0.300753 0.113503 0.174819
O O14 0.320820 0.000000 0.313815
O O15 0.609211 0.221376 0.500000
O O16 0.653855 0.333211 0.378178
O O17 0.721832 0.398716 0.500000
O O18 0.681007 0.500000 0.634302
O O19 0.750000 0.250000 0.891215
O O20 0.764706 0.388601 0.000000
#
# Coordination Sequence:
#
# PCOD8272012 Si02
#       7
#    16  16  16  16  16  16  16
#     4  11  23  38  58  82 110 150 200 250 298 349
#     4  10  21  37  59  90 128 166 199 233 281 345
#     4   8  15  31  56  82 104 128 166 222 286 346
#     4  11  21  34  57  86 116 150 186 227 282 352
#     4  11  24  40  57  79 110 147 192 248 302 350
#     4   9  18  34  58  85 108 134 174 226 286 349
#     4  10  20  35  57  86 123 164 199 231 276 341
#
# _framework density 20.798030000000001
#
# number of rings (size 3 to 8) (size 9 to 14) (size 15 to 20)
#    0.000    2.000    0.000    4.714    0.000    6.571 
#    0.000    1.429    0.000    0.000    0.000    6.000 
#    0.000    0.000    0.000    0.000    0.000    0.000 
#
# Total GULP energy -694313.588440 kJ/mol
# GULP energy per Si atom -12398.456936 kJ/mol
# Density = 2.075069 g / cm^3
# Si number density = 20.798030 Si / 1000 Ang^3
#
#
#
# Elastic Constant Matrix: (Units=GPa)
#
#
# Indices 1 2 3 4 5 6 
#
# 1 36.5297 24.7887 37.6155 0.0000 0.0000 0.0000
# 2 24.7887 100.3375 37.6307 0.0000 0.0000 0.0000
# 3 37.6155 37.6307 115.3679 0.0000 0.0000 0.0000
# 4 0.0000 0.0000 0.0000 -69.7689 0.0000 0.0000
# 5 0.0000 0.0000 0.0000 0.0000 27.9281 0.0000
# 6 0.0000 0.0000 0.0000 0.0000 0.0000 12.6329
#
#
#
# Elastic Compliance Matrix: (Units=1/GPa)
#
#
# Indices 1 2 3 4 5 6 
#
# 1 0.044473 -0.006322 -0.012438 0.000000 0.000000 0.000000
# 2 -0.006322 0.012254 -0.001936 0.000000 0.000000 0.000000
# 3 -0.012438 -0.001936 0.013355 0.000000 0.000000 0.000000
# 4 0.000000 0.000000 0.000000 -0.014333 0.000000 0.000000
# 5 0.000000 0.000000 0.000000 0.000000 0.035806 0.000000
# 6 0.000000 0.000000 0.000000 0.000000 0.000000 0.079159
#
#
# Mechanical properties :
#
#
# Convention : Reuss Voigt Hill
#
# Bulk Modulus (GPa) = 34.85575 50.25609 42.55592
# Shear Modulus (GPa) = 22.55609 4.30509 13.43059
#
# Velocity S-wave (km/s) = 3.29679 1.44029 2.54394
# Velocity P-wave (km/s) = 5.59351 5.19444 5.39767
#
# Compressibility (1/GPa) = 0.02868967
#
# Stress axis : x y z
#
# Youngs Moduli (GPa) = 22.48550 81.60406 74.87984
#
# Poissons Ratio (x) = 0.51593 0.93136
# Poissons Ratio (y) = 0.14216 0.14494
# Poissons Ratio (z) = 0.27968 0.15796
#
# Static dielectric constant tensor:
#      x y z
#    x 3.377480 0.000000 0.000000 
#    y 0.000000 4.021530 0.000000 
#    z 0.000000 0.000000 4.076490 
# 
# 
# High freq. dielectric constant tensor:
#      x y z
#    x 1.781230 0.000000 0.000000 
#    y 0.000000 1.826490 0.000000 
#    z 0.000000 0.000000 1.823350 
# 
# From -- ./inp_files/45769.got.cif
#   From: 2010.03.12/outbox.cif.g09.slc.cpg/sg65_23_cif.got.tgz:45769.got - 2010.04.10 20:52:16.
