data_PCOD8272908
_publ_section_title
;
Structure prediction by ZEFSAII (Michael W. Deem and Ramdas Pophale) SiO2 
 PCOD8272908
Probable space group: C M M M
;
_chemical_formula_sum "Si O2"
_cell_formula_units_Z 72
_cell_length_a 29.003702
_cell_length_b 8.965768
_cell_length_c 15.076009
_cell_angle_alpha 90.000000
_cell_angle_beta 90.000000
_cell_angle_gamma 90.000000
_cell_volume 3920.372365
_symmetry_space_group_name_H-M "C M M M"
_symmetry_group_IT_number 65
_symmetry_cell_setting 'orthorhombic'
loop_
_space_group_symop_operation_xyz
x,y,z
-x,-y,z
x,-y,-z
-x,y,-z
-x,-y,-z
x,y,-z
-x,y,z
x,-y,z
1/2+x,1/2+y,z
1/2-x,1/2-y,z
1/2+x,1/2-y,-z
1/2-x,1/2+y,-z
1/2-x,1/2-y,-z
1/2+x,1/2+y,-z
1/2-x,1/2+y,z
1/2+x,1/2-y,z
loop_
_atom_site_type_symbol
_atom_site_label
_atom_site_fract_x
_atom_site_fract_y
_atom_site_fract_z
Si Si1 0.445333 0.835735 0.000000
Si Si2 0.297463 0.174496 0.397471
Si Si3 0.701055 0.174179 0.898449
Si Si4 0.144237 0.173494 0.746456
Si Si5 0.448830 0.671239 0.174123
O O1 0.428680 0.754475 0.088395
O O2 0.500000 0.841963 0.000000
O O3 0.423091 0.000000 0.000000
O O4 0.307545 0.208920 0.500000
O O5 0.250000 0.250000 0.366287
O O6 0.338915 0.244886 0.341989
O O7 0.293750 0.000000 0.378149
O O8 0.750000 0.250000 0.881895
O O9 0.664741 0.252521 0.834457
O O10 0.705117 0.000000 0.874748
O O11 0.684695 0.197623 0.000000
O O12 0.088550 0.194444 0.747867
O O13 0.158031 0.000000 0.743519
O O14 0.500000 0.729341 0.203469
O O15 0.452325 0.500000 0.146650
#
# Coordination Sequence:
#
# PCOD8272908 Si02
#       5
#     8  16  16  16  16
#     4   9  17  29  47  71  98 131 174 223 269 307
#     4  10  21  38  60  84 110 138 170 213 264 319
#     4  10  21  36  52  72 103 142 179 217 258 309
#     4  11  22  34  54  80 106 139 177 220 265 315
#     4   9  19  35  52  72 102 141 182 222 264 310
#
# _framework density 18.365603
#
# number of rings (size 3 to 8) (size 9 to 14) (size 15 to 20)
#    0.000    2.111    0.000    3.000    1.556    5.778 
#    0.000    0.000    0.000    0.667    0.000    4.667 
#    0.000    0.000    0.000    0.000    0.000    0.000 
#
# Total GULP energy -446383.735432 kJ/mol
# GULP energy per Si atom -12399.548206 kJ/mol
# Density = 1.832380 g / cm^3
# Si number density = 18.365603 Si / 1000 Ang^3
#
#
#
# Elastic Constant Matrix: (Units=GPa)
#
#
# Indices 1 2 3 4 5 6 
#
# 1 101.4444 52.7951 59.0341 0.0000 0.0000 0.0000
# 2 52.7951 114.1024 50.2265 0.0000 0.0000 0.0000
# 3 59.0341 50.2265 88.4260 0.0000 0.0000 0.0000
# 4 0.0000 0.0000 0.0000 32.2701 0.0000 0.0000
# 5 0.0000 0.0000 0.0000 0.0000 24.4212 0.0000
# 6 0.0000 0.0000 0.0000 0.0000 0.0000 23.1040
#
#
#
# Elastic Compliance Matrix: (Units=1/GPa)
#
#
# Indices 1 2 3 4 5 6 
#
# 1 0.017332 -0.003902 -0.009355 0.000000 0.000000 0.000000
# 2 -0.003902 0.012564 -0.004532 0.000000 0.000000 0.000000
# 3 -0.009355 -0.004532 0.020128 0.000000 0.000000 0.000000
# 4 0.000000 0.000000 0.000000 0.030988 0.000000 0.000000
# 5 0.000000 0.000000 0.000000 0.000000 0.040948 0.000000
# 6 0.000000 0.000000 0.000000 0.000000 0.000000 0.043283
#
#
# Mechanical properties :
#
#
# Convention : Reuss Voigt Hill
#
# Bulk Modulus (GPa) = 69.21356 69.78713 69.50034
# Shear Modulus (GPa) = 24.31474 25.42018 24.86746
#
# Velocity S-wave (km/s) = 3.64253 3.72441 3.68370
# Velocity P-wave (km/s) = 7.44708 7.52172 7.48449
#
# Compressibility (1/GPa) = 0.01444804
#
# Stress axis : x y z
#
# Youngs Moduli (GPa) = 57.69632 79.59142 49.68097
#
# Poissons Ratio (x) = 0.31054 0.46476
# Poissons Ratio (y) = 0.22511 0.22514
# Poissons Ratio (z) = 0.53975 0.36069
#
# Static dielectric constant tensor:
#      x y z
#    x 3.509460 0.000000 0.000000 
#    y 0.000000 3.583570 0.000000 
#    z 0.000000 0.000000 3.224230 
# 
# 
# High freq. dielectric constant tensor:
#      x y z
#    x 1.711590 0.000000 0.000000 
#    y 0.000000 1.727070 0.000000 
#    z 0.000000 0.000000 1.689380 
# 
# From -- ./inp_files/36566.got.cif
#   From: 2010.03.12/outbox.cif.g09.slc.cpg/sg65_19_cif.got.tgz:36566.got - 2010.04.10 20:52:16.
