data_PCOD8272867
_publ_section_title
;
Structure prediction by ZEFSAII (Michael W. Deem and Ramdas Pophale) SiO2 
 PCOD8272867
Probable space group: C M M M
;
_chemical_formula_sum "Si O2"
_cell_formula_units_Z 72
_cell_length_a 17.965286
_cell_length_b 24.531617
_cell_length_c 7.704568
_cell_angle_alpha 90.000000
_cell_angle_beta 90.000000
_cell_angle_gamma 90.000000
_cell_volume 3395.538067
_symmetry_space_group_name_H-M "C M M M"
_symmetry_group_IT_number 65
_symmetry_cell_setting 'orthorhombic'
loop_
_space_group_symop_operation_xyz
x,y,z
-x,-y,z
x,-y,-z
-x,y,-z
-x,-y,-z
x,y,-z
-x,y,z
x,-y,z
1/2+x,1/2+y,z
1/2-x,1/2-y,z
1/2+x,1/2-y,-z
1/2-x,1/2+y,-z
1/2-x,1/2-y,-z
1/2+x,1/2+y,-z
1/2-x,1/2+y,z
1/2+x,1/2-y,z
loop_
_atom_site_type_symbol
_atom_site_label
_atom_site_fract_x
_atom_site_fract_y
_atom_site_fract_z
Si Si1 0.087460 0.063968 0.500000
Si Si2 0.917217 0.758951 0.697153
Si Si3 0.153278 0.134660 0.196011
Si Si4 0.179909 0.341836 0.204788
Si Si5 0.583193 0.940038 0.793611
O O1 0.122286 0.089066 0.325326
O O2 0.000000 0.075998 0.500000
O O3 0.105001 0.000000 0.500000
O O4 0.916724 0.779417 0.500000
O O5 0.897675 0.811609 0.810994
O O6 0.856691 0.711842 0.716773
O O7 0.000000 0.738068 0.751054
O O8 0.234580 0.153769 0.260738
O O9 0.156399 0.110214 0.000000
O O10 0.138402 0.394791 0.283060
O O11 0.170721 0.338302 0.000000
O O12 0.500000 0.927391 0.726547
O O13 0.608500 0.000000 0.728173
O O14 0.584633 0.938841 0.000000
#
# Coordination Sequence:
#
# PCOD8272867 Si02
#       5
#     8  16  16  16  16
#     4  11  26  48  71  96 127 165 211 262 320 384
#     4  11  23  38  60  90 127 171 215 261 316 378
#     4  11  24  42  67  97 128 166 211 262 322 382
#     4  10  21  35  57  91 125 163 211 259 313 375
#     4   8  14  27  49  77 113 157 201 249 303 359
#
# _framework density 21.204297
#
# number of rings (size 3 to 8) (size 9 to 14) (size 15 to 20)
#    0.000    1.889    1.111    3.333    1.556    8.000 
#    0.000    3.333    0.000    0.000    0.000    3.111 
#    0.000    0.000    0.000    0.000    0.000    0.000 
#
# Total GULP energy -446399.385618 kJ/mol
# GULP energy per Si atom -12399.982934 kJ/mol
# Density = 2.115603 g / cm^3
# Si number density = 21.204297 Si / 1000 Ang^3
#
#
#
# Elastic Constant Matrix: (Units=GPa)
#
#
# Indices 1 2 3 4 5 6 
#
# 1 143.4335 63.1582 45.2569 0.0000 0.0000 0.0000
# 2 63.1582 133.0931 40.5870 0.0000 0.0000 0.0000
# 3 45.2569 40.5870 77.1118 0.0000 0.0000 0.0000
# 4 0.0000 0.0000 0.0000 27.0124 0.0000 0.0000
# 5 0.0000 0.0000 0.0000 0.0000 22.7968 0.0000
# 6 0.0000 0.0000 0.0000 0.0000 0.0000 28.5059
#
#
#
# Elastic Compliance Matrix: (Units=1/GPa)
#
#
# Indices 1 2 3 4 5 6 
#
# 1 0.009707 -0.003417 -0.003898 0.000000 0.000000 0.000000
# 2 -0.003417 0.010153 -0.003338 0.000000 0.000000 0.000000
# 3 -0.003898 -0.003338 0.017013 0.000000 0.000000 0.000000
# 4 0.000000 0.000000 0.000000 0.037020 0.000000 0.000000
# 5 0.000000 0.000000 0.000000 0.000000 0.043866 0.000000
# 6 0.000000 0.000000 0.000000 0.000000 0.000000 0.035081
#
#
# Mechanical properties :
#
#
# Convention : Reuss Voigt Hill
#
# Bulk Modulus (GPa) = 64.24597 72.40475 68.32536
# Shear Modulus (GPa) = 27.88068 29.30543 28.59305
#
# Velocity S-wave (km/s) = 3.63003 3.72163 3.67612
# Velocity P-wave (km/s) = 6.92343 7.25863 7.09301
#
# Compressibility (1/GPa) = 0.01556518
#
# Stress axis : x y z
#
# Youngs Moduli (GPa) = 103.02234 98.49000 58.77828
#
# Poissons Ratio (x) = 0.33659 0.22912
# Poissons Ratio (y) = 0.35208 0.19622
# Poissons Ratio (z) = 0.40159 0.32880
#
# Static dielectric constant tensor:
#      x y z
#    x 4.072400 0.000000 0.000000 
#    y 0.000000 3.898680 0.000000 
#    z 0.000000 0.000000 3.560280 
# 
# 
# High freq. dielectric constant tensor:
#      x y z
#    x 1.839930 0.000000 0.000000 
#    y 0.000000 1.829730 0.000000 
#    z 0.000000 0.000000 1.818340 
# 
# From -- ./inp_files/7309.got.cif
#   From: 2010.03.12/outbox.cif.g09.slc.cpg/sg65_4_cif.got.tgz:7309.got - 2010.04.10 20:52:16.
