data_PCOD8272725
_publ_section_title
;
Structure prediction by ZEFSAII (Michael W. Deem and Ramdas Pophale) SiO2 
 PCOD8272725
Probable space group: C M M M
;
_chemical_formula_sum "Si O2"
_cell_formula_units_Z 64
_cell_length_a 9.138859
_cell_length_b 18.335776
_cell_length_c 20.811837
_cell_angle_alpha 90.000000
_cell_angle_beta 90.000000
_cell_angle_gamma 90.000000
_cell_volume 3487.399391
_symmetry_space_group_name_H-M "C M M M"
_symmetry_group_IT_number 65
_symmetry_cell_setting 'orthorhombic'
loop_
_space_group_symop_operation_xyz
x,y,z
-x,-y,z
x,-y,-z
-x,y,-z
-x,-y,-z
x,y,-z
-x,y,z
x,-y,z
1/2+x,1/2+y,z
1/2-x,1/2-y,z
1/2+x,1/2-y,-z
1/2-x,1/2+y,-z
1/2-x,1/2-y,-z
1/2+x,1/2+y,-z
1/2-x,1/2+y,z
1/2+x,1/2-y,z
loop_
_atom_site_type_symbol
_atom_site_label
_atom_site_fract_x
_atom_site_fract_y
_atom_site_fract_z
Si Si1 0.834755 0.586858 0.250565
Si Si2 0.165589 0.586941 0.500000
Si Si3 0.329547 0.584343 0.124464
Si Si4 0.327542 0.326759 0.000000
Si Si5 0.165566 0.086999 0.374938
O O1 0.832411 0.500000 0.252078
O O2 0.758965 0.615016 0.185481
O O3 0.746188 0.617652 0.311639
O O4 0.000000 0.616768 0.253363
O O5 0.164967 0.500000 0.500000
O O6 0.248992 0.616744 0.562783
O O7 0.000000 0.616950 0.500000
O O8 0.500000 0.595431 0.139057
O O9 0.293662 0.500000 0.111251
O O10 0.277094 0.628681 0.062469
O O11 0.250000 0.250000 0.000000
O O12 0.500000 0.315037 0.000000
O O13 0.000000 0.116816 0.376225
O O14 0.165748 0.000000 0.374658
#
# Coordination Sequence:
#
# PCOD8272725 Si02
#       5
#    16   8  16   8  16
#     4   9  16  25  38  58  82 107 139 182 228 268
#     4   9  15  21  29  43  67 101 140 181 222 263
#     4   9  17  31  50  69  89 117 154 191 226 269
#     4  10  21  35  51  71  95 122 150 184 228 276
#     4   9  15  22  32  47  70 103 142 180 218 264
#
# _framework density 18.351785
#
# number of rings (size 3 to 8) (size 9 to 14) (size 15 to 20)
#    0.000    2.875    0.000    2.250    0.000   10.000 
#    0.000    0.000    0.000    3.750    0.000    0.000 
#    0.000    0.000    0.000    1.125    0.000   16.500 
#
# Total GULP energy -396788.236960 kJ/mol
# GULP energy per Si atom -12399.632405 kJ/mol
# Density = 1.831002 g / cm^3
# Si number density = 18.351785 Si / 1000 Ang^3
#
#
#
# Elastic Constant Matrix: (Units=GPa)
#
#
# Indices 1 2 3 4 5 6 
#
# 1 146.1179 24.3582 106.3374 0.0000 0.0000 0.0000
# 2 24.3582 29.4894 36.0649 0.0000 0.0000 0.0000
# 3 106.3374 36.0649 214.1625 0.0000 0.0000 0.0000
# 4 0.0000 0.0000 0.0000 0.3787 0.0000 0.0000
# 5 0.0000 0.0000 0.0000 0.0000 34.5143 0.0000
# 6 0.0000 0.0000 0.0000 0.0000 0.0000 13.4922
#
#
#
# Elastic Compliance Matrix: (Units=1/GPa)
#
#
# Indices 1 2 3 4 5 6 
#
# 1 0.010924 -0.003010 -0.004917 0.000000 0.000000 0.000000
# 2 -0.003010 0.043535 -0.005837 0.000000 0.000000 0.000000
# 3 -0.004917 -0.005837 0.008094 0.000000 0.000000 0.000000
# 4 0.000000 0.000000 0.000000 2.640605 0.000000 0.000000
# 5 0.000000 0.000000 0.000000 0.000000 0.028974 0.000000
# 6 0.000000 0.000000 0.000000 0.000000 0.000000 0.074117
#
#
# Mechanical properties :
#
#
# Convention : Reuss Voigt Hill
#
# Bulk Modulus (GPa) = 28.55089 80.36565 54.45827
# Shear Modulus (GPa) = 1.75719 24.54432 13.15076
#
# Velocity S-wave (km/s) = 0.97958 3.66106 2.67983
# Velocity P-wave (km/s) = 4.10740 7.85863 6.27012
#
# Compressibility (1/GPa) = 0.03502518
#
# Stress axis : x y z
#
# Youngs Moduli (GPa) = 91.54131 22.97015 123.55065
#
# Poissons Ratio (x) = 0.06913 0.60753
# Poissons Ratio (y) = 0.27550 0.72116
# Poissons Ratio (z) = 0.45013 0.13408
#
# Static dielectric constant tensor:
#      x y z
#    x 3.522660 0.000000 0.000000 
#    y 0.000000 2.624710 0.000000 
#    z 0.000000 0.000000 3.652080 
# 
# 
# High freq. dielectric constant tensor:
#      x y z
#    x 1.721320 0.000000 0.000000 
#    y 0.000000 1.627740 0.000000 
#    z 0.000000 0.000000 1.732870 
# 
# From -- ./inp_files/58813.got.cif
#   From: 2010.03.12/outbox.cif.g09.slc.cpg/sg65_30_cif.got.tgz:58813.got - 2010.04.10 20:52:16.
