data_PCOD8272125
_publ_section_title
;
Structure prediction by ZEFSAII (Michael W. Deem and Ramdas Pophale) SiO2 
 PCOD8272125
Probable space group: C M M M
;
_chemical_formula_sum "Si O2"
_cell_formula_units_Z 80
_cell_length_a 8.830744
_cell_length_b 24.846597
_cell_length_c 20.329050
_cell_angle_alpha 90.000000
_cell_angle_beta 90.000000
_cell_angle_gamma 90.000000
_cell_volume 4460.476904
_symmetry_space_group_name_H-M "C M M M"
_symmetry_group_IT_number 65
_symmetry_cell_setting 'orthorhombic'
loop_
_space_group_symop_operation_xyz
x,y,z
-x,-y,z
x,-y,-z
-x,y,-z
-x,-y,-z
x,y,-z
-x,y,z
x,-y,z
1/2+x,1/2+y,z
1/2-x,1/2-y,z
1/2+x,1/2-y,-z
1/2-x,1/2+y,-z
1/2-x,1/2-y,-z
1/2+x,1/2+y,-z
1/2-x,1/2+y,z
1/2+x,1/2-y,z
loop_
_atom_site_type_symbol
_atom_site_label
_atom_site_fract_x
_atom_site_fract_y
_atom_site_fract_z
Si Si1 0.823811 0.192773 0.000000
Si Si2 0.678626 0.691867 0.858212
Si Si3 0.171334 0.500000 0.600691
Si Si4 0.331376 0.000000 0.756655
Si Si5 0.681397 0.190368 0.500000
Si Si6 0.322171 0.392473 0.246085
Si Si7 0.320378 0.610743 0.397594
O O1 0.750000 0.250000 0.000000
O O2 0.778954 0.164930 0.930099
O O3 0.000000 0.203157 0.000000
O O4 0.500000 0.698114 0.850691
O O5 0.750000 0.750000 0.849571
O O6 0.743214 0.654637 0.800066
O O7 0.170547 0.500000 0.678489
O O8 0.258466 0.446622 0.575751
O O9 0.000000 0.500000 0.572596
O O10 0.247255 0.052752 0.782251
O O11 0.500000 0.000000 0.785113
O O12 0.500000 0.193339 0.500000
O O13 0.750000 0.250000 0.500000
O O14 0.739714 0.159178 0.435613
O O15 0.500000 0.398385 0.239405
O O16 0.276240 0.380966 0.321333
O O17 0.500000 0.612677 0.409372
#
# Coordination Sequence:
#
# PCOD8272125 Si02
#       7
#     8  16   8   8   8  16  16
#     4   8  14  26  44  65  94 127 161 198 238 284
#     4   9  17  29  46  71  99 129 162 199 242 288
#     4   9  17  32  54  81 106 128 159 203 250 294
#     4   9  17  29  48  73 100 129 163 201 244 289
#     4  12  26  43  58  73  98 134 170 204 244 296
#     4   9  18  32  51  74 101 130 162 200 244 290
#     4  10  20  36  56  78 102 130 164 205 250 296
#
# _framework density 17.935300999999999
#
# number of rings (size 3 to 8) (size 9 to 14) (size 15 to 20)
#    0.000    2.600    0.000    2.100    0.000    5.200 
#    0.000    4.000    0.000    0.600    0.000    4.200 
#    0.000    0.000    0.000    0.000    0.000    0.000 
#
# Total GULP energy -495693.832966 kJ/mol
# GULP energy per Si atom -12392.345824 kJ/mol
# Density = 1.789448 g / cm^3
# Si number density = 17.935301 Si / 1000 Ang^3
#
#
#
# Elastic Constant Matrix: (Units=GPa)
#
#
# Indices 1 2 3 4 5 6 
#
# 1 71.6989 52.3845 39.6265 0.0000 0.0000 0.0000
# 2 52.3845 148.9570 75.4224 0.0000 0.0000 0.0000
# 3 39.6265 75.4224 115.3630 0.0000 0.0000 0.0000
# 4 0.0000 0.0000 0.0000 -2.7837 0.0000 0.0000
# 5 0.0000 0.0000 0.0000 0.0000 17.4603 0.0000
# 6 0.0000 0.0000 0.0000 0.0000 0.0000 31.6647
#
#
#
# Elastic Compliance Matrix: (Units=1/GPa)
#
#
# Indices 1 2 3 4 5 6 
#
# 1 0.019588 -0.005205 -0.003326 0.000000 0.000000 0.000000
# 2 -0.005205 0.011418 -0.005677 0.000000 0.000000 0.000000
# 3 -0.003326 -0.005677 0.013522 0.000000 0.000000 0.000000
# 4 0.000000 0.000000 0.000000 -0.359234 0.000000 0.000000
# 5 0.000000 0.000000 0.000000 0.000000 0.057273 0.000000
# 6 0.000000 0.000000 0.000000 0.000000 0.000000 0.031581
#
#
# Mechanical properties :
#
#
# Convention : Reuss Voigt Hill
#
# Bulk Modulus (GPa) = 62.06038 74.54285 68.30162
# Shear Modulus (GPa) = -26.03285 20.50730 -2.76277
#
# Velocity S-wave (km/s) = -3.81397 3.38509 -1.24248
# Velocity P-wave (km/s) = 3.90926 7.54525 6.00887
#
# Compressibility (1/GPa) = 0.01611334
#
# Stress axis : x y z
#
# Youngs Moduli (GPa) = 51.05208 87.57813 73.95165
#
# Poissons Ratio (x) = 0.45582 0.24593
# Poissons Ratio (y) = 0.26571 0.41985
# Poissons Ratio (z) = 0.16978 0.49721
#
# Static dielectric constant tensor:
#      x y z
#    x 3.432690 0.000000 0.000000 
#    y 0.000000 3.362580 0.000000 
#    z 0.000000 0.000000 3.712520 
# 
# 
# High freq. dielectric constant tensor:
#      x y z
#    x 1.698520 0.000000 0.000000 
#    y 0.000000 1.680270 0.000000 
#    z 0.000000 0.000000 1.692030 
# 
# From -- ./inp_files/59745.got.cif
#   From: 2010.03.12/outbox.cif.g09.slc.cpg/sg65_30_cif.got.tgz:59745.got - 2010.04.10 20:52:16.
