data_PCOD8272391
_publ_section_title
;
Structure prediction by ZEFSAII (Michael W. Deem and Ramdas Pophale) SiO2 
 PCOD8272391
Probable space group: C M M M
;
_chemical_formula_sum "Si O2"
_cell_formula_units_Z 96
_cell_length_a 22.629569
_cell_length_b 15.085760
_cell_length_c 14.440787
_cell_angle_alpha 90.000000
_cell_angle_beta 90.000000
_cell_angle_gamma 90.000000
_cell_volume 4929.857194
_symmetry_space_group_name_H-M "C M M M"
_symmetry_group_IT_number 65
_symmetry_cell_setting 'orthorhombic'
loop_
_space_group_symop_operation_xyz
x,y,z
-x,-y,z
x,-y,-z
-x,y,-z
-x,-y,-z
x,y,-z
-x,y,z
x,-y,z
1/2+x,1/2+y,z
1/2-x,1/2-y,z
1/2+x,1/2-y,-z
1/2-x,1/2+y,-z
1/2-x,1/2-y,-z
1/2+x,1/2+y,-z
1/2-x,1/2+y,z
1/2+x,1/2-y,z
loop_
_atom_site_type_symbol
_atom_site_label
_atom_site_fract_x
_atom_site_fract_y
_atom_site_fract_z
Si Si1 0.623452 0.599719 0.892952
Si Si2 0.000000 0.128868 0.802416
Si Si3 0.181181 0.255111 0.222472
Si Si4 0.500000 0.833793 0.836985
Si Si5 0.898644 0.271521 0.600116
Si Si6 0.500000 0.367933 0.600302
Si Si7 0.500000 0.901717 0.643369
Si Si8 0.621849 0.898946 0.104125
O O1 0.649214 0.500000 0.881348
O O2 0.555986 0.598265 0.860424
O O3 0.661383 0.667684 0.832487
O O4 0.626240 0.629834 0.000000
O O5 0.000000 0.235854 0.791461
O O6 0.000000 0.081468 0.699826
O O7 0.250000 0.250000 0.241642
O O8 0.149689 0.262641 0.320851
O O9 0.167524 0.344507 0.166145
O O10 0.500000 0.903754 0.754270
O O11 0.441720 0.850078 0.897393
O O12 0.866368 0.276376 0.500000
O O13 0.940234 0.186912 0.603099
O O14 0.939716 0.357380 0.609221
O O15 0.500000 0.421130 0.500000
O O16 0.500000 0.000000 0.603298
O O17 0.616925 0.000000 0.140958
O O18 0.646287 0.898440 0.000000
#
# Coordination Sequence:
#
# PCOD8272391 Si02
#       8
#    16   8  16   8  16   8   8  16
#     4  11  24  41  62  89 120 155 197 247 301 358
#     4  12  18  36  62  91 121 155 189 240 305 361
#     4  12  25  42  62  84 113 160 211 252 294 341
#     4  12  19  32  59  92 125 159 187 231 295 365
#     4  10  20  37  58  86 118 151 191 237 297 361
#     4   9  15  30  60  87 112 143 182 234 297 358
#     4  11  18  31  58  92 127 156 185 231 298 367
#     4  11  23  38  59  89 124 160 195 238 297 362
#
# _framework density 19.473181
#
# number of rings (size 3 to 8) (size 9 to 14) (size 15 to 20)
#    0.000    1.000    6.667    2.750    0.000    5.000 
#    0.000    1.667    0.000    2.500    0.000    2.333 
#    0.000    0.000    0.000    0.000    0.000    0.000 
#
# Total GULP energy -594964.118953 kJ/mol
# GULP energy per Si atom -12395.085812 kJ/mol
# Density = 1.942886 g / cm^3
# Si number density = 19.473181 Si / 1000 Ang^3
#
#
#
# Elastic Constant Matrix: (Units=GPa)
#
#
# Indices 1 2 3 4 5 6 
#
# 1 126.5416 39.0901 60.5183 0.0000 0.0000 0.0000
# 2 39.0901 109.8338 48.9297 0.0000 0.0000 0.0000
# 3 60.5183 48.9297 169.2210 0.0000 0.0000 0.0000
# 4 0.0000 0.0000 0.0000 -24.8145 0.0000 0.0000
# 5 0.0000 0.0000 0.0000 0.0000 12.8790 0.0000
# 6 0.0000 0.0000 0.0000 0.0000 0.0000 14.4820
#
#
#
# Elastic Compliance Matrix: (Units=1/GPa)
#
#
# Indices 1 2 3 4 5 6 
#
# 1 0.009997 -0.002256 -0.002923 0.000000 0.000000 0.000000
# 2 -0.002256 0.010960 -0.002362 0.000000 0.000000 0.000000
# 3 -0.002923 -0.002362 0.007638 0.000000 0.000000 0.000000
# 4 0.000000 0.000000 0.000000 -0.040299 0.000000 0.000000
# 5 0.000000 0.000000 0.000000 0.000000 0.077646 0.000000
# 6 0.000000 0.000000 0.000000 0.000000 0.000000 0.069051
#
#
# Mechanical properties :
#
#
# Convention : Reuss Voigt Hill
#
# Bulk Modulus (GPa) = 74.00447 78.07473 76.03960
# Shear Modulus (GPa) = 32.34573 17.64650 24.99611
#
# Velocity S-wave (km/s) = 4.08001 3.01357 3.58665
# Velocity P-wave (km/s) = 7.76409 7.23114 7.50235
#
# Compressibility (1/GPa) = 0.01351270
#
# Stress axis : x y z
#
# Youngs Moduli (GPa) = 100.02642 91.24168 130.92711
#
# Poissons Ratio (x) = 0.20583 0.38271
# Poissons Ratio (y) = 0.22565 0.30928
# Poissons Ratio (z) = 0.29238 0.21554
#
# Static dielectric constant tensor:
#      x y z
#    x 3.242430 0.000000 0.000000 
#    y 0.000000 3.597170 0.000000 
#    z 0.000000 0.000000 3.925240 
# 
# 
# High freq. dielectric constant tensor:
#      x y z
#    x 1.725220 0.000000 0.000000 
#    y 0.000000 1.758830 0.000000 
#    z 0.000000 0.000000 1.777800 
# 
# From -- ./inp_files/44207.got.cif
#   From: 2010.03.12/outbox.cif.g09.slc.cpg/sg65_23_cif.got.tgz:44207.got - 2010.04.10 20:52:16.
