data_PCOD8272480
_publ_section_title
;
Structure prediction by ZEFSAII (Michael W. Deem and Ramdas Pophale) SiO2 
 PCOD8272480
Probable space group: C M M M
;
_chemical_formula_sum "Si O2"
_cell_formula_units_Z 96
_cell_length_a 14.326291
_cell_length_b 14.561728
_cell_length_c 22.878883
_cell_angle_alpha 90.000000
_cell_angle_beta 90.000000
_cell_angle_gamma 90.000000
_cell_volume 4772.890824
_symmetry_space_group_name_H-M "C M M M"
_symmetry_group_IT_number 65
_symmetry_cell_setting 'orthorhombic'
loop_
_space_group_symop_operation_xyz
x,y,z
-x,-y,z
x,-y,-z
-x,y,-z
-x,-y,-z
x,y,-z
-x,y,z
x,-y,z
1/2+x,1/2+y,z
1/2-x,1/2-y,z
1/2+x,1/2-y,-z
1/2-x,1/2+y,-z
1/2-x,1/2-y,-z
1/2+x,1/2+y,-z
1/2-x,1/2+y,z
1/2+x,1/2-y,z
loop_
_atom_site_type_symbol
_atom_site_label
_atom_site_fract_x
_atom_site_fract_y
_atom_site_fract_z
Si Si1 0.250000 0.108855 0.753434
Si Si2 0.601453 0.394848 0.841193
Si Si3 0.392825 0.250000 0.569233
Si Si4 0.601453 0.105152 0.841194
Si Si5 0.750000 0.610520 0.381272
Si Si6 0.750000 0.142716 0.935402
O O1 0.159580 0.149684 0.787301
O O2 0.340420 0.149684 0.787301
O O3 0.250001 0.138564 0.686546
O O4 0.250000 0.000000 0.759823
O O5 0.500000 0.346000 0.846450
O O6 0.585480 0.500000 0.826184
O O7 0.656944 0.387685 0.901818
O O8 0.387934 0.250002 0.500000
O O9 0.500000 0.249999 0.591273
O O10 0.342220 0.343104 0.591222
O O11 0.342218 0.156896 0.591221
O O12 0.500000 0.154000 0.846450
O O13 0.656944 0.112316 0.901818
O O14 0.585481 0.000000 0.826185
O O15 0.750000 0.500000 0.391762
O O16 0.750000 0.250000 0.941447
O O17 0.750000 0.097426 0.000000
#
# Coordination Sequence:
#
# PCOD8272480 Si02
#       6
#    16  16  16  16  16  16
#     4   8  16  32  54  80 108 135 170 218 269 324
#     4   9  18  34  55  76 100 132 170 216 269 321
#     4  10  23  41  58  85 125 158 193 245 292 336
#     4   9  18  34  55  76 100 132 170 216 269 321
#     4  10  20  37  63  88 115 157 201 240 288 346
#     4  10  21  35  49  68 100 137 172 215 264 317
#
# _framework density 20.113596000000001
#
# number of rings (size 3 to 8) (size 9 to 14) (size 15 to 20)
#    0.000    2.667    0.000    2.500    0.000    6.000 
#   12.000    8.333    0.000    0.000    0.000    0.000 
#    0.000    0.000    0.000    0.000    0.000    0.000 
#
# Total GULP energy -594769.267052 kJ/mol
# GULP energy per Si atom -12391.026397 kJ/mol
# Density = 2.006782 g / cm^3
# Si number density = 20.113596 Si / 1000 Ang^3
#
#
#
# Elastic Constant Matrix: (Units=GPa)
#
#
# Indices 1 2 3 4 5 6 
#
# 1 218.6648 33.9824 84.1445 0.0000 0.0000 0.0000
# 2 33.9824 89.5618 20.5203 0.0000 0.0000 0.0000
# 3 84.1445 20.5203 149.9254 0.0000 0.0000 0.0000
# 4 0.0000 0.0000 0.0000 31.6888 0.0000 0.0000
# 5 0.0000 0.0000 0.0000 0.0000 15.8104 0.0000
# 6 0.0000 0.0000 0.0000 0.0000 0.0000 -30.6964
#
#
#
# Elastic Compliance Matrix: (Units=1/GPa)
#
#
# Indices 1 2 3 4 5 6 
#
# 1 0.006038 -0.001564 -0.003175 0.000000 0.000000 0.000000
# 2 -0.001564 0.011932 -0.000756 0.000000 0.000000 0.000000
# 3 -0.003175 -0.000756 0.008555 0.000000 0.000000 0.000000
# 4 0.000000 0.000000 0.000000 0.031557 0.000000 0.000000
# 5 0.000000 0.000000 0.000000 0.000000 0.063250 0.000000
# 6 0.000000 0.000000 0.000000 0.000000 0.000000 -0.032577
#
#
# Mechanical properties :
#
#
# Convention : Reuss Voigt Hill
#
# Bulk Modulus (GPa) = 64.36160 81.71627 73.03893
# Shear Modulus (GPa) = 47.65489 24.66087 36.15788
#
# Velocity S-wave (km/s) = 4.87281 3.50534 4.24451
# Velocity P-wave (km/s) = 7.98296 7.55637 7.77259
#
# Compressibility (1/GPa) = 0.01553722
#
# Stress axis : x y z
#
# Youngs Moduli (GPa) = 165.62161 83.80933 116.88829
#
# Poissons Ratio (x) = 0.13104 0.37109
# Poissons Ratio (y) = 0.25896 0.08832
# Poissons Ratio (z) = 0.52580 0.06332
#
# Static dielectric constant tensor:
#      x y z
#    x 4.139660 0.000000 0.000000 
#    y 0.000000 3.522440 0.000000 
#    z 0.000000 0.000000 3.912730 
# 
# 
# High freq. dielectric constant tensor:
#      x y z
#    x 1.790680 0.000000 0.000000 
#    y 0.000000 1.780680 0.000000 
#    z 0.000000 0.000000 1.785390 
# 
# From -- ./inp_files/62630.got.cif
#   From: 2010.03.12/outbox.cif.g09.slc.cpg/sg65_32_cif.got.tgz:62630.got - 2010.04.10 20:52:16.
