data_PCOD8272723
_publ_section_title
;
Structure prediction by ZEFSAII (Michael W. Deem and Ramdas Pophale) SiO2 
 PCOD8272723
Probable space group: C M M M
;
_chemical_formula_sum "Si O2"
_cell_formula_units_Z 88
_cell_length_a 9.246150
_cell_length_b 18.211777
_cell_length_c 28.628000
_cell_angle_alpha 90.000000
_cell_angle_beta 90.000000
_cell_angle_gamma 90.000000
_cell_volume 4820.635194
_symmetry_space_group_name_H-M "C M M M"
_symmetry_group_IT_number 65
_symmetry_cell_setting 'orthorhombic'
loop_
_space_group_symop_operation_xyz
x,y,z
-x,-y,z
x,-y,-z
-x,y,-z
-x,-y,-z
x,y,-z
-x,y,z
x,-y,z
1/2+x,1/2+y,z
1/2-x,1/2-y,z
1/2+x,1/2-y,-z
1/2-x,1/2+y,-z
1/2-x,1/2-y,-z
1/2+x,1/2+y,-z
1/2-x,1/2+y,z
1/2+x,1/2-y,z
loop_
_atom_site_type_symbol
_atom_site_label
_atom_site_fract_x
_atom_site_fract_y
_atom_site_fract_z
Si Si1 0.167707 0.085198 0.908870
Si Si2 0.163557 0.412546 0.818302
Si Si3 0.169956 0.173694 0.000000
Si Si4 0.663707 0.412430 0.271156
Si Si5 0.162825 0.412360 0.639192
Si Si6 0.337502 0.412673 0.448424
O O1 0.260159 0.115660 0.865446
O O2 0.000000 0.098131 0.897131
O O3 0.199260 0.000000 0.918320
O O4 0.218070 0.128457 0.954597
O O5 0.164856 0.500000 0.817116
O O6 0.251552 0.381649 0.773945
O O7 0.000000 0.382295 0.816495
O O8 0.250000 0.250000 0.000000
O O9 0.000000 0.187619 0.000000
O O10 0.500000 0.382221 0.270601
O O11 0.663277 0.500000 0.270726
O O12 0.744056 0.382741 0.317292
O O13 0.163378 0.500000 0.638906
O O14 0.231438 0.380840 0.591243
O O15 0.000000 0.382236 0.643571
O O16 0.285353 0.386620 0.500000
O O17 0.500000 0.384225 0.438743
O O18 0.336738 0.500000 0.446339
#
# Coordination Sequence:
#
# PCOD8272723 Si02
#       6
#    16  16   8  16  16  16
#     4   9  17  31  50  69  89 116 150 182 213 254
#     4   9  16  25  38  58  81 101 124 159 202 244
#     4  10  21  35  51  71  95 122 150 182 218 256
#     4   9  15  22  32  45  63  88 115 143 181 233
#     4   9  15  20  26  37  53  73  99 135 180 228
#     4   8  13  20  27  33  43  63  94 132 174 223
#
# _framework density 18.254856
#
# number of rings (size 3 to 8) (size 9 to 14) (size 15 to 20)
#    0.000    3.091    0.000    2.455    0.000    8.727 
#    0.000    1.818    0.000    2.727    0.000    0.000 
#    0.000    0.000    0.000    0.000    0.000    0.000 
#
# Total GULP energy -545462.926272 kJ/mol
# GULP energy per Si atom -12396.884688 kJ/mol
# Density = 1.821331 g / cm^3
# Si number density = 18.254856 Si / 1000 Ang^3
#
#
#
# Elastic Constant Matrix: (Units=GPa)
#
#
# Indices 1 2 3 4 5 6 
#
# 1 151.3655 17.9402 110.9626 0.0000 0.0000 0.0000
# 2 17.9402 17.8596 24.1469 0.0000 0.0000 0.0000
# 3 110.9626 24.1469 205.3016 0.0000 0.0000 0.0000
# 4 0.0000 0.0000 0.0000 -0.1049 0.0000 0.0000
# 5 0.0000 0.0000 0.0000 0.0000 32.7087 0.0000
# 6 0.0000 0.0000 0.0000 0.0000 0.0000 9.9055
#
#
#
# Elastic Compliance Matrix: (Units=1/GPa)
#
#
# Indices 1 2 3 4 5 6 
#
# 1 0.011136 -0.003625 -0.005592 0.000000 0.000000 0.000000
# 2 -0.003625 0.067760 -0.006011 0.000000 0.000000 0.000000
# 3 -0.005592 -0.006011 0.008600 0.000000 0.000000 0.000000
# 4 0.000000 0.000000 0.000000 -9.528704 0.000000 0.000000
# 5 0.000000 0.000000 0.000000 0.000000 0.030573 0.000000
# 6 0.000000 0.000000 0.000000 0.000000 0.000000 0.100954
#
#
# Mechanical properties :
#
#
# Convention : Reuss Voigt Hill
#
# Bulk Modulus (GPa) = 17.53135 75.62511 46.57823
# Shear Modulus (GPa) = -0.53994 23.26699 11.36352
#
# Velocity S-wave (km/s) = -0.54445 3.57398 2.49769
# Velocity P-wave (km/s) = 3.03797 7.65169 5.82141
#
# Compressibility (1/GPa) = 0.05704067
#
# Stress axis : x y z
#
# Youngs Moduli (GPa) = 89.80032 14.75796 116.27317
#
# Poissons Ratio (x) = 0.05350 0.65025
# Poissons Ratio (y) = 0.32552 0.69886
# Poissons Ratio (z) = 0.50220 0.08870
#
# Static dielectric constant tensor:
#      x y z
#    x 3.538340 0.000000 0.000000 
#    y 0.000000 2.506660 0.000000 
#    z 0.000000 0.000000 3.703670 
# 
# 
# High freq. dielectric constant tensor:
#      x y z
#    x 1.715590 0.000000 0.000000 
#    y 0.000000 1.611780 0.000000 
#    z 0.000000 0.000000 1.729420 
# 
# From -- ./inp_files/76550.got.cif
#   From: 2010.03.12/outbox.cif.g09.slc.cpg/sg65_39_cif.got.tgz:76550.got - 2010.04.10 20:52:16.
