data_PCOD8272106
_publ_section_title
;
Structure prediction by ZEFSAII (Michael W. Deem and Ramdas Pophale) SiO2 
 PCOD8272106
Probable space group: C M M M
;
_chemical_formula_sum "Si O2"
_cell_formula_units_Z 64
_cell_length_a 23.340525
_cell_length_b 9.774994
_cell_length_c 15.821827
_cell_angle_alpha 90.000000
_cell_angle_beta 90.000000
_cell_angle_gamma 90.000000
_cell_volume 3609.805077
_symmetry_space_group_name_H-M "C M M M"
_symmetry_group_IT_number 65
_symmetry_cell_setting 'orthorhombic'
loop_
_space_group_symop_operation_xyz
x,y,z
-x,-y,z
x,-y,-z
-x,y,-z
-x,-y,-z
x,y,-z
-x,y,z
x,-y,z
1/2+x,1/2+y,z
1/2-x,1/2-y,z
1/2+x,1/2-y,-z
1/2-x,1/2+y,-z
1/2-x,1/2-y,-z
1/2+x,1/2+y,-z
1/2-x,1/2+y,z
1/2+x,1/2-y,z
loop_
_atom_site_type_symbol
_atom_site_label
_atom_site_fract_x
_atom_site_fract_y
_atom_site_fract_z
Si Si1 0.567626 0.843747 0.000000
Si Si2 0.686836 0.500000 0.598042
Si Si3 0.115766 0.245612 0.667682
Si Si4 0.432900 0.660453 0.157892
Si Si5 0.316668 0.000000 0.397158
Si Si6 0.500000 0.847177 0.401310
O O1 0.587525 0.756089 0.080848
O O2 0.500000 0.854827 0.000000
O O3 0.593100 0.000000 0.000000
O O4 0.695957 0.500000 0.500000
O O5 0.651136 0.628643 0.624362
O O6 0.751195 0.500000 0.634185
O O7 0.106708 0.211382 0.765777
O O8 0.153255 0.376634 0.649819
O O9 0.054229 0.258970 0.625047
O O10 0.500000 0.683589 0.178791
O O11 0.421785 0.500000 0.137656
O O12 0.325351 0.000000 0.500000
O O13 0.500000 0.867397 0.500000
O O14 0.500000 0.000000 0.359126
#
# Coordination Sequence:
#
# PCOD8272106 Si02
#       6
#     8   8  16  16   8   8
#     4   9  19  33  57  85 116 153 190 228 280 351
#     4  11  24  41  59  82 113 155 212 259 288 332
#     4  12  22  37  59  86 117 156 196 243 298 354
#     4  10  20  36  54  84 122 155 186 231 293 359
#     4  11  24  41  59  80 113 161 210 257 296 330
#     4  11  22  35  53  82 119 156 191 235 304 365
#
# _framework density 17.729489000000001
#
# number of rings (size 3 to 8) (size 9 to 14) (size 15 to 20)
#    0.000    1.250    3.750    3.375    1.750    4.000 
#    0.000    1.250    0.000    0.000    0.000    5.250 
#    0.000    0.000    0.000    0.000    0.000    0.000 
#
# Total GULP energy -396653.108895 kJ/mol
# GULP energy per Si atom -12395.409653 kJ/mol
# Density = 1.768914 g / cm^3
# Si number density = 17.729489 Si / 1000 Ang^3
#
#
#
# Elastic Constant Matrix: (Units=GPa)
#
#
# Indices 1 2 3 4 5 6 
#
# 1 124.5460 60.3457 27.2400 0.0000 0.0000 0.0000
# 2 60.3457 157.9269 40.6524 0.0000 0.0000 0.0000
# 3 27.2400 40.6524 54.4490 0.0000 0.0000 0.0000
# 4 0.0000 0.0000 0.0000 37.2085 0.0000 0.0000
# 5 0.0000 0.0000 0.0000 0.0000 64.7148 0.0000
# 6 0.0000 0.0000 0.0000 0.0000 0.0000 54.5417
#
#
#
# Elastic Compliance Matrix: (Units=1/GPa)
#
#
# Indices 1 2 3 4 5 6 
#
# 1 0.010166 -0.003188 -0.002706 0.000000 0.000000 0.000000
# 2 -0.003188 0.008838 -0.005004 0.000000 0.000000 0.000000
# 3 -0.002706 -0.005004 0.023455 0.000000 0.000000 0.000000
# 4 0.000000 0.000000 0.000000 0.026876 0.000000 0.000000
# 5 0.000000 0.000000 0.000000 0.000000 0.015452 0.000000
# 6 0.000000 0.000000 0.000000 0.000000 0.000000 0.018335
#
#
# Mechanical properties :
#
#
# Convention : Reuss Voigt Hill
#
# Bulk Modulus (GPa) = 48.39232 65.93312 57.16272
# Shear Modulus (GPa) = 37.93498 45.20526 41.57012
#
# Velocity S-wave (km/s) = 4.63066 5.05495 4.84745
# Velocity P-wave (km/s) = 7.47962 8.44625 7.97759
#
# Compressibility (1/GPa) = 0.02066444
#
# Stress axis : x y z
#
# Youngs Moduli (GPa) = 98.37168 113.14450 42.63429
#
# Poissons Ratio (x) = 0.36070 0.11535
# Poissons Ratio (y) = 0.31360 0.21334
# Poissons Ratio (z) = 0.26614 0.56616
#
# Static dielectric constant tensor:
#      x y z
#    x 3.334410 0.000000 0.000000 
#    y 0.000000 3.503070 0.000000 
#    z 0.000000 0.000000 3.342260 
# 
# 
# High freq. dielectric constant tensor:
#      x y z
#    x 1.667610 0.000000 0.000000 
#    y 0.000000 1.709400 0.000000 
#    z 0.000000 0.000000 1.682060 
# 
# From -- ./inp_files/36089.got.cif
#   From: 2010.03.12/outbox.cif.g09.slc.cpg/sg65_19_cif.got.tgz:36089.got - 2010.04.10 20:52:16.
