data_PCOD8272499
_publ_section_title
;
Structure prediction by ZEFSAII (Michael W. Deem and Ramdas Pophale) SiO2 
 PCOD8272499
Probable space group: C M M M
;
_chemical_formula_sum "Si O2"
_cell_formula_units_Z 88
_cell_length_a 28.317556
_cell_length_b 9.573153
_cell_length_c 17.520991
_cell_angle_alpha 90.000000
_cell_angle_beta 90.000000
_cell_angle_gamma 90.000000
_cell_volume 4749.735597
_symmetry_space_group_name_H-M "C M M M"
_symmetry_group_IT_number 65
_symmetry_cell_setting 'orthorhombic'
loop_
_space_group_symop_operation_xyz
x,y,z
-x,-y,z
x,-y,-z
-x,y,-z
-x,-y,-z
x,y,-z
-x,y,z
x,-y,z
1/2+x,1/2+y,z
1/2-x,1/2-y,z
1/2+x,1/2-y,-z
1/2-x,1/2+y,-z
1/2-x,1/2-y,-z
1/2+x,1/2+y,-z
1/2-x,1/2+y,z
1/2+x,1/2-y,z
loop_
_atom_site_type_symbol
_atom_site_label
_atom_site_fract_x
_atom_site_fract_y
_atom_site_fract_z
Si Si1 0.706886 0.840021 0.411874
Si Si2 0.896088 0.164704 0.087315
Si Si3 0.945768 0.659194 0.789427
Si Si4 0.896826 0.662821 0.632897
Si Si5 0.790971 0.154103 0.090545
Si Si6 0.444095 0.336816 0.500000
O O1 0.697684 0.801640 0.500000
O O2 0.750000 0.750000 0.377813
O O3 0.658953 0.805159 0.367030
O O4 0.721541 0.000000 0.402108
O O5 0.933374 0.243551 0.139517
O O6 0.842997 0.212556 0.110422
O O7 0.901506 0.000000 0.099171
O O8 0.906858 0.205266 0.000000
O O9 0.935938 0.500000 0.813598
O O10 0.914802 0.701222 0.716690
O O11 0.000000 0.682572 0.767191
O O12 0.906540 0.500000 0.611872
O O13 0.923595 0.762082 0.574349
O O14 0.750000 0.250000 0.126805
O O15 0.784391 0.000000 0.125564
O O16 0.785703 0.146103 0.000000
O O17 0.429540 0.500000 0.500000
O O18 0.500000 0.318998 0.500000
#
# Coordination Sequence:
#
# PCOD8272499 Si02
#       6
#    16  16  16  16  16   8
#     4   9  17  31  53  81 109 141 181 219 258 310
#     4   9  19  36  56  78 106 142 182 223 273 335
#     4  10  22  38  56  79 106 139 181 231 281 324
#     4  10  20  38  59  79 107 146 186 219 262 324
#     4   8  14  26  46  73 102 131 166 207 254 312
#     4  11  23  35  52  83 114 139 176 225 270 313
#
# _framework density 18.527348
#
# number of rings (size 3 to 8) (size 9 to 14) (size 15 to 20)
#    0.000    2.636    0.909    1.909    0.000    4.727 
#    0.000    4.545    0.000    4.364    0.000    0.000 
#    0.000    0.000    0.000    0.000    0.000    0.000 
#
# Total GULP energy -545586.682553 kJ/mol
# GULP energy per Si atom -12399.697331 kJ/mol
# Density = 1.848518 g / cm^3
# Si number density = 18.527348 Si / 1000 Ang^3
#
#
#
# Elastic Constant Matrix: (Units=GPa)
#
#
# Indices 1 2 3 4 5 6 
#
# 1 122.7513 59.3898 58.7282 0.0000 0.0000 0.0000
# 2 59.3898 81.7223 52.9410 0.0000 0.0000 0.0000
# 3 58.7282 52.9410 89.6920 0.0000 0.0000 0.0000
# 4 0.0000 0.0000 0.0000 20.4458 0.0000 0.0000
# 5 0.0000 0.0000 0.0000 0.0000 29.9553 0.0000
# 6 0.0000 0.0000 0.0000 0.0000 0.0000 37.1588
#
#
#
# Elastic Compliance Matrix: (Units=1/GPa)
#
#
# Indices 1 2 3 4 5 6 
#
# 1 0.013853 -0.006786 -0.005065 0.000000 0.000000 0.000000
# 2 -0.006786 0.023137 -0.009213 0.000000 0.000000 0.000000
# 3 -0.005065 -0.009213 0.019904 0.000000 0.000000 0.000000
# 4 0.000000 0.000000 0.000000 0.048910 0.000000 0.000000
# 5 0.000000 0.000000 0.000000 0.000000 0.033383 0.000000
# 6 0.000000 0.000000 0.000000 0.000000 0.000000 0.026912
#
#
# Mechanical properties :
#
#
# Convention : Reuss Voigt Hill
#
# Bulk Modulus (GPa) = 67.72833 70.69819 69.21326
# Shear Modulus (GPa) = 23.45782 25.71909 24.58845
#
# Velocity S-wave (km/s) = 3.56212 3.72986 3.64695
# Velocity P-wave (km/s) = 7.31802 7.53597 7.42779
#
# Compressibility (1/GPa) = 0.01476487
#
# Stress axis : x y z
#
# Youngs Moduli (GPa) = 72.18543 43.22148 50.24147
#
# Poissons Ratio (x) = 0.29331 0.25448
# Poissons Ratio (y) = 0.48986 0.46288
# Poissons Ratio (z) = 0.36563 0.39820
#
# Static dielectric constant tensor:
#      x y z
#    x 3.553240 0.000000 0.000000 
#    y 0.000000 3.484690 0.000000 
#    z 0.000000 0.000000 3.130860 
# 
# 
# High freq. dielectric constant tensor:
#      x y z
#    x 1.730130 0.000000 0.000000 
#    y 0.000000 1.715380 0.000000 
#    z 0.000000 0.000000 1.692020 
# 
# From -- ./inp_files/50364.got.cif
#   From: 2010.03.12/outbox.cif.g09.slc.cpg/sg65_26_cif.got.tgz:50364.got - 2010.04.10 20:52:16.
