data_PCOD8272339
_publ_section_title
;
Structure prediction by ZEFSAII (Michael W. Deem and Ramdas Pophale) SiO2 
 PCOD8272339
Probable space group: C M M M
;
_chemical_formula_sum "Si O2"
_cell_formula_units_Z 80
_cell_length_a 22.847282
_cell_length_b 20.428259
_cell_length_c 9.010962
_cell_angle_alpha 90.000000
_cell_angle_beta 90.000000
_cell_angle_gamma 90.000000
_cell_volume 4205.688044
_symmetry_space_group_name_H-M "C M M M"
_symmetry_group_IT_number 65
_symmetry_cell_setting 'orthorhombic'
loop_
_space_group_symop_operation_xyz
x,y,z
-x,-y,z
x,-y,-z
-x,y,-z
-x,-y,-z
x,y,-z
-x,y,z
x,-y,z
1/2+x,1/2+y,z
1/2-x,1/2-y,z
1/2+x,1/2-y,-z
1/2-x,1/2+y,-z
1/2-x,1/2-y,-z
1/2+x,1/2+y,-z
1/2-x,1/2+y,z
1/2+x,1/2-y,z
loop_
_atom_site_type_symbol
_atom_site_label
_atom_site_fract_x
_atom_site_fract_y
_atom_site_fract_z
Si Si1 0.259004 0.923628 0.326506
Si Si2 0.631910 0.626434 0.674418
Si Si3 0.626079 0.880772 0.824770
Si Si4 0.067113 0.755101 0.175077
Si Si5 0.568457 0.000000 0.664956
Si Si6 0.565452 0.500000 0.323288
O O1 0.272876 0.918874 0.500000
O O2 0.199556 0.885668 0.287353
O O3 0.308162 0.885088 0.235790
O O4 0.255478 0.000000 0.278551
O O5 0.621928 0.634592 0.500000
O O6 0.607725 0.690148 0.753598
O O7 0.596884 0.564352 0.738333
O O8 0.595938 0.813213 0.777166
O O9 0.587274 0.936766 0.753859
O O10 0.627013 0.889921 0.000000
O O11 0.000000 0.758836 0.233726
O O12 0.068174 0.764108 0.000000
O O13 0.500000 0.000000 0.649581
O O14 0.597330 0.000000 0.500000
O O15 0.500000 0.500000 0.261831
O O16 0.568458 0.500000 0.500000
#
# Coordination Sequence:
#
# PCOD8272339 Si02
#       6
#    16  16  16  16   8   8
#     4  10  20  37  60  87 122 154 189 243 299 347
#     4  10  20  36  60  88 116 153 196 240 292 350
#     4  11  23  39  61  86 115 156 202 243 290 351
#     4  10  23  42  59  81 119 159 194 242 298 348
#     4  11  23  38  59  88 118 149 192 247 302 353
#     4   9  16  29  53  84 112 141 186 239 284 333
#
# _framework density 19.021858000000002
#
# number of rings (size 3 to 8) (size 9 to 14) (size 15 to 20)
#    0.000    1.800    2.000    2.100    0.000    6.000 
#    0.000    4.500    0.000    1.800    0.000    0.000 
#    0.000    0.000    0.000    0.000    0.000    0.000 
#
# Total GULP energy -496066.897653 kJ/mol
# GULP energy per Si atom -12401.672441 kJ/mol
# Density = 1.897856 g / cm^3
# Si number density = 19.021858 Si / 1000 Ang^3
#
#
#
# Elastic Constant Matrix: (Units=GPa)
#
#
# Indices 1 2 3 4 5 6 
#
# 1 144.3187 82.5863 46.7124 0.0000 0.0000 0.0000
# 2 82.5863 159.3195 53.4917 0.0000 0.0000 0.0000
# 3 46.7124 53.4917 47.0063 0.0000 0.0000 0.0000
# 4 0.0000 0.0000 0.0000 35.4938 0.0000 0.0000
# 5 0.0000 0.0000 0.0000 0.0000 27.2253 0.0000
# 6 0.0000 0.0000 0.0000 0.0000 0.0000 39.3647
#
#
#
# Elastic Compliance Matrix: (Units=1/GPa)
#
#
# Indices 1 2 3 4 5 6 
#
# 1 0.011223 -0.003355 -0.007335 0.000000 0.000000 0.000000
# 2 -0.003355 0.011161 -0.009366 0.000000 0.000000 0.000000
# 3 -0.007335 -0.009366 0.039222 0.000000 0.000000 0.000000
# 4 0.000000 0.000000 0.000000 0.028174 0.000000 0.000000
# 5 0.000000 0.000000 0.000000 0.000000 0.036731 0.000000
# 6 0.000000 0.000000 0.000000 0.000000 0.000000 0.025403
#
#
# Mechanical properties :
#
#
# Convention : Reuss Voigt Hill
#
# Bulk Modulus (GPa) = 46.52805 79.58060 63.05432
# Shear Modulus (GPa) = 25.10155 31.60701 28.35428
#
# Velocity S-wave (km/s) = 3.63659 4.08071 3.86504
# Velocity P-wave (km/s) = 6.49203 8.00813 7.28960
#
# Compressibility (1/GPa) = 0.02149241
#
# Stress axis : x y z
#
# Youngs Moduli (GPa) = 89.10106 89.60095 25.49606
#
# Poissons Ratio (x) = 0.30061 0.18702
# Poissons Ratio (y) = 0.29893 0.23881
# Poissons Ratio (z) = 0.65357 0.83924
#
# Static dielectric constant tensor:
#      x y z
#    x 3.692940 0.000000 0.000000 
#    y 0.000000 3.567570 0.000000 
#    z 0.000000 0.000000 3.346460 
# 
# 
# High freq. dielectric constant tensor:
#      x y z
#    x 1.759470 0.000000 0.000000 
#    y 0.000000 1.747000 0.000000 
#    z 0.000000 0.000000 1.724450 
# 
# From -- ./inp_files/13827.got.cif
#   From: 2010.03.12/outbox.cif.g09.slc.cpg/sg65_7_cif.got.tgz:13827.got - 2010.04.10 20:52:16.
