data_PCOD8272255
_publ_section_title
;
Structure prediction by ZEFSAII (Michael W. Deem and Ramdas Pophale) SiO2 
 PCOD8272255
Probable space group: C M M M
;
_chemical_formula_sum "Si O2"
_cell_formula_units_Z 104
_cell_length_a 29.111174
_cell_length_b 8.806722
_cell_length_c 20.504657
_cell_angle_alpha 90.000000
_cell_angle_beta 90.000000
_cell_angle_gamma 90.000000
_cell_volume 5256.861272
_symmetry_space_group_name_H-M "C M M M"
_symmetry_group_IT_number 65
_symmetry_cell_setting 'orthorhombic'
loop_
_space_group_symop_operation_xyz
x,y,z
-x,-y,z
x,-y,-z
-x,y,-z
-x,-y,-z
x,y,-z
-x,y,z
x,-y,z
1/2+x,1/2+y,z
1/2-x,1/2-y,z
1/2+x,1/2-y,-z
1/2-x,1/2+y,-z
1/2-x,1/2-y,-z
1/2+x,1/2+y,-z
1/2-x,1/2+y,z
1/2+x,1/2-y,z
loop_
_atom_site_type_symbol
_atom_site_label
_atom_site_fract_x
_atom_site_fract_y
_atom_site_fract_z
Si Si1 0.611347 0.318866 0.117494
Si Si2 0.700775 0.820062 0.166351
Si Si3 0.949636 0.819931 0.764958
Si Si4 0.362151 0.822594 0.571372
Si Si5 0.051587 0.178589 0.619675
Si Si6 0.798120 0.679046 0.685207
Si Si7 0.053995 0.319670 0.000000
O O1 0.613396 0.500000 0.109737
O O2 0.662873 0.251336 0.117676
O O3 0.588547 0.262645 0.184914
O O4 0.579702 0.249810 0.061747
O O5 0.750000 0.750000 0.147424
O O6 0.687801 0.775228 0.241011
O O7 0.702804 0.000000 0.156460
O O8 0.937913 0.760063 0.692772
O O9 0.000000 0.758858 0.786380
O O10 0.951229 0.000000 0.763955
O O11 0.340275 0.785084 0.500000
O O12 0.413338 0.756333 0.570660
O O13 0.333204 0.752352 0.631515
O O14 0.365775 0.000000 0.582081
O O15 0.000000 0.223053 0.598849
O O16 0.058464 0.000000 0.616240
O O17 0.793756 0.500000 0.678786
O O18 0.750000 0.750000 0.666338
O O19 0.059336 0.500000 0.000000
O O20 0.000000 0.272725 0.000000
#
# Coordination Sequence:
#
# PCOD8272255 Si02
#       7
#    16  16  16  16  16  16   8
#     4  11  21  35  59  87 114 147 186 226 271 321
#     4  10  20  36  58  84 113 143 180 226 276 328
#     4   8  15  29  51  79 107 134 169 218 272 322
#     4  10  21  35  49  69 101 139 177 218 268 326
#     4   9  18  33  52  74 100 131 172 222 271 319
#     4   9  19  35  55  79 107 139 176 221 272 325
#     4  11  25  43  60  83 120 161 195 225 261 309
#
# _framework density 19.783667999999999
#
# number of rings (size 3 to 8) (size 9 to 14) (size 15 to 20)
#    0.000    2.385    0.000    3.462    0.000    3.692 
#    0.000    2.692    0.000    1.846    0.000    0.000 
#    0.000    0.000    0.000    0.000    0.000    0.000 
#
# Total GULP energy -644598.013261 kJ/mol
# GULP energy per Si atom -12396.115640 kJ/mol
# Density = 1.973864 g / cm^3
# Si number density = 19.783668 Si / 1000 Ang^3
#
#
#
# Elastic Constant Matrix: (Units=GPa)
#
#
# Indices 1 2 3 4 5 6 
#
# 1 140.4715 43.1877 62.1692 0.0000 0.0000 0.0000
# 2 43.1877 48.6695 34.7094 0.0000 0.0000 0.0000
# 3 62.1692 34.7094 74.5995 0.0000 0.0000 0.0000
# 4 0.0000 0.0000 0.0000 24.1031 0.0000 0.0000
# 5 0.0000 0.0000 0.0000 0.0000 142.7052 0.0000
# 6 0.0000 0.0000 0.0000 0.0000 0.0000 32.0738
#
#
#
# Elastic Compliance Matrix: (Units=1/GPa)
#
#
# Indices 1 2 3 4 5 6 
#
# 1 0.012135 -0.005322 -0.007637 0.000000 0.000000 0.000000
# 2 -0.005322 0.033084 -0.010958 0.000000 0.000000 0.000000
# 3 -0.007637 -0.010958 0.024868 0.000000 0.000000 0.000000
# 4 0.000000 0.000000 0.000000 0.041489 0.000000 0.000000
# 5 0.000000 0.000000 0.000000 0.000000 0.007007 0.000000
# 6 0.000000 0.000000 0.000000 0.000000 0.000000 0.031178
#
#
# Mechanical properties :
#
#
# Convention : Reuss Voigt Hill
#
# Bulk Modulus (GPa) = 44.93732 60.43036 52.68384
# Shear Modulus (GPa) = 24.38875 48.02136 36.20505
#
# Velocity S-wave (km/s) = 3.51489 4.93213 4.28255
# Velocity P-wave (km/s) = 6.26389 7.94018 7.15132
#
# Compressibility (1/GPa) = 0.02225322
#
# Stress axis : x y z
#
# Youngs Moduli (GPa) = 82.40678 30.22588 40.21255
#
# Poissons Ratio (x) = 0.16086 0.30710
# Poissons Ratio (y) = 0.43855 0.44066
# Poissons Ratio (z) = 0.62932 0.33122
#
# Static dielectric constant tensor:
#      x y z
#    x 3.749020 0.000000 0.000000 
#    y 0.000000 3.342180 0.000000 
#    z 0.000000 0.000000 3.824100 
# 
# 
# High freq. dielectric constant tensor:
#      x y z
#    x 1.778410 0.000000 0.000000 
#    y 0.000000 1.753070 0.000000 
#    z 0.000000 0.000000 1.766790 
# 
# From -- ./inp_files/66372.got.cif
#   From: 2010.03.12/outbox.cif.g09.slc.cpg/sg65_34_cif.got.tgz:66372.got - 2010.04.10 20:52:16.
