data_PCOD8272879
_publ_section_title
;
Structure prediction by ZEFSAII (Michael W. Deem and Ramdas Pophale) SiO2 
 PCOD8272879
Probable space group: C M M M
;
_chemical_formula_sum "Si O2"
_cell_formula_units_Z 88
_cell_length_a 24.463621
_cell_length_b 23.013572
_cell_length_c 8.821209
_cell_angle_alpha 90.000000
_cell_angle_beta 90.000000
_cell_angle_gamma 90.000000
_cell_volume 4966.299236
_symmetry_space_group_name_H-M "C M M M"
_symmetry_group_IT_number 65
_symmetry_cell_setting 'orthorhombic'
loop_
_space_group_symop_operation_xyz
x,y,z
-x,-y,z
x,-y,-z
-x,y,-z
-x,-y,-z
x,y,-z
-x,y,z
x,-y,z
1/2+x,1/2+y,z
1/2-x,1/2-y,z
1/2+x,1/2-y,-z
1/2-x,1/2+y,-z
1/2-x,1/2-y,-z
1/2+x,1/2+y,-z
1/2-x,1/2+y,z
1/2+x,1/2-y,z
loop_
_atom_site_type_symbol
_atom_site_label
_atom_site_fract_x
_atom_site_fract_y
_atom_site_fract_z
Si Si1 0.644884 0.934767 0.319766
Si Si2 0.765175 0.935386 0.679563
Si Si3 0.621786 0.609917 0.679448
Si Si4 0.437300 0.837913 0.322788
Si Si5 0.063074 0.216732 0.177039
Si Si6 0.564405 0.500000 0.175288
O O1 0.642256 0.935452 0.500000
O O2 0.705352 0.914009 0.263882
O O3 0.599650 0.890248 0.257148
O O4 0.632752 0.000000 0.258939
O O5 0.763956 0.938246 0.500000
O O6 0.814681 0.894052 0.733232
O O7 0.776725 0.000000 0.743565
O O8 0.616457 0.605626 0.500000
O O9 0.600006 0.671309 0.734591
O O10 0.587424 0.557702 0.748873
O O11 0.426775 0.826554 0.500000
O O12 0.500000 0.854926 0.291692
O O13 0.420286 0.780548 0.232223
O O14 0.000000 0.204015 0.215969
O O15 0.074628 0.211087 0.000000
O O16 0.500000 0.500000 0.198519
O O17 0.580792 0.500000 0.000000
#
# Coordination Sequence:
#
# PCOD8272879 Si02
#       6
#    16  16  16  16  16   8
#     4   8  14  26  48  77 106 131 155 195 248 295
#     4   8  14  27  46  71 100 128 160 198 243 292
#     4  11  20  32  52  75  96 125 169 215 248 281
#     4   9  17  30  50  77 103 127 162 204 243 289
#     4  10  21  36  51  67  94 134 170 201 249 306
#     4  11  23  35  47  69 103 135 162 199 250 304
#
# _framework density 17.719431
#
# number of rings (size 3 to 8) (size 9 to 14) (size 15 to 20)
#    0.000    2.636    0.909    3.000    0.000    4.364 
#    0.000    2.727    0.000    8.182    0.000    2.545 
#    0.000    0.000    0.000    0.000    0.000    0.000 
#
# Total GULP energy -545417.411471 kJ/mol
# GULP energy per Si atom -12395.850261 kJ/mol
# Density = 1.767910 g / cm^3
# Si number density = 17.719431 Si / 1000 Ang^3
#
#
#
# Elastic Constant Matrix: (Units=GPa)
#
#
# Indices 1 2 3 4 5 6 
#
# 1 131.5743 92.5617 39.8372 0.0000 0.0000 0.0000
# 2 92.5617 121.0999 34.3912 0.0000 0.0000 0.0000
# 3 39.8372 34.3912 46.4918 0.0000 0.0000 0.0000
# 4 0.0000 0.0000 0.0000 -1.2636 0.0000 0.0000
# 5 0.0000 0.0000 0.0000 0.0000 8.4973 0.0000
# 6 0.0000 0.0000 0.0000 0.0000 0.0000 8.3725
#
#
#
# Elastic Compliance Matrix: (Units=1/GPa)
#
#
# Indices 1 2 3 4 5 6 
#
# 1 0.017913 -0.011815 -0.006609 0.000000 0.000000 0.000000
# 2 -0.011815 0.018246 -0.003374 0.000000 0.000000 0.000000
# 3 -0.006609 -0.003374 0.029668 0.000000 0.000000 0.000000
# 4 0.000000 0.000000 0.000000 -0.791415 0.000000 0.000000
# 5 0.000000 0.000000 0.000000 0.000000 0.117684 0.000000
# 6 0.000000 0.000000 0.000000 0.000000 0.000000 0.119438
#
#
# Mechanical properties :
#
#
# Convention : Reuss Voigt Hill
#
# Bulk Modulus (GPa) = 44.98042 70.30512 57.64277
# Shear Modulus (GPa) = -11.42962 11.94633 0.25835
#
# Velocity S-wave (km/s) = -2.54251 2.59934 0.38225
# Velocity P-wave (km/s) = 4.10132 6.98368 5.72680
#
# Compressibility (1/GPa) = 0.02223190
#
# Stress axis : x y z
#
# Youngs Moduli (GPa) = 55.82572 54.80630 33.70634
#
# Poissons Ratio (x) = 0.64751 0.22278
# Poissons Ratio (y) = 0.65956 0.11371
# Poissons Ratio (z) = 0.36897 0.18489
#
# Static dielectric constant tensor:
#      x y z
#    x 3.653450 0.000000 0.000000 
#    y 0.000000 3.203350 0.000000 
#    z 0.000000 0.000000 3.023620 
# 
# 
# High freq. dielectric constant tensor:
#      x y z
#    x 1.693110 0.000000 0.000000 
#    y 0.000000 1.679410 0.000000 
#    z 0.000000 0.000000 1.655860 
# 
# From -- ./inp_files/11764.got.cif
#   From: 2010.03.12/outbox.cif.g09.slc.cpg/sg65_6_cif.got.tgz:11764.got - 2010.04.10 20:52:16.
