data_PCOD8272081
_publ_section_title
;
Structure prediction by ZEFSAII (Michael W. Deem and Ramdas Pophale) SiO2 
 PCOD8272081
Probable space group: C M M M
;
_chemical_formula_sum "Si O2"
_cell_formula_units_Z 64
_cell_length_a 27.000545
_cell_length_b 13.927653
_cell_length_c 7.889101
_cell_angle_alpha 90.000000
_cell_angle_beta 90.000000
_cell_angle_gamma 90.000000
_cell_volume 2966.729735
_symmetry_space_group_name_H-M "C M M M"
_symmetry_group_IT_number 65
_symmetry_cell_setting 'orthorhombic'
loop_
_space_group_symop_operation_xyz
x,y,z
-x,-y,z
x,-y,-z
-x,y,-z
-x,-y,-z
x,y,-z
-x,y,z
x,-y,z
1/2+x,1/2+y,z
1/2-x,1/2-y,z
1/2+x,1/2-y,-z
1/2-x,1/2+y,-z
1/2-x,1/2-y,-z
1/2+x,1/2+y,-z
1/2-x,1/2+y,z
1/2+x,1/2-y,z
loop_
_atom_site_type_symbol
_atom_site_label
_atom_site_fract_x
_atom_site_fract_y
_atom_site_fract_z
Si Si1 0.779618 0.149116 0.500000
Si Si2 0.941990 0.218721 0.806989
Si Si3 0.378022 0.110492 0.301308
Si Si4 0.768799 0.642444 0.180924
Si Si5 0.108327 0.113674 0.500000
O O1 0.750000 0.250000 0.500000
O O2 0.761965 0.090640 0.667884
O O3 0.838165 0.164777 0.500000
O O4 0.920975 0.325445 0.780123
O O5 0.919321 0.144412 0.671764
O O6 0.000000 0.223577 0.773459
O O7 0.930535 0.184283 0.000000
O O8 0.375089 0.130944 0.500000
O O9 0.326771 0.140974 0.217388
O O10 0.390419 0.000000 0.261917
O O11 0.750000 0.750000 0.166933
O O12 0.759064 0.590530 0.000000
O O13 0.114649 0.000000 0.500000
#
# Coordination Sequence:
#
# PCOD8272081 Si02
#       5
#     8  16  16  16   8
#     4  10  20  37  61  91 129 170 214 263 318 387
#     4  11  25  46  72 100 132 174 224 277 340 411
#     4  11  23  40  67 101 138 179 224 275 332 401
#     4  10  20  35  59  90 128 174 220 265 316 377
#     4  12  27  46  71 101 136 174 223 286 342 393
#
# _framework density 21.572573999999999
#
# number of rings (size 3 to 8) (size 9 to 14) (size 15 to 20)
#    0.000    1.250    2.500    4.125    0.000    8.000 
#    0.000    3.750    0.000    0.000    0.000    0.000 
#    0.000    0.000    0.000    0.000    0.000    0.000 
#
# Total GULP energy -396617.239592 kJ/mol
# GULP energy per Si atom -12394.288737 kJ/mol
# Density = 2.152347 g / cm^3
# Si number density = 21.572574 Si / 1000 Ang^3
#
#
#
# Elastic Constant Matrix: (Units=GPa)
#
#
# Indices 1 2 3 4 5 6 
#
# 1 137.1327 40.7370 88.7130 0.0000 0.0000 0.0000
# 2 40.7370 98.9927 30.9872 0.0000 0.0000 0.0000
# 3 88.7130 30.9872 217.7944 0.0000 0.0000 0.0000
# 4 0.0000 0.0000 0.0000 -12.2126 0.0000 0.0000
# 5 0.0000 0.0000 0.0000 0.0000 41.0498 0.0000
# 6 0.0000 0.0000 0.0000 0.0000 0.0000 -6.1326
#
#
#
# Elastic Compliance Matrix: (Units=1/GPa)
#
#
# Indices 1 2 3 4 5 6 
#
# 1 0.010794 -0.003209 -0.003940 0.000000 0.000000 0.000000
# 2 -0.003209 0.011526 -0.000333 0.000000 0.000000 0.000000
# 3 -0.003940 -0.000333 0.006244 0.000000 0.000000 0.000000
# 4 0.000000 0.000000 0.000000 -0.081882 0.000000 0.000000
# 5 0.000000 0.000000 0.000000 0.000000 0.024361 0.000000
# 6 0.000000 0.000000 0.000000 0.000000 0.000000 -0.163064
#
#
# Mechanical properties :
#
#
# Convention : Reuss Voigt Hill
#
# Bulk Modulus (GPa) = 73.52526 86.08824 79.80675
# Shear Modulus (GPa) = -28.98152 24.10642 -2.43755
#
# Velocity S-wave (km/s) = -3.66928 3.34647 -1.06413
# Velocity P-wave (km/s) = 4.02558 7.41112 5.96364
#
# Compressibility (1/GPa) = 0.01360077
#
# Stress axis : x y z
#
# Youngs Moduli (GPa) = 92.64048 86.75741 160.15762
#
# Poissons Ratio (x) = 0.27837 0.63107
# Poissons Ratio (y) = 0.29725 0.05333
# Poissons Ratio (z) = 0.36503 0.02889
#
# Static dielectric constant tensor:
#      x y z
#    x 3.800310 0.000000 0.000000 
#    y 0.000000 3.754120 0.000000 
#    z 0.000000 0.000000 7.043550 
# 
# 
# High freq. dielectric constant tensor:
#      x y z
#    x 1.843020 0.000000 0.000000 
#    y 0.000000 1.835680 0.000000 
#    z 0.000000 0.000000 1.881620 
# 
# From -- ./inp_files/13369.got.cif
#   From: 2010.03.12/outbox.cif.g09.slc.cpg/sg65_7_cif.got.tgz:13369.got - 2010.04.10 20:52:16.
