data_PCOD8272469
_publ_section_title
;
Structure prediction by ZEFSAII (Michael W. Deem and Ramdas Pophale) SiO2 
 PCOD8272469
Probable space group: C M M M
;
_chemical_formula_sum "Si O2"
_cell_formula_units_Z 80
_cell_length_a 14.040851
_cell_length_b 23.561021
_cell_length_c 11.331045
_cell_angle_alpha 90.000000
_cell_angle_beta 90.000000
_cell_angle_gamma 90.000000
_cell_volume 3748.499881
_symmetry_space_group_name_H-M "C M M M"
_symmetry_group_IT_number 65
_symmetry_cell_setting 'orthorhombic'
loop_
_space_group_symop_operation_xyz
x,y,z
-x,-y,z
x,-y,-z
-x,y,-z
-x,-y,-z
x,y,-z
-x,y,z
x,-y,z
1/2+x,1/2+y,z
1/2-x,1/2-y,z
1/2+x,1/2-y,-z
1/2-x,1/2+y,-z
1/2-x,1/2-y,-z
1/2+x,1/2+y,-z
1/2-x,1/2+y,z
1/2+x,1/2-y,z
loop_
_atom_site_type_symbol
_atom_site_label
_atom_site_fract_x
_atom_site_fract_y
_atom_site_fract_z
Si Si1 0.291008 0.811315 0.500000
Si Si2 0.104111 0.882824 0.500000
Si Si3 0.612487 0.281365 0.867327
Si Si4 0.106739 0.099728 0.760955
Si Si5 0.292307 0.063217 0.135285
Si Si6 0.387295 0.831372 0.256500
O O1 0.250000 0.750000 0.500000
O O2 0.193745 0.844156 0.500000
O O3 0.357525 0.825207 0.390651
O O4 0.109385 0.918106 0.377643
O O5 0.000000 0.850716 0.500000
O O6 0.500000 0.274350 0.870796
O O7 0.638938 0.334180 0.781464
O O8 0.655898 0.222242 0.816873
O O9 0.651987 0.292142 0.000000
O O10 0.180336 0.061043 0.831554
O O11 0.000000 0.090173 0.811654
O O12 0.348677 0.108692 0.211447
O O13 0.333593 0.000000 0.158446
O O14 0.304122 0.080429 0.000000
O O15 0.500000 0.832510 0.246016
#
# Coordination Sequence:
#
# PCOD8272469 Si02
#       6
#     8   8  16  16  16  16
#     4  12  23  39  66  99 135 170 207 255 329 396
#     4  10  20  37  62  89 123 163 199 245 313 387
#     4   9  18  33  57  89 124 163 205 254 320 394
#     4  10  20  38  63  94 129 165 209 266 335 404
#     4  11  25  43  65  94 128 174 228 277 328 384
#     4  11  24  42  64  95 132 171 219 270 321 384
#
# _framework density 21.341871999999999
#
# number of rings (size 3 to 8) (size 9 to 14) (size 15 to 20)
#    0.000    1.600    2.000    2.700    0.000    5.600 
#    0.000    6.000    0.000    3.000    0.000    0.000 
#    0.000    0.000    0.000    0.000    0.000    0.000 
#
# Total GULP energy -495807.010971 kJ/mol
# GULP energy per Si atom -12395.175274 kJ/mol
# Density = 2.129330 g / cm^3
# Si number density = 21.341872 Si / 1000 Ang^3
#
#
#
# Elastic Constant Matrix: (Units=GPa)
#
#
# Indices 1 2 3 4 5 6 
#
# 1 54.8697 19.4915 11.8935 0.0000 0.0000 0.0000
# 2 19.4915 91.7931 53.2458 0.0000 0.0000 0.0000
# 3 11.8935 53.2458 145.1239 0.0000 0.0000 0.0000
# 4 0.0000 0.0000 0.0000 21.6028 0.0000 0.0000
# 5 0.0000 0.0000 0.0000 0.0000 54.6622 0.0000
# 6 0.0000 0.0000 0.0000 0.0000 0.0000 23.4252
#
#
#
# Elastic Compliance Matrix: (Units=1/GPa)
#
#
# Indices 1 2 3 4 5 6 
#
# 1 0.019713 -0.004127 -0.000101 0.000000 0.000000 0.000000
# 2 -0.004127 0.014703 -0.005056 0.000000 0.000000 0.000000
# 3 -0.000101 -0.005056 0.008754 0.000000 0.000000 0.000000
# 4 0.000000 0.000000 0.000000 0.046290 0.000000 0.000000
# 5 0.000000 0.000000 0.000000 0.000000 0.018294 0.000000
# 6 0.000000 0.000000 0.000000 0.000000 0.000000 0.042689
#
#
# Mechanical properties :
#
#
# Convention : Reuss Voigt Hill
#
# Bulk Modulus (GPa) = 40.64894 51.22758 45.93826
# Shear Modulus (GPa) = 28.21443 33.74844 30.98144
#
# Velocity S-wave (km/s) = 3.63991 3.98090 3.81422
# Velocity P-wave (km/s) = 6.06244 6.72202 6.40073
#
# Compressibility (1/GPa) = 0.02460089
#
# Stress axis : x y z
#
# Youngs Moduli (GPa) = 50.72785 68.01103 114.23120
#
# Poissons Ratio (x) = 0.28069 0.01157
# Poissons Ratio (y) = 0.20936 0.57761
# Poissons Ratio (z) = 0.00514 0.34390
#
# Static dielectric constant tensor:
#      x y z
#    x 3.904400 0.000000 0.000000 
#    y 0.000000 3.668270 0.000000 
#    z 0.000000 0.000000 4.245750 
# 
# 
# High freq. dielectric constant tensor:
#      x y z
#    x 1.844820 0.000000 0.000000 
#    y 0.000000 1.815180 0.000000 
#    z 0.000000 0.000000 1.847850 
# 
# From -- ./inp_files/24706.got.cif
#   From: 2010.03.12/outbox.cif.g09.slc.cpg/sg65_13_cif.got.tgz:24706.got - 2010.04.10 20:52:16.
