data_PCOD8272483
_publ_section_title
;
Structure prediction by ZEFSAII (Michael W. Deem and Ramdas Pophale) SiO2 
 PCOD8272483
Probable space group: C M M M
;
_chemical_formula_sum "Si O2"
_cell_formula_units_Z 64
_cell_length_a 21.070145
_cell_length_b 10.170992
_cell_length_c 15.654293
_cell_angle_alpha 90.000000
_cell_angle_beta 90.000000
_cell_angle_gamma 90.000000
_cell_volume 3354.781931
_symmetry_space_group_name_H-M "C M M M"
_symmetry_group_IT_number 65
_symmetry_cell_setting 'orthorhombic'
loop_
_space_group_symop_operation_xyz
x,y,z
-x,-y,z
x,-y,-z
-x,y,-z
-x,-y,-z
x,y,-z
-x,y,z
x,-y,z
1/2+x,1/2+y,z
1/2-x,1/2-y,z
1/2+x,1/2-y,-z
1/2-x,1/2+y,-z
1/2-x,1/2-y,-z
1/2+x,1/2+y,-z
1/2-x,1/2+y,z
1/2+x,1/2-y,z
loop_
_atom_site_type_symbol
_atom_site_label
_atom_site_fract_x
_atom_site_fract_y
_atom_site_fract_z
Si Si1 0.000000 0.221522 0.900488
Si Si2 0.636638 0.154148 0.318266
Si Si3 0.192807 0.648641 0.500000
Si Si4 0.500000 0.852229 0.735283
Si Si5 0.750000 0.750000 0.209454
Si Si6 0.262979 0.500000 0.901854
Si Si7 0.588928 0.500000 0.095634
O O1 0.060733 0.136056 0.868607
O O2 0.000000 0.348057 0.839250
O O3 0.000000 0.266192 0.000000
O O4 0.648557 0.171599 0.418404
O O5 0.565566 0.210125 0.300719
O O6 0.687298 0.247334 0.268651
O O7 0.644034 0.000000 0.290602
O O8 0.220780 0.500000 0.500000
O O9 0.250000 0.750000 0.500000
O O10 0.500000 0.000000 0.703356
O O11 0.760150 0.627341 0.147292
O O12 0.337524 0.500000 0.897175
O O13 0.238156 0.500000 0.000000
O O14 0.562469 0.500000 0.000000
#
# Coordination Sequence:
#
# PCOD8272483 Si02
#       7
#     8  16   8   8   8   8   8
#     4   9  16  31  52  76 104 145 196 236 278 339
#     4  10  21  38  59  89 116 152 193 240 291 350
#     4  10  20  37  63  91 117 149 192 232 294 356
#     4  10  21  35  54  80 120 151 186 237 286 336
#     4  12  21  37  60  82 116 150 200 241 289 344
#     4  11  23  36  53  80 114 154 194 244 294 339
#     4   8  16  31  52  72  97 138 191 237 276 331
#
# _framework density 19.077245000000001
#
# number of rings (size 3 to 8) (size 9 to 14) (size 15 to 20)
#    0.000    2.000    2.500    2.625    0.000    0.750 
#    0.000    3.750    0.000    0.000    0.000    0.875 
#    0.000    0.000    0.000    0.000    0.000    0.000 
#
# Total GULP energy -396466.445673 kJ/mol
# GULP energy per Si atom -12389.576427 kJ/mol
# Density = 1.903382 g / cm^3
# Si number density = 19.077245 Si / 1000 Ang^3
#
#
#
# Elastic Constant Matrix: (Units=GPa)
#
#
# Indices 1 2 3 4 5 6 
#
# 1 131.2413 22.9865 55.4564 0.0000 0.0000 0.0000
# 2 22.9865 64.3239 42.3665 0.0000 0.0000 0.0000
# 3 55.4564 42.3665 137.4134 0.0000 0.0000 0.0000
# 4 0.0000 0.0000 0.0000 37.0613 0.0000 0.0000
# 5 0.0000 0.0000 0.0000 0.0000 27.0374 0.0000
# 6 0.0000 0.0000 0.0000 0.0000 0.0000 23.6938
#
#
#
# Elastic Compliance Matrix: (Units=1/GPa)
#
#
# Indices 1 2 3 4 5 6 
#
# 1 0.009243 -0.001062 -0.003403 0.000000 0.000000 0.000000
# 2 -0.001062 0.019630 -0.005624 0.000000 0.000000 0.000000
# 3 -0.003403 -0.005624 0.010385 0.000000 0.000000 0.000000
# 4 0.000000 0.000000 0.000000 0.026982 0.000000 0.000000
# 5 0.000000 0.000000 0.000000 0.000000 0.036986 0.000000
# 6 0.000000 0.000000 0.000000 0.000000 0.000000 0.042205
#
#
# Mechanical properties :
#
#
# Convention : Reuss Voigt Hill
#
# Bulk Modulus (GPa) = 52.40871 63.84417 58.12644
# Shear Modulus (GPa) = 29.07514 31.70312 30.38913
#
# Velocity S-wave (km/s) = 3.90817 4.08098 3.99551
# Velocity P-wave (km/s) = 6.92074 7.46623 7.19865
#
# Compressibility (1/GPa) = 0.01908080
#
# Stress axis : x y z
#
# Youngs Moduli (GPa) = 108.18419 50.94312 96.29712
#
# Poissons Ratio (x) = 0.05409 0.32770
# Poissons Ratio (y) = 0.11487 0.54154
# Poissons Ratio (z) = 0.36816 0.28648
#
# Static dielectric constant tensor:
#      x y z
#    x 3.444830 0.000000 0.000000 
#    y 0.000000 3.354380 0.000000 
#    z 0.000000 0.000000 3.613760 
# 
# 
# High freq. dielectric constant tensor:
#      x y z
#    x 1.745760 0.000000 0.000000 
#    y 0.000000 1.721440 0.000000 
#    z 0.000000 0.000000 1.741910 
# 
# From -- ./inp_files/45179.got.cif
#   From: 2010.03.12/outbox.cif.g09.slc.cpg/sg65_23_cif.got.tgz:45179.got - 2010.04.10 20:52:16.
