data_PCOD8272032
_publ_section_title
;
Structure prediction by ZEFSAII (Michael W. Deem and Ramdas Pophale) SiO2 
 PCOD8272032
Probable space group: C M M M
;
_chemical_formula_sum "Si O2"
_cell_formula_units_Z 88
_cell_length_a 9.164174
_cell_length_b 23.212608
_cell_length_c 22.320859
_cell_angle_alpha 90.000000
_cell_angle_beta 90.000000
_cell_angle_gamma 90.000000
_cell_volume 4748.190863
_symmetry_space_group_name_H-M "C M M M"
_symmetry_group_IT_number 65
_symmetry_cell_setting 'orthorhombic'
loop_
_space_group_symop_operation_xyz
x,y,z
-x,-y,z
x,-y,-z
-x,y,-z
-x,-y,-z
x,y,-z
-x,y,z
x,-y,z
1/2+x,1/2+y,z
1/2-x,1/2-y,z
1/2+x,1/2-y,-z
1/2-x,1/2+y,-z
1/2-x,1/2-y,-z
1/2+x,1/2+y,-z
1/2-x,1/2+y,z
1/2+x,1/2-y,z
loop_
_atom_site_type_symbol
_atom_site_label
_atom_site_fract_x
_atom_site_fract_y
_atom_site_fract_z
Si Si1 0.168557 0.881269 0.838438
Si Si2 0.331156 0.690226 0.720614
Si Si3 0.331103 0.191690 0.069738
Si Si4 0.835082 0.500000 0.342934
Si Si5 0.672456 0.500000 0.218854
Si Si6 0.168454 0.624132 0.619318
Si Si7 0.828248 0.689079 0.500000
O O1 0.192752 0.834981 0.786344
O O2 0.264265 0.862380 0.895114
O O3 0.225272 0.943690 0.817176
O O4 0.000000 0.884270 0.857900
O O5 0.500000 0.699895 0.706008
O O6 0.250000 0.750000 0.714715
O O7 0.266985 0.645918 0.673267
O O8 0.500000 0.199133 0.086410
O O9 0.250000 0.250000 0.089265
O O10 0.307960 0.178813 0.000000
O O11 0.733031 0.500000 0.285457
O O12 0.807161 0.555459 0.384826
O O13 0.000000 0.500000 0.318224
O O14 0.500000 0.500000 0.226168
O O15 0.221457 0.652870 0.557763
O O16 0.000000 0.639531 0.632305
O O17 0.750000 0.750000 0.500000
O O18 0.000000 0.699902 0.500000
#
# Coordination Sequence:
#
# PCOD8272032 Si02
#       7
#    16  16  16   8   8  16   8
#     4  10  21  36  57  83 111 147 187 230 279 331
#     4  11  22  35  54  81 112 144 182 231 282 332
#     4  10  21  37  58  84 115 150 188 232 280 331
#     4  10  20  35  58  85 111 144 185 229 281 334
#     4  10  20  38  58  82 115 149 185 228 279 330
#     4  10  21  37  57  82 111 145 186 229 278 334
#     4  10  22  39  57  79 111 148 187 232 279 334
#
# _framework density 18.533376000000001
#
# number of rings (size 3 to 8) (size 9 to 14) (size 15 to 20)
#    0.000    1.818    1.818    2.182    0.000    7.273 
#    0.000    2.273    0.000    2.727    0.000    2.545 
#    0.000    0.000    0.000    0.000    0.000    0.000 
#
# Total GULP energy -545779.327462 kJ/mol
# GULP energy per Si atom -12404.075624 kJ/mol
# Density = 1.849119 g / cm^3
# Si number density = 18.533376 Si / 1000 Ang^3
#
#
#
# Elastic Constant Matrix: (Units=GPa)
#
#
# Indices 1 2 3 4 5 6 
#
# 1 74.7675 43.1786 43.3774 0.0000 0.0000 0.0000
# 2 43.1786 135.4919 46.0696 0.0000 0.0000 0.0000
# 3 43.3774 46.0696 85.4604 0.0000 0.0000 0.0000
# 4 0.0000 0.0000 0.0000 32.5698 0.0000 0.0000
# 5 0.0000 0.0000 0.0000 0.0000 26.0537 0.0000
# 6 0.0000 0.0000 0.0000 0.0000 0.0000 27.1748
#
#
#
# Elastic Compliance Matrix: (Units=1/GPa)
#
#
# Indices 1 2 3 4 5 6 
#
# 1 0.020321 -0.003635 -0.008355 0.000000 0.000000 0.000000
# 2 -0.003635 0.009687 -0.003377 0.000000 0.000000 0.000000
# 3 -0.008355 -0.003377 0.017763 0.000000 0.000000 0.000000
# 4 0.000000 0.000000 0.000000 0.030703 0.000000 0.000000
# 5 0.000000 0.000000 0.000000 0.000000 0.038382 0.000000
# 6 0.000000 0.000000 0.000000 0.000000 0.000000 0.036799
#
#
# Mechanical properties :
#
#
# Convention : Reuss Voigt Hill
#
# Bulk Modulus (GPa) = 58.69635 62.33011 60.51323
# Shear Modulus (GPa) = 26.30627 28.03260 27.16943
#
# Velocity S-wave (km/s) = 3.77158 3.89337 3.83296
# Velocity P-wave (km/s) = 7.12080 7.34271 7.23261
#
# Compressibility (1/GPa) = 0.01703683
#
# Stress axis : x y z
#
# Youngs Moduli (GPa) = 49.20927 103.22870 56.29827
#
# Poissons Ratio (x) = 0.37526 0.47037
# Poissons Ratio (y) = 0.17889 0.19012
# Poissons Ratio (z) = 0.41114 0.34861
#
# Static dielectric constant tensor:
#      x y z
#    x 3.434890 0.000000 0.000000 
#    y 0.000000 3.608880 0.000000 
#    z 0.000000 0.000000 3.352970 
# 
# 
# High freq. dielectric constant tensor:
#      x y z
#    x 1.720270 0.000000 0.000000 
#    y 0.000000 1.729870 0.000000 
#    z 0.000000 0.000000 1.714850 
# 
# From -- ./inp_files/59862.got.cif
#   From: 2010.03.12/outbox.cif.g09.slc.cpg/sg65_30_cif.got.tgz:59862.got - 2010.04.10 20:52:16.
