data_PCOD8272566
_publ_section_title
;
Structure prediction by ZEFSAII (Michael W. Deem and Ramdas Pophale) SiO2 
 PCOD8272566
Probable space group: C M M M
;
_chemical_formula_sum "Si O2"
_cell_formula_units_Z 88
_cell_length_a 26.651971
_cell_length_b 7.551964
_cell_length_c 22.842127
_cell_angle_alpha 90.000000
_cell_angle_beta 90.000000
_cell_angle_gamma 90.000000
_cell_volume 4597.542842
_symmetry_space_group_name_H-M "C M M M"
_symmetry_group_IT_number 65
_symmetry_cell_setting 'orthorhombic'
loop_
_space_group_symop_operation_xyz
x,y,z
-x,-y,z
x,-y,-z
-x,y,-z
-x,-y,-z
x,y,-z
-x,y,z
x,-y,z
1/2+x,1/2+y,z
1/2-x,1/2-y,z
1/2+x,1/2-y,-z
1/2-x,1/2+y,-z
1/2-x,1/2-y,-z
1/2+x,1/2+y,-z
1/2-x,1/2+y,z
1/2+x,1/2-y,z
loop_
_atom_site_type_symbol
_atom_site_label
_atom_site_fract_x
_atom_site_fract_y
_atom_site_fract_z
Si Si1 0.941518 0.000000 0.782765
Si Si2 0.869632 0.296931 0.386710
Si Si3 0.941091 0.000000 0.644449
Si Si4 0.191120 0.207140 0.500000
Si Si5 0.194454 0.707157 0.064643
Si Si6 0.871484 0.289237 0.829059
Si Si7 0.307420 0.795039 0.279378
O O1 0.929053 0.000000 0.713839
O O2 0.921041 0.177714 0.814370
O O3 0.000000 0.000000 0.794440
O O4 0.886698 0.500000 0.376071
O O5 0.835771 0.291243 0.444247
O O6 0.836359 0.211858 0.334406
O O7 0.919041 0.174298 0.387941
O O8 0.000000 0.000000 0.632923
O O9 0.250000 0.250000 0.500000
O O10 0.182291 0.000000 0.500000
O O11 0.188493 0.500000 0.059802
O O12 0.250000 0.750000 0.088909
O O13 0.151701 0.775395 0.109002
O O14 0.186893 0.794048 0.000000
O O15 0.883440 0.500000 0.827666
O O16 0.830082 0.229779 0.781661
O O17 0.250000 0.750000 0.282354
O O18 0.315773 0.000000 0.285624
#
# Coordination Sequence:
#
# PCOD8272566 Si02
#       7
#     8  16   8   8  16  16  16
#     4  11  24  40  64  90 114 154 205 255 316 360
#     4  11  23  42  61  89 126 158 201 252 298 361
#     4  11  24  43  68  92 118 159 205 261 317 358
#     4  12  24  40  64  94 129 171 206 240 292 365
#     4   9  18  32  52  82 120 162 200 236 290 358
#     4  10  21  37  55  84 119 151 196 248 301 358
#     4  10  21  32  53  83 115 155 191 234 295 355
#
# _framework density 19.14066
#
# number of rings (size 3 to 8) (size 9 to 14) (size 15 to 20)
#    0.000    1.636    2.727    1.909    3.818    2.182 
#    0.000    2.727    0.000    2.182    0.000    2.545 
#    0.000    0.000    0.000    0.000    0.000    0.000 
#
# Total GULP energy -545459.999507 kJ/mol
# GULP energy per Si atom -12396.818171 kJ/mol
# Density = 1.909709 g / cm^3
# Si number density = 19.140660 Si / 1000 Ang^3
#
#
#
# Elastic Constant Matrix: (Units=GPa)
#
#
# Indices 1 2 3 4 5 6 
#
# 1 136.8952 49.1991 60.0892 0.0000 0.0000 0.0000
# 2 49.1991 88.5184 31.9394 0.0000 0.0000 0.0000
# 3 60.0892 31.9394 115.1956 0.0000 0.0000 0.0000
# 4 0.0000 0.0000 0.0000 11.5624 0.0000 0.0000
# 5 0.0000 0.0000 0.0000 0.0000 32.2651 0.0000
# 6 0.0000 0.0000 0.0000 0.0000 0.0000 33.1232
#
#
#
# Elastic Compliance Matrix: (Units=1/GPa)
#
#
# Indices 1 2 3 4 5 6 
#
# 1 0.010839 -0.004427 -0.004426 0.000000 0.000000 0.000000
# 2 -0.004427 0.014361 -0.001672 0.000000 0.000000 0.000000
# 3 -0.004426 -0.001672 0.011454 0.000000 0.000000 0.000000
# 4 0.000000 0.000000 0.000000 0.086487 0.000000 0.000000
# 5 0.000000 0.000000 0.000000 0.000000 0.030993 0.000000
# 6 0.000000 0.000000 0.000000 0.000000 0.000000 0.030190
#
#
# Mechanical properties :
#
#
# Convention : Reuss Voigt Hill
#
# Bulk Modulus (GPa) = 64.09622 69.22939 66.66280
# Shear Modulus (GPa) = 23.74429 28.68224 26.21327
#
# Velocity S-wave (km/s) = 3.52592 3.87524 3.70470
# Velocity P-wave (km/s) = 7.08066 7.50137 7.29405
#
# Compressibility (1/GPa) = 0.01560154
#
# Stress axis : x y z
#
# Youngs Moduli (GPa) = 92.26044 69.63196 87.30947
#
# Poissons Ratio (x) = 0.30827 0.38646
# Poissons Ratio (y) = 0.40845 0.14602
# Poissons Ratio (z) = 0.40838 0.11646
#
# Static dielectric constant tensor:
#      x y z
#    x 3.238590 0.000000 0.000000 
#    y 0.000000 1.043650 0.000000 
#    z 0.000000 0.000000 4.003150 
# 
# 
# High freq. dielectric constant tensor:
#      x y z
#    x 1.721230 0.000000 0.000000 
#    y 0.000000 1.753060 0.000000 
#    z 0.000000 0.000000 1.751620 
# 
# From -- ./inp_files/65271.got.cif
#   From: 2010.03.12/outbox.cif.g09.slc.cpg/sg65_33_cif.got.tgz:65271.got - 2010.04.10 20:52:16.
