data_PCOD8272764
_publ_section_title
;
Structure prediction by ZEFSAII (Michael W. Deem and Ramdas Pophale) SiO2 
 PCOD8272764
Probable space group: C M M M
;
_chemical_formula_sum "Si O2"
_cell_formula_units_Z 96
_cell_length_a 26.000066
_cell_length_b 15.462492
_cell_length_c 13.272653
_cell_angle_alpha 90.000000
_cell_angle_beta 90.000000
_cell_angle_gamma 90.000000
_cell_volume 5335.949107
_symmetry_space_group_name_H-M "C M M M"
_symmetry_group_IT_number 65
_symmetry_cell_setting 'orthorhombic'
loop_
_space_group_symop_operation_xyz
x,y,z
-x,-y,z
x,-y,-z
-x,y,-z
-x,-y,-z
x,y,-z
-x,y,z
x,-y,z
1/2+x,1/2+y,z
1/2-x,1/2-y,z
1/2+x,1/2-y,-z
1/2-x,1/2+y,-z
1/2-x,1/2-y,-z
1/2+x,1/2+y,-z
1/2-x,1/2+y,z
1/2+x,1/2-y,z
loop_
_atom_site_type_symbol
_atom_site_label
_atom_site_fract_x
_atom_site_fract_y
_atom_site_fract_z
Si Si1 0.718104 0.835796 0.241011
Si Si2 0.940494 0.737496 0.704854
Si Si3 0.367651 0.244184 0.885873
Si Si4 0.321554 0.405869 0.799053
Si Si5 0.391824 0.401245 0.383932
Si Si6 0.633914 0.097374 0.382362
O O1 0.750000 0.750000 0.269978
O O2 0.676589 0.820620 0.152596
O O3 0.759610 0.905065 0.202708
O O4 0.687891 0.870236 0.337540
O O5 0.918759 0.738750 0.818482
O O6 0.934147 0.830735 0.650074
O O7 0.912534 0.661541 0.643882
O O8 0.000000 0.714298 0.709809
O O9 0.344761 0.340654 0.880347
O O10 0.382428 0.221024 0.000000
O O11 0.340075 0.500000 0.833699
O O12 0.341887 0.384552 0.685824
O O13 0.376104 0.385464 0.500000
O O14 0.412850 0.500000 0.369823
O O15 0.642343 0.097423 0.500000
O O16 0.621076 0.000000 0.343709
#
# Coordination Sequence:
#
# PCOD8272764 Si02
#       6
#    16  16  16  16  16  16
#     4   9  18  31  50  74 101 133 168 204 240 285
#     4  10  21  36  54  74  96 127 169 215 259 304
#     4   9  19  35  51  69  95 125 161 208 258 302
#     4   9  17  29  47  73 103 133 164 196 235 290
#     4   9  18  32  50  75 107 138 167 202 244 292
#     4  10  21  35  51  75 107 139 169 203 246 295
#
# _framework density 17.991175999999999
#
# number of rings (size 3 to 8) (size 9 to 14) (size 15 to 20)
#    0.000    2.667    0.000    2.000    0.000    6.667 
#    0.000    3.333    0.000   12.000    0.000    9.333 
#    0.000    0.000    0.000    0.000    0.000    0.000 
#
# Total GULP energy -595011.377362 kJ/mol
# GULP energy per Si atom -12396.070362 kJ/mol
# Density = 1.795023 g / cm^3
# Si number density = 17.991176 Si / 1000 Ang^3
#
#
#
# Elastic Constant Matrix: (Units=GPa)
#
#
# Indices 1 2 3 4 5 6 
#
# 1 57.9521 20.6627 11.7981 0.0000 0.0000 0.0000
# 2 20.6627 85.5063 32.2645 0.0000 0.0000 0.0000
# 3 11.7981 32.2645 96.6532 0.0000 0.0000 0.0000
# 4 0.0000 0.0000 0.0000 15.7264 0.0000 0.0000
# 5 0.0000 0.0000 0.0000 0.0000 11.3627 0.0000
# 6 0.0000 0.0000 0.0000 0.0000 0.0000 14.6201
#
#
#
# Elastic Compliance Matrix: (Units=1/GPa)
#
#
# Indices 1 2 3 4 5 6 
#
# 1 0.018950 -0.004241 -0.000898 0.000000 0.000000 0.000000
# 2 -0.004241 0.014329 -0.004266 0.000000 0.000000 0.000000
# 3 -0.000898 -0.004266 0.011880 0.000000 0.000000 0.000000
# 4 0.000000 0.000000 0.000000 0.063587 0.000000 0.000000
# 5 0.000000 0.000000 0.000000 0.000000 0.088007 0.000000
# 6 0.000000 0.000000 0.000000 0.000000 0.000000 0.068399
#
#
# Mechanical properties :
#
#
# Convention : Reuss Voigt Hill
#
# Bulk Modulus (GPa) = 37.94844 41.06246 39.50545
# Shear Modulus (GPa) = 17.07971 20.03427 18.55699
#
# Velocity S-wave (km/s) = 3.08448 3.34063 3.21510
# Velocity P-wave (km/s) = 5.81583 6.14434 5.98234
#
# Compressibility (1/GPa) = 0.02635155
#
# Stress axis : x y z
#
# Youngs Moduli (GPa) = 52.76940 69.78644 84.17637
#
# Poissons Ratio (x) = 0.29594 0.07555
# Poissons Ratio (y) = 0.22378 0.35908
# Poissons Ratio (z) = 0.04736 0.29769
#
# Static dielectric constant tensor:
#      x y z
#    x 3.160380 0.000000 0.000000 
#    y 0.000000 3.580680 0.000000 
#    z 0.000000 0.000000 3.116280 
# 
# 
# High freq. dielectric constant tensor:
#      x y z
#    x 1.680060 0.000000 0.000000 
#    y 0.000000 1.706400 0.000000 
#    z 0.000000 0.000000 1.682720 
# 
# From -- ./inp_files/32434.got.cif
#   From: 2010.03.12/outbox.cif.g09.slc.cpg/sg65_17_cif.got.tgz:32434.got - 2010.04.10 20:52:16.
