data_PCOD8272351
_publ_section_title
;
Structure prediction by ZEFSAII (Michael W. Deem and Ramdas Pophale) SiO2 
 PCOD8272351
Probable space group: C M M M
;
_chemical_formula_sum "Si O2"
_cell_formula_units_Z 96
_cell_length_a 17.614218
_cell_length_b 14.058486
_cell_length_c 18.717684
_cell_angle_alpha 90.000000
_cell_angle_beta 90.000000
_cell_angle_gamma 90.000000
_cell_volume 4635.045810
_symmetry_space_group_name_H-M "C M M M"
_symmetry_group_IT_number 65
_symmetry_cell_setting 'orthorhombic'
loop_
_space_group_symop_operation_xyz
x,y,z
-x,-y,z
x,-y,-z
-x,y,-z
-x,-y,-z
x,y,-z
-x,y,z
x,-y,z
1/2+x,1/2+y,z
1/2-x,1/2-y,z
1/2+x,1/2-y,-z
1/2-x,1/2+y,-z
1/2-x,1/2-y,-z
1/2+x,1/2+y,-z
1/2-x,1/2+y,z
1/2+x,1/2-y,z
loop_
_atom_site_type_symbol
_atom_site_label
_atom_site_fract_x
_atom_site_fract_y
_atom_site_fract_z
Si Si1 0.359685 0.111892 0.692005
Si Si2 0.914563 0.692058 0.160067
Si Si3 0.273411 0.141893 0.078872
Si Si4 0.413815 0.750405 0.417952
Si Si5 0.635124 0.397616 0.171638
Si Si6 0.185929 0.892704 0.330637
O O1 0.390634 0.170533 0.759248
O O2 0.405070 0.149210 0.623057
O O3 0.272292 0.139874 0.680881
O O4 0.373432 0.000000 0.702567
O O5 0.859610 0.633641 0.107349
O O6 0.910590 0.806023 0.143489
O O7 0.000000 0.657766 0.145450
O O8 0.250000 0.250000 0.074241
O O9 0.217430 0.091261 0.134236
O O10 0.268837 0.094867 0.000000
O O11 0.393250 0.769123 0.500000
O O12 0.500000 0.713051 0.409410
O O13 0.355859 0.672511 0.387904
O O14 0.593514 0.500000 0.156941
O O15 0.643595 0.384301 0.255740
O O16 0.183791 0.000000 0.360359
#
# Coordination Sequence:
#
# PCOD8272351 Si02
#       6
#    16  16  16  16  16  16
#     4  11  23  40  62  87 116 157 209 256 294 345
#     4  11  22  36  59  90 124 162 203 249 305 360
#     4   9  19  36  58  85 120 162 203 243 289 344
#     4  11  25  42  61  90 125 158 193 241 305 367
#     4  10  20  36  60  90 121 157 202 249 298 359
#     4  10  21  38  63  89 117 156 201 246 295 355
#
# _framework density 20.711769
#
# number of rings (size 3 to 8) (size 9 to 14) (size 15 to 20)
#    0.000    1.667    3.333    1.000    0.000    4.667 
#    0.000    5.000    0.000    0.000    0.000    7.000 
#    0.000    0.000    0.000    0.000    0.000    0.000 
#
# Total GULP energy -595061.487926 kJ/mol
# GULP energy per Si atom -12397.114332 kJ/mol
# Density = 2.066463 g / cm^3
# Si number density = 20.711769 Si / 1000 Ang^3
#
#
#
# Elastic Constant Matrix: (Units=GPa)
#
#
# Indices 1 2 3 4 5 6 
#
# 1 101.2302 15.6656 18.0176 0.0000 0.0000 0.0000
# 2 15.6656 90.5130 19.9539 0.0000 0.0000 0.0000
# 3 18.0176 19.9539 91.2644 0.0000 0.0000 0.0000
# 4 0.0000 0.0000 0.0000 -53.0627 0.0000 0.0000
# 5 0.0000 0.0000 0.0000 0.0000 18.4974 0.0000
# 6 0.0000 0.0000 0.0000 0.0000 0.0000 17.5452
#
#
#
# Elastic Compliance Matrix: (Units=1/GPa)
#
#
# Indices 1 2 3 4 5 6 
#
# 1 0.010408 -0.001417 -0.001745 0.000000 0.000000 0.000000
# 2 -0.001417 0.011800 -0.002300 0.000000 0.000000 0.000000
# 3 -0.001745 -0.002300 0.011805 0.000000 0.000000 0.000000
# 4 0.000000 0.000000 0.000000 -0.018846 0.000000 0.000000
# 5 0.000000 0.000000 0.000000 0.000000 0.054062 0.000000
# 6 0.000000 0.000000 0.000000 0.000000 0.000000 0.056996
#
#
# Mechanical properties :
#
#
# Convention : Reuss Voigt Hill
#
# Bulk Modulus (GPa) = 43.31044 43.36465 43.33754
# Shear Modulus (GPa) = 34.51945 11.88733 23.20339
#
# Velocity S-wave (km/s) = 4.08690 2.39830 3.35072
# Velocity P-wave (km/s) = 6.57471 5.35274 5.99494
#
# Compressibility (1/GPa) = 0.02308912
#
# Stress axis : x y z
#
# Youngs Moduli (GPa) = 96.07696 84.74248 84.71253
#
# Poissons Ratio (x) = 0.12006 0.14783
# Poissons Ratio (y) = 0.13611 0.19487
# Poissons Ratio (z) = 0.16766 0.19494
#
# Static dielectric constant tensor:
#      x y z
#    x 3.677640 0.000000 0.000000 
#    y 0.000000 3.852250 0.000000 
#    z 0.000000 0.000000 3.806050 
# 
# 
# High freq. dielectric constant tensor:
#      x y z
#    x 1.800760 0.000000 0.000000 
#    y 0.000000 1.817960 0.000000 
#    z 0.000000 0.000000 1.801100 
# 
# From -- ./inp_files/62605.got.cif
#   From: 2010.03.12/outbox.cif.g09.slc.cpg/sg65_32_cif.got.tgz:62605.got - 2010.04.10 20:52:16.
