data_PCOD8272849
_publ_section_title
;
Structure prediction by ZEFSAII (Michael W. Deem and Ramdas Pophale) SiO2 
 PCOD8272849
Probable space group: C M M M
;
_chemical_formula_sum "Si O2"
_cell_formula_units_Z 96
_cell_length_a 29.857566
_cell_length_b 17.314712
_cell_length_c 9.329869
_cell_angle_alpha 90.000000
_cell_angle_beta 90.000000
_cell_angle_gamma 90.000000
_cell_volume 4823.310485
_symmetry_space_group_name_H-M "C M M M"
_symmetry_group_IT_number 65
_symmetry_cell_setting 'orthorhombic'
loop_
_space_group_symop_operation_xyz
x,y,z
-x,-y,z
x,-y,-z
-x,y,-z
-x,-y,-z
x,y,-z
-x,y,z
x,-y,z
1/2+x,1/2+y,z
1/2-x,1/2-y,z
1/2+x,1/2-y,-z
1/2-x,1/2+y,-z
1/2-x,1/2-y,-z
1/2+x,1/2+y,-z
1/2-x,1/2+y,z
1/2+x,1/2-y,z
loop_
_atom_site_type_symbol
_atom_site_label
_atom_site_fract_x
_atom_site_fract_y
_atom_site_fract_z
Si Si1 0.360711 0.414420 0.168596
Si Si2 0.228382 0.167631 0.168213
Si Si3 0.051317 0.324395 0.661089
Si Si4 0.118914 0.409258 0.159369
Si Si5 0.300073 0.909935 0.658997
Si Si6 0.949501 0.169123 0.166714
O O1 0.350443 0.500000 0.234872
O O2 0.323778 0.348463 0.211362
O O3 0.411084 0.390722 0.216096
O O4 0.359575 0.422538 0.000000
O O5 0.250000 0.250000 0.214514
O O6 0.254041 0.102735 0.257649
O O7 0.236061 0.154273 0.000000
O O8 0.071137 0.320591 0.500000
O O9 0.074261 0.391160 0.753379
O O10 0.058942 0.243502 0.737735
O O11 0.000000 0.347911 0.655855
O O12 0.124471 0.500000 0.145586
O O13 0.160331 0.371741 0.246415
O O14 0.117755 0.372196 0.000000
O O15 0.299015 0.872296 0.500000
O O16 0.309009 0.000000 0.643663
O O17 0.000000 0.135767 0.193683
O O18 0.943846 0.191555 0.000000
#
# Coordination Sequence:
#
# PCOD8272849 Si02
#       6
#    16  16  16  16  16  16
#     4   9  18  33  54  81 113 146 183 234 289 337
#     4  10  21  35  54  82 112 148 191 233 279 333
#     4  10  21  36  54  78 111 149 185 227 283 341
#     4  10  21  36  56  81 108 143 188 235 282 334
#     4  10  21  37  56  79 110 146 184 229 281 335
#     4   9  18  33  55  82 109 142 186 233 283 341
#
# _framework density 19.903344000000001
#
# number of rings (size 3 to 8) (size 9 to 14) (size 15 to 20)
#    0.000    2.333    0.000    2.000    2.333    4.667 
#    0.000    4.167    0.000    1.500    0.000    2.333 
#    0.000    0.000    0.000    0.000    0.000    0.000 
#
# Total GULP energy -594870.522799 kJ/mol
# GULP energy per Si atom -12393.135892 kJ/mol
# Density = 1.985804 g / cm^3
# Si number density = 19.903344 Si / 1000 Ang^3
#
#
#
# Elastic Constant Matrix: (Units=GPa)
#
#
# Indices 1 2 3 4 5 6 
#
# 1 134.6778 49.5686 49.2931 0.0000 0.0000 0.0000
# 2 49.5686 44.5063 24.3916 0.0000 0.0000 0.0000
# 3 49.2931 24.3916 109.5954 0.0000 0.0000 0.0000
# 4 0.0000 0.0000 0.0000 17.4525 0.0000 0.0000
# 5 0.0000 0.0000 0.0000 0.0000 18.6070 0.0000
# 6 0.0000 0.0000 0.0000 0.0000 0.0000 31.3752
#
#
#
# Elastic Compliance Matrix: (Units=1/GPa)
#
#
# Indices 1 2 3 4 5 6 
#
# 1 0.013444 -0.013279 -0.003091 0.000000 0.000000 0.000000
# 2 -0.013279 0.038706 -0.002642 0.000000 0.000000 0.000000
# 3 -0.003091 -0.002642 0.011103 0.000000 0.000000 0.000000
# 4 0.000000 0.000000 0.000000 0.057298 0.000000 0.000000
# 5 0.000000 0.000000 0.000000 0.000000 0.053743 0.000000
# 6 0.000000 0.000000 0.000000 0.000000 0.000000 0.031872
#
#
# Mechanical properties :
#
#
# Convention : Reuss Voigt Hill
#
# Bulk Modulus (GPa) = 39.63789 59.47623 49.55706
# Shear Modulus (GPa) = 19.79411 24.52201 22.15806
#
# Velocity S-wave (km/s) = 3.15701 3.51387 3.34021
# Velocity P-wave (km/s) = 5.76605 6.81252 6.31102
#
# Compressibility (1/GPa) = 0.02522839
#
# Stress axis : x y z
#
# Youngs Moduli (GPa) = 74.38293 25.83585 90.06682
#
# Poissons Ratio (x) = 0.34307 0.27843
# Poissons Ratio (y) = 0.98772 0.23795
# Poissons Ratio (z) = 0.22995 0.06826
#
# Static dielectric constant tensor:
#      x y z
#    x 3.848690 0.000000 0.000000 
#    y 0.000000 3.426850 0.000000 
#    z 0.000000 0.000000 3.754950 
# 
# 
# High freq. dielectric constant tensor:
#      x y z
#    x 1.786990 0.000000 0.000000 
#    y 0.000000 1.753050 0.000000 
#    z 0.000000 0.000000 1.765200 
# 
# From -- ./inp_files/16312.got.cif
#   From: 2010.03.12/outbox.cif.g09.slc.cpg/sg65_9_cif.got.tgz:16312.got - 2010.04.10 20:52:16.
