data_PCOD8272101
_publ_section_title
;
Structure prediction by ZEFSAII (Michael W. Deem and Ramdas Pophale) SiO2 
 PCOD8272101
Probable space group: C M M M
;
_chemical_formula_sum "Si O2"
_cell_formula_units_Z 80
_cell_length_a 27.771552
_cell_length_b 9.022909
_cell_length_c 18.214981
_cell_angle_alpha 90.000000
_cell_angle_beta 90.000000
_cell_angle_gamma 90.000000
_cell_volume 4564.313336
_symmetry_space_group_name_H-M "C M M M"
_symmetry_group_IT_number 65
_symmetry_cell_setting 'orthorhombic'
loop_
_space_group_symop_operation_xyz
x,y,z
-x,-y,z
x,-y,-z
-x,y,-z
-x,-y,-z
x,y,-z
-x,y,z
x,-y,z
1/2+x,1/2+y,z
1/2-x,1/2-y,z
1/2+x,1/2-y,-z
1/2-x,1/2+y,-z
1/2-x,1/2-y,-z
1/2+x,1/2+y,-z
1/2-x,1/2+y,z
1/2+x,1/2-y,z
loop_
_atom_site_type_symbol
_atom_site_label
_atom_site_fract_x
_atom_site_fract_y
_atom_site_fract_z
Si Si1 0.057035 0.831977 0.582901
Si Si2 0.057481 0.168896 0.158443
Si Si3 0.698302 0.326584 0.659612
Si Si4 0.447611 0.674841 0.000000
Si Si5 0.109031 0.326121 0.711835
Si Si6 0.799273 0.167999 0.500000
O O1 0.074979 0.797665 0.500000
O O2 0.080243 0.717697 0.638911
O O3 0.000000 0.815000 0.587222
O O4 0.072139 0.000000 0.604349
O O5 0.079306 0.280569 0.216833
O O6 0.000000 0.183002 0.158889
O O7 0.072397 0.000000 0.177843
O O8 0.078292 0.216485 0.077310
O O9 0.704106 0.500000 0.676661
O O10 0.750000 0.250000 0.667626
O O11 0.661015 0.253433 0.715907
O O12 0.674404 0.297839 0.577667
O O13 0.455197 0.500000 0.000000
O O14 0.500000 0.752032 0.000000
O O15 0.117283 0.500000 0.711882
O O16 0.750000 0.250000 0.500000
O O17 0.783181 0.000000 0.500000
#
# Coordination Sequence:
#
# PCOD8272101 Si02
#       6
#    16  16  16   8  16   8
#     4   9  19  36  54  69  90 127 174 218 257 297
#     4   9  17  32  54  78 104 135 170 208 250 297
#     4  10  20  36  54  73  96 126 165 212 262 308
#     4   7  12  26  51  79 102 127 164 207 249 295
#     4  12  24  33  46  73 105 137 170 205 249 301
#     4   8  16  30  50  70  87 112 149 198 252 301
#
# _framework density 17.527280999999999
#
# number of rings (size 3 to 8) (size 9 to 14) (size 15 to 20)
#    0.000    2.500    0.000    4.800    1.400    4.400 
#    0.000    1.500    0.000    1.800    0.000    0.700 
#    0.000    0.000    0.000    0.000    0.000    0.000 
#
# Total GULP energy -495613.879819 kJ/mol
# GULP energy per Si atom -12390.346995 kJ/mol
# Density = 1.748739 g / cm^3
# Si number density = 17.527281 Si / 1000 Ang^3
#
#
#
# Elastic Constant Matrix: (Units=GPa)
#
#
# Indices 1 2 3 4 5 6 
#
# 1 44.5819 34.8199 38.5041 0.0000 0.0000 0.0000
# 2 34.8199 102.1924 47.8520 0.0000 0.0000 0.0000
# 3 38.5041 47.8520 107.0261 0.0000 0.0000 0.0000
# 4 0.0000 0.0000 0.0000 10.0036 0.0000 0.0000
# 5 0.0000 0.0000 0.0000 0.0000 10.0271 0.0000
# 6 0.0000 0.0000 0.0000 0.0000 0.0000 26.2939
#
#
#
# Elastic Compliance Matrix: (Units=1/GPa)
#
#
# Indices 1 2 3 4 5 6 
#
# 1 0.037183 -0.008102 -0.009755 0.000000 0.000000 0.000000
# 2 -0.008102 0.014142 -0.003408 0.000000 0.000000 0.000000
# 3 -0.009755 -0.003408 0.014377 0.000000 0.000000 0.000000
# 4 0.000000 0.000000 0.000000 0.099964 0.000000 0.000000
# 5 0.000000 0.000000 0.000000 0.000000 0.099729 0.000000
# 6 0.000000 0.000000 0.000000 0.000000 0.000000 0.038032
#
#
# Mechanical properties :
#
#
# Convention : Reuss Voigt Hill
#
# Bulk Modulus (GPa) = 43.15476 55.12804 49.14140
# Shear Modulus (GPa) = 14.13705 18.10656 16.12181
#
# Velocity S-wave (km/s) = 2.84311 3.21760 3.03613
# Velocity P-wave (km/s) = 5.95421 6.73238 6.35521
#
# Compressibility (1/GPa) = 0.02317241
#
# Stress axis : x y z
#
# Youngs Moduli (GPa) = 26.89377 70.71222 69.55642
#
# Poissons Ratio (x) = 0.57288 0.67852
# Poissons Ratio (y) = 0.21788 0.23706
# Poissons Ratio (z) = 0.26235 0.24100
#
# Static dielectric constant tensor:
#      x y z
#    x 3.015290 0.000000 0.000000 
#    y 0.000000 3.123720 0.000000 
#    z 0.000000 0.000000 7.606530 
# 
# 
# High freq. dielectric constant tensor:
#      x y z
#    x 1.656170 0.000000 0.000000 
#    y 0.000000 1.666230 0.000000 
#    z 0.000000 0.000000 1.672110 
# 
# From -- ./inp_files/49924.got.cif
#   From: 2010.03.12/outbox.cif.g09.slc.cpg/sg65_25_cif.got.tgz:49924.got - 2010.04.10 20:52:16.
