data_PCOD8272820
_publ_section_title
;
Structure prediction by ZEFSAII (Michael W. Deem and Ramdas Pophale) SiO2 
 PCOD8272820
Probable space group: C M M M
;
_chemical_formula_sum "Si O2"
_cell_formula_units_Z 72
_cell_length_a 22.254217
_cell_length_b 13.155349
_cell_length_c 13.073567
_cell_angle_alpha 90.000000
_cell_angle_beta 90.000000
_cell_angle_gamma 90.000000
_cell_volume 3827.443509
_symmetry_space_group_name_H-M "C M M M"
_symmetry_group_IT_number 65
_symmetry_cell_setting 'orthorhombic'
loop_
_space_group_symop_operation_xyz
x,y,z
-x,-y,z
x,-y,-z
-x,y,-z
-x,-y,-z
x,y,-z
-x,y,z
x,-y,z
1/2+x,1/2+y,z
1/2-x,1/2-y,z
1/2+x,1/2-y,-z
1/2-x,1/2+y,-z
1/2-x,1/2-y,-z
1/2+x,1/2+y,-z
1/2-x,1/2+y,z
1/2+x,1/2-y,z
loop_
_atom_site_type_symbol
_atom_site_label
_atom_site_fract_x
_atom_site_fract_y
_atom_site_fract_z
Si Si1 0.649711 0.616407 0.383210
Si Si2 0.841575 0.707079 0.115470
Si Si3 0.726667 0.613196 0.808160
Si Si4 0.928883 0.711026 0.288672
Si Si5 0.428776 0.000000 0.386748
O O1 0.670161 0.635298 0.500000
O O2 0.626189 0.500000 0.369588
O O3 0.707032 0.635841 0.309320
O O4 0.596968 0.695141 0.354487
O O5 0.797757 0.632378 0.179477
O O6 0.810532 0.817548 0.113254
O O7 0.905486 0.714331 0.172004
O O8 0.851790 0.668236 0.000000
O O9 0.710830 0.500000 0.840542
O O10 0.906578 0.602818 0.332442
O O11 0.000000 0.721894 0.288645
O O12 0.500000 0.000000 0.390366
O O13 0.401161 0.000000 0.500000
#
# Coordination Sequence:
#
# PCOD8272820 Si02
#       5
#    16  16  16  16   8
#     4   9  18  34  57  83 110 139 170 213 268 323
#     4  10  21  35  53  78 104 138 181 220 268 317
#     4   9  18  34  55  78 107 135 173 220 266 321
#     4  10  21  36  53  77 109 141 180 223 259 310
#     4   9  18  34  53  71  99 139 176 210 252 303
#
# _framework density 18.811510999999999
#
# number of rings (size 3 to 8) (size 9 to 14) (size 15 to 20)
#    0.000    2.556    0.000    2.000    1.556    4.000 
#    0.000   11.111    0.000    2.000    0.000    6.222 
#    0.000    0.000    0.000    0.000    0.000    0.000 
#
# Total GULP energy -446229.011058 kJ/mol
# GULP energy per Si atom -12395.250307 kJ/mol
# Density = 1.876869 g / cm^3
# Si number density = 18.811511 Si / 1000 Ang^3
#
#
#
# Elastic Constant Matrix: (Units=GPa)
#
#
# Indices 1 2 3 4 5 6 
#
# 1 51.0582 27.7078 52.4421 0.0000 0.0000 0.0000
# 2 27.7078 114.2660 44.0393 0.0000 0.0000 0.0000
# 3 52.4421 44.0393 138.3079 0.0000 0.0000 0.0000
# 4 0.0000 0.0000 0.0000 21.3332 0.0000 0.0000
# 5 0.0000 0.0000 0.0000 0.0000 16.5726 0.0000
# 6 0.0000 0.0000 0.0000 0.0000 0.0000 21.9266
#
#
#
# Elastic Compliance Matrix: (Units=1/GPa)
#
#
# Indices 1 2 3 4 5 6 
#
# 1 0.033373 -0.003665 -0.011487 0.000000 0.000000 0.000000
# 2 -0.003665 0.010378 -0.001915 0.000000 0.000000 0.000000
# 3 -0.011487 -0.001915 0.012195 0.000000 0.000000 0.000000
# 4 0.000000 0.000000 0.000000 0.046875 0.000000 0.000000
# 5 0.000000 0.000000 0.000000 0.000000 0.060341 0.000000
# 6 0.000000 0.000000 0.000000 0.000000 0.000000 0.045607
#
#
# Mechanical properties :
#
#
# Convention : Reuss Voigt Hill
#
# Bulk Modulus (GPa) = 45.84522 61.33452 53.58987
# Shear Modulus (GPa) = 19.98610 23.92932 21.95771
#
# Velocity S-wave (km/s) = 3.26305 3.57046 3.42021
# Velocity P-wave (km/s) = 6.21453 7.04792 6.64430
#
# Compressibility (1/GPa) = 0.02181253
#
# Stress axis : x y z
#
# Youngs Moduli (GPa) = 29.96464 96.35502 81.99799
#
# Poissons Ratio (x) = 0.35316 0.94190
# Poissons Ratio (y) = 0.10983 0.15701
# Poissons Ratio (z) = 0.34420 0.18451
#
# Static dielectric constant tensor:
#      x y z
#    x 3.154490 0.000000 0.000000 
#    y 0.000000 3.717450 0.000000 
#    z 0.000000 0.000000 3.428920 
# 
# 
# High freq. dielectric constant tensor:
#      x y z
#    x 1.702900 0.000000 0.000000 
#    y 0.000000 1.745730 0.000000 
#    z 0.000000 0.000000 1.730160 
# 
# From -- ./inp_files/42169.got.cif
#   From: 2010.03.12/outbox.cif.g09.slc.cpg/sg65_22_cif.got.tgz:42169.got - 2010.04.10 20:52:16.
