data_PCOD8272978
_publ_section_title
;
Structure prediction by ZEFSAII (Michael W. Deem and Ramdas Pophale) SiO2 
 PCOD8272978
Probable space group: C M M M
;
_chemical_formula_sum "Si O2"
_cell_formula_units_Z 104
_cell_length_a 18.442803
_cell_length_b 9.045009
_cell_length_c 33.395641
_cell_angle_alpha 90.000000
_cell_angle_beta 90.000000
_cell_angle_gamma 90.000000
_cell_volume 5570.904511
_symmetry_space_group_name_H-M "C M M M"
_symmetry_group_IT_number 65
_symmetry_cell_setting 'orthorhombic'
loop_
_space_group_symop_operation_xyz
x,y,z
-x,-y,z
x,-y,-z
-x,y,-z
-x,-y,-z
x,y,-z
-x,y,z
x,-y,z
1/2+x,1/2+y,z
1/2-x,1/2-y,z
1/2+x,1/2-y,-z
1/2-x,1/2+y,-z
1/2-x,1/2-y,-z
1/2+x,1/2+y,-z
1/2-x,1/2+y,z
1/2+x,1/2-y,z
loop_
_atom_site_type_symbol
_atom_site_label
_atom_site_fract_x
_atom_site_fract_y
_atom_site_fract_z
Si Si1 0.175905 0.672847 0.953935
Si Si2 0.583400 0.172089 0.810445
Si Si3 0.174591 0.828557 0.500000
Si Si4 0.084272 0.826990 0.337145
Si Si5 0.327702 0.825319 0.732256
Si Si6 0.827045 0.826971 0.586397
Si Si7 0.085729 0.833170 0.110075
O O1 0.183539 0.500000 0.946019
O O2 0.250000 0.750000 0.940616
O O3 0.111765 0.738478 0.927540
O O4 0.157485 0.707943 0.000000
O O5 0.500000 0.212687 0.800642
O O6 0.632229 0.219497 0.773110
O O7 0.613296 0.262216 0.848481
O O8 0.591184 0.000000 0.820495
O O9 0.250000 0.750000 0.500000
O O10 0.136710 0.786525 0.457427
O O11 0.191112 0.000000 0.500000
O O12 0.123670 0.731385 0.303843
O O13 0.115867 0.777479 0.380088
O O14 0.000000 0.786894 0.336768
O O15 0.097453 0.000000 0.328806
O O16 0.250000 0.750000 0.731049
O O17 0.318038 0.000000 0.728304
O O18 0.750000 0.750000 0.593519
O O19 0.811666 0.000000 0.589592
O O20 0.000000 0.829278 0.108843
O O21 0.115655 0.000000 0.107237
#
# Coordination Sequence:
#
# PCOD8272978 Si02
#       7
#    16  16   8  16  16  16  16
#     4  10  21  37  57  80 108 144 184 226 272 319
#     4   9  19  37  58  78 104 139 177 217 261 311
#     4   8  14  26  45  69  97 129 167 210 255 304
#     4  10  21  36  53  75 105 139 174 215 264 315
#     4  11  23  38  57  81 107 137 175 217 262 312
#     4   9  17  30  49  73 100 132 171 214 259 307
#     4  10  21  36  56  83 113 145 180 218 262 313
#
# _framework density 18.668423000000001
#
# number of rings (size 3 to 8) (size 9 to 14) (size 15 to 20)
#    0.000    2.308    0.000    2.308    0.000    6.769 
#    0.000    5.000    0.000    2.308    0.000    0.000 
#    0.000    7.385    0.000    0.000    0.000    0.000 
#
# Total GULP energy -644688.240972 kJ/mol
# GULP energy per Si atom -12397.850788 kJ/mol
# Density = 1.862593 g / cm^3
# Si number density = 18.668423 Si / 1000 Ang^3
#
#
#
# Elastic Constant Matrix: (Units=GPa)
#
#
# Indices 1 2 3 4 5 6 
#
# 1 88.3668 41.1125 67.2843 0.0000 0.0000 0.0000
# 2 41.1125 75.2045 65.5004 0.0000 0.0000 0.0000
# 3 67.2843 65.5004 156.8156 0.0000 0.0000 0.0000
# 4 0.0000 0.0000 0.0000 31.0080 0.0000 0.0000
# 5 0.0000 0.0000 0.0000 0.0000 24.2306 0.0000
# 6 0.0000 0.0000 0.0000 0.0000 0.0000 24.1919
#
#
#
# Elastic Compliance Matrix: (Units=1/GPa)
#
#
# Indices 1 2 3 4 5 6 
#
# 1 0.017870 -0.004859 -0.005638 0.000000 0.000000 0.000000
# 2 -0.004859 0.022222 -0.007197 0.000000 0.000000 0.000000
# 3 -0.005638 -0.007197 0.011802 0.000000 0.000000 0.000000
# 4 0.000000 0.000000 0.000000 0.032250 0.000000 0.000000
# 5 0.000000 0.000000 0.000000 0.000000 0.041270 0.000000
# 6 0.000000 0.000000 0.000000 0.000000 0.000000 0.041336
#
#
# Mechanical properties :
#
#
# Convention : Reuss Voigt Hill
#
# Bulk Modulus (GPa) = 60.58303 74.24238 67.41270
# Shear Modulus (GPa) = 24.08030 25.65208 24.86619
#
# Velocity S-wave (km/s) = 3.59541 3.71089 3.65361
# Velocity P-wave (km/s) = 7.05397 7.62996 7.34761
#
# Compressibility (1/GPa) = 0.01650627
#
# Stress axis : x y z
#
# Youngs Moduli (GPa) = 55.96049 45.00145 84.73045
#
# Poissons Ratio (x) = 0.21864 0.47771
# Poissons Ratio (y) = 0.27188 0.60981
# Poissons Ratio (z) = 0.31550 0.32388
#
# Static dielectric constant tensor:
#      x y z
#    x 3.282360 0.000000 0.000000 
#    y 0.000000 3.495780 0.000000 
#    z 0.000000 0.000000 3.849490 
# 
# 
# High freq. dielectric constant tensor:
#      x y z
#    x 1.708300 0.000000 0.000000 
#    y 0.000000 1.728650 0.000000 
#    z 0.000000 0.000000 1.744500 
# 
# From -- ./inp_files/75493.got.cif
#   From: 2010.03.12/outbox.cif.g09.slc.cpg/sg65_38_cif.got.tgz:75493.got - 2010.04.10 20:52:16.
