data_PCOD8272503
_publ_section_title
;
Structure prediction by ZEFSAII (Michael W. Deem and Ramdas Pophale) SiO2 
 PCOD8272503
Probable space group: C M M M
;
_chemical_formula_sum "Si O2"
_cell_formula_units_Z 104
_cell_length_a 25.777477
_cell_length_b 9.467224
_cell_length_c 23.216203
_cell_angle_alpha 90.000000
_cell_angle_beta 90.000000
_cell_angle_gamma 90.000000
_cell_volume 5665.708854
_symmetry_space_group_name_H-M "C M M M"
_symmetry_group_IT_number 65
_symmetry_cell_setting 'orthorhombic'
loop_
_space_group_symop_operation_xyz
x,y,z
-x,-y,z
x,-y,-z
-x,y,-z
-x,-y,-z
x,y,-z
-x,y,z
x,-y,z
1/2+x,1/2+y,z
1/2-x,1/2-y,z
1/2+x,1/2-y,-z
1/2-x,1/2+y,-z
1/2-x,1/2-y,-z
1/2+x,1/2+y,-z
1/2-x,1/2+y,z
1/2+x,1/2-y,z
loop_
_atom_site_type_symbol
_atom_site_label
_atom_site_fract_x
_atom_site_fract_y
_atom_site_fract_z
Si Si1 0.606844 0.334525 0.149475
Si Si2 0.408722 0.837451 0.620336
Si Si3 0.000000 0.159074 0.432235
Si Si4 0.060229 0.662706 0.248827
Si Si5 0.300079 0.836212 0.566591
Si Si6 0.800589 0.836583 0.934657
Si Si7 0.940744 0.652159 0.061836
O O1 0.601718 0.500000 0.160221
O O2 0.599160 0.255492 0.209990
O O3 0.658792 0.292107 0.114790
O O4 0.562382 0.278115 0.107496
O O5 0.448525 0.739461 0.586913
O O6 0.417743 0.816946 0.687663
O O7 0.350216 0.791732 0.603982
O O8 0.418559 0.000000 0.601988
O O9 0.000000 0.152256 0.500000
O O10 0.000000 0.000000 0.406395
O O11 0.063456 0.500000 0.229333
O O12 0.000000 0.713809 0.245392
O O13 0.312028 0.800811 0.500000
O O14 0.250000 0.750000 0.588705
O O15 0.287020 0.000000 0.575265
O O16 0.750000 0.750000 0.919510
O O17 0.786959 0.000000 0.928924
O O18 0.820199 0.803160 0.000000
O O19 0.916529 0.500000 0.082713
O O20 0.000000 0.625215 0.051446
O O21 0.915350 0.694999 0.000000
#
# Coordination Sequence:
#
# PCOD8272503 Si02
#       7
#    16  16   8  16  16  16  16
#     4  11  22  34  51  77 106 137 173 217 270 326
#     4  10  20  38  60  81 108 151 200 239 279 334
#     4  11  23  35  53  87 123 149 178 231 298 351
#     4  10  21  38  57  77 105 145 190 232 270 317
#     4   9  18  33  56  85 114 145 183 228 279 336
#     4   9  19  36  56  78 104 133 170 220 277 335
#     4   9  18  32  49  71 100 133 170 212 256 308
#
# _framework density 18.356044000000001
#
# number of rings (size 3 to 8) (size 9 to 14) (size 15 to 20)
#    0.000    2.231    0.769    2.538    0.000    7.077 
#    0.000    4.615    0.000    3.692    0.000    0.000 
#    0.000    0.000    0.000    0.000    0.000    0.000 
#
# Total GULP energy -644402.995364 kJ/mol
# GULP energy per Si atom -12392.365295 kJ/mol
# Density = 1.831426 g / cm^3
# Si number density = 18.356044 Si / 1000 Ang^3
#
#
#
# Elastic Constant Matrix: (Units=GPa)
#
#
# Indices 1 2 3 4 5 6 
#
# 1 131.6044 67.9818 59.0607 0.0000 0.0000 0.0000
# 2 67.9818 87.8886 53.2832 0.0000 0.0000 0.0000
# 3 59.0607 53.2832 94.9745 0.0000 0.0000 0.0000
# 4 0.0000 0.0000 0.0000 43.3377 0.0000 0.0000
# 5 0.0000 0.0000 0.0000 0.0000 24.9160 0.0000
# 6 0.0000 0.0000 0.0000 0.0000 0.0000 32.8388
#
#
#
# Elastic Compliance Matrix: (Units=1/GPa)
#
#
# Indices 1 2 3 4 5 6 
#
# 1 0.013525 -0.008126 -0.003851 0.000000 0.000000 0.000000
# 2 -0.008126 0.022126 -0.007360 0.000000 0.000000 0.000000
# 3 -0.003851 -0.007360 0.017053 0.000000 0.000000 0.000000
# 4 0.000000 0.000000 0.000000 0.023075 0.000000 0.000000
# 5 0.000000 0.000000 0.000000 0.000000 0.040135 0.000000
# 6 0.000000 0.000000 0.000000 0.000000 0.000000 0.030452
#
#
# Mechanical properties :
#
#
# Convention : Reuss Voigt Hill
#
# Bulk Modulus (GPa) = 71.28230 75.01320 73.14775
# Shear Modulus (GPa) = 26.35527 29.16131 27.75829
#
# Velocity S-wave (km/s) = 3.79328 3.99011 3.89294
# Velocity P-wave (km/s) = 7.62252 7.88558 7.75516
#
# Compressibility (1/GPa) = 0.01402873
#
# Stress axis : x y z
#
# Youngs Moduli (GPa) = 73.93870 45.19640 58.64078
#
# Poissons Ratio (x) = 0.36729 0.22584
# Poissons Ratio (y) = 0.60086 0.43157
# Poissons Ratio (z) = 0.28476 0.33262
#
# Static dielectric constant tensor:
#      x y z
#    x 3.281510 0.000000 0.000000 
#    y 0.000000 3.526740 0.000000 
#    z 0.000000 0.000000 3.385780 
# 
# 
# High freq. dielectric constant tensor:
#      x y z
#    x 1.703470 0.000000 0.000000 
#    y 0.000000 1.714090 0.000000 
#    z 0.000000 0.000000 1.708570 
# 
# From -- ./inp_files/65945.got.cif
#   From: 2010.03.12/outbox.cif.g09.slc.cpg/sg65_33_cif.got.tgz:65945.got - 2010.04.10 20:52:16.
