data_PCOD8272992
_publ_section_title
;
Structure prediction by ZEFSAII (Michael W. Deem and Ramdas Pophale) SiO2 
 PCOD8272992
Probable space group: C M M M
;
_chemical_formula_sum "Si O2"
_cell_formula_units_Z 72
_cell_length_a 14.957811
_cell_length_b 28.809384
_cell_length_c 8.980677
_cell_angle_alpha 90.000000
_cell_angle_beta 90.000000
_cell_angle_gamma 90.000000
_cell_volume 3870.001118
_symmetry_space_group_name_H-M "C M M M"
_symmetry_group_IT_number 65
_symmetry_cell_setting 'orthorhombic'
loop_
_space_group_symop_operation_xyz
x,y,z
-x,-y,z
x,-y,-z
-x,y,-z
-x,-y,-z
x,y,-z
-x,y,z
x,-y,z
1/2+x,1/2+y,z
1/2-x,1/2-y,z
1/2+x,1/2-y,-z
1/2-x,1/2+y,-z
1/2-x,1/2-y,-z
1/2+x,1/2+y,-z
1/2-x,1/2+y,z
1/2+x,1/2-y,z
loop_
_atom_site_type_symbol
_atom_site_label
_atom_site_fract_x
_atom_site_fract_y
_atom_site_fract_z
Si Si1 0.240681 0.135559 0.674348
Si Si2 0.500000 0.054780 0.665582
Si Si3 0.604270 0.299055 0.828803
Si Si4 0.820138 0.553318 0.824829
Si Si5 0.398298 0.795860 0.671576
O O1 0.230074 0.127179 0.500000
O O2 0.155116 0.162765 0.732953
O O3 0.242945 0.085665 0.756176
O O4 0.331738 0.162827 0.713944
O O5 0.500000 0.077630 0.500000
O O6 0.412903 0.070849 0.754108
O O7 0.500000 0.000000 0.650808
O O8 0.500000 0.309021 0.807323
O O9 0.628899 0.248010 0.770885
O O10 0.633696 0.302536 0.000000
O O11 0.798869 0.500000 0.783169
O O12 0.826333 0.560120 0.000000
O O13 0.386929 0.780998 0.500000
O O14 0.500000 0.812188 0.704670
#
# Coordination Sequence:
#
# PCOD8272992 Si02
#       5
#    16   8  16  16  16
#     4  11  22  34  55  82 108 143 183 224 270 321
#     4   9  17  31  51  73 101 139 179 217 259 311
#     4  10  21  37  56  78 106 141 180 224 274 325
#     4  10  21  36  53  76 108 144 181 223 270 319
#     4   9  19  35  53  77 111 145 177 216 263 319
#
# _framework density 18.604644
#
# number of rings (size 3 to 8) (size 9 to 14) (size 15 to 20)
#    0.000    2.111    0.000    3.000    1.556    8.444 
#    0.000    0.000    0.000    0.667    0.000    4.667 
#    0.000    0.000    0.000    0.000    0.000    0.000 
#
# Total GULP energy -446524.238783 kJ/mol
# GULP energy per Si atom -12403.451077 kJ/mol
# Density = 1.856230 g / cm^3
# Si number density = 18.604644 Si / 1000 Ang^3
#
#
#
# Elastic Constant Matrix: (Units=GPa)
#
#
# Indices 1 2 3 4 5 6 
#
# 1 52.2110 42.7458 39.7355 0.0000 0.0000 0.0000
# 2 42.7458 97.5540 58.8416 0.0000 0.0000 0.0000
# 3 39.7355 58.8416 107.2031 0.0000 0.0000 0.0000
# 4 0.0000 0.0000 0.0000 33.5568 0.0000 0.0000
# 5 0.0000 0.0000 0.0000 0.0000 31.9149 0.0000
# 6 0.0000 0.0000 0.0000 0.0000 0.0000 28.5581
#
#
#
# Elastic Compliance Matrix: (Units=1/GPa)
#
#
# Indices 1 2 3 4 5 6 
#
# 1 0.032503 -0.010428 -0.006324 0.000000 0.000000 0.000000
# 2 -0.010428 0.018669 -0.006382 0.000000 0.000000 0.000000
# 3 -0.006324 -0.006382 0.015175 0.000000 0.000000 0.000000
# 4 0.000000 0.000000 0.000000 0.029800 0.000000 0.000000
# 5 0.000000 0.000000 0.000000 0.000000 0.031333 0.000000
# 6 0.000000 0.000000 0.000000 0.000000 0.000000 0.035016
#
#
# Mechanical properties :
#
#
# Convention : Reuss Voigt Hill
#
# Bulk Modulus (GPa) = 49.80048 59.95710 54.87879
# Shear Modulus (GPa) = 23.20628 26.51564 24.86096
#
# Velocity S-wave (km/s) = 3.53560 3.77930 3.65948
# Velocity P-wave (km/s) = 6.59493 7.16527 6.88601
#
# Compressibility (1/GPa) = 0.02008013
#
# Stress axis : x y z
#
# Youngs Moduli (GPa) = 30.76614 53.56346 65.89707
#
# Poissons Ratio (x) = 0.55854 0.41673
# Poissons Ratio (y) = 0.32082 0.42057
# Poissons Ratio (z) = 0.19457 0.34185
#
# Static dielectric constant tensor:
#      x y z
#    x 3.325500 0.000000 0.000000 
#    y 0.000000 3.332010 0.000000 
#    z 0.000000 0.000000 3.532130 
# 
# 
# High freq. dielectric constant tensor:
#      x y z
#    x 1.703960 0.000000 0.000000 
#    y 0.000000 1.716800 0.000000 
#    z 0.000000 0.000000 1.735180 
# 
# From -- ./inp_files/7201.got.cif
#   From: 2010.03.12/outbox.cif.g09.slc.cpg/sg65_4_cif.got.tgz:7201.got - 2010.04.10 20:52:16.
