data_PCOD8272338
_publ_section_title
;
Structure prediction by ZEFSAII (Michael W. Deem and Ramdas Pophale) SiO2 
 PCOD8272338
Probable space group: C M M M
;
_chemical_formula_sum "Si O2"
_cell_formula_units_Z 64
_cell_length_a 13.122416
_cell_length_b 23.412883
_cell_length_c 10.257155
_cell_angle_alpha 90.000000
_cell_angle_beta 90.000000
_cell_angle_gamma 90.000000
_cell_volume 3151.342559
_symmetry_space_group_name_H-M "C M M M"
_symmetry_group_IT_number 65
_symmetry_cell_setting 'orthorhombic'
loop_
_space_group_symop_operation_xyz
x,y,z
-x,-y,z
x,-y,-z
-x,y,-z
-x,-y,-z
x,y,-z
-x,y,z
x,-y,z
1/2+x,1/2+y,z
1/2-x,1/2-y,z
1/2+x,1/2-y,-z
1/2-x,1/2+y,-z
1/2-x,1/2-y,-z
1/2+x,1/2+y,-z
1/2-x,1/2+y,z
1/2+x,1/2-y,z
loop_
_atom_site_type_symbol
_atom_site_label
_atom_site_fract_x
_atom_site_fract_y
_atom_site_fract_z
Si Si1 0.613662 0.766303 0.353729
Si Si2 0.818940 0.353293 0.852688
Si Si3 0.620490 0.437134 0.500000
Si Si4 0.614967 0.362528 0.739682
Si Si5 0.500000 0.063907 0.153438
O O1 0.658175 0.775525 0.500000
O O2 0.500000 0.790838 0.347474
O O3 0.678560 0.800114 0.246649
O O4 0.614143 0.700185 0.320097
O O5 0.699593 0.371865 0.852871
O O6 0.897133 0.402396 0.804198
O O7 0.848214 0.334211 0.000000
O O8 0.669893 0.500000 0.500000
O O9 0.500000 0.440115 0.500000
O O10 0.655879 0.404651 0.628544
O O11 0.500000 0.377539 0.790200
O O12 0.500000 0.000000 0.216472
O O13 0.500000 0.057107 0.000000
#
# Coordination Sequence:
#
# PCOD8272338 Si02
#       5
#    16  16   8  16   8
#     4  10  20  36  60  87 122 161 200 248 304 363
#     4  11  23  38  60  89 121 161 204 248 301 360
#     4   9  18  36  59  83 115 155 200 245 291 352
#     4  10  21  36  57  88 122 159 201 244 303 367
#     4   9  20  42  65  83 113 161 209 246 290 352
#
# _framework density 20.308805
#
# number of rings (size 3 to 8) (size 9 to 14) (size 15 to 20)
#    0.000    2.000    2.500    0.750    1.750    4.500 
#    0.000    2.500    0.000    0.750    0.000    7.000 
#    0.000    0.000    0.000    0.000    0.000    0.000 
#
# Total GULP energy -396521.262738 kJ/mol
# GULP energy per Si atom -12391.289461 kJ/mol
# Density = 2.026258 g / cm^3
# Si number density = 20.308805 Si / 1000 Ang^3
#
#
#
# Elastic Constant Matrix: (Units=GPa)
#
#
# Indices 1 2 3 4 5 6 
#
# 1 143.4968 24.3702 30.4621 0.0000 0.0000 0.0000
# 2 24.3702 108.6541 30.1474 0.0000 0.0000 0.0000
# 3 30.4621 30.1474 76.3116 0.0000 0.0000 0.0000
# 4 0.0000 0.0000 0.0000 8.1520 0.0000 0.0000
# 5 0.0000 0.0000 0.0000 0.0000 25.3371 0.0000
# 6 0.0000 0.0000 0.0000 0.0000 0.0000 8.0164
#
#
#
# Elastic Compliance Matrix: (Units=1/GPa)
#
#
# Indices 1 2 3 4 5 6 
#
# 1 0.007706 -0.000983 -0.002688 0.000000 0.000000 0.000000
# 2 -0.000983 0.010462 -0.003741 0.000000 0.000000 0.000000
# 3 -0.002688 -0.003741 0.015655 0.000000 0.000000 0.000000
# 4 0.000000 0.000000 0.000000 0.122670 0.000000 0.000000
# 5 0.000000 0.000000 0.000000 0.000000 0.039468 0.000000
# 6 0.000000 0.000000 0.000000 0.000000 0.000000 0.124745
#
#
# Mechanical properties :
#
#
# Convention : Reuss Voigt Hill
#
# Bulk Modulus (GPa) = 52.63076 55.38020 54.00548
# Shear Modulus (GPa) = 14.62580 24.53327 19.57953
#
# Velocity S-wave (km/s) = 2.68651 3.47942 3.10835
# Velocity P-wave (km/s) = 5.96612 6.59318 6.28747
#
# Compressibility (1/GPa) = 0.01900030
#
# Stress axis : x y z
#
# Youngs Moduli (GPa) = 129.76393 95.58551 63.87747
#
# Poissons Ratio (x) = 0.09393 0.17170
# Poissons Ratio (y) = 0.12751 0.23895
# Poissons Ratio (z) = 0.34881 0.35756
#
# Static dielectric constant tensor:
#      x y z
#    x 4.132230 0.000000 0.000000 
#    y 0.000000 3.809130 0.000000 
#    z 0.000000 0.000000 3.439920 
# 
# 
# High freq. dielectric constant tensor:
#      x y z
#    x 1.809210 0.000000 0.000000 
#    y 0.000000 1.777620 0.000000 
#    z 0.000000 0.000000 1.768840 
# 
# From -- ./inp_files/7095.got.cif
#   From: 2010.03.12/outbox.cif.g09.slc.cpg/sg65_4_cif.got.tgz:7095.got - 2010.04.10 20:52:16.
