data_PCOD8272637
_publ_section_title
;
Structure prediction by ZEFSAII (Michael W. Deem and Ramdas Pophale) SiO2 
 PCOD8272637
Probable space group: C M M M
;
_chemical_formula_sum "Si O2"
_cell_formula_units_Z 56
_cell_length_a 23.003006
_cell_length_b 13.189263
_cell_length_c 9.031230
_cell_angle_alpha 90.000000
_cell_angle_beta 90.000000
_cell_angle_gamma 90.000000
_cell_volume 2740.009217
_symmetry_space_group_name_H-M "C M M M"
_symmetry_group_IT_number 65
_symmetry_cell_setting 'orthorhombic'
loop_
_space_group_symop_operation_xyz
x,y,z
-x,-y,z
x,-y,-z
-x,y,-z
-x,-y,-z
x,y,-z
-x,y,z
x,-y,z
1/2+x,1/2+y,z
1/2-x,1/2-y,z
1/2+x,1/2-y,-z
1/2-x,1/2+y,-z
1/2-x,1/2-y,-z
1/2+x,1/2+y,-z
1/2-x,1/2+y,z
1/2+x,1/2-y,z
loop_
_atom_site_type_symbol
_atom_site_label
_atom_site_fract_x
_atom_site_fract_y
_atom_site_fract_z
Si Si1 0.377615 0.192249 0.170524
Si Si2 0.931359 0.500000 0.669694
Si Si3 0.245750 0.612405 0.836010
Si Si4 0.637906 0.613399 0.672398
O O1 0.407802 0.101076 0.254953
O O2 0.307406 0.189408 0.191165
O O3 0.397970 0.300561 0.238391
O O4 0.396125 0.185830 0.000000
O O5 0.910762 0.500000 0.500000
O O6 0.000000 0.500000 0.684555
O O7 0.217957 0.500000 0.830785
O O8 0.294062 0.622560 0.710615
O O9 0.273358 0.631696 0.000000
O O10 0.629565 0.634221 0.500000
O O11 0.615462 0.500000 0.714798
#
# Coordination Sequence:
#
# PCOD8272637 Si02
#       4
#    16   8  16  16
#     4  11  21  36  58  82 110 148 190 235 285 334
#     4  11  25  43  63  87 113 143 183 235 294 347
#     4   9  17  31  49  75 112 151 190 229 274 332
#     4  10  21  34  50  79 117 156 193 229 274 331
#
# _framework density 20.437888000000001
#
# number of rings (size 3 to 8) (size 9 to 14) (size 15 to 20)
#    0.000    1.857    1.429    3.000    0.000    8.571 
#    0.000    0.000    0.000    0.857    0.000    6.000 
#    0.000    0.000    0.000    0.000    0.000    0.000 
#
# Total GULP energy -347130.171235 kJ/mol
# GULP energy per Si atom -12397.506116 kJ/mol
# Density = 2.039137 g / cm^3
# Si number density = 20.437888 Si / 1000 Ang^3
#
#
#
# Elastic Constant Matrix: (Units=GPa)
#
#
# Indices 1 2 3 4 5 6 
#
# 1 28.3013 20.6173 31.9052 0.0000 0.0000 0.0000
# 2 20.6173 192.7514 91.4540 0.0000 0.0000 0.0000
# 3 31.9052 91.4540 144.6246 0.0000 0.0000 0.0000
# 4 0.0000 0.0000 0.0000 39.9932 0.0000 0.0000
# 5 0.0000 0.0000 0.0000 0.0000 9.3901 0.0000
# 6 0.0000 0.0000 0.0000 0.0000 0.0000 0.8573
#
#
#
# Elastic Compliance Matrix: (Units=1/GPa)
#
#
# Indices 1 2 3 4 5 6 
#
# 1 0.047034 -0.000154 -0.010279 0.000000 0.000000 0.000000
# 2 -0.000154 0.007412 -0.004653 0.000000 0.000000 0.000000
# 3 -0.010279 -0.004653 0.012124 0.000000 0.000000 0.000000
# 4 0.000000 0.000000 0.000000 0.025004 0.000000 0.000000
# 5 0.000000 0.000000 0.000000 0.000000 0.106495 0.000000
# 6 0.000000 0.000000 0.000000 0.000000 0.000000 1.166420
#
#
# Mechanical properties :
#
#
# Convention : Reuss Voigt Hill
#
# Bulk Modulus (GPa) = 27.47338 72.62559 50.04949
# Shear Modulus (GPa) = 3.55418 24.82818 14.19118
#
# Velocity S-wave (km/s) = 1.32015 3.48920 2.63792
# Velocity P-wave (km/s) = 3.97433 7.20032 5.81549
#
# Compressibility (1/GPa) = 0.03639886
#
# Stress axis : x y z
#
# Youngs Moduli (GPa) = 21.26132 134.91079 82.47788
#
# Poissons Ratio (x) = 0.02078 0.84775
# Poissons Ratio (y) = 0.00328 0.38379
# Poissons Ratio (z) = 0.21854 0.62777
#
# Static dielectric constant tensor:
#      x y z
#    x 3.103640 0.000000 0.000000 
#    y 0.000000 4.291430 0.000000 
#    z 0.000000 0.000000 3.752660 
# 
# 
# High freq. dielectric constant tensor:
#      x y z
#    x 1.731980 0.000000 0.000000 
#    y 0.000000 1.838130 0.000000 
#    z 0.000000 0.000000 1.804090 
# 
# From -- ./inp_files/6236.got.cif
#   From: 2010.03.12/outbox.cif.g09.slc.cpg/sg65_4_cif.got.tgz:6236.got - 2010.04.10 20:52:16.
