data_PCOD8272262
_publ_section_title
;
Structure prediction by ZEFSAII (Michael W. Deem and Ramdas Pophale) SiO2 
 PCOD8272262
Probable space group: C M M M
;
_chemical_formula_sum "Si O2"
_cell_formula_units_Z 88
_cell_length_a 25.929395
_cell_length_b 15.336147
_cell_length_c 11.936383
_cell_angle_alpha 90.000000
_cell_angle_beta 90.000000
_cell_angle_gamma 90.000000
_cell_volume 4746.586414
_symmetry_space_group_name_H-M "C M M M"
_symmetry_group_IT_number 65
_symmetry_cell_setting 'orthorhombic'
loop_
_space_group_symop_operation_xyz
x,y,z
-x,-y,z
x,-y,-z
-x,y,-z
-x,-y,-z
x,y,-z
-x,y,z
x,-y,z
1/2+x,1/2+y,z
1/2-x,1/2-y,z
1/2+x,1/2-y,-z
1/2-x,1/2+y,-z
1/2-x,1/2-y,-z
1/2+x,1/2+y,-z
1/2-x,1/2+y,z
1/2+x,1/2-y,z
loop_
_atom_site_type_symbol
_atom_site_label
_atom_site_fract_x
_atom_site_fract_y
_atom_site_fract_z
Si Si1 0.061271 0.402532 0.000000
Si Si2 0.712259 0.670200 0.631437
Si Si3 0.555123 0.598784 0.500000
Si Si4 0.888391 0.500000 0.633753
Si Si5 0.060314 0.656149 0.763205
Si Si6 0.772561 0.500000 0.631742
Si Si7 0.439383 0.500000 0.133312
Si Si8 0.103184 0.156519 0.723565
O O1 0.082540 0.356241 0.111338
O O2 0.082731 0.500000 0.000000
O O3 0.000000 0.400692 0.000000
O O4 0.695979 0.666812 0.500000
O O5 0.750000 0.750000 0.653926
O O6 0.741801 0.584304 0.671908
O O7 0.663802 0.678691 0.715553
O O8 0.539457 0.500000 0.500000
O O9 0.500000 0.651044 0.500000
O O10 0.589605 0.615330 0.606300
O O11 0.892233 0.500000 0.500000
O O12 0.914361 0.411539 0.677458
O O13 0.830175 0.500000 0.680675
O O14 0.071011 0.755369 0.733383
O O15 0.000000 0.636751 0.758674
O O16 0.778082 0.500000 0.500000
O O17 0.500000 0.500000 0.168395
O O18 0.411622 0.587495 0.179345
O O19 0.433452 0.500000 0.000000
#
# Coordination Sequence:
#
# PCOD8272262 Si02
#       8
#     8  16   8   8  16   8   8  16
#     4   9  18  38  60  79 104 146 206 249 265 313
#     4  10  20  36  58  88 118 149 196 245 290 348
#     4  11  22  36  55  85 129 163 190 236 292 363
#     4  11  23  38  54  87 126 154 186 232 297 356
#     4  11  23  37  58  85 117 157 195 234 282 342
#     4   9  19  34  56  78 110 149 190 236 280 334
#     4  11  25  43  61  87 123 161 207 256 302 365
#     4  12  23  38  61  90 120 158 200 242 302 360
#
# _framework density 18.539639000000001
#
# number of rings (size 3 to 8) (size 9 to 14) (size 15 to 20)
#    0.000    1.364    2.727    3.545    2.545    2.182 
#    0.000    0.000    0.000    0.545   14.182    0.000 
#    0.000    0.000    0.000    0.000    0.000    0.000 
#
# Total GULP energy -545494.484859 kJ/mol
# GULP energy per Si atom -12397.601929 kJ/mol
# Density = 1.849744 g / cm^3
# Si number density = 18.539639 Si / 1000 Ang^3
#
#
#
# Elastic Constant Matrix: (Units=GPa)
#
#
# Indices 1 2 3 4 5 6 
#
# 1 91.9871 15.0863 29.0952 0.0000 0.0000 0.0000
# 2 15.0863 105.6350 27.2456 0.0000 0.0000 0.0000
# 3 29.0952 27.2456 94.6875 0.0000 0.0000 0.0000
# 4 0.0000 0.0000 0.0000 -3.1169 0.0000 0.0000
# 5 0.0000 0.0000 0.0000 0.0000 10.3967 0.0000
# 6 0.0000 0.0000 0.0000 0.0000 0.0000 435.1793
#
#
#
# Elastic Compliance Matrix: (Units=1/GPa)
#
#
# Indices 1 2 3 4 5 6 
#
# 1 0.012109 -0.000831 -0.003481 0.000000 0.000000 0.000000
# 2 -0.000831 0.010283 -0.002703 0.000000 0.000000 0.000000
# 3 -0.003481 -0.002703 0.012409 0.000000 0.000000 0.000000
# 4 0.000000 0.000000 0.000000 -0.320831 0.000000 0.000000
# 5 0.000000 0.000000 0.000000 0.000000 0.096184 0.000000
# 6 0.000000 0.000000 0.000000 0.000000 0.000000 0.002298
#
#
# Mechanical properties :
#
#
# Convention : Reuss Voigt Hill
#
# Bulk Modulus (GPa) = 48.15183 48.35152 48.25167
# Shear Modulus (GPa) = -30.01306 103.21732 36.60213
#
# Velocity S-wave (km/s) = -4.02787 7.46959 4.44809
# Velocity P-wave (km/s) = 2.09693 10.02645 7.24316
#
# Compressibility (1/GPa) = 0.02076764
#
# Stress axis : x y z
#
# Youngs Moduli (GPa) = 82.58586 97.25241 80.58882
#
# Poissons Ratio (x) = 0.08085 0.28057
# Poissons Ratio (y) = 0.06866 0.21785
# Poissons Ratio (z) = 0.28752 0.26290
#
# Static dielectric constant tensor:
#      x y z
#    x 3.557480 0.000000 0.000000 
#    y 0.000000 3.541580 0.000000 
#    z 0.000000 0.000000 3.404890 
# 
# 
# High freq. dielectric constant tensor:
#      x y z
#    x 1.719970 0.000000 0.000000 
#    y 0.000000 1.734760 0.000000 
#    z 0.000000 0.000000 1.700800 
# 
# From -- ./inp_files/32314.got.cif
#   From: 2010.03.12/outbox.cif.g09.slc.cpg/sg65_17_cif.got.tgz:32314.got - 2010.04.10 20:52:16.
