data_PCOD8272130
_publ_section_title
;
Structure prediction by ZEFSAII (Michael W. Deem and Ramdas Pophale) SiO2 
 PCOD8272130
Probable space group: C M M M
;
_chemical_formula_sum "Si O2"
_cell_formula_units_Z 72
_cell_length_a 23.639577
_cell_length_b 8.908328
_cell_length_c 17.847524
_cell_angle_alpha 90.000000
_cell_angle_beta 90.000000
_cell_angle_gamma 90.000000
_cell_volume 3758.494118
_symmetry_space_group_name_H-M "C M M M"
_symmetry_group_IT_number 65
_symmetry_cell_setting 'orthorhombic'
loop_
_space_group_symop_operation_xyz
x,y,z
-x,-y,z
x,-y,-z
-x,y,-z
-x,-y,-z
x,y,-z
-x,y,z
x,-y,z
1/2+x,1/2+y,z
1/2-x,1/2-y,z
1/2+x,1/2-y,-z
1/2-x,1/2+y,-z
1/2-x,1/2-y,-z
1/2+x,1/2+y,-z
1/2-x,1/2+y,z
1/2+x,1/2-y,z
loop_
_atom_site_type_symbol
_atom_site_label
_atom_site_fract_x
_atom_site_fract_y
_atom_site_fract_z
Si Si1 0.688985 0.677447 0.500000
Si Si2 0.878501 0.679935 0.083688
Si Si3 0.621496 0.175727 0.367574
Si Si4 0.191035 0.324784 0.222467
Si Si5 0.500000 0.837387 0.088171
Si Si6 0.500000 0.176915 0.416165
O O1 0.695541 0.500000 0.500000
O O2 0.750000 0.750000 0.500000
O O3 0.656233 0.728143 0.573556
O O4 0.882852 0.500000 0.085334
O O5 0.832230 0.738285 0.143024
O O6 0.940692 0.746196 0.107970
O O7 0.861329 0.734927 0.000000
O O8 0.644612 0.212743 0.285261
O O9 0.555942 0.227739 0.371063
O O10 0.628194 0.000000 0.387392
O O11 0.202395 0.500000 0.216940
O O12 0.250000 0.250000 0.243621
O O13 0.500000 0.000000 0.129036
O O14 0.500000 0.863987 0.000000
O O15 0.500000 0.247705 0.500000
O O16 0.500000 0.000000 0.424155
#
# Coordination Sequence:
#
# PCOD8272130 Si02
#       6
#     8  16  16  16   8   8
#     4  12  24  37  56  79 103 136 176 212 253 306
#     4   8  14  26  45  71 102 134 168 210 259 306
#     4  10  20  36  56  79 106 136 170 210 260 312
#     4  10  21  34  50  73 103 138 176 216 255 301
#     4   7  10  19  39  67  98 126 155 202 259 305
#     4   9  16  31  57  81 104 133 165 208 260 313
#
# _framework density 19.156609
#
# number of rings (size 3 to 8) (size 9 to 14) (size 15 to 20)
#    0.000    2.667    1.111    3.000    0.000    4.000 
#    0.000    5.556    0.000    0.000    0.000    2.333 
#    0.000    2.667    0.000    0.000    0.000    0.000 
#
# Total GULP energy -446119.141344 kJ/mol
# GULP energy per Si atom -12392.198371 kJ/mol
# Density = 1.911301 g / cm^3
# Si number density = 19.156609 Si / 1000 Ang^3
#
#
#
# Elastic Constant Matrix: (Units=GPa)
#
#
# Indices 1 2 3 4 5 6 
#
# 1 175.5667 37.4392 77.5245 0.0000 0.0000 0.0000
# 2 37.4392 43.4754 34.2199 0.0000 0.0000 0.0000
# 3 77.5245 34.2199 126.0746 0.0000 0.0000 0.0000
# 4 0.0000 0.0000 0.0000 -3.6325 0.0000 0.0000
# 5 0.0000 0.0000 0.0000 0.0000 64.1547 0.0000
# 6 0.0000 0.0000 0.0000 0.0000 0.0000 19.3885
#
#
#
# Elastic Compliance Matrix: (Units=1/GPa)
#
#
# Indices 1 2 3 4 5 6 
#
# 1 0.008331 -0.003996 -0.004038 0.000000 0.000000 0.000000
# 2 -0.003996 0.031167 -0.006003 0.000000 0.000000 0.000000
# 3 -0.004038 -0.006003 0.012044 0.000000 0.000000 0.000000
# 4 0.000000 0.000000 0.000000 -0.275292 0.000000 0.000000
# 5 0.000000 0.000000 0.000000 0.000000 0.015587 0.000000
# 6 0.000000 0.000000 0.000000 0.000000 0.000000 0.051577
#
#
# Mechanical properties :
#
#
# Convention : Reuss Voigt Hill
#
# Bulk Modulus (GPa) = 42.60892 71.49821 57.05356
# Shear Modulus (GPa) = -41.42875 29.04435 -6.19220
#
# Velocity S-wave (km/s) = -4.65546 3.89800 -1.79984
# Velocity P-wave (km/s) = 2.57041 7.59363 5.05254
#
# Compressibility (1/GPa) = 0.02346926
#
# Stress axis : x y z
#
# Youngs Moduli (GPa) = 120.03172 32.08501 83.02711
#
# Poissons Ratio (x) = 0.12821 0.33529
# Poissons Ratio (y) = 0.47962 0.49837
# Poissons Ratio (z) = 0.48473 0.19259
#
# Static dielectric constant tensor:
#      x y z
#    x 4.172440 0.000000 0.000000 
#    y 0.000000 2.959030 0.000000 
#    z 0.000000 0.000000 3.681510 
# 
# 
# High freq. dielectric constant tensor:
#      x y z
#    x 1.763660 0.000000 0.000000 
#    y 0.000000 1.681230 0.000000 
#    z 0.000000 0.000000 1.743590 
# 
# From -- ./inp_files/64456.got.cif
#   From: 2010.03.12/outbox.cif.g09.slc.cpg/sg65_33_cif.got.tgz:64456.got - 2010.04.10 20:52:16.
