data_PCOD8272310
_publ_section_title
;
Structure prediction by ZEFSAII (Michael W. Deem and Ramdas Pophale) SiO2 
 PCOD8272310
Probable space group: C M M M
;
_chemical_formula_sum "Si O2"
_cell_formula_units_Z 72
_cell_length_a 16.103642
_cell_length_b 9.094795
_cell_length_c 24.190478
_cell_angle_alpha 90.000000
_cell_angle_beta 90.000000
_cell_angle_gamma 90.000000
_cell_volume 3542.921025
_symmetry_space_group_name_H-M "C M M M"
_symmetry_group_IT_number 65
_symmetry_cell_setting 'orthorhombic'
loop_
_space_group_symop_operation_xyz
x,y,z
-x,-y,z
x,-y,-z
-x,y,-z
-x,-y,-z
x,y,-z
-x,y,z
x,-y,z
1/2+x,1/2+y,z
1/2-x,1/2-y,z
1/2+x,1/2-y,-z
1/2-x,1/2+y,-z
1/2-x,1/2-y,-z
1/2+x,1/2+y,-z
1/2-x,1/2+y,z
1/2+x,1/2-y,z
loop_
_atom_site_type_symbol
_atom_site_label
_atom_site_fract_x
_atom_site_fract_y
_atom_site_fract_z
Si Si1 0.166230 0.327029 0.835304
Si Si2 0.665371 0.673072 0.376119
Si Si3 0.593334 0.334956 0.261112
Si Si4 0.000000 0.174457 0.436871
Si Si5 0.097479 0.167219 0.937423
O O1 0.175888 0.500000 0.834487
O O2 0.250000 0.250000 0.815554
O O3 0.098590 0.275883 0.790579
O O4 0.143990 0.278431 0.897241
O O5 0.674635 0.500000 0.386289
O O6 0.750000 0.750000 0.397100
O O7 0.653731 0.709630 0.311186
O O8 0.584770 0.735344 0.408797
O O9 0.500000 0.328494 0.284623
O O10 0.613887 0.500000 0.240166
O O11 0.000000 0.227288 0.500000
O O12 0.000000 0.000000 0.431072
O O13 0.000000 0.187960 0.929921
O O14 0.122940 0.000000 0.923001
O O15 0.123906 0.205555 0.000000
#
# Coordination Sequence:
#
# PCOD8272310 Si02
#       5
#    16  16  16   8  16
#     4  12  25  38  54  80 113 148 188 235 288 345
#     4  10  20  36  59  88 119 157 201 246 297 353
#     4  10  20  37  60  83 113 151 191 236 291 355
#     4   9  18  36  61  87 119 161 206 245 290 355
#     4   9  19  38  62  84 108 142 183 227 281 345
#
# _framework density 20.322213999999999
#
# number of rings (size 3 to 8) (size 9 to 14) (size 15 to 20)
#    0.000    1.889    1.111    4.000    0.000    7.556 
#    0.000    1.667    0.000    0.667    0.000    0.000 
#    0.000    0.000    0.000    0.000    0.000    0.000 
#
# Total GULP energy -446435.864741 kJ/mol
# GULP energy per Si atom -12400.996243 kJ/mol
# Density = 2.027596 g / cm^3
# Si number density = 20.322214 Si / 1000 Ang^3
#
#
#
# Elastic Constant Matrix: (Units=GPa)
#
#
# Indices 1 2 3 4 5 6 
#
# 1 118.4990 43.6193 50.5292 0.0000 0.0000 0.0000
# 2 43.6193 105.8524 49.8083 0.0000 0.0000 0.0000
# 3 50.5292 49.8083 107.3713 0.0000 0.0000 0.0000
# 4 0.0000 0.0000 0.0000 17.1679 0.0000 0.0000
# 5 0.0000 0.0000 0.0000 0.0000 26.3591 0.0000
# 6 0.0000 0.0000 0.0000 0.0000 0.0000 32.4871
#
#
#
# Elastic Compliance Matrix: (Units=1/GPa)
#
#
# Indices 1 2 3 4 5 6 
#
# 1 0.011136 -0.002716 -0.003981 0.000000 0.000000 0.000000
# 2 -0.002716 0.012747 -0.004635 0.000000 0.000000 0.000000
# 3 -0.003981 -0.004635 0.013337 0.000000 0.000000 0.000000
# 4 0.000000 0.000000 0.000000 0.058248 0.000000 0.000000
# 5 0.000000 0.000000 0.000000 0.000000 0.037938 0.000000
# 6 0.000000 0.000000 0.000000 0.000000 0.000000 0.030781
#
#
# Mechanical properties :
#
#
# Convention : Reuss Voigt Hill
#
# Bulk Modulus (GPa) = 68.69680 68.84849 68.77265
# Shear Modulus (GPa) = 26.08193 27.72056 26.90124
#
# Velocity S-wave (km/s) = 3.58637 3.69731 3.64227
# Velocity P-wave (km/s) = 7.14329 7.22349 7.18350
#
# Compressibility (1/GPa) = 0.01455672
#
# Stress axis : x y z
#
# Youngs Moduli (GPa) = 89.79871 78.44779 74.97862
#
# Poissons Ratio (x) = 0.21304 0.29848
# Poissons Ratio (y) = 0.24387 0.34755
# Poissons Ratio (z) = 0.35747 0.36363
#
# Static dielectric constant tensor:
#      x y z
#    x 3.725430 0.000000 0.000000 
#    y 0.000000 3.386280 0.000000 
#    z 0.000000 0.000000 3.632320 
# 
# 
# High freq. dielectric constant tensor:
#      x y z
#    x 1.801100 0.000000 0.000000 
#    y 0.000000 1.765610 0.000000 
#    z 0.000000 0.000000 1.796350 
# 
# From -- ./inp_files/72479.got.cif
#   From: 2010.03.12/outbox.cif.g09.slc.cpg/sg65_37_cif.got.tgz:72479.got - 2010.04.10 20:52:16.
