data_PCOD8272201
_publ_section_title
;
Structure prediction by ZEFSAII (Michael W. Deem and Ramdas Pophale) SiO2 
 PCOD8272201
Probable space group: C M M M
;
_chemical_formula_sum "Si O2"
_cell_formula_units_Z 72
_cell_length_a 19.220491
_cell_length_b 9.063672
_cell_length_c 23.009167
_cell_angle_alpha 90.000000
_cell_angle_beta 90.000000
_cell_angle_gamma 90.000000
_cell_volume 4008.386167
_symmetry_space_group_name_H-M "C M M M"
_symmetry_group_IT_number 65
_symmetry_cell_setting 'orthorhombic'
loop_
_space_group_symop_operation_xyz
x,y,z
-x,-y,z
x,-y,-z
-x,y,-z
-x,-y,-z
x,y,-z
-x,y,z
x,-y,z
1/2+x,1/2+y,z
1/2-x,1/2-y,z
1/2+x,1/2-y,-z
1/2-x,1/2+y,-z
1/2-x,1/2-y,-z
1/2+x,1/2+y,-z
1/2-x,1/2+y,z
1/2+x,1/2-y,z
loop_
_atom_site_type_symbol
_atom_site_label
_atom_site_fract_x
_atom_site_fract_y
_atom_site_fract_z
Si Si1 0.082177 0.825990 0.500000
Si Si2 0.822876 0.674764 0.592043
Si Si3 0.679799 0.828209 0.725160
Si Si4 0.082659 0.167132 0.063363
Si Si5 0.421546 0.826012 0.824278
O O1 0.115002 0.749310 0.443479
O O2 0.000000 0.795428 0.500000
O O3 0.098513 0.000000 0.500000
O O4 0.818531 0.500000 0.579117
O O5 0.750000 0.750000 0.573966
O O6 0.840623 0.708741 0.659020
O O7 0.750000 0.750000 0.744162
O O8 0.619629 0.769546 0.767721
O O9 0.692306 0.000000 0.733328
O O10 0.112984 0.263426 0.116439
O O11 0.000000 0.178223 0.063615
O O12 0.107284 0.000000 0.072895
O O13 0.109765 0.223874 0.000000
O O14 0.500000 0.767301 0.816673
O O15 0.419515 0.000000 0.829156
#
# Coordination Sequence:
#
# PCOD8272201 Si02
#       5
#     8  16  16  16  16
#     4  11  24  39  54  77 109 137 164 205 252 293
#     4  10  20  36  58  79 101 133 172 208 245 295
#     4   9  19  34  52  74  99 129 163 200 240 285
#     4   8  14  25  41  63  92 124 158 196 238 286
#     4   9  17  29  46  70  98 125 156 197 244 289
#
# _framework density 17.962340999999999
#
# number of rings (size 3 to 8) (size 9 to 14) (size 15 to 20)
#    0.000    2.778    0.000    2.000    0.000    4.000 
#    0.000    4.444    0.000    3.333    0.000    0.000 
#    0.000    0.000    0.000    0.000    0.000    0.000 
#
# Total GULP energy -446264.987320 kJ/mol
# GULP energy per Si atom -12396.249648 kJ/mol
# Density = 1.792146 g / cm^3
# Si number density = 17.962341 Si / 1000 Ang^3
#
#
#
# Elastic Constant Matrix: (Units=GPa)
#
#
# Indices 1 2 3 4 5 6 
#
# 1 92.5471 47.1678 75.6513 0.0000 0.0000 0.0000
# 2 47.1678 63.9227 52.7180 0.0000 0.0000 0.0000
# 3 75.6513 52.7180 151.6601 0.0000 0.0000 0.0000
# 4 0.0000 0.0000 0.0000 30.2200 0.0000 0.0000
# 5 0.0000 0.0000 0.0000 0.0000 13.4323 0.0000
# 6 0.0000 0.0000 0.0000 0.0000 0.0000 24.3038
#
#
#
# Elastic Compliance Matrix: (Units=1/GPa)
#
#
# Indices 1 2 3 4 5 6 
#
# 1 0.022096 -0.010114 -0.007506 0.000000 0.000000 0.000000
# 2 -0.010114 0.026560 -0.004188 0.000000 0.000000 0.000000
# 3 -0.007506 -0.004188 0.011794 0.000000 0.000000 0.000000
# 4 0.000000 0.000000 0.000000 0.033091 0.000000 0.000000
# 5 0.000000 0.000000 0.000000 0.000000 0.074448 0.000000
# 6 0.000000 0.000000 0.000000 0.000000 0.000000 0.041146
#
#
# Mechanical properties :
#
#
# Convention : Reuss Voigt Hill
#
# Bulk Modulus (GPa) = 59.40168 73.24492 66.32330
# Shear Modulus (GPa) = 19.35283 22.43074 20.89178
#
# Velocity S-wave (km/s) = 3.28596 3.53762 3.41411
# Velocity P-wave (km/s) = 6.89482 7.58629 7.24881
#
# Compressibility (1/GPa) = 0.01683454
#
# Stress axis : x y z
#
# Youngs Moduli (GPa) = 45.25756 37.65034 84.79173
#
# Poissons Ratio (x) = 0.38078 0.63647
# Poissons Ratio (y) = 0.45772 0.35507
# Poissons Ratio (z) = 0.33972 0.15766
#
# Static dielectric constant tensor:
#      x y z
#    x 3.174600 0.000000 0.000000 
#    y 0.000000 3.330590 0.000000 
#    z 0.000000 0.000000 3.808370 
# 
# 
# High freq. dielectric constant tensor:
#      x y z
#    x 1.661930 0.000000 0.000000 
#    y 0.000000 1.693930 0.000000 
#    z 0.000000 0.000000 1.713760 
# 
# From -- ./inp_files/67101.got.cif
#   From: 2010.03.12/outbox.cif.g09.slc.cpg/sg65_34_cif.got.tgz:67101.got - 2010.04.10 20:52:16.
