data_PCOD8272938
_publ_section_title
;
Structure prediction by ZEFSAII (Michael W. Deem and Ramdas Pophale) SiO2 
 PCOD8272938
Probable space group: C M M M
;
_chemical_formula_sum "Si O2"
_cell_formula_units_Z 104
_cell_length_a 19.754234
_cell_length_b 9.244897
_cell_length_c 32.414033
_cell_angle_alpha 90.000000
_cell_angle_beta 90.000000
_cell_angle_gamma 90.000000
_cell_volume 5919.640609
_symmetry_space_group_name_H-M "C M M M"
_symmetry_group_IT_number 65
_symmetry_cell_setting 'orthorhombic'
loop_
_space_group_symop_operation_xyz
x,y,z
-x,-y,z
x,-y,-z
-x,y,-z
-x,-y,-z
x,y,-z
-x,y,z
x,-y,z
1/2+x,1/2+y,z
1/2-x,1/2-y,z
1/2+x,1/2-y,-z
1/2-x,1/2+y,-z
1/2-x,1/2-y,-z
1/2+x,1/2+y,-z
1/2-x,1/2+y,z
1/2+x,1/2-y,z
loop_
_atom_site_type_symbol
_atom_site_label
_atom_site_fract_x
_atom_site_fract_y
_atom_site_fract_z
Si Si1 0.316941 0.832227 0.600645
Si Si2 0.078705 0.164881 0.547348
Si Si3 0.182676 0.668397 0.303302
Si Si4 0.419311 0.336665 0.000000
Si Si5 0.419211 0.162484 0.078934
Si Si6 0.078881 0.831809 0.248196
Si Si7 0.080444 0.839637 0.844122
O O1 0.250000 0.750000 0.585389
O O2 0.381094 0.774433 0.576008
O O3 0.330364 0.803272 0.648638
O O4 0.306793 0.000000 0.590889
O O5 0.099016 0.192036 0.500000
O O6 0.000000 0.197068 0.554084
O O7 0.095567 0.000000 0.559863
O O8 0.191200 0.500000 0.293217
O O9 0.250000 0.750000 0.288208
O O10 0.118480 0.730969 0.279613
O O11 0.391621 0.255008 0.040454
O O12 0.391248 0.500000 0.000000
O O13 0.500000 0.336927 0.000000
O O14 0.500000 0.162920 0.078993
O O15 0.390751 0.230217 0.121510
O O16 0.391168 0.000000 0.075092
O O17 0.102375 0.790700 0.201718
O O18 0.000000 0.798594 0.254324
O O19 0.094142 0.000000 0.257095
O O20 0.000000 0.844694 0.846098
O O21 0.108783 0.000000 0.853693
#
# Coordination Sequence:
#
# PCOD8272938 Si02
#       7
#    16  16  16   8  16  16  16
#     4  10  21  36  54  76 101 131 167 205 245 290
#     4   9  19  36  56  78 105 136 168 202 242 288
#     4  10  21  36  53  73  99 130 164 203 246 292
#     4   9  15  21  29  41  61  95 138 179 220 271
#     4   9  15  21  30  46  69  98 135 180 226 270
#     4   9  18  32  50  72  97 126 161 199 240 290
#     4   8  14  25  39  55  78 109 144 181 223 274
#
# _framework density 17.568633999999999
#
# number of rings (size 3 to 8) (size 9 to 14) (size 15 to 20)
#    0.000    2.846    0.000    3.000    0.000    7.077 
#    0.000    5.385    0.000    0.000    0.000    0.000 
#    0.000    0.000    0.000    0.692    0.000   10.000 
#
# Total GULP energy -644757.285381 kJ/mol
# GULP energy per Si atom -12399.178565 kJ/mol
# Density = 1.752865 g / cm^3
# Si number density = 17.568634 Si / 1000 Ang^3
#
#
#
# Elastic Constant Matrix: (Units=GPa)
#
#
# Indices 1 2 3 4 5 6 
#
# 1 51.8656 47.8703 45.3356 0.0000 0.0000 0.0000
# 2 47.8703 136.3494 72.9874 0.0000 0.0000 0.0000
# 3 45.3356 72.9874 93.2899 0.0000 0.0000 0.0000
# 4 0.0000 0.0000 0.0000 35.9582 0.0000 0.0000
# 5 0.0000 0.0000 0.0000 0.0000 -0.5377 0.0000
# 6 0.0000 0.0000 0.0000 0.0000 0.0000 25.8385
#
#
#
# Elastic Compliance Matrix: (Units=1/GPa)
#
#
# Indices 1 2 3 4 5 6 
#
# 1 0.035851 -0.005610 -0.013033 0.000000 0.000000 0.000000
# 2 -0.005610 0.013497 -0.007833 0.000000 0.000000 0.000000
# 3 -0.013033 -0.007833 0.023181 0.000000 0.000000 0.000000
# 4 0.000000 0.000000 0.000000 0.027810 0.000000 0.000000
# 5 0.000000 0.000000 0.000000 0.000000 -1.859681 0.000000
# 6 0.000000 0.000000 0.000000 0.000000 0.000000 0.038702
#
#
# Mechanical properties :
#
#
# Convention : Reuss Voigt Hill
#
# Bulk Modulus (GPa) = 51.08241 68.21018 59.64629
# Shear Modulus (GPa) = -3.00994 19.93924 8.46465
#
# Velocity S-wave (km/s) = -1.31033 3.37253 2.19739
# Velocity P-wave (km/s) = 5.18167 7.35354 6.36099
#
# Compressibility (1/GPa) = 0.01957621
#
# Stress axis : x y z
#
# Youngs Moduli (GPa) = 27.89350 74.09138 43.13825
#
# Poissons Ratio (x) = 0.41567 0.56222
# Poissons Ratio (y) = 0.15649 0.33791
# Poissons Ratio (z) = 0.36353 0.58037
#
# Static dielectric constant tensor:
#      x y z
#    x 2.791380 0.000000 0.000000 
#    y 0.000000 3.392550 0.000000 
#    z 0.000000 0.000000 3.377410 
# 
# 
# High freq. dielectric constant tensor:
#      x y z
#    x 1.628010 0.000000 0.000000 
#    y 0.000000 1.688480 0.000000 
#    z 0.000000 0.000000 1.687070 
# 
# From -- ./inp_files/78254.got.cif
#   From: 2010.03.12/outbox.cif.g09.slc.cpg/sg65_40_cif.got.tgz:78254.got - 2010.04.10 20:52:16.
