data_PCOD8272104
_publ_section_title
;
Structure prediction by ZEFSAII (Michael W. Deem and Ramdas Pophale) SiO2 
 PCOD8272104
Probable space group: C M M M
;
_chemical_formula_sum "Si O2"
_cell_formula_units_Z 88
_cell_length_a 24.441308
_cell_length_b 12.355420
_cell_length_c 16.187283
_cell_angle_alpha 90.000000
_cell_angle_beta 90.000000
_cell_angle_gamma 90.000000
_cell_volume 4888.278223
_symmetry_space_group_name_H-M "C M M M"
_symmetry_group_IT_number 65
_symmetry_cell_setting 'orthorhombic'
loop_
_space_group_symop_operation_xyz
x,y,z
-x,-y,z
x,-y,-z
-x,y,-z
-x,-y,-z
x,y,-z
-x,y,z
x,-y,z
1/2+x,1/2+y,z
1/2-x,1/2-y,z
1/2+x,1/2-y,-z
1/2-x,1/2+y,-z
1/2-x,1/2-y,-z
1/2+x,1/2+y,-z
1/2-x,1/2+y,z
1/2+x,1/2-y,z
loop_
_atom_site_type_symbol
_atom_site_label
_atom_site_fract_x
_atom_site_fract_y
_atom_site_fract_z
Si Si1 0.250000 0.250000 0.213498
Si Si2 0.440496 0.874160 0.163598
Si Si3 0.060604 0.729493 0.333380
Si Si4 0.809095 0.203832 0.500000
Si Si5 0.097531 0.628174 0.500000
Si Si6 0.828823 0.371809 0.092732
Si Si7 0.163858 0.123707 0.326124
O O1 0.216612 0.331073 0.155807
O O2 0.208074 0.184472 0.270154
O O3 0.500000 0.824021 0.136487
O O4 0.430983 0.857353 0.260882
O O5 0.389248 0.823018 0.113811
O O6 0.442165 0.000000 0.144767
O O7 0.065214 0.664796 0.418815
O O8 0.103779 0.825055 0.319412
O O9 0.000000 0.781884 0.329959
O O10 0.750000 0.250000 0.500000
O O11 0.844682 0.312494 0.500000
O O12 0.818400 0.128596 0.578890
O O13 0.106638 0.500000 0.500000
O O14 0.830257 0.500000 0.101257
O O15 0.813539 0.335250 0.000000
O O16 0.160567 0.000000 0.296756
#
# Coordination Sequence:
#
# PCOD8272104 Si02
#       7
#     8  16  16   8   8  16  16
#     4  12  21  39  56  82 110 146 184 225 273 326
#     4   9  17  31  53  80 110 142 177 222 274 328
#     4  10  20  36  54  78 112 145 185 228 271 323
#     4  10  21  40  52  81 114 151 189 223 267 317
#     4  10  21  33  53  83 115 150 184 223 275 326
#     4  10  21  36  56  82 111 143 178 222 278 337
#     4  11  23  38  58  81 110 146 188 231 271 320
#
# _framework density 18.002248999999999
#
# number of rings (size 3 to 8) (size 9 to 14) (size 15 to 20)
#    0.000    1.818    2.727    1.909    0.000    2.909 
#    0.000    1.818    0.000    3.273    0.000    0.000 
#    0.000    2.909    0.000    0.000    0.000    0.000 
#
# Total GULP energy -545415.494465 kJ/mol
# GULP energy per Si atom -12395.806692 kJ/mol
# Density = 1.796127 g / cm^3
# Si number density = 18.002249 Si / 1000 Ang^3
#
#
#
# Elastic Constant Matrix: (Units=GPa)
#
#
# Indices 1 2 3 4 5 6 
#
# 1 133.4527 38.2824 55.6778 0.0000 0.0000 0.0000
# 2 38.2824 76.8717 30.5754 0.0000 0.0000 0.0000
# 3 55.6778 30.5754 113.2267 0.0000 0.0000 0.0000
# 4 0.0000 0.0000 0.0000 22.1538 0.0000 0.0000
# 5 0.0000 0.0000 0.0000 0.0000 56.9509 0.0000
# 6 0.0000 0.0000 0.0000 0.0000 0.0000 20.7895
#
#
#
# Elastic Compliance Matrix: (Units=1/GPa)
#
#
# Indices 1 2 3 4 5 6 
#
# 1 0.010184 -0.003450 -0.004076 0.000000 0.000000 0.000000
# 2 -0.003450 0.015743 -0.002555 0.000000 0.000000 0.000000
# 3 -0.004076 -0.002555 0.011526 0.000000 0.000000 0.000000
# 4 0.000000 0.000000 0.000000 0.045139 0.000000 0.000000
# 5 0.000000 0.000000 0.000000 0.000000 0.017559 0.000000
# 6 0.000000 0.000000 0.000000 0.000000 0.000000 0.048101
#
#
# Mechanical properties :
#
#
# Convention : Reuss Voigt Hill
#
# Bulk Modulus (GPa) = 57.83365 63.62473 60.72919
# Shear Modulus (GPa) = 28.70643 33.24653 30.97648
#
# Velocity S-wave (km/s) = 3.99758 4.30210 4.15263
# Velocity P-wave (km/s) = 7.31458 7.75221 7.53657
#
# Compressibility (1/GPa) = 0.01729097
#
# Stress axis : x y z
#
# Youngs Moduli (GPa) = 98.19749 63.52030 86.76067
#
# Poissons Ratio (x) = 0.21916 0.35363
# Poissons Ratio (y) = 0.33881 0.22164
# Poissons Ratio (z) = 0.40025 0.16227
#
# Static dielectric constant tensor:
#      x y z
#    x 3.711470 0.000000 0.000000 
#    y 0.000000 2.906930 0.000000 
#    z 0.000000 0.000000 3.469010 
# 
# 
# High freq. dielectric constant tensor:
#      x y z
#    x 1.719120 0.000000 0.000000 
#    y 0.000000 1.664590 0.000000 
#    z 0.000000 0.000000 1.704510 
# 
# From -- ./inp_files/46817.got.cif
#   From: 2010.03.12/outbox.cif.g09.slc.cpg/sg65_24_cif.got.tgz:46817.got - 2010.04.10 20:52:16.
