data_PCOD8272619
_publ_section_title
;
Structure prediction by ZEFSAII (Michael W. Deem and Ramdas Pophale) SiO2 
 PCOD8272619
Probable space group: C M M M
;
_chemical_formula_sum "Si O2"
_cell_formula_units_Z 104
_cell_length_a 17.594338
_cell_length_b 22.471636
_cell_length_c 15.508075
_cell_angle_alpha 90.000000
_cell_angle_beta 90.000000
_cell_angle_gamma 90.000000
_cell_volume 6131.482809
_symmetry_space_group_name_H-M "C M M M"
_symmetry_group_IT_number 65
_symmetry_cell_setting 'orthorhombic'
loop_
_space_group_symop_operation_xyz
x,y,z
-x,-y,z
x,-y,-z
-x,y,-z
-x,-y,-z
x,y,-z
-x,y,z
x,-y,z
1/2+x,1/2+y,z
1/2-x,1/2-y,z
1/2+x,1/2-y,-z
1/2-x,1/2+y,-z
1/2-x,1/2-y,-z
1/2+x,1/2+y,-z
1/2-x,1/2+y,z
1/2+x,1/2-y,z
loop_
_atom_site_type_symbol
_atom_site_label
_atom_site_fract_x
_atom_site_fract_y
_atom_site_fract_z
Si Si1 0.258890 0.069896 0.092960
Si Si2 0.084061 0.430603 0.170344
Si Si3 0.412763 0.757001 0.599572
Si Si4 0.296042 0.569387 0.726102
Si Si5 0.089690 0.878428 0.598053
Si Si6 0.146253 0.627304 0.667760
Si Si7 0.415514 0.929837 0.500000
O O1 0.346202 0.091149 0.110292
O O2 0.200826 0.086587 0.171211
O O3 0.259937 0.000000 0.082920
O O4 0.233060 0.097791 0.000000
O O5 0.094200 0.500000 0.192146
O O6 0.088539 0.394603 0.259128
O O7 0.000000 0.418879 0.128866
O O8 0.402643 0.774367 0.500000
O O9 0.500000 0.764128 0.627477
O O10 0.385784 0.689548 0.615313
O O11 0.361954 0.801503 0.656545
O O12 0.273565 0.500000 0.717204
O O13 0.372897 0.580980 0.672528
O O14 0.232976 0.612294 0.687214
O O15 0.114136 0.896987 0.500000
O O16 0.000000 0.886435 0.607164
O O17 0.128518 0.592435 0.582030
O O18 0.500000 0.902397 0.500000
O O19 0.417809 0.000000 0.500000
#
# Coordination Sequence:
#
# PCOD8272619 Si02
#       7
#    16  16  16  16  16  16   8
#     4   8  15  29  47  67  93 124 155 190 240 292
#     4   9  16  25  38  61  95 129 165 203 231 269
#     4   9  17  31  48  66  91 126 168 207 235 267
#     4  10  21  34  49  72 100 126 155 197 244 292
#     4   9  20  37  54  71  92 122 162 206 247 285
#     4  11  19  28  42  65  95 131 164 196 234 276
#     4  11  20  26  36  57  91 137 174 193 221 269
#
# _framework density 16.961639999999999
#
# number of rings (size 3 to 8) (size 9 to 14) (size 15 to 20)
#    0.000    2.538    0.769    4.615    1.077    2.769 
#    0.000    3.846    0.000    0.462    0.000   10.769 
#    0.000    4.923    0.000    0.000    0.000    0.000 
#
# Total GULP energy -644320.365665 kJ/mol
# GULP energy per Si atom -12390.776263 kJ/mol
# Density = 1.692303 g / cm^3
# Si number density = 16.961640 Si / 1000 Ang^3
#
#
#
# Elastic Constant Matrix: (Units=GPa)
#
#
# Indices 1 2 3 4 5 6 
#
# 1 57.7980 19.6231 43.2681 0.0000 0.0000 0.0000
# 2 19.6231 42.6415 29.6041 0.0000 0.0000 0.0000
# 3 43.2681 29.6041 132.9481 0.0000 0.0000 0.0000
# 4 0.0000 0.0000 0.0000 3.8955 0.0000 0.0000
# 5 0.0000 0.0000 0.0000 0.0000 18.0773 0.0000
# 6 0.0000 0.0000 0.0000 0.0000 0.0000 24.4096
#
#
#
# Elastic Compliance Matrix: (Units=1/GPa)
#
#
# Indices 1 2 3 4 5 6 
#
# 1 0.024421 -0.006766 -0.006441 0.000000 0.000000 0.000000
# 2 -0.006766 0.029615 -0.004392 0.000000 0.000000 0.000000
# 3 -0.006441 -0.004392 0.010596 0.000000 0.000000 0.000000
# 4 0.000000 0.000000 0.000000 0.256704 0.000000 0.000000
# 5 0.000000 0.000000 0.000000 0.000000 0.055318 0.000000
# 6 0.000000 0.000000 0.000000 0.000000 0.000000 0.040968
#
#
# Mechanical properties :
#
#
# Convention : Reuss Voigt Hill
#
# Bulk Modulus (GPa) = 33.97680 46.48647 40.23164
# Shear Modulus (GPa) = 10.80775 18.66929 14.73852
#
# Velocity S-wave (km/s) = 2.52700 3.32124 2.95096
# Velocity P-wave (km/s) = 5.34690 6.49414 5.94824
#
# Compressibility (1/GPa) = 0.02943185
#
# Stress axis : x y z
#
# Youngs Moduli (GPa) = 40.94883 33.76719 94.37508
#
# Poissons Ratio (x) = 0.22848 0.60787
# Poissons Ratio (y) = 0.27708 0.41452
# Poissons Ratio (z) = 0.26375 0.14831
#
# Static dielectric constant tensor:
#      x y z
#    x 3.013670 0.000000 0.000000 
#    y 0.000000 3.028130 0.000000 
#    z 0.000000 0.000000 3.468230 
# 
# 
# High freq. dielectric constant tensor:
#      x y z
#    x 1.638230 0.000000 0.000000 
#    y 0.000000 1.630390 0.000000 
#    z 0.000000 0.000000 1.644860 
# 
# From -- ./inp_files/43113.got.cif
#   From: 2010.03.12/outbox.cif.g09.slc.cpg/sg65_22_cif.got.tgz:43113.got - 2010.04.10 20:52:16.
