data_PCOD8272732
_publ_section_title
;
Structure prediction by ZEFSAII (Michael W. Deem and Ramdas Pophale) SiO2 
 PCOD8272732
Probable space group: C M M M
;
_chemical_formula_sum "Si O2"
_cell_formula_units_Z 88
_cell_length_a 18.245180
_cell_length_b 9.420014
_cell_length_c 28.415843
_cell_angle_alpha 90.000000
_cell_angle_beta 90.000000
_cell_angle_gamma 90.000000
_cell_volume 4883.826703
_symmetry_space_group_name_H-M "C M M M"
_symmetry_group_IT_number 65
_symmetry_cell_setting 'orthorhombic'
loop_
_space_group_symop_operation_xyz
x,y,z
-x,-y,z
x,-y,-z
-x,y,-z
-x,-y,-z
x,y,-z
-x,y,z
x,-y,z
1/2+x,1/2+y,z
1/2-x,1/2-y,z
1/2+x,1/2-y,-z
1/2-x,1/2+y,-z
1/2-x,1/2-y,-z
1/2+x,1/2+y,-z
1/2-x,1/2+y,z
1/2+x,1/2-y,z
loop_
_atom_site_type_symbol
_atom_site_label
_atom_site_fract_x
_atom_site_fract_y
_atom_site_fract_z
Si Si1 0.087187 0.159377 0.947892
Si Si2 0.414839 0.335884 0.410912
Si Si3 0.412805 0.839302 0.500000
Si Si4 0.412635 0.159844 0.861724
Si Si5 0.824786 0.166072 0.680851
Si Si6 0.915135 0.835555 0.772333
O O1 0.119629 0.265133 0.908555
O O2 0.000000 0.160219 0.945499
O O3 0.115612 0.000000 0.937747
O O4 0.112891 0.209217 0.000000
O O5 0.500000 0.305367 0.401297
O O6 0.402190 0.500000 0.423954
O O7 0.383827 0.241522 0.453748
O O8 0.371587 0.290271 0.364525
O O9 0.500000 0.836074 0.500000
O O10 0.382557 0.000000 0.500000
O O11 0.500000 0.161353 0.863218
O O12 0.384911 0.244056 0.815929
O O13 0.382010 0.000000 0.859754
O O14 0.750000 0.250000 0.680271
O O15 0.870562 0.211061 0.726544
O O16 0.807497 0.000000 0.681073
O O17 0.000000 0.803238 0.762089
O O18 0.903443 0.000000 0.784923
#
# Coordination Sequence:
#
# PCOD8272732 Si02
#       6
#    16  16   8  16  16  16
#     4   8  13  21  33  50  76 113 152 185 222 273
#     4   9  17  32  54  76  98 127 163 197 229 272
#     4   9  17  29  48  77 106 127 153 193 238 277
#     4   9  16  24  36  58  86 114 147 189 235 278
#     4  10  21  35  51  72  97 125 157 195 239 283
#     4   9  17  31  50  68  88 119 159 197 231 274
#
# _framework density 18.018657999999999
#
# number of rings (size 3 to 8) (size 9 to 14) (size 15 to 20)
#    0.000    3.000    0.000    1.909    0.000    7.273 
#    0.000    2.273    0.000    5.455    0.000    0.000 
#    0.000    0.727    0.000    2.364    0.000    4.727 
#
# Total GULP energy -545532.915473 kJ/mol
# GULP energy per Si atom -12398.475352 kJ/mol
# Density = 1.797765 g / cm^3
# Si number density = 18.018658 Si / 1000 Ang^3
#
#
#
# Elastic Constant Matrix: (Units=GPa)
#
#
# Indices 1 2 3 4 5 6 
#
# 1 45.9250 36.4045 49.6307 0.0000 0.0000 0.0000
# 2 36.4045 112.1009 103.0934 0.0000 0.0000 0.0000
# 3 49.6307 103.0934 201.3498 0.0000 0.0000 0.0000
# 4 0.0000 0.0000 0.0000 24.4388 0.0000 0.0000
# 5 0.0000 0.0000 0.0000 0.0000 0.2503 0.0000
# 6 0.0000 0.0000 0.0000 0.0000 0.0000 19.9408
#
#
#
# Elastic Compliance Matrix: (Units=1/GPa)
#
#
# Indices 1 2 3 4 5 6 
#
# 1 0.031591 -0.005855 -0.004789 0.000000 0.000000 0.000000
# 2 -0.005855 0.017944 -0.007744 0.000000 0.000000 0.000000
# 3 -0.004789 -0.007744 0.010112 0.000000 0.000000 0.000000
# 4 0.000000 0.000000 0.000000 0.040919 0.000000 0.000000
# 5 0.000000 0.000000 0.000000 0.000000 3.995566 0.000000
# 6 0.000000 0.000000 0.000000 0.000000 0.000000 0.050148
#
#
# Mechanical properties :
#
#
# Convention : Reuss Voigt Hill
#
# Bulk Modulus (GPa) = 43.72400 81.95920 62.84160
# Shear Modulus (GPa) = 1.19312 20.27579 10.73446
#
# Velocity S-wave (km/s) = 0.81462 3.35814 2.44343
# Velocity P-wave (km/s) = 5.02030 7.78592 6.55073
#
# Compressibility (1/GPa) = 0.02287074
#
# Stress axis : x y z
#
# Youngs Moduli (GPa) = 31.65417 55.72913 98.89076
#
# Poissons Ratio (x) = 0.32628 0.47361
# Poissons Ratio (y) = 0.18533 0.76584
# Poissons Ratio (z) = 0.15160 0.43159
#
# Static dielectric constant tensor:
#      x y z
#    x 2.786640 0.000000 0.000000 
#    y 0.000000 3.427710 0.000000 
#    z 0.000000 0.000000 3.610380 
# 
# 
# High freq. dielectric constant tensor:
#      x y z
#    x 1.638810 0.000000 0.000000 
#    y 0.000000 1.696910 0.000000 
#    z 0.000000 0.000000 1.716280 
# 
# From -- ./inp_files/77850.got.cif
#   From: 2010.03.12/outbox.cif.g09.slc.cpg/sg65_39_cif.got.tgz:77850.got - 2010.04.10 20:52:16.
