data_PCOD8272419
_publ_section_title
;
Structure prediction by ZEFSAII (Michael W. Deem and Ramdas Pophale) SiO2 
 PCOD8272419
Probable space group: C M M M
;
_chemical_formula_sum "Si O2"
_cell_formula_units_Z 64
_cell_length_a 8.647080
_cell_length_b 14.808968
_cell_length_c 26.110843
_cell_angle_alpha 90.000000
_cell_angle_beta 90.000000
_cell_angle_gamma 90.000000
_cell_volume 3343.606533
_symmetry_space_group_name_H-M "C M M M"
_symmetry_group_IT_number 65
_symmetry_cell_setting 'orthorhombic'
loop_
_space_group_symop_operation_xyz
x,y,z
-x,-y,z
x,-y,-z
-x,y,-z
-x,-y,-z
x,y,-z
-x,y,z
x,-y,z
1/2+x,1/2+y,z
1/2-x,1/2-y,z
1/2+x,1/2-y,-z
1/2-x,1/2+y,-z
1/2-x,1/2-y,-z
1/2+x,1/2+y,-z
1/2-x,1/2+y,z
1/2+x,1/2-y,z
loop_
_atom_site_type_symbol
_atom_site_label
_atom_site_fract_x
_atom_site_fract_y
_atom_site_fract_z
Si Si1 0.183592 0.600509 0.000000
Si Si2 0.320693 0.000000 0.439850
Si Si3 0.317226 0.500000 0.291131
Si Si4 0.183446 0.148807 0.370276
Si Si5 0.816655 0.341982 0.890043
Si Si6 0.183408 0.000000 0.176171
O O1 0.244726 0.648184 0.948537
O O2 0.251441 0.500000 0.000000
O O3 0.000000 0.598103 0.000000
O O4 0.243515 0.092138 0.418941
O O5 0.500000 0.000000 0.424529
O O6 0.294782 0.000000 0.500000
O O7 0.500000 0.500000 0.289084
O O8 0.262588 0.408721 0.320292
O O9 0.248936 0.500000 0.233853
O O10 0.250000 0.250000 0.368399
O O11 0.000000 0.156001 0.373770
O O12 0.750000 0.250000 0.867855
O O13 0.746410 0.414589 0.852965
O O14 0.000000 0.347010 0.887810
O O15 0.000000 0.000000 0.175940
#
# Coordination Sequence:
#
# PCOD8272419 Si02
#       6
#     8   8   8  16  16   8
#     4   9  17  34  58  79 106 142 178 223 272 327
#     4  10  21  37  57  85 120 155 192 234 278 326
#     4   8  19  38  58  80 110 145 185 235 282 328
#     4  10  20  37  60  85 113 149 191 234 280 330
#     4  11  22  38  58  82 111 144 182 224 275 331
#     4  11  22  39  59  83 113 144 182 229 281 334
#
# _framework density 19.141007999999999
#
# number of rings (size 3 to 8) (size 9 to 14) (size 15 to 20)
#    0.000    2.000    1.250    3.375    0.000    2.500 
#    0.000   12.500    0.000    0.000    0.000    0.000 
#    0.000    0.000    0.000    0.000    0.000    0.000 
#
# Total GULP energy -396705.341495 kJ/mol
# GULP energy per Si atom -12397.041922 kJ/mol
# Density = 1.909744 g / cm^3
# Si number density = 19.141008 Si / 1000 Ang^3
#
#
#
# Elastic Constant Matrix: (Units=GPa)
#
#
# Indices 1 2 3 4 5 6 
#
# 1 84.0462 53.9403 53.6591 0.0000 0.0000 0.0000
# 2 53.9403 199.1090 82.9323 0.0000 0.0000 0.0000
# 3 53.6591 82.9323 153.8880 0.0000 0.0000 0.0000
# 4 0.0000 0.0000 0.0000 29.7919 0.0000 0.0000
# 5 0.0000 0.0000 0.0000 0.0000 22.7397 0.0000
# 6 0.0000 0.0000 0.0000 0.0000 0.0000 34.6931
#
#
#
# Elastic Compliance Matrix: (Units=1/GPa)
#
#
# Indices 1 2 3 4 5 6 
#
# 1 0.016318 -0.002644 -0.004265 0.000000 0.000000 0.000000
# 2 -0.002644 0.006905 -0.002799 0.000000 0.000000 0.000000
# 3 -0.004265 -0.002799 0.009494 0.000000 0.000000 0.000000
# 4 0.000000 0.000000 0.000000 0.033566 0.000000 0.000000
# 5 0.000000 0.000000 0.000000 0.000000 0.043976 0.000000
# 6 0.000000 0.000000 0.000000 0.000000 0.000000 0.028824
#
#
# Mechanical properties :
#
#
# Convention : Reuss Voigt Hill
#
# Bulk Modulus (GPa) = 75.18683 90.90074 83.04379
# Shear Modulus (GPa) = 30.68757 33.87906 32.28331
#
# Velocity S-wave (km/s) = 4.00839 4.21167 4.11128
# Velocity P-wave (km/s) = 7.79671 8.44062 8.12504
#
# Compressibility (1/GPa) = 0.01330020
#
# Stress axis : x y z
#
# Youngs Moduli (GPa) = 61.28099 144.83235 105.33259
#
# Poissons Ratio (x) = 0.38299 0.44924
# Poissons Ratio (y) = 0.16205 0.29482
# Poissons Ratio (z) = 0.26136 0.40537
#
# Static dielectric constant tensor:
#      x y z
#    x 3.415570 0.000000 0.000000 
#    y 0.000000 3.669100 0.000000 
#    z 0.000000 0.000000 3.771210 
# 
# 
# High freq. dielectric constant tensor:
#      x y z
#    x 1.736660 0.000000 0.000000 
#    y 0.000000 1.757700 0.000000 
#    z 0.000000 0.000000 1.746240 
# 
# From -- ./inp_files/72427.got.cif
#   From: 2010.03.12/outbox.cif.g09.slc.cpg/sg65_37_cif.got.tgz:72427.got - 2010.04.10 20:52:16.
