data_PCOD8272340
_publ_section_title
;
Structure prediction by ZEFSAII (Michael W. Deem and Ramdas Pophale) SiO2 
 PCOD8272340
Probable space group: C M M M
;
_chemical_formula_sum "Si O2"
_cell_formula_units_Z 88
_cell_length_a 22.001012
_cell_length_b 22.558693
_cell_length_c 9.111314
_cell_angle_alpha 90.000000
_cell_angle_beta 90.000000
_cell_angle_gamma 90.000000
_cell_volume 4522.073384
_symmetry_space_group_name_H-M "C M M M"
_symmetry_group_IT_number 65
_symmetry_cell_setting 'orthorhombic'
loop_
_space_group_symop_operation_xyz
x,y,z
-x,-y,z
x,-y,-z
-x,y,-z
-x,-y,-z
x,y,-z
-x,y,z
x,-y,z
1/2+x,1/2+y,z
1/2-x,1/2-y,z
1/2+x,1/2-y,-z
1/2-x,1/2+y,-z
1/2-x,1/2-y,-z
1/2+x,1/2+y,-z
1/2-x,1/2+y,z
1/2+x,1/2-y,z
loop_
_atom_site_type_symbol
_atom_site_label
_atom_site_fract_x
_atom_site_fract_y
_atom_site_fract_z
Si Si1 0.067695 0.430268 0.663107
Si Si2 0.000000 0.931009 0.825615
Si Si3 0.239355 0.933204 0.332179
Si Si4 0.163396 0.360291 0.828456
Si Si5 0.384375 0.622548 0.668691
Si Si6 0.679657 0.744973 0.672598
O O1 0.092025 0.413187 0.500000
O O2 0.066977 0.500000 0.680761
O O3 0.109795 0.405167 0.790133
O O4 0.000000 0.404728 0.684084
O O5 0.941146 0.896118 0.767407
O O6 0.000000 0.000000 0.773017
O O7 0.000000 0.927647 0.000000
O O8 0.257032 0.918356 0.500000
O O9 0.273102 0.886104 0.230627
O O10 0.167047 0.927566 0.311779
O O11 0.258850 0.000000 0.290786
O O12 0.145545 0.297999 0.755059
O O13 0.169284 0.351768 0.000000
O O14 0.406119 0.626922 0.500000
O O15 0.353632 0.684357 0.720585
O O16 0.674053 0.753991 0.500000
O O17 0.750000 0.750000 0.722075
#
# Coordination Sequence:
#
# PCOD8272340 Si02
#       6
#    16   8  16  16  16  16
#     4   9  19  38  62  84 109 148 198 246 289 337
#     4  11  25  43  63  91 131 171 200 243 312 379
#     4  10  20  36  60  88 117 151 196 249 297 345
#     4  12  24  35  54  86 124 158 190 233 294 364
#     4  10  21  40  67  92 114 152 208 260 300 347
#     4  10  20  40  66  87 113 150 197 248 295 346
#
# _framework density 19.460099
#
# number of rings (size 3 to 8) (size 9 to 14) (size 15 to 20)
#    0.000    1.727    1.818    3.545    0.000    6.545 
#    1.636    0.909    0.000    0.000    0.000    0.000 
#    0.000    0.000    0.000    0.000    0.000    0.000 
#
# Total GULP energy -545600.470058 kJ/mol
# GULP energy per Si atom -12400.010683 kJ/mol
# Density = 1.941581 g / cm^3
# Si number density = 19.460099 Si / 1000 Ang^3
#
#
#
# Elastic Constant Matrix: (Units=GPa)
#
#
# Indices 1 2 3 4 5 6 
#
# 1 107.4347 46.2350 38.1834 0.0000 0.0000 0.0000
# 2 46.2350 104.2899 49.6536 0.0000 0.0000 0.0000
# 3 38.1834 49.6536 62.5550 0.0000 0.0000 0.0000
# 4 0.0000 0.0000 0.0000 19.2292 0.0000 0.0000
# 5 0.0000 0.0000 0.0000 0.0000 6.5341 0.0000
# 6 0.0000 0.0000 0.0000 0.0000 0.0000 27.9105
#
#
#
# Elastic Compliance Matrix: (Units=1/GPa)
#
#
# Indices 1 2 3 4 5 6 
#
# 1 0.012466 -0.003060 -0.005180 0.000000 0.000000 0.000000
# 2 -0.003060 0.016165 -0.010963 0.000000 0.000000 0.000000
# 3 -0.005180 -0.010963 0.027850 0.000000 0.000000 0.000000
# 4 0.000000 0.000000 0.000000 0.052004 0.000000 0.000000
# 5 0.000000 0.000000 0.000000 0.000000 0.153043 0.000000
# 6 0.000000 0.000000 0.000000 0.000000 0.000000 0.035829
#
#
# Mechanical properties :
#
#
# Convention : Reuss Voigt Hill
#
# Bulk Modulus (GPa) = 55.32828 60.26931 57.79879
# Shear Modulus (GPa) = 14.62891 20.08192 17.35542
#
# Velocity S-wave (km/s) = 2.74476 3.21589 2.98962
# Velocity P-wave (km/s) = 6.20792 6.69531 6.45622
#
# Compressibility (1/GPa) = 0.01807394
#
# Stress axis : x y z
#
# Youngs Moduli (GPa) = 80.21786 61.86169 35.90662
#
# Poissons Ratio (x) = 0.18931 0.18600
# Poissons Ratio (y) = 0.24549 0.39365
# Poissons Ratio (z) = 0.41554 0.67820
#
# Static dielectric constant tensor:
#      x y z
#    x 3.579580 0.000000 0.000000 
#    y 0.000000 3.647710 0.000000 
#    z 0.000000 0.000000 3.357040 
# 
# 
# High freq. dielectric constant tensor:
#      x y z
#    x 1.756660 0.000000 0.000000 
#    y 0.000000 1.765050 0.000000 
#    z 0.000000 0.000000 1.739450 
# 
# From -- ./inp_files/11807.got.cif
#   From: 2010.03.12/outbox.cif.g09.slc.cpg/sg65_6_cif.got.tgz:11807.got - 2010.04.10 20:52:16.
