data_PCOD8272045
_publ_section_title
;
Structure prediction by ZEFSAII (Michael W. Deem and Ramdas Pophale) SiO2 
 PCOD8272045
Probable space group: C M M M
;
_chemical_formula_sum "Si O2"
_cell_formula_units_Z 104
_cell_length_a 29.545009
_cell_length_b 8.959372
_cell_length_c 20.158255
_cell_angle_alpha 90.000000
_cell_angle_beta 90.000000
_cell_angle_gamma 90.000000
_cell_volume 5335.985374
_symmetry_space_group_name_H-M "C M M M"
_symmetry_group_IT_number 65
_symmetry_cell_setting 'orthorhombic'
loop_
_space_group_symop_operation_xyz
x,y,z
-x,-y,z
x,-y,-z
-x,y,-z
-x,-y,-z
x,y,-z
-x,y,z
x,-y,z
1/2+x,1/2+y,z
1/2-x,1/2-y,z
1/2+x,1/2-y,-z
1/2-x,1/2+y,-z
1/2-x,1/2-y,-z
1/2+x,1/2+y,-z
1/2-x,1/2+y,z
1/2+x,1/2-y,z
loop_
_atom_site_type_symbol
_atom_site_label
_atom_site_fract_x
_atom_site_fract_y
_atom_site_fract_z
Si Si1 0.612188 0.673043 0.924401
Si Si2 0.706844 0.834762 0.096206
Si Si3 0.792506 0.335316 0.749915
Si Si4 0.088848 0.172414 0.426914
Si Si5 0.618157 0.674150 0.287434
Si Si6 0.446852 0.823762 0.812074
Si Si7 0.000000 0.662658 0.578124
O O1 0.614925 0.500000 0.903592
O O2 0.661795 0.742103 0.917718
O O3 0.576352 0.754966 0.877224
O O4 0.595102 0.691022 0.000000
O O5 0.750000 0.750000 0.064020
O O6 0.716729 0.855334 0.173227
O O7 0.702065 0.000000 0.064316
O O8 0.798321 0.500000 0.717016
O O9 0.750000 0.250000 0.716141
O O10 0.836670 0.235682 0.744151
O O11 0.105192 0.233006 0.500000
O O12 0.123702 0.202354 0.367127
O O13 0.044013 0.249831 0.399569
O O14 0.077452 0.000000 0.434330
O O15 0.613261 0.500000 0.271604
O O16 0.575279 0.756892 0.254762
O O17 0.500000 0.784524 0.812222
O O18 0.438297 0.000000 0.812834
O O19 0.000000 0.500000 0.612487
O O20 0.000000 0.645733 0.500000
#
# Coordination Sequence:
#
# PCOD8272045 Si02
#       7
#    16  16  16  16  16  16   8
#     4  11  24  41  62  87 116 151 192 239 288 341
#     4  10  20  35  58  86 118 154 188 230 285 343
#     4  10  20  35  58  87 118 150 187 233 285 341
#     4   9  19  35  53  77 112 153 194 234 283 344
#     4  11  22  36  60  88 116 152 192 238 289 339
#     4  11  25  43  61  84 115 152 194 241 289 339
#     4   9  17  29  47  73 105 143 186 231 278 329
#
# _framework density 19.490307000000001
#
# number of rings (size 3 to 8) (size 9 to 14) (size 15 to 20)
#    0.000    1.769    1.538    2.538    1.077    6.462 
#    0.000    1.538    0.000    0.462    0.000    0.000 
#    0.000    0.000    0.000    0.000    0.000    0.000 
#
# Total GULP energy -644529.191316 kJ/mol
# GULP energy per Si atom -12394.792141 kJ/mol
# Density = 1.944595 g / cm^3
# Si number density = 19.490307 Si / 1000 Ang^3
#
#
#
# Elastic Constant Matrix: (Units=GPa)
#
#
# Indices 1 2 3 4 5 6 
#
# 1 125.5279 60.7767 37.2738 0.0000 0.0000 0.0000
# 2 60.7767 123.5924 46.1530 0.0000 0.0000 0.0000
# 3 37.2738 46.1530 91.8877 0.0000 0.0000 0.0000
# 4 0.0000 0.0000 0.0000 6.4500 0.0000 0.0000
# 5 0.0000 0.0000 0.0000 0.0000 84.6915 0.0000
# 6 0.0000 0.0000 0.0000 0.0000 0.0000 99.5552
#
#
#
# Elastic Compliance Matrix: (Units=1/GPa)
#
#
# Indices 1 2 3 4 5 6 
#
# 1 0.010777 -0.004514 -0.002104 0.000000 0.000000 0.000000
# 2 -0.004514 0.011849 -0.004121 0.000000 0.000000 0.000000
# 3 -0.002104 -0.004121 0.013806 0.000000 0.000000 0.000000
# 4 0.000000 0.000000 0.000000 0.155039 0.000000 0.000000
# 5 0.000000 0.000000 0.000000 0.000000 0.011808 0.000000
# 6 0.000000 0.000000 0.000000 0.000000 0.000000 0.010045
#
#
# Mechanical properties :
#
#
# Convention : Reuss Voigt Hill
#
# Bulk Modulus (GPa) = 66.86824 69.93500 68.40162
# Shear Modulus (GPa) = 20.85190 51.25963 36.05576
#
# Velocity S-wave (km/s) = 3.27442 5.13392 4.30575
# Velocity P-wave (km/s) = 6.97701 8.43224 7.73891
#
# Compressibility (1/GPa) = 0.01495478
#
# Stress axis : x y z
#
# Youngs Moduli (GPa) = 92.79417 84.39184 72.43076
#
# Poissons Ratio (x) = 0.38091 0.15242
# Poissons Ratio (y) = 0.41883 0.29847
# Poissons Ratio (z) = 0.19528 0.34776
#
# Static dielectric constant tensor:
#      x y z
#    x 3.500380 0.000000 0.000000 
#    y 0.000000 3.943750 0.000000 
#    z 0.000000 0.000000 3.637360 
# 
# 
# High freq. dielectric constant tensor:
#      x y z
#    x 1.744630 0.000000 0.000000 
#    y 0.000000 1.777860 0.000000 
#    z 0.000000 0.000000 1.752560 
# 
# From -- ./inp_files/65909.got.cif
#   From: 2010.03.12/outbox.cif.g09.slc.cpg/sg65_33_cif.got.tgz:65909.got - 2010.04.10 20:52:16.
