data_PCOD8272318
_publ_section_title
;
Structure prediction by ZEFSAII (Michael W. Deem and Ramdas Pophale) SiO2 
 PCOD8272318
Probable space group: C M M M
;
_chemical_formula_sum "Si O2"
_cell_formula_units_Z 88
_cell_length_a 17.261573
_cell_length_b 9.544528
_cell_length_c 27.131060
_cell_angle_alpha 90.000000
_cell_angle_beta 90.000000
_cell_angle_gamma 90.000000
_cell_volume 4469.938907
_symmetry_space_group_name_H-M "C M M M"
_symmetry_group_IT_number 65
_symmetry_cell_setting 'orthorhombic'
loop_
_space_group_symop_operation_xyz
x,y,z
-x,-y,z
x,-y,-z
-x,y,-z
-x,-y,-z
x,y,-z
-x,y,z
x,-y,z
1/2+x,1/2+y,z
1/2-x,1/2-y,z
1/2+x,1/2-y,-z
1/2-x,1/2+y,-z
1/2-x,1/2-y,-z
1/2+x,1/2+y,-z
1/2-x,1/2+y,z
1/2+x,1/2-y,z
loop_
_atom_site_type_symbol
_atom_site_label
_atom_site_fract_x
_atom_site_fract_y
_atom_site_fract_z
Si Si1 0.592596 0.000000 0.445020
Si Si2 0.092405 0.338079 0.000000
Si Si3 0.908835 0.839332 0.907173
Si Si4 0.407715 0.248381 0.380628
Si Si5 0.329248 0.167755 0.175211
Si Si6 0.912405 0.662715 0.723856
Si Si7 0.407504 0.500000 0.444396
O O1 0.626154 0.126570 0.413931
O O2 0.500000 0.000000 0.448234
O O3 0.627518 0.000000 0.500000
O O4 0.124311 0.250010 0.953272
O O5 0.123698 0.500000 0.000000
O O6 0.000000 0.342864 0.000000
O O7 0.890635 0.745412 0.859528
O O8 0.000000 0.852574 0.911966
O O9 0.874590 0.000000 0.905304
O O10 0.500000 0.242388 0.378340
O O11 0.378780 0.245102 0.323858
O O12 0.375149 0.376556 0.411209
O O13 0.250000 0.250000 0.166339
O O14 0.356390 0.194414 0.230820
O O15 0.323320 0.000000 0.163914
O O16 0.913121 0.500000 0.709815
O O17 0.000000 0.711007 0.737197
O O18 0.500000 0.500000 0.448104
O O19 0.373317 0.500000 0.500000
#
# Coordination Sequence:
#
# PCOD8272318 Si02
#       7
#     8   8  16  16  16  16   8
#     4   9  14  20  36  60  89 125 159 196 247 310
#     4   9  17  31  56  89 122 155 190 225 265 317
#     4  10  20  36  59  89 121 152 188 229 272 319
#     4   9  15  25  39  61  92 126 164 204 251 311
#     4  11  23  39  57  78 109 146 187 233 282 333
#     4   9  17  32  54  76  99 132 176 223 269 320
#     4   9  16  24  34  56  95 135 161 190 247 316
#
# _framework density 19.687069999999999
#
# number of rings (size 3 to 8) (size 9 to 14) (size 15 to 20)
#    0.000    2.455    0.909    2.455    0.000    5.091 
#    3.273    0.455    0.000    0.000    0.000    0.000 
#    0.000    4.364    0.000    0.000    0.000    0.000 
#
# Total GULP energy -545098.488133 kJ/mol
# GULP energy per Si atom -12388.602003 kJ/mol
# Density = 1.964226 g / cm^3
# Si number density = 19.687070 Si / 1000 Ang^3
#
#
#
# Elastic Constant Matrix: (Units=GPa)
#
#
# Indices 1 2 3 4 5 6 
#
# 1 15.8526 12.6927 5.9122 0.0000 0.0000 0.0000
# 2 12.6927 170.9239 80.8351 0.0000 0.0000 0.0000
# 3 5.9122 80.8351 152.7590 0.0000 0.0000 0.0000
# 4 0.0000 0.0000 0.0000 40.6048 0.0000 0.0000
# 5 0.0000 0.0000 0.0000 0.0000 1.7157 0.0000
# 6 0.0000 0.0000 0.0000 0.0000 0.0000 17.6615
#
#
#
# Elastic Compliance Matrix: (Units=1/GPa)
#
#
# Indices 1 2 3 4 5 6 
#
# 1 0.067069 -0.005006 0.000053 0.000000 0.000000 0.000000
# 2 -0.005006 0.008177 -0.004133 0.000000 0.000000 0.000000
# 3 0.000053 -0.004133 0.008731 0.000000 0.000000 0.000000
# 4 0.000000 0.000000 0.000000 0.024628 0.000000 0.000000
# 5 0.000000 0.000000 0.000000 0.000000 0.582838 0.000000
# 6 0.000000 0.000000 0.000000 0.000000 0.000000 0.056620
#
#
# Mechanical properties :
#
#
# Convention : Reuss Voigt Hill
#
# Bulk Modulus (GPa) = 15.19621 59.82395 37.51008
# Shear Modulus (GPa) = 6.34381 28.00277 17.17329
#
# Velocity S-wave (km/s) = 1.79703 3.77556 2.95670
# Velocity P-wave (km/s) = 3.47007 7.03277 5.54532
#
# Compressibility (1/GPa) = 0.06580590
#
# Stress axis : x y z
#
# Youngs Moduli (GPa) = 14.90998 122.29380 114.52903
#
# Poissons Ratio (x) = 0.61216 -0.00608
# Poissons Ratio (y) = 0.07463 0.47338
# Poissons Ratio (z) = -0.00079 0.50548
#
# Static dielectric constant tensor:
#      x y z
#    x 2.926640 0.000000 0.000000 
#    y 0.000000 3.824990 0.000000 
#    z 0.000000 0.000000 3.777800 
# 
# 
# High freq. dielectric constant tensor:
#      x y z
#    x 1.703240 0.000000 0.000000 
#    y 0.000000 1.776300 0.000000 
#    z 0.000000 0.000000 1.787220 
# 
# From -- ./inp_files/78019.got.cif
#   From: 2010.03.12/outbox.cif.g09.slc.cpg/sg65_40_cif.got.tgz:78019.got - 2010.04.10 20:52:16.
