data_PCOD8272568
_publ_section_title
;
Structure prediction by ZEFSAII (Michael W. Deem and Ramdas Pophale) SiO2 
 PCOD8272568
Probable space group: C M M M
;
_chemical_formula_sum "Si O2"
_cell_formula_units_Z 72
_cell_length_a 10.108812
_cell_length_b 21.974283
_cell_length_c 16.710372
_cell_angle_alpha 90.000000
_cell_angle_beta 90.000000
_cell_angle_gamma 90.000000
_cell_volume 3711.940031
_symmetry_space_group_name_H-M "C M M M"
_symmetry_group_IT_number 65
_symmetry_cell_setting 'orthorhombic'
loop_
_space_group_symop_operation_xyz
x,y,z
-x,-y,z
x,-y,-z
-x,y,-z
-x,-y,-z
x,y,-z
-x,y,z
x,-y,z
1/2+x,1/2+y,z
1/2-x,1/2-y,z
1/2+x,1/2-y,-z
1/2-x,1/2+y,-z
1/2-x,1/2-y,-z
1/2+x,1/2+y,-z
1/2-x,1/2+y,z
1/2+x,1/2-y,z
loop_
_atom_site_type_symbol
_atom_site_label
_atom_site_fract_x
_atom_site_fract_y
_atom_site_fract_z
Si Si1 0.000000 0.827972 0.596946
Si Si2 0.730865 0.142417 0.679024
Si Si3 0.346255 0.070344 0.821168
Si Si4 0.500000 0.808828 0.409366
Si Si5 0.750000 0.250000 0.795806
Si Si6 0.146178 0.156324 0.091117
O O1 0.125817 0.859545 0.638466
O O2 0.000000 0.758657 0.629318
O O3 0.000000 0.836531 0.500000
O O4 0.705727 0.081421 0.730219
O O5 0.627310 0.150110 0.607837
O O6 0.692287 0.197624 0.738971
O O7 0.500000 0.089713 0.829005
O O8 0.258397 0.108611 0.883076
O O9 0.327518 0.000000 0.841964
O O10 0.500000 0.791045 0.500000
O O11 0.855565 0.217079 0.854005
O O12 0.000000 0.126558 0.099920
O O13 0.174164 0.175433 0.000000
#
# Coordination Sequence:
#
# PCOD8272568 Si02
#       6
#     8  16  16   8   8  16
#     4  11  22  36  55  87 125 154 183 232 295 351
#     4  11  21  35  58  84 118 152 192 237 280 344
#     4  10  23  41  62  85 112 153 199 245 295 344
#     4  11  20  34  55  87 121 154 187 226 283 349
#     4  10  21  32  57  84 122 154 184 224 285 346
#     4  10  23  40  60  88 121 154 192 240 290 347
#
# _framework density 19.396864999999998
#
# number of rings (size 3 to 8) (size 9 to 14) (size 15 to 20)
#    0.000    1.556    3.333    1.000    7.778    4.000 
#    0.000    2.222    0.000    4.000    0.000    0.000 
#    0.000    0.000    0.000    0.000    0.000    0.000 
#
# Total GULP energy -446097.469926 kJ/mol
# GULP energy per Si atom -12391.596387 kJ/mol
# Density = 1.935272 g / cm^3
# Si number density = 19.396865 Si / 1000 Ang^3
#
#
#
# Elastic Constant Matrix: (Units=GPa)
#
#
# Indices 1 2 3 4 5 6 
#
# 1 161.9386 35.4650 52.9327 0.0000 0.0000 0.0000
# 2 35.4650 57.0572 26.2516 0.0000 0.0000 0.0000
# 3 52.9327 26.2516 94.1576 0.0000 0.0000 0.0000
# 4 0.0000 0.0000 0.0000 18.4728 0.0000 0.0000
# 5 0.0000 0.0000 0.0000 0.0000 31.6790 0.0000
# 6 0.0000 0.0000 0.0000 0.0000 0.0000 23.4213
#
#
#
# Elastic Compliance Matrix: (Units=1/GPa)
#
#
# Indices 1 2 3 4 5 6 
#
# 1 0.008093 -0.003369 -0.003610 0.000000 0.000000 0.000000
# 2 -0.003369 0.021508 -0.004102 0.000000 0.000000 0.000000
# 3 -0.003610 -0.004102 0.013794 0.000000 0.000000 0.000000
# 4 0.000000 0.000000 0.000000 0.054134 0.000000 0.000000
# 5 0.000000 0.000000 0.000000 0.000000 0.031567 0.000000
# 6 0.000000 0.000000 0.000000 0.000000 0.000000 0.042696
#
#
# Mechanical properties :
#
#
# Convention : Reuss Voigt Hill
#
# Bulk Modulus (GPa) = 47.10116 60.27244 53.68680
# Shear Modulus (GPa) = 24.87153 27.94821 26.40987
#
# Velocity S-wave (km/s) = 3.58473 3.79999 3.69393
# Velocity P-wave (km/s) = 6.43967 7.09887 6.77729
#
# Compressibility (1/GPa) = 0.02123090
#
# Stress axis : x y z
#
# Youngs Moduli (GPa) = 123.56050 46.49417 72.49573
#
# Poissons Ratio (x) = 0.15666 0.26174
# Poissons Ratio (y) = 0.41632 0.29741
# Poissons Ratio (z) = 0.44610 0.19074
#
# Static dielectric constant tensor:
#      x y z
#    x 3.139660 0.000000 0.000000 
#    y 0.000000 3.349020 0.000000 
#    z 0.000000 0.000000 3.653170 
# 
# 
# High freq. dielectric constant tensor:
#      x y z
#    x 1.763490 0.000000 0.000000 
#    y 0.000000 1.720690 0.000000 
#    z 0.000000 0.000000 1.766410 
# 
# From -- ./inp_files/49571.got.cif
#   From: 2010.03.12/outbox.cif.g09.slc.cpg/sg65_25_cif.got.tgz:49571.got - 2010.04.10 20:52:16.
