data_PCOD8272646
_publ_section_title
;
Structure prediction by ZEFSAII (Michael W. Deem and Ramdas Pophale) SiO2 
 PCOD8272646
Probable space group: C M M M
;
_chemical_formula_sum "Si O2"
_cell_formula_units_Z 88
_cell_length_a 9.216115
_cell_length_b 30.365368
_cell_length_c 17.155222
_cell_angle_alpha 90.000000
_cell_angle_beta 90.000000
_cell_angle_gamma 90.000000
_cell_volume 4800.901289
_symmetry_space_group_name_H-M "C M M M"
_symmetry_group_IT_number 65
_symmetry_cell_setting 'orthorhombic'
loop_
_space_group_symop_operation_xyz
x,y,z
-x,-y,z
x,-y,-z
-x,y,-z
-x,-y,-z
x,y,-z
-x,y,z
x,-y,z
1/2+x,1/2+y,z
1/2-x,1/2-y,z
1/2+x,1/2-y,-z
1/2-x,1/2+y,-z
1/2-x,1/2-y,-z
1/2+x,1/2+y,-z
1/2-x,1/2+y,z
1/2+x,1/2-y,z
loop_
_atom_site_type_symbol
_atom_site_label
_atom_site_fract_x
_atom_site_fract_y
_atom_site_fract_z
Si Si1 0.168491 0.550674 0.347681
Si Si2 0.670162 0.586819 0.090020
Si Si3 0.665864 0.794424 0.500000
Si Si4 0.169614 0.296077 0.331467
Si Si5 0.338388 0.000000 0.091723
Si Si6 0.162745 0.052218 0.500000
Si Si7 0.829760 0.375596 0.775376
O O1 0.207860 0.500000 0.326683
O O2 0.255311 0.568493 0.422642
O O3 0.210145 0.581145 0.274736
O O4 0.000000 0.555462 0.368881
O O5 0.500000 0.581496 0.104596
O O6 0.749242 0.542432 0.117972
O O7 0.738380 0.624682 0.144287
O O8 0.702760 0.598245 0.000000
O O9 0.500000 0.780828 0.500000
O O10 0.750000 0.750000 0.500000
O O11 0.702742 0.818079 0.417495
O O12 0.250000 0.250000 0.317593
O O13 0.222019 0.331822 0.269165
O O14 0.000000 0.286600 0.321893
O O15 0.500000 0.000000 0.130620
O O16 0.356161 0.000000 0.000000
O O17 0.000000 0.071568 0.500000
O O18 0.161352 0.000000 0.500000
O O19 0.000000 0.374398 0.794709
#
# Coordination Sequence:
#
# PCOD8272646 Si02
#       7
#    16  16   8  16   8   8  16
#     4   9  18  32  49  70  99 135 173 212 251 300
#     4  10  21  36  53  76 107 140 174 215 267 322
#     4   8  14  27  48  72 100 133 166 207 260 311
#     4   9  18  33  53  78 107 138 173 216 263 313
#     4   9  17  31  53  77 101 134 173 212 255 307
#     4   9  17  30  47  67  95 135 178 214 250 293
#     4  10  21  34  52  79 105 135 177 220 264 314
#
# _framework density 18.329892000000001
#
# number of rings (size 3 to 8) (size 9 to 14) (size 15 to 20)
#    0.000    2.727    0.000    1.091    1.273    5.455 
#    0.000    2.727    0.000    4.909    0.000    0.000 
#    0.000    0.000    0.000    0.000    0.000    0.000 
#
# Total GULP energy -545332.101506 kJ/mol
# GULP energy per Si atom -12393.911398 kJ/mol
# Density = 1.828817 g / cm^3
# Si number density = 18.329892 Si / 1000 Ang^3
#
#
#
# Elastic Constant Matrix: (Units=GPa)
#
#
# Indices 1 2 3 4 5 6 
#
# 1 81.7836 40.0875 63.2370 0.0000 0.0000 0.0000
# 2 40.0875 88.6679 62.3047 0.0000 0.0000 0.0000
# 3 63.2370 62.3047 127.6313 0.0000 0.0000 0.0000
# 4 0.0000 0.0000 0.0000 25.3061 0.0000 0.0000
# 5 0.0000 0.0000 0.0000 0.0000 27.3310 0.0000
# 6 0.0000 0.0000 0.0000 0.0000 0.0000 22.3010
#
#
#
# Elastic Compliance Matrix: (Units=1/GPa)
#
#
# Indices 1 2 3 4 5 6 
#
# 1 0.020411 -0.003230 -0.008536 0.000000 0.000000 0.000000
# 2 -0.003230 0.017678 -0.007029 0.000000 0.000000 0.000000
# 3 -0.008536 -0.007029 0.015496 0.000000 0.000000 0.000000
# 4 0.000000 0.000000 0.000000 0.039516 0.000000 0.000000
# 5 0.000000 0.000000 0.000000 0.000000 0.036589 0.000000
# 6 0.000000 0.000000 0.000000 0.000000 0.000000 0.044841
#
#
# Mechanical properties :
#
#
# Convention : Reuss Voigt Hill
#
# Bulk Modulus (GPa) = 62.52415 69.92679 66.22547
# Shear Modulus (GPa) = 22.99359 23.81787 23.40573
#
# Velocity S-wave (km/s) = 3.54564 3.60863 3.57727
# Velocity P-wave (km/s) = 7.13769 7.45619 7.29868
#
# Compressibility (1/GPa) = 0.01599382
#
# Stress axis : x y z
#
# Youngs Moduli (GPa) = 48.99330 56.56907 64.53302
#
# Poissons Ratio (x) = 0.18270 0.55087
# Poissons Ratio (y) = 0.15823 0.45362
# Poissons Ratio (z) = 0.41822 0.39764
#
# Static dielectric constant tensor:
#      x y z
#    x 3.390330 0.000000 0.000000 
#    y 0.000000 3.092500 0.000000 
#    z 0.000000 0.000000 3.991170 
# 
# 
# High freq. dielectric constant tensor:
#      x y z
#    x 1.710450 0.000000 0.000000 
#    y 0.000000 1.678410 0.000000 
#    z 0.000000 0.000000 1.714200 
# 
# From -- ./inp_files/50493.got.cif
#   From: 2010.03.12/outbox.cif.g09.slc.cpg/sg65_26_cif.got.tgz:50493.got - 2010.04.10 20:52:16.
