data_PCOD8272170
_publ_section_title
;
Structure prediction by ZEFSAII (Michael W. Deem and Ramdas Pophale) SiO2 
 PCOD8272170
Probable space group: C M M M
;
_chemical_formula_sum "Si O2"
_cell_formula_units_Z 72
_cell_length_a 8.851019
_cell_length_b 14.400785
_cell_length_c 28.948144
_cell_angle_alpha 90.000000
_cell_angle_beta 90.000000
_cell_angle_gamma 90.000000
_cell_volume 3689.777378
_symmetry_space_group_name_H-M "C M M M"
_symmetry_group_IT_number 65
_symmetry_cell_setting 'orthorhombic'
loop_
_space_group_symop_operation_xyz
x,y,z
-x,-y,z
x,-y,-z
-x,y,-z
-x,-y,-z
x,y,-z
-x,y,z
x,-y,z
1/2+x,1/2+y,z
1/2-x,1/2-y,z
1/2+x,1/2-y,-z
1/2-x,1/2+y,-z
1/2-x,1/2-y,-z
1/2+x,1/2+y,-z
1/2-x,1/2+y,z
1/2+x,1/2-y,z
loop_
_atom_site_type_symbol
_atom_site_label
_atom_site_fract_x
_atom_site_fract_y
_atom_site_fract_z
Si Si1 0.828002 0.500000 0.192515
Si Si2 0.825446 0.000000 0.054366
Si Si3 0.176210 0.649635 0.115840
Si Si4 0.677111 0.500000 0.711411
Si Si5 0.178695 0.350852 0.351638
Si Si6 0.823575 0.650748 0.451290
O O1 0.796607 0.407853 0.162715
O O2 0.711985 0.500000 0.234512
O O3 0.000000 0.500000 0.210870
O O4 0.749208 0.093497 0.073567
O O5 0.000000 0.000000 0.068941
O O6 0.802969 0.000000 0.000000
O O7 0.250000 0.750000 0.121364
O O8 0.000000 0.661234 0.105215
O O9 0.500000 0.500000 0.703271
O O10 0.748474 0.409400 0.688828
O O11 0.250000 0.250000 0.348779
O O12 0.218313 0.397765 0.402268
O O13 0.000000 0.345753 0.343591
O O14 0.779144 0.597551 0.500000
O O15 0.750000 0.750000 0.452188
O O16 0.000000 0.667890 0.450805
#
# Coordination Sequence:
#
# PCOD8272170 Si02
#       6
#     8   8  16   8  16  16
#     4   9  21  41  60  81 110 144 186 237 290 339
#     4  10  21  37  58  87 125 166 205 244 284 327
#     4  10  21  38  62  89 118 153 193 239 287 338
#     4  12  25  39  57  81 110 145 184 228 280 337
#     4  10  20  36  57  80 109 142 177 222 273 329
#     4   8  14  26  47  74 101 132 170 211 260 318
#
# _framework density 19.513372
#
# number of rings (size 3 to 8) (size 9 to 14) (size 15 to 20)
#    0.000    2.333    0.000    3.333    0.000    5.778 
#    0.000    2.778    0.000    3.333    0.000    0.000 
#    0.000    0.000    0.000    0.000    0.000    0.000 
#
# Total GULP energy -446021.873254 kJ/mol
# GULP energy per Si atom -12389.496479 kJ/mol
# Density = 1.946896 g / cm^3
# Si number density = 19.513372 Si / 1000 Ang^3
#
#
#
# Elastic Constant Matrix: (Units=GPa)
#
#
# Indices 1 2 3 4 5 6 
#
# 1 121.0422 59.5808 66.6114 0.0000 0.0000 0.0000
# 2 59.5808 127.2251 53.9026 0.0000 0.0000 0.0000
# 3 66.6114 53.9026 127.0126 0.0000 0.0000 0.0000
# 4 0.0000 0.0000 0.0000 22.4467 0.0000 0.0000
# 5 0.0000 0.0000 0.0000 0.0000 28.5726 0.0000
# 6 0.0000 0.0000 0.0000 0.0000 0.0000 31.1225
#
#
#
# Elastic Compliance Matrix: (Units=1/GPa)
#
#
# Indices 1 2 3 4 5 6 
#
# 1 0.013036 -0.003912 -0.005177 0.000000 0.000000 0.000000
# 2 -0.003912 0.010757 -0.002514 0.000000 0.000000 0.000000
# 3 -0.005177 -0.002514 0.011655 0.000000 0.000000 0.000000
# 4 0.000000 0.000000 0.000000 0.044550 0.000000 0.000000
# 5 0.000000 0.000000 0.000000 0.000000 0.034999 0.000000
# 6 0.000000 0.000000 0.000000 0.000000 0.000000 0.032131
#
#
# Mechanical properties :
#
#
# Convention : Reuss Voigt Hill
#
# Bulk Modulus (GPa) = 81.67342 81.71883 81.69613
# Shear Modulus (GPa) = 28.66776 29.44070 29.05423
#
# Velocity S-wave (km/s) = 3.83709 3.88847 3.86286
# Velocity P-wave (km/s) = 7.84710 7.88223 7.86468
#
# Compressibility (1/GPa) = 0.01224389
#
# Stress axis : x y z
#
# Youngs Moduli (GPa) = 76.71249 92.96355 85.80140
#
# Poissons Ratio (x) = 0.36363 0.44415
# Poissons Ratio (y) = 0.30007 0.21568
# Poissons Ratio (z) = 0.39710 0.23368
#
# Static dielectric constant tensor:
#      x y z
#    x 3.693620 0.000000 0.000000 
#    y 0.000000 3.377390 0.000000 
#    z 0.000000 0.000000 3.881440 
# 
# 
# High freq. dielectric constant tensor:
#      x y z
#    x 1.768000 0.000000 0.000000 
#    y 0.000000 1.746590 0.000000 
#    z 0.000000 0.000000 1.772830 
# 
# From -- ./inp_files/76385.got.cif
#   From: 2010.03.12/outbox.cif.g09.slc.cpg/sg65_39_cif.got.tgz:76385.got - 2010.04.10 20:52:16.
