data_PCOD8272199
_publ_section_title
;
Structure prediction by ZEFSAII (Michael W. Deem and Ramdas Pophale) SiO2 
 PCOD8272199
Probable space group: C M M M
;
_chemical_formula_sum "Si O2"
_cell_formula_units_Z 80
_cell_length_a 23.833819
_cell_length_b 9.858769
_cell_length_c 18.264598
_cell_angle_alpha 90.000000
_cell_angle_beta 90.000000
_cell_angle_gamma 90.000000
_cell_volume 4291.671238
_symmetry_space_group_name_H-M "C M M M"
_symmetry_group_IT_number 65
_symmetry_cell_setting 'orthorhombic'
loop_
_space_group_symop_operation_xyz
x,y,z
-x,-y,z
x,-y,-z
-x,y,-z
-x,-y,-z
x,y,-z
-x,y,z
x,-y,z
1/2+x,1/2+y,z
1/2-x,1/2-y,z
1/2+x,1/2-y,-z
1/2-x,1/2+y,-z
1/2-x,1/2-y,-z
1/2+x,1/2+y,-z
1/2-x,1/2+y,z
1/2+x,1/2-y,z
loop_
_atom_site_type_symbol
_atom_site_label
_atom_site_fract_x
_atom_site_fract_y
_atom_site_fract_z
Si Si1 0.812231 0.000000 0.588599
Si Si2 0.899283 0.657446 0.193704
Si Si3 0.313627 0.000000 0.582909
Si Si4 0.201252 0.347195 0.083052
Si Si5 0.879975 0.253888 0.357038
Si Si6 0.500000 0.651788 0.361630
Si Si7 0.000000 0.153811 0.811480
O O1 0.748153 0.000000 0.619886
O O2 0.842803 0.874965 0.625740
O O3 0.817902 0.000000 0.500000
O O4 0.919577 0.500000 0.200494
O O5 0.851212 0.672531 0.134763
O O6 0.877551 0.710172 0.271599
O O7 0.947067 0.757367 0.163228
O O8 0.351879 0.127315 0.598527
O O9 0.296048 0.000000 0.500000
O O10 0.224226 0.500000 0.087496
O O11 0.250000 0.250000 0.111867
O O12 0.183554 0.309992 0.000000
O O13 0.943975 0.232277 0.385703
O O14 0.500000 0.500000 0.395994
O O15 0.500000 0.639358 0.275022
O O16 0.000000 0.000000 0.845364
#
# Coordination Sequence:
#
# PCOD8272199 Si02
#       7
#     8  16   8  16  16   8   8
#     4  11  24  41  61  81 114 157 191 232 289 348
#     4  10  20  36  57  86 115 149 187 235 282 335
#     4  11  24  41  57  81 116 151 189 232 289 346
#     4   9  19  36  56  81 116 156 193 232 284 337
#     4  11  21  39  61  86 112 149 192 239 285 343
#     4   9  18  36  59  82 110 141 182 235 289 336
#     4   9  19  33  58  85 112 149 188 230 286 337
#
# _framework density 18.640757000000001
#
# number of rings (size 3 to 8) (size 9 to 14) (size 15 to 20)
#    0.000    2.000    2.000    1.500    1.400    4.400 
#    0.000    3.500    0.000    3.000    0.000    0.000 
#    0.000    0.000    0.000    0.000    0.000    0.000 
#
# Total GULP energy -495809.201489 kJ/mol
# GULP energy per Si atom -12395.230037 kJ/mol
# Density = 1.859833 g / cm^3
# Si number density = 18.640757 Si / 1000 Ang^3
#
#
#
# Elastic Constant Matrix: (Units=GPa)
#
#
# Indices 1 2 3 4 5 6 
#
# 1 155.9270 93.2250 34.8275 0.0000 0.0000 0.0000
# 2 93.2250 173.1419 38.3586 0.0000 0.0000 0.0000
# 3 34.8275 38.3586 51.0299 0.0000 0.0000 0.0000
# 4 0.0000 0.0000 0.0000 -30.9497 0.0000 0.0000
# 5 0.0000 0.0000 0.0000 0.0000 28.8612 0.0000
# 6 0.0000 0.0000 0.0000 0.0000 0.0000 -65.9618
#
#
#
# Elastic Compliance Matrix: (Units=1/GPa)
#
#
# Indices 1 2 3 4 5 6 
#
# 1 0.009900 -0.004600 -0.003299 0.000000 0.000000 0.000000
# 2 -0.004600 0.009067 -0.003676 0.000000 0.000000 0.000000
# 3 -0.003299 -0.003676 0.024611 0.000000 0.000000 0.000000
# 4 0.000000 0.000000 0.000000 -0.032311 0.000000 0.000000
# 5 0.000000 0.000000 0.000000 0.000000 0.034649 0.000000
# 6 0.000000 0.000000 0.000000 0.000000 0.000000 -0.015160
#
#
# Mechanical properties :
#
#
# Convention : Reuss Voigt Hill
#
# Bulk Modulus (GPa) = 48.95202 79.21345 64.08273
# Shear Modulus (GPa) = 82.35146 0.63578 41.49362
#
# Velocity S-wave (km/s) = 6.65388 0.58465 4.72313
# Velocity P-wave (km/s) = 9.23850 6.56070 8.01226
#
# Compressibility (1/GPa) = 0.02042817
#
# Stress axis : x y z
#
# Youngs Moduli (GPa) = 101.00805 110.29480 40.63162
#
# Poissons Ratio (x) = 0.50732 0.13406
# Poissons Ratio (y) = 0.46460 0.14936
# Poissons Ratio (z) = 0.33326 0.40545
#
# Static dielectric constant tensor:
#      x y z
#    x 3.655610 0.000000 0.000000 
#    y 0.000000 3.437950 0.000000 
#    z 0.000000 0.000000 3.240850 
# 
# 
# High freq. dielectric constant tensor:
#      x y z
#    x 1.732860 0.000000 0.000000 
#    y 0.000000 1.742280 0.000000 
#    z 0.000000 0.000000 1.702160 
# 
# From -- ./inp_files/65123.got.cif
#   From: 2010.03.12/outbox.cif.g09.slc.cpg/sg65_33_cif.got.tgz:65123.got - 2010.04.10 20:52:16.
