data_PCOD8272953
_publ_section_title
;
Structure prediction by ZEFSAII (Michael W. Deem and Ramdas Pophale) SiO2 
 PCOD8272953
Probable space group: C M M M
;
_chemical_formula_sum "Si O2"
_cell_formula_units_Z 104
_cell_length_a 22.415180
_cell_length_b 29.885047
_cell_length_c 8.941361
_cell_angle_alpha 90.000000
_cell_angle_beta 90.000000
_cell_angle_gamma 90.000000
_cell_volume 5989.627353
_symmetry_space_group_name_H-M "C M M M"
_symmetry_group_IT_number 65
_symmetry_cell_setting 'orthorhombic'
loop_
_space_group_symop_operation_xyz
x,y,z
-x,-y,z
x,-y,-z
-x,y,-z
-x,-y,-z
x,y,-z
-x,y,z
x,-y,z
1/2+x,1/2+y,z
1/2-x,1/2-y,z
1/2+x,1/2-y,-z
1/2-x,1/2+y,-z
1/2-x,1/2-y,-z
1/2+x,1/2+y,-z
1/2-x,1/2+y,z
1/2+x,1/2-y,z
loop_
_atom_site_type_symbol
_atom_site_label
_atom_site_fract_x
_atom_site_fract_y
_atom_site_fract_z
Si Si1 0.065059 0.286044 0.176541
Si Si2 0.070957 0.617274 0.171694
Si Si3 0.070676 0.189176 0.826632
Si Si4 0.500000 0.449820 0.322093
Si Si5 0.843704 0.551323 0.672995
Si Si6 0.114799 0.103385 0.676887
Si Si7 0.721094 0.551331 0.175908
O O1 0.096686 0.333165 0.219921
O O2 0.096302 0.238771 0.219737
O O3 0.000000 0.285886 0.252961
O O4 0.056043 0.286125 0.000000
O O5 0.100149 0.580737 0.278188
O O6 0.000000 0.615936 0.193947
O O7 0.087606 0.606703 0.000000
O O8 0.106981 0.154602 0.725620
O O9 0.000000 0.186259 0.794148
O O10 0.083609 0.178832 0.000000
O O11 0.500000 0.500000 0.257246
O O12 0.500000 0.450167 0.500000
O O13 0.558466 0.424720 0.261470
O O14 0.829310 0.559492 0.500000
O O15 0.860769 0.500000 0.704714
O O16 0.786186 0.565707 0.767891
O O17 0.119702 0.100510 0.500000
O O18 0.174131 0.083526 0.746717
O O19 0.707628 0.500000 0.221655
O O20 0.717971 0.558260 0.000000
#
# Coordination Sequence:
#
# PCOD8272953 Si02
#       7
#    16  16  16   8  16  16  16
#     4   7  12  25  46  71  98 131 166 201 242 290
#     4   9  17  31  53  80 107 134 167 203 242 289
#     4   9  16  28  47  70  99 132 168 208 249 292
#     4   9  18  30  43  63  95 133 165 197 244 299
#     4  10  21  36  53  74 102 135 167 200 244 298
#     4  11  20  31  48  71 101 133 167 206 252 303
#     4  10  21  37  55  73  93 124 170 215 251 293
#
# _framework density 17.363351000000002
#
# number of rings (size 3 to 8) (size 9 to 14) (size 15 to 20)
#    0.000    2.692    0.769    3.692    0.000    3.077 
#    0.000    2.308    0.000    5.538    0.000    6.462 
#    0.000    0.000    0.000    0.000    0.000    0.000 
#
# Total GULP energy -644448.327478 kJ/mol
# GULP energy per Si atom -12393.237067 kJ/mol
# Density = 1.732383 g / cm^3
# Si number density = 17.363351 Si / 1000 Ang^3
#
#
#
# Elastic Constant Matrix: (Units=GPa)
#
#
# Indices 1 2 3 4 5 6 
#
# 1 62.1614 54.4454 28.8535 0.0000 0.0000 0.0000
# 2 54.4454 133.8704 42.1031 0.0000 0.0000 0.0000
# 3 28.8535 42.1031 57.6459 0.0000 0.0000 0.0000
# 4 0.0000 0.0000 0.0000 22.7271 0.0000 0.0000
# 5 0.0000 0.0000 0.0000 0.0000 26.0377 0.0000
# 6 0.0000 0.0000 0.0000 0.0000 0.0000 16.7032
#
#
#
# Elastic Compliance Matrix: (Units=1/GPa)
#
#
# Indices 1 2 3 4 5 6 
#
# 1 0.027086 -0.008766 -0.007155 0.000000 0.000000 0.000000
# 2 -0.008766 0.012534 -0.004767 0.000000 0.000000 0.000000
# 3 -0.007155 -0.004767 0.024411 0.000000 0.000000 0.000000
# 4 0.000000 0.000000 0.000000 0.044000 0.000000 0.000000
# 5 0.000000 0.000000 0.000000 0.000000 0.038406 0.000000
# 6 0.000000 0.000000 0.000000 0.000000 0.000000 0.059869
#
#
# Mechanical properties :
#
#
# Convention : Reuss Voigt Hill
#
# Bulk Modulus (GPa) = 44.14093 56.05352 50.09722
# Shear Modulus (GPa) = 19.58996 21.64534 20.61765
#
# Velocity S-wave (km/s) = 3.36257 3.53457 3.44964
# Velocity P-wave (km/s) = 6.36812 7.00074 6.69191
#
# Compressibility (1/GPa) = 0.02265471
#
# Stress axis : x y z
#
# Youngs Moduli (GPa) = 36.91970 79.78174 40.96598
#
# Poissons Ratio (x) = 0.69933 0.29312
# Poissons Ratio (y) = 0.32362 0.19530
# Poissons Ratio (z) = 0.26416 0.38034
#
# Static dielectric constant tensor:
#      x y z
#    x 2.940430 0.000000 0.000000 
#    y 0.000000 3.585880 0.000000 
#    z 0.000000 0.000000 3.025320 
# 
# 
# High freq. dielectric constant tensor:
#      x y z
#    x 1.637210 0.000000 0.000000 
#    y 0.000000 1.685080 0.000000 
#    z 0.000000 0.000000 1.654640 
# 
# From -- ./inp_files/14748.got.cif
#   From: 2010.03.12/outbox.cif.g09.slc.cpg/sg65_8_cif.got.tgz:14748.got - 2010.04.10 20:52:16.
