data_PCOD8272965
_publ_section_title
;
Structure prediction by ZEFSAII (Michael W. Deem and Ramdas Pophale) SiO2 
 PCOD8272965
Probable space group: C M M M
;
_chemical_formula_sum "Si O2"
_cell_formula_units_Z 88
_cell_length_a 17.942813
_cell_length_b 8.988964
_cell_length_c 28.648313
_cell_angle_alpha 90.000000
_cell_angle_beta 90.000000
_cell_angle_gamma 90.000000
_cell_volume 4620.609057
_symmetry_space_group_name_H-M "C M M M"
_symmetry_group_IT_number 65
_symmetry_cell_setting 'orthorhombic'
loop_
_space_group_symop_operation_xyz
x,y,z
-x,-y,z
x,-y,-z
-x,y,-z
-x,-y,-z
x,y,-z
-x,y,z
x,-y,z
1/2+x,1/2+y,z
1/2-x,1/2-y,z
1/2+x,1/2-y,-z
1/2-x,1/2+y,-z
1/2-x,1/2-y,-z
1/2+x,1/2+y,-z
1/2-x,1/2+y,z
1/2+x,1/2-y,z
loop_
_atom_site_type_symbol
_atom_site_label
_atom_site_fract_x
_atom_site_fract_y
_atom_site_fract_z
Si Si1 0.329010 0.174055 0.549251
Si Si2 0.829498 0.674544 0.650036
Si Si3 0.672086 0.673443 0.823608
Si Si4 0.085156 0.324628 0.740913
Si Si5 0.829742 0.675168 0.000000
Si Si6 0.086772 0.829274 0.082336
O O1 0.372158 0.216796 0.500000
O O2 0.250000 0.250000 0.547948
O O3 0.366206 0.218745 0.599123
O O4 0.314949 0.000000 0.549687
O O5 0.814878 0.500000 0.653132
O O6 0.750000 0.750000 0.658529
O O7 0.887864 0.724103 0.689442
O O8 0.685965 0.500000 0.815538
O O9 0.750000 0.750000 0.835103
O O10 0.636237 0.740497 0.777533
O O11 0.617097 0.704777 0.866389
O O12 0.093596 0.500000 0.748845
O O13 0.000000 0.273182 0.746714
O O14 0.750000 0.750000 0.000000
O O15 0.874120 0.721557 0.954083
O O16 0.818789 0.500000 0.000000
O O17 0.000000 0.792241 0.082340
O O18 0.102024 0.000000 0.067891
#
# Coordination Sequence:
#
# PCOD8272965 Si02
#       6
#    16  16  16  16   8  16
#     4   8  13  22  38  61  89 120 156 201 251 302
#     4   9  17  29  46  69  96 127 165 209 258 311
#     4  11  23  39  60  85 111 141 179 221 266 317
#     4  10  21  36  53  74 103 139 176 217 266 317
#     4  12  25  40  61  89 119 153 193 232 269 312
#     4  10  22  41  63  87 117 150 182 221 270 319
#
# _framework density 19.045107999999999
#
# number of rings (size 3 to 8) (size 9 to 14) (size 15 to 20)
#    0.000    2.182    0.000    3.273    0.000    7.636 
#    0.000    0.000    0.000    0.545    0.000    3.818 
#    0.000    0.000    0.000   31.091    0.000   15.636 
#
# Total GULP energy -545271.072103 kJ/mol
# GULP energy per Si atom -12392.524366 kJ/mol
# Density = 1.900176 g / cm^3
# Si number density = 19.045108 Si / 1000 Ang^3
#
#
#
# Elastic Constant Matrix: (Units=GPa)
#
#
# Indices 1 2 3 4 5 6 
#
# 1 100.2268 42.3535 46.6221 0.0000 0.0000 0.0000
# 2 42.3535 67.1139 51.8272 0.0000 0.0000 0.0000
# 3 46.6221 51.8272 142.5382 0.0000 0.0000 0.0000
# 4 0.0000 0.0000 0.0000 27.4732 0.0000 0.0000
# 5 0.0000 0.0000 0.0000 0.0000 105.2393 0.0000
# 6 0.0000 0.0000 0.0000 0.0000 0.0000 23.5847
#
#
#
# Elastic Compliance Matrix: (Units=1/GPa)
#
#
# Indices 1 2 3 4 5 6 
#
# 1 0.013965 -0.007349 -0.001896 0.000000 0.000000 0.000000
# 2 -0.007349 0.024584 -0.006535 0.000000 0.000000 0.000000
# 3 -0.001896 -0.006535 0.010012 0.000000 0.000000 0.000000
# 4 0.000000 0.000000 0.000000 0.036399 0.000000 0.000000
# 5 0.000000 0.000000 0.000000 0.000000 0.009502 0.000000
# 6 0.000000 0.000000 0.000000 0.000000 0.000000 0.042400
#
#
# Mechanical properties :
#
#
# Convention : Reuss Voigt Hill
#
# Bulk Modulus (GPa) = 58.81800 65.72050 62.26925
# Shear Modulus (GPa) = 28.72098 42.53117 35.62608
#
# Velocity S-wave (km/s) = 3.88758 4.73078 4.32975
# Velocity P-wave (km/s) = 7.14854 8.02640 7.60015
#
# Compressibility (1/GPa) = 0.01700160
#
# Stress axis : x y z
#
# Youngs Moduli (GPa) = 71.60984 40.67633 99.88122
#
# Poissons Ratio (x) = 0.29892 0.18933
# Poissons Ratio (y) = 0.52625 0.65275
# Poissons Ratio (z) = 0.13574 0.26583
#
# Static dielectric constant tensor:
#      x y z
#    x 3.378450 0.000000 0.000000 
#    y 0.000000 3.496300 0.000000 
#    z 0.000000 0.000000 4.159960 
# 
# 
# High freq. dielectric constant tensor:
#      x y z
#    x 1.716730 0.000000 0.000000 
#    y 0.000000 1.735830 0.000000 
#    z 0.000000 0.000000 1.772160 
# 
# From -- ./inp_files/76548.got.cif
#   From: 2010.03.12/outbox.cif.g09.slc.cpg/sg65_39_cif.got.tgz:76548.got - 2010.04.10 20:52:16.
