data_PCOD8272369
_publ_section_title
;
Structure prediction by ZEFSAII (Michael W. Deem and Ramdas Pophale) SiO2 
 PCOD8272369
Probable space group: C M M M
;
_chemical_formula_sum "Si O2"
_cell_formula_units_Z 96
_cell_length_a 20.698912
_cell_length_b 21.694989
_cell_length_c 11.089856
_cell_angle_alpha 90.000000
_cell_angle_beta 90.000000
_cell_angle_gamma 90.000000
_cell_volume 4980.040325
_symmetry_space_group_name_H-M "C M M M"
_symmetry_group_IT_number 65
_symmetry_cell_setting 'orthorhombic'
loop_
_space_group_symop_operation_xyz
x,y,z
-x,-y,z
x,-y,-z
-x,y,-z
-x,-y,-z
x,y,-z
-x,y,z
x,-y,z
1/2+x,1/2+y,z
1/2-x,1/2-y,z
1/2+x,1/2-y,-z
1/2-x,1/2+y,-z
1/2-x,1/2-y,-z
1/2+x,1/2+y,-z
1/2-x,1/2+y,z
1/2+x,1/2-y,z
loop_
_atom_site_type_symbol
_atom_site_label
_atom_site_fract_x
_atom_site_fract_y
_atom_site_fract_z
Si Si1 0.855559 0.133663 0.699647
Si Si2 0.923482 0.229704 0.142179
Si Si3 0.769374 0.571817 0.355494
Si Si4 0.108490 0.642440 0.258516
Si Si5 0.931737 0.316581 0.500000
Si Si6 0.681933 0.278459 0.500000
Si Si7 0.000000 0.432980 0.859935
Si Si8 0.573764 0.433864 0.500000
O O1 0.888569 0.165664 0.816243
O O2 0.798045 0.083634 0.717754
O O3 0.820437 0.185251 0.622970
O O4 0.911865 0.103406 0.620972
O O5 0.888460 0.287370 0.207660
O O6 0.000000 0.228526 0.174815
O O7 0.913250 0.235699 0.000000
O O8 0.763873 0.589215 0.500000
O O9 0.787819 0.500000 0.342732
O O10 0.821128 0.613641 0.283636
O O11 0.070742 0.639782 0.384447
O O12 0.066141 0.602420 0.168114
O O13 0.874325 0.269995 0.500000
O O14 0.000000 0.280023 0.500000
O O15 0.750000 0.250000 0.500000
O O16 0.000000 0.500000 0.795453
O O17 0.000000 0.442579 0.000000
O O18 0.611547 0.500000 0.500000
O O19 0.500000 0.448880 0.500000
#
# Coordination Sequence:
#
# PCOD8272369 Si02
#       8
#    16  16  16  16   8   8   8   8
#     4  11  22  36  61  90 127 159 205 250 311 379
#     4  11  24  42  64  90 126 168 211 263 322 380
#     4  11  23  40  62  91 129 171 207 254 322 391
#     4  12  22  39  61  91 124 164 213 257 317 384
#     4  12  21  33  55  91 128 158 190 256 325 378
#     4  11  21  33  53  86 122 158 189 235 307 382
#     4  11  24  43  63  83 117 170 225 272 308 353
#     4  10  20  36  62  96 127 160 203 256 314 377
#
# _framework density 19.276952000000001
#
# number of rings (size 3 to 8) (size 9 to 14) (size 15 to 20)
#    0.000    0.833    5.833    3.000    0.000    1.333 
#    0.000    2.917    0.000    4.000    0.000    5.833 
#    0.000    0.000    0.000    0.000    0.000    0.000 
#
# Total GULP energy -594787.353860 kJ/mol
# GULP energy per Si atom -12391.403205 kJ/mol
# Density = 1.923308 g / cm^3
# Si number density = 19.276952 Si / 1000 Ang^3
#
#
#
# Elastic Constant Matrix: (Units=GPa)
#
#
# Indices 1 2 3 4 5 6 
#
# 1 109.0788 40.8994 28.1803 0.0000 0.0000 0.0000
# 2 40.8994 98.3179 36.4654 0.0000 0.0000 0.0000
# 3 28.1803 36.4654 89.8045 0.0000 0.0000 0.0000
# 4 0.0000 0.0000 0.0000 -98.2636 0.0000 0.0000
# 5 0.0000 0.0000 0.0000 0.0000 16.0604 0.0000
# 6 0.0000 0.0000 0.0000 0.0000 0.0000 35.7885
#
#
#
# Elastic Compliance Matrix: (Units=1/GPa)
#
#
# Indices 1 2 3 4 5 6 
#
# 1 0.011130 -0.003926 -0.001898 0.000000 0.000000 0.000000
# 2 -0.003926 0.013359 -0.004193 0.000000 0.000000 0.000000
# 3 -0.001898 -0.004193 0.013433 0.000000 0.000000 0.000000
# 4 0.000000 0.000000 0.000000 -0.010177 0.000000 0.000000
# 5 0.000000 0.000000 0.000000 0.000000 0.062265 0.000000
# 6 0.000000 0.000000 0.000000 0.000000 0.000000 0.027942
#
#
# Mechanical properties :
#
#
# Convention : Reuss Voigt Hill
#
# Bulk Modulus (GPa) = 55.90076 56.47682 56.18879
# Shear Modulus (GPa) = 34.73424 3.49413 19.11419
#
# Velocity S-wave (km/s) = 4.24943 1.34779 3.15232
# Velocity P-wave (km/s) = 7.28962 5.63766 6.51620
#
# Compressibility (1/GPa) = 0.01788885
#
# Stress axis : x y z
#
# Youngs Moduli (GPa) = 89.84575 74.85443 74.44101
#
# Poissons Ratio (x) = 0.29387 0.14132
# Poissons Ratio (y) = 0.35273 0.31210
# Poissons Ratio (z) = 0.17057 0.31384
#
# Static dielectric constant tensor:
#      x y z
#    x 3.588390 0.000000 0.000000 
#    y 0.000000 3.750680 0.000000 
#    z 0.000000 0.000000 3.410010 
# 
# 
# High freq. dielectric constant tensor:
#      x y z
#    x 1.760630 0.000000 0.000000 
#    y 0.000000 1.758480 0.000000 
#    z 0.000000 0.000000 1.727150 
# 
# From -- ./inp_files/29125.got.cif
#   From: 2010.03.12/outbox.cif.g09.slc.cpg/sg65_15_cif.got.tgz:29125.got - 2010.04.10 20:52:16.
