data_PCOD8272715
_publ_section_title
;
Structure prediction by ZEFSAII (Michael W. Deem and Ramdas Pophale) SiO2 
 PCOD8272715
Probable space group: C M M M
;
_chemical_formula_sum "Si O2"
_cell_formula_units_Z 88
_cell_length_a 9.411732
_cell_length_b 28.076856
_cell_length_c 17.635020
_cell_angle_alpha 90.000000
_cell_angle_beta 90.000000
_cell_angle_gamma 90.000000
_cell_volume 4660.086555
_symmetry_space_group_name_H-M "C M M M"
_symmetry_group_IT_number 65
_symmetry_cell_setting 'orthorhombic'
loop_
_space_group_symop_operation_xyz
x,y,z
-x,-y,z
x,-y,-z
-x,y,-z
-x,-y,-z
x,y,-z
-x,y,z
x,-y,z
1/2+x,1/2+y,z
1/2-x,1/2-y,z
1/2+x,1/2-y,-z
1/2-x,1/2+y,-z
1/2-x,1/2-y,-z
1/2+x,1/2+y,-z
1/2-x,1/2+y,z
1/2+x,1/2-y,z
loop_
_atom_site_type_symbol
_atom_site_label
_atom_site_fract_x
_atom_site_fract_y
_atom_site_fract_z
Si Si1 0.660078 0.944094 0.139850
Si Si2 0.330808 0.056695 0.500000
Si Si3 0.161255 0.203219 0.500000
Si Si4 0.163273 0.877655 0.611617
Si Si5 0.657697 0.556615 0.000000
Si Si6 0.834739 0.201582 0.913756
Si Si7 0.662944 0.374325 0.785162
O O1 0.500000 0.926462 0.127007
O O2 0.756207 0.924957 0.071431
O O3 0.733448 0.920086 0.211449
O O4 0.665042 0.000000 0.150249
O O5 0.500000 0.066057 0.500000
O O6 0.262403 0.080441 0.423723
O O7 0.298880 0.000000 0.500000
O O8 0.250000 0.250000 0.500000
O O9 0.199680 0.171927 0.427433
O O10 0.000000 0.219739 0.500000
O O11 0.187335 0.861424 0.698094
O O12 0.000000 0.893632 0.597113
O O13 0.648354 0.500000 0.000000
O O14 0.500000 0.579462 0.000000
O O15 0.750000 0.250000 0.900279
O O16 0.787520 0.165282 0.846698
O O17 0.000000 0.213543 0.904406
O O18 0.804858 0.181716 0.000000
O O19 0.500000 0.388786 0.801500
#
# Coordination Sequence:
#
# PCOD8272715 Si02
#       7
#    16   8   8  16   8  16  16
#     4  10  21  35  50  74 109 144 180 227 279 325
#     4  10  21  37  59  85 112 144 182 226 278 333
#     4   9  18  34  56  80 107 138 172 216 273 330
#     4   9  20  38  56  80 114 147 184 227 268 325
#     4   9  17  31  51  71  94 131 180 227 267 315
#     4   9  19  36  56  79 108 143 186 235 282 330
#     4  10  21  36  56  81 110 147 190 232 274 325
#
# _framework density 18.883769000000001
#
# number of rings (size 3 to 8) (size 9 to 14) (size 15 to 20)
#    0.000    2.545    0.000    1.636    1.273    7.273 
#    0.000    3.636    0.000    0.000    0.000    0.000 
#    0.000    0.000    0.000    0.000    0.000    0.000 
#
# Total GULP energy -545205.320221 kJ/mol
# GULP energy per Si atom -12391.030005 kJ/mol
# Density = 1.884079 g / cm^3
# Si number density = 18.883769 Si / 1000 Ang^3
#
#
#
# Elastic Constant Matrix: (Units=GPa)
#
#
# Indices 1 2 3 4 5 6 
#
# 1 116.7401 67.3766 61.6841 0.0000 0.0000 0.0000
# 2 67.3766 88.4671 63.1436 0.0000 0.0000 0.0000
# 3 61.6841 63.1436 146.6628 0.0000 0.0000 0.0000
# 4 0.0000 0.0000 0.0000 18.3508 0.0000 0.0000
# 5 0.0000 0.0000 0.0000 0.0000 39.8587 0.0000
# 6 0.0000 0.0000 0.0000 0.0000 0.0000 36.1739
#
#
#
# Elastic Compliance Matrix: (Units=1/GPa)
#
#
# Indices 1 2 3 4 5 6 
#
# 1 0.015722 -0.010472 -0.002104 0.000000 0.000000 0.000000
# 2 -0.010472 0.023294 -0.005624 0.000000 0.000000 0.000000
# 3 -0.002104 -0.005624 0.010125 0.000000 0.000000 0.000000
# 4 0.000000 0.000000 0.000000 0.054493 0.000000 0.000000
# 5 0.000000 0.000000 0.000000 0.000000 0.025089 0.000000
# 6 0.000000 0.000000 0.000000 0.000000 0.000000 0.027644
#
#
# Mechanical properties :
#
#
# Convention : Reuss Voigt Hill
#
# Bulk Modulus (GPa) = 78.49517 81.80871 80.15194
# Shear Modulus (GPa) = 25.37909 29.52105 27.45007
#
# Velocity S-wave (km/s) = 3.66999 3.95815 3.81679
# Velocity P-wave (km/s) = 7.72115 8.01908 7.87152
#
# Compressibility (1/GPa) = 0.01273964
#
# Stress axis : x y z
#
# Youngs Moduli (GPa) = 63.60703 42.93036 98.76946
#
# Poissons Ratio (x) = 0.44957 0.20777
# Poissons Ratio (y) = 0.66610 0.55551
# Poissons Ratio (z) = 0.13381 0.24145
#
# Static dielectric constant tensor:
#      x y z
#    x 3.597180 0.000000 0.000000 
#    y 0.000000 3.259380 0.000000 
#    z 0.000000 0.000000 3.464530 
# 
# 
# High freq. dielectric constant tensor:
#      x y z
#    x 1.737660 0.000000 0.000000 
#    y 0.000000 1.723390 0.000000 
#    z 0.000000 0.000000 1.737620 
# 
# From -- ./inp_files/50483.got.cif
#   From: 2010.03.12/outbox.cif.g09.slc.cpg/sg65_26_cif.got.tgz:50483.got - 2010.04.10 20:52:16.
