data_PCOD8272158
_publ_section_title
;
Structure prediction by ZEFSAII (Michael W. Deem and Ramdas Pophale) SiO2 
 PCOD8272158
Probable space group: C M M M
;
_chemical_formula_sum "Si O2"
_cell_formula_units_Z 64
_cell_length_a 8.992917
_cell_length_b 14.998617
_cell_length_c 25.886561
_cell_angle_alpha 90.000000
_cell_angle_beta 90.000000
_cell_angle_gamma 90.000000
_cell_volume 3491.613461
_symmetry_space_group_name_H-M "C M M M"
_symmetry_group_IT_number 65
_symmetry_cell_setting 'orthorhombic'
loop_
_space_group_symop_operation_xyz
x,y,z
-x,-y,z
x,-y,-z
-x,y,-z
-x,-y,-z
x,y,-z
-x,y,z
x,-y,z
1/2+x,1/2+y,z
1/2-x,1/2-y,z
1/2+x,1/2-y,-z
1/2-x,1/2+y,-z
1/2-x,1/2-y,-z
1/2+x,1/2+y,-z
1/2-x,1/2+y,z
1/2+x,1/2-y,z
loop_
_atom_site_type_symbol
_atom_site_label
_atom_site_fract_x
_atom_site_fract_y
_atom_site_fract_z
Si Si1 0.822516 0.500000 0.193219
Si Si2 0.323560 0.000000 0.922661
Si Si3 0.176214 0.348123 0.000000
Si Si4 0.173599 0.341182 0.263001
Si Si5 0.825104 0.342984 0.619231
Si Si6 0.329990 0.500000 0.561118
O O1 0.757735 0.500000 0.135203
O O2 0.762102 0.585581 0.223864
O O3 0.000000 0.500000 0.193070
O O4 0.500000 0.000000 0.922507
O O5 0.272160 0.091723 0.950829
O O6 0.250000 0.250000 0.000000
O O7 0.000000 0.333000 0.000000
O O8 0.250000 0.250000 0.247490
O O9 0.209552 0.370264 0.321638
O O10 0.000000 0.327730 0.255502
O O11 0.750000 0.250000 0.605439
O O12 0.754092 0.413931 0.581477
O O13 0.000000 0.336612 0.608960
O O14 0.500000 0.500000 0.580592
O O15 0.321472 0.500000 0.500000
#
# Coordination Sequence:
#
# PCOD8272158 Si02
#       6
#     8   8   8  16  16   8
#     4   9  16  29  49  71  99 133 164 198 241 292
#     4   8  16  30  47  68  96 131 167 199 241 300
#     4   9  17  31  50  70  92 125 169 209 246 290
#     4   9  18  32  51  75 100 128 164 201 241 293
#     4  10  20  36  57  79 104 135 170 208 251 302
#     4  11  24  39  55  78 105 133 169 212 257 304
#
# _framework density 18.329636000000001
#
# number of rings (size 3 to 8) (size 9 to 14) (size 15 to 20)
#    0.000    2.625    0.000    2.625    0.000    5.500 
#    0.000    1.875    0.000    1.500    0.000    0.000 
#    0.000    0.000    0.000    0.000    0.000    0.000 
#
# Total GULP energy -396724.668367 kJ/mol
# GULP energy per Si atom -12397.645886 kJ/mol
# Density = 1.828792 g / cm^3
# Si number density = 18.329636 Si / 1000 Ang^3
#
#
#
# Elastic Constant Matrix: (Units=GPa)
#
#
# Indices 1 2 3 4 5 6 
#
# 1 61.1560 58.8763 44.4496 0.0000 0.0000 0.0000
# 2 58.8763 164.0822 86.7100 0.0000 0.0000 0.0000
# 3 44.4496 86.7100 116.3018 0.0000 0.0000 0.0000
# 4 0.0000 0.0000 0.0000 113.8754 0.0000 0.0000
# 5 0.0000 0.0000 0.0000 0.0000 16.4744 0.0000
# 6 0.0000 0.0000 0.0000 0.0000 0.0000 35.6293
#
#
#
# Elastic Compliance Matrix: (Units=1/GPa)
#
#
# Indices 1 2 3 4 5 6 
#
# 1 0.026662 -0.006901 -0.005045 0.000000 0.000000 0.000000
# 2 -0.006901 0.011843 -0.006192 0.000000 0.000000 0.000000
# 3 -0.005045 -0.006192 0.015143 0.000000 0.000000 0.000000
# 4 0.000000 0.000000 0.000000 0.008782 0.000000 0.000000
# 5 0.000000 0.000000 0.000000 0.000000 0.060700 0.000000
# 6 0.000000 0.000000 0.000000 0.000000 0.000000 0.028067
#
#
# Mechanical properties :
#
#
# Convention : Reuss Voigt Hill
#
# Bulk Modulus (GPa) = 57.56382 80.17911 68.87146
# Shear Modulus (GPa) = 25.87140 43.29610 34.58375
#
# Velocity S-wave (km/s) = 3.76101 4.86540 4.34841
# Velocity P-wave (km/s) = 7.09459 8.68335 7.92887
#
# Compressibility (1/GPa) = 0.01737202
#
# Stress axis : x y z
#
# Youngs Moduli (GPa) = 37.50642 84.43809 66.03652
#
# Poissons Ratio (x) = 0.58270 0.33316
# Poissons Ratio (y) = 0.25883 0.40891
# Poissons Ratio (z) = 0.18922 0.52286
#
# Static dielectric constant tensor:
#      x y z
#    x 3.187970 0.000000 0.000000 
#    y 0.000000 3.457390 0.000000 
#    z 0.000000 0.000000 3.607460 
# 
# 
# High freq. dielectric constant tensor:
#      x y z
#    x 1.688230 0.000000 0.000000 
#    y 0.000000 1.722260 0.000000 
#    z 0.000000 0.000000 1.711580 
# 
# From -- ./inp_files/66865.got.cif
#   From: 2010.03.12/outbox.cif.g09.slc.cpg/sg65_34_cif.got.tgz:66865.got - 2010.04.10 20:52:16.
