data_PCOD8272306
_publ_section_title
;
Structure prediction by ZEFSAII (Michael W. Deem and Ramdas Pophale) SiO2 
 PCOD8272306
Probable space group: C M M M
;
_chemical_formula_sum "Si O2"
_cell_formula_units_Z 80
_cell_length_a 24.617721
_cell_length_b 18.352314
_cell_length_c 8.662840
_cell_angle_alpha 90.000000
_cell_angle_beta 90.000000
_cell_angle_gamma 90.000000
_cell_volume 3913.803072
_symmetry_space_group_name_H-M "C M M M"
_symmetry_group_IT_number 65
_symmetry_cell_setting 'orthorhombic'
loop_
_space_group_symop_operation_xyz
x,y,z
-x,-y,z
x,-y,-z
-x,y,-z
-x,-y,-z
x,y,-z
-x,y,z
x,-y,z
1/2+x,1/2+y,z
1/2-x,1/2-y,z
1/2+x,1/2-y,-z
1/2-x,1/2+y,-z
1/2-x,1/2-y,-z
1/2+x,1/2+y,-z
1/2-x,1/2+y,z
1/2+x,1/2-y,z
loop_
_atom_site_type_symbol
_atom_site_label
_atom_site_fract_x
_atom_site_fract_y
_atom_site_fract_z
Si Si1 0.500000 0.915981 0.818044
Si Si2 0.715985 0.182848 0.677633
Si Si3 0.593639 0.332792 0.180217
Si Si4 0.311520 0.417473 0.678038
Si Si5 0.500000 0.584882 0.328858
Si Si6 0.405370 0.820055 0.317670
O O1 0.554727 0.879134 0.755337
O O2 0.500000 0.000000 0.765280
O O3 0.500000 0.908023 0.000000
O O4 0.706236 0.204241 0.500000
O O5 0.750000 0.250000 0.754335
O O6 0.749107 0.107677 0.695788
O O7 0.656143 0.170601 0.750283
O O8 0.653388 0.361068 0.222965
O O9 0.552665 0.395285 0.230764
O O10 0.575781 0.260630 0.271413
O O11 0.590011 0.316668 0.000000
O O12 0.330314 0.412954 0.500000
O O13 0.316675 0.500000 0.740230
O O14 0.500000 0.500000 0.350568
O O15 0.500000 0.621222 0.500000
O O16 0.408044 0.830453 0.500000
#
# Coordination Sequence:
#
# PCOD8272306 Si02
#       6
#     8  16  16  16   8  16
#     4  11  26  47  66  91 133 173 206 257 324 383
#     4   9  17  34  61  91 121 154 201 261 315 363
#     4  12  24  38  58  86 123 160 198 244 303 372
#     4  10  20  36  59  87 120 159 203 253 310 367
#     4  11  24  41  60  81 109 151 202 251 300 355
#     4  11  22  40  69  96 121 158 211 264 306 360
#
# _framework density 20.440477999999999
#
# number of rings (size 3 to 8) (size 9 to 14) (size 15 to 20)
#    0.000    1.400    2.000    4.200    0.000    5.200 
#    0.000    5.000    0.000    0.000    0.000    0.000 
#    0.000    0.000    0.000    0.000    0.000    0.000 
#
# Total GULP energy -496034.653218 kJ/mol
# GULP energy per Si atom -12400.866330 kJ/mol
# Density = 2.039395 g / cm^3
# Si number density = 20.440478 Si / 1000 Ang^3
#
#
#
# Elastic Constant Matrix: (Units=GPa)
#
#
# Indices 1 2 3 4 5 6 
#
# 1 148.3134 57.6945 38.8110 0.0000 0.0000 0.0000
# 2 57.6945 136.5623 37.0015 0.0000 0.0000 0.0000
# 3 38.8110 37.0015 64.9958 0.0000 0.0000 0.0000
# 4 0.0000 0.0000 0.0000 24.2696 0.0000 0.0000
# 5 0.0000 0.0000 0.0000 0.0000 2.9080 0.0000
# 6 0.0000 0.0000 0.0000 0.0000 0.0000 30.0606
#
#
#
# Elastic Compliance Matrix: (Units=1/GPa)
#
#
# Indices 1 2 3 4 5 6 
#
# 1 0.008759 -0.002700 -0.003693 0.000000 0.000000 0.000000
# 2 -0.002700 0.009490 -0.003791 0.000000 0.000000 0.000000
# 3 -0.003693 -0.003791 0.019749 0.000000 0.000000 0.000000
# 4 0.000000 0.000000 0.000000 0.041204 0.000000 0.000000
# 5 0.000000 0.000000 0.000000 0.000000 0.343881 0.000000
# 6 0.000000 0.000000 0.000000 0.000000 0.000000 0.033266
#
#
# Mechanical properties :
#
#
# Convention : Reuss Voigt Hill
#
# Bulk Modulus (GPa) = 56.71870 68.54285 62.63078
# Shear Modulus (GPa) = 10.36066 25.87192 18.11629
#
# Velocity S-wave (km/s) = 2.25382 3.56156 2.98030
# Velocity P-wave (km/s) = 5.88060 7.10764 6.52304
#
# Compressibility (1/GPa) = 0.01763087
#
# Stress axis : x y z
#
# Youngs Moduli (GPa) = 114.16530 105.37006 50.63540
#
# Poissons Ratio (x) = 0.28448 0.18702
# Poissons Ratio (y) = 0.30823 0.19194
# Poissons Ratio (z) = 0.42166 0.39942
#
# Static dielectric constant tensor:
#      x y z
#    x 3.898240 0.000000 0.000000 
#    y 0.000000 3.656420 0.000000 
#    z 0.000000 0.000000 3.479900 
# 
# 
# High freq. dielectric constant tensor:
#      x y z
#    x 1.812550 0.000000 0.000000 
#    y 0.000000 1.799050 0.000000 
#    z 0.000000 0.000000 1.774410 
# 
# From -- ./inp_files/16088.got.cif
#   From: 2010.03.12/outbox.cif.g09.slc.cpg/sg65_9_cif.got.tgz:16088.got - 2010.04.10 20:52:16.
