data_PCOD8272458
_publ_section_title
;
Structure prediction by ZEFSAII (Michael W. Deem and Ramdas Pophale) SiO2 
 PCOD8272458
Probable space group: C M M M
;
_chemical_formula_sum "Si O2"
_cell_formula_units_Z 80
_cell_length_a 7.695938
_cell_length_b 19.221815
_cell_length_c 28.971227
_cell_angle_alpha 90.000000
_cell_angle_beta 90.000000
_cell_angle_gamma 90.000000
_cell_volume 4285.710611
_symmetry_space_group_name_H-M "C M M M"
_symmetry_group_IT_number 65
_symmetry_cell_setting 'orthorhombic'
loop_
_space_group_symop_operation_xyz
x,y,z
-x,-y,z
x,-y,-z
-x,y,-z
-x,-y,-z
x,y,-z
-x,y,z
x,-y,z
1/2+x,1/2+y,z
1/2-x,1/2-y,z
1/2+x,1/2-y,-z
1/2-x,1/2+y,-z
1/2-x,1/2-y,-z
1/2+x,1/2+y,-z
1/2-x,1/2+y,z
1/2+x,1/2-y,z
loop_
_atom_site_type_symbol
_atom_site_label
_atom_site_fract_x
_atom_site_fract_y
_atom_site_fract_z
Si Si1 0.199773 0.074943 0.132696
Si Si2 0.000000 0.417578 0.704518
Si Si3 0.199694 0.827348 0.554469
Si Si4 0.194339 0.916899 0.767751
Si Si5 0.297235 0.827030 0.051215
Si Si6 0.000000 0.416660 0.598421
O O1 0.267748 0.106882 0.181410
O O2 0.217501 0.122731 0.088558
O O3 0.000000 0.061841 0.142484
O O4 0.289454 0.000000 0.122183
O O5 0.173093 0.387442 0.729327
O O6 0.000000 0.500000 0.708907
O O7 0.000000 0.394438 0.651735
O O8 0.226198 0.831837 0.500000
O O9 0.250000 0.750000 0.571799
O O10 0.325308 0.884956 0.576549
O O11 0.000000 0.843550 0.568334
O O12 0.000000 0.887582 0.757316
O O13 0.190311 0.000000 0.767096
O O14 0.500000 0.838359 0.050178
O O15 0.250000 0.750000 0.067042
O O16 0.219108 0.842048 0.000000
O O17 0.000000 0.500000 0.591225
#
# Coordination Sequence:
#
# PCOD8272458 Si02
#       6
#    16   8  16  16  16   8
#     4   9  18  32  52  78 102 128 166 214 263 306
#     4   9  18  31  50  77 111 151 181 216 283 337
#     4  10  20  37  62  87 114 159 208 241 286 354
#     4   8  15  29  49  74 103 136 178 221 263 324
#     4  10  21  35  50  70  97 132 169 204 253 320
#     4  11  23  36  55  92 129 153 194 253 300 341
#
# _framework density 18.666682999999999
#
# number of rings (size 3 to 8) (size 9 to 14) (size 15 to 20)
#    0.000    2.600    1.000    2.100    1.400    4.000 
#    0.000    5.000    0.000    1.200    0.000    0.000 
#    0.000    0.000    0.000    0.000    0.000    0.000 
#
# Total GULP energy -495669.294442 kJ/mol
# GULP energy per Si atom -12391.732361 kJ/mol
# Density = 1.862420 g / cm^3
# Si number density = 18.666683 Si / 1000 Ang^3
#
#
#
# Elastic Constant Matrix: (Units=GPa)
#
#
# Indices 1 2 3 4 5 6 
#
# 1 109.8195 36.3443 57.3981 0.0000 0.0000 0.0000
# 2 36.3443 74.3685 51.8948 0.0000 0.0000 0.0000
# 3 57.3981 51.8948 113.3174 0.0000 0.0000 0.0000
# 4 0.0000 0.0000 0.0000 -13.1855 0.0000 0.0000
# 5 0.0000 0.0000 0.0000 0.0000 25.4662 0.0000
# 6 0.0000 0.0000 0.0000 0.0000 0.0000 23.6020
#
#
#
# Elastic Compliance Matrix: (Units=1/GPa)
#
#
# Indices 1 2 3 4 5 6 
#
# 1 0.012699 -0.002524 -0.005276 0.000000 0.000000 0.000000
# 2 -0.002524 0.020263 -0.008001 0.000000 0.000000 0.000000
# 3 -0.005276 -0.008001 0.015162 0.000000 0.000000 0.000000
# 4 0.000000 0.000000 0.000000 -0.075841 0.000000 0.000000
# 5 0.000000 0.000000 0.000000 0.000000 0.039268 0.000000
# 6 0.000000 0.000000 0.000000 0.000000 0.000000 0.042369
#
#
# Mechanical properties :
#
#
# Convention : Reuss Voigt Hill
#
# Bulk Modulus (GPa) = 60.53115 65.41997 62.97556
# Shear Modulus (GPa) = 54.92649 17.30108 36.11378
#
# Velocity S-wave (km/s) = 5.43036 3.04771 4.40325
# Velocity P-wave (km/s) = 8.47444 6.89255 7.72410
#
# Compressibility (1/GPa) = 0.01652042
#
# Stress axis : x y z
#
# Youngs Moduli (GPa) = 78.74662 49.34985 65.95584
#
# Poissons Ratio (x) = 0.12457 0.34801
# Poissons Ratio (y) = 0.19877 0.52773
# Poissons Ratio (z) = 0.41550 0.39486
#
# Static dielectric constant tensor:
#      x y z
#    x 3.615590 0.000000 0.000000 
#    y 0.000000 3.084450 0.000000 
#    z 0.000000 0.000000 3.729460 
# 
# 
# High freq. dielectric constant tensor:
#      x y z
#    x 1.734910 0.000000 0.000000 
#    y 0.000000 1.683840 0.000000 
#    z 0.000000 0.000000 1.727750 
# 
# From -- ./inp_files/72972.got.cif
#   From: 2010.03.12/outbox.cif.g09.slc.cpg/sg65_37_cif.got.tgz:72972.got - 2010.04.10 20:52:16.
