data_PCOD8272554
_publ_section_title
;
Structure prediction by ZEFSAII (Michael W. Deem and Ramdas Pophale) SiO2 
 PCOD8272554
Probable space group: C M M M
;
_chemical_formula_sum "Si O2"
_cell_formula_units_Z 68
_cell_length_a 25.972933
_cell_length_b 11.145025
_cell_length_c 12.280265
_cell_angle_alpha 90.000000
_cell_angle_beta 90.000000
_cell_angle_gamma 90.000000
_cell_volume 3554.755877
_symmetry_space_group_name_H-M "C M M M"
_symmetry_group_IT_number 65
_symmetry_cell_setting 'orthorhombic'
loop_
_space_group_symop_operation_xyz
x,y,z
-x,-y,z
x,-y,-z
-x,y,-z
-x,-y,-z
x,y,-z
-x,y,z
x,-y,z
1/2+x,1/2+y,z
1/2-x,1/2-y,z
1/2+x,1/2-y,-z
1/2-x,1/2+y,-z
1/2-x,1/2-y,-z
1/2+x,1/2+y,-z
1/2-x,1/2+y,z
1/2+x,1/2-y,z
loop_
_atom_site_type_symbol
_atom_site_label
_atom_site_fract_x
_atom_site_fract_y
_atom_site_fract_z
Si Si1 0.595056 0.142136 0.225839
Si Si2 0.325606 0.500000 0.880442
Si Si3 0.713600 0.633079 0.500000
Si Si4 0.923040 0.000000 0.000000
Si Si5 0.691588 0.291276 0.720880
Si Si6 0.555899 0.764674 0.000000
Si Si7 0.000000 0.642352 0.624672
O O1 0.651191 0.183079 0.266498
O O2 0.550718 0.187015 0.309695
O O3 0.594845 0.000000 0.217462
O O4 0.586928 0.196580 0.106369
O O5 0.309375 0.620012 0.821426
O O6 0.299004 0.500000 0.000000
O O7 0.387472 0.500000 0.891609
O O8 0.741259 0.500000 0.500000
O O9 0.750000 0.750000 0.500000
O O10 0.678095 0.640868 0.392240
O O11 0.955494 0.878210 0.000000
O O12 0.750000 0.250000 0.713664
O O13 0.500000 0.828492 0.000000
O O14 0.000000 0.500000 0.619999
O O15 0.000000 0.693097 0.500000
#
# Coordination Sequence:
#
# PCOD8272554 Si02
#       7
#    16   8   8   4  16   8   8
#     4  11  23  39  62  94 126 162 206 261 320 383
#     4  10  20  40  61  80 122 162 205 250 305 370
#     4  10  22  40  66  91 122 171 219 266 318 368
#     4  10  21  40  58  92 114 164 214 247 314 372
#     4  11  24  40  62  90 125 166 211 259 312 379
#     4  12  22  40  63  91 123 163 209 261 317 381
#     4   9  20  39  61  85 120 161 202 256 319 373
#
# _framework density 19.129301000000002
#
# number of rings (size 3 to 8) (size 9 to 14) (size 15 to 20)
#    0.353    1.059    4.706    0.529    3.294    1.882 
#    0.000    0.000    0.000    0.000    0.000    2.471 
#    0.000    0.000    0.000    0.000    0.000    0.000 
#
# Total GULP energy -421296.753937 kJ/mol
# GULP energy per Si atom -12391.080998 kJ/mol
# Density = 1.908576 g / cm^3
# Si number density = 19.129301 Si / 1000 Ang^3
#
#
#
# Elastic Constant Matrix: (Units=GPa)
#
#
# Indices 1 2 3 4 5 6 
#
# 1 124.9587 30.2505 47.5459 0.0000 0.0000 0.0000
# 2 30.2505 110.2306 44.9009 0.0000 0.0000 0.0000
# 3 47.5459 44.9009 169.5819 0.0000 0.0000 0.0000
# 4 0.0000 0.0000 0.0000 19.5813 0.0000 0.0000
# 5 0.0000 0.0000 0.0000 0.0000 186.3395 0.0000
# 6 0.0000 0.0000 0.0000 0.0000 0.0000 21.1253
#
#
#
# Elastic Compliance Matrix: (Units=1/GPa)
#
#
# Indices 1 2 3 4 5 6 
#
# 1 0.009220 -0.001656 -0.002147 0.000000 0.000000 0.000000
# 2 -0.001656 0.010466 -0.002307 0.000000 0.000000 0.000000
# 3 -0.002147 -0.002307 0.007110 0.000000 0.000000 0.000000
# 4 0.000000 0.000000 0.000000 0.051069 0.000000 0.000000
# 5 0.000000 0.000000 0.000000 0.000000 0.005367 0.000000
# 6 0.000000 0.000000 0.000000 0.000000 0.000000 0.047337
#
#
# Mechanical properties :
#
#
# Convention : Reuss Voigt Hill
#
# Bulk Modulus (GPa) = 68.60146 72.24064 70.42105
# Shear Modulus (GPa) = 33.86479 64.21415 49.03947
#
# Velocity S-wave (km/s) = 4.21207 5.80012 5.06867
# Velocity P-wave (km/s) = 7.71979 9.09404 8.43495
#
# Compressibility (1/GPa) = 0.01457695
#
# Stress axis : x y z
#
# Youngs Moduli (GPa) = 108.45629 95.54764 140.65657
#
# Poissons Ratio (x) = 0.15822 0.30194
# Poissons Ratio (y) = 0.17959 0.32447
# Poissons Ratio (z) = 0.23282 0.22041
#
# Static dielectric constant tensor:
#      x y z
#    x 3.396780 0.000000 0.000000 
#    y 0.000000 3.380810 0.000000 
#    z 0.000000 0.000000 4.157790 
# 
# 
# High freq. dielectric constant tensor:
#      x y z
#    x 1.728450 0.000000 0.000000 
#    y 0.000000 1.738100 0.000000 
#    z 0.000000 0.000000 1.764830 
# 
# From -- ./inp_files/32047.got.cif
#   From: 2010.03.12/outbox.cif.g09.slc.cpg/sg65_17_cif.got.tgz:32047.got - 2010.04.10 20:52:16.
