data_PCOD8272280
_publ_section_title
;
Structure prediction by ZEFSAII (Michael W. Deem and Ramdas Pophale) SiO2 
 PCOD8272280
Probable space group: C M M M
;
_chemical_formula_sum "Si O2"
_cell_formula_units_Z 72
_cell_length_a 15.627678
_cell_length_b 9.189933
_cell_length_c 25.881523
_cell_angle_alpha 90.000000
_cell_angle_beta 90.000000
_cell_angle_gamma 90.000000
_cell_volume 3717.034809
_symmetry_space_group_name_H-M "C M M M"
_symmetry_group_IT_number 65
_symmetry_cell_setting 'orthorhombic'
loop_
_space_group_symop_operation_xyz
x,y,z
-x,-y,z
x,-y,-z
-x,y,-z
-x,-y,-z
x,y,-z
-x,y,z
x,-y,z
1/2+x,1/2+y,z
1/2-x,1/2-y,z
1/2+x,1/2-y,-z
1/2-x,1/2+y,-z
1/2-x,1/2-y,-z
1/2+x,1/2+y,-z
1/2-x,1/2+y,z
1/2+x,1/2-y,z
loop_
_atom_site_type_symbol
_atom_site_label
_atom_site_fract_x
_atom_site_fract_y
_atom_site_fract_z
Si Si1 0.500000 0.172649 0.377734
Si Si2 0.402182 0.833161 0.110332
Si Si3 0.165070 0.670379 0.440459
Si Si4 0.166625 0.828652 0.795789
Si Si5 0.000000 0.830094 0.730364
Si Si6 0.838288 0.669227 0.000000
O O1 0.583972 0.226967 0.408149
O O2 0.500000 0.239613 0.321540
O O3 0.500000 0.000000 0.373468
O O4 0.500000 0.811223 0.126183
O O5 0.345078 0.729139 0.145912
O O6 0.391659 0.786556 0.050711
O O7 0.373319 0.000000 0.119049
O O8 0.147626 0.710166 0.500000
O O9 0.179386 0.500000 0.432918
O O10 0.250000 0.750000 0.419744
O O11 0.250000 0.750000 0.771384
O O12 0.084218 0.785987 0.762167
O O13 0.181941 0.000000 0.797197
O O14 0.000000 0.000000 0.717168
O O15 0.750000 0.750000 0.000000
O O16 0.818323 0.500000 0.000000
#
# Coordination Sequence:
#
# PCOD8272280 Si02
#       6
#     8  16  16  16   8   8
#     4  10  21  36  58  84 113 151 194 235 281 337
#     4  10  20  36  59  84 112 147 186 230 281 339
#     4   9  18  34  56  84 118 154 191 232 278 331
#     4  11  23  41  62  85 112 147 190 238 290 344
#     4  10  24  43  59  80 115 150 187 241 292 337
#     4  10  21  35  51  79 115 148 183 225 275 337
#
# _framework density 19.370277999999999
#
# number of rings (size 3 to 8) (size 9 to 14) (size 15 to 20)
#    0.000    2.000    1.111    2.000    0.000    8.889 
#    0.000    4.444    0.000    5.333    0.000    0.000 
#    0.000    0.000    0.000    0.000    0.000    0.000 
#
# Total GULP energy -446508.146374 kJ/mol
# GULP energy per Si atom -12403.004066 kJ/mol
# Density = 1.932619 g / cm^3
# Si number density = 19.370278 Si / 1000 Ang^3
#
#
#
# Elastic Constant Matrix: (Units=GPa)
#
#
# Indices 1 2 3 4 5 6 
#
# 1 163.6378 60.9222 69.7420 0.0000 0.0000 0.0000
# 2 60.9222 59.9497 47.0480 0.0000 0.0000 0.0000
# 3 69.7420 47.0480 110.5112 0.0000 0.0000 0.0000
# 4 0.0000 0.0000 0.0000 33.3423 0.0000 0.0000
# 5 0.0000 0.0000 0.0000 0.0000 18.2402 0.0000
# 6 0.0000 0.0000 0.0000 0.0000 0.0000 36.5779
#
#
#
# Elastic Compliance Matrix: (Units=1/GPa)
#
#
# Indices 1 2 3 4 5 6 
#
# 1 0.010505 -0.008219 -0.003131 0.000000 0.000000 0.000000
# 2 -0.008219 0.031480 -0.008215 0.000000 0.000000 0.000000
# 3 -0.003131 -0.008215 0.014522 0.000000 0.000000 0.000000
# 4 0.000000 0.000000 0.000000 0.029992 0.000000 0.000000
# 5 0.000000 0.000000 0.000000 0.000000 0.054824 0.000000
# 6 0.000000 0.000000 0.000000 0.000000 0.000000 0.027339
#
#
# Mechanical properties :
#
#
# Convention : Reuss Voigt Hill
#
# Bulk Modulus (GPa) = 57.54443 76.61366 67.07905
# Shear Modulus (GPa) = 23.41002 28.05786 25.73394
#
# Velocity S-wave (km/s) = 3.48020 3.81005 3.64885
# Velocity P-wave (km/s) = 6.77651 7.68071 7.24273
#
# Compressibility (1/GPa) = 0.01737788
#
# Stress axis : x y z
#
# Youngs Moduli (GPa) = 95.19149 31.76632 68.86046
#
# Poissons Ratio (x) = 0.26107 0.21558
# Poissons Ratio (y) = 0.78234 0.56571
# Poissons Ratio (z) = 0.29802 0.26097
#
# Static dielectric constant tensor:
#      x y z
#    x 3.635720 0.000000 0.000000 
#    y 0.000000 3.439670 0.000000 
#    z 0.000000 0.000000 3.547370 
# 
# 
# High freq. dielectric constant tensor:
#      x y z
#    x 1.770070 0.000000 0.000000 
#    y 0.000000 1.745150 0.000000 
#    z 0.000000 0.000000 1.749190 
# 
# From -- ./inp_files/72573.got.cif
#   From: 2010.03.12/outbox.cif.g09.slc.cpg/sg65_37_cif.got.tgz:72573.got - 2010.04.10 20:52:16.
