data_PCOD8272001
_publ_section_title
;
Structure prediction by ZEFSAII (Michael W. Deem and Ramdas Pophale) SiO2 
 PCOD8272001
Probable space group: C M M M
;
_chemical_formula_sum "Si O2"
_cell_formula_units_Z 64
_cell_length_a 29.668225
_cell_length_b 9.816284
_cell_length_c 11.211805
_cell_angle_alpha 90.000000
_cell_angle_beta 90.000000
_cell_angle_gamma 90.000000
_cell_volume 3265.233281
_symmetry_space_group_name_H-M "C M M M"
_symmetry_group_IT_number 65
_symmetry_cell_setting 'orthorhombic'
loop_
_space_group_symop_operation_xyz
x,y,z
-x,-y,z
x,-y,-z
-x,y,-z
-x,-y,-z
x,y,-z
-x,y,z
x,-y,z
1/2+x,1/2+y,z
1/2-x,1/2-y,z
1/2+x,1/2-y,-z
1/2-x,1/2+y,-z
1/2-x,1/2-y,-z
1/2+x,1/2+y,-z
1/2-x,1/2+y,z
1/2+x,1/2-y,z
loop_
_atom_site_type_symbol
_atom_site_label
_atom_site_fract_x
_atom_site_fract_y
_atom_site_fract_z
Si Si1 0.390760 0.654423 0.000000
Si Si2 0.920736 0.159913 0.742771
Si Si3 0.250000 0.750000 0.202432
Si Si4 0.672112 0.343308 0.369196
Si Si5 0.000000 0.342028 0.358750
Si Si6 0.308479 0.854640 0.000000
O O1 0.421466 0.683187 0.114945
O O2 0.373190 0.500000 0.000000
O O3 0.344633 0.736556 0.000000
O O4 0.872625 0.213664 0.694639
O O5 0.956861 0.260277 0.686728
O O6 0.930507 0.000000 0.712243
O O7 0.284381 0.671652 0.287379
O O8 0.277287 0.852329 0.117615
O O9 0.678697 0.273059 0.500000
O O10 0.663300 0.500000 0.390048
O O11 0.000000 0.500000 0.313591
O O12 0.000000 0.339426 0.500000
O O13 0.333675 0.000000 0.000000
#
# Coordination Sequence:
#
# PCOD8272001 Si02
#       6
#     8  16   8  16   8   8
#     4  10  21  40  65  90 121 155 196 253 303 350
#     4  10  21  40  66  92 118 156 203 249 297 354
#     4  11  21  36  54  82 125 163 204 250 302 351
#     4  10  20  35  57  85 117 157 207 255 296 347
#     4  11  25  44  65  92 126 159 192 241 302 359
#     4  11  23  35  57  86 118 164 209 249 302 360
#
# _framework density 19.600438
#
# number of rings (size 3 to 8) (size 9 to 14) (size 15 to 20)
#    0.000    1.625    2.500    2.250    0.000    5.500 
#    0.000    2.500    0.000    4.500    0.000    0.000 
#    0.000    0.000    0.000    0.000    0.000    0.000 
#
# Total GULP energy -396654.792048 kJ/mol
# GULP energy per Si atom -12395.462252 kJ/mol
# Density = 1.955583 g / cm^3
# Si number density = 19.600438 Si / 1000 Ang^3
#
#
#
# Elastic Constant Matrix: (Units=GPa)
#
#
# Indices 1 2 3 4 5 6 
#
# 1 121.0794 52.0389 45.6812 0.0000 0.0000 0.0000
# 2 52.0389 95.5686 39.6670 0.0000 0.0000 0.0000
# 3 45.6812 39.6670 140.5007 0.0000 0.0000 0.0000
# 4 0.0000 0.0000 0.0000 12.7973 0.0000 0.0000
# 5 0.0000 0.0000 0.0000 0.0000 29.0616 0.0000
# 6 0.0000 0.0000 0.0000 0.0000 0.0000 14.7064
#
#
#
# Elastic Compliance Matrix: (Units=1/GPa)
#
#
# Indices 1 2 3 4 5 6 
#
# 1 0.011355 -0.005268 -0.002205 0.000000 0.000000 0.000000
# 2 -0.005268 0.014297 -0.002324 0.000000 0.000000 0.000000
# 3 -0.002205 -0.002324 0.008490 0.000000 0.000000 0.000000
# 4 0.000000 0.000000 0.000000 0.078141 0.000000 0.000000
# 5 0.000000 0.000000 0.000000 0.000000 0.034410 0.000000
# 6 0.000000 0.000000 0.000000 0.000000 0.000000 0.067998
#
#
# Mechanical properties :
#
#
# Convention : Reuss Voigt Hill
#
# Bulk Modulus (GPa) = 68.73034 70.21367 69.47201
# Shear Modulus (GPa) = 20.90893 25.96384 23.43638
#
# Velocity S-wave (km/s) = 3.26967 3.64353 3.46165
# Velocity P-wave (km/s) = 7.02824 7.32125 7.17624
#
# Compressibility (1/GPa) = 0.01454961
#
# Stress axis : x y z
#
# Youngs Moduli (GPa) = 88.06773 69.94673 117.78330
#
# Poissons Ratio (x) = 0.36847 0.25966
# Poissons Ratio (y) = 0.46393 0.27367
# Poissons Ratio (z) = 0.19415 0.16252
#
# Static dielectric constant tensor:
#      x y z
#    x 3.547900 0.000000 0.000000 
#    y 0.000000 3.396650 0.000000 
#    z 0.000000 0.000000 4.100330 
# 
# 
# High freq. dielectric constant tensor:
#      x y z
#    x 1.761450 0.000000 0.000000 
#    y 0.000000 1.740190 0.000000 
#    z 0.000000 0.000000 1.787080 
# 
# From -- ./inp_files/21067.got.cif
#   From: 2010.03.12/outbox.cif.g09.slc.cpg/sg65_11_cif.got.tgz:21067.got - 2010.04.10 20:52:16.
