data_PCOD8272589
_publ_section_title
;
Structure prediction by ZEFSAII (Michael W. Deem and Ramdas Pophale) SiO2 
 PCOD8272589
Probable space group: C M M M
;
_chemical_formula_sum "Si O2"
_cell_formula_units_Z 68
_cell_length_a 22.092992
_cell_length_b 16.840766
_cell_length_c 9.252577
_cell_angle_alpha 90.000000
_cell_angle_beta 90.000000
_cell_angle_gamma 90.000000
_cell_volume 3442.540710
_symmetry_space_group_name_H-M "C M M M"
_symmetry_group_IT_number 65
_symmetry_cell_setting 'orthorhombic'
loop_
_space_group_symop_operation_xyz
x,y,z
-x,-y,z
x,-y,-z
-x,y,-z
-x,-y,-z
x,y,-z
-x,y,z
x,-y,z
1/2+x,1/2+y,z
1/2-x,1/2-y,z
1/2+x,1/2-y,-z
1/2-x,1/2+y,-z
1/2-x,1/2-y,-z
1/2+x,1/2+y,-z
1/2-x,1/2+y,z
1/2+x,1/2-y,z
loop_
_atom_site_type_symbol
_atom_site_label
_atom_site_fract_x
_atom_site_fract_y
_atom_site_fract_z
Si Si1 0.377960 0.247737 0.166510
Si Si2 0.000000 0.000000 0.248865
Si Si3 0.294426 0.356168 0.672031
Si Si4 0.500000 0.677454 0.837728
Si Si5 0.678067 0.089460 0.835790
Si Si6 0.369121 0.500000 0.339967
O O1 0.318031 0.275550 0.253987
O O2 0.439497 0.285363 0.235958
O O3 0.377908 0.151478 0.180289
O O4 0.371414 0.274878 0.000000
O O5 0.000000 0.081282 0.156945
O O6 0.941255 0.000000 0.348306
O O7 0.293434 0.343703 0.500000
O O8 0.229502 0.384674 0.724444
O O9 0.343042 0.420796 0.732410
O O10 0.500000 0.709818 0.000000
O O11 0.655627 0.000000 0.799413
O O12 0.703395 0.093446 0.000000
O O13 0.341811 0.500000 0.500000
#
# Coordination Sequence:
#
# PCOD8272589 Si02
#       6
#    16   4  16   8  16   8
#     4  10  21  38  56  79 111 143 181 226 272 321
#     4  12  18  36  56  76 108 150 178 218 258 326
#     4  11  21  36  56  83 114 144 180 222 269 321
#     4  10  21  35  54  80 108 140 179 224 268 320
#     4  10  21  37  57  80 107 144 183 224 274 326
#     4  10  21  33  51  80 113 146 177 216 264 316
#
# _framework density 19.752853000000002
#
# number of rings (size 3 to 8) (size 9 to 14) (size 15 to 20)
#    0.000    1.647    3.529    1.765    0.000    3.765 
#    0.000    1.176    0.000    3.529    0.000    0.000 
#    0.000    3.765    0.000    0.000    0.000    0.000 
#
# Total GULP energy -421344.777457 kJ/mol
# GULP energy per Si atom -12392.493455 kJ/mol
# Density = 1.970789 g / cm^3
# Si number density = 19.752853 Si / 1000 Ang^3
#
#
#
# Elastic Constant Matrix: (Units=GPa)
#
#
# Indices 1 2 3 4 5 6 
#
# 1 81.6753 53.3608 19.5775 0.0000 0.0000 0.0000
# 2 53.3608 156.1738 29.9173 0.0000 0.0000 0.0000
# 3 19.5775 29.9173 67.3533 0.0000 0.0000 0.0000
# 4 0.0000 0.0000 0.0000 14.5197 0.0000 0.0000
# 5 0.0000 0.0000 0.0000 0.0000 18.0352 0.0000
# 6 0.0000 0.0000 0.0000 0.0000 0.0000 29.9706
#
#
#
# Elastic Compliance Matrix: (Units=1/GPa)
#
#
# Indices 1 2 3 4 5 6 
#
# 1 0.016123 -0.005040 -0.002448 0.000000 0.000000 0.000000
# 2 -0.005040 0.008574 -0.002344 0.000000 0.000000 0.000000
# 3 -0.002448 -0.002344 0.016600 0.000000 0.000000 0.000000
# 4 0.000000 0.000000 0.000000 0.068872 0.000000 0.000000
# 5 0.000000 0.000000 0.000000 0.000000 0.055447 0.000000
# 6 0.000000 0.000000 0.000000 0.000000 0.000000 0.033366
#
#
# Mechanical properties :
#
#
# Convention : Reuss Voigt Hill
#
# Bulk Modulus (GPa) = 46.22323 56.76818 51.49571
# Shear Modulus (GPa) = 22.13800 25.99487 24.06644
#
# Velocity S-wave (km/s) = 3.35139 3.63162 3.49431
# Velocity P-wave (km/s) = 6.19898 6.81076 6.51206
#
# Compressibility (1/GPa) = 0.02163414
#
# Stress axis : x y z
#
# Youngs Moduli (GPa) = 62.02286 116.63051 60.24262
#
# Poissons Ratio (x) = 0.58781 0.14746
# Poissons Ratio (y) = 0.31259 0.14118
# Poissons Ratio (z) = 0.15182 0.27333
#
# Static dielectric constant tensor:
#      x y z
#    x 3.485740 0.000000 0.000000 
#    y 0.000000 3.990580 0.000000 
#    z 0.000000 0.000000 3.294570 
# 
# 
# High freq. dielectric constant tensor:
#      x y z
#    x 1.751110 0.000000 0.000000 
#    y 0.000000 1.787600 0.000000 
#    z 0.000000 0.000000 1.746290 
# 
# From -- ./inp_files/8987.got.cif
#   From: 2010.03.12/outbox.cif.g09.slc.cpg/sg65_5_cif.got.tgz:8987.got - 2010.04.10 20:52:16.
