data_PCOD8272547
_publ_section_title
;
Structure prediction by ZEFSAII (Michael W. Deem and Ramdas Pophale) SiO2 
 PCOD8272547
Probable space group: C M M M
;
_chemical_formula_sum "Si O2"
_cell_formula_units_Z 48
_cell_length_a 37.587197
_cell_length_b 7.463161
_cell_length_c 8.881280
_cell_angle_alpha 90.000000
_cell_angle_beta 90.000000
_cell_angle_gamma 90.000000
_cell_volume 2491.370473
_symmetry_space_group_name_H-M "C M M M"
_symmetry_group_IT_number 65
_symmetry_cell_setting 'orthorhombic'
loop_
_space_group_symop_operation_xyz
x,y,z
-x,-y,z
x,-y,-z
-x,y,-z
-x,-y,-z
x,y,-z
-x,y,z
x,-y,z
1/2+x,1/2+y,z
1/2-x,1/2-y,z
1/2+x,1/2-y,-z
1/2-x,1/2+y,-z
1/2-x,1/2-y,-z
1/2+x,1/2+y,-z
1/2-x,1/2+y,z
1/2+x,1/2-y,z
loop_
_atom_site_type_symbol
_atom_site_label
_atom_site_fract_x
_atom_site_fract_y
_atom_site_fract_z
Si Si1 0.789598 0.292884 0.325836
Si Si2 0.163098 0.000000 0.822564
Si Si3 0.458891 0.793671 0.172579
Si Si4 0.913185 0.000000 0.675710
O O1 0.792664 0.237247 0.500000
O O2 0.798732 0.500000 0.300234
O O3 0.750000 0.250000 0.267150
O O4 0.817539 0.178927 0.232418
O O5 0.123251 0.000000 0.764940
O O6 0.162762 0.000000 0.000000
O O7 0.500000 0.758717 0.210972
O O8 0.435202 0.676842 0.283417
O O9 0.448975 0.000000 0.199623
O O10 0.451232 0.739256 0.000000
O O11 0.904832 0.000000 0.500000
#
# Coordination Sequence:
#
# PCOD8272547 Si02
#       4
#    16   8  16   8
#     4  10  20  39  66  90 116 151 191 237 293 356
#     4  12  26  41  59  86 122 159 200 248 297 353
#     4   9  19  38  64  91 120 157 199 243 295 354
#     4  12  25  39  58  85 122 162 202 246 298 353
#
# _framework density 19.266504000000001
#
# number of rings (size 3 to 8) (size 9 to 14) (size 15 to 20)
#    0.000    1.667    1.667    4.500    0.000    6.000 
#    0.000    1.667    0.000    0.000    0.000    0.000 
#    0.000    0.000    0.000    0.000    0.000    0.000 
#
# Total GULP energy -297719.727444 kJ/mol
# GULP energy per Si atom -12404.988644 kJ/mol
# Density = 1.922265 g / cm^3
# Si number density = 19.266504 Si / 1000 Ang^3
#
#
#
# Elastic Constant Matrix: (Units=GPa)
#
#
# Indices 1 2 3 4 5 6 
#
# 1 106.1551 60.8093 41.9219 0.0000 0.0000 0.0000
# 2 60.8093 119.5361 51.7447 0.0000 0.0000 0.0000
# 3 41.9219 51.7447 91.1949 0.0000 0.0000 0.0000
# 4 0.0000 0.0000 0.0000 36.5378 0.0000 0.0000
# 5 0.0000 0.0000 0.0000 0.0000 36.1587 0.0000
# 6 0.0000 0.0000 0.0000 0.0000 0.0000 52.8440
#
#
#
# Elastic Compliance Matrix: (Units=1/GPa)
#
#
# Indices 1 2 3 4 5 6 
#
# 1 0.013950 -0.005727 -0.003163 0.000000 0.000000 0.000000
# 2 -0.005727 0.013441 -0.004994 0.000000 0.000000 0.000000
# 3 -0.003163 -0.004994 0.015253 0.000000 0.000000 0.000000
# 4 0.000000 0.000000 0.000000 0.027369 0.000000 0.000000
# 5 0.000000 0.000000 0.000000 0.000000 0.027656 0.000000
# 6 0.000000 0.000000 0.000000 0.000000 0.000000 0.018924
#
#
# Mechanical properties :
#
#
# Convention : Reuss Voigt Hill
#
# Bulk Modulus (GPa) = 67.22276 69.53756 68.38016
# Shear Modulus (GPa) = 33.48532 35.93543 34.71037
#
# Velocity S-wave (km/s) = 4.17346 4.32345 4.24912
# Velocity P-wave (km/s) = 7.62827 7.81625 7.72283
#
# Compressibility (1/GPa) = 0.01487591
#
# Stress axis : x y z
#
# Youngs Moduli (GPa) = 71.68387 74.39998 65.56089
#
# Poissons Ratio (x) = 0.42612 0.20737
# Poissons Ratio (y) = 0.41056 0.32739
# Poissons Ratio (z) = 0.22674 0.37152
#
# Static dielectric constant tensor:
#      x y z
#    x 3.540160 0.000000 0.000000 
#    y 0.000000 3.327060 0.000000 
#    z 0.000000 0.000000 3.401280 
# 
# 
# High freq. dielectric constant tensor:
#      x y z
#    x 1.751320 0.000000 0.000000 
#    y 0.000000 1.766790 0.000000 
#    z 0.000000 0.000000 1.740460 
# 
# From -- ./inp_files/17551.got.cif
#   From: 2010.03.12/outbox.cif.g09.slc.cpg/sg65_9_cif.got.tgz:17551.got - 2010.04.10 20:52:16.
