data_PCOD8272510
_publ_section_title
;
Structure prediction by ZEFSAII (Michael W. Deem and Ramdas Pophale) SiO2 
 PCOD8272510
Probable space group: C M M M
;
_chemical_formula_sum "Si O2"
_cell_formula_units_Z 88
_cell_length_a 17.309013
_cell_length_b 10.510044
_cell_length_c 23.985899
_cell_angle_alpha 90.000000
_cell_angle_beta 90.000000
_cell_angle_gamma 90.000000
_cell_volume 4363.478485
_symmetry_space_group_name_H-M "C M M M"
_symmetry_group_IT_number 65
_symmetry_cell_setting 'orthorhombic'
loop_
_space_group_symop_operation_xyz
x,y,z
-x,-y,z
x,-y,-z
-x,y,-z
-x,-y,-z
x,y,-z
-x,y,z
x,-y,z
1/2+x,1/2+y,z
1/2-x,1/2-y,z
1/2+x,1/2-y,-z
1/2-x,1/2+y,-z
1/2-x,1/2-y,-z
1/2+x,1/2+y,-z
1/2-x,1/2+y,z
1/2+x,1/2-y,z
loop_
_atom_site_type_symbol
_atom_site_label
_atom_site_fract_x
_atom_site_fract_y
_atom_site_fract_z
Si Si1 0.408920 0.732382 0.112720
Si Si2 0.348961 0.000000 0.890109
Si Si3 0.907992 0.500000 0.766130
Si Si4 0.319200 0.500000 0.064035
Si Si5 0.916463 0.855856 0.662988
Si Si6 0.817078 0.852857 0.438114
Si Si7 0.840859 0.245788 0.765036
O O1 0.500000 0.714075 0.109725
O O2 0.386286 0.869790 0.085930
O O3 0.369148 0.624908 0.075829
O O4 0.382458 0.716518 0.176622
O O5 0.364922 0.000000 0.825087
O O6 0.257281 0.000000 0.898527
O O7 0.875761 0.374292 0.736467
O O8 0.000000 0.500000 0.773278
O O9 0.293499 0.500000 0.000000
O O10 0.876167 0.798802 0.608115
O O11 0.862421 0.855906 0.718148
O O12 0.000000 0.788099 0.673400
O O13 0.932426 0.000000 0.648282
O O14 0.854694 0.849390 0.500000
O O15 0.750000 0.750000 0.435478
O O16 0.790050 0.000000 0.425172
O O17 0.750000 0.250000 0.775761
#
# Coordination Sequence:
#
# PCOD8272510 Si02
#       7
#    16   8   8   8  16  16  16
#     4  11  23  41  66  91 121 158 197 246 302 358
#     4  10  20  41  66  89 115 153 202 241 286 351
#     4  10  20  38  61  86 119 154 192 240 296 358
#     4  12  27  44  62  91 126 157 195 245 299 355
#     4  10  21  35  53  82 120 153 192 242 290 351
#     4   9  18  35  58  82 111 151 199 248 299 348
#     4  11  22  36  60  87 119 152 195 240 292 354
#
# _framework density 20.167396
#
# number of rings (size 3 to 8) (size 9 to 14) (size 15 to 20)
#    0.000    1.636    0.000    7.091    2.545    2.545 
#    1.636    1.818    0.000    3.000    0.000    2.545 
#    0.000    0.000    0.000    0.000    0.000    0.000 
#
# Total GULP energy -545275.992183 kJ/mol
# GULP energy per Si atom -12392.636186 kJ/mol
# Density = 2.012149 g / cm^3
# Si number density = 20.167396 Si / 1000 Ang^3
#
#
#
# Elastic Constant Matrix: (Units=GPa)
#
#
# Indices 1 2 3 4 5 6 
#
# 1 155.8728 31.1452 37.5284 0.0000 0.0000 0.0000
# 2 31.1452 84.4112 31.1942 0.0000 0.0000 0.0000
# 3 37.5284 31.1942 62.2125 0.0000 0.0000 0.0000
# 4 0.0000 0.0000 0.0000 19.0233 0.0000 0.0000
# 5 0.0000 0.0000 0.0000 0.0000 31.2105 0.0000
# 6 0.0000 0.0000 0.0000 0.0000 0.0000 32.2406
#
#
#
# Elastic Compliance Matrix: (Units=1/GPa)
#
#
# Indices 1 2 3 4 5 6 
#
# 1 0.007632 -0.001368 -0.003918 0.000000 0.000000 0.000000
# 2 -0.001368 0.014786 -0.006589 0.000000 0.000000 0.000000
# 3 -0.003918 -0.006589 0.021741 0.000000 0.000000 0.000000
# 4 0.000000 0.000000 0.000000 0.052567 0.000000 0.000000
# 5 0.000000 0.000000 0.000000 0.000000 0.032041 0.000000
# 6 0.000000 0.000000 0.000000 0.000000 0.000000 0.031017
#
#
# Mechanical properties :
#
#
# Convention : Reuss Voigt Hill
#
# Bulk Modulus (GPa) = 48.99587 55.80356 52.39971
# Shear Modulus (GPa) = 26.26917 30.00347 28.13632
#
# Velocity S-wave (km/s) = 3.61301 3.86128 3.73921
# Velocity P-wave (km/s) = 6.46161 6.89997 6.68439
#
# Compressibility (1/GPa) = 0.02040988
#
# Stress axis : x y z
#
# Youngs Moduli (GPa) = 131.02471 67.62940 45.99594
#
# Poissons Ratio (x) = 0.09253 0.18021
# Poissons Ratio (y) = 0.17926 0.30306
# Poissons Ratio (z) = 0.51334 0.44560
#
# Static dielectric constant tensor:
#      x y z
#    x 3.877100 0.000000 0.000000 
#    y 0.000000 4.504570 0.000000 
#    z 0.000000 0.000000 3.558910 
# 
# 
# High freq. dielectric constant tensor:
#      x y z
#    x 1.792590 0.000000 0.000000 
#    y 0.000000 1.793650 0.000000 
#    z 0.000000 0.000000 1.775550 
# 
# From -- ./inp_files/69845.got.cif
#   From: 2010.03.12/outbox.cif.g09.slc.cpg/sg65_35_cif.got.tgz:69845.got - 2010.04.10 20:52:16.
