data_PCOD8272735
_publ_section_title
;
Structure prediction by ZEFSAII (Michael W. Deem and Ramdas Pophale) SiO2 
 PCOD8272735
Probable space group: C M M M
;
_chemical_formula_sum "Si O2"
_cell_formula_units_Z 88
_cell_length_a 18.723180
_cell_length_b 9.448773
_cell_length_c 28.135846
_cell_angle_alpha 90.000000
_cell_angle_beta 90.000000
_cell_angle_gamma 90.000000
_cell_volume 4977.542837
_symmetry_space_group_name_H-M "C M M M"
_symmetry_group_IT_number 65
_symmetry_cell_setting 'orthorhombic'
loop_
_space_group_symop_operation_xyz
x,y,z
-x,-y,z
x,-y,-z
-x,y,-z
-x,-y,-z
x,y,-z
-x,y,z
x,-y,z
1/2+x,1/2+y,z
1/2-x,1/2-y,z
1/2+x,1/2-y,-z
1/2-x,1/2+y,-z
1/2-x,1/2-y,-z
1/2+x,1/2+y,-z
1/2-x,1/2+y,z
1/2+x,1/2-y,z
loop_
_atom_site_type_symbol
_atom_site_label
_atom_site_fract_x
_atom_site_fract_y
_atom_site_fract_z
Si Si1 0.679959 0.664289 0.053359
Si Si2 0.415194 0.340124 0.500000
Si Si3 0.176646 0.334263 0.319121
Si Si4 0.417277 0.836182 0.590077
Si Si5 0.917686 0.836633 0.139139
Si Si6 0.917854 0.665422 0.770317
O O1 0.698715 0.500000 0.058223
O O2 0.750000 0.750000 0.066464
O O3 0.619827 0.711090 0.090527
O O4 0.652951 0.699826 0.000000
O O5 0.384666 0.500000 0.500000
O O6 0.500000 0.340368 0.500000
O O7 0.388031 0.258237 0.453341
O O8 0.194093 0.500000 0.317711
O O9 0.250000 0.250000 0.320403
O O10 0.129618 0.294481 0.364719
O O11 0.130821 0.287133 0.273600
O O12 0.500000 0.803427 0.601865
O O13 0.407915 0.000000 0.576067
O O14 0.888467 0.746750 0.183468
O O15 0.000000 0.803630 0.130724
O O16 0.903228 0.000000 0.150892
O O17 0.910961 0.500000 0.780415
O O18 0.000000 0.706910 0.759134
#
# Coordination Sequence:
#
# PCOD8272735 Si02
#       6
#    16   8  16  16  16  16
#     4   9  18  32  49  69  95 128 163 198 237 283
#     4   9  17  29  48  77 106 127 155 199 246 287
#     4  10  21  35  51  73 100 129 162 200 241 286
#     4   9  17  32  54  75  96 127 166 202 236 280
#     4   9  18  32  50  73  98 123 156 199 244 288
#     4   9  18  34  54  73  95 126 163 200 239 285
#
# _framework density 17.679406
#
# number of rings (size 3 to 8) (size 9 to 14) (size 15 to 20)
#    0.000    2.818    0.000    0.818    0.000    6.545 
#    0.000    5.909    0.000    5.455    0.000    5.091 
#    0.000    0.000    0.000    0.000    0.000    0.000 
#
# Total GULP energy -545623.876504 kJ/mol
# GULP energy per Si atom -12400.542648 kJ/mol
# Density = 1.763917 g / cm^3
# Si number density = 17.679406 Si / 1000 Ang^3
#
#
#
# Elastic Constant Matrix: (Units=GPa)
#
#
# Indices 1 2 3 4 5 6 
#
# 1 88.4285 48.5781 83.2630 0.0000 0.0000 0.0000
# 2 48.5781 64.5835 74.2510 0.0000 0.0000 0.0000
# 3 83.2630 74.2510 176.2990 0.0000 0.0000 0.0000
# 4 0.0000 0.0000 0.0000 31.7545 0.0000 0.0000
# 5 0.0000 0.0000 0.0000 0.0000 9.4465 0.0000
# 6 0.0000 0.0000 0.0000 0.0000 0.0000 28.9096
#
#
#
# Elastic Compliance Matrix: (Units=1/GPa)
#
#
# Indices 1 2 3 4 5 6 
#
# 1 0.022923 -0.009297 -0.006910 0.000000 0.000000 0.000000
# 2 -0.009297 0.033790 -0.009841 0.000000 0.000000 0.000000
# 3 -0.006910 -0.009841 0.013080 0.000000 0.000000 0.000000
# 4 0.000000 0.000000 0.000000 0.031492 0.000000 0.000000
# 5 0.000000 0.000000 0.000000 0.000000 0.105859 0.000000
# 6 0.000000 0.000000 0.000000 0.000000 0.000000 0.034591
#
#
# Mechanical properties :
#
#
# Convention : Reuss Voigt Hill
#
# Bulk Modulus (GPa) = 56.50524 82.38837 69.44680
# Shear Modulus (GPa) = 16.68170 22.23670 19.45920
#
# Velocity S-wave (km/s) = 3.07509 3.55036 3.32123
# Velocity P-wave (km/s) = 6.68122 7.96927 7.35350
#
# Compressibility (1/GPa) = 0.01769747
#
# Stress axis : x y z
#
# Youngs Moduli (GPa) = 43.62512 29.59421 76.45082
#
# Poissons Ratio (x) = 0.27514 0.52830
# Poissons Ratio (y) = 0.40558 0.75232
# Poissons Ratio (z) = 0.30146 0.29122
#
# Static dielectric constant tensor:
#      x y z
#    x 3.143680 0.000000 0.000000 
#    y 0.000000 3.282850 0.000000 
#    z 0.000000 0.000000 3.492990 
# 
# 
# High freq. dielectric constant tensor:
#      x y z
#    x 1.666610 0.000000 0.000000 
#    y 0.000000 1.679270 0.000000 
#    z 0.000000 0.000000 1.696510 
# 
# From -- ./inp_files/77835.got.cif
#   From: 2010.03.12/outbox.cif.g09.slc.cpg/sg65_39_cif.got.tgz:77835.got - 2010.04.10 20:52:16.
