data_PCOD8272630
_publ_section_title
;
Structure prediction by ZEFSAII (Michael W. Deem and Ramdas Pophale) SiO2 
 PCOD8272630
Probable space group: C M M M
;
_chemical_formula_sum "Si O2"
_cell_formula_units_Z 64
_cell_length_a 24.681681
_cell_length_b 15.022208
_cell_length_c 8.860609
_cell_angle_alpha 90.000000
_cell_angle_beta 90.000000
_cell_angle_gamma 90.000000
_cell_volume 3285.277645
_symmetry_space_group_name_H-M "C M M M"
_symmetry_group_IT_number 65
_symmetry_cell_setting 'orthorhombic'
loop_
_space_group_symop_operation_xyz
x,y,z
-x,-y,z
x,-y,-z
-x,y,-z
-x,-y,-z
x,y,-z
-x,y,z
x,-y,z
1/2+x,1/2+y,z
1/2-x,1/2-y,z
1/2+x,1/2-y,-z
1/2-x,1/2+y,-z
1/2-x,1/2-y,-z
1/2+x,1/2+y,-z
1/2-x,1/2+y,z
1/2+x,1/2-y,z
loop_
_atom_site_type_symbol
_atom_site_label
_atom_site_fract_x
_atom_site_fract_y
_atom_site_fract_z
Si Si1 0.500000 0.395153 0.836373
Si Si2 0.390023 0.896661 0.677251
Si Si3 0.000000 0.605460 0.828813
Si Si4 0.311775 0.240448 0.821371
Si Si5 0.115666 0.098973 0.819533
O O1 0.500000 0.500000 0.861591
O O2 0.443482 0.370728 0.752180
O O3 0.500000 0.347174 0.000000
O O4 0.393380 0.882218 0.500000
O O5 0.445787 0.858239 0.748279
O O6 0.338604 0.844813 0.743501
O O7 0.382041 0.000000 0.719661
O O8 0.000000 0.500000 0.817771
O O9 0.000000 0.639734 0.000000
O O10 0.250000 0.250000 0.769307
O O11 0.340322 0.330658 0.763283
O O12 0.316835 0.228013 0.000000
O O13 0.131809 0.000000 0.761367
O O14 0.111628 0.097638 0.000000
#
# Coordination Sequence:
#
# PCOD8272630 Si02
#       5
#     8  16   8  16  16
#     4   7  10  19  38  63  89 117 150 189 239 302
#     4  10  21  37  56  78 108 146 183 221 270 328
#     4   9  17  32  57  86 111 135 170 220 275 329
#     4  10  21  34  50  76 106 138 181 227 266 310
#     4   8  14  26  44  67  96 127 160 206 264 317
#
# _framework density 19.480848999999999
#
# number of rings (size 3 to 8) (size 9 to 14) (size 15 to 20)
#    0.000    3.000    0.000    2.625    0.000    5.500 
#    0.000    5.000    0.000    0.750    0.000    0.000 
#    0.000    5.000    0.000    0.000    0.000    0.000 
#
# Total GULP energy -396555.727459 kJ/mol
# GULP energy per Si atom -12392.366483 kJ/mol
# Density = 1.943651 g / cm^3
# Si number density = 19.480849 Si / 1000 Ang^3
#
#
#
# Elastic Constant Matrix: (Units=GPa)
#
#
# Indices 1 2 3 4 5 6 
#
# 1 200.0952 81.7421 47.6641 0.0000 0.0000 0.0000
# 2 81.7421 99.4660 30.9747 0.0000 0.0000 0.0000
# 3 47.6641 30.9747 55.9779 0.0000 0.0000 0.0000
# 4 0.0000 0.0000 0.0000 17.6257 0.0000 0.0000
# 5 0.0000 0.0000 0.0000 0.0000 20.0089 0.0000
# 6 0.0000 0.0000 0.0000 0.0000 0.0000 36.8750
#
#
#
# Elastic Compliance Matrix: (Units=1/GPa)
#
#
# Indices 1 2 3 4 5 6 
#
# 1 0.008178 -0.005500 -0.003920 0.000000 0.000000 0.000000
# 2 -0.005500 0.015846 -0.004085 0.000000 0.000000 0.000000
# 3 -0.003920 -0.004085 0.023462 0.000000 0.000000 0.000000
# 4 0.000000 0.000000 0.000000 0.056735 0.000000 0.000000
# 5 0.000000 0.000000 0.000000 0.000000 0.049978 0.000000
# 6 0.000000 0.000000 0.000000 0.000000 0.000000 0.027119
#
#
# Mechanical properties :
#
#
# Convention : Reuss Voigt Hill
#
# Bulk Modulus (GPa) = 48.83715 75.14454 61.99084
# Shear Modulus (GPa) = 23.23912 27.91246 25.57579
#
# Velocity S-wave (km/s) = 3.45762 3.78936 3.62728
# Velocity P-wave (km/s) = 6.40811 7.60283 7.03089
#
# Compressibility (1/GPa) = 0.02047622
#
# Stress axis : x y z
#
# Youngs Moduli (GPa) = 122.27312 63.10772 42.62129
#
# Poissons Ratio (x) = 0.34711 0.16709
# Poissons Ratio (y) = 0.67254 0.17410
# Poissons Ratio (z) = 0.47934 0.25778
#
# Static dielectric constant tensor:
#      x y z
#    x 3.909560 0.000000 0.000000 
#    y 0.000000 3.513310 0.000000 
#    z 0.000000 0.000000 3.070150 
# 
# 
# High freq. dielectric constant tensor:
#      x y z
#    x 1.768220 0.000000 0.000000 
#    y 0.000000 1.754960 0.000000 
#    z 0.000000 0.000000 1.708370 
# 
# From -- ./inp_files/13357.got.cif
#   From: 2010.03.12/outbox.cif.g09.slc.cpg/sg65_7_cif.got.tgz:13357.got - 2010.04.10 20:52:16.
