data_PCOD8272675
_publ_section_title
;
Structure prediction by ZEFSAII (Michael W. Deem and Ramdas Pophale) SiO2 
 PCOD8272675
Probable space group: C M M M
;
_chemical_formula_sum "Si O2"
_cell_formula_units_Z 88
_cell_length_a 18.492890
_cell_length_b 9.071885
_cell_length_c 28.176605
_cell_angle_alpha 90.000000
_cell_angle_beta 90.000000
_cell_angle_gamma 90.000000
_cell_volume 4727.058603
_symmetry_space_group_name_H-M "C M M M"
_symmetry_group_IT_number 65
_symmetry_cell_setting 'orthorhombic'
loop_
_space_group_symop_operation_xyz
x,y,z
-x,-y,z
x,-y,-z
-x,y,-z
-x,-y,-z
x,y,-z
-x,y,z
x,-y,z
1/2+x,1/2+y,z
1/2-x,1/2-y,z
1/2+x,1/2-y,-z
1/2-x,1/2+y,-z
1/2-x,1/2-y,-z
1/2+x,1/2+y,-z
1/2-x,1/2+y,z
1/2+x,1/2-y,z
loop_
_atom_site_type_symbol
_atom_site_label
_atom_site_fract_x
_atom_site_fract_y
_atom_site_fract_z
Si Si1 0.327120 0.325536 0.367280
Si Si2 0.584563 0.828139 0.286570
Si Si3 0.918100 0.173774 0.089648
Si Si4 0.173048 0.824784 0.000000
Si Si5 0.916498 0.668728 0.554933
Si Si6 0.585913 0.163220 0.181164
O O1 0.317678 0.500000 0.366674
O O2 0.250000 0.250000 0.365389
O O3 0.372667 0.275635 0.321996
O O4 0.367366 0.278863 0.415312
O O5 0.500000 0.796510 0.293305
O O6 0.611039 0.784359 0.233406
O O7 0.601026 0.000000 0.296608
O O8 0.884834 0.232149 0.139274
O O9 0.000000 0.231690 0.082094
O O10 0.917166 0.000000 0.091917
O O11 0.870110 0.231403 0.046155
O O12 0.250000 0.750000 0.000000
O O13 0.181508 0.000000 0.000000
O O14 0.898275 0.694209 0.500000
O O15 0.899816 0.500000 0.569479
O O16 0.000000 0.704611 0.565347
O O17 0.500000 0.161470 0.181519
O O18 0.616056 0.000000 0.170949
#
# Coordination Sequence:
#
# PCOD8272675 Si02
#       6
#    16  16  16   8  16  16
#     4  12  25  38  54  78 110 146 183 223 265 311
#     4   9  18  35  58  81 108 141 174 213 263 316
#     4   9  17  31  52  75  99 129 167 211 254 298
#     4  10  21  35  49  69  99 134 170 206 252 306
#     4   9  19  38  63  87 111 141 176 215 263 318
#     4   8  15  29  51  79 106 131 163 206 256 307
#
# _framework density 18.616226999999999
#
# number of rings (size 3 to 8) (size 9 to 14) (size 15 to 20)
#    0.000    2.545    0.000    4.091    0.000    6.182 
#    0.000    3.636    0.000    4.909    0.000    0.000 
#    0.000    0.000    0.000    0.000    0.000    0.000 
#
# Total GULP energy -545525.147193 kJ/mol
# GULP energy per Si atom -12398.298800 kJ/mol
# Density = 1.857386 g / cm^3
# Si number density = 18.616227 Si / 1000 Ang^3
#
#
#
# Elastic Constant Matrix: (Units=GPa)
#
#
# Indices 1 2 3 4 5 6 
#
# 1 83.8986 52.7908 61.5209 0.0000 0.0000 0.0000
# 2 52.7908 89.6549 62.0379 0.0000 0.0000 0.0000
# 3 61.5209 62.0379 145.0616 0.0000 0.0000 0.0000
# 4 0.0000 0.0000 0.0000 37.8958 0.0000 0.0000
# 5 0.0000 0.0000 0.0000 0.0000 -1.1274 0.0000
# 6 0.0000 0.0000 0.0000 0.0000 0.0000 31.0468
#
#
#
# Elastic Compliance Matrix: (Units=1/GPa)
#
#
# Indices 1 2 3 4 5 6 
#
# 1 0.021414 -0.008983 -0.005240 0.000000 0.000000 0.000000
# 2 -0.008983 0.019610 -0.004577 0.000000 0.000000 0.000000
# 3 -0.005240 -0.004577 0.011073 0.000000 0.000000 0.000000
# 4 0.000000 0.000000 0.000000 0.026388 0.000000 0.000000
# 5 0.000000 0.000000 0.000000 0.000000 -0.886988 0.000000
# 6 0.000000 0.000000 0.000000 0.000000 0.000000 0.032209
#
#
# Mechanical properties :
#
#
# Convention : Reuss Voigt Hill
#
# Bulk Modulus (GPa) = 68.97683 74.59046 71.78365
# Shear Modulus (GPa) = -6.81328 23.04740 8.11706
#
# Velocity S-wave (km/s) = -1.91515 3.52238 2.09038
# Velocity P-wave (km/s) = 5.67821 7.52976 6.66856
#
# Compressibility (1/GPa) = 0.01449762
#
# Stress axis : x y z
#
# Youngs Moduli (GPa) = 46.69889 50.99331 90.30766
#
# Poissons Ratio (x) = 0.45808 0.47320
# Poissons Ratio (y) = 0.41950 0.41333
# Poissons Ratio (z) = 0.24470 0.23339
#
# Static dielectric constant tensor:
#      x y z
#    x 3.254710 0.000000 0.000000 
#    y 0.000000 3.357100 0.000000 
#    z 0.000000 0.000000 3.742930 
# 
# 
# High freq. dielectric constant tensor:
#      x y z
#    x 1.698750 0.000000 0.000000 
#    y 0.000000 1.711240 0.000000 
#    z 0.000000 0.000000 1.742440 
# 
# From -- ./inp_files/77841.got.cif
#   From: 2010.03.12/outbox.cif.g09.slc.cpg/sg65_39_cif.got.tgz:77841.got - 2010.04.10 20:52:16.
