data_PCOD8272271
_publ_section_title
;
Structure prediction by ZEFSAII (Michael W. Deem and Ramdas Pophale) SiO2 
 PCOD8272271
Probable space group: C M M M
;
_chemical_formula_sum "Si O2"
_cell_formula_units_Z 64
_cell_length_a 15.166776
_cell_length_b 8.894034
_cell_length_c 24.177307
_cell_angle_alpha 90.000000
_cell_angle_beta 90.000000
_cell_angle_gamma 90.000000
_cell_volume 3261.369333
_symmetry_space_group_name_H-M "C M M M"
_symmetry_group_IT_number 65
_symmetry_cell_setting 'orthorhombic'
loop_
_space_group_symop_operation_xyz
x,y,z
-x,-y,z
x,-y,-z
-x,y,-z
-x,-y,-z
x,y,-z
-x,y,z
x,-y,z
1/2+x,1/2+y,z
1/2-x,1/2-y,z
1/2+x,1/2-y,-z
1/2-x,1/2+y,-z
1/2-x,1/2-y,-z
1/2+x,1/2+y,-z
1/2-x,1/2+y,z
1/2+x,1/2-y,z
loop_
_atom_site_type_symbol
_atom_site_label
_atom_site_fract_x
_atom_site_fract_y
_atom_site_fract_z
Si Si1 0.846424 0.678273 0.178508
Si Si2 0.500000 0.672101 0.756077
Si Si3 0.500000 0.671850 0.374668
Si Si4 0.842239 0.675577 0.436480
Si Si5 0.156318 0.324728 0.058298
O O1 0.839234 0.500000 0.187648
O O2 0.750000 0.750000 0.186239
O O3 0.912135 0.746631 0.223005
O O4 0.887923 0.718368 0.117180
O O5 0.500000 0.500000 0.776193
O O6 0.500000 0.684254 0.690705
O O7 0.500000 0.500000 0.394854
O O8 0.585778 0.753392 0.397142
O O9 0.868120 0.707431 0.500000
O O10 0.835443 0.500000 0.424338
O O11 0.750000 0.750000 0.421124
O O12 0.173503 0.500000 0.059271
O O13 0.250000 0.250000 0.056287
O O14 0.104924 0.282137 0.000000
#
# Coordination Sequence:
#
# PCOD8272271 Si02
#       5
#    16   8   8  16  16
#     4  10  20  36  59  83 109 145 185 229 284 339
#     4  11  25  42  57  78 110 149 196 241 278 325
#     4  11  24  40  59  83 113 152 194 237 282 325
#     4  10  21  38  62  92 123 153 185 224 273 329
#     4   8  14  26  47  76 106 135 171 217 272 335
#
# _framework density 19.623660000000001
#
# number of rings (size 3 to 8) (size 9 to 14) (size 15 to 20)
#    0.000    2.250    0.000    2.625    0.000    7.000 
#    0.000    0.625    0.000    3.750    0.000    0.000 
#    0.000    0.000    0.000    0.000    0.000    0.000 
#
# Total GULP energy -396457.273744 kJ/mol
# GULP energy per Si atom -12389.289804 kJ/mol
# Density = 1.957900 g / cm^3
# Si number density = 19.623660 Si / 1000 Ang^3
#
#
#
# Elastic Constant Matrix: (Units=GPa)
#
#
# Indices 1 2 3 4 5 6 
#
# 1 109.5932 62.6471 58.4006 0.0000 0.0000 0.0000
# 2 62.6471 108.5044 58.1432 0.0000 0.0000 0.0000
# 3 58.4006 58.1432 95.9314 0.0000 0.0000 0.0000
# 4 0.0000 0.0000 0.0000 27.9750 0.0000 0.0000
# 5 0.0000 0.0000 0.0000 0.0000 98.6393 0.0000
# 6 0.0000 0.0000 0.0000 0.0000 0.0000 29.9834
#
#
#
# Elastic Compliance Matrix: (Units=1/GPa)
#
#
# Indices 1 2 3 4 5 6 
#
# 1 0.015648 -0.005821 -0.005999 0.000000 0.000000 0.000000
# 2 -0.005821 0.015814 -0.006041 0.000000 0.000000 0.000000
# 3 -0.005999 -0.006041 0.017738 0.000000 0.000000 0.000000
# 4 0.000000 0.000000 0.000000 0.035746 0.000000 0.000000
# 5 0.000000 0.000000 0.000000 0.000000 0.010138 0.000000
# 6 0.000000 0.000000 0.000000 0.000000 0.000000 0.033352
#
#
# Mechanical properties :
#
#
# Convention : Reuss Voigt Hill
#
# Bulk Modulus (GPa) = 74.18920 74.71231 74.45076
# Shear Modulus (GPa) = 29.64716 40.30875 34.97795
#
# Velocity S-wave (km/s) = 3.89110 4.53712 4.22647
# Velocity P-wave (km/s) = 7.62074 8.09954 7.86378
#
# Compressibility (1/GPa) = 0.01347905
#
# Stress axis : x y z
#
# Youngs Moduli (GPa) = 63.90426 63.23445 56.37745
#
# Poissons Ratio (x) = 0.36806 0.33819
# Poissons Ratio (y) = 0.37196 0.34060
# Poissons Ratio (z) = 0.38334 0.38203
#
# Static dielectric constant tensor:
#      x y z
#    x 3.314080 0.000000 0.000000 
#    y 0.000000 3.390790 0.000000 
#    z 0.000000 0.000000 4.039480 
# 
# 
# High freq. dielectric constant tensor:
#      x y z
#    x 1.746500 0.000000 0.000000 
#    y 0.000000 1.776960 0.000000 
#    z 0.000000 0.000000 1.780030 
# 
# From -- ./inp_files/66774.got.cif
#   From: 2010.03.12/outbox.cif.g09.slc.cpg/sg65_34_cif.got.tgz:66774.got - 2010.04.10 20:52:16.
