data_PCOD8272055
_publ_section_title
;
Structure prediction by ZEFSAII (Michael W. Deem and Ramdas Pophale) SiO2 
 PCOD8272055
Probable space group: C M M M
;
_chemical_formula_sum "Si O2"
_cell_formula_units_Z 64
_cell_length_a 18.138499
_cell_length_b 7.844844
_cell_length_c 22.293853
_cell_angle_alpha 90.000000
_cell_angle_beta 90.000000
_cell_angle_gamma 90.000000
_cell_volume 3172.274720
_symmetry_space_group_name_H-M "C M M M"
_symmetry_group_IT_number 65
_symmetry_cell_setting 'orthorhombic'
loop_
_space_group_symop_operation_xyz
x,y,z
-x,-y,z
x,-y,-z
-x,y,-z
-x,-y,-z
x,y,-z
-x,y,z
x,-y,z
1/2+x,1/2+y,z
1/2-x,1/2-y,z
1/2+x,1/2-y,-z
1/2-x,1/2+y,-z
1/2-x,1/2-y,-z
1/2+x,1/2+y,-z
1/2-x,1/2+y,z
1/2+x,1/2-y,z
loop_
_atom_site_type_symbol
_atom_site_label
_atom_site_fract_x
_atom_site_fract_y
_atom_site_fract_z
Si Si1 0.418487 0.301634 0.881927
Si Si2 0.085039 0.691728 0.648974
Si Si3 0.587419 0.500000 0.433173
Si Si4 0.165519 0.699121 0.000000
Si Si5 0.165719 0.201204 0.765937
O O1 0.500000 0.217568 0.887138
O O2 0.427431 0.500000 0.871225
O O3 0.375552 0.225510 0.824754
O O4 0.372716 0.273515 0.941699
O O5 0.093995 0.500000 0.622645
O O6 0.132267 0.704372 0.708928
O O7 0.000000 0.730849 0.664826
O O8 0.114697 0.829081 0.600731
O O9 0.500000 0.500000 0.437446
O O10 0.621784 0.500000 0.500000
O O11 0.250000 0.750000 0.000000
O O12 0.155863 0.500000 0.000000
O O13 0.250000 0.250000 0.772996
O O14 0.155384 0.000000 0.758113
#
# Coordination Sequence:
#
# PCOD8272055 Si02
#       5
#    16  16   8   8  16
#     4  10  22  40  62  86 116 153 194 241 298 356
#     4  10  20  35  58  88 120 156 198 245 297 353
#     4   9  18  34  58  88 122 157 196 244 293 349
#     4  12  25  40  59  83 115 155 197 248 295 352
#     4  11  22  37  58  86 117 154 195 245 297 356
#
# _framework density 20.174797000000002
#
# number of rings (size 3 to 8) (size 9 to 14) (size 15 to 20)
#    0.000    1.625    1.250    3.750    0.000    7.500 
#    0.000    2.500    0.000    0.750    0.000    0.000 
#    0.000    0.000    0.000    0.000    0.000    0.000 
#
# Total GULP energy -396843.549452 kJ/mol
# GULP energy per Si atom -12401.360920 kJ/mol
# Density = 2.012888 g / cm^3
# Si number density = 20.174797 Si / 1000 Ang^3
#
#
#
# Elastic Constant Matrix: (Units=GPa)
#
#
# Indices 1 2 3 4 5 6 
#
# 1 134.1401 23.6093 68.6452 0.0000 0.0000 0.0000
# 2 23.6093 94.0645 43.0941 0.0000 0.0000 0.0000
# 3 68.6452 43.0941 177.0430 0.0000 0.0000 0.0000
# 4 0.0000 0.0000 0.0000 5.9412 0.0000 0.0000
# 5 0.0000 0.0000 0.0000 0.0000 -46.9805 0.0000
# 6 0.0000 0.0000 0.0000 0.0000 0.0000 24.8362
#
#
#
# Elastic Compliance Matrix: (Units=1/GPa)
#
#
# Indices 1 2 3 4 5 6 
#
# 1 0.009350 -0.000772 -0.003437 0.000000 0.000000 0.000000
# 2 -0.000772 0.012029 -0.002629 0.000000 0.000000 0.000000
# 3 -0.003437 -0.002629 0.007621 0.000000 0.000000 0.000000
# 4 0.000000 0.000000 0.000000 0.168316 0.000000 0.000000
# 5 0.000000 0.000000 0.000000 0.000000 -0.021285 0.000000
# 6 0.000000 0.000000 0.000000 0.000000 0.000000 0.040264
#
#
# Mechanical properties :
#
#
# Convention : Reuss Voigt Hill
#
# Bulk Modulus (GPa) = 65.25761 75.10496 70.18129
# Shear Modulus (GPa) = 21.26955 14.75265 18.01110
#
# Velocity S-wave (km/s) = 3.25046 2.70708 2.99114
# Velocity P-wave (km/s) = 6.81936 6.86141 6.84042
#
# Compressibility (1/GPa) = 0.01532388
#
# Stress axis : x y z
#
# Youngs Moduli (GPa) = 106.95447 83.13211 131.21730
#
# Poissons Ratio (x) = 0.06417 0.45103
# Poissons Ratio (y) = 0.08256 0.34493
# Poissons Ratio (z) = 0.36763 0.21853
#
# Static dielectric constant tensor:
#      x y z
#    x 3.729130 0.000000 0.000000 
#    y 0.000000 3.779700 0.000000 
#    z 0.000000 0.000000 3.757920 
# 
# 
# High freq. dielectric constant tensor:
#      x y z
#    x 1.781060 0.000000 0.000000 
#    y 0.000000 1.794030 0.000000 
#    z 0.000000 0.000000 1.788820 
# 
# From -- ./inp_files/70286.got.cif
#   From: 2010.03.12/outbox.cif.g09.slc.cpg/sg65_36_cif.got.tgz:70286.got - 2010.04.10 20:52:16.
