data_PCOD8272935
_publ_section_title
;
Structure prediction by ZEFSAII (Michael W. Deem and Ramdas Pophale) SiO2 
 PCOD8272935
Probable space group: C M M M
;
_chemical_formula_sum "Si O2"
_cell_formula_units_Z 88
_cell_length_a 19.693803
_cell_length_b 9.200679
_cell_length_c 27.459321
_cell_angle_alpha 90.000000
_cell_angle_beta 90.000000
_cell_angle_gamma 90.000000
_cell_volume 4975.529005
_symmetry_space_group_name_H-M "C M M M"
_symmetry_group_IT_number 65
_symmetry_cell_setting 'orthorhombic'
loop_
_space_group_symop_operation_xyz
x,y,z
-x,-y,z
x,-y,-z
-x,y,-z
-x,-y,-z
x,y,-z
-x,y,z
x,-y,z
1/2+x,1/2+y,z
1/2-x,1/2-y,z
1/2+x,1/2-y,-z
1/2-x,1/2+y,-z
1/2-x,1/2-y,-z
1/2+x,1/2+y,-z
1/2-x,1/2+y,z
1/2+x,1/2-y,z
loop_
_atom_site_type_symbol
_atom_site_label
_atom_site_fract_x
_atom_site_fract_y
_atom_site_fract_z
Si Si1 0.420079 0.333445 0.122235
Si Si2 0.318322 0.670506 0.308389
Si Si3 0.319079 0.329929 0.580623
Si Si4 0.817584 0.330825 0.943408
Si Si5 0.074644 0.172129 0.768740
Si Si6 0.423533 0.327778 0.500000
O O1 0.500000 0.312865 0.114620
O O2 0.399158 0.500000 0.111969
O O3 0.382285 0.228427 0.085175
O O4 0.399391 0.287437 0.177196
O O5 0.307453 0.500000 0.300835
O O6 0.250000 0.750000 0.293301
O O7 0.338928 0.706850 0.363838
O O8 0.375730 0.734310 0.272631
O O9 0.305789 0.500000 0.572900
O O10 0.250000 0.250000 0.564866
O O11 0.381911 0.275467 0.547629
O O12 0.808458 0.500000 0.932518
O O13 0.750000 0.250000 0.925036
O O14 0.830571 0.299204 0.000000
O O15 0.000000 0.239660 0.759698
O O16 0.069636 0.000000 0.764411
O O17 0.429771 0.500000 0.500000
O O18 0.500000 0.260431 0.500000
#
# Coordination Sequence:
#
# PCOD8272935 Si02
#       6
#    16  16  16  16  16   8
#     4   9  18  33  52  73  98 128 160 194 234 281
#     4   9  17  29  46  68  92 119 153 190 228 272
#     4   9  17  29  46  66  89 120 153 187 229 274
#     4  10  21  36  53  73  98 127 159 197 239 282
#     4   8  15  29  48  69  93 121 154 191 228 269
#     4   9  17  28  43  67  94 115 146 194 236 269
#
# _framework density 17.686561999999999
#
# number of rings (size 3 to 8) (size 9 to 14) (size 15 to 20)
#    0.000    3.000    0.000    1.909    0.000    3.273 
#    0.000    8.182    0.000    2.727    0.000    5.091 
#    0.000    0.000    0.000    0.000    0.000    0.000 
#
# Total GULP energy -545517.713349 kJ/mol
# GULP energy per Si atom -12398.129849 kJ/mol
# Density = 1.764631 g / cm^3
# Si number density = 17.686562 Si / 1000 Ang^3
#
#
#
# Elastic Constant Matrix: (Units=GPa)
#
#
# Indices 1 2 3 4 5 6 
#
# 1 125.2227 43.3012 82.5523 0.0000 0.0000 0.0000
# 2 43.3012 45.9846 40.6709 0.0000 0.0000 0.0000
# 3 82.5523 40.6709 108.5019 0.0000 0.0000 0.0000
# 4 0.0000 0.0000 0.0000 18.1752 0.0000 0.0000
# 5 0.0000 0.0000 0.0000 0.0000 36.7650 0.0000
# 6 0.0000 0.0000 0.0000 0.0000 0.0000 28.6209
#
#
#
# Elastic Compliance Matrix: (Units=1/GPa)
#
#
# Indices 1 2 3 4 5 6 
#
# 1 0.017408 -0.006998 -0.010621 0.000000 0.000000 0.000000
# 2 -0.006998 0.035345 -0.007924 0.000000 0.000000 0.000000
# 3 -0.010621 -0.007924 0.020268 0.000000 0.000000 0.000000
# 4 0.000000 0.000000 0.000000 0.055020 0.000000 0.000000
# 5 0.000000 0.000000 0.000000 0.000000 0.027200 0.000000
# 6 0.000000 0.000000 0.000000 0.000000 0.000000 0.034939
#
#
# Mechanical properties :
#
#
# Convention : Reuss Voigt Hill
#
# Bulk Modulus (GPa) = 45.59322 68.08422 56.83872
# Shear Modulus (GPa) = 20.11447 24.25788 22.18618
#
# Velocity S-wave (km/s) = 3.37601 3.70745 3.54561
# Velocity P-wave (km/s) = 6.40554 7.54357 6.99773
#
# Compressibility (1/GPa) = 0.02193309
#
# Stress axis : x y z
#
# Youngs Moduli (GPa) = 57.44621 28.29290 49.33912
#
# Poissons Ratio (x) = 0.19799 0.52405
# Poissons Ratio (y) = 0.40200 0.39098
# Poissons Ratio (z) = 0.61015 0.22420
#
# Static dielectric constant tensor:
#      x y z
#    x 3.504220 0.000000 0.000000 
#    y 0.000000 2.993410 0.000000 
#    z 0.000000 0.000000 3.438540 
# 
# 
# High freq. dielectric constant tensor:
#      x y z
#    x 1.684640 0.000000 0.000000 
#    y 0.000000 1.652540 0.000000 
#    z 0.000000 0.000000 1.691820 
# 
# From -- ./inp_files/67555.got.cif
#   From: 2010.03.12/outbox.cif.g09.slc.cpg/sg65_34_cif.got.tgz:67555.got - 2010.04.10 20:52:16.
