data_PCOD8272410
_publ_section_title
;
Structure prediction by ZEFSAII (Michael W. Deem and Ramdas Pophale) SiO2 
 PCOD8272410
Probable space group: C M M M
;
_chemical_formula_sum "Si O2"
_cell_formula_units_Z 88
_cell_length_a 22.101590
_cell_length_b 9.635634
_cell_length_c 21.310029
_cell_angle_alpha 90.000000
_cell_angle_beta 90.000000
_cell_angle_gamma 90.000000
_cell_volume 4538.244127
_symmetry_space_group_name_H-M "C M M M"
_symmetry_group_IT_number 65
_symmetry_cell_setting 'orthorhombic'
loop_
_space_group_symop_operation_xyz
x,y,z
-x,-y,z
x,-y,-z
-x,y,-z
-x,-y,-z
x,y,-z
-x,y,z
x,-y,z
1/2+x,1/2+y,z
1/2-x,1/2-y,z
1/2+x,1/2-y,-z
1/2-x,1/2+y,-z
1/2-x,1/2-y,-z
1/2+x,1/2+y,-z
1/2-x,1/2+y,z
1/2+x,1/2-y,z
loop_
_atom_site_type_symbol
_atom_site_label
_atom_site_fract_x
_atom_site_fract_y
_atom_site_fract_z
Si Si1 0.797793 0.500000 0.424189
Si Si2 0.500000 0.666888 0.185102
Si Si3 0.000000 0.654880 0.690144
Si Si4 0.876729 0.837918 0.125404
Si Si5 0.377255 0.235855 0.363221
Si Si6 0.692113 0.662566 0.751846
Si Si7 0.187315 0.832844 0.000000
Si Si8 0.659785 0.500000 0.572522
O O1 0.803449 0.500000 0.500000
O O2 0.829168 0.633717 0.394679
O O3 0.728273 0.500000 0.399471
O O4 0.500000 0.500000 0.194617
O O5 0.500000 0.733393 0.254143
O O6 0.557889 0.721866 0.145653
O O7 0.056934 0.669342 0.643433
O O8 0.000000 0.500000 0.719350
O O9 0.827192 0.800638 0.177606
O O10 0.851976 0.780867 0.059459
O O11 0.885588 0.000000 0.119042
O O12 0.360460 0.286849 0.293699
O O13 0.379482 0.368486 0.407770
O O14 0.705027 0.500000 0.743210
O O15 0.750000 0.750000 0.733684
O O16 0.250000 0.750000 0.000000
O O17 0.199048 0.000000 0.000000
O O18 0.669239 0.500000 0.500000
#
# Coordination Sequence:
#
# PCOD8272410 Si02
#       8
#     8   8   8  16  16  16   8   8
#     4  11  24  45  69  93 129 165 199 254 313 377
#     4  10  20  39  64  87 119 160 204 259 314 362
#     4  12  26  44  62  90 128 166 207 261 316 372
#     4   9  19  35  58  90 121 160 208 252 304 361
#     4  12  24  41  64  93 123 163 210 254 311 371
#     4  11  22  36  58  91 125 157 205 262 313 365
#     4  10  20  37  59  87 127 166 205 248 304 367
#     4  11  24  43  67  97 125 159 205 254 311 375
#
# _framework density 19.390758999999999
#
# number of rings (size 3 to 8) (size 9 to 14) (size 15 to 20)
#    0.000    1.273    3.636    2.727    2.545    1.818 
#    0.000    5.455    0.000    0.000    0.000    1.273 
#    0.000    0.000    0.000    0.000    0.000    0.000 
#
# Total GULP energy -545564.952530 kJ/mol
# GULP energy per Si atom -12399.203467 kJ/mol
# Density = 1.934662 g / cm^3
# Si number density = 19.390759 Si / 1000 Ang^3
#
#
#
# Elastic Constant Matrix: (Units=GPa)
#
#
# Indices 1 2 3 4 5 6 
#
# 1 112.7191 29.0749 30.9540 0.0000 0.0000 0.0000
# 2 29.0749 91.0662 27.2482 0.0000 0.0000 0.0000
# 3 30.9540 27.2482 97.3012 0.0000 0.0000 0.0000
# 4 0.0000 0.0000 0.0000 27.8522 0.0000 0.0000
# 5 0.0000 0.0000 0.0000 0.0000 12.8272 0.0000
# 6 0.0000 0.0000 0.0000 0.0000 0.0000 29.2832
#
#
#
# Elastic Compliance Matrix: (Units=1/GPa)
#
#
# Indices 1 2 3 4 5 6 
#
# 1 0.010216 -0.002499 -0.002550 0.000000 0.000000 0.000000
# 2 -0.002499 0.012596 -0.002733 0.000000 0.000000 0.000000
# 3 -0.002550 -0.002733 0.011854 0.000000 0.000000 0.000000
# 4 0.000000 0.000000 0.000000 0.035904 0.000000 0.000000
# 5 0.000000 0.000000 0.000000 0.000000 0.077959 0.000000
# 6 0.000000 0.000000 0.000000 0.000000 0.000000 0.034149
#
#
# Mechanical properties :
#
#
# Convention : Reuss Voigt Hill
#
# Bulk Modulus (GPa) = 52.34654 52.84894 52.59774
# Shear Modulus (GPa) = 24.43666 28.24647 26.34157
#
# Velocity S-wave (km/s) = 3.55381 3.82081 3.68973
# Velocity P-wave (km/s) = 6.62523 6.83949 6.73321
#
# Compressibility (1/GPa) = 0.01910346
#
# Stress axis : x y z
#
# Youngs Moduli (GPa) = 97.88089 79.38757 84.36015
#
# Poissons Ratio (x) = 0.19837 0.21515
# Poissons Ratio (y) = 0.24458 0.23052
# Poissons Ratio (z) = 0.24963 0.21693
#
# Static dielectric constant tensor:
#      x y z
#    x 3.699230 0.000000 0.000000 
#    y 0.000000 3.462730 0.000000 
#    z 0.000000 0.000000 3.821050 
# 
# 
# High freq. dielectric constant tensor:
#      x y z
#    x 1.760440 0.000000 0.000000 
#    y 0.000000 1.742840 0.000000 
#    z 0.000000 0.000000 1.762500 
# 
# From -- ./inp_files/65288.got.cif
#   From: 2010.03.12/outbox.cif.g09.slc.cpg/sg65_33_cif.got.tgz:65288.got - 2010.04.10 20:52:16.
