data_PCOD8272100
_publ_section_title
;
Structure prediction by ZEFSAII (Michael W. Deem and Ramdas Pophale) SiO2 
 PCOD8272100
Probable space group: C M M M
;
_chemical_formula_sum "Si O2"
_cell_formula_units_Z 104
_cell_length_a 27.815157
_cell_length_b 9.199394
_cell_length_c 26.042610
_cell_angle_alpha 90.000000
_cell_angle_beta 90.000000
_cell_angle_gamma 90.000000
_cell_volume 6663.850456
_symmetry_space_group_name_H-M "C M M M"
_symmetry_group_IT_number 65
_symmetry_cell_setting 'orthorhombic'
loop_
_space_group_symop_operation_xyz
x,y,z
-x,-y,z
x,-y,-z
-x,y,-z
-x,-y,-z
x,y,-z
-x,y,z
x,-y,z
1/2+x,1/2+y,z
1/2-x,1/2-y,z
1/2+x,1/2-y,-z
1/2-x,1/2+y,-z
1/2-x,1/2-y,-z
1/2+x,1/2+y,-z
1/2-x,1/2+y,z
1/2+x,1/2-y,z
loop_
_atom_site_type_symbol
_atom_site_label
_atom_site_fract_x
_atom_site_fract_y
_atom_site_fract_z
Si Si1 0.609939 0.672664 0.646681
Si Si2 0.301157 0.170697 0.611610
Si Si3 0.442913 0.160563 0.849546
Si Si4 0.557118 0.662622 0.944157
Si Si5 0.556882 0.165081 0.441671
Si Si6 0.702184 0.837168 0.500000
Si Si7 0.443482 0.167808 0.264672
O O1 0.615926 0.500000 0.646372
O O2 0.662086 0.749399 0.649465
O O3 0.581136 0.720713 0.596190
O O4 0.582289 0.722425 0.697266
O O5 0.250000 0.250000 0.615910
O O6 0.325024 0.192013 0.554035
O O7 0.295720 0.000000 0.625369
O O8 0.500000 0.157234 0.854358
O O9 0.419742 0.252928 0.895958
O O10 0.429115 0.219184 0.792975
O O11 0.421750 0.000000 0.855980
O O12 0.500000 0.662503 0.939167
O O13 0.577195 0.500000 0.941199
O O14 0.571556 0.730597 0.000000
O O15 0.574183 0.195430 0.500000
O O16 0.500000 0.184308 0.437741
O O17 0.571288 0.000000 0.425873
O O18 0.750000 0.750000 0.500000
O O19 0.720996 0.000000 0.500000
O O20 0.500000 0.182525 0.273585
O O21 0.428040 0.000000 0.274117
#
# Coordination Sequence:
#
# PCOD8272100 Si02
#       7
#    16  16  16  16  16   8  16
#     4  12  24  33  46  70  93 115 143 176 216 262
#     4  10  20  36  54  72  92 114 139 170 209 257
#     4   8  14  24  38  55  74 100 138 182 222 255
#     4   8  13  20  30  47  73 104 136 170 211 257
#     4   9  19  36  54  68  85 113 146 178 216 261
#     4   8  16  30  50  70  85 104 127 154 192 241
#     4   9  18  33  49  63  83 114 151 189 227 264
#
# _framework density 15.606593
#
# number of rings (size 3 to 8) (size 9 to 14) (size 15 to 20)
#    0.000    2.769    0.000    4.154    1.077    4.308 
#    0.000    3.846    0.000    0.000    0.000    0.000 
#    0.000    0.000    0.000    0.000    0.000    0.769 
#
# Total GULP energy -644291.398834 kJ/mol
# GULP energy per Si atom -12390.219208 kJ/mol
# Density = 1.557107 g / cm^3
# Si number density = 15.606593 Si / 1000 Ang^3
#
#
#
# Elastic Constant Matrix: (Units=GPa)
#
#
# Indices 1 2 3 4 5 6 
#
# 1 32.2777 31.5617 32.1397 0.0000 0.0000 0.0000
# 2 31.5617 102.8515 60.6616 0.0000 0.0000 0.0000
# 3 32.1397 60.6616 115.3875 0.0000 0.0000 0.0000
# 4 0.0000 0.0000 0.0000 25.8897 0.0000 0.0000
# 5 0.0000 0.0000 0.0000 0.0000 3.7328 0.0000
# 6 0.0000 0.0000 0.0000 0.0000 0.0000 19.6703
#
#
#
# Elastic Compliance Matrix: (Units=1/GPa)
#
#
# Indices 1 2 3 4 5 6 
#
# 1 0.049274 -0.010183 -0.008371 0.000000 0.000000 0.000000
# 2 -0.010183 0.016197 -0.005679 0.000000 0.000000 0.000000
# 3 -0.008371 -0.005679 0.013983 0.000000 0.000000 0.000000
# 4 0.000000 0.000000 0.000000 0.038625 0.000000 0.000000
# 5 0.000000 0.000000 0.000000 0.000000 0.267898 0.000000
# 6 0.000000 0.000000 0.000000 0.000000 0.000000 0.050838
#
#
# Mechanical properties :
#
#
# Convention : Reuss Voigt Hill
#
# Bulk Modulus (GPa) = 32.27029 55.47141 43.87085
# Shear Modulus (GPa) = 10.08857 18.26881 14.17869
#
# Velocity S-wave (km/s) = 2.54526 3.42509 3.01741
# Velocity P-wave (km/s) = 5.41849 7.15978 6.34911
#
# Compressibility (1/GPa) = 0.03098825
#
# Stress axis : x y z
#
# Youngs Moduli (GPa) = 20.29483 61.74024 71.51302
#
# Poissons Ratio (x) = 0.62871 0.59864
# Poissons Ratio (y) = 0.20667 0.40610
# Poissons Ratio (z) = 0.16989 0.35060
#
# Static dielectric constant tensor:
#      x y z
#    x 2.553210 0.000000 0.000000 
#    y 0.000000 3.071890 0.000000 
#    z 0.000000 0.000000 3.274390 
# 
# 
# High freq. dielectric constant tensor:
#      x y z
#    x 1.546720 0.000000 0.000000 
#    y 0.000000 1.600310 0.000000 
#    z 0.000000 0.000000 1.597980 
# 
# From -- ./inp_files/72119.got.cif
#   From: 2010.03.12/outbox.cif.g09.slc.cpg/sg65_37_cif.got.tgz:72119.got - 2010.04.10 20:52:16.
