data_PCOD8272962
_publ_section_title
;
Structure prediction by ZEFSAII (Michael W. Deem and Ramdas Pophale) SiO2 
 PCOD8272962
Probable space group: C M M M
;
_chemical_formula_sum "Si O2"
_cell_formula_units_Z 96
_cell_length_a 9.003532
_cell_length_b 18.765638
_cell_length_c 31.098882
_cell_angle_alpha 90.000000
_cell_angle_beta 90.000000
_cell_angle_gamma 90.000000
_cell_volume 5254.374498
_symmetry_space_group_name_H-M "C M M M"
_symmetry_group_IT_number 65
_symmetry_cell_setting 'orthorhombic'
loop_
_space_group_symop_operation_xyz
x,y,z
-x,-y,z
x,-y,-z
-x,y,-z
-x,-y,-z
x,y,-z
-x,y,z
x,-y,z
1/2+x,1/2+y,z
1/2-x,1/2-y,z
1/2+x,1/2-y,-z
1/2-x,1/2+y,-z
1/2-x,1/2-y,-z
1/2+x,1/2+y,-z
1/2-x,1/2+y,z
1/2+x,1/2-y,z
loop_
_atom_site_type_symbol
_atom_site_label
_atom_site_fract_x
_atom_site_fract_y
_atom_site_fract_z
Si Si1 0.328049 0.415117 0.638603
Si Si2 0.176149 0.673488 0.288698
Si Si3 0.176358 0.579220 0.789739
Si Si4 0.323980 0.579613 0.545426
Si Si5 0.333428 0.084122 0.885046
Si Si6 0.826107 0.177870 0.048779
O O1 0.500000 0.395612 0.647667
O O2 0.304987 0.500000 0.641785
O O3 0.222028 0.375910 0.671760
O O4 0.275697 0.385935 0.591067
O O5 0.250000 0.750000 0.292668
O O6 0.235345 0.635462 0.245231
O O7 0.000000 0.682421 0.288499
O O8 0.241394 0.500000 0.779896
O O9 0.224929 0.605206 0.837338
O O10 0.000000 0.574257 0.788228
O O11 0.273549 0.618387 0.500000
O O12 0.500000 0.575314 0.546702
O O13 0.258756 0.500000 0.543973
O O14 0.500000 0.113899 0.892553
O O15 0.223273 0.114164 0.920651
O O16 0.333633 0.000000 0.889586
O O17 0.750000 0.250000 0.065021
O O18 0.000000 0.188413 0.052263
O O19 0.777123 0.159846 0.000000
#
# Coordination Sequence:
#
# PCOD8272962 Si02
#       6
#    16  16  16  16  16  16
#     4   9  17  30  50  76 103 129 161 202 245 292
#     4  11  22  35  51  71  99 133 168 206 248 295
#     4   8  16  33  55  76  98 127 163 202 246 297
#     4   7  10  19  39  68  98 125 154 191 237 288
#     4   9  18  34  56  80 105 132 163 201 246 297
#     4  10  21  36  53  74 103 138 174 211 249 291
#
# _framework density 18.270492000000001
#
# number of rings (size 3 to 8) (size 9 to 14) (size 15 to 20)
#    0.000    3.000    0.000    4.000    0.000    3.333 
#    0.000    5.000    0.000    3.000    0.000    2.333 
#    0.000    0.000    0.000    0.000    0.000    0.000 
#
# Total GULP energy -594702.799231 kJ/mol
# GULP energy per Si atom -12389.641651 kJ/mol
# Density = 1.822891 g / cm^3
# Si number density = 18.270492 Si / 1000 Ang^3
#
#
#
# Elastic Constant Matrix: (Units=GPa)
#
#
# Indices 1 2 3 4 5 6 
#
# 1 48.6312 25.6811 38.3443 0.0000 0.0000 0.0000
# 2 25.6811 58.1692 53.8867 0.0000 0.0000 0.0000
# 3 38.3443 53.8867 147.8075 0.0000 0.0000 0.0000
# 4 0.0000 0.0000 0.0000 1.9350 0.0000 0.0000
# 5 0.0000 0.0000 0.0000 0.0000 20.4715 0.0000
# 6 0.0000 0.0000 0.0000 0.0000 0.0000 21.2386
#
#
#
# Elastic Compliance Matrix: (Units=1/GPa)
#
#
# Indices 1 2 3 4 5 6 
#
# 1 0.028466 -0.008647 -0.004232 0.000000 0.000000 0.000000
# 2 -0.008647 0.028585 -0.008178 0.000000 0.000000 0.000000
# 3 -0.004232 -0.008178 0.010845 0.000000 0.000000 0.000000
# 4 0.000000 0.000000 0.000000 0.516790 0.000000 0.000000
# 5 0.000000 0.000000 0.000000 0.000000 0.048848 0.000000
# 6 0.000000 0.000000 0.000000 0.000000 0.000000 0.047084
#
#
# Mechanical properties :
#
#
# Convention : Reuss Voigt Hill
#
# Bulk Modulus (GPa) = 38.78745 54.49246 46.63996
# Shear Modulus (GPa) = 6.83689 17.84207 12.33948
#
# Velocity S-wave (km/s) = 1.93653 3.12837 2.60162
# Velocity P-wave (km/s) = 5.12600 6.55279 5.88281
#
# Compressibility (1/GPa) = 0.02578153
#
# Stress axis : x y z
#
# Youngs Moduli (GPa) = 35.12942 34.98374 92.20820
#
# Poissons Ratio (x) = 0.30250 0.39026
# Poissons Ratio (y) = 0.30376 0.75409
# Poissons Ratio (z) = 0.14868 0.28610
#
# Static dielectric constant tensor:
#      x y z
#    x 3.087740 0.000000 0.000000 
#    y 0.000000 3.131060 0.000000 
#    z 0.000000 0.000000 3.943150 
# 
# 
# High freq. dielectric constant tensor:
#      x y z
#    x 1.675320 0.000000 0.000000 
#    y 0.000000 1.678870 0.000000 
#    z 0.000000 0.000000 1.732490 
# 
# From -- ./inp_files/73208.got.cif
#   From: 2010.03.12/outbox.cif.g09.slc.cpg/sg65_37_cif.got.tgz:73208.got - 2010.04.10 20:52:16.
