data_PCOD8272296
_publ_section_title
;
Structure prediction by ZEFSAII (Michael W. Deem and Ramdas Pophale) SiO2 
 PCOD8272296
Probable space group: C M M M
;
_chemical_formula_sum "Si O2"
_cell_formula_units_Z 88
_cell_length_a 8.797188
_cell_length_b 23.208126
_cell_length_c 22.478052
_cell_angle_alpha 90.000000
_cell_angle_beta 90.000000
_cell_angle_gamma 90.000000
_cell_volume 4589.259529
_symmetry_space_group_name_H-M "C M M M"
_symmetry_group_IT_number 65
_symmetry_cell_setting 'orthorhombic'
loop_
_space_group_symop_operation_xyz
x,y,z
-x,-y,z
x,-y,-z
-x,y,-z
-x,-y,-z
x,y,-z
-x,y,z
x,-y,z
1/2+x,1/2+y,z
1/2-x,1/2-y,z
1/2+x,1/2-y,-z
1/2-x,1/2+y,-z
1/2-x,1/2-y,-z
1/2+x,1/2+y,-z
1/2-x,1/2+y,z
1/2+x,1/2-y,z
loop_
_atom_site_type_symbol
_atom_site_label
_atom_site_fract_x
_atom_site_fract_y
_atom_site_fract_z
Si Si1 0.819135 0.000000 0.354958
Si Si2 0.322156 0.883945 0.393664
Si Si3 0.324942 0.809772 0.721343
Si Si4 0.180841 0.186763 0.500000
Si Si5 0.821575 0.809814 0.931909
Si Si6 0.178649 0.500000 0.775135
Si Si7 0.179406 0.619745 0.167362
O O1 0.753306 0.053747 0.391214
O O2 0.767552 0.000000 0.286625
O O3 0.000000 0.000000 0.357727
O O4 0.500000 0.888683 0.409587
O O5 0.295189 0.855530 0.329937
O O6 0.236537 0.846250 0.442026
O O7 0.500000 0.796734 0.729780
O O8 0.250000 0.750000 0.704161
O O9 0.259056 0.836671 0.782053
O O10 0.250000 0.250000 0.500000
O O11 0.000000 0.191210 0.500000
O O12 0.750000 0.750000 0.908768
O O13 0.759702 0.863618 0.894204
O O14 0.000000 0.804872 0.923987
O O15 0.774144 0.821233 0.000000
O O16 0.224912 0.444915 0.814380
O O17 0.000000 0.500000 0.759106
O O18 0.000000 0.624840 0.159246
#
# Coordination Sequence:
#
# PCOD8272296 Si02
#       7
#     8  16  16   8  16   8  16
#     4  12  24  39  63  95 125 158 200 253 305 360
#     4  11  23  43  66  88 120 165 206 248 302 359
#     4  10  21  35  56  85 117 150 191 242 295 352
#     4  12  26  45  66  95 128 162 206 252 302 364
#     4  10  21  37  57  83 117 156 197 244 297 355
#     4  10  20  40  62  84 120 161 199 244 296 358
#     4  10  20  36  59  86 114 153 198 245 295 350
#
# _framework density 19.175207
#
# number of rings (size 3 to 8) (size 9 to 14) (size 15 to 20)
#    0.000    1.455    1.818    3.818    0.000    7.273 
#    0.000    2.273    0.000    2.727    0.000    0.000 
#    0.000    0.000    0.000    0.000    0.000    0.000 
#
# Total GULP energy -545785.363675 kJ/mol
# GULP energy per Si atom -12404.212811 kJ/mol
# Density = 1.913156 g / cm^3
# Si number density = 19.175207 Si / 1000 Ang^3
#
#
#
# Elastic Constant Matrix: (Units=GPa)
#
#
# Indices 1 2 3 4 5 6 
#
# 1 102.2708 67.9953 57.1528 0.0000 0.0000 0.0000
# 2 67.9953 151.4809 50.7792 0.0000 0.0000 0.0000
# 3 57.1528 50.7792 95.0235 0.0000 0.0000 0.0000
# 4 0.0000 0.0000 0.0000 36.9054 0.0000 0.0000
# 5 0.0000 0.0000 0.0000 0.0000 34.1525 0.0000
# 6 0.0000 0.0000 0.0000 0.0000 0.0000 33.3344
#
#
#
# Elastic Compliance Matrix: (Units=1/GPa)
#
#
# Indices 1 2 3 4 5 6 
#
# 1 0.017663 -0.005320 -0.007781 0.000000 0.000000 0.000000
# 2 -0.005320 0.009645 -0.001954 0.000000 0.000000 0.000000
# 3 -0.007781 -0.001954 0.016248 0.000000 0.000000 0.000000
# 4 0.000000 0.000000 0.000000 0.027096 0.000000 0.000000
# 5 0.000000 0.000000 0.000000 0.000000 0.029280 0.000000
# 6 0.000000 0.000000 0.000000 0.000000 0.000000 0.029999
#
#
# Mechanical properties :
#
#
# Convention : Reuss Voigt Hill
#
# Bulk Modulus (GPa) = 74.37353 77.84776 76.11064
# Shear Modulus (GPa) = 30.39083 32.40165 31.39624
#
# Velocity S-wave (km/s) = 3.98540 4.11514 4.05079
# Velocity P-wave (km/s) = 7.74909 7.95396 7.85219
#
# Compressibility (1/GPa) = 0.01344564
#
# Stress axis : x y z
#
# Youngs Moduli (GPa) = 56.61446 103.68447 61.54733
#
# Poissons Ratio (x) = 0.55163 0.47888
# Poissons Ratio (y) = 0.30121 0.12026
# Poissons Ratio (z) = 0.44050 0.20260
#
# Static dielectric constant tensor:
#      x y z
#    x 3.505000 0.000000 0.000000 
#    y 0.000000 3.696800 0.000000 
#    z 0.000000 0.000000 3.788280 
# 
# 
# High freq. dielectric constant tensor:
#      x y z
#    x 1.747140 0.000000 0.000000 
#    y 0.000000 1.755970 0.000000 
#    z 0.000000 0.000000 1.749870 
# 
# From -- ./inp_files/59937.got.cif
#   From: 2010.03.12/outbox.cif.g09.slc.cpg/sg65_30_cif.got.tgz:59937.got - 2010.04.10 20:52:16.
