data_PCOD8272273
_publ_section_title
;
Structure prediction by ZEFSAII (Michael W. Deem and Ramdas Pophale) SiO2 
 PCOD8272273
Probable space group: C M M M
;
_chemical_formula_sum "Si O2"
_cell_formula_units_Z 88
_cell_length_a 22.391855
_cell_length_b 22.037712
_cell_length_c 9.168515
_cell_angle_alpha 90.000000
_cell_angle_beta 90.000000
_cell_angle_gamma 90.000000
_cell_volume 4524.343562
_symmetry_space_group_name_H-M "C M M M"
_symmetry_group_IT_number 65
_symmetry_cell_setting 'orthorhombic'
loop_
_space_group_symop_operation_xyz
x,y,z
-x,-y,z
x,-y,-z
-x,y,-z
-x,-y,-z
x,y,-z
-x,y,z
x,-y,z
1/2+x,1/2+y,z
1/2-x,1/2-y,z
1/2+x,1/2-y,-z
1/2-x,1/2+y,-z
1/2-x,1/2-y,-z
1/2+x,1/2+y,-z
1/2-x,1/2+y,z
1/2+x,1/2-y,z
loop_
_atom_site_type_symbol
_atom_site_label
_atom_site_fract_x
_atom_site_fract_y
_atom_site_fract_z
Si Si1 0.214251 0.931483 0.333512
Si Si2 0.387977 0.214430 0.835316
Si Si3 0.000000 0.854733 0.664754
Si Si4 0.667729 0.091828 0.167146
Si Si5 0.380874 0.648076 0.172429
Si Si6 0.000000 0.710762 0.339362
Si Si7 0.433028 0.000000 0.170484
O O1 0.212900 0.907596 0.500000
O O2 0.281498 0.931057 0.274951
O O3 0.174546 0.889422 0.231310
O O4 0.189660 0.000000 0.326190
O O5 0.335429 0.165195 0.819393
O O6 0.367443 0.281555 0.786210
O O7 0.441461 0.187428 0.740578
O O8 0.411762 0.218424 0.000000
O O9 0.058912 0.876557 0.750776
O O10 0.000000 0.881666 0.500000
O O11 0.000000 0.782959 0.660140
O O12 0.605426 0.059785 0.214501
O O13 0.683337 0.073802 0.000000
O O14 0.387111 0.638499 0.000000
O O15 0.000000 0.683068 0.500000
O O16 0.500000 0.000000 0.244149
O O17 0.443624 0.000000 0.000000
#
# Coordination Sequence:
#
# PCOD8272273 Si02
#       7
#    16  16   8  16  16   8   8
#     4  11  24  41  59  79 109 148 189 233 286 342
#     4   9  19  33  53  83 114 146 184 234 285 330
#     4   9  17  33  56  84 118 150 181 222 276 330
#     4  10  20  36  59  83 112 149 192 237 280 330
#     4  10  20  36  59  86 116 148 187 231 279 336
#     4   9  17  29  49  77 113 153 188 220 267 336
#     4   9  18  32  55  87 115 146 193 238 273 317
#
# _framework density 19.450334999999999
#
# number of rings (size 3 to 8) (size 9 to 14) (size 15 to 20)
#    0.000    2.273    0.909    1.636    1.273    5.455 
#    0.000    4.091    0.000    3.273    0.000    0.000 
#    0.000    0.000    0.000    0.000    0.000    0.000 
#
# Total GULP energy -545471.673349 kJ/mol
# GULP energy per Si atom -12397.083485 kJ/mol
# Density = 1.940607 g / cm^3
# Si number density = 19.450335 Si / 1000 Ang^3
#
#
#
# Elastic Constant Matrix: (Units=GPa)
#
#
# Indices 1 2 3 4 5 6 
#
# 1 105.3308 42.2177 40.6955 0.0000 0.0000 0.0000
# 2 42.2177 84.8128 35.3413 0.0000 0.0000 0.0000
# 3 40.6955 35.3413 99.6087 0.0000 0.0000 0.0000
# 4 0.0000 0.0000 0.0000 19.9770 0.0000 0.0000
# 5 0.0000 0.0000 0.0000 0.0000 -59.2742 0.0000
# 6 0.0000 0.0000 0.0000 0.0000 0.0000 22.8369
#
#
#
# Elastic Compliance Matrix: (Units=1/GPa)
#
#
# Indices 1 2 3 4 5 6 
#
# 1 0.012816 -0.004926 -0.003488 0.000000 0.000000 0.000000
# 2 -0.004926 0.015730 -0.003568 0.000000 0.000000 0.000000
# 3 -0.003488 -0.003568 0.012731 0.000000 0.000000 0.000000
# 4 0.000000 0.000000 0.000000 0.050057 0.000000 0.000000
# 5 0.000000 0.000000 0.000000 0.000000 -0.016871 0.000000
# 6 0.000000 0.000000 0.000000 0.000000 0.000000 0.043789
#
#
# Mechanical properties :
#
#
# Convention : Reuss Voigt Hill
#
# Bulk Modulus (GPa) = 57.76703 58.47347 58.12025
# Shear Modulus (GPa) = 33.78674 8.14115 20.96394
#
# Velocity S-wave (km/s) = 4.17235 2.04809 3.28658
# Velocity P-wave (km/s) = 7.27843 5.97672 6.65946
#
# Compressibility (1/GPa) = 0.01731091
#
# Stress axis : x y z
#
# Youngs Moduli (GPa) = 78.02743 63.57435 78.55147
#
# Poissons Ratio (x) = 0.31316 0.27401
# Poissons Ratio (y) = 0.38436 0.28030
# Poissons Ratio (z) = 0.27218 0.22686
#
# Static dielectric constant tensor:
#      x y z
#    x 3.468000 0.000000 0.000000 
#    y 0.000000 3.496560 0.000000 
#    z 0.000000 0.000000 3.592000 
# 
# 
# High freq. dielectric constant tensor:
#      x y z
#    x 1.748580 0.000000 0.000000 
#    y 0.000000 1.748760 0.000000 
#    z 0.000000 0.000000 1.752420 
# 
# From -- ./inp_files/11905.got.cif
#   From: 2010.03.12/outbox.cif.g09.slc.cpg/sg65_6_cif.got.tgz:11905.got - 2010.04.10 20:52:16.
