data_PCOD8272693
_publ_section_title
;
Structure prediction by ZEFSAII (Michael W. Deem and Ramdas Pophale) SiO2 
 PCOD8272693
Probable space group: C M M M
;
_chemical_formula_sum "Si O2"
_cell_formula_units_Z 96
_cell_length_a 18.535388
_cell_length_b 9.756542
_cell_length_c 30.626356
_cell_angle_alpha 90.000000
_cell_angle_beta 90.000000
_cell_angle_gamma 90.000000
_cell_volume 5538.509773
_symmetry_space_group_name_H-M "C M M M"
_symmetry_group_IT_number 65
_symmetry_cell_setting 'orthorhombic'
loop_
_space_group_symop_operation_xyz
x,y,z
-x,-y,z
x,-y,-z
-x,y,-z
-x,-y,-z
x,y,-z
-x,y,z
x,-y,z
1/2+x,1/2+y,z
1/2-x,1/2-y,z
1/2+x,1/2-y,-z
1/2-x,1/2+y,-z
1/2-x,1/2-y,-z
1/2+x,1/2+y,-z
1/2-x,1/2+y,z
1/2+x,1/2-y,z
loop_
_atom_site_type_symbol
_atom_site_label
_atom_site_fract_x
_atom_site_fract_y
_atom_site_fract_z
Si Si1 0.682584 0.157530 0.450830
Si Si2 0.414326 0.846276 0.951767
Si Si3 0.916616 0.841362 0.125829
Si Si4 0.583327 0.341597 0.707499
Si Si5 0.083447 0.656705 0.371680
Si Si6 0.821429 0.840159 0.209074
O O1 0.654969 0.187901 0.500000
O O2 0.750000 0.250000 0.438537
O O3 0.619765 0.196362 0.417367
O O4 0.706309 0.000000 0.445970
O O5 0.500000 0.840341 0.952196
O O6 0.384675 0.742879 0.915193
O O7 0.388108 0.000000 0.940431
O O8 0.385557 0.803659 0.000000
O O9 0.869690 0.801074 0.167551
O O10 0.000000 0.804186 0.135767
O O11 0.908776 0.000000 0.113879
O O12 0.500000 0.306697 0.718343
O O13 0.592052 0.500000 0.694786
O O14 0.612823 0.252177 0.667150
O O15 0.631201 0.302582 0.748930
O O16 0.099397 0.500000 0.358475
O O17 0.000000 0.684679 0.379304
O O18 0.750000 0.750000 0.209013
O O19 0.800120 0.000000 0.208708
#
# Coordination Sequence:
#
# PCOD8272693 Si02
#       6
#    16  16  16  16  16  16
#     4   9  18  32  49  69  95 128 162 195 233 277
#     4   8  14  25  42  67  98 126 152 187 232 279
#     4   9  17  30  49  71  94 122 157 195 233 274
#     4   9  18  34  54  72  93 124 159 193 233 282
#     4   9  18  32  50  73  98 122 153 195 238 279
#     4  10  21  35  50  70  96 125 157 194 235 279
#
# _framework density 17.333182000000001
#
# number of rings (size 3 to 8) (size 9 to 14) (size 15 to 20)
#    0.000    3.000    0.000    1.000    0.000    5.333 
#    0.000    6.667    0.000    5.500    0.000    4.667 
#    0.000    0.000    0.000    0.000    0.000    0.000 
#
# Total GULP energy -595125.584542 kJ/mol
# GULP energy per Si atom -12398.449678 kJ/mol
# Density = 1.729373 g / cm^3
# Si number density = 17.333182 Si / 1000 Ang^3
#
#
#
# Elastic Constant Matrix: (Units=GPa)
#
#
# Indices 1 2 3 4 5 6 
#
# 1 70.0374 50.8873 68.9573 0.0000 0.0000 0.0000
# 2 50.8873 79.2864 85.0073 0.0000 0.0000 0.0000
# 3 68.9573 85.0073 165.5633 0.0000 0.0000 0.0000
# 4 0.0000 0.0000 0.0000 34.9455 0.0000 0.0000
# 5 0.0000 0.0000 0.0000 0.0000 4.8612 0.0000
# 6 0.0000 0.0000 0.0000 0.0000 0.0000 26.7572
#
#
#
# Elastic Compliance Matrix: (Units=1/GPa)
#
#
# Indices 1 2 3 4 5 6 
#
# 1 0.028909 -0.012558 -0.005593 0.000000 0.000000 0.000000
# 2 -0.012558 0.033513 -0.011977 0.000000 0.000000 0.000000
# 3 -0.005593 -0.011977 0.014519 0.000000 0.000000 0.000000
# 4 0.000000 0.000000 0.000000 0.028616 0.000000 0.000000
# 5 0.000000 0.000000 0.000000 0.000000 0.205709 0.000000
# 6 0.000000 0.000000 0.000000 0.000000 0.000000 0.037373
#
#
# Mechanical properties :
#
#
# Convention : Reuss Voigt Hill
#
# Bulk Modulus (GPa) = 59.93025 80.51012 70.22018
# Shear Modulus (GPa) = 12.06402 20.64847 16.35624
#
# Velocity S-wave (km/s) = 2.64106 3.45522 3.07520
# Velocity P-wave (km/s) = 6.62954 7.90363 7.29446
#
# Compressibility (1/GPa) = 0.01668607
#
# Stress axis : x y z
#
# Youngs Moduli (GPa) = 34.59150 29.83892 68.87583
#
# Poissons Ratio (x) = 0.37471 0.38522
# Poissons Ratio (y) = 0.43439 0.82492
# Poissons Ratio (z) = 0.19347 0.35738
#
# Static dielectric constant tensor:
#      x y z
#    x 2.992000 0.000000 0.000000 
#    y 0.000000 3.302060 0.000000 
#    z 0.000000 0.000000 3.491960 
# 
# 
# High freq. dielectric constant tensor:
#      x y z
#    x 1.642740 0.000000 0.000000 
#    y 0.000000 1.668970 0.000000 
#    z 0.000000 0.000000 1.681170 
# 
# From -- ./inp_files/70474.got.cif
#   From: 2010.03.12/outbox.cif.g09.slc.cpg/sg65_36_cif.got.tgz:70474.got - 2010.04.10 20:52:16.
