data_PCOD8272453
_publ_section_title
;
Structure prediction by ZEFSAII (Michael W. Deem and Ramdas Pophale) SiO2 
 PCOD8272453
Probable space group: C M M M
;
_chemical_formula_sum "Si O2"
_cell_formula_units_Z 48
_cell_length_a 17.818437
_cell_length_b 7.629707
_cell_length_c 16.980523
_cell_angle_alpha 90.000000
_cell_angle_beta 90.000000
_cell_angle_gamma 90.000000
_cell_volume 2308.492822
_symmetry_space_group_name_H-M "C M M M"
_symmetry_group_IT_number 65
_symmetry_cell_setting 'orthorhombic'
loop_
_space_group_symop_operation_xyz
x,y,z
-x,-y,z
x,-y,-z
-x,y,-z
-x,-y,-z
x,y,-z
-x,y,z
x,-y,z
1/2+x,1/2+y,z
1/2-x,1/2-y,z
1/2+x,1/2-y,-z
1/2-x,1/2+y,-z
1/2-x,1/2-y,-z
1/2+x,1/2+y,-z
1/2-x,1/2+y,z
1/2+x,1/2-y,z
loop_
_atom_site_type_symbol
_atom_site_label
_atom_site_fract_x
_atom_site_fract_y
_atom_site_fract_z
Si Si1 0.163460 0.795048 0.500000
Si Si2 0.164702 0.696384 0.814156
Si Si3 0.586165 0.500000 0.906969
Si Si4 0.412836 0.706048 0.657402
O O1 0.250000 0.750000 0.500000
O O2 0.125021 0.717259 0.578227
O O3 0.148723 0.000000 0.500000
O O4 0.160260 0.500000 0.849237
O O5 0.250000 0.750000 0.800357
O O6 0.125378 0.825619 0.875391
O O7 0.123483 0.696080 0.730676
O O8 0.500000 0.500000 0.878480
O O9 0.593177 0.500000 0.000000
O O10 0.500000 0.751110 0.653453
O O11 0.398150 0.500000 0.667939
#
# Coordination Sequence:
#
# PCOD8272453 Si02
#       4
#     8  16   8  16
#     4  10  21  35  55  85 121 172 220 271 326 380
#     4  12  24  43  69 101 133 176 222 273 329 396
#     4  11  26  48  72 101 138 174 213 271 338 400
#     4  10  20  37  61  89 128 171 219 273 330 390
#
# _framework density 20.792786
#
# number of rings (size 3 to 8) (size 9 to 14) (size 15 to 20)
#    0.000    1.167    3.333    2.500    0.000   10.000 
#    0.000    1.667    0.000    3.000    0.000    0.000 
#    0.000    0.000    0.000    0.000    0.000    0.000 
#
# Total GULP energy -297715.776384 kJ/mol
# GULP energy per Si atom -12404.824016 kJ/mol
# Density = 2.074546 g / cm^3
# Si number density = 20.792786 Si / 1000 Ang^3
#
#
#
# Elastic Constant Matrix: (Units=GPa)
#
#
# Indices 1 2 3 4 5 6 
#
# 1 161.1677 41.9068 50.9420 0.0000 0.0000 0.0000
# 2 41.9068 124.1554 33.5729 0.0000 0.0000 0.0000
# 3 50.9420 33.5729 98.7543 0.0000 0.0000 0.0000
# 4 0.0000 0.0000 0.0000 -0.8484 0.0000 0.0000
# 5 0.0000 0.0000 0.0000 0.0000 20.0418 0.0000
# 6 0.0000 0.0000 0.0000 0.0000 0.0000 32.0054
#
#
#
# Elastic Compliance Matrix: (Units=1/GPa)
#
#
# Indices 1 2 3 4 5 6 
#
# 1 0.007720 -0.001684 -0.003410 0.000000 0.000000 0.000000
# 2 -0.001684 0.009237 -0.002272 0.000000 0.000000 0.000000
# 3 -0.003410 -0.002272 0.012658 0.000000 0.000000 0.000000
# 4 0.000000 0.000000 0.000000 -1.178756 0.000000 0.000000
# 5 0.000000 0.000000 0.000000 0.000000 0.049896 0.000000
# 6 0.000000 0.000000 0.000000 0.000000 0.000000 0.031245
#
#
# Mechanical properties :
#
#
# Convention : Reuss Voigt Hill
#
# Bulk Modulus (GPa) = 67.18709 70.76896 68.97802
# Shear Modulus (GPa) = -4.76959 27.41683 11.32362
#
# Velocity S-wave (km/s) = -1.51619 3.63516 2.33618
# Velocity P-wave (km/s) = 5.41458 7.19224 6.36577
#
# Compressibility (1/GPa) = 0.01488381
#
# Stress axis : x y z
#
# Youngs Moduli (GPa) = 129.52694 108.25978 79.00437
#
# Poissons Ratio (x) = 0.18229 0.26941
# Poissons Ratio (y) = 0.21809 0.17947
# Poissons Ratio (z) = 0.44170 0.24593
#
# Static dielectric constant tensor:
#      x y z
#    x 3.934340 0.000000 0.000000 
#    y 0.000000 3.674710 0.000000 
#    z 0.000000 0.000000 3.794840 
# 
# 
# High freq. dielectric constant tensor:
#      x y z
#    x 1.832450 0.000000 0.000000 
#    y 0.000000 1.813410 0.000000 
#    z 0.000000 0.000000 1.815770 
# 
# From -- ./inp_files/52285.got.cif
#   From: 2010.03.12/outbox.cif.g09.slc.cpg/sg65_27_cif.got.tgz:52285.got - 2010.04.10 20:52:16.
