data_PCOD8272610
_publ_section_title
;
Structure prediction by ZEFSAII (Michael W. Deem and Ramdas Pophale) SiO2 
 PCOD8272610
Probable space group: C M M M
;
_chemical_formula_sum "Si O2"
_cell_formula_units_Z 88
_cell_length_a 9.185387
_cell_length_b 31.134079
_cell_length_c 16.868723
_cell_angle_alpha 90.000000
_cell_angle_beta 90.000000
_cell_angle_gamma 90.000000
_cell_volume 4824.093189
_symmetry_space_group_name_H-M "C M M M"
_symmetry_group_IT_number 65
_symmetry_cell_setting 'orthorhombic'
loop_
_space_group_symop_operation_xyz
x,y,z
-x,-y,z
x,-y,-z
-x,y,-z
-x,-y,-z
x,y,-z
-x,y,z
x,-y,z
1/2+x,1/2+y,z
1/2-x,1/2-y,z
1/2+x,1/2-y,-z
1/2-x,1/2+y,-z
1/2-x,1/2-y,-z
1/2+x,1/2+y,-z
1/2-x,1/2+y,z
1/2+x,1/2-y,z
loop_
_atom_site_type_symbol
_atom_site_label
_atom_site_fract_x
_atom_site_fract_y
_atom_site_fract_z
Si Si1 0.668698 0.547782 0.245292
Si Si2 0.837577 0.439689 0.087409
Si Si3 0.329972 0.870191 0.297765
Si Si4 0.829758 0.293069 0.591888
Si Si5 0.339516 0.156858 0.876149
Si Si6 0.830618 0.793715 0.000000
O O1 0.500000 0.560341 0.240639
O O2 0.689499 0.500000 0.283102
O O3 0.728858 0.545084 0.155637
O O4 0.747521 0.583786 0.299833
O O5 0.843355 0.388881 0.082905
O O6 0.000000 0.457117 0.106957
O O7 0.787670 0.456403 0.000000
O O8 0.500000 0.880946 0.307558
O O9 0.275130 0.836647 0.364629
O O10 0.296885 0.846517 0.215554
O O11 0.793221 0.299975 0.500000
O O12 0.750000 0.250000 0.623731
O O13 0.000000 0.286308 0.607866
O O14 0.500000 0.178462 0.885498
O O15 0.214517 0.183055 0.919219
O O16 0.750000 0.750000 0.000000
O O17 0.000000 0.786857 0.000000
#
# Coordination Sequence:
#
# PCOD8272610 Si02
#       6
#    16  16  16  16  16   8
#     4  10  21  34  48  72 105 138 176 223 268 309
#     4   9  17  31  51  70  92 127 168 212 262 315
#     4   9  19  35  56  79 104 139 176 211 256 312
#     4   9  18  34  57  86 116 140 166 206 257 314
#     4   9  17  33  50  66  93 125 164 211 253 297
#     4  12  24  34  46  64  89 126 169 212 260 305
#
# _framework density 18.241771
#
# number of rings (size 3 to 8) (size 9 to 14) (size 15 to 20)
#    0.000    2.545    0.909    2.455    0.000    6.545 
#    0.000    3.636    0.000    0.545    0.000    3.818 
#    0.000    0.000    0.000    0.000    0.000    0.000 
#
# Total GULP energy -545273.912612 kJ/mol
# GULP energy per Si atom -12392.588923 kJ/mol
# Density = 1.820025 g / cm^3
# Si number density = 18.241771 Si / 1000 Ang^3
#
#
#
# Elastic Constant Matrix: (Units=GPa)
#
#
# Indices 1 2 3 4 5 6 
#
# 1 101.3956 64.8204 32.7794 0.0000 0.0000 0.0000
# 2 64.8204 137.3602 55.4198 0.0000 0.0000 0.0000
# 3 32.7794 55.4198 69.4108 0.0000 0.0000 0.0000
# 4 0.0000 0.0000 0.0000 18.1535 0.0000 0.0000
# 5 0.0000 0.0000 0.0000 0.0000 20.3199 0.0000
# 6 0.0000 0.0000 0.0000 0.0000 0.0000 21.9213
#
#
#
# Elastic Compliance Matrix: (Units=1/GPa)
#
#
# Indices 1 2 3 4 5 6 
#
# 1 0.014312 -0.005940 -0.002016 0.000000 0.000000 0.000000
# 2 -0.005940 0.013206 -0.007738 0.000000 0.000000 0.000000
# 3 -0.002016 -0.007738 0.021537 0.000000 0.000000 0.000000
# 4 0.000000 0.000000 0.000000 0.055086 0.000000 0.000000
# 5 0.000000 0.000000 0.000000 0.000000 0.049213 0.000000
# 6 0.000000 0.000000 0.000000 0.000000 0.000000 0.045618
#
#
# Mechanical properties :
#
#
# Convention : Reuss Voigt Hill
#
# Bulk Modulus (GPa) = 56.60687 68.24509 62.42598
# Shear Modulus (GPa) = 21.16418 22.42208 21.79313
#
# Velocity S-wave (km/s) = 3.40987 3.50974 3.46017
# Velocity P-wave (km/s) = 6.82655 7.34282 7.08939
#
# Compressibility (1/GPa) = 0.01766570
#
# Stress axis : x y z
#
# Youngs Moduli (GPa) = 69.87351 75.72576 46.43076
#
# Poissons Ratio (x) = 0.44984 0.09359
# Poissons Ratio (y) = 0.41508 0.35930
# Poissons Ratio (z) = 0.14084 0.58599
#
# Static dielectric constant tensor:
#      x y z
#    x 4.960820 0.000000 0.000000 
#    y 0.000000 3.397060 0.000000 
#    z 0.000000 0.000000 3.211190 
# 
# 
# High freq. dielectric constant tensor:
#      x y z
#    x 1.699820 0.000000 0.000000 
#    y 0.000000 1.713600 0.000000 
#    z 0.000000 0.000000 1.680990 
# 
# From -- ./inp_files/50349.got.cif
#   From: 2010.03.12/outbox.cif.g09.slc.cpg/sg65_26_cif.got.tgz:50349.got - 2010.04.10 20:52:16.
