data_PCOD8272157
_publ_section_title
;
Structure prediction by ZEFSAII (Michael W. Deem and Ramdas Pophale) SiO2 
 PCOD8272157
Probable space group: C M M M
;
_chemical_formula_sum "Si O2"
_cell_formula_units_Z 88
_cell_length_a 8.885489
_cell_length_b 24.905789
_cell_length_c 21.759217
_cell_angle_alpha 90.000000
_cell_angle_beta 90.000000
_cell_angle_gamma 90.000000
_cell_volume 4815.317207
_symmetry_space_group_name_H-M "C M M M"
_symmetry_group_IT_number 65
_symmetry_cell_setting 'orthorhombic'
loop_
_space_group_symop_operation_xyz
x,y,z
-x,-y,z
x,-y,-z
-x,y,-z
-x,-y,-z
x,y,-z
-x,y,z
x,-y,z
1/2+x,1/2+y,z
1/2-x,1/2-y,z
1/2+x,1/2-y,-z
1/2-x,1/2+y,-z
1/2-x,1/2-y,-z
1/2+x,1/2+y,-z
1/2-x,1/2+y,z
1/2+x,1/2-y,z
loop_
_atom_site_type_symbol
_atom_site_label
_atom_site_fract_x
_atom_site_fract_y
_atom_site_fract_z
Si Si1 0.176561 0.195759 0.795887
Si Si2 0.178033 0.082661 0.842239
Si Si3 0.319860 0.500000 0.604512
Si Si4 0.176648 0.500000 0.070937
Si Si5 0.176745 0.000000 0.742129
Si Si6 0.677925 0.695053 0.654815
Si Si7 0.826767 0.391904 0.569169
O O1 0.250000 0.250000 0.822689
O O2 0.228978 0.144744 0.836628
O O3 0.225583 0.185958 0.725542
O O4 0.000000 0.203134 0.800254
O O5 0.256944 0.054424 0.899845
O O6 0.000000 0.077344 0.851512
O O7 0.228052 0.052825 0.779496
O O8 0.500000 0.500000 0.601669
O O9 0.253965 0.500000 0.674224
O O10 0.255664 0.551235 0.569790
O O11 0.000000 0.500000 0.081436
O O12 0.221735 0.500000 0.000000
O O13 0.000000 0.000000 0.734060
O O14 0.500000 0.697599 0.646662
O O15 0.750000 0.750000 0.629925
O O16 0.741780 0.646578 0.615792
O O17 0.815314 0.368770 0.500000
O O18 0.000000 0.397965 0.589366
#
# Coordination Sequence:
#
# PCOD8272157 Si02
#       7
#    16  16   8   8   8  16  16
#     4   9  18  32  52  79 108 136 165 204 252 301
#     4   9  17  32  53  76 104 137 172 204 241 295
#     4  11  21  35  56  77  99 129 165 207 260 317
#     4  10  21  35  51  76 109 140 172 214 256 286
#     4   8  15  29  50  75 100 125 157 204 254 300
#     4  10  20  36  57  79 103 131 166 208 257 310
#     4  11  24  39  52  69  97 132 170 213 259 309
#
# _framework density 18.275015
#
# number of rings (size 3 to 8) (size 9 to 14) (size 15 to 20)
#    0.000    2.273    0.000    3.545    0.000    8.000 
#    0.000    7.273    0.000    0.545    0.000    0.000 
#    0.000    0.000    0.000    0.000    0.000    0.000 
#
# Total GULP energy -545605.541120 kJ/mol
# GULP energy per Si atom -12400.125935 kJ/mol
# Density = 1.823342 g / cm^3
# Si number density = 18.275015 Si / 1000 Ang^3
#
#
#
# Elastic Constant Matrix: (Units=GPa)
#
#
# Indices 1 2 3 4 5 6 
#
# 1 72.9280 46.6052 34.7645 0.0000 0.0000 0.0000
# 2 46.6052 158.2600 48.5228 0.0000 0.0000 0.0000
# 3 34.7645 48.5228 84.1606 0.0000 0.0000 0.0000
# 4 0.0000 0.0000 0.0000 21.1279 0.0000 0.0000
# 5 0.0000 0.0000 0.0000 0.0000 25.5952 0.0000
# 6 0.0000 0.0000 0.0000 0.0000 0.0000 35.4343
#
#
#
# Elastic Compliance Matrix: (Units=1/GPa)
#
#
# Indices 1 2 3 4 5 6 
#
# 1 0.018814 -0.003836 -0.005560 0.000000 0.000000 0.000000
# 2 -0.003836 0.008458 -0.003292 0.000000 0.000000 0.000000
# 3 -0.005560 -0.003292 0.016077 0.000000 0.000000 0.000000
# 4 0.000000 0.000000 0.000000 0.047331 0.000000 0.000000
# 5 0.000000 0.000000 0.000000 0.000000 0.039070 0.000000
# 6 0.000000 0.000000 0.000000 0.000000 0.000000 0.028221
#
#
# Mechanical properties :
#
#
# Convention : Reuss Voigt Hill
#
# Bulk Modulus (GPa) = 55.63896 63.90373 59.77135
# Shear Modulus (GPa) = 26.40812 28.79523 27.60167
#
# Velocity S-wave (km/s) = 3.80549 3.97377 3.89054
# Velocity P-wave (km/s) = 7.05836 7.48987 7.27732
#
# Compressibility (1/GPa) = 0.01797302
#
# Stress axis : x y z
#
# Youngs Moduli (GPa) = 53.15245 118.23781 62.20216
#
# Poissons Ratio (x) = 0.45352 0.34584
# Poissons Ratio (y) = 0.20388 0.20476
# Poissons Ratio (z) = 0.29553 0.38921
#
# Static dielectric constant tensor:
#      x y z
#    x 3.309700 0.000000 0.000000 
#    y 0.000000 3.345060 0.000000 
#    z 0.000000 0.000000 3.261920 
# 
# 
# High freq. dielectric constant tensor:
#      x y z
#    x 1.705090 0.000000 0.000000 
#    y 0.000000 1.716860 0.000000 
#    z 0.000000 0.000000 1.687330 
# 
# From -- ./inp_files/59898.got.cif
#   From: 2010.03.12/outbox.cif.g09.slc.cpg/sg65_30_cif.got.tgz:59898.got - 2010.04.10 20:52:16.
