data_PCOD8272233
_publ_section_title
;
Structure prediction by ZEFSAII (Michael W. Deem and Ramdas Pophale) SiO2 
 PCOD8272233
Probable space group: C M M M
;
_chemical_formula_sum "Si O2"
_cell_formula_units_Z 96
_cell_length_a 23.684913
_cell_length_b 9.132817
_cell_length_c 24.877437
_cell_angle_alpha 90.000000
_cell_angle_beta 90.000000
_cell_angle_gamma 90.000000
_cell_volume 5381.237803
_symmetry_space_group_name_H-M "C M M M"
_symmetry_group_IT_number 65
_symmetry_cell_setting 'orthorhombic'
loop_
_space_group_symop_operation_xyz
x,y,z
-x,-y,z
x,-y,-z
-x,y,-z
-x,-y,-z
x,y,-z
-x,y,z
x,-y,z
1/2+x,1/2+y,z
1/2-x,1/2-y,z
1/2+x,1/2-y,-z
1/2-x,1/2+y,-z
1/2-x,1/2-y,-z
1/2+x,1/2+y,-z
1/2-x,1/2+y,z
1/2+x,1/2-y,z
loop_
_atom_site_type_symbol
_atom_site_label
_atom_site_fract_x
_atom_site_fract_y
_atom_site_fract_z
Si Si1 0.565440 0.830125 0.938554
Si Si2 0.000000 0.836099 0.318380
Si Si3 0.000000 0.327769 0.212566
Si Si4 0.809029 0.169830 0.750985
Si Si5 0.122845 0.833338 0.354357
Si Si6 0.306826 0.829043 0.561688
Si Si7 0.604509 0.671998 0.840831
O O1 0.500000 0.799363 0.923486
O O2 0.607262 0.731970 0.901965
O O3 0.579421 0.000000 0.929325
O O4 0.576851 0.785494 0.000000
O O5 0.000000 0.707854 0.275191
O O6 0.944611 0.817956 0.354524
O O7 0.000000 0.000000 0.291606
O O8 0.055053 0.259007 0.187292
O O9 0.000000 0.500000 0.202378
O O10 0.750000 0.250000 0.745950
O O11 0.850861 0.217741 0.702736
O O12 0.838087 0.206690 0.808303
O O13 0.795667 0.000000 0.746799
O O14 0.142487 0.728451 0.402009
O O15 0.141021 0.000000 0.366689
O O16 0.320798 0.790977 0.500000
O O17 0.250000 0.750000 0.580947
O O18 0.298480 0.000000 0.570759
O O19 0.591396 0.500000 0.840438
#
# Coordination Sequence:
#
# PCOD8272233 Si02
#       7
#    16   8   8  16  16  16  16
#     4   9  18  32  50  77 111 140 172 218 268 317
#     4  10  20  38  57  78 113 147 176 215 264 320
#     4  12  22  32  51  80 109 144 182 215 262 321
#     4  10  22  37  54  78 108 140 175 221 269 314
#     4  10  20  36  58  82 110 143 177 219 269 320
#     4  10  21  37  57  81 109 142 183 230 274 316
#     4  11  21  35  54  77 109 144 179 221 265 316
#
# _framework density 17.839759999999998
#
# number of rings (size 3 to 8) (size 9 to 14) (size 15 to 20)
#    0.000    1.833    2.500    2.750    0.000    5.333 
#    0.000    1.250    0.000    3.000    0.000    0.000 
#    0.000    0.000    0.000    0.000    0.000    0.000 
#
# Total GULP energy -595240.345130 kJ/mol
# GULP energy per Si atom -12400.840524 kJ/mol
# Density = 1.779916 g / cm^3
# Si number density = 17.839760 Si / 1000 Ang^3
#
#
#
# Elastic Constant Matrix: (Units=GPa)
#
#
# Indices 1 2 3 4 5 6 
#
# 1 115.3448 50.8442 52.3155 0.0000 0.0000 0.0000
# 2 50.8442 85.1673 51.2625 0.0000 0.0000 0.0000
# 3 52.3155 51.2625 100.4325 0.0000 0.0000 0.0000
# 4 0.0000 0.0000 0.0000 36.1139 0.0000 0.0000
# 5 0.0000 0.0000 0.0000 0.0000 44.5086 0.0000
# 6 0.0000 0.0000 0.0000 0.0000 0.0000 22.5255
#
#
#
# Elastic Compliance Matrix: (Units=1/GPa)
#
#
# Indices 1 2 3 4 5 6 
#
# 1 0.012785 -0.005231 -0.003990 0.000000 0.000000 0.000000
# 2 -0.005231 0.019089 -0.007018 0.000000 0.000000 0.000000
# 3 -0.003990 -0.007018 0.015618 0.000000 0.000000 0.000000
# 4 0.000000 0.000000 0.000000 0.027690 0.000000 0.000000
# 5 0.000000 0.000000 0.000000 0.000000 0.022468 0.000000
# 6 0.000000 0.000000 0.000000 0.000000 0.000000 0.044394
#
#
# Mechanical properties :
#
#
# Convention : Reuss Voigt Hill
#
# Bulk Modulus (GPa) = 66.60900 67.75434 67.18167
# Shear Modulus (GPa) = 27.85104 30.39776 29.12440
#
# Velocity S-wave (km/s) = 3.95546 4.13235 4.04487
# Velocity P-wave (km/s) = 7.63409 7.79938 7.71718
#
# Compressibility (1/GPa) = 0.01501299
#
# Stress axis : x y z
#
# Youngs Moduli (GPa) = 78.21580 52.38621 64.03064
#
# Poissons Ratio (x) = 0.27404 0.25546
# Poissons Ratio (y) = 0.40916 0.44939
# Poissons Ratio (z) = 0.31206 0.36767
#
# Static dielectric constant tensor:
#      x y z
#    x 1.325430 0.000000 0.000000 
#    y 0.000000 3.386900 0.000000 
#    z 0.000000 0.000000 3.441270 
# 
# 
# High freq. dielectric constant tensor:
#      x y z
#    x 1.672290 0.000000 0.000000 
#    y 0.000000 1.693620 0.000000 
#    z 0.000000 0.000000 1.691750 
# 
# From -- ./inp_files/71424.got.cif
#   From: 2010.03.12/outbox.cif.g09.slc.cpg/sg65_36_cif.got.tgz:71424.got - 2010.04.10 20:52:16.
