data_PCOD8272426
_publ_section_title
;
Structure prediction by ZEFSAII (Michael W. Deem and Ramdas Pophale) SiO2 
 PCOD8272426
Probable space group: C M M M
;
_chemical_formula_sum "Si O2"
_cell_formula_units_Z 72
_cell_length_a 17.754689
_cell_length_b 14.107487
_cell_length_c 13.890928
_cell_angle_alpha 90.000000
_cell_angle_beta 90.000000
_cell_angle_gamma 90.000000
_cell_volume 3479.316915
_symmetry_space_group_name_H-M "C M M M"
_symmetry_group_IT_number 65
_symmetry_cell_setting 'orthorhombic'
loop_
_space_group_symop_operation_xyz
x,y,z
-x,-y,z
x,-y,-z
-x,y,-z
-x,-y,-z
x,y,-z
-x,y,z
x,-y,z
1/2+x,1/2+y,z
1/2-x,1/2-y,z
1/2+x,1/2-y,-z
1/2-x,1/2+y,-z
1/2-x,1/2-y,-z
1/2+x,1/2+y,-z
1/2-x,1/2+y,z
1/2+x,1/2-y,z
loop_
_atom_site_type_symbol
_atom_site_label
_atom_site_fract_x
_atom_site_fract_y
_atom_site_fract_z
Si Si1 0.646781 0.887785 0.716736
Si Si2 0.000000 0.612918 0.607243
Si Si3 0.587075 0.389361 0.764779
Si Si4 0.838763 0.738678 0.892208
Si Si5 0.705495 0.387473 0.608025
O O1 0.573998 0.849571 0.660746
O O2 0.640529 0.849558 0.824851
O O3 0.719875 0.846935 0.660846
O O4 0.649809 0.000000 0.722950
O O5 0.000000 0.500000 0.604773
O O6 0.000000 0.654692 0.500000
O O7 0.500000 0.364390 0.747751
O O8 0.599082 0.500000 0.786454
O O9 0.620444 0.334118 0.855996
O O10 0.632060 0.357299 0.668897
O O11 0.750000 0.750000 0.891758
O O12 0.867999 0.717549 0.000000
O O13 0.699561 0.345389 0.500000
O O14 0.712049 0.500000 0.602460
#
# Coordination Sequence:
#
# PCOD8272426 Si02
#       5
#    16   8  16  16  16
#     4  10  20  37  60  87 122 158 195 243 298 363
#     4   9  18  34  59  89 120 157 195 233 287 357
#     4  10  22  41  63  88 122 160 202 252 299 354
#     4  11  24  41  62  86 115 153 199 253 306 355
#     4   9  17  33  60  89 118 157 198 240 297 360
#
# _framework density 20.693716999999999
#
# number of rings (size 3 to 8) (size 9 to 14) (size 15 to 20)
#    0.000    2.111    2.222    0.667    1.556    4.444 
#    0.000    8.889    0.000    2.000    0.000    0.000 
#    0.000    0.000    0.000    0.000    0.000    0.000 
#
# Total GULP energy -446476.769850 kJ/mol
# GULP energy per Si atom -12402.132496 kJ/mol
# Density = 2.064662 g / cm^3
# Si number density = 20.693717 Si / 1000 Ang^3
#
#
#
# Elastic Constant Matrix: (Units=GPa)
#
#
# Indices 1 2 3 4 5 6 
#
# 1 176.2255 41.1693 91.1697 0.0000 0.0000 0.0000
# 2 41.1693 30.8091 41.9479 0.0000 0.0000 0.0000
# 3 91.1697 41.9479 217.4642 0.0000 0.0000 0.0000
# 4 0.0000 0.0000 0.0000 26.5610 0.0000 0.0000
# 5 0.0000 0.0000 0.0000 0.0000 8.0392 0.0000
# 6 0.0000 0.0000 0.0000 0.0000 0.0000 25.7441
#
#
#
# Elastic Compliance Matrix: (Units=1/GPa)
#
#
# Indices 1 2 3 4 5 6 
#
# 1 0.008809 -0.009144 -0.001929 0.000000 0.000000 0.000000
# 2 -0.009144 0.053512 -0.006488 0.000000 0.000000 0.000000
# 3 -0.001929 -0.006488 0.006659 0.000000 0.000000 0.000000
# 4 0.000000 0.000000 0.000000 0.037649 0.000000 0.000000
# 5 0.000000 0.000000 0.000000 0.000000 0.124391 0.000000
# 6 0.000000 0.000000 0.000000 0.000000 0.000000 0.038844
#
#
# Mechanical properties :
#
#
# Convention : Reuss Voigt Hill
#
# Bulk Modulus (GPa) = 29.53744 85.89694 57.71719
# Shear Modulus (GPa) = 15.80915 28.74965 22.27940
#
# Velocity S-wave (km/s) = 2.76698 3.73137 3.28476
# Velocity P-wave (km/s) = 4.95105 7.75648 6.50676
#
# Compressibility (1/GPa) = 0.03385534
#
# Stress axis : x y z
#
# Youngs Moduli (GPa) = 113.52201 18.68751 150.17705
#
# Poissons Ratio (x) = 0.17089 0.28971
# Poissons Ratio (y) = 1.03810 0.97441
# Poissons Ratio (z) = 0.21900 0.12125
#
# Static dielectric constant tensor:
#      x y z
#    x 3.938940 0.000000 0.000000 
#    y 0.000000 3.501990 0.000000 
#    z 0.000000 0.000000 3.960930 
# 
# 
# High freq. dielectric constant tensor:
#      x y z
#    x 1.818270 0.000000 0.000000 
#    y 0.000000 1.803770 0.000000 
#    z 0.000000 0.000000 1.807130 
# 
# From -- ./inp_files/39782.got.cif
#   From: 2010.03.12/outbox.cif.g09.slc.cpg/sg65_20_cif.got.tgz:39782.got - 2010.04.10 20:52:16.
