data_PCOD8272765
_publ_section_title
;
Structure prediction by ZEFSAII (Michael W. Deem and Ramdas Pophale) SiO2 
 PCOD8272765
Probable space group: C M M M
;
_chemical_formula_sum "Si O2"
_cell_formula_units_Z 64
_cell_length_a 18.197417
_cell_length_b 8.874254
_cell_length_c 20.666943
_cell_angle_alpha 90.000000
_cell_angle_beta 90.000000
_cell_angle_gamma 90.000000
_cell_volume 3337.473637
_symmetry_space_group_name_H-M "C M M M"
_symmetry_group_IT_number 65
_symmetry_cell_setting 'orthorhombic'
loop_
_space_group_symop_operation_xyz
x,y,z
-x,-y,z
x,-y,-z
-x,y,-z
-x,-y,-z
x,y,-z
-x,y,z
x,-y,z
1/2+x,1/2+y,z
1/2-x,1/2-y,z
1/2+x,1/2-y,-z
1/2-x,1/2+y,-z
1/2-x,1/2-y,-z
1/2+x,1/2+y,-z
1/2-x,1/2+y,z
1/2+x,1/2-y,z
loop_
_atom_site_type_symbol
_atom_site_label
_atom_site_fract_x
_atom_site_fract_y
_atom_site_fract_z
Si Si1 0.170217 0.320858 0.382478
Si Si2 0.916526 0.677312 0.255881
Si Si3 0.086923 0.174435 0.500000
Si Si4 0.170985 0.179081 0.000000
Si Si5 0.583783 0.677528 0.124728
O O1 0.175255 0.500000 0.389330
O O2 0.250000 0.250000 0.389679
O O3 0.135382 0.270583 0.314309
O O4 0.117775 0.256624 0.437302
O O5 0.914757 0.500000 0.247368
O O6 0.884577 0.750289 0.190417
O O7 0.000000 0.733360 0.269113
O O8 0.000000 0.192562 0.500000
O O9 0.111031 0.000000 0.500000
O O10 0.250000 0.250000 0.000000
O O11 0.129109 0.238221 0.936403
O O12 0.175627 0.000000 0.000000
O O13 0.500000 0.728477 0.114123
O O14 0.590744 0.500000 0.131204
#
# Coordination Sequence:
#
# PCOD8272765 Si02
#       5
#    16  16   8   8  16
#     4  11  23  39  59  83 115 151 185 224 273 327
#     4   9  19  36  57  81 108 140 180 224 270 322
#     4  11  24  41  62  87 113 143 184 231 274 323
#     4  10  21  35  51  75 107 140 176 218 268 324
#     4   9  18  34  56  78 102 137 180 224 267 315
#
# _framework density 19.176181
#
# number of rings (size 3 to 8) (size 9 to 14) (size 15 to 20)
#    0.000    2.125    0.000    2.625    0.000    7.500 
#    0.000    7.500    0.000    3.750    0.000    0.000 
#    0.000    0.000    0.000    0.000    0.000    0.000 
#
# Total GULP energy -396893.813171 kJ/mol
# GULP energy per Si atom -12402.931662 kJ/mol
# Density = 1.913254 g / cm^3
# Si number density = 19.176181 Si / 1000 Ang^3
#
#
#
# Elastic Constant Matrix: (Units=GPa)
#
#
# Indices 1 2 3 4 5 6 
#
# 1 99.1881 37.0560 74.3246 0.0000 0.0000 0.0000
# 2 37.0560 53.6544 54.7934 0.0000 0.0000 0.0000
# 3 74.3246 54.7934 184.5816 0.0000 0.0000 0.0000
# 4 0.0000 0.0000 0.0000 40.9307 0.0000 0.0000
# 5 0.0000 0.0000 0.0000 0.0000 8.9009 0.0000
# 6 0.0000 0.0000 0.0000 0.0000 0.0000 27.9093
#
#
#
# Elastic Compliance Matrix: (Units=1/GPa)
#
#
# Indices 1 2 3 4 5 6 
#
# 1 0.015811 -0.006340 -0.004484 0.000000 0.000000 0.000000
# 2 -0.006340 0.029288 -0.006141 0.000000 0.000000 0.000000
# 3 -0.004484 -0.006141 0.009046 0.000000 0.000000 0.000000
# 4 0.000000 0.000000 0.000000 0.024432 0.000000 0.000000
# 5 0.000000 0.000000 0.000000 0.000000 0.112348 0.000000
# 6 0.000000 0.000000 0.000000 0.000000 0.000000 0.035830
#
#
# Mechanical properties :
#
#
# Convention : Reuss Voigt Hill
#
# Bulk Modulus (GPa) = 49.47092 74.41913 61.94503
# Shear Modulus (GPa) = 18.69687 26.96486 22.83086
#
# Velocity S-wave (km/s) = 3.12589 3.75395 3.45423
# Velocity P-wave (km/s) = 6.23558 7.59486 6.94854
#
# Compressibility (1/GPa) = 0.02021390
#
# Stress axis : x y z
#
# Youngs Moduli (GPa) = 63.24827 34.14347 110.54055
#
# Poissons Ratio (x) = 0.21647 0.49571
# Poissons Ratio (y) = 0.40099 0.67887
# Poissons Ratio (z) = 0.28363 0.20969
#
# Static dielectric constant tensor:
#      x y z
#    x 3.522380 0.000000 0.000000 
#    y 0.000000 3.469140 0.000000 
#    z 0.000000 0.000000 3.834810 
# 
# 
# High freq. dielectric constant tensor:
#      x y z
#    x 1.746070 0.000000 0.000000 
#    y 0.000000 1.741630 0.000000 
#    z 0.000000 0.000000 1.764330 
# 
# From -- ./inp_files/58778.got.cif
#   From: 2010.03.12/outbox.cif.g09.slc.cpg/sg65_30_cif.got.tgz:58778.got - 2010.04.10 20:52:16.
