data_PCOD8272686
_publ_section_title
;
Structure prediction by ZEFSAII (Michael W. Deem and Ramdas Pophale) SiO2 
 PCOD8272686
Probable space group: C M M M
;
_chemical_formula_sum "Si O2"
_cell_formula_units_Z 80
_cell_length_a 7.905281
_cell_length_b 20.361697
_cell_length_c 29.052514
_cell_angle_alpha 90.000000
_cell_angle_beta 90.000000
_cell_angle_gamma 90.000000
_cell_volume 4676.436069
_symmetry_space_group_name_H-M "C M M M"
_symmetry_group_IT_number 65
_symmetry_cell_setting 'orthorhombic'
loop_
_space_group_symop_operation_xyz
x,y,z
-x,-y,z
x,-y,-z
-x,y,-z
-x,-y,-z
x,y,-z
-x,y,z
x,-y,z
1/2+x,1/2+y,z
1/2-x,1/2-y,z
1/2+x,1/2-y,-z
1/2-x,1/2+y,-z
1/2-x,1/2-y,-z
1/2+x,1/2+y,-z
1/2-x,1/2+y,z
1/2+x,1/2-y,z
loop_
_atom_site_type_symbol
_atom_site_label
_atom_site_fract_x
_atom_site_fract_y
_atom_site_fract_z
Si Si1 0.197463 0.071807 0.123493
Si Si2 0.000000 0.421606 0.714966
Si Si3 0.187777 0.921936 0.551809
Si Si4 0.189750 0.921917 0.775111
Si Si5 0.302275 0.820632 0.051217
Si Si6 0.000000 0.421560 0.610847
O O1 0.254434 0.098501 0.173688
O O2 0.239590 0.122071 0.083671
O O3 0.000000 0.061707 0.126239
O O4 0.280586 0.000000 0.112999
O O5 0.170748 0.394330 0.739379
O O6 0.000000 0.500000 0.716711
O O7 0.000000 0.395220 0.662891
O O8 0.223893 0.896764 0.500000
O O9 0.332034 0.893631 0.585611
O O10 0.000000 0.898585 0.567898
O O11 0.194511 0.000000 0.552346
O O12 0.000000 0.893916 0.764147
O O13 0.181478 0.000000 0.772467
O O14 0.500000 0.825217 0.047844
O O15 0.250000 0.750000 0.071868
O O16 0.222183 0.829221 0.000000
O O17 0.000000 0.500000 0.609789
#
# Coordination Sequence:
#
# PCOD8272686 Si02
#       6
#    16   8  16  16  16   8
#     4   9  18  32  50  70  90 116 149 183 220 265
#     4   9  16  23  34  51  71  98 125 160 214 261
#     4   8  13  20  28  37  52  78 113 155 202 248
#     4   8  15  27  40  56  78 102 131 167 207 254
#     4  10  21  35  50  69  94 122 148 178 220 269
#     4   9  15  20  27  42  60  81 114 153 201 258
#
# _framework density 17.107043999999998
#
# number of rings (size 3 to 8) (size 9 to 14) (size 15 to 20)
#    0.000    3.200    0.000    2.700    1.400    4.000 
#    0.000    6.000    0.000    0.000    0.000    0.000 
#    0.000    0.000    0.000    0.000    0.000    0.000 
#
# Total GULP energy -495615.155804 kJ/mol
# GULP energy per Si atom -12390.378895 kJ/mol
# Density = 1.706811 g / cm^3
# Si number density = 17.107044 Si / 1000 Ang^3
#
#
#
# Elastic Constant Matrix: (Units=GPa)
#
#
# Indices 1 2 3 4 5 6 
#
# 1 87.0975 16.8841 66.9226 0.0000 0.0000 0.0000
# 2 16.8841 37.6920 38.0174 0.0000 0.0000 0.0000
# 3 66.9226 38.0174 136.6094 0.0000 0.0000 0.0000
# 4 0.0000 0.0000 0.0000 -1.7868 0.0000 0.0000
# 5 0.0000 0.0000 0.0000 0.0000 26.9016 0.0000
# 6 0.0000 0.0000 0.0000 0.0000 0.0000 11.9588
#
#
#
# Elastic Compliance Matrix: (Units=1/GPa)
#
#
# Indices 1 2 3 4 5 6 
#
# 1 0.018450 0.001184 -0.009368 0.000000 0.000000 0.000000
# 2 0.001184 0.036960 -0.010866 0.000000 0.000000 0.000000
# 3 -0.009368 -0.010866 0.014933 0.000000 0.000000 0.000000
# 4 0.000000 0.000000 0.000000 -0.559672 0.000000 0.000000
# 5 0.000000 0.000000 0.000000 0.000000 0.037172 0.000000
# 6 0.000000 0.000000 0.000000 0.000000 0.000000 0.083621
#
#
# Mechanical properties :
#
#
# Convention : Reuss Voigt Hill
#
# Bulk Modulus (GPa) = 31.01356 56.11636 43.56496
# Shear Modulus (GPa) = -15.64015 16.71971 0.53978
#
# Velocity S-wave (km/s) = -3.02694 3.12966 0.56233
# Velocity P-wave (km/s) = 2.43967 6.77746 5.09343
#
# Compressibility (1/GPa) = 0.03224396
#
# Stress axis : x y z
#
# Youngs Moduli (GPa) = 54.20165 27.05623 66.96554
#
# Poissons Ratio (x) = -0.03204 0.62731
# Poissons Ratio (y) = -0.06418 0.72763
# Poissons Ratio (z) = 0.50774 0.29399
#
# Static dielectric constant tensor:
#      x y z
#    x 3.529620 0.000000 0.000000 
#    y 0.000000 2.505350 0.000000 
#    z 0.000000 0.000000 7.032740 
# 
# 
# High freq. dielectric constant tensor:
#      x y z
#    x 1.675370 0.000000 0.000000 
#    y 0.000000 1.577090 0.000000 
#    z 0.000000 0.000000 1.661260 
# 
# From -- ./inp_files/71336.got.cif
#   From: 2010.03.12/outbox.cif.g09.slc.cpg/sg65_36_cif.got.tgz:71336.got - 2010.04.10 20:52:16.
