data_PCOD8272766
_publ_section_title
;
Structure prediction by ZEFSAII (Michael W. Deem and Ramdas Pophale) SiO2 
 PCOD8272766
Probable space group: C M M M
;
_chemical_formula_sum "Si O2"
_cell_formula_units_Z 72
_cell_length_a 26.842558
_cell_length_b 9.085202
_cell_length_c 15.731916
_cell_angle_alpha 90.000000
_cell_angle_beta 90.000000
_cell_angle_gamma 90.000000
_cell_volume 3836.543324
_symmetry_space_group_name_H-M "C M M M"
_symmetry_group_IT_number 65
_symmetry_cell_setting 'orthorhombic'
loop_
_space_group_symop_operation_xyz
x,y,z
-x,-y,z
x,-y,-z
-x,y,-z
-x,-y,-z
x,y,-z
-x,y,z
x,-y,z
1/2+x,1/2+y,z
1/2-x,1/2-y,z
1/2+x,1/2-y,-z
1/2-x,1/2+y,-z
1/2-x,1/2-y,-z
1/2+x,1/2+y,-z
1/2-x,1/2+y,z
1/2+x,1/2-y,z
loop_
_atom_site_type_symbol
_atom_site_label
_atom_site_fract_x
_atom_site_fract_y
_atom_site_fract_z
Si Si1 0.351893 0.330633 0.596930
Si Si2 0.799547 0.671655 0.746215
Si Si3 0.399592 0.832186 0.158555
Si Si4 0.943544 0.826210 0.000000
Si Si5 0.943358 0.669699 0.337548
O O1 0.334393 0.312497 0.500000
O O2 0.350741 0.500000 0.625773
O O3 0.314414 0.238334 0.655115
O O4 0.408280 0.271693 0.605551
O O5 0.789472 0.500000 0.732749
O O6 0.750000 0.750000 0.780923
O O7 0.842620 0.699741 0.815132
O O8 0.414214 0.726128 0.082666
O O9 0.435379 0.797716 0.237950
O O10 0.406037 0.000000 0.128210
O O11 0.000000 0.763693 0.000000
O O12 0.943989 0.000000 0.000000
O O13 0.929592 0.500000 0.356160
O O14 0.000000 0.705255 0.362254
#
# Coordination Sequence:
#
# PCOD8272766 Si02
#       5
#    16  16  16   8  16
#     4  10  21  35  51  75 107 141 178 220 265 314
#     4  10  21  38  60  82 104 135 175 218 267 318
#     4   9  19  36  56  78 105 138 176 215 257 311
#     4  11  23  35  52  83 116 143 174 213 256 301
#     4   9  18  33  53  76 103 139 181 222 267 317
#
# _framework density 18.766891999999999
#
# number of rings (size 3 to 8) (size 9 to 14) (size 15 to 20)
#    0.000    2.333    0.000    3.667    0.000    9.333 
#    0.000    2.778    0.000    0.000    0.000    0.000 
#    0.000    0.000    0.000    0.000    0.000    0.000 
#
# Total GULP energy -446508.359537 kJ/mol
# GULP energy per Si atom -12403.009987 kJ/mol
# Density = 1.872418 g / cm^3
# Si number density = 18.766892 Si / 1000 Ang^3
#
#
#
# Elastic Constant Matrix: (Units=GPa)
#
#
# Indices 1 2 3 4 5 6 
#
# 1 96.4243 49.9104 29.8900 0.0000 0.0000 0.0000
# 2 49.9104 107.4738 46.9172 0.0000 0.0000 0.0000
# 3 29.8900 46.9172 76.0466 0.0000 0.0000 0.0000
# 4 0.0000 0.0000 0.0000 32.5219 0.0000 0.0000
# 5 0.0000 0.0000 0.0000 0.0000 14.3094 0.0000
# 6 0.0000 0.0000 0.0000 0.0000 0.0000 35.1582
#
#
#
# Elastic Compliance Matrix: (Units=1/GPa)
#
#
# Indices 1 2 3 4 5 6 
#
# 1 0.013876 -0.005561 -0.002023 0.000000 0.000000 0.000000
# 2 -0.005561 0.014963 -0.007046 0.000000 0.000000 0.000000
# 3 -0.002023 -0.007046 0.018292 0.000000 0.000000 0.000000
# 4 0.000000 0.000000 0.000000 0.030749 0.000000 0.000000
# 5 0.000000 0.000000 0.000000 0.000000 0.069884 0.000000
# 6 0.000000 0.000000 0.000000 0.000000 0.000000 0.028443
#
#
# Mechanical properties :
#
#
# Convention : Reuss Voigt Hill
#
# Bulk Modulus (GPa) = 55.95512 59.26443 57.60977
# Shear Modulus (GPa) = 23.64921 26.61303 25.13112
#
# Velocity S-wave (km/s) = 3.55372 3.76983 3.66337
# Velocity P-wave (km/s) = 6.83514 7.11313 6.97552
#
# Compressibility (1/GPa) = 0.01787147
#
# Stress axis : x y z
#
# Youngs Moduli (GPa) = 72.06478 66.83248 54.66898
#
# Poissons Ratio (x) = 0.37165 0.11061
# Poissons Ratio (y) = 0.40074 0.38518
# Poissons Ratio (z) = 0.14581 0.47088
#
# Static dielectric constant tensor:
#      x y z
#    x 3.568670 0.000000 0.000000 
#    y 0.000000 3.473060 0.000000 
#    z 0.000000 0.000000 3.220540 
# 
# 
# High freq. dielectric constant tensor:
#      x y z
#    x 1.732760 0.000000 0.000000 
#    y 0.000000 1.734280 0.000000 
#    z 0.000000 0.000000 1.714770 
# 
# From -- ./inp_files/36531.got.cif
#   From: 2010.03.12/outbox.cif.g09.slc.cpg/sg65_19_cif.got.tgz:36531.got - 2010.04.10 20:52:16.
