data_PCOD8272488
_publ_section_title
;
Structure prediction by ZEFSAII (Michael W. Deem and Ramdas Pophale) SiO2 
 PCOD8272488
Probable space group: C M M M
;
_chemical_formula_sum "Si O2"
_cell_formula_units_Z 104
_cell_length_a 27.365967
_cell_length_b 21.605083
_cell_length_c 8.877857
_cell_angle_alpha 90.000000
_cell_angle_beta 90.000000
_cell_angle_gamma 90.000000
_cell_volume 5248.979581
_symmetry_space_group_name_H-M "C M M M"
_symmetry_group_IT_number 65
_symmetry_cell_setting 'orthorhombic'
loop_
_space_group_symop_operation_xyz
x,y,z
-x,-y,z
x,-y,-z
-x,y,-z
-x,-y,-z
x,y,-z
-x,y,z
x,-y,z
1/2+x,1/2+y,z
1/2-x,1/2-y,z
1/2+x,1/2-y,-z
1/2-x,1/2+y,-z
1/2-x,1/2-y,-z
1/2+x,1/2+y,-z
1/2-x,1/2+y,z
1/2+x,1/2-y,z
loop_
_atom_site_type_symbol
_atom_site_label
_atom_site_fract_x
_atom_site_fract_y
_atom_site_fract_z
Si Si1 0.056603 0.870245 0.324731
Si Si2 0.292721 0.500000 0.678721
Si Si3 0.231030 0.874750 0.823797
Si Si4 0.000000 0.573558 0.169427
Si Si5 0.096747 0.000000 0.321747
Si Si6 0.597571 0.929887 0.676303
Si Si7 0.137822 0.793405 0.823963
Si Si8 0.175028 0.671801 0.677137
O O1 0.071285 0.863951 0.500000
O O2 0.068539 0.939225 0.264160
O O3 0.086155 0.821112 0.226361
O O4 0.000000 0.856218 0.299256
O O5 0.290132 0.500000 0.500000
O O6 0.264898 0.560100 0.738908
O O7 0.348081 0.500000 0.741349
O O8 0.179707 0.842917 0.784768
O O9 0.273733 0.830249 0.764297
O O10 0.237442 0.885727 0.000000
O O11 0.048941 0.598668 0.248426
O O12 0.000000 0.500000 0.180164
O O13 0.000000 0.598219 0.000000
O O14 0.097715 0.000000 0.500000
O O15 0.587993 0.928114 0.500000
O O16 0.643756 0.888563 0.722053
O O17 0.608062 0.000000 0.731864
O O18 0.145753 0.731799 0.728803
O O19 0.137159 0.777212 0.000000
O O20 0.185019 0.675030 0.500000
#
# Coordination Sequence:
#
# PCOD8272488 Si02
#       8
#    16   8  16   8   8  16  16  16
#     4  10  20  37  63  93 124 160 207 260 309 361
#     4  11  21  36  63  93 122 161 207 255 304 361
#     4  11  24  41  61  88 123 161 199 246 307 364
#     4   9  17  31  55  85 113 145 183 222 273 342
#     4   9  17  33  60  93 125 157 200 256 310 355
#     4   9  19  37  59  84 114 146 184 237 294 346
#     4  11  24  42  61  83 121 164 203 247 301 366
#     4  11  24  40  63  91 117 154 203 250 299 360
#
# _framework density 19.813374
#
# number of rings (size 3 to 8) (size 9 to 14) (size 15 to 20)
#    0.000    1.769    1.538    2.538    1.077    7.077 
#    1.385    0.385    0.000    0.923    0.000    0.000 
#    0.000    0.000    0.000    0.000    0.000    0.000 
#
# Total GULP energy -645071.789339 kJ/mol
# GULP energy per Si atom -12405.226718 kJ/mol
# Density = 1.976828 g / cm^3
# Si number density = 19.813374 Si / 1000 Ang^3
#
#
#
# Elastic Constant Matrix: (Units=GPa)
#
#
# Indices 1 2 3 4 5 6 
#
# 1 105.3937 36.3167 41.5255 0.0000 0.0000 0.0000
# 2 36.3167 100.7052 36.2098 0.0000 0.0000 0.0000
# 3 41.5255 36.2098 70.6928 0.0000 0.0000 0.0000
# 4 0.0000 0.0000 0.0000 25.8265 0.0000 0.0000
# 5 0.0000 0.0000 0.0000 0.0000 28.4933 0.0000
# 6 0.0000 0.0000 0.0000 0.0000 0.0000 22.4167
#
#
#
# Elastic Compliance Matrix: (Units=1/GPa)
#
#
# Indices 1 2 3 4 5 6 
#
# 1 0.012780 -0.002341 -0.006308 0.000000 0.000000 0.000000
# 2 -0.002341 0.012600 -0.005079 0.000000 0.000000 0.000000
# 3 -0.006308 -0.005079 0.020453 0.000000 0.000000 0.000000
# 4 0.000000 0.000000 0.000000 0.038720 0.000000 0.000000
# 5 0.000000 0.000000 0.000000 0.000000 0.035096 0.000000
# 6 0.000000 0.000000 0.000000 0.000000 0.000000 0.044610
#
#
# Mechanical properties :
#
#
# Convention : Reuss Voigt Hill
#
# Bulk Modulus (GPa) = 54.41505 56.09949 55.25727
# Shear Modulus (GPa) = 25.27285 26.19664 25.73474
#
# Velocity S-wave (km/s) = 3.57535 3.64011 3.60788
# Velocity P-wave (km/s) = 6.67590 6.78547 6.73091
#
# Compressibility (1/GPa) = 0.01837727
#
# Stress axis : x y z
#
# Youngs Moduli (GPa) = 78.24558 79.36303 48.89290
#
# Poissons Ratio (x) = 0.18576 0.30843
# Poissons Ratio (y) = 0.18314 0.24833
# Poissons Ratio (z) = 0.49360 0.40310
#
# Static dielectric constant tensor:
#      x y z
#    x 3.638760 0.000000 0.000000 
#    y 0.000000 3.605380 0.000000 
#    z 0.000000 0.000000 3.493140 
# 
# 
# High freq. dielectric constant tensor:
#      x y z
#    x 1.779100 0.000000 0.000000 
#    y 0.000000 1.769160 0.000000 
#    z 0.000000 0.000000 1.766570 
# 
# From -- ./inp_files/16547.got.cif
#   From: 2010.03.12/outbox.cif.g09.slc.cpg/sg65_9_cif.got.tgz:16547.got - 2010.04.10 20:52:16.
