data_PCOD8272743
_publ_section_title
;
Structure prediction by ZEFSAII (Michael W. Deem and Ramdas Pophale) SiO2 
 PCOD8272743
Probable space group: C M M M
;
_chemical_formula_sum "Si O2"
_cell_formula_units_Z 104
_cell_length_a 18.686107
_cell_length_b 9.347922
_cell_length_c 33.385381
_cell_angle_alpha 90.000000
_cell_angle_beta 90.000000
_cell_angle_gamma 90.000000
_cell_volume 5831.633850
_symmetry_space_group_name_H-M "C M M M"
_symmetry_group_IT_number 65
_symmetry_cell_setting 'orthorhombic'
loop_
_space_group_symop_operation_xyz
x,y,z
-x,-y,z
x,-y,-z
-x,y,-z
-x,-y,-z
x,y,-z
-x,y,z
x,-y,z
1/2+x,1/2+y,z
1/2-x,1/2-y,z
1/2+x,1/2-y,-z
1/2-x,1/2+y,-z
1/2-x,1/2-y,-z
1/2+x,1/2+y,-z
1/2-x,1/2+y,z
1/2+x,1/2-y,z
loop_
_atom_site_type_symbol
_atom_site_label
_atom_site_fract_x
_atom_site_fract_y
_atom_site_fract_z
Si Si1 0.917320 0.333561 0.270515
Si Si2 0.820708 0.666365 0.044924
Si Si3 0.324171 0.832413 0.653194
Si Si4 0.082796 0.333655 0.423165
Si Si5 0.914841 0.161717 0.806517
Si Si6 0.914989 0.838563 0.500000
Si Si7 0.916893 0.664914 0.882125
O O1 0.908573 0.500000 0.260097
O O2 0.870142 0.287526 0.308278
O O3 0.887835 0.243685 0.232939
O O4 0.000000 0.297668 0.280182
O O5 0.802730 0.500000 0.047969
O O6 0.750000 0.750000 0.057003
O O7 0.881767 0.711581 0.076048
O O8 0.846527 0.706779 0.000000
O O9 0.250000 0.750000 0.653089
O O10 0.370415 0.787704 0.614753
O O11 0.307802 0.000000 0.653209
O O12 0.091915 0.500000 0.433664
O O13 0.112582 0.243107 0.460587
O O14 0.000000 0.298413 0.413668
O O15 0.884607 0.240825 0.845949
O O16 0.000000 0.165966 0.807491
O O17 0.885489 0.000000 0.805743
O O18 0.000000 0.837303 0.500000
O O19 0.884687 0.000000 0.500000
O O20 0.901671 0.500000 0.871685
O O21 0.000000 0.695333 0.887673
#
# Coordination Sequence:
#
# PCOD8272743 Si02
#       7
#    16  16  16  16  16   8  16
#     4   9  17  32  54  75  95 124 163 201 236 281
#     4   9  18  32  49  69  94 125 160 197 237 282
#     4  10  21  35  51  73 101 131 162 199 243 288
#     4   9  17  32  54  76  98 128 166 202 237 283
#     4   9  17  29  47  73 101 125 153 194 242 287
#     4   9  17  29  48  77 106 127 155 201 250 287
#     4   9  17  30  49  72  97 125 157 194 237 284
#
# _framework density 17.833767999999999
#
# number of rings (size 3 to 8) (size 9 to 14) (size 15 to 20)
#    0.000    2.846    0.000    1.154    0.000    6.769 
#    0.000    2.692    0.000    4.615    0.000    4.308 
#    0.000    0.000    0.000    0.000    0.000    0.000 
#
# Total GULP energy -644806.026350 kJ/mol
# GULP energy per Si atom -12400.115891 kJ/mol
# Density = 1.779318 g / cm^3
# Si number density = 17.833768 Si / 1000 Ang^3
#
#
#
# Elastic Constant Matrix: (Units=GPa)
#
#
# Indices 1 2 3 4 5 6 
#
# 1 70.8582 44.8099 70.1277 0.0000 0.0000 0.0000
# 2 44.8099 83.9525 83.1664 0.0000 0.0000 0.0000
# 3 70.1277 83.1664 180.8260 0.0000 0.0000 0.0000
# 4 0.0000 0.0000 0.0000 24.4840 0.0000 0.0000
# 5 0.0000 0.0000 0.0000 0.0000 4.7353 0.0000
# 6 0.0000 0.0000 0.0000 0.0000 0.0000 25.5897
#
#
#
# Elastic Compliance Matrix: (Units=1/GPa)
#
#
# Indices 1 2 3 4 5 6 
#
# 1 0.024868 -0.006832 -0.006502 0.000000 0.000000 0.000000
# 2 -0.006832 0.023758 -0.008277 0.000000 0.000000 0.000000
# 3 -0.006502 -0.008277 0.011859 0.000000 0.000000 0.000000
# 4 0.000000 0.000000 0.000000 0.040843 0.000000 0.000000
# 5 0.000000 0.000000 0.000000 0.000000 0.211181 0.000000
# 6 0.000000 0.000000 0.000000 0.000000 0.000000 0.039078
#
#
# Mechanical properties :
#
#
# Convention : Reuss Voigt Hill
#
# Bulk Modulus (GPa) = 57.93124 81.31609 69.62367
# Shear Modulus (GPa) = 12.48237 20.13063 16.30650
#
# Velocity S-wave (km/s) = 2.64849 3.36340 3.02712
# Velocity P-wave (km/s) = 6.47358 7.79608 7.16541
#
# Compressibility (1/GPa) = 0.01726184
#
# Stress axis : x y z
#
# Youngs Moduli (GPa) = 40.21154 42.09117 84.32659
#
# Poissons Ratio (x) = 0.28759 0.54830
# Poissons Ratio (y) = 0.27474 0.69798
# Poissons Ratio (z) = 0.26146 0.34839
#
# Static dielectric constant tensor:
#      x y z
#    x 3.019230 0.000000 0.000000 
#    y 0.000000 3.341830 0.000000 
#    z 0.000000 0.000000 3.528750 
# 
# 
# High freq. dielectric constant tensor:
#      x y z
#    x 1.656950 0.000000 0.000000 
#    y 0.000000 1.687550 0.000000 
#    z 0.000000 0.000000 1.705310 
# 
# From -- ./inp_files/76931.got.cif
#   From: 2010.03.12/outbox.cif.g09.slc.cpg/sg65_39_cif.got.tgz:76931.got - 2010.04.10 20:52:16.
