data_PCOD8272535
_publ_section_title
;
Structure prediction by ZEFSAII (Michael W. Deem and Ramdas Pophale) SiO2 
 PCOD8272535
Probable space group: C M M M
;
_chemical_formula_sum "Si O2"
_cell_formula_units_Z 112
_cell_length_a 16.054416
_cell_length_b 24.037127
_cell_length_c 13.364657
_cell_angle_alpha 90.000000
_cell_angle_beta 90.000000
_cell_angle_gamma 90.000000
_cell_volume 5157.448351
_symmetry_space_group_name_H-M "C M M M"
_symmetry_group_IT_number 65
_symmetry_cell_setting 'orthorhombic'
loop_
_space_group_symop_operation_xyz
x,y,z
-x,-y,z
x,-y,-z
-x,y,-z
-x,-y,-z
x,y,-z
-x,y,z
x,-y,z
1/2+x,1/2+y,z
1/2-x,1/2-y,z
1/2+x,1/2-y,-z
1/2-x,1/2+y,-z
1/2-x,1/2-y,-z
1/2+x,1/2+y,-z
1/2-x,1/2+y,z
1/2+x,1/2-y,z
loop_
_atom_site_type_symbol
_atom_site_label
_atom_site_fract_x
_atom_site_fract_y
_atom_site_fract_z
Si Si1 0.907727 0.197438 0.380888
Si Si2 0.749009 0.937039 0.190102
Si Si3 0.592950 0.630581 0.118533
Si Si4 0.908196 0.637566 0.809112
Si Si5 0.289358 0.608090 0.610166
Si Si6 0.637145 0.816743 0.389833
Si Si7 0.343395 0.252849 0.881987
O O1 0.904018 0.193863 0.500000
O O2 0.871162 0.138049 0.342862
O O3 0.860182 0.253740 0.346229
O O4 0.000000 0.202065 0.338397
O O5 0.834239 0.912672 0.146039
O O6 0.666442 0.903302 0.155229
O O7 0.755666 0.937100 0.311524
O O8 0.738443 0.000000 0.152711
O O9 0.500000 0.611534 0.154838
O O10 0.612801 0.691994 0.165160
O O11 0.592580 0.635434 0.000000
O O12 0.910487 0.643532 0.688436
O O13 0.894533 0.697655 0.857384
O O14 0.000000 0.615052 0.842179
O O15 0.301950 0.580174 0.500000
O O16 0.230290 0.661632 0.599336
O O17 0.592994 0.818641 0.500000
O O18 0.250000 0.250000 0.837960
O O19 0.340062 0.260142 0.000000
#
# Coordination Sequence:
#
# PCOD8272535 Si02
#       7
#    16  16  16  16  16  16  16
#     4   9  16  26  44  73 107 140 175 222 285 354
#     4  11  25  42  60  84 117 158 208 260 300 344
#     4  10  22  42  68  95 122 153 191 240 298 358
#     4  11  23  37  60  90 121 162 203 244 298 358
#     4   9  19  35  54  75 106 152 200 244 293 344
#     4   9  18  32  50  78 117 155 192 236 289 352
#     4  10  20  38  65  96 129 159 186 229 293 364
#
# _framework density 21.716166000000001
#
# number of rings (size 3 to 8) (size 9 to 14) (size 15 to 20)
#    0.000    2.143    1.429    1.286    2.000    5.143 
#    0.000    0.714    0.000    0.000    0.000    9.000 
#    0.000    0.000    0.000    0.000    0.000    0.000 
#
# Total GULP energy -693972.710813 kJ/mol
# GULP energy per Si atom -12392.369836 kJ/mol
# Density = 2.166674 g / cm^3
# Si number density = 21.716166 Si / 1000 Ang^3
#
#
#
# Elastic Constant Matrix: (Units=GPa)
#
#
# Indices 1 2 3 4 5 6 
#
# 1 150.5943 49.3021 14.7522 0.0000 0.0000 0.0000
# 2 49.3021 110.8917 7.6797 0.0000 0.0000 0.0000
# 3 14.7522 7.6797 9.5481 0.0000 0.0000 0.0000
# 4 0.0000 0.0000 0.0000 17.2575 0.0000 0.0000
# 5 0.0000 0.0000 0.0000 0.0000 22.5188 0.0000
# 6 0.0000 0.0000 0.0000 0.0000 0.0000 14.7794
#
#
#
# Elastic Compliance Matrix: (Units=1/GPa)
#
#
# Indices 1 2 3 4 5 6 
#
# 1 0.008740 -0.003125 -0.010990 0.000000 0.000000 0.000000
# 2 -0.003125 0.010667 -0.003752 0.000000 0.000000 0.000000
# 3 -0.010990 -0.003752 0.124731 0.000000 0.000000 0.000000
# 4 0.000000 0.000000 0.000000 0.057946 0.000000 0.000000
# 5 0.000000 0.000000 0.000000 0.000000 0.044407 0.000000
# 6 0.000000 0.000000 0.000000 0.000000 0.000000 0.067662
#
#
# Mechanical properties :
#
#
# Convention : Reuss Voigt Hill
#
# Bulk Modulus (GPa) = 9.22473 46.05579 27.64026
# Shear Modulus (GPa) = 12.95266 24.19782 18.57524
#
# Velocity S-wave (km/s) = 2.44489 3.34170 2.92783
# Velocity P-wave (km/s) = 3.49672 6.01194 4.91785
#
# Compressibility (1/GPa) = 0.10840423
#
# Stress axis : x y z
#
# Youngs Moduli (GPa) = 114.41749 93.74851 8.01725
#
# Poissons Ratio (x) = 0.29293 0.08811
# Poissons Ratio (y) = 0.35751 0.03008
# Poissons Ratio (z) = 1.25749 0.35173
#
# Static dielectric constant tensor:
#      x y z
#    x 4.091210 0.000000 0.000000 
#    y 0.000000 3.433510 0.000000 
#    z 0.000000 0.000000 4.081600 
# 
# 
# High freq. dielectric constant tensor:
#      x y z
#    x 1.855470 0.000000 0.000000 
#    y 0.000000 1.804420 0.000000 
#    z 0.000000 0.000000 1.866600 
# 
# From -- ./inp_files/40817.got.cif
#   From: 2010.03.12/outbox.cif.g09.slc.cpg/sg65_21_cif.got.tgz:40817.got - 2010.04.10 20:52:16.
