data_PCOD8272205
_publ_section_title
;
Structure prediction by ZEFSAII (Michael W. Deem and Ramdas Pophale) SiO2 
 PCOD8272205
Probable space group: C M M M
;
_chemical_formula_sum "Si O2"
_cell_formula_units_Z 80
_cell_length_a 19.230919
_cell_length_b 9.016562
_cell_length_c 25.498856
_cell_angle_alpha 90.000000
_cell_angle_beta 90.000000
_cell_angle_gamma 90.000000
_cell_volume 4421.419358
_symmetry_space_group_name_H-M "C M M M"
_symmetry_group_IT_number 65
_symmetry_cell_setting 'orthorhombic'
loop_
_space_group_symop_operation_xyz
x,y,z
-x,-y,z
x,-y,-z
-x,y,-z
-x,-y,-z
x,y,-z
-x,y,z
x,-y,z
1/2+x,1/2+y,z
1/2-x,1/2-y,z
1/2+x,1/2-y,-z
1/2-x,1/2+y,-z
1/2-x,1/2-y,-z
1/2+x,1/2+y,-z
1/2-x,1/2+y,z
1/2+x,1/2-y,z
loop_
_atom_site_type_symbol
_atom_site_label
_atom_site_fract_x
_atom_site_fract_y
_atom_site_fract_z
Si Si1 0.820053 0.327286 0.296759
Si Si2 0.822855 0.676009 0.416561
Si Si3 0.079342 0.326088 0.206127
Si Si4 0.917130 0.832539 0.897422
Si Si5 0.582977 0.167331 0.000000
Si Si6 0.082030 0.825248 0.500000
O O1 0.806934 0.500000 0.291582
O O2 0.750000 0.250000 0.278232
O O3 0.839739 0.285393 0.356234
O O4 0.881004 0.273466 0.258315
O O5 0.818953 0.500000 0.427046
O O6 0.750000 0.750000 0.433770
O O7 0.885173 0.748846 0.448902
O O8 0.086785 0.500000 0.196089
O O9 0.111156 0.244924 0.155288
O O10 0.000000 0.279064 0.215119
O O11 0.000000 0.825872 0.897975
O O12 0.889541 0.000000 0.898909
O O13 0.887504 0.748498 0.948371
O O14 0.500000 0.171241 0.000000
O O15 0.610892 0.000000 0.000000
O O16 0.000000 0.793742 0.500000
O O17 0.098188 0.000000 0.500000
#
# Coordination Sequence:
#
# PCOD8272205 Si02
#       6
#    16  16  16  16   8   8
#     4   9  19  34  53  76 100 129 165 205 245 288
#     4  10  20  36  58  80 103 134 172 211 251 298
#     4   9  17  30  47  68  96 128 161 198 242 291
#     4   9  16  25  38  60  90 122 157 198 243 289
#     4   9  15  23  37  57  84 121 160 197 240 289
#     4  11  24  39  54  77 109 139 168 207 254 301
#
# _framework density 18.093737999999998
#
# number of rings (size 3 to 8) (size 9 to 14) (size 15 to 20)
#    0.000    2.600    0.000    2.100    0.000    6.800 
#    0.000    2.000    0.000    2.400    0.000    0.700 
#    0.000    0.000    0.000    0.000    0.000    0.000 
#
# Total GULP energy -496007.362441 kJ/mol
# GULP energy per Si atom -12400.184061 kJ/mol
# Density = 1.805256 g / cm^3
# Si number density = 18.093738 Si / 1000 Ang^3
#
#
#
# Elastic Constant Matrix: (Units=GPa)
#
#
# Indices 1 2 3 4 5 6 
#
# 1 78.2403 47.8055 66.6778 0.0000 0.0000 0.0000
# 2 47.8055 99.2728 66.6340 0.0000 0.0000 0.0000
# 3 66.6778 66.6340 152.5568 0.0000 0.0000 0.0000
# 4 0.0000 0.0000 0.0000 27.8923 0.0000 0.0000
# 5 0.0000 0.0000 0.0000 0.0000 3.0945 0.0000
# 6 0.0000 0.0000 0.0000 0.0000 0.0000 22.2558
#
#
#
# Elastic Compliance Matrix: (Units=1/GPa)
#
#
# Indices 1 2 3 4 5 6 
#
# 1 0.022664 -0.006034 -0.007270 0.000000 0.000000 0.000000
# 2 -0.006034 0.015858 -0.004289 0.000000 0.000000 0.000000
# 3 -0.007270 -0.004289 0.011606 0.000000 0.000000 0.000000
# 4 0.000000 0.000000 0.000000 0.035852 0.000000 0.000000
# 5 0.000000 0.000000 0.000000 0.000000 0.323158 0.000000
# 6 0.000000 0.000000 0.000000 0.000000 0.000000 0.044932
#
#
# Mechanical properties :
#
#
# Convention : Reuss Voigt Hill
#
# Bulk Modulus (GPa) = 66.92989 76.92272 71.92631
# Shear Modulus (GPa) = 10.11662 20.57870 15.34766
#
# Velocity S-wave (km/s) = 2.36714 3.37610 2.91560
# Velocity P-wave (km/s) = 6.67399 7.60284 7.15351
#
# Compressibility (1/GPa) = 0.01494101
#
# Stress axis : x y z
#
# Youngs Moduli (GPa) = 44.12366 63.05979 86.16339
#
# Poissons Ratio (x) = 0.38050 0.62641
# Poissons Ratio (y) = 0.26624 0.36957
# Poissons Ratio (z) = 0.32078 0.27048
#
# Static dielectric constant tensor:
#      x y z
#    x 3.041350 0.000000 0.000000 
#    y 0.000000 3.428140 0.000000 
#    z 0.000000 0.000000 3.617800 
# 
# 
# High freq. dielectric constant tensor:
#      x y z
#    x 1.656160 0.000000 0.000000 
#    y 0.000000 1.709350 0.000000 
#    z 0.000000 0.000000 1.717240 
# 
# From -- ./inp_files/72911.got.cif
#   From: 2010.03.12/outbox.cif.g09.slc.cpg/sg65_37_cif.got.tgz:72911.got - 2010.04.10 20:52:16.
