data_PCOD8272174
_publ_section_title
;
Structure prediction by ZEFSAII (Michael W. Deem and Ramdas Pophale) SiO2 
 PCOD8272174
Probable space group: C M M M
;
_chemical_formula_sum "Si O2"
_cell_formula_units_Z 48
_cell_length_a 8.686629
_cell_length_b 14.523532
_cell_length_c 19.495394
_cell_angle_alpha 90.000000
_cell_angle_beta 90.000000
_cell_angle_gamma 90.000000
_cell_volume 2459.549323
_symmetry_space_group_name_H-M "C M M M"
_symmetry_group_IT_number 65
_symmetry_cell_setting 'orthorhombic'
loop_
_space_group_symop_operation_xyz
x,y,z
-x,-y,z
x,-y,-z
-x,y,-z
-x,-y,-z
x,y,-z
-x,y,z
x,-y,z
1/2+x,1/2+y,z
1/2-x,1/2-y,z
1/2+x,1/2-y,-z
1/2-x,1/2+y,-z
1/2-x,1/2-y,-z
1/2+x,1/2+y,-z
1/2-x,1/2+y,z
1/2+x,1/2-y,z
loop_
_atom_site_type_symbol
_atom_site_label
_atom_site_fract_x
_atom_site_fract_y
_atom_site_fract_z
Si Si1 0.315836 0.646917 0.000000
Si Si2 0.320675 0.651108 0.500000
Si Si3 0.182460 0.500000 0.901185
Si Si4 0.318445 0.649049 0.352274
Si Si5 0.320051 0.000000 0.257533
O O1 0.250000 0.750000 0.000000
O O2 0.255695 0.592215 0.066692
O O3 0.500000 0.650032 0.000000
O O4 0.500000 0.666619 0.500000
O O5 0.250000 0.750000 0.500000
O O6 0.275355 0.602947 0.427382
O O7 0.225468 0.500000 0.821711
O O8 0.000000 0.500000 0.914423
O O9 0.500000 0.653303 0.342165
O O10 0.250000 0.750000 0.346614
O O11 0.248469 0.590492 0.291504
O O12 0.500000 0.000000 0.268798
#
# Coordination Sequence:
#
# PCOD8272174 Si02
#       5
#     8   8   8  16   8
#     4  11  22  39  66  94 118 147 184 223 270 328
#     4   8  16  31  52  77 104 140 186 237 288 335
#     4  10  22  41  61  85 119 151 186 232 274 322
#     4  10  20  36  57  80 110 147 190 239 289 340
#     4  11  24  39  56  82 116 153 190 229 278 334
#
# _framework density 19.51577
#
# number of rings (size 3 to 8) (size 9 to 14) (size 15 to 20)
#    0.000    2.000    0.000    4.500    0.000    6.000 
#    0.000    3.333    0.000    0.000    0.000    0.000 
#    0.000    0.000    0.000    0.000    0.000    0.000 
#
# Total GULP energy -297382.971240 kJ/mol
# GULP energy per Si atom -12390.957135 kJ/mol
# Density = 1.947135 g / cm^3
# Si number density = 19.515770 Si / 1000 Ang^3
#
#
#
# Elastic Constant Matrix: (Units=GPa)
#
#
# Indices 1 2 3 4 5 6 
#
# 1 109.5806 60.3640 88.2653 0.0000 0.0000 0.0000
# 2 60.3640 138.5776 85.7847 0.0000 0.0000 0.0000
# 3 88.2653 85.7847 197.8251 0.0000 0.0000 0.0000
# 4 0.0000 0.0000 0.0000 24.4294 0.0000 0.0000
# 5 0.0000 0.0000 0.0000 0.0000 31.3106 0.0000
# 6 0.0000 0.0000 0.0000 0.0000 0.0000 34.5614
#
#
#
# Elastic Compliance Matrix: (Units=1/GPa)
#
#
# Indices 1 2 3 4 5 6 
#
# 1 0.015294 -0.003332 -0.005379 0.000000 0.000000 0.000000
# 2 -0.003332 0.010590 -0.003105 0.000000 0.000000 0.000000
# 3 -0.005379 -0.003105 0.008802 0.000000 0.000000 0.000000
# 4 0.000000 0.000000 0.000000 0.040934 0.000000 0.000000
# 5 0.000000 0.000000 0.000000 0.000000 0.031938 0.000000
# 6 0.000000 0.000000 0.000000 0.000000 0.000000 0.028934
#
#
# Mechanical properties :
#
#
# Convention : Reuss Voigt Hill
#
# Bulk Modulus (GPa) = 90.47827 101.64571 96.06199
# Shear Modulus (GPa) = 30.52333 32.16490 31.34411
#
# Velocity S-wave (km/s) = 3.95908 4.06414 4.01195
# Velocity P-wave (km/s) = 8.20739 8.61510 8.41372
#
# Compressibility (1/GPa) = 0.01105238
#
# Stress axis : x y z
#
# Youngs Moduli (GPa) = 65.38579 94.42759 113.61669
#
# Poissons Ratio (x) = 0.31466 0.61112
# Poissons Ratio (y) = 0.21788 0.35284
# Poissons Ratio (z) = 0.35169 0.29324
#
# Static dielectric constant tensor:
#      x y z
#    x 3.728280 0.000000 0.000000 
#    y 0.000000 3.423530 0.000000 
#    z 0.000000 0.000000 4.013460 
# 
# 
# High freq. dielectric constant tensor:
#      x y z
#    x 1.774000 0.000000 0.000000 
#    y 0.000000 1.752760 0.000000 
#    z 0.000000 0.000000 1.774070 
# 
# From -- ./inp_files/48546.got.cif
#   From: 2010.03.12/outbox.cif.g09.slc.cpg/sg65_25_cif.got.tgz:48546.got - 2010.04.10 20:52:16.
