data_PCOD8272625
_publ_section_title
;
Structure prediction by ZEFSAII (Michael W. Deem and Ramdas Pophale) SiO2 
 PCOD8272625
Probable space group: C M M M
;
_chemical_formula_sum "Si O2"
_cell_formula_units_Z 120
_cell_length_a 20.902447
_cell_length_b 17.147359
_cell_length_c 18.117366
_cell_angle_alpha 90.000000
_cell_angle_beta 90.000000
_cell_angle_gamma 90.000000
_cell_volume 6493.658257
_symmetry_space_group_name_H-M "C M M M"
_symmetry_group_IT_number 65
_symmetry_cell_setting 'orthorhombic'
loop_
_space_group_symop_operation_xyz
x,y,z
-x,-y,z
x,-y,-z
-x,y,-z
-x,-y,-z
x,y,-z
-x,y,z
x,-y,z
1/2+x,1/2+y,z
1/2-x,1/2-y,z
1/2+x,1/2-y,-z
1/2-x,1/2+y,-z
1/2-x,1/2-y,-z
1/2+x,1/2+y,-z
1/2-x,1/2+y,z
1/2+x,1/2-y,z
loop_
_atom_site_type_symbol
_atom_site_label
_atom_site_fract_x
_atom_site_fract_y
_atom_site_fract_z
Si Si1 0.570345 0.817048 0.587275
Si Si2 0.500000 0.087888 0.087438
Si Si3 0.928241 0.138609 0.586243
Si Si4 0.816045 0.911853 0.320467
Si Si5 0.307293 0.908747 0.415472
Si Si6 0.757690 0.414077 0.081939
Si Si7 0.811363 0.195437 0.184160
Si Si8 0.118293 0.690272 0.084138
O O1 0.568652 0.826480 0.500000
O O2 0.500000 0.843703 0.618046
O O3 0.582993 0.728054 0.609626
O O4 0.629050 0.868313 0.618820
O O5 0.560843 0.137205 0.114197
O O6 0.500000 0.000000 0.121537
O O7 0.500000 0.080008 0.000000
O O8 0.917341 0.127539 0.500000
O O9 0.877331 0.084209 0.626686
O O10 0.000000 0.112431 0.608106
O O11 0.753329 0.884921 0.365921
O O12 0.831516 0.845822 0.259942
O O13 0.805959 0.000000 0.288844
O O14 0.294492 0.881483 0.500000
O O15 0.319967 0.000000 0.412556
O O16 0.774125 0.500000 0.112214
O O17 0.703630 0.376034 0.130926
O O18 0.820951 0.364104 0.082605
O O19 0.729299 0.418091 0.000000
O O20 0.750000 0.250000 0.197127
O O21 0.869685 0.241523 0.144373
O O22 0.105696 0.722222 0.000000
#
# Coordination Sequence:
#
# PCOD8272625 Si02
#       8
#    16   8  16  16  16  16  16  16
#     4   8  15  29  50  77 105 131 164 207 252 308
#     4   9  16  28  52  86 117 141 168 207 255 303
#     4   9  19  36  57  78  97 125 169 223 279 328
#     4  11  23  36  51  74 104 135 173 222 273 324
#     4   9  18  31  49  76 107 139 174 213 261 317
#     4   9  16  29  52  78 103 134 172 216 259 297
#     4  10  21  34  49  73 104 140 176 211 257 307
#     4   9  17  31  51  78 109 139 175 214 251 302
#
# _framework density 18.479568
#
# number of rings (size 3 to 8) (size 9 to 14) (size 15 to 20)
#    0.000    2.733    0.000    2.400    1.867    4.533 
#    1.200    4.000    0.000    0.000    0.000    0.000 
#    0.000    4.267    0.000    0.000    0.000    0.400 
#
# Total GULP energy -743603.167462 kJ/mol
# GULP energy per Si atom -12393.386124 kJ/mol
# Density = 1.843751 g / cm^3
# Si number density = 18.479568 Si / 1000 Ang^3
#
#
#
# Elastic Constant Matrix: (Units=GPa)
#
#
# Indices 1 2 3 4 5 6 
#
# 1 99.9402 28.9680 44.6143 0.0000 0.0000 0.0000
# 2 28.9680 67.2980 45.9364 0.0000 0.0000 0.0000
# 3 44.6143 45.9364 63.8461 0.0000 0.0000 0.0000
# 4 0.0000 0.0000 0.0000 19.5306 0.0000 0.0000
# 5 0.0000 0.0000 0.0000 0.0000 6.3759 0.0000
# 6 0.0000 0.0000 0.0000 0.0000 0.0000 55.5796
#
#
#
# Elastic Compliance Matrix: (Units=1/GPa)
#
#
# Indices 1 2 3 4 5 6 
#
# 1 0.014603 0.001335 -0.011165 0.000000 0.000000 0.000000
# 2 0.001335 0.029321 -0.022029 0.000000 0.000000 0.000000
# 3 -0.011165 -0.022029 0.039314 0.000000 0.000000 0.000000
# 4 0.000000 0.000000 0.000000 0.051202 0.000000 0.000000
# 5 0.000000 0.000000 0.000000 0.000000 0.156841 0.000000
# 6 0.000000 0.000000 0.000000 0.000000 0.000000 0.017992
#
#
# Mechanical properties :
#
#
# Convention : Reuss Voigt Hill
#
# Bulk Modulus (GPa) = 51.22806 52.23575 51.73190
# Shear Modulus (GPa) = 13.17525 23.73492 18.45508
#
# Velocity S-wave (km/s) = 2.67303 3.58772 3.16361
# Velocity P-wave (km/s) = 6.10806 6.74466 6.43424
#
# Compressibility (1/GPa) = 0.01952055
#
# Stress axis : x y z
#
# Youngs Moduli (GPa) = 68.47833 34.10478 25.43595
#
# Poissons Ratio (x) = -0.04554 0.28399
# Poissons Ratio (y) = -0.09144 0.56034
# Poissons Ratio (z) = 0.76457 0.75131
#
# Static dielectric constant tensor:
#      x y z
#    x 3.840530 0.000000 0.000000 
#    y 0.000000 3.467000 0.000000 
#    z 0.000000 0.000000 3.301160 
# 
# 
# High freq. dielectric constant tensor:
#      x y z
#    x 1.709740 0.000000 0.000000 
#    y 0.000000 1.718580 0.000000 
#    z 0.000000 0.000000 1.688850 
# 
# From -- ./inp_files/56089.got.cif
#   From: 2010.03.12/outbox.cif.g09.slc.cpg/sg65_29_cif.got.tgz:56089.got - 2010.04.10 20:52:16.
