data_PCOD8272640
_publ_section_title
;
Structure prediction by ZEFSAII (Michael W. Deem and Ramdas Pophale) SiO2 
 PCOD8272640
Probable space group: C M M M
;
_chemical_formula_sum "Si O2"
_cell_formula_units_Z 88
_cell_length_a 19.008630
_cell_length_b 7.835096
_cell_length_c 30.265470
_cell_angle_alpha 90.000000
_cell_angle_beta 90.000000
_cell_angle_gamma 90.000000
_cell_volume 4507.570852
_symmetry_space_group_name_H-M "C M M M"
_symmetry_group_IT_number 65
_symmetry_cell_setting 'orthorhombic'
loop_
_space_group_symop_operation_xyz
x,y,z
-x,-y,z
x,-y,-z
-x,y,-z
-x,-y,-z
x,y,-z
-x,y,z
x,-y,z
1/2+x,1/2+y,z
1/2-x,1/2-y,z
1/2+x,1/2-y,-z
1/2-x,1/2+y,-z
1/2-x,1/2-y,-z
1/2+x,1/2+y,-z
1/2-x,1/2+y,z
1/2+x,1/2-y,z
loop_
_atom_site_type_symbol
_atom_site_label
_atom_site_fract_x
_atom_site_fract_y
_atom_site_fract_z
Si Si1 0.421532 0.298219 0.127076
Si Si2 0.579047 0.799494 0.777813
Si Si3 0.417035 0.500000 0.451031
Si Si4 0.328106 0.298683 0.048809
Si Si5 0.917610 0.697363 0.612434
Si Si6 0.169077 0.300245 0.697805
O O1 0.500000 0.222754 0.123784
O O2 0.421487 0.500000 0.123354
O O3 0.388503 0.244170 0.174143
O O4 0.378203 0.217778 0.086268
O O5 0.500000 0.721074 0.773391
O O6 0.630487 0.718079 0.740666
O O7 0.574668 0.000000 0.771213
O O8 0.500000 0.500000 0.455134
O O9 0.382833 0.500000 0.500000
O O10 0.393724 0.674598 0.426530
O O11 0.336920 0.500000 0.047582
O O12 0.250000 0.250000 0.062689
O O13 0.346361 0.223575 0.000000
O O14 0.901447 0.500000 0.599045
O O15 0.872631 0.759012 0.654381
O O16 0.000000 0.718516 0.623891
O O17 0.163466 0.500000 0.702008
O O18 0.250000 0.250000 0.695085
#
# Coordination Sequence:
#
# PCOD8272640 Si02
#       6
#    16  16   8  16  16  16
#     4   9  18  32  49  71  96 122 157 202 249 296
#     4   9  18  34  53  71  97 132 168 204 248 305
#     4   9  18  32  54  86 114 138 177 225 270 316
#     4   9  18  32  49  68  92 124 160 199 245 295
#     4   9  18  34  55  79 108 143 180 220 267 315
#     4  10  21  34  51  76 102 136 172 212 256 303
#
# _framework density 19.52271
#
# number of rings (size 3 to 8) (size 9 to 14) (size 15 to 20)
#    0.000    2.818    0.000    0.545    1.273    5.091 
#    0.000    7.273    0.000    0.545    0.000    5.091 
#    0.000    0.000    0.000    0.000    0.000    0.000 
#
# Total GULP energy -545358.370553 kJ/mol
# GULP energy per Si atom -12394.508422 kJ/mol
# Density = 1.947828 g / cm^3
# Si number density = 19.522710 Si / 1000 Ang^3
#
#
#
# Elastic Constant Matrix: (Units=GPa)
#
#
# Indices 1 2 3 4 5 6 
#
# 1 95.8061 19.2457 91.3146 0.0000 0.0000 0.0000
# 2 19.2457 42.8774 43.5531 0.0000 0.0000 0.0000
# 3 91.3146 43.5531 204.4064 0.0000 0.0000 0.0000
# 4 0.0000 0.0000 0.0000 26.3955 0.0000 0.0000
# 5 0.0000 0.0000 0.0000 0.0000 19.7320 0.0000
# 6 0.0000 0.0000 0.0000 0.0000 0.0000 21.5462
#
#
#
# Elastic Compliance Matrix: (Units=1/GPa)
#
#
# Indices 1 2 3 4 5 6 
#
# 1 0.018178 0.000114 -0.008145 0.000000 0.000000 0.000000
# 2 0.000114 0.029765 -0.006393 0.000000 0.000000 0.000000
# 3 -0.008145 -0.006393 0.009893 0.000000 0.000000 0.000000
# 4 0.000000 0.000000 0.000000 0.037885 0.000000 0.000000
# 5 0.000000 0.000000 0.000000 0.000000 0.050679 0.000000
# 6 0.000000 0.000000 0.000000 0.000000 0.000000 0.046412
#
#
# Mechanical properties :
#
#
# Convention : Reuss Voigt Hill
#
# Bulk Modulus (GPa) = 34.49703 72.36850 53.43277
# Shear Modulus (GPa) = 21.61487 26.13318 23.87403
#
# Velocity S-wave (km/s) = 3.33102 3.66266 3.50077
# Velocity P-wave (km/s) = 5.70112 7.41864 6.61585
#
# Compressibility (1/GPa) = 0.02898800
#
# Stress axis : x y z
#
# Youngs Moduli (GPa) = 55.01181 33.59673 101.08198
#
# Poissons Ratio (x) = -0.00383 0.82331
# Poissons Ratio (y) = -0.00627 0.64621
# Poissons Ratio (z) = 0.44807 0.21478
#
# Static dielectric constant tensor:
#      x y z
#    x 3.435130 0.000000 0.000000 
#    y 0.000000 3.411510 0.000000 
#    z 0.000000 0.000000 3.988860 
# 
# 
# High freq. dielectric constant tensor:
#      x y z
#    x 1.738750 0.000000 0.000000 
#    y 0.000000 1.748770 0.000000 
#    z 0.000000 0.000000 1.767900 
# 
# From -- ./inp_files/76446.got.cif
#   From: 2010.03.12/outbox.cif.g09.slc.cpg/sg65_39_cif.got.tgz:76446.got - 2010.04.10 20:52:16.
