data_PCOD8272691
_publ_section_title
;
Structure prediction by ZEFSAII (Michael W. Deem and Ramdas Pophale) SiO2 
 PCOD8272691
Probable space group: C M M M
;
_chemical_formula_sum "Si O2"
_cell_formula_units_Z 96
_cell_length_a 9.100396
_cell_length_b 27.171993
_cell_length_c 24.173033
_cell_angle_alpha 90.000000
_cell_angle_beta 90.000000
_cell_angle_gamma 90.000000
_cell_volume 5977.408404
_symmetry_space_group_name_H-M "C M M M"
_symmetry_group_IT_number 65
_symmetry_cell_setting 'orthorhombic'
loop_
_space_group_symop_operation_xyz
x,y,z
-x,-y,z
x,-y,-z
-x,y,-z
-x,-y,-z
x,y,-z
-x,y,z
x,-y,z
1/2+x,1/2+y,z
1/2-x,1/2-y,z
1/2+x,1/2-y,-z
1/2-x,1/2+y,-z
1/2-x,1/2-y,-z
1/2+x,1/2+y,-z
1/2-x,1/2+y,z
1/2+x,1/2-y,z
loop_
_atom_site_type_symbol
_atom_site_label
_atom_site_fract_x
_atom_site_fract_y
_atom_site_fract_z
Si Si1 0.164302 0.941595 0.941483
Si Si2 0.169172 0.855026 0.436599
Si Si3 0.832217 0.395907 0.276004
Si Si4 0.828658 0.299301 0.342175
Si Si5 0.324851 0.444273 0.822612
Si Si6 0.170655 0.556289 0.389551
O O1 0.237552 0.925343 0.882906
O O2 0.000000 0.920011 0.943747
O O3 0.156308 0.000000 0.939102
O O4 0.244353 0.925345 0.000000
O O5 0.185833 0.838893 0.500000
O O6 0.259780 0.816413 0.400200
O O7 0.232010 0.910125 0.429553
O O8 0.000000 0.854619 0.417690
O O9 0.802653 0.340129 0.295151
O O10 0.731832 0.407137 0.223619
O O11 0.790223 0.432734 0.325758
O O12 0.000000 0.403643 0.258207
O O13 0.750000 0.250000 0.321282
O O14 0.000000 0.289547 0.352206
O O15 0.500000 0.442919 0.823802
O O16 0.270288 0.500000 0.810074
O O17 0.207176 0.500000 0.403314
O O18 0.000000 0.568953 0.400064
#
# Coordination Sequence:
#
# PCOD8272691 Si02
#       6
#    16  16  16  16  16  16
#     4   7  10  18  32  51  79 115 152 187 217 242
#     4  10  21  35  50  70  94 117 143 176 214 258
#     4   9  18  31  45  63  88 115 142 174 215 263
#     4  10  21  37  55  71  87 110 140 175 219 268
#     4   9  16  24  38  63  90 118 154 188 214 244
#     4   9  18  32  48  65  88 121 156 185 216 255
#
# _framework density 16.060473000000002
#
# number of rings (size 3 to 8) (size 9 to 14) (size 15 to 20)
#    0.000    3.000    0.000    4.000    0.000    6.667 
#    0.000    1.667    0.000    0.500    0.000    2.333 
#    0.000    0.667    0.000    1.500    0.000    2.333 
#
# Total GULP energy -594788.593810 kJ/mol
# GULP energy per Si atom -12391.429038 kJ/mol
# Density = 1.602392 g / cm^3
# Si number density = 16.060473 Si / 1000 Ang^3
#
#
#
# Elastic Constant Matrix: (Units=GPa)
#
#
# Indices 1 2 3 4 5 6 
#
# 1 64.2048 31.3383 40.8704 0.0000 0.0000 0.0000
# 2 31.3383 63.0411 28.9690 0.0000 0.0000 0.0000
# 3 40.8704 28.9690 103.8304 0.0000 0.0000 0.0000
# 4 0.0000 0.0000 0.0000 12.6220 0.0000 0.0000
# 5 0.0000 0.0000 0.0000 0.0000 12.1917 0.0000
# 6 0.0000 0.0000 0.0000 0.0000 0.0000 24.5438
#
#
#
# Elastic Compliance Matrix: (Units=1/GPa)
#
#
# Indices 1 2 3 4 5 6 
#
# 1 0.024458 -0.008872 -0.007152 0.000000 0.000000 0.000000
# 2 -0.008872 0.021414 -0.002482 0.000000 0.000000 0.000000
# 3 -0.007152 -0.002482 0.013139 0.000000 0.000000 0.000000
# 4 0.000000 0.000000 0.000000 0.079227 0.000000 0.000000
# 5 0.000000 0.000000 0.000000 0.000000 0.082023 0.000000
# 6 0.000000 0.000000 0.000000 0.000000 0.000000 0.040743
#
#
# Mechanical properties :
#
#
# Convention : Reuss Voigt Hill
#
# Bulk Modulus (GPa) = 45.45810 48.15909 46.80859
# Shear Modulus (GPa) = 16.37468 18.53141 17.45304
#
# Velocity S-wave (km/s) = 3.19653 3.40052 3.30010
# Velocity P-wave (km/s) = 6.47993 6.74309 6.61282
#
# Compressibility (1/GPa) = 0.02199828
#
# Stress axis : x y z
#
# Youngs Moduli (GPa) = 40.88593 46.69930 76.10975
#
# Poissons Ratio (x) = 0.41431 0.54435
# Poissons Ratio (y) = 0.36273 0.18892
# Poissons Ratio (z) = 0.29242 0.11592
#
# Static dielectric constant tensor:
#      x y z
#    x 2.912200 0.000000 0.000000 
#    y 0.000000 2.864430 0.000000 
#    z 0.000000 0.000000 3.271590 
# 
# 
# High freq. dielectric constant tensor:
#      x y z
#    x 1.603580 0.000000 0.000000 
#    y 0.000000 1.584450 0.000000 
#    z 0.000000 0.000000 1.619900 
# 
# From -- ./inp_files/67841.got.cif
#   From: 2010.03.12/outbox.cif.g09.slc.cpg/sg65_34_cif.got.tgz:67841.got - 2010.04.10 20:52:16.
