data_PCOD8272749
_publ_section_title
;
Structure prediction by ZEFSAII (Michael W. Deem and Ramdas Pophale) SiO2 
 PCOD8272749
Probable space group: C M M M
;
_chemical_formula_sum "Si O2"
_cell_formula_units_Z 80
_cell_length_a 7.884608
_cell_length_b 18.426239
_cell_length_c 27.813676
_cell_angle_alpha 90.000000
_cell_angle_beta 90.000000
_cell_angle_gamma 90.000000
_cell_volume 4040.872965
_symmetry_space_group_name_H-M "C M M M"
_symmetry_group_IT_number 65
_symmetry_cell_setting 'orthorhombic'
loop_
_space_group_symop_operation_xyz
x,y,z
-x,-y,z
x,-y,-z
-x,y,-z
-x,-y,-z
x,y,-z
-x,y,z
x,-y,z
1/2+x,1/2+y,z
1/2-x,1/2-y,z
1/2+x,1/2-y,-z
1/2-x,1/2+y,-z
1/2-x,1/2-y,-z
1/2+x,1/2+y,-z
1/2-x,1/2+y,z
1/2+x,1/2-y,z
loop_
_atom_site_type_symbol
_atom_site_label
_atom_site_fract_x
_atom_site_fract_y
_atom_site_fract_z
Si Si1 0.800687 0.832601 0.500000
Si Si2 0.701107 0.667033 0.396705
Si Si3 0.193935 0.585040 0.120341
Si Si4 0.500000 0.414054 0.946444
Si Si5 0.196221 0.667293 0.217520
Si Si6 0.804604 0.920251 0.692223
O O1 0.750000 0.750000 0.500000
O O2 0.730803 0.863934 0.448860
O O3 0.000000 0.842074 0.500000
O O4 0.500000 0.662041 0.395533
O O5 0.750000 0.750000 0.388135
O O6 0.782205 0.619271 0.353721
O O7 0.215232 0.500000 0.130964
O O8 0.327460 0.611745 0.080044
O O9 0.243746 0.627457 0.168287
O O10 0.000000 0.602376 0.103854
O O11 0.500000 0.500000 0.949539
O O12 0.500000 0.380215 0.000000
O O13 0.250000 0.750000 0.213151
O O14 0.292562 0.628427 0.260530
O O15 0.000000 0.660801 0.229072
O O16 0.000000 0.930729 0.680299
O O17 0.720445 0.000000 0.699896
#
# Coordination Sequence:
#
# PCOD8272749 Si02
#       6
#     8  16  16   8  16  16
#     4   8  14  26  45  67  93 125 165 212 261 308
#     4   9  17  30  48  71  97 129 170 216 262 316
#     4   9  19  35  55  82 114 147 185 230 275 324
#     4   9  18  32  56  88 116 148 187 226 274 324
#     4  11  23  37  55  80 105 139 178 220 268 324
#     4  10  21  35  51  73 104 138 173 216 268 322
#
# _framework density 19.797702999999998
#
# number of rings (size 3 to 8) (size 9 to 14) (size 15 to 20)
#    0.000    2.500    0.000    1.800    2.800    4.000 
#    0.000    2.500    0.000    3.600    0.000    0.000 
#    0.000    9.600    0.000    0.000    0.000    0.000 
#
# Total GULP energy -495635.466390 kJ/mol
# GULP energy per Si atom -12390.886660 kJ/mol
# Density = 1.975264 g / cm^3
# Si number density = 19.797703 Si / 1000 Ang^3
#
#
#
# Elastic Constant Matrix: (Units=GPa)
#
#
# Indices 1 2 3 4 5 6 
#
# 1 55.7066 22.9029 54.6108 0.0000 0.0000 0.0000
# 2 22.9029 93.5667 72.1030 0.0000 0.0000 0.0000
# 3 54.6108 72.1030 191.1706 0.0000 0.0000 0.0000
# 4 0.0000 0.0000 0.0000 -15.4704 0.0000 0.0000
# 5 0.0000 0.0000 0.0000 0.0000 17.0880 0.0000
# 6 0.0000 0.0000 0.0000 0.0000 0.0000 17.4657
#
#
#
# Elastic Compliance Matrix: (Units=1/GPa)
#
#
# Indices 1 2 3 4 5 6 
#
# 1 0.024984 -0.000868 -0.006810 0.000000 0.000000 0.000000
# 2 -0.000868 0.015097 -0.005446 0.000000 0.000000 0.000000
# 3 -0.006810 -0.005446 0.009230 0.000000 0.000000 0.000000
# 4 0.000000 0.000000 0.000000 -0.064640 0.000000 0.000000
# 5 0.000000 0.000000 0.000000 0.000000 0.058521 0.000000
# 6 0.000000 0.000000 0.000000 0.000000 0.000000 0.057255
#
#
# Mechanical properties :
#
#
# Convention : Reuss Voigt Hill
#
# Bulk Modulus (GPa) = 43.35841 71.07528 57.21685
# Shear Modulus (GPa) = 37.20738 16.53846 26.87292
#
# Velocity S-wave (km/s) = 4.33988 2.89342 3.68825
# Velocity P-wave (km/s) = 6.86011 6.86594 6.86303
#
# Compressibility (1/GPa) = 0.02306358
#
# Stress axis : x y z
#
# Youngs Moduli (GPa) = 40.02611 66.23937 108.33904
#
# Poissons Ratio (x) = 0.05749 0.73775
# Poissons Ratio (y) = 0.03474 0.59002
# Poissons Ratio (z) = 0.27256 0.36074
#
# Static dielectric constant tensor:
#      x y z
#    x 3.513290 0.000000 0.000000 
#    y 0.000000 3.593520 0.000000 
#    z 0.000000 0.000000 4.061070 
# 
# 
# High freq. dielectric constant tensor:
#      x y z
#    x 1.765050 0.000000 0.000000 
#    y 0.000000 1.744950 0.000000 
#    z 0.000000 0.000000 1.785170 
# 
# From -- ./inp_files/72946.got.cif
#   From: 2010.03.12/outbox.cif.g09.slc.cpg/sg65_37_cif.got.tgz:72946.got - 2010.04.10 20:52:16.
