data_PCOD8272573
_publ_section_title
;
Structure prediction by ZEFSAII (Michael W. Deem and Ramdas Pophale) SiO2 
 PCOD8272573
Probable space group: C M M M
;
_chemical_formula_sum "Si O2"
_cell_formula_units_Z 104
_cell_length_a 25.962964
_cell_length_b 9.613316
_cell_length_c 24.915895
_cell_angle_alpha 90.000000
_cell_angle_beta 90.000000
_cell_angle_gamma 90.000000
_cell_volume 6218.762649
_symmetry_space_group_name_H-M "C M M M"
_symmetry_group_IT_number 65
_symmetry_cell_setting 'orthorhombic'
loop_
_space_group_symop_operation_xyz
x,y,z
-x,-y,z
x,-y,-z
-x,y,-z
-x,-y,-z
x,y,-z
-x,y,z
x,-y,z
1/2+x,1/2+y,z
1/2-x,1/2-y,z
1/2+x,1/2-y,-z
1/2-x,1/2+y,-z
1/2-x,1/2-y,-z
1/2+x,1/2+y,-z
1/2-x,1/2+y,z
1/2+x,1/2-y,z
loop_
_atom_site_type_symbol
_atom_site_label
_atom_site_fract_x
_atom_site_fract_y
_atom_site_fract_z
Si Si1 0.060794 0.848175 0.000000
Si Si2 0.058068 0.843468 0.307146
Si Si3 0.560168 0.663809 0.116422
Si Si4 0.296247 0.842321 0.267959
Si Si5 0.790175 0.000000 0.562998
Si Si6 0.901581 0.659263 0.212366
Si Si7 0.847957 0.237006 0.625362
Si Si8 0.168738 0.500000 0.437690
O O1 0.076068 0.777002 0.943202
O O2 0.000000 0.867568 0.000000
O O3 0.086642 0.000000 0.000000
O O4 0.067336 0.733248 0.260002
O O5 0.096926 0.823636 0.356812
O O6 0.000000 0.822672 0.328810
O O7 0.065321 0.000000 0.284012
O O8 0.500000 0.686602 0.127675
O O9 0.573768 0.500000 0.122006
O O10 0.591788 0.756780 0.157599
O O11 0.250000 0.750000 0.244482
O O12 0.341097 0.839126 0.224222
O O13 0.314436 0.774657 0.323139
O O14 0.277613 0.000000 0.278493
O O15 0.815032 0.865949 0.589328
O O16 0.729534 0.000000 0.574140
O O17 0.802122 0.000000 0.500000
O O18 0.921437 0.500000 0.207098
O O19 0.859192 0.369614 0.589005
O O20 0.156463 0.500000 0.500000
#
# Coordination Sequence:
#
# PCOD8272573 Si02
#       8
#     8  16  16  16   8  16  16   8
#     4   7  12  24  43  67  94 129 170 207 242 281
#     4  10  21  37  55  73  96 131 173 208 242 287
#     4   9  16  28  47  70  99 134 171 207 241 284
#     4  10  21  34  51  72  99 130 161 197 244 299
#     4  11  22  36  55  79 103 131 162 197 245 294
#     4  10  21  33  46  74 105 130 162 204 252 297
#     4  11  21  36  54  79 103 129 161 201 245 296
#     4  11  22  36  55  79 107 131 156 195 247 306
#
# _framework density 16.723583999999999
#
# number of rings (size 3 to 8) (size 9 to 14) (size 15 to 20)
#    0.000    2.077    1.538    3.692    2.154    4.923 
#    0.000    0.385    0.000    4.154    0.000    0.538 
#    0.000    0.000    0.000    0.000    0.000    0.000 
#
# Total GULP energy -644621.993888 kJ/mol
# GULP energy per Si atom -12396.576806 kJ/mol
# Density = 1.668552 g / cm^3
# Si number density = 16.723584 Si / 1000 Ang^3
#
#
#
# Elastic Constant Matrix: (Units=GPa)
#
#
# Indices 1 2 3 4 5 6 
#
# 1 72.3482 40.4469 34.2883 0.0000 0.0000 0.0000
# 2 40.4469 114.1622 46.2648 0.0000 0.0000 0.0000
# 3 34.2883 46.2648 109.5176 0.0000 0.0000 0.0000
# 4 0.0000 0.0000 0.0000 27.6072 0.0000 0.0000
# 5 0.0000 0.0000 0.0000 0.0000 2.5707 0.0000
# 6 0.0000 0.0000 0.0000 0.0000 0.0000 24.9437
#
#
#
# Elastic Compliance Matrix: (Units=1/GPa)
#
#
# Indices 1 2 3 4 5 6 
#
# 1 0.018352 -0.005036 -0.003619 0.000000 0.000000 0.000000
# 2 -0.005036 0.011951 -0.003472 0.000000 0.000000 0.000000
# 3 -0.003619 -0.003472 0.011731 0.000000 0.000000 0.000000
# 4 0.000000 0.000000 0.000000 0.036222 0.000000 0.000000
# 5 0.000000 0.000000 0.000000 0.000000 0.388998 0.000000
# 6 0.000000 0.000000 0.000000 0.000000 0.000000 0.040090
#
#
# Mechanical properties :
#
#
# Convention : Reuss Voigt Hill
#
# Bulk Modulus (GPa) = 56.23901 59.78090 58.00995
# Shear Modulus (GPa) = 9.30193 22.69284 15.99738
#
# Velocity S-wave (km/s) = 2.36098 3.68766 3.09621
# Velocity P-wave (km/s) = 6.41357 7.34546 6.89528
#
# Compressibility (1/GPa) = 0.01778125
#
# Stress axis : x y z
#
# Youngs Moduli (GPa) = 54.48935 83.67827 85.24783
#
# Poissons Ratio (x) = 0.42137 0.30847
# Poissons Ratio (y) = 0.27439 0.29597
# Poissons Ratio (z) = 0.19717 0.29052
#
# Static dielectric constant tensor:
#      x y z
#    x 3.010480 0.000000 0.000000 
#    y 0.000000 3.279710 0.000000 
#    z 0.000000 0.000000 3.228830 
# 
# 
# High freq. dielectric constant tensor:
#      x y z
#    x 1.620880 0.000000 0.000000 
#    y 0.000000 1.653830 0.000000 
#    z 0.000000 0.000000 1.639710 
# 
# From -- ./inp_files/71919.got.cif
#   From: 2010.03.12/outbox.cif.g09.slc.cpg/sg65_36_cif.got.tgz:71919.got - 2010.04.10 20:52:16.
