data_PCOD8272611
_publ_section_title
;
Structure prediction by ZEFSAII (Michael W. Deem and Ramdas Pophale) SiO2 
 PCOD8272611
Probable space group: C M M M
;
_chemical_formula_sum "Si O2"
_cell_formula_units_Z 72
_cell_length_a 32.053069
_cell_length_b 13.565735
_cell_length_c 9.067132
_cell_angle_alpha 90.000000
_cell_angle_beta 90.000000
_cell_angle_gamma 90.000000
_cell_volume 3942.601527
_symmetry_space_group_name_H-M "C M M M"
_symmetry_group_IT_number 65
_symmetry_cell_setting 'orthorhombic'
loop_
_space_group_symop_operation_xyz
x,y,z
-x,-y,z
x,-y,-z
-x,y,-z
-x,-y,-z
x,y,-z
-x,y,z
x,-y,z
1/2+x,1/2+y,z
1/2-x,1/2-y,z
1/2+x,1/2-y,-z
1/2-x,1/2+y,-z
1/2-x,1/2-y,-z
1/2+x,1/2+y,-z
1/2-x,1/2+y,z
1/2+x,1/2-y,z
loop_
_atom_site_type_symbol
_atom_site_label
_atom_site_fract_x
_atom_site_fract_y
_atom_site_fract_z
Si Si1 0.500000 0.886051 0.674534
Si Si2 0.841249 0.611255 0.836894
Si Si3 0.203584 0.771086 0.328007
Si Si4 0.364783 0.611823 0.826660
Si Si5 0.075724 0.712428 0.834199
O O1 0.500000 0.888411 0.500000
O O2 0.460578 0.822710 0.727072
O O3 0.500000 0.000000 0.734646
O O4 0.829100 0.500000 0.806820
O O5 0.821144 0.671422 0.704603
O O6 0.890892 0.624455 0.832787
O O7 0.825257 0.645296 0.000000
O O8 0.204216 0.795189 0.500000
O O9 0.250000 0.750000 0.267193
O O10 0.179647 0.860909 0.247624
O O11 0.376981 0.500000 0.782955
O O12 0.402048 0.685908 0.776892
O O13 0.357918 0.623635 0.000000
O O14 0.058099 0.728538 0.000000
#
# Coordination Sequence:
#
# PCOD8272611 Si02
#       5
#     8  16  16  16  16
#     4  11  23  35  50  77 110 140 169 203 248 305
#     4   9  18  33  53  75  98 128 168 211 254 301
#     4  10  21  34  48  72 106 139 171 209 254 307
#     4   9  19  37  59  79 100 132 176 222 264 306
#     4   9  18  34  55  77 101 130 166 208 254 304
#
# _framework density 18.262053999999999
#
# number of rings (size 3 to 8) (size 9 to 14) (size 15 to 20)
#    0.000    2.556    0.000    3.000    0.000    8.889 
#    0.000    5.000    0.000    3.333    0.000    0.000 
#    0.000    0.000    0.000    0.000    0.000    0.000 
#
# Total GULP energy -446143.801621 kJ/mol
# GULP energy per Si atom -12392.883378 kJ/mol
# Density = 1.822049 g / cm^3
# Si number density = 18.262054 Si / 1000 Ang^3
#
#
#
# Elastic Constant Matrix: (Units=GPa)
#
#
# Indices 1 2 3 4 5 6 
#
# 1 102.0281 48.6114 39.6766 0.0000 0.0000 0.0000
# 2 48.6114 117.6894 30.4140 0.0000 0.0000 0.0000
# 3 39.6766 30.4140 50.9894 0.0000 0.0000 0.0000
# 4 0.0000 0.0000 0.0000 23.1948 0.0000 0.0000
# 5 0.0000 0.0000 0.0000 0.0000 14.1162 0.0000
# 6 0.0000 0.0000 0.0000 0.0000 0.0000 16.5299
#
#
#
# Elastic Compliance Matrix: (Units=1/GPa)
#
#
# Indices 1 2 3 4 5 6 
#
# 1 0.015408 -0.003861 -0.009686 0.000000 0.000000 0.000000
# 2 -0.003861 0.011013 -0.003565 0.000000 0.000000 0.000000
# 3 -0.009686 -0.003565 0.029275 0.000000 0.000000 0.000000
# 4 0.000000 0.000000 0.000000 0.043113 0.000000 0.000000
# 5 0.000000 0.000000 0.000000 0.000000 0.070841 0.000000
# 6 0.000000 0.000000 0.000000 0.000000 0.000000 0.060497
#
#
# Mechanical properties :
#
#
# Convention : Reuss Voigt Hill
#
# Bulk Modulus (GPa) = 46.57173 56.45678 51.51425
# Shear Modulus (GPa) = 18.41438 20.90183 19.65810
#
# Velocity S-wave (km/s) = 3.17888 3.38679 3.28448
# Velocity P-wave (km/s) = 6.24748 6.80262 6.53095
#
# Compressibility (1/GPa) = 0.02147225
#
# Stress axis : x y z
#
# Youngs Moduli (GPa) = 64.90344 90.80284 34.15851
#
# Poissons Ratio (x) = 0.35058 0.33087
# Poissons Ratio (y) = 0.25058 0.12176
# Poissons Ratio (z) = 0.62867 0.32368
#
# Static dielectric constant tensor:
#      x y z
#    x 3.308270 0.000000 0.000000 
#    y 0.000000 3.505990 0.000000 
#    z 0.000000 0.000000 3.238290 
# 
# 
# High freq. dielectric constant tensor:
#      x y z
#    x 1.697490 0.000000 0.000000 
#    y 0.000000 1.709350 0.000000 
#    z 0.000000 0.000000 1.699170 
# 
# From -- ./inp_files/18020.got.cif
#   From: 2010.03.12/outbox.cif.g09.slc.cpg/sg65_10_cif.got.tgz:18020.got - 2010.04.10 20:52:16.
