data_PCOD8272719
_publ_section_title
;
Structure prediction by ZEFSAII (Michael W. Deem and Ramdas Pophale) SiO2 
 PCOD8272719
Probable space group: C M M M
;
_chemical_formula_sum "Si O2"
_cell_formula_units_Z 88
_cell_length_a 9.662036
_cell_length_b 17.968426
_cell_length_c 28.490897
_cell_angle_alpha 90.000000
_cell_angle_beta 90.000000
_cell_angle_gamma 90.000000
_cell_volume 4946.349612
_symmetry_space_group_name_H-M "C M M M"
_symmetry_group_IT_number 65
_symmetry_cell_setting 'orthorhombic'
loop_
_space_group_symop_operation_xyz
x,y,z
-x,-y,z
x,-y,-z
-x,y,-z
-x,-y,-z
x,y,-z
-x,y,z
x,-y,z
1/2+x,1/2+y,z
1/2-x,1/2-y,z
1/2+x,1/2-y,-z
1/2-x,1/2+y,-z
1/2-x,1/2-y,-z
1/2+x,1/2+y,-z
1/2-x,1/2+y,z
1/2+x,1/2-y,z
loop_
_atom_site_type_symbol
_atom_site_label
_atom_site_fract_x
_atom_site_fract_y
_atom_site_fract_z
Si Si1 0.345323 0.911459 0.366733
Si Si2 0.843132 0.911314 0.821013
Si Si3 0.841313 0.413290 0.092579
Si Si4 0.155086 0.911453 0.551728
Si Si5 0.339588 0.176765 0.000000
Si Si6 0.655767 0.911476 0.737371
O O1 0.500000 0.882559 0.376092
O O2 0.248889 0.876082 0.407151
O O3 0.296357 0.885882 0.314761
O O4 0.341279 0.000000 0.369406
O O5 0.759685 0.883532 0.866627
O O6 0.764425 0.879080 0.775135
O O7 0.000000 0.880081 0.822255
O O8 0.844335 0.000000 0.819485
O O9 0.817553 0.500000 0.082963
O O10 0.800752 0.371058 0.045399
O O11 0.000000 0.398117 0.107656
O O12 0.209607 0.887095 0.500000
O O13 0.000000 0.881646 0.559243
O O14 0.156693 0.000000 0.555075
O O15 0.250000 0.250000 0.000000
O O16 0.500000 0.198968 0.000000
O O17 0.500000 0.882341 0.748056
O O18 0.654205 0.000000 0.740271
#
# Coordination Sequence:
#
# PCOD8272719 Si02
#       6
#    16  16  16  16   8  16
#     4   8  13  19  26  36  49  68  97 132 171 217
#     4   9  16  24  36  57  80  99 123 157 197 238
#     4   9  17  31  50  68  87 114 147 177 205 245
#     4   8  13  19  24  30  42  62  90 126 170 219
#     4  10  21  35  51  71  93 118 146 176 212 250
#     4   8  13  21  31  43  62  87 112 140 180 231
#
# _framework density 17.790897999999999
#
# number of rings (size 3 to 8) (size 9 to 14) (size 15 to 20)
#    0.000    3.455    0.000    2.455    0.000    5.091 
#    0.000    5.455    0.000    2.727    0.000    0.000 
#    0.000    0.000    0.000    0.000    0.000    0.000 
#
# Total GULP energy -545275.240958 kJ/mol
# GULP energy per Si atom -12392.619113 kJ/mol
# Density = 1.775040 g / cm^3
# Si number density = 17.790898 Si / 1000 Ang^3
#
#
#
# Elastic Constant Matrix: (Units=GPa)
#
#
# Indices 1 2 3 4 5 6 
#
# 1 129.2010 18.5925 114.5147 0.0000 0.0000 0.0000
# 2 18.5925 15.1079 22.2501 0.0000 0.0000 0.0000
# 3 114.5147 22.2501 196.8845 0.0000 0.0000 0.0000
# 4 0.0000 0.0000 0.0000 -0.5884 0.0000 0.0000
# 5 0.0000 0.0000 0.0000 0.0000 32.3970 0.0000
# 6 0.0000 0.0000 0.0000 0.0000 0.0000 10.2507
#
#
#
# Elastic Compliance Matrix: (Units=1/GPa)
#
#
# Indices 1 2 3 4 5 6 
#
# 1 0.016650 -0.007471 -0.008840 0.000000 0.000000 0.000000
# 2 -0.007471 0.082759 -0.005007 0.000000 0.000000 0.000000
# 3 -0.008840 -0.005007 0.010787 0.000000 0.000000 0.000000
# 4 0.000000 0.000000 0.000000 -1.699664 0.000000 0.000000
# 5 0.000000 0.000000 0.000000 0.000000 0.030867 0.000000
# 6 0.000000 0.000000 0.000000 0.000000 0.000000 0.097555
#
#
# Mechanical properties :
#
#
# Convention : Reuss Voigt Hill
#
# Bulk Modulus (GPa) = 14.80181 72.43420 43.61801
# Shear Modulus (GPa) = -3.58195 20.80095 8.60950
#
# Velocity S-wave (km/s) = -1.42047 3.42305 2.20222
# Velocity P-wave (km/s) = 2.37648 7.51170 5.57105
#
# Compressibility (1/GPa) = 0.06755930
#
# Stress axis : x y z
#
# Youngs Moduli (GPa) = 60.05953 12.08321 92.70788
#
# Poissons Ratio (x) = 0.09028 0.81953
# Poissons Ratio (y) = 0.44873 0.46419
# Poissons Ratio (z) = 0.53092 0.06050
#
# Static dielectric constant tensor:
#      x y z
#    x 3.530780 0.000000 0.000000 
#    y 0.000000 2.481450 0.000000 
#    z 0.000000 0.000000 3.695900 
# 
# 
# High freq. dielectric constant tensor:
#      x y z
#    x 1.689710 0.000000 0.000000 
#    y 0.000000 1.598500 0.000000 
#    z 0.000000 0.000000 1.707850 
# 
# From -- ./inp_files/76621.got.cif
#   From: 2010.03.12/outbox.cif.g09.slc.cpg/sg65_39_cif.got.tgz:76621.got - 2010.04.10 20:52:16.
