data_PCOD8272950
_publ_section_title
;
Structure prediction by ZEFSAII (Michael W. Deem and Ramdas Pophale) SiO2 
 PCOD8272950
Probable space group: C M M M
;
_chemical_formula_sum "Si O2"
_cell_formula_units_Z 72
_cell_length_a 8.809908
_cell_length_b 18.754860
_cell_length_c 23.504037
_cell_angle_alpha 90.000000
_cell_angle_beta 90.000000
_cell_angle_gamma 90.000000
_cell_volume 3883.538920
_symmetry_space_group_name_H-M "C M M M"
_symmetry_group_IT_number 65
_symmetry_cell_setting 'orthorhombic'
loop_
_space_group_symop_operation_xyz
x,y,z
-x,-y,z
x,-y,-z
-x,y,-z
-x,-y,-z
x,y,-z
-x,y,z
x,-y,z
1/2+x,1/2+y,z
1/2-x,1/2-y,z
1/2+x,1/2-y,-z
1/2-x,1/2+y,-z
1/2-x,1/2-y,-z
1/2+x,1/2+y,-z
1/2-x,1/2+y,z
1/2+x,1/2-y,z
loop_
_atom_site_type_symbol
_atom_site_label
_atom_site_fract_x
_atom_site_fract_y
_atom_site_fract_z
Si Si1 0.678921 0.172025 0.734007
Si Si2 0.323536 0.326347 0.500000
Si Si3 0.820697 0.171951 0.621572
Si Si4 0.176790 0.082697 0.832193
Si Si5 0.822227 0.176824 0.063511
O O1 0.500000 0.180271 0.730057
O O2 0.750000 0.250000 0.743389
O O3 0.741998 0.134395 0.675829
O O4 0.721761 0.121006 0.785439
O O5 0.500000 0.310421 0.500000
O O6 0.250000 0.250000 0.500000
O O7 0.283137 0.366563 0.439955
O O8 0.750000 0.250000 0.618749
O O9 0.000000 0.175506 0.632510
O O10 0.221906 0.113152 0.894063
O O11 0.000000 0.096220 0.818757
O O12 0.217838 0.000000 0.832376
O O13 0.750000 0.250000 0.086177
O O14 0.000000 0.189114 0.062434
O O15 0.762138 0.157838 0.000000
#
# Coordination Sequence:
#
# PCOD8272950 Si02
#       5
#    16   8  16  16  16
#     4  11  21  33  50  72  99 132 171 211 251 296
#     4   8  14  22  36  60  91 124 155 194 243 295
#     4   9  15  25  41  64  94 126 161 200 246 296
#     4  10  21  36  53  74 101 133 168 207 252 298
#     4   9  18  33  54  79 104 131 164 201 242 291
#
# _framework density 18.539791000000001
#
# number of rings (size 3 to 8) (size 9 to 14) (size 15 to 20)
#    0.000    2.444    0.000    4.667    0.000    4.444 
#    0.000    2.222    0.000    0.000    0.000    5.444 
#    0.000    6.222    0.000    0.000    0.000    0.000 
#
# Total GULP energy -446009.650616 kJ/mol
# GULP energy per Si atom -12389.156962 kJ/mol
# Density = 1.849759 g / cm^3
# Si number density = 18.539791 Si / 1000 Ang^3
#
#
#
# Elastic Constant Matrix: (Units=GPa)
#
#
# Indices 1 2 3 4 5 6 
#
# 1 87.9048 35.5206 59.6921 0.0000 0.0000 0.0000
# 2 35.5206 73.4777 60.0920 0.0000 0.0000 0.0000
# 3 59.6921 60.0920 162.9259 0.0000 0.0000 0.0000
# 4 0.0000 0.0000 0.0000 -2.4484 0.0000 0.0000
# 5 0.0000 0.0000 0.0000 0.0000 24.4043 0.0000
# 6 0.0000 0.0000 0.0000 0.0000 0.0000 18.6609
#
#
#
# Elastic Compliance Matrix: (Units=1/GPa)
#
#
# Indices 1 2 3 4 5 6 
#
# 1 0.016005 -0.004212 -0.004310 0.000000 0.000000 0.000000
# 2 -0.004212 0.020596 -0.006053 0.000000 0.000000 0.000000
# 3 -0.004310 -0.006053 0.009950 0.000000 0.000000 0.000000
# 4 0.000000 0.000000 0.000000 -0.408434 0.000000 0.000000
# 5 0.000000 0.000000 0.000000 0.000000 0.040976 0.000000
# 6 0.000000 0.000000 0.000000 0.000000 0.000000 0.053588
#
#
# Mechanical properties :
#
#
# Convention : Reuss Voigt Hill
#
# Bulk Modulus (GPa) = 57.47297 70.54642 64.00969
# Shear Modulus (GPa) = -21.51761 19.39029 -1.06366
#
# Velocity S-wave (km/s) = -3.41048 3.23751 -0.75826
# Velocity P-wave (km/s) = 3.94444 7.21867 5.81669
#
# Compressibility (1/GPa) = 0.01739948
#
# Stress axis : x y z
#
# Youngs Moduli (GPa) = 62.48108 48.55224 100.50658
#
# Poissons Ratio (x) = 0.20450 0.43321
# Poissons Ratio (y) = 0.26317 0.60840
# Poissons Ratio (z) = 0.26931 0.29390
#
# Static dielectric constant tensor:
#      x y z
#    x 3.367760 0.000000 0.000000 
#    y 0.000000 2.928480 0.000000 
#    z 0.000000 0.000000 4.536520 
# 
# 
# High freq. dielectric constant tensor:
#      x y z
#    x 1.720930 0.000000 0.000000 
#    y 0.000000 1.657530 0.000000 
#    z 0.000000 0.000000 1.753610 
# 
# From -- ./inp_files/66992.got.cif
#   From: 2010.03.12/outbox.cif.g09.slc.cpg/sg65_34_cif.got.tgz:66992.got - 2010.04.10 20:52:16.
