data_PCOD8272146
_publ_section_title
;
Structure prediction by ZEFSAII (Michael W. Deem and Ramdas Pophale) SiO2 
 PCOD8272146
Probable space group: C M M M
;
_chemical_formula_sum "Si O2"
_cell_formula_units_Z 104
_cell_length_a 20.716910
_cell_length_b 27.217398
_cell_length_c 9.567844
_cell_angle_alpha 90.000000
_cell_angle_beta 90.000000
_cell_angle_gamma 90.000000
_cell_volume 5394.928200
_symmetry_space_group_name_H-M "C M M M"
_symmetry_group_IT_number 65
_symmetry_cell_setting 'orthorhombic'
loop_
_space_group_symop_operation_xyz
x,y,z
-x,-y,z
x,-y,-z
-x,y,-z
-x,-y,-z
x,y,-z
-x,y,z
x,-y,z
1/2+x,1/2+y,z
1/2-x,1/2-y,z
1/2+x,1/2-y,-z
1/2-x,1/2+y,-z
1/2-x,1/2-y,-z
1/2+x,1/2+y,-z
1/2-x,1/2+y,z
1/2+x,1/2-y,z
loop_
_atom_site_type_symbol
_atom_site_label
_atom_site_fract_x
_atom_site_fract_y
_atom_site_fract_z
Si Si1 0.500000 0.058946 0.831850
Si Si2 0.427492 0.441267 0.000000
Si Si3 0.192252 0.212063 0.843753
Si Si4 0.655390 0.442343 0.250907
Si Si5 0.929479 0.058434 0.500000
Si Si6 0.928514 0.723064 0.840090
Si Si7 0.095522 0.627419 0.668388
Si Si8 0.245625 0.628577 0.335664
O O1 0.562294 0.082207 0.752266
O O2 0.500000 0.000000 0.810008
O O3 0.500000 0.071142 0.000000
O O4 0.384745 0.420562 0.124090
O O5 0.432706 0.500000 0.000000
O O6 0.500000 0.419186 0.000000
O O7 0.250000 0.250000 0.845259
O O8 0.125783 0.237859 0.793124
O O9 0.211882 0.170969 0.733777
O O10 0.183046 0.190066 0.000000
O O11 0.663401 0.500000 0.242385
O O12 0.610194 0.422291 0.371341
O O13 0.727126 0.421937 0.271361
O O14 0.000000 0.082574 0.500000
O O15 0.935354 0.000000 0.500000
O O16 0.931015 0.677841 0.732085
O O17 0.000000 0.747455 0.834478
O O18 0.913538 0.705239 0.000000
O O19 0.082261 0.623952 0.500000
O O20 0.171023 0.627978 0.703733
O O21 0.255640 0.632478 0.500000
#
# Coordination Sequence:
#
# PCOD8272146 Si02
#       8
#     8   8  16  16   8  16  16  16
#     4  11  25  45  65  93 131 167 209 261 316 375
#     4   9  18  34  56  82 109 145 197 251 298 340
#     4  10  21  38  62  90 118 157 205 251 302 364
#     4  10  20  36  56  83 117 154 198 245 296 357
#     4   9  16  30  56  80 103 147 199 239 278 340
#     4  10  20  38  64  91 119 155 204 255 305 368
#     4  11  23  38  63  94 121 160 207 251 306 371
#     4  11  24  39  59  90 126 164 203 248 304 363
#
# _framework density 19.277365
#
# number of rings (size 3 to 8) (size 9 to 14) (size 15 to 20)
#    0.000    1.769    3.077    1.154    1.077    4.615 
#    0.000    3.077    0.000    0.000    0.000    0.000 
#    0.000    0.000    0.000    0.000    0.000    0.000 
#
# Total GULP energy -644298.213122 kJ/mol
# GULP energy per Si atom -12390.350252 kJ/mol
# Density = 1.923349 g / cm^3
# Si number density = 19.277365 Si / 1000 Ang^3
#
#
#
# Elastic Constant Matrix: (Units=GPa)
#
#
# Indices 1 2 3 4 5 6 
#
# 1 162.4513 54.0111 53.9272 0.0000 0.0000 0.0000
# 2 54.0111 72.8634 44.8998 0.0000 0.0000 0.0000
# 3 53.9272 44.8998 128.2926 0.0000 0.0000 0.0000
# 4 0.0000 0.0000 0.0000 31.4968 0.0000 0.0000
# 5 0.0000 0.0000 0.0000 0.0000 72.3964 0.0000
# 6 0.0000 0.0000 0.0000 0.0000 0.0000 31.7797
#
#
#
# Elastic Compliance Matrix: (Units=1/GPa)
#
#
# Indices 1 2 3 4 5 6 
#
# 1 0.008462 -0.005203 -0.001736 0.000000 0.000000 0.000000
# 2 -0.005203 0.020697 -0.005057 0.000000 0.000000 0.000000
# 3 -0.001736 -0.005057 0.010294 0.000000 0.000000 0.000000
# 4 0.000000 0.000000 0.000000 0.031749 0.000000 0.000000
# 5 0.000000 0.000000 0.000000 0.000000 0.013813 0.000000
# 6 0.000000 0.000000 0.000000 0.000000 0.000000 0.031467
#
#
# Mechanical properties :
#
#
# Convention : Reuss Voigt Hill
#
# Bulk Modulus (GPa) = 64.67386 74.36482 69.51934
# Shear Modulus (GPa) = 34.33457 41.18587 37.76022
#
# Velocity S-wave (km/s) = 4.22487 4.62723 4.43062
# Velocity P-wave (km/s) = 7.57768 8.19807 7.89397
#
# Compressibility (1/GPa) = 0.01546220
#
# Stress axis : x y z
#
# Youngs Moduli (GPa) = 118.17931 48.31674 97.14288
#
# Poissons Ratio (x) = 0.25137 0.16864
# Poissons Ratio (y) = 0.61484 0.49121
# Poissons Ratio (z) = 0.20516 0.24432
#
# Static dielectric constant tensor:
#      x y z
#    x 3.819330 0.000000 0.000000 
#    y 0.000000 3.477180 0.000000 
#    z 0.000000 0.000000 3.762130 
# 
# 
# High freq. dielectric constant tensor:
#      x y z
#    x 1.770250 0.000000 0.000000 
#    y 0.000000 1.720310 0.000000 
#    z 0.000000 0.000000 1.762520 
# 
# From -- ./inp_files/12464.got.cif
#   From: 2010.03.12/outbox.cif.g09.slc.cpg/sg65_7_cif.got.tgz:12464.got - 2010.04.10 20:52:16.
