data_PCOD8272757
_publ_section_title
;
Structure prediction by ZEFSAII (Michael W. Deem and Ramdas Pophale) SiO2 
 PCOD8272757
Probable space group: C M M M
;
_chemical_formula_sum "Si O2"
_cell_formula_units_Z 104
_cell_length_a 18.499943
_cell_length_b 9.226101
_cell_length_c 33.149872
_cell_angle_alpha 90.000000
_cell_angle_beta 90.000000
_cell_angle_gamma 90.000000
_cell_volume 5658.097810
_symmetry_space_group_name_H-M "C M M M"
_symmetry_group_IT_number 65
_symmetry_cell_setting 'orthorhombic'
loop_
_space_group_symop_operation_xyz
x,y,z
-x,-y,z
x,-y,-z
-x,y,-z
-x,-y,-z
x,y,-z
-x,y,z
x,-y,z
1/2+x,1/2+y,z
1/2-x,1/2-y,z
1/2+x,1/2-y,-z
1/2-x,1/2+y,-z
1/2-x,1/2-y,-z
1/2+x,1/2+y,-z
1/2-x,1/2+y,z
1/2+x,1/2-y,z
loop_
_atom_site_type_symbol
_atom_site_label
_atom_site_fract_x
_atom_site_fract_y
_atom_site_fract_z
Si Si1 0.674265 0.671389 0.889231
Si Si2 0.417222 0.829939 0.732429
Si Si3 0.583358 0.834586 0.953225
Si Si4 0.585974 0.336404 0.500000
Si Si5 0.416498 0.831263 0.421908
Si Si6 0.582781 0.331246 0.811719
Si Si7 0.325682 0.829096 0.655775
O O1 0.685539 0.500000 0.892192
O O2 0.750000 0.750000 0.886212
O O3 0.632480 0.723741 0.928775
O O4 0.628952 0.717304 0.850044
O O5 0.500000 0.785331 0.723653
O O6 0.387843 0.752699 0.772601
O O7 0.369335 0.776784 0.695035
O O8 0.410016 0.000000 0.739156
O O9 0.500000 0.797786 0.944633
O O10 0.600235 0.000000 0.940422
O O11 0.601591 0.812205 0.000000
O O12 0.615523 0.500000 0.500000
O O13 0.500000 0.330773 0.500000
O O14 0.614828 0.256129 0.460108
O O15 0.500000 0.793468 0.413401
O O16 0.371612 0.782376 0.383078
O O17 0.406975 0.000000 0.431484
O O18 0.500000 0.288664 0.820723
O O19 0.591241 0.500000 0.802756
O O20 0.250000 0.750000 0.654516
O O21 0.312840 0.000000 0.656633
#
# Coordination Sequence:
#
# PCOD8272757 Si02
#       7
#    16  16  16   8  16  16  16
#     4  11  23  37  54  78 110 146 182 220 263 313
#     4   9  18  34  56  79 101 130 171 214 254 300
#     4   9  19  37  60  84 109 138 175 220 268 318
#     4   9  17  29  48  77 106 127 157 207 258 299
#     4   9  17  32  54  75  97 130 170 208 247 295
#     4   9  19  36  56  78 104 134 171 216 263 310
#     4  10  21  35  51  74 104 135 168 207 251 301
#
# _framework density 18.380735000000001
#
# number of rings (size 3 to 8) (size 9 to 14) (size 15 to 20)
#    0.000    2.538    0.000    2.077    0.000    7.385 
#    0.000    5.769    0.000    4.615    0.000    0.000 
#    0.000    0.000    0.000    0.000    0.000    0.000 
#
# Total GULP energy -644936.129392 kJ/mol
# GULP energy per Si atom -12402.617873 kJ/mol
# Density = 1.833890 g / cm^3
# Si number density = 18.380735 Si / 1000 Ang^3
#
#
#
# Elastic Constant Matrix: (Units=GPa)
#
#
# Indices 1 2 3 4 5 6 
#
# 1 102.9421 51.6163 80.9800 0.0000 0.0000 0.0000
# 2 51.6163 68.5482 68.0301 0.0000 0.0000 0.0000
# 3 80.9800 68.0301 157.2650 0.0000 0.0000 0.0000
# 4 0.0000 0.0000 0.0000 33.4033 0.0000 0.0000
# 5 0.0000 0.0000 0.0000 0.0000 5.0765 0.0000
# 6 0.0000 0.0000 0.0000 0.0000 0.0000 10.2215
#
#
#
# Elastic Compliance Matrix: (Units=1/GPa)
#
#
# Indices 1 2 3 4 5 6 
#
# 1 0.018446 -0.007821 -0.006115 0.000000 0.000000 0.000000
# 2 -0.007821 0.028878 -0.008465 0.000000 0.000000 0.000000
# 3 -0.006115 -0.008465 0.013170 0.000000 0.000000 0.000000
# 4 0.000000 0.000000 0.000000 0.029937 0.000000 0.000000
# 5 0.000000 0.000000 0.000000 0.000000 0.196986 0.000000
# 6 0.000000 0.000000 0.000000 0.000000 0.000000 0.097833
#
#
# Mechanical properties :
#
#
# Convention : Reuss Voigt Hill
#
# Bulk Modulus (GPa) = 63.72817 81.11202 72.42010
# Shear Modulus (GPa) = 11.48677 18.28219 14.88448
#
# Velocity S-wave (km/s) = 2.50258 3.15721 2.84876
# Velocity P-wave (km/s) = 6.56483 7.58388 7.09268
#
# Compressibility (1/GPa) = 0.01569165
#
# Stress axis : x y z
#
# Youngs Moduli (GPa) = 54.21135 34.62788 75.93272
#
# Poissons Ratio (x) = 0.27082 0.46436
# Poissons Ratio (y) = 0.42398 0.64278
# Poissons Ratio (z) = 0.33152 0.29313
#
# Static dielectric constant tensor:
#      x y z
#    x 3.278330 0.000000 0.000000 
#    y 0.000000 3.329650 0.000000 
#    z 0.000000 0.000000 3.534090 
# 
# 
# High freq. dielectric constant tensor:
#      x y z
#    x 1.701170 0.000000 0.000000 
#    y 0.000000 1.708740 0.000000 
#    z 0.000000 0.000000 1.725780 
# 
# From -- ./inp_files/78272.got.cif
#   From: 2010.03.12/outbox.cif.g09.slc.cpg/sg65_40_cif.got.tgz:78272.got - 2010.04.10 20:52:16.
