data_PCOD8272344
_publ_section_title
;
Structure prediction by ZEFSAII (Michael W. Deem and Ramdas Pophale) SiO2 
 PCOD8272344
Probable space group: C M M M
;
_chemical_formula_sum "Si O2"
_cell_formula_units_Z 88
_cell_length_a 18.351844
_cell_length_b 19.359867
_cell_length_c 12.697297
_cell_angle_alpha 90.000000
_cell_angle_beta 90.000000
_cell_angle_gamma 90.000000
_cell_volume 4511.213243
_symmetry_space_group_name_H-M "C M M M"
_symmetry_group_IT_number 65
_symmetry_cell_setting 'orthorhombic'
loop_
_space_group_symop_operation_xyz
x,y,z
-x,-y,z
x,-y,-z
-x,y,-z
-x,-y,-z
x,y,-z
-x,y,z
x,-y,z
1/2+x,1/2+y,z
1/2-x,1/2-y,z
1/2+x,1/2-y,-z
1/2-x,1/2+y,-z
1/2-x,1/2-y,-z
1/2+x,1/2+y,-z
1/2-x,1/2+y,z
1/2+x,1/2-y,z
loop_
_atom_site_type_symbol
_atom_site_label
_atom_site_fract_x
_atom_site_fract_y
_atom_site_fract_z
Si Si1 0.326549 0.081560 0.202589
Si Si2 0.913834 0.074396 0.383744
Si Si3 0.581574 0.918303 0.000000
Si Si4 0.210193 0.821909 0.883256
Si Si5 0.584845 0.845855 0.623134
Si Si6 0.584448 0.296021 0.741306
O O1 0.250396 0.122773 0.192901
O O2 0.367054 0.099085 0.312245
O O3 0.310903 0.000000 0.199014
O O4 0.376982 0.106781 0.104948
O O5 0.879624 0.077363 0.500000
O O6 0.882857 0.137967 0.319338
O O7 0.000000 0.082431 0.391761
O O8 0.893467 0.000000 0.331595
O O9 0.500000 0.886242 0.000000
O O10 0.576432 0.000000 0.000000
O O11 0.250000 0.750000 0.882854
O O12 0.129028 0.799932 0.848773
O O13 0.206291 0.854460 0.000000
O O14 0.607051 0.847493 0.500000
O O15 0.500000 0.865268 0.636480
O O16 0.600970 0.770258 0.669657
O O17 0.500000 0.301703 0.770231
#
# Coordination Sequence:
#
# PCOD8272344 Si02
#       6
#    16  16   8  16  16  16
#     4  11  22  39  61  88 121 161 205 249 305 367
#     4   8  14  27  50  80 112 146 188 240 290 336
#     4   9  18  34  59  90 119 149 195 254 303 351
#     4  11  23  41  61  84 117 158 200 247 307 364
#     4  10  21  38  61  91 127 165 202 245 305 372
#     4  10  20  36  60  89 119 157 204 249 300 363
#
# _framework density 19.506947
#
# number of rings (size 3 to 8) (size 9 to 14) (size 15 to 20)
#    0.000    2.091    2.727    1.636    0.000    4.727 
#    0.000    3.636    0.000    0.000    0.000    3.818 
#    0.000    0.000    0.000    0.000    0.000    0.000 
#
# Total GULP energy -545376.431801 kJ/mol
# GULP energy per Si atom -12394.918905 kJ/mol
# Density = 1.946255 g / cm^3
# Si number density = 19.506947 Si / 1000 Ang^3
#
#
#
# Elastic Constant Matrix: (Units=GPa)
#
#
# Indices 1 2 3 4 5 6 
#
# 1 80.0406 24.8811 57.2839 0.0000 0.0000 0.0000
# 2 24.8811 90.4308 41.4351 0.0000 0.0000 0.0000
# 3 57.2839 41.4351 111.8593 0.0000 0.0000 0.0000
# 4 0.0000 0.0000 0.0000 55.6331 0.0000 0.0000
# 5 0.0000 0.0000 0.0000 0.0000 19.4851 0.0000
# 6 0.0000 0.0000 0.0000 0.0000 0.0000 24.8566
#
#
#
# Elastic Compliance Matrix: (Units=1/GPa)
#
#
# Indices 1 2 3 4 5 6 
#
# 1 0.019792 -0.000965 -0.009778 0.000000 0.000000 0.000000
# 2 -0.000965 0.013366 -0.004457 0.000000 0.000000 0.000000
# 3 -0.009778 -0.004457 0.015598 0.000000 0.000000 0.000000
# 4 0.000000 0.000000 0.000000 0.017975 0.000000 0.000000
# 5 0.000000 0.000000 0.000000 0.000000 0.051321 0.000000
# 6 0.000000 0.000000 0.000000 0.000000 0.000000 0.040231
#
#
# Mechanical properties :
#
#
# Convention : Reuss Voigt Hill
#
# Bulk Modulus (GPa) = 54.47878 58.83675 56.65777
# Shear Modulus (GPa) = 25.66732 30.57701 28.12217
#
# Velocity S-wave (km/s) = 3.63134 3.96345 3.80102
# Velocity P-wave (km/s) = 6.75060 7.15351 6.95498
#
# Compressibility (1/GPa) = 0.01835577
#
# Stress axis : x y z
#
# Youngs Moduli (GPa) = 50.52659 74.81793 64.11109
#
# Poissons Ratio (x) = 0.07222 0.62687
# Poissons Ratio (y) = 0.04877 0.28572
# Poissons Ratio (z) = 0.49404 0.33344
#
# Static dielectric constant tensor:
#      x y z
#    x 3.396520 0.000000 0.000000 
#    y 0.000000 3.621720 0.000000 
#    z 0.000000 0.000000 3.685090 
# 
# 
# High freq. dielectric constant tensor:
#      x y z
#    x 1.742250 0.000000 0.000000 
#    y 0.000000 1.764360 0.000000 
#    z 0.000000 0.000000 1.752970 
# 
# From -- ./inp_files/26809.got.cif
#   From: 2010.03.12/outbox.cif.g09.slc.cpg/sg65_14_cif.got.tgz:26809.got - 2010.04.10 20:52:16.
