data_PCOD8272660
_publ_section_title
;
Structure prediction by ZEFSAII (Michael W. Deem and Ramdas Pophale) SiO2 
 PCOD8272660
Probable space group: C M M M
;
_chemical_formula_sum "Si O2"
_cell_formula_units_Z 88
_cell_length_a 18.629908
_cell_length_b 9.397646
_cell_length_c 28.527160
_cell_angle_alpha 90.000000
_cell_angle_beta 90.000000
_cell_angle_gamma 90.000000
_cell_volume 4994.457590
_symmetry_space_group_name_H-M "C M M M"
_symmetry_group_IT_number 65
_symmetry_cell_setting 'orthorhombic'
loop_
_space_group_symop_operation_xyz
x,y,z
-x,-y,z
x,-y,-z
-x,y,-z
-x,-y,-z
x,y,-z
-x,y,z
x,-y,z
1/2+x,1/2+y,z
1/2-x,1/2-y,z
1/2+x,1/2-y,-z
1/2-x,1/2+y,-z
1/2-x,1/2-y,-z
1/2+x,1/2+y,-z
1/2-x,1/2+y,z
1/2+x,1/2-y,z
loop_
_atom_site_type_symbol
_atom_site_label
_atom_site_fract_x
_atom_site_fract_y
_atom_site_fract_z
Si Si1 0.078468 0.668499 0.222941
Si Si2 0.414459 0.838819 0.121727
Si Si3 0.679151 0.664995 0.945584
Si Si4 0.585806 0.159654 0.323016
Si Si5 0.082210 0.833393 0.411287
Si Si6 0.675704 0.332102 0.500000
O O1 0.068971 0.500000 0.225066
O O2 0.117278 0.706385 0.173434
O O3 0.117103 0.714212 0.272104
O O4 0.000000 0.740883 0.221749
O O5 0.500000 0.830517 0.122949
O O6 0.386807 0.728549 0.083343
O O7 0.390247 0.000000 0.109028
O O8 0.689978 0.500000 0.933219
O O9 0.750000 0.750000 0.930841
O O10 0.661161 0.687058 0.000000
O O11 0.500000 0.164167 0.319805
O O12 0.613808 0.259487 0.364702
O O13 0.612553 0.000000 0.333875
O O14 0.130113 0.784739 0.454901
O O15 0.000000 0.786925 0.421135
O O16 0.087174 0.000000 0.402905
O O17 0.690400 0.500000 0.500000
O O18 0.750000 0.250000 0.500000
#
# Coordination Sequence:
#
# PCOD8272660 Si02
#       6
#    16  16  16  16  16   8
#     4   7  11  22  41  66  96 126 152 180 220 270
#     4   9  17  30  50  75 101 129 160 193 231 279
#     4  10  21  36  52  69  92 124 161 201 244 288
#     4   8  13  23  42  68  95 121 150 185 224 265
#     4   9  17  30  48  69  92 118 150 188 229 271
#     4  10  21  35  49  65  89 122 154 186 228 276
#
# _framework density 17.619532
#
# number of rings (size 3 to 8) (size 9 to 14) (size 15 to 20)
#    0.000    3.273    0.000    3.000    0.000    3.636 
#    0.000    2.727    0.000    7.091    0.000    2.545 
#    0.000    0.000    0.000    0.000    0.000    0.000 
#
# Total GULP energy -545096.829531 kJ/mol
# GULP energy per Si atom -12388.564308 kJ/mol
# Density = 1.757943 g / cm^3
# Si number density = 17.619532 Si / 1000 Ang^3
#
#
#
# Elastic Constant Matrix: (Units=GPa)
#
#
# Indices 1 2 3 4 5 6 
#
# 1 45.6682 31.1710 45.7808 0.0000 0.0000 0.0000
# 2 31.1710 68.4974 62.8856 0.0000 0.0000 0.0000
# 3 45.7808 62.8856 143.8624 0.0000 0.0000 0.0000
# 4 0.0000 0.0000 0.0000 27.1888 0.0000 0.0000
# 5 0.0000 0.0000 0.0000 0.0000 2.4679 0.0000
# 6 0.0000 0.0000 0.0000 0.0000 0.0000 23.5583
#
#
#
# Elastic Compliance Matrix: (Units=1/GPa)
#
#
# Indices 1 2 3 4 5 6 
#
# 1 0.035634 -0.009697 -0.007101 0.000000 0.000000 0.000000
# 2 -0.009697 0.027024 -0.008727 0.000000 0.000000 0.000000
# 3 -0.007101 -0.008727 0.013026 0.000000 0.000000 0.000000
# 4 0.000000 0.000000 0.000000 0.036780 0.000000 0.000000
# 5 0.000000 0.000000 0.000000 0.000000 0.405209 0.000000
# 6 0.000000 0.000000 0.000000 0.000000 0.000000 0.042448
#
#
# Mechanical properties :
#
#
# Convention : Reuss Voigt Hill
#
# Bulk Modulus (GPa) = 40.59420 59.74476 50.16948
# Shear Modulus (GPa) = 8.07257 18.52235 13.29746
#
# Velocity S-wave (km/s) = 2.14279 3.24580 2.75016
# Velocity P-wave (km/s) = 5.40476 6.93028 6.21451
#
# Compressibility (1/GPa) = 0.02463406
#
# Stress axis : x y z
#
# Youngs Moduli (GPa) = 28.06294 37.00451 76.77189
#
# Poissons Ratio (x) = 0.35882 0.54516
# Poissons Ratio (y) = 0.27212 0.66999
# Poissons Ratio (z) = 0.19928 0.32294
#
# Static dielectric constant tensor:
#      x y z
#    x 2.805160 0.000000 0.000000 
#    y 0.000000 3.109660 0.000000 
#    z 0.000000 0.000000 3.783370 
# 
# 
# High freq. dielectric constant tensor:
#      x y z
#    x 1.629010 0.000000 0.000000 
#    y 0.000000 1.660050 0.000000 
#    z 0.000000 0.000000 1.705520 
# 
# From -- ./inp_files/77872.got.cif
#   From: 2010.03.12/outbox.cif.g09.slc.cpg/sg65_39_cif.got.tgz:77872.got - 2010.04.10 20:52:16.
