data_PCOD8272466
_publ_section_title
;
Structure prediction by ZEFSAII (Michael W. Deem and Ramdas Pophale) SiO2 
 PCOD8272466
Probable space group: C M M M
;
_chemical_formula_sum "Si O2"
_cell_formula_units_Z 96
_cell_length_a 23.820341
_cell_length_b 9.023916
_cell_length_c 23.066354
_cell_angle_alpha 90.000000
_cell_angle_beta 90.000000
_cell_angle_gamma 90.000000
_cell_volume 4958.176370
_symmetry_space_group_name_H-M "C M M M"
_symmetry_group_IT_number 65
_symmetry_cell_setting 'orthorhombic'
loop_
_space_group_symop_operation_xyz
x,y,z
-x,-y,z
x,-y,-z
-x,y,-z
-x,-y,-z
x,y,-z
-x,y,z
x,-y,z
1/2+x,1/2+y,z
1/2-x,1/2-y,z
1/2+x,1/2-y,-z
1/2-x,1/2+y,-z
1/2-x,1/2-y,-z
1/2+x,1/2+y,-z
1/2-x,1/2+y,z
1/2+x,1/2-y,z
loop_
_atom_site_type_symbol
_atom_site_label
_atom_site_fract_x
_atom_site_fract_y
_atom_site_fract_z
Si Si1 0.500000 0.324753 0.734338
Si Si2 0.379640 0.672252 0.434032
Si Si3 0.000000 0.824972 0.066348
Si Si4 0.500000 0.675243 0.603782
Si Si5 0.190197 0.324611 0.335684
Si Si6 0.309587 0.174472 0.000000
Si Si7 0.389748 0.169415 0.768117
Si Si8 0.889149 0.330050 0.102542
O O1 0.500000 0.500000 0.736050
O O2 0.500000 0.262629 0.668929
O O3 0.445201 0.267705 0.766635
O O4 0.359881 0.694713 0.500000
O O5 0.375466 0.500000 0.415537
O O6 0.443738 0.731070 0.428201
O O7 0.339512 0.768569 0.393843
O O8 0.054629 0.764643 0.098324
O O9 0.000000 0.000000 0.071495
O O10 0.000000 0.770921 0.000000
O O11 0.500000 0.500000 0.603228
O O12 0.197581 0.500000 0.339424
O O13 0.250000 0.250000 0.329476
O O14 0.154793 0.274951 0.279373
O O15 0.250000 0.250000 0.000000
O O16 0.343136 0.228176 0.056987
O O17 0.300295 0.000000 0.000000
O O18 0.363818 0.186457 0.832608
O O19 0.406529 0.000000 0.755239
O O20 0.904571 0.500000 0.088591
#
# Coordination Sequence:
#
# PCOD8272466 Si02
#       8
#     8  16   8   8  16   8  16  16
#     4  11  20  33  59  89 119 152 187 227 280 342
#     4  10  20  37  62  89 117 151 190 232 281 339
#     4  11  22  35  56  89 123 150 185 237 289 332
#     4   9  17  32  57  88 118 147 180 224 276 336
#     4  11  24  41  60  82 113 151 194 241 288 336
#     4  10  22  39  60  83 109 146 192 238 285 336
#     4  10  22  39  59  85 117 151 190 236 282 337
#     4  10  21  39  61  84 113 154 195 228 279 349
#
# _framework density 19.361958000000001
#
# number of rings (size 3 to 8) (size 9 to 14) (size 15 to 20)
#    0.000    1.750    2.500    1.750    0.000    6.667 
#    0.000    0.417    0.000    1.000    0.000    0.000 
#    0.000    0.000    0.000    0.000    0.000    0.000 
#
# Total GULP energy -595333.637815 kJ/mol
# GULP energy per Si atom -12402.784121 kJ/mol
# Density = 1.931789 g / cm^3
# Si number density = 19.361958 Si / 1000 Ang^3
#
#
#
# Elastic Constant Matrix: (Units=GPa)
#
#
# Indices 1 2 3 4 5 6 
#
# 1 152.4192 51.3537 66.0577 0.0000 0.0000 0.0000
# 2 51.3537 62.4065 41.1187 0.0000 0.0000 0.0000
# 3 66.0577 41.1187 141.5444 0.0000 0.0000 0.0000
# 4 0.0000 0.0000 0.0000 26.8234 0.0000 0.0000
# 5 0.0000 0.0000 0.0000 0.0000 7.7568 0.0000
# 6 0.0000 0.0000 0.0000 0.0000 0.0000 -9.7684
#
#
#
# Elastic Compliance Matrix: (Units=1/GPa)
#
#
# Indices 1 2 3 4 5 6 
#
# 1 0.009892 -0.006305 -0.002785 0.000000 0.000000 0.000000
# 2 -0.006305 0.023836 -0.003982 0.000000 0.000000 0.000000
# 3 -0.002785 -0.003982 0.009521 0.000000 0.000000 0.000000
# 4 0.000000 0.000000 0.000000 0.037281 0.000000 0.000000
# 5 0.000000 0.000000 0.000000 0.000000 0.128919 0.000000
# 6 0.000000 0.000000 0.000000 0.000000 0.000000 -0.102371
#
#
# Mechanical properties :
#
#
# Convention : Reuss Voigt Hill
#
# Bulk Modulus (GPa) = 58.46019 74.82559 66.64289
# Shear Modulus (GPa) = 35.99085 18.15170 27.07128
#
# Velocity S-wave (km/s) = 4.31611 3.06517 3.74327
# Velocity P-wave (km/s) = 7.42275 7.15937 7.29225
#
# Compressibility (1/GPa) = 0.01710566
#
# Stress axis : x y z
#
# Youngs Moduli (GPa) = 101.08955 41.95336 105.02733
#
# Poissons Ratio (x) = 0.26453 0.29250
# Poissons Ratio (y) = 0.63739 0.41819
# Poissons Ratio (z) = 0.28153 0.16705
#
# Static dielectric constant tensor:
#      x y z
#    x 3.502830 0.000000 0.000000 
#    y 0.000000 3.400070 0.000000 
#    z 0.000000 0.000000 3.778970 
# 
# 
# High freq. dielectric constant tensor:
#      x y z
#    x 1.747260 0.000000 0.000000 
#    y 0.000000 1.741020 0.000000 
#    z 0.000000 0.000000 1.771090 
# 
# From -- ./inp_files/71494.got.cif
#   From: 2010.03.12/outbox.cif.g09.slc.cpg/sg65_36_cif.got.tgz:71494.got - 2010.04.10 20:52:16.
