data_PCOD8272875
_publ_section_title
;
Structure prediction by ZEFSAII (Michael W. Deem and Ramdas Pophale) SiO2 
 PCOD8272875
Probable space group: C M M M
;
_chemical_formula_sum "Si O2"
_cell_formula_units_Z 88
_cell_length_a 28.988456
_cell_length_b 8.841915
_cell_length_c 20.928480
_cell_angle_alpha 90.000000
_cell_angle_beta 90.000000
_cell_angle_gamma 90.000000
_cell_volume 5364.251204
_symmetry_space_group_name_H-M "C M M M"
_symmetry_group_IT_number 65
_symmetry_cell_setting 'orthorhombic'
loop_
_space_group_symop_operation_xyz
x,y,z
-x,-y,z
x,-y,-z
-x,y,-z
-x,-y,-z
x,y,-z
-x,y,z
x,-y,z
1/2+x,1/2+y,z
1/2-x,1/2-y,z
1/2+x,1/2-y,-z
1/2-x,1/2+y,-z
1/2-x,1/2-y,-z
1/2+x,1/2+y,-z
1/2-x,1/2+y,z
1/2+x,1/2-y,z
loop_
_atom_site_type_symbol
_atom_site_label
_atom_site_fract_x
_atom_site_fract_y
_atom_site_fract_z
Si Si1 0.798424 0.177182 0.925987
Si Si2 0.945618 0.668526 0.000000
Si Si3 0.200010 0.321532 0.705580
Si Si4 0.947222 0.178489 0.869541
Si Si5 0.861754 0.320517 0.822027
Si Si6 0.200472 0.677359 0.432585
O O1 0.750000 0.250000 0.905570
O O2 0.838314 0.254210 0.885206
O O3 0.796236 0.000000 0.911222
O O4 0.809336 0.210224 0.000000
O O5 0.930000 0.761006 0.938031
O O6 0.923434 0.500000 0.000000
O O7 0.000000 0.653740 0.000000
O O8 0.206286 0.500000 0.711561
O O9 0.250000 0.250000 0.716662
O O10 0.165078 0.261928 0.759318
O O11 0.177944 0.275279 0.635683
O O12 0.913873 0.255453 0.817194
O O13 0.000000 0.225351 0.854642
O O14 0.941184 0.000000 0.868757
O O15 0.863267 0.500000 0.826001
O O16 0.174123 0.723096 0.500000
O O17 0.207719 0.500000 0.431696
O O18 0.250000 0.750000 0.434591
#
# Coordination Sequence:
#
# PCOD8272875 Si02
#       6
#    16   8  16  16  16  16
#     4  10  21  36  51  66  87 116 153 195 233 269
#     4   9  17  31  51  71  88 107 134 173 225 279
#     4   9  18  30  44  66  94 124 156 188 222 261
#     4  10  21  36  52  69  90 115 146 187 234 283
#     4  11  22  33  48  68  92 121 153 189 230 279
#     4   8  13  23  40  61  87 119 152 183 216 256
#
# _framework density 16.404900000000001
#
# number of rings (size 3 to 8) (size 9 to 14) (size 15 to 20)
#    0.000    2.455    0.000    2.455    1.273    6.182 
#    0.000    0.000    0.000    0.000    0.000    0.000 
#    0.000    0.727    0.000    9.091    0.000    1.455 
#
# Total GULP energy -545168.431069 kJ/mol
# GULP energy per Si atom -12390.191615 kJ/mol
# Density = 1.636756 g / cm^3
# Si number density = 16.404900 Si / 1000 Ang^3
#
#
#
# Elastic Constant Matrix: (Units=GPa)
#
#
# Indices 1 2 3 4 5 6 
#
# 1 85.9258 32.2709 62.7739 0.0000 0.0000 0.0000
# 2 32.2709 57.5616 35.4740 0.0000 0.0000 0.0000
# 3 62.7739 35.4740 120.2453 0.0000 0.0000 0.0000
# 4 0.0000 0.0000 0.0000 14.1205 0.0000 0.0000
# 5 0.0000 0.0000 0.0000 0.0000 10.4820 0.0000
# 6 0.0000 0.0000 0.0000 0.0000 0.0000 24.7340
#
#
#
# Elastic Compliance Matrix: (Units=1/GPa)
#
#
# Indices 1 2 3 4 5 6 
#
# 1 0.020350 -0.005942 -0.008871 0.000000 0.000000 0.000000
# 2 -0.005942 0.022968 -0.003674 0.000000 0.000000 0.000000
# 3 -0.008871 -0.003674 0.014031 0.000000 0.000000 0.000000
# 4 0.000000 0.000000 0.000000 0.070819 0.000000 0.000000
# 5 0.000000 0.000000 0.000000 0.000000 0.095401 0.000000
# 6 0.000000 0.000000 0.000000 0.000000 0.000000 0.040430
#
#
# Mechanical properties :
#
#
# Convention : Reuss Voigt Hill
#
# Bulk Modulus (GPa) = 49.07729 58.30782 53.69255
# Shear Modulus (GPa) = 16.24612 18.74823 17.49718
#
# Velocity S-wave (km/s) = 3.15035 3.38426 3.26940
# Velocity P-wave (km/s) = 6.57375 7.13380 6.85949
#
# Compressibility (1/GPa) = 0.02037602
#
# Stress axis : x y z
#
# Youngs Moduli (GPa) = 49.13936 43.53850 71.26984
#
# Poissons Ratio (x) = 0.25871 0.63222
# Poissons Ratio (y) = 0.29199 0.26184
# Poissons Ratio (z) = 0.43591 0.15995
#
# Static dielectric constant tensor:
#      x y z
#    x 2.961980 0.000000 0.000000 
#    y 0.000000 3.378650 0.000000 
#    z 0.000000 0.000000 3.715540 
# 
# 
# High freq. dielectric constant tensor:
#      x y z
#    x 1.596010 0.000000 0.000000 
#    y 0.000000 1.642470 0.000000 
#    z 0.000000 0.000000 1.628660 
# 
# From -- ./inp_files/60635.got.cif
#   From: 2010.03.12/outbox.cif.g09.slc.cpg/sg65_31_cif.got.tgz:60635.got - 2010.04.10 20:52:16.
