data_PCOD8272398
_publ_section_title
;
Structure prediction by ZEFSAII (Michael W. Deem and Ramdas Pophale) SiO2 
 PCOD8272398
Probable space group: C M M M
;
_chemical_formula_sum "Si O2"
_cell_formula_units_Z 104
_cell_length_a 18.702792
_cell_length_b 24.952223
_cell_length_c 12.569090
_cell_angle_alpha 90.000000
_cell_angle_beta 90.000000
_cell_angle_gamma 90.000000
_cell_volume 5865.695620
_symmetry_space_group_name_H-M "C M M M"
_symmetry_group_IT_number 65
_symmetry_cell_setting 'orthorhombic'
loop_
_space_group_symop_operation_xyz
x,y,z
-x,-y,z
x,-y,-z
-x,y,-z
-x,-y,-z
x,y,-z
-x,y,z
x,-y,z
1/2+x,1/2+y,z
1/2-x,1/2-y,z
1/2+x,1/2-y,-z
1/2-x,1/2+y,-z
1/2-x,1/2-y,-z
1/2+x,1/2+y,-z
1/2-x,1/2+y,z
1/2+x,1/2-y,z
loop_
_atom_site_type_symbol
_atom_site_label
_atom_site_fract_x
_atom_site_fract_y
_atom_site_fract_z
Si Si1 0.325339 0.278401 0.619899
Si Si2 0.822968 0.782045 0.000000
Si Si3 0.084085 0.500000 0.125763
Si Si4 0.809672 0.140954 0.802658
Si Si5 0.080144 0.938562 0.122122
Si Si6 0.415438 0.180229 0.000000
Si Si7 0.145858 0.612497 0.807144
Si Si8 0.416412 0.821533 0.623423
O O1 0.340613 0.297380 0.500000
O O2 0.250000 0.250000 0.630930
O O3 0.323801 0.330982 0.690797
O O4 0.385488 0.236259 0.658034
O O5 0.750000 0.750000 0.000000
O O6 0.827332 0.817701 0.895639
O O7 0.889044 0.741247 0.000000
O O8 0.121448 0.448387 0.176742
O O9 0.000000 0.500000 0.152747
O O10 0.096984 0.500000 0.000000
O O11 0.865119 0.092488 0.803613
O O12 0.730993 0.116633 0.814590
O O13 0.000000 0.916121 0.138474
O O14 0.083111 0.000000 0.156371
O O15 0.103678 0.931497 0.000000
O O16 0.388434 0.150261 0.895662
O O17 0.500000 0.179936 0.000000
O O18 0.119898 0.631439 0.691298
O O19 0.398470 0.833057 0.500000
O O20 0.500000 0.820710 0.646428
#
# Coordination Sequence:
#
# PCOD8272398 Si02
#       8
#    16   8   8  16  16   8  16  16
#     4  10  20  37  59  82 114 153 191 228 276 333
#     4  12  22  36  49  81 119 146 177 230 284 340
#     4  11  24  40  57  79 112 148 195 241 281 341
#     4  12  22  35  59  86 117 147 187 236 285 337
#     4   9  20  39  60  83 115 152 189 231 284 344
#     4  12  24  37  55  77 114 157 186 220 282 349
#     4  12  23  38  58  84 113 150 190 237 286 340
#     4  10  21  38  61  86 114 152 195 235 280 337
#
# _framework density 17.730208000000001
#
# number of rings (size 3 to 8) (size 9 to 14) (size 15 to 20)
#    0.000    1.154    4.615    3.231    1.077    1.231 
#    0.000    0.385    0.000    1.846    0.000    1.077 
#    0.000    0.000    0.000    0.000    0.000    0.000 
#
# Total GULP energy -645001.773025 kJ/mol
# GULP energy per Si atom -12403.880250 kJ/mol
# Density = 1.768985 g / cm^3
# Si number density = 17.730208 Si / 1000 Ang^3
#
#
#
# Elastic Constant Matrix: (Units=GPa)
#
#
# Indices 1 2 3 4 5 6 
#
# 1 126.7154 72.4461 44.4169 0.0000 0.0000 0.0000
# 2 72.4461 120.1589 56.3848 0.0000 0.0000 0.0000
# 3 44.4169 56.3848 84.7904 0.0000 0.0000 0.0000
# 4 0.0000 0.0000 0.0000 31.0131 0.0000 0.0000
# 5 0.0000 0.0000 0.0000 0.0000 46.0281 0.0000
# 6 0.0000 0.0000 0.0000 0.0000 0.0000 34.0079
#
#
#
# Elastic Compliance Matrix: (Units=1/GPa)
#
#
# Indices 1 2 3 4 5 6 
#
# 1 0.012319 -0.006395 -0.002201 0.000000 0.000000 0.000000
# 2 -0.006395 0.015417 -0.006902 0.000000 0.000000 0.000000
# 3 -0.002201 -0.006902 0.017537 0.000000 0.000000 0.000000
# 4 0.000000 0.000000 0.000000 0.032244 0.000000 0.000000
# 5 0.000000 0.000000 0.000000 0.000000 0.021726 0.000000
# 6 0.000000 0.000000 0.000000 0.000000 0.000000 0.029405
#
#
# Mechanical properties :
#
#
# Convention : Reuss Voigt Hill
#
# Bulk Modulus (GPa) = 70.04294 75.35116 72.69705
# Shear Modulus (GPa) = 30.41328 32.77095 31.59212
#
# Velocity S-wave (km/s) = 4.14616 4.30386 4.22575
# Velocity P-wave (km/s) = 7.90642 8.20297 8.05606
#
# Compressibility (1/GPa) = 0.01427696
#
# Stress axis : x y z
#
# Youngs Moduli (GPa) = 81.17445 64.86517 57.02378
#
# Poissons Ratio (x) = 0.41479 0.12550
# Poissons Ratio (y) = 0.51908 0.39358
# Poissons Ratio (z) = 0.17866 0.44771
#
# Static dielectric constant tensor:
#      x y z
#    x 3.478550 0.000000 0.000000 
#    y 0.000000 3.087530 0.000000 
#    z 0.000000 0.000000 3.374300 
# 
# 
# High freq. dielectric constant tensor:
#      x y z
#    x 1.700920 0.000000 0.000000 
#    y 0.000000 1.680990 0.000000 
#    z 0.000000 0.000000 1.680930 
# 
# From -- ./inp_files/27528.got.cif
#   From: 2010.03.12/outbox.cif.g09.slc.cpg/sg65_14_cif.got.tgz:27528.got - 2010.04.10 20:52:16.
