data_PCOD8272395
_publ_section_title
;
Structure prediction by ZEFSAII (Michael W. Deem and Ramdas Pophale) SiO2 
 PCOD8272395
Probable space group: C M M M
;
_chemical_formula_sum "Si O2"
_cell_formula_units_Z 104
_cell_length_a 21.395570
_cell_length_b 28.631568
_cell_length_c 8.706517
_cell_angle_alpha 90.000000
_cell_angle_beta 90.000000
_cell_angle_gamma 90.000000
_cell_volume 5333.514082
_symmetry_space_group_name_H-M "C M M M"
_symmetry_group_IT_number 65
_symmetry_cell_setting 'orthorhombic'
loop_
_space_group_symop_operation_xyz
x,y,z
-x,-y,z
x,-y,-z
-x,y,-z
-x,-y,-z
x,y,-z
-x,y,z
x,-y,z
1/2+x,1/2+y,z
1/2-x,1/2-y,z
1/2+x,1/2-y,-z
1/2-x,1/2+y,-z
1/2-x,1/2-y,-z
1/2+x,1/2+y,-z
1/2-x,1/2+y,z
1/2+x,1/2-y,z
loop_
_atom_site_type_symbol
_atom_site_label
_atom_site_fract_x
_atom_site_fract_y
_atom_site_fract_z
Si Si1 0.568245 0.774366 0.817726
Si Si2 0.680770 0.447407 0.675513
Si Si3 0.429738 0.616528 0.674606
Si Si4 0.100282 0.376827 0.817076
Si Si5 0.740456 0.130114 0.819966
Si Si6 0.000000 0.445455 0.681916
Si Si7 0.349108 0.307179 0.180062
O O1 0.500000 0.754802 0.766119
O O2 0.571604 0.827707 0.761725
O O3 0.625199 0.742221 0.750655
O O4 0.573941 0.773306 0.000000
O O5 0.703758 0.442062 0.500000
O O6 0.684904 0.500000 0.733763
O O7 0.609245 0.431078 0.691724
O O8 0.725308 0.418040 0.785235
O O9 0.425665 0.635464 0.500000
O O10 0.500000 0.604784 0.723804
O O11 0.402909 0.655388 0.787925
O O12 0.171032 0.374373 0.751602
O O13 0.062241 0.419855 0.744432
O O14 0.097537 0.383086 0.000000
O O15 0.782408 0.173755 0.751251
O O16 0.734841 0.137803 0.000000
O O17 0.000000 0.500000 0.734700
O O18 0.000000 0.442151 0.500000
O O19 0.340257 0.301772 0.000000
#
# Coordination Sequence:
#
# PCOD8272395 Si02
#       7
#    16  16  16  16  16   8  16
#     4   9  16  28  51  79 106 137 173 211 248 294
#     4   9  18  32  49  68  93 130 172 214 262 310
#     4   9  17  29  45  67  97 131 171 217 258 299
#     4  10  20  37  59  81 107 137 171 211 257 309
#     4   9  19  33  51  77 106 136 170 211 257 309
#     4  11  25  43  61  83 109 135 171 221 274 325
#     4   9  17  30  49  75 106 139 173 207 250 302
#
# _framework density 19.499338999999999
#
# number of rings (size 3 to 8) (size 9 to 14) (size 15 to 20)
#    0.000    2.692    0.769    0.692    0.000    4.000 
#    0.000    8.462    0.000    0.000    0.000    9.692 
#    0.000    0.000    0.000    0.000    0.000    0.000 
#
# Total GULP energy -644277.336921 kJ/mol
# GULP energy per Si atom -12389.948787 kJ/mol
# Density = 1.945496 g / cm^3
# Si number density = 19.499339 Si / 1000 Ang^3
#
#
#
# Elastic Constant Matrix: (Units=GPa)
#
#
# Indices 1 2 3 4 5 6 
#
# 1 167.9014 68.4195 19.0197 0.0000 0.0000 0.0000
# 2 68.4195 138.3253 14.9719 0.0000 0.0000 0.0000
# 3 19.0197 14.9719 15.2192 0.0000 0.0000 0.0000
# 4 0.0000 0.0000 0.0000 13.9831 0.0000 0.0000
# 5 0.0000 0.0000 0.0000 0.0000 19.2925 0.0000
# 6 0.0000 0.0000 0.0000 0.0000 0.0000 24.0747
#
#
#
# Elastic Compliance Matrix: (Units=1/GPa)
#
#
# Indices 1 2 3 4 5 6 
#
# 1 0.008055 -0.003240 -0.006880 0.000000 0.000000 0.000000
# 2 -0.003240 0.009394 -0.005192 0.000000 0.000000 0.000000
# 3 -0.006880 -0.005192 0.079412 0.000000 0.000000 0.000000
# 4 0.000000 0.000000 0.000000 0.071515 0.000000 0.000000
# 5 0.000000 0.000000 0.000000 0.000000 0.051834 0.000000
# 6 0.000000 0.000000 0.000000 0.000000 0.000000 0.041537
#
#
# Mechanical properties :
#
#
# Convention : Reuss Voigt Hill
#
# Bulk Modulus (GPa) = 15.09721 58.47425 36.78573
# Shear Modulus (GPa) = 15.90077 26.07240 20.98658
#
# Velocity S-wave (km/s) = 2.85871 3.66059 3.28422
# Velocity P-wave (km/s) = 4.31920 6.92239 5.76953
#
# Compressibility (1/GPa) = 0.06623739
#
# Stress axis : x y z
#
# Youngs Moduli (GPa) = 124.13998 106.45290 12.59253
#
# Poissons Ratio (x) = 0.34488 0.08663
# Poissons Ratio (y) = 0.40219 0.06539
# Poissons Ratio (z) = 0.85406 0.55274
#
# Static dielectric constant tensor:
#      x y z
#    x 3.910320 0.000000 0.000000 
#    y 0.000000 3.667520 0.000000 
#    z 0.000000 0.000000 3.200840 
# 
# 
# High freq. dielectric constant tensor:
#      x y z
#    x 1.770980 0.000000 0.000000 
#    y 0.000000 1.756750 0.000000 
#    z 0.000000 0.000000 1.719820 
# 
# From -- ./inp_files/12440.got.cif
#   From: 2010.03.12/outbox.cif.g09.slc.cpg/sg65_7_cif.got.tgz:12440.got - 2010.04.10 20:52:16.
