data_PCOD8272186
_publ_section_title
;
Structure prediction by ZEFSAII (Michael W. Deem and Ramdas Pophale) SiO2 
 PCOD8272186
Probable space group: C M M M
;
_chemical_formula_sum "Si O2"
_cell_formula_units_Z 72
_cell_length_a 8.475706
_cell_length_b 14.427064
_cell_length_c 29.285044
_cell_angle_alpha 90.000000
_cell_angle_beta 90.000000
_cell_angle_gamma 90.000000
_cell_volume 3580.962087
_symmetry_space_group_name_H-M "C M M M"
_symmetry_group_IT_number 65
_symmetry_cell_setting 'orthorhombic'
loop_
_space_group_symop_operation_xyz
x,y,z
-x,-y,z
x,-y,-z
-x,y,-z
-x,-y,-z
x,y,-z
-x,y,z
x,-y,z
1/2+x,1/2+y,z
1/2-x,1/2-y,z
1/2+x,1/2-y,-z
1/2-x,1/2+y,-z
1/2-x,1/2-y,-z
1/2+x,1/2+y,-z
1/2-x,1/2+y,z
1/2+x,1/2-y,z
loop_
_atom_site_type_symbol
_atom_site_label
_atom_site_fract_x
_atom_site_fract_y
_atom_site_fract_z
Si Si1 0.315879 0.000000 0.813045
Si Si2 0.312533 0.853547 0.646797
Si Si3 0.685724 0.852226 0.451893
Si Si4 0.686318 0.646333 0.879860
Si Si5 0.813384 0.500000 0.947874
Si Si6 0.182712 0.000000 0.285731
O O1 0.241201 0.092677 0.834467
O O2 0.500000 0.000000 0.824048
O O3 0.287321 0.000000 0.759395
O O4 0.500000 0.858083 0.654799
O O5 0.250000 0.750000 0.650193
O O6 0.265395 0.897841 0.596711
O O7 0.223401 0.909420 0.685512
O O8 0.740674 0.902531 0.500000
O O9 0.500000 0.846064 0.451933
O O10 0.750000 0.750000 0.452500
O O11 0.500000 0.648880 0.881106
O O12 0.750000 0.750000 0.879271
O O13 0.747976 0.592786 0.924440
O O14 0.000000 0.500000 0.943542
O O15 0.756380 0.500000 0.000000
O O16 0.000000 0.000000 0.272204
#
# Coordination Sequence:
#
# PCOD8272186 Si02
#       6
#     8  16  16  16   8   8
#     4  11  23  42  64  87 114 145 188 242 298 351
#     4  10  20  36  57  82 111 144 182 226 279 337
#     4   8  14  26  47  74 103 136 174 216 265 324
#     4  11  22  39  63  91 123 160 202 246 294 346
#     4  10  21  38  60  90 129 170 211 254 298 343
#     4  12  25  41  59  82 112 147 188 233 286 344
#
# _framework density 20.106328999999999
#
# number of rings (size 3 to 8) (size 9 to 14) (size 15 to 20)
#    0.000    1.889    0.000    6.333    0.000    3.111 
#    0.000    5.000    0.000    3.333    0.000    0.000 
#    0.000    0.000    0.000    0.000    0.000    0.000 
#
# Total GULP energy -446039.931380 kJ/mol
# GULP energy per Si atom -12389.998094 kJ/mol
# Density = 2.006057 g / cm^3
# Si number density = 20.106329 Si / 1000 Ang^3
#
#
#
# Elastic Constant Matrix: (Units=GPa)
#
#
# Indices 1 2 3 4 5 6 
#
# 1 91.3026 34.2975 29.3444 0.0000 0.0000 0.0000
# 2 34.2975 132.3353 59.5971 0.0000 0.0000 0.0000
# 3 29.3444 59.5971 167.9693 0.0000 0.0000 0.0000
# 4 0.0000 0.0000 0.0000 28.0093 0.0000 0.0000
# 5 0.0000 0.0000 0.0000 0.0000 28.9071 0.0000
# 6 0.0000 0.0000 0.0000 0.0000 0.0000 31.2917
#
#
#
# Elastic Compliance Matrix: (Units=1/GPa)
#
#
# Indices 1 2 3 4 5 6 
#
# 1 0.012339 -0.002651 -0.001215 0.000000 0.000000 0.000000
# 2 -0.002651 0.009563 -0.002930 0.000000 0.000000 0.000000
# 3 -0.001215 -0.002930 0.007205 0.000000 0.000000 0.000000
# 4 0.000000 0.000000 0.000000 0.035702 0.000000 0.000000
# 5 0.000000 0.000000 0.000000 0.000000 0.034594 0.000000
# 6 0.000000 0.000000 0.000000 0.000000 0.000000 0.031957
#
#
# Mechanical properties :
#
#
# Convention : Reuss Voigt Hill
#
# Bulk Modulus (GPa) = 64.45085 70.89835 67.67460
# Shear Modulus (GPa) = 33.30579 35.53283 34.41931
#
# Velocity S-wave (km/s) = 4.07441 4.20842 4.14196
# Velocity P-wave (km/s) = 7.36607 7.67807 7.52369
#
# Compressibility (1/GPa) = 0.01551570
#
# Stress axis : x y z
#
# Youngs Moduli (GPa) = 81.04499 104.56916 138.78589
#
# Poissons Ratio (x) = 0.27717 0.16864
# Poissons Ratio (y) = 0.21482 0.40664
# Poissons Ratio (z) = 0.09848 0.30639
#
# Static dielectric constant tensor:
#      x y z
#    x 3.762810 0.000000 0.000000 
#    y 0.000000 3.446240 0.000000 
#    z 0.000000 0.000000 4.136960 
# 
# 
# High freq. dielectric constant tensor:
#      x y z
#    x 1.794330 0.000000 0.000000 
#    y 0.000000 1.773590 0.000000 
#    z 0.000000 0.000000 1.801340 
# 
# From -- ./inp_files/72615.got.cif
#   From: 2010.03.12/outbox.cif.g09.slc.cpg/sg65_37_cif.got.tgz:72615.got - 2010.04.10 20:52:16.
