data_PCOD8272528
_publ_section_title
;
Structure prediction by ZEFSAII (Michael W. Deem and Ramdas Pophale) SiO2 
 PCOD8272528
Probable space group: C M M M
;
_chemical_formula_sum "Si O2"
_cell_formula_units_Z 56
_cell_length_a 17.503519
_cell_length_b 9.839234
_cell_length_c 16.299832
_cell_angle_alpha 90.000000
_cell_angle_beta 90.000000
_cell_angle_gamma 90.000000
_cell_volume 2807.176941
_symmetry_space_group_name_H-M "C M M M"
_symmetry_group_IT_number 65
_symmetry_cell_setting 'orthorhombic'
loop_
_space_group_symop_operation_xyz
x,y,z
-x,-y,z
x,-y,-z
-x,y,-z
-x,-y,-z
x,y,-z
-x,y,z
x,-y,z
1/2+x,1/2+y,z
1/2-x,1/2-y,z
1/2+x,1/2-y,-z
1/2-x,1/2+y,-z
1/2-x,1/2-y,-z
1/2+x,1/2+y,-z
1/2-x,1/2+y,z
1/2+x,1/2-y,z
loop_
_atom_site_type_symbol
_atom_site_label
_atom_site_fract_x
_atom_site_fract_y
_atom_site_fract_z
Si Si1 0.410235 0.842521 0.149824
Si Si2 0.340186 0.241365 0.320785
Si Si3 0.909375 0.155953 0.000000
Si Si4 0.916242 0.500000 0.594694
Si Si5 0.590739 0.500000 0.405446
O O1 0.500000 0.824831 0.164377
O O2 0.366119 0.796416 0.230056
O O3 0.380821 0.741297 0.078637
O O4 0.391240 0.000000 0.127920
O O5 0.250000 0.250000 0.322384
O O6 0.366589 0.128734 0.383796
O O7 0.378790 0.376089 0.353076
O O8 0.000000 0.150293 0.000000
O O9 0.876989 0.000000 0.000000
O O10 0.932499 0.500000 0.500000
O O11 0.000000 0.500000 0.639625
O O12 0.500000 0.500000 0.405372
O O13 0.620626 0.500000 0.500000
#
# Coordination Sequence:
#
# PCOD8272528 Si02
#       5
#    16  16   8   8   8
#     4  10  20  38  64  90 122 165 213 257 303 368
#     4  12  25  40  62  94 131 168 207 259 320 377
#     4   9  19  35  60  97 128 157 203 259 312 365
#     4  11  23  43  69  92 119 164 221 267 308 375
#     4  11  25  43  63  90 125 166 213 265 320 373
#
# _framework density 19.948867
#
# number of rings (size 3 to 8) (size 9 to 14) (size 15 to 20)
#    0.000    1.286    1.429    4.714    2.000    7.429 
#    0.000    0.714    0.000    0.000    0.000    0.000 
#    0.000    0.000    0.000    0.000    0.000    0.000 
#
# Total GULP energy -347167.773843 kJ/mol
# GULP energy per Si atom -12398.849066 kJ/mol
# Density = 1.990346 g / cm^3
# Si number density = 19.948867 Si / 1000 Ang^3
#
#
#
# Elastic Constant Matrix: (Units=GPa)
#
#
# Indices 1 2 3 4 5 6 
#
# 1 104.6665 55.8659 47.5512 0.0000 0.0000 0.0000
# 2 55.8659 186.7385 59.0287 0.0000 0.0000 0.0000
# 3 47.5512 59.0287 102.7989 0.0000 0.0000 0.0000
# 4 0.0000 0.0000 0.0000 43.8613 0.0000 0.0000
# 5 0.0000 0.0000 0.0000 0.0000 -5.0771 0.0000
# 6 0.0000 0.0000 0.0000 0.0000 0.0000 15.0936
#
#
#
# Elastic Compliance Matrix: (Units=1/GPa)
#
#
# Indices 1 2 3 4 5 6 
#
# 1 0.012931 -0.002416 -0.004594 0.000000 0.000000 0.000000
# 2 -0.002416 0.006994 -0.002898 0.000000 0.000000 0.000000
# 3 -0.004594 -0.002898 0.013517 0.000000 0.000000 0.000000
# 4 0.000000 0.000000 0.000000 0.022799 0.000000 0.000000
# 5 0.000000 0.000000 0.000000 0.000000 -0.196961 0.000000
# 6 0.000000 0.000000 0.000000 0.000000 0.000000 0.066253
#
#
# Mechanical properties :
#
#
# Convention : Reuss Voigt Hill
#
# Bulk Modulus (GPa) = 73.39573 79.89951 76.64762
# Shear Modulus (GPa) = -99.78449 26.22610 -36.77920
#
# Velocity S-wave (km/s) = -7.08016 3.62977 -4.29846
# Velocity P-wave (km/s) = 5.47417 7.59645 3.72421
#
# Compressibility (1/GPa) = 0.01362477
#
# Stress axis : x y z
#
# Youngs Moduli (GPa) = 77.33377 142.97597 73.98072
#
# Poissons Ratio (x) = 0.34548 0.33986
# Poissons Ratio (y) = 0.18687 0.21443
# Poissons Ratio (z) = 0.35526 0.41441
#
# Static dielectric constant tensor:
#      x y z
#    x 3.558520 0.000000 0.000000 
#    y 0.000000 4.024830 0.000000 
#    z 0.000000 0.000000 3.832600 
# 
# 
# High freq. dielectric constant tensor:
#      x y z
#    x 1.764070 0.000000 0.000000 
#    y 0.000000 1.799970 0.000000 
#    z 0.000000 0.000000 1.791930 
# 
# From -- ./inp_files/53960.got.cif
#   From: 2010.03.12/outbox.cif.g09.slc.cpg/sg65_27_cif.got.tgz:53960.got - 2010.04.10 20:52:16.
