data_PCOD8272944
_publ_section_title
;
Structure prediction by ZEFSAII (Michael W. Deem and Ramdas Pophale) SiO2 
 PCOD8272944
Probable space group: C M M M
;
_chemical_formula_sum "Si O2"
_cell_formula_units_Z 88
_cell_length_a 9.094583
_cell_length_b 18.253473
_cell_length_c 28.282696
_cell_angle_alpha 90.000000
_cell_angle_beta 90.000000
_cell_angle_gamma 90.000000
_cell_volume 4695.146027
_symmetry_space_group_name_H-M "C M M M"
_symmetry_group_IT_number 65
_symmetry_cell_setting 'orthorhombic'
loop_
_space_group_symop_operation_xyz
x,y,z
-x,-y,z
x,-y,-z
-x,y,-z
-x,-y,-z
x,y,-z
-x,y,z
x,-y,z
1/2+x,1/2+y,z
1/2-x,1/2-y,z
1/2+x,1/2-y,-z
1/2-x,1/2+y,-z
1/2-x,1/2-y,-z
1/2+x,1/2+y,-z
1/2-x,1/2+y,z
1/2+x,1/2-y,z
loop_
_atom_site_type_symbol
_atom_site_label
_atom_site_fract_x
_atom_site_fract_y
_atom_site_fract_z
Si Si1 0.335129 0.086938 0.267540
Si Si2 0.165576 0.413447 0.371507
Si Si3 0.175724 0.171132 0.083958
Si Si4 0.672281 0.582777 0.176439
Si Si5 0.671763 0.324123 0.553592
Si Si6 0.671699 0.913093 0.000000
O O1 0.500000 0.114407 0.258059
O O2 0.283050 0.115034 0.319423
O O3 0.235372 0.117350 0.224999
O O4 0.327708 0.000000 0.267611
O O5 0.168022 0.500000 0.372098
O O6 0.276900 0.387515 0.411538
O O7 0.000000 0.385365 0.382028
O O8 0.250000 0.250000 0.079616
O O9 0.218806 0.136028 0.134129
O O10 0.245556 0.118174 0.045354
O O11 0.000000 0.177049 0.076790
O O12 0.500000 0.579828 0.182224
O O13 0.732642 0.500000 0.167052
O O14 0.715334 0.345776 0.500000
O O15 0.500000 0.312244 0.558702
O O16 0.750000 0.250000 0.569428
O O17 0.500000 0.889914 0.000000
O O18 0.689023 0.000000 0.000000
#
# Coordination Sequence:
#
# PCOD8272944 Si02
#       6
#    16  16  16  16  16   8
#     4   8  15  29  50  76 105 136 170 211 258 307
#     4   9  18  33  53  78 107 138 173 213 260 313
#     4  11  23  39  58  81 113 148 181 220 267 315
#     4   9  18  33  54  79 105 137 178 219 260 309
#     4  10  21  36  53  73  99 133 173 216 263 316
#     4  11  24  41  62  87 111 139 180 223 264 317
#
# _framework density 18.742761999999999
#
# number of rings (size 3 to 8) (size 9 to 14) (size 15 to 20)
#    0.000    2.455    0.000    3.273    0.000    5.455 
#    0.000    6.364    0.000    2.182    0.000    0.000 
#    0.000    0.000    0.000    0.000    0.000    0.000 
#
# Total GULP energy -545463.720564 kJ/mol
# GULP energy per Si atom -12396.902740 kJ/mol
# Density = 1.870010 g / cm^3
# Si number density = 18.742762 Si / 1000 Ang^3
#
#
#
# Elastic Constant Matrix: (Units=GPa)
#
#
# Indices 1 2 3 4 5 6 
#
# 1 73.3335 34.5113 58.2114 0.0000 0.0000 0.0000
# 2 34.5113 58.6952 45.4690 0.0000 0.0000 0.0000
# 3 58.2114 45.4690 142.9008 0.0000 0.0000 0.0000
# 4 0.0000 0.0000 0.0000 -13.2720 0.0000 0.0000
# 5 0.0000 0.0000 0.0000 0.0000 33.8076 0.0000
# 6 0.0000 0.0000 0.0000 0.0000 0.0000 27.0189
#
#
#
# Elastic Compliance Matrix: (Units=1/GPa)
#
#
# Indices 1 2 3 4 5 6 
#
# 1 0.022810 -0.008246 -0.006668 0.000000 0.000000 0.000000
# 2 -0.008246 0.025592 -0.004784 0.000000 0.000000 0.000000
# 3 -0.006668 -0.004784 0.011236 0.000000 0.000000 0.000000
# 4 0.000000 0.000000 0.000000 -0.075347 0.000000 0.000000
# 5 0.000000 0.000000 0.000000 0.000000 0.029579 0.000000
# 6 0.000000 0.000000 0.000000 0.000000 0.000000 0.037011
#
#
# Mechanical properties :
#
#
# Convention : Reuss Voigt Hill
#
# Bulk Modulus (GPa) = 49.40253 61.25699 55.32976
# Shear Modulus (GPa) = 51.53323 18.62674 35.07998
#
# Velocity S-wave (km/s) = 5.24926 3.15590 4.33096
# Velocity P-wave (km/s) = 7.94701 6.78480 7.38879
#
# Compressibility (1/GPa) = 0.02024188
#
# Stress axis : x y z
#
# Youngs Moduli (GPa) = 43.84027 39.07537 88.99825
#
# Poissons Ratio (x) = 0.32223 0.59343
# Poissons Ratio (y) = 0.36152 0.42574
# Poissons Ratio (z) = 0.29232 0.18692
#
# Static dielectric constant tensor:
#      x y z
#    x 3.590700 0.000000 0.000000 
#    y 0.000000 3.223700 0.000000 
#    z 0.000000 0.000000 3.833680 
# 
# 
# High freq. dielectric constant tensor:
#      x y z
#    x 1.728920 0.000000 0.000000 
#    y 0.000000 1.703300 0.000000 
#    z 0.000000 0.000000 1.745320 
# 
# From -- ./inp_files/67574.got.cif
#   From: 2010.03.12/outbox.cif.g09.slc.cpg/sg65_34_cif.got.tgz:67574.got - 2010.04.10 20:52:16.
