data_PCOD8272567
_publ_section_title
;
Structure prediction by ZEFSAII (Michael W. Deem and Ramdas Pophale) SiO2 
 PCOD8272567
Probable space group: C M M M
;
_chemical_formula_sum "Si O2"
_cell_formula_units_Z 64
_cell_length_a 27.589483
_cell_length_b 15.354296
_cell_length_c 7.521393
_cell_angle_alpha 90.000000
_cell_angle_beta 90.000000
_cell_angle_gamma 90.000000
_cell_volume 3186.190604
_symmetry_space_group_name_H-M "C M M M"
_symmetry_group_IT_number 65
_symmetry_cell_setting 'orthorhombic'
loop_
_space_group_symop_operation_xyz
x,y,z
-x,-y,z
x,-y,-z
-x,y,-z
-x,-y,-z
x,y,-z
-x,y,z
x,-y,z
1/2+x,1/2+y,z
1/2-x,1/2-y,z
1/2+x,1/2-y,-z
1/2-x,1/2+y,-z
1/2-x,1/2-y,-z
1/2+x,1/2+y,-z
1/2-x,1/2+y,z
1/2+x,1/2-y,z
loop_
_atom_site_type_symbol
_atom_site_label
_atom_site_fract_x
_atom_site_fract_y
_atom_site_fract_z
Si Si1 0.055391 0.334595 0.297900
Si Si2 0.116332 0.500000 0.709445
Si Si3 0.275632 0.000000 0.799857
Si Si4 0.848342 0.897509 0.000000
Si Si5 0.444711 0.695802 0.000000
Si Si6 0.779405 0.165874 0.299290
O O1 0.068387 0.308371 0.500000
O O2 0.087423 0.414683 0.229731
O O3 0.065394 0.251852 0.175643
O O4 0.000000 0.365328 0.282316
O O5 0.124833 0.500000 0.500000
O O6 0.166809 0.500000 0.810223
O O7 0.257406 0.085184 0.698571
O O8 0.254442 0.000000 0.000000
O O9 0.825276 0.852953 0.825688
O O10 0.906254 0.882718 0.000000
O O11 0.838385 0.000000 0.000000
O O12 0.500000 0.659408 0.000000
O O13 0.798481 0.181856 0.500000
O O14 0.750000 0.250000 0.229498
#
# Coordination Sequence:
#
# PCOD8272567 Si02
#       6
#    16   8   8   8   8  16
#     4   9  19  37  58  84 121 162 203 245 292 352
#     4  10  21  32  53  87 124 166 203 239 290 351
#     4  12  24  39  59  90 132 164 200 254 296 357
#     4  12  25  44  67  90 118 157 201 251 308 366
#     4  10  24  41  62  89 117 150 198 257 309 364
#     4  11  24  42  65  91 124 164 204 250 301 358
#
# _framework density 20.086684000000002
#
# number of rings (size 3 to 8) (size 9 to 14) (size 15 to 20)
#    0.000    1.500    2.500    1.875    5.250    2.750 
#    0.000    1.875    0.000    0.000    0.000    5.250 
#    0.000    0.000    0.000    0.000    0.000    0.000 
#
# Total GULP energy -396907.083697 kJ/mol
# GULP energy per Si atom -12403.346366 kJ/mol
# Density = 2.004097 g / cm^3
# Si number density = 20.086684 Si / 1000 Ang^3
#
#
#
# Elastic Constant Matrix: (Units=GPa)
#
#
# Indices 1 2 3 4 5 6 
#
# 1 125.8685 50.2001 35.9121 0.0000 0.0000 0.0000
# 2 50.2001 105.4077 23.9198 0.0000 0.0000 0.0000
# 3 35.9121 23.9198 96.5641 0.0000 0.0000 0.0000
# 4 0.0000 0.0000 0.0000 22.5675 0.0000 0.0000
# 5 0.0000 0.0000 0.0000 0.0000 20.2475 0.0000
# 6 0.0000 0.0000 0.0000 0.0000 0.0000 51.8655
#
#
#
# Elastic Compliance Matrix: (Units=1/GPa)
#
#
# Indices 1 2 3 4 5 6 
#
# 1 0.010486 -0.004354 -0.002821 0.000000 0.000000 0.000000
# 2 -0.004354 0.011860 -0.001319 0.000000 0.000000 0.000000
# 3 -0.002821 -0.001319 0.011732 0.000000 0.000000 0.000000
# 4 0.000000 0.000000 0.000000 0.044311 0.000000 0.000000
# 5 0.000000 0.000000 0.000000 0.000000 0.049389 0.000000
# 6 0.000000 0.000000 0.000000 0.000000 0.000000 0.019281
#
#
# Mechanical properties :
#
#
# Convention : Reuss Voigt Hill
#
# Bulk Modulus (GPa) = 58.51321 60.87826 59.69574
# Shear Modulus (GPa) = 29.45635 33.45664 31.45650
#
# Velocity S-wave (km/s) = 3.83360 4.08562 3.96161
# Velocity P-wave (km/s) = 6.98490 7.25465 7.12105
#
# Compressibility (1/GPa) = 0.01709016
#
# Stress axis : x y z
#
# Youngs Moduli (GPa) = 95.36357 84.31934 85.23923
#
# Poissons Ratio (x) = 0.36711 0.24049
# Poissons Ratio (y) = 0.41519 0.11240
# Poissons Ratio (z) = 0.26905 0.11118
#
# Static dielectric constant tensor:
#      x y z
#    x 3.588760 0.000000 0.000000 
#    y 0.000000 3.481330 0.000000 
#    z 0.000000 0.000000 3.711990 
# 
# 
# High freq. dielectric constant tensor:
#      x y z
#    x 1.783490 0.000000 0.000000 
#    y 0.000000 1.771110 0.000000 
#    z 0.000000 0.000000 1.795780 
# 
# From -- ./inp_files/17869.got.cif
#   From: 2010.03.12/outbox.cif.g09.slc.cpg/sg65_9_cif.got.tgz:17869.got - 2010.04.10 20:52:16.
