data_PCOD8272260
_publ_section_title
;
Structure prediction by ZEFSAII (Michael W. Deem and Ramdas Pophale) SiO2 
 PCOD8272260
Probable space group: C M M M
;
_chemical_formula_sum "Si O2"
_cell_formula_units_Z 88
_cell_length_a 28.570613
_cell_length_b 13.989706
_cell_length_c 11.265980
_cell_angle_alpha 90.000000
_cell_angle_beta 90.000000
_cell_angle_gamma 90.000000
_cell_volume 4502.949974
_symmetry_space_group_name_H-M "C M M M"
_symmetry_group_IT_number 65
_symmetry_cell_setting 'orthorhombic'
loop_
_space_group_symop_operation_xyz
x,y,z
-x,-y,z
x,-y,-z
-x,y,-z
-x,-y,-z
x,y,-z
-x,y,z
x,-y,z
1/2+x,1/2+y,z
1/2-x,1/2-y,z
1/2+x,1/2-y,-z
1/2-x,1/2+y,-z
1/2-x,1/2-y,-z
1/2+x,1/2+y,-z
1/2-x,1/2+y,z
1/2+x,1/2-y,z
loop_
_atom_site_type_symbol
_atom_site_label
_atom_site_fract_x
_atom_site_fract_y
_atom_site_fract_z
Si Si1 0.500000 0.607592 0.358760
Si Si2 0.278462 0.887243 0.366808
Si Si3 0.199227 0.790870 0.000000
Si Si4 0.623086 0.107091 0.738373
Si Si5 0.593717 0.705844 0.361298
Si Si6 0.138828 0.604858 0.000000
Si Si7 0.684335 0.386612 0.753984
O O1 0.500000 0.500000 0.309864
O O2 0.500000 0.609921 0.500000
O O3 0.546293 0.659723 0.309821
O O4 0.287123 0.846771 0.500000
O O5 0.322434 0.861279 0.281950
O O6 0.230102 0.844385 0.314146
O O7 0.272468 0.000000 0.371585
O O8 0.250000 0.750000 0.000000
O O9 0.187515 0.857764 0.889959
O O10 0.171935 0.693198 0.000000
O O11 0.590810 0.180953 0.667029
O O12 0.614872 0.000000 0.687532
O O13 0.609138 0.110748 0.877928
O O14 0.598132 0.687744 0.500000
O O15 0.637870 0.657981 0.299991
O O16 0.164861 0.500000 0.000000
O O17 0.681389 0.500000 0.741991
#
# Coordination Sequence:
#
# PCOD8272260 Si02
#       7
#     8  16   8  16  16   8  16
#     4   9  20  40  63  88 119 154 195 240 293 362
#     4   9  18  32  50  77 116 157 192 232 287 348
#     4  12  23  37  56  81 117 158 204 246 293 344
#     4  10  20  36  58  85 117 154 196 243 292 350
#     4  11  22  37  62  91 119 156 198 244 302 361
#     4  10  20  37  58  77 107 152 199 236 280 342
#     4  11  23  37  56  84 119 158 203 251 292 344
#
# _framework density 19.542743999999999
#
# number of rings (size 3 to 8) (size 9 to 14) (size 15 to 20)
#    0.000    1.727    1.818    3.000    0.000    5.091 
#    0.000    2.273    0.000    3.818    0.000    5.727 
#    0.000    0.000    0.000    0.000    0.000    0.000 
#
# Total GULP energy -545464.732069 kJ/mol
# GULP energy per Si atom -12396.925729 kJ/mol
# Density = 1.949826 g / cm^3
# Si number density = 19.542744 Si / 1000 Ang^3
#
#
#
# Elastic Constant Matrix: (Units=GPa)
#
#
# Indices 1 2 3 4 5 6 
#
# 1 108.1300 53.2246 33.4245 0.0000 0.0000 0.0000
# 2 53.2246 96.4718 16.1849 0.0000 0.0000 0.0000
# 3 33.4245 16.1849 108.3152 0.0000 0.0000 0.0000
# 4 0.0000 0.0000 0.0000 5.3946 0.0000 0.0000
# 5 0.0000 0.0000 0.0000 0.0000 14.3695 0.0000
# 6 0.0000 0.0000 0.0000 0.0000 0.0000 30.8927
#
#
#
# Elastic Compliance Matrix: (Units=1/GPa)
#
#
# Indices 1 2 3 4 5 6 
#
# 1 0.013683 -0.007017 -0.003174 0.000000 0.000000 0.000000
# 2 -0.007017 0.014230 0.000039 0.000000 0.000000 0.000000
# 3 -0.003174 0.000039 0.010206 0.000000 0.000000 0.000000
# 4 0.000000 0.000000 0.000000 0.185370 0.000000 0.000000
# 5 0.000000 0.000000 0.000000 0.000000 0.069592 0.000000
# 6 0.000000 0.000000 0.000000 0.000000 0.000000 0.032370
#
#
# Mechanical properties :
#
#
# Convention : Reuss Voigt Hill
#
# Bulk Modulus (GPa) = 56.12942 57.62055 56.87498
# Shear Modulus (GPa) = 14.21695 24.13690 19.17692
#
# Velocity S-wave (km/s) = 2.70011 3.51819 3.13594
# Velocity P-wave (km/s) = 6.20520 6.78615 6.50217
#
# Compressibility (1/GPa) = 0.01781597
#
# Stress axis : x y z
#
# Youngs Moduli (GPa) = 73.08345 70.27242 97.98216
#
# Poissons Ratio (x) = 0.49307 0.31099
# Poissons Ratio (y) = 0.51280 -0.00381
# Poissons Ratio (z) = 0.23196 -0.00273
#
# Static dielectric constant tensor:
#      x y z
#    x 3.402940 0.000000 0.000000 
#    y 0.000000 3.834150 0.000000 
#    z 0.000000 0.000000 3.757860 
# 
# 
# High freq. dielectric constant tensor:
#      x y z
#    x 1.722140 0.000000 0.000000 
#    y 0.000000 1.784440 0.000000 
#    z 0.000000 0.000000 1.760070 
# 
# From -- ./inp_files/32274.got.cif
#   From: 2010.03.12/outbox.cif.g09.slc.cpg/sg65_17_cif.got.tgz:32274.got - 2010.04.10 20:52:16.
