data_PCOD8272383
_publ_section_title
;
Structure prediction by ZEFSAII (Michael W. Deem and Ramdas Pophale) SiO2 
 PCOD8272383
Probable space group: C M M M
;
_chemical_formula_sum "Si O2"
_cell_formula_units_Z 88
_cell_length_a 26.945660
_cell_length_b 19.051945
_cell_length_c 9.268847
_cell_angle_alpha 90.000000
_cell_angle_beta 90.000000
_cell_angle_gamma 90.000000
_cell_volume 4758.322331
_symmetry_space_group_name_H-M "C M M M"
_symmetry_group_IT_number 65
_symmetry_cell_setting 'orthorhombic'
loop_
_space_group_symop_operation_xyz
x,y,z
-x,-y,z
x,-y,-z
-x,y,-z
-x,-y,-z
x,y,-z
-x,y,z
x,-y,z
1/2+x,1/2+y,z
1/2-x,1/2-y,z
1/2+x,1/2-y,-z
1/2-x,1/2+y,-z
1/2-x,1/2-y,-z
1/2+x,1/2+y,-z
1/2-x,1/2+y,z
1/2+x,1/2-y,z
loop_
_atom_site_type_symbol
_atom_site_label
_atom_site_fract_x
_atom_site_fract_y
_atom_site_fract_z
Si Si1 0.599487 0.344937 0.329359
Si Si2 0.121928 0.312490 0.329731
Si Si3 0.441572 0.079448 0.837272
Si Si4 0.687273 0.418797 0.834444
Si Si5 0.000000 0.919983 0.671618
Si Si6 0.722965 0.179113 0.833029
O O1 0.602517 0.352416 0.500000
O O2 0.602548 0.264017 0.280698
O O3 0.645457 0.386343 0.265105
O O4 0.548467 0.379014 0.270276
O O5 0.127252 0.316897 0.500000
O O6 0.082469 0.369180 0.277962
O O7 0.174508 0.331268 0.261543
O O8 0.500000 0.085883 0.820090
O O9 0.424337 0.000000 0.804289
O O10 0.425484 0.100084 0.000000
O O11 0.692153 0.500000 0.798163
O O12 0.740535 0.385250 0.800250
O O13 0.672395 0.404683 0.000000
O O14 0.000000 0.920388 0.500000
O O15 0.000000 0.000000 0.730755
O O16 0.750000 0.250000 0.784579
O O17 0.707222 0.182632 0.000000
#
# Coordination Sequence:
#
# PCOD8272383 Si02
#       6
#    16  16  16  16   8  16
#     4  10  21  36  56  82 113 150 187 225 274 335
#     4  11  23  35  56  88 120 149 185 235 287 341
#     4   9  20  40  63  85 112 150 194 235 279 338
#     4  10  21  37  58  83 109 141 186 237 284 331
#     4   9  18  34  55  77 106 147 190 224 263 325
#     4  10  20  37  58  78 108 150 192 231 280 338
#
# _framework density 18.493912999999999
#
# number of rings (size 3 to 8) (size 9 to 14) (size 15 to 20)
#    0.000    2.091    1.818    1.636    1.273    4.364 
#    0.000    3.182    0.000    1.636    0.000    0.000 
#    0.000    0.000    0.000    0.000    0.000    0.000 
#
# Total GULP energy -545726.962052 kJ/mol
# GULP energy per Si atom -12402.885501 kJ/mol
# Density = 1.845182 g / cm^3
# Si number density = 18.493913 Si / 1000 Ang^3
#
#
#
# Elastic Constant Matrix: (Units=GPa)
#
#
# Indices 1 2 3 4 5 6 
#
# 1 92.0886 65.9406 37.8024 0.0000 0.0000 0.0000
# 2 65.9406 137.6503 39.9607 0.0000 0.0000 0.0000
# 3 37.8024 39.9607 37.7591 0.0000 0.0000 0.0000
# 4 0.0000 0.0000 0.0000 26.4373 0.0000 0.0000
# 5 0.0000 0.0000 0.0000 0.0000 12.7721 0.0000
# 6 0.0000 0.0000 0.0000 0.0000 0.0000 36.7907
#
#
#
# Elastic Compliance Matrix: (Units=1/GPa)
#
#
# Indices 1 2 3 4 5 6 
#
# 1 0.021191 -0.005763 -0.015116 0.000000 0.000000 0.000000
# 2 -0.005763 0.012054 -0.006987 0.000000 0.000000 0.000000
# 3 -0.015116 -0.006987 0.049012 0.000000 0.000000 0.000000
# 4 0.000000 0.000000 0.000000 0.037825 0.000000 0.000000
# 5 0.000000 0.000000 0.000000 0.000000 0.078295 0.000000
# 6 0.000000 0.000000 0.000000 0.000000 0.000000 0.027181
#
#
# Mechanical properties :
#
#
# Convention : Reuss Voigt Hill
#
# Bulk Modulus (GPa) = 37.70181 61.65615 49.67898
# Shear Modulus (GPa) = 17.23353 23.45298 20.34326
#
# Velocity S-wave (km/s) = 3.05593 3.56497 3.32022
# Velocity P-wave (km/s) = 5.73428 7.09622 6.45129
#
# Compressibility (1/GPa) = 0.02652392
#
# Stress axis : x y z
#
# Youngs Moduli (GPa) = 47.18983 82.96032 20.40332
#
# Poissons Ratio (x) = 0.47811 0.30842
# Poissons Ratio (y) = 0.27196 0.14256
# Poissons Ratio (z) = 0.71333 0.57965
#
# Static dielectric constant tensor:
#      x y z
#    x 3.352260 0.000000 0.000000 
#    y 0.000000 3.629980 0.000000 
#    z 0.000000 0.000000 3.280280 
# 
# 
# High freq. dielectric constant tensor:
#      x y z
#    x 1.724130 0.000000 0.000000 
#    y 0.000000 1.731220 0.000000 
#    z 0.000000 0.000000 1.703090 
# 
# From -- ./inp_files/13956.got.cif
#   From: 2010.03.12/outbox.cif.g09.slc.cpg/sg65_7_cif.got.tgz:13956.got - 2010.04.10 20:52:16.
