data_PCOD8272767
_publ_section_title
;
Structure prediction by ZEFSAII (Michael W. Deem and Ramdas Pophale) SiO2 
 PCOD8272767
Probable space group: C M M M
;
_chemical_formula_sum "Si O2"
_cell_formula_units_Z 72
_cell_length_a 29.222073
_cell_length_b 14.847019
_cell_length_c 8.951682
_cell_angle_alpha 90.000000
_cell_angle_beta 90.000000
_cell_angle_gamma 90.000000
_cell_volume 3883.782777
_symmetry_space_group_name_H-M "C M M M"
_symmetry_group_IT_number 65
_symmetry_cell_setting 'orthorhombic'
loop_
_space_group_symop_operation_xyz
x,y,z
-x,-y,z
x,-y,-z
-x,y,-z
-x,-y,-z
x,y,-z
-x,y,z
x,-y,z
1/2+x,1/2+y,z
1/2-x,1/2-y,z
1/2+x,1/2-y,-z
1/2-x,1/2+y,-z
1/2-x,1/2-y,-z
1/2+x,1/2+y,-z
1/2-x,1/2+y,z
1/2+x,1/2-y,z
loop_
_atom_site_type_symbol
_atom_site_label
_atom_site_fract_x
_atom_site_fract_y
_atom_site_fract_z
Si Si1 0.313833 0.896442 0.175505
Si Si2 0.000000 0.602876 0.323462
Si Si3 0.638999 0.734713 0.676250
Si Si4 0.719618 0.603333 0.327729
Si Si5 0.550016 0.247765 0.828146
O O1 0.350329 0.833270 0.257795
O O2 0.263193 0.869607 0.229860
O O3 0.324445 0.000000 0.218515
O O4 0.316841 0.880323 0.000000
O O5 0.045026 0.649730 0.251377
O O6 0.000000 0.500000 0.275676
O O7 0.000000 0.616784 0.500000
O O8 0.634709 0.740647 0.500000
O O9 0.677403 0.663802 0.726421
O O10 0.590740 0.699482 0.744343
O O11 0.732042 0.622577 0.500000
O O12 0.705408 0.500000 0.302646
O O13 0.500000 0.297847 0.813300
O O14 0.563492 0.234391 0.000000
#
# Coordination Sequence:
#
# PCOD8272767 Si02
#       5
#    16   8  16  16  16
#     4  10  21  35  51  75 108 143 176 213 259 311
#     4   9  17  31  51  73  98 129 166 207 251 302
#     4  11  21  33  55  80 103 138 178 217 262 310
#     4   9  19  36  55  77 106 137 173 217 264 314
#     4   9  20  35  51  72 100 135 170 210 258 304
#
# _framework density 18.538626000000001
#
# number of rings (size 3 to 8) (size 9 to 14) (size 15 to 20)
#    0.667    1.667    0.000    2.667    0.000    7.556 
#    0.000    0.000    0.000    0.667    0.000    4.667 
#    0.000    0.000    0.000    0.000    0.000    0.000 
#
# Total GULP energy -446253.323888 kJ/mol
# GULP energy per Si atom -12395.925664 kJ/mol
# Density = 1.849643 g / cm^3
# Si number density = 18.538626 Si / 1000 Ang^3
#
#
#
# Elastic Constant Matrix: (Units=GPa)
#
#
# Indices 1 2 3 4 5 6 
#
# 1 104.5733 26.1897 39.3201 0.0000 0.0000 0.0000
# 2 26.1897 40.4217 19.2591 0.0000 0.0000 0.0000
# 3 39.3201 19.2591 80.8385 0.0000 0.0000 0.0000
# 4 0.0000 0.0000 0.0000 19.5762 0.0000 0.0000
# 5 0.0000 0.0000 0.0000 0.0000 37.2059 0.0000
# 6 0.0000 0.0000 0.0000 0.0000 0.0000 20.5989
#
#
#
# Elastic Compliance Matrix: (Units=1/GPa)
#
#
# Indices 1 2 3 4 5 6 
#
# 1 0.012895 -0.006053 -0.004830 0.000000 0.000000 0.000000
# 2 -0.006053 0.030749 -0.004381 0.000000 0.000000 0.000000
# 3 -0.004830 -0.004381 0.015763 0.000000 0.000000 0.000000
# 4 0.000000 0.000000 0.000000 0.051082 0.000000 0.000000
# 5 0.000000 0.000000 0.000000 0.000000 0.026877 0.000000
# 6 0.000000 0.000000 0.000000 0.000000 0.000000 0.048546
#
#
# Mechanical properties :
#
#
# Convention : Reuss Voigt Hill
#
# Bulk Modulus (GPa) = 34.62862 43.93014 39.27938
# Shear Modulus (GPa) = 22.11724 24.88052 23.49888
#
# Velocity S-wave (km/s) = 3.45778 3.66743 3.56415
# Velocity P-wave (km/s) = 5.88739 6.45611 6.17830
#
# Compressibility (1/GPa) = 0.02887785
#
# Stress axis : x y z
#
# Youngs Moduli (GPa) = 77.55077 32.52164 63.43815
#
# Poissons Ratio (x) = 0.19687 0.30640
# Poissons Ratio (y) = 0.46945 0.27793
# Poissons Ratio (z) = 0.37456 0.14248
#
# Static dielectric constant tensor:
#      x y z
#    x 3.482120 0.000000 0.000000 
#    y 0.000000 3.212420 0.000000 
#    z 0.000000 0.000000 3.413340 
# 
# 
# High freq. dielectric constant tensor:
#      x y z
#    x 1.721180 0.000000 0.000000 
#    y 0.000000 1.687020 0.000000 
#    z 0.000000 0.000000 1.730560 
# 
# From -- ./inp_files/18005.got.cif
#   From: 2010.03.12/outbox.cif.g09.slc.cpg/sg65_10_cif.got.tgz:18005.got - 2010.04.10 20:52:16.
