data_PCOD8272797
_publ_section_title
;
Structure prediction by ZEFSAII (Michael W. Deem and Ramdas Pophale) SiO2 
 PCOD8272797
Probable space group: C M M M
;
_chemical_formula_sum "Si O2"
_cell_formula_units_Z 96
_cell_length_a 23.192547
_cell_length_b 8.745977
_cell_length_c 25.741116
_cell_angle_alpha 90.000000
_cell_angle_beta 90.000000
_cell_angle_gamma 90.000000
_cell_volume 5221.366134
_symmetry_space_group_name_H-M "C M M M"
_symmetry_group_IT_number 65
_symmetry_cell_setting 'orthorhombic'
loop_
_space_group_symop_operation_xyz
x,y,z
-x,-y,z
x,-y,-z
-x,y,-z
-x,-y,-z
x,y,-z
-x,y,z
x,-y,z
1/2+x,1/2+y,z
1/2-x,1/2-y,z
1/2+x,1/2-y,-z
1/2-x,1/2+y,-z
1/2-x,1/2-y,-z
1/2+x,1/2+y,-z
1/2-x,1/2+y,z
1/2+x,1/2-y,z
loop_
_atom_site_type_symbol
_atom_site_label
_atom_site_fract_x
_atom_site_fract_y
_atom_site_fract_z
Si Si1 0.876900 0.819718 0.902721
Si Si2 0.188329 0.678220 0.500000
Si Si3 0.500000 0.680699 0.865459
Si Si4 0.686811 0.180630 0.612195
Si Si5 0.612353 0.825107 0.292934
Si Si6 0.000000 0.179372 0.250909
Si Si7 0.311610 0.176250 0.191769
Si Si8 0.813421 0.680068 0.000000
O O1 0.844837 0.776475 0.850220
O O2 0.848692 0.730489 0.949891
O O3 0.943547 0.766914 0.897307
O O4 0.871491 0.000000 0.912715
O O5 0.197922 0.500000 0.500000
O O6 0.250000 0.750000 0.500000
O O7 0.158976 0.724850 0.555203
O O8 0.500000 0.500000 0.859316
O O9 0.500000 0.753323 0.807272
O O10 0.750000 0.250000 0.619931
O O11 0.643272 0.243418 0.655834
O O12 0.693567 0.000000 0.618950
O O13 0.555625 0.728248 0.282931
O O14 0.656149 0.809025 0.245787
O O15 0.593703 0.000000 0.301359
O O16 0.000000 0.000000 0.245294
O O17 0.250000 0.250000 0.199918
O O18 0.306788 0.000000 0.173441
O O19 0.750000 0.750000 0.000000
O O20 0.806239 0.500000 0.000000
#
# Coordination Sequence:
#
# PCOD8272797 Si02
#       8
#    16   8   8  16  16   8  16   8
#     4  11  22  41  64  86 113 147 183 224 269 320
#     4   8  14  26  46  71 102 141 181 224 270 324
#     4   9  20  38  62  87 111 141 181 223 268 319
#     4   9  17  30  49  76 109 143 182 225 275 328
#     4  10  21  35  52  77 109 143 179 225 277 327
#     4  11  21  37  58  81 106 142 186 226 271 326
#     4  11  22  35  53  80 111 145 179 219 271 326
#     4  12  26  45  64  89 117 148 186 224 271 324
#
# _framework density 18.385992000000002
#
# number of rings (size 3 to 8) (size 9 to 14) (size 15 to 20)
#    0.000    1.833    1.667    3.000    0.000    1.667 
#    0.000    3.333    0.000    0.500    0.000    3.500 
#    0.000    0.000    0.000    0.000    0.000    0.000 
#
# Total GULP energy -595039.988169 kJ/mol
# GULP energy per Si atom -12396.666420 kJ/mol
# Density = 1.834414 g / cm^3
# Si number density = 18.385992 Si / 1000 Ang^3
#
#
#
# Elastic Constant Matrix: (Units=GPa)
#
#
# Indices 1 2 3 4 5 6 
#
# 1 139.7490 43.8024 65.9419 0.0000 0.0000 0.0000
# 2 43.8024 65.9963 38.2227 0.0000 0.0000 0.0000
# 3 65.9419 38.2227 142.9317 0.0000 0.0000 0.0000
# 4 0.0000 0.0000 0.0000 28.6699 0.0000 0.0000
# 5 0.0000 0.0000 0.0000 0.0000 24.9965 0.0000
# 6 0.0000 0.0000 0.0000 0.0000 0.0000 31.2675
#
#
#
# Elastic Compliance Matrix: (Units=1/GPa)
#
#
# Indices 1 2 3 4 5 6 
#
# 1 0.010304 -0.004834 -0.003461 0.000000 0.000000 0.000000
# 2 -0.004834 0.020197 -0.003171 0.000000 0.000000 0.000000
# 3 -0.003461 -0.003171 0.009441 0.000000 0.000000 0.000000
# 4 0.000000 0.000000 0.000000 0.034880 0.000000 0.000000
# 5 0.000000 0.000000 0.000000 0.000000 0.040006 0.000000
# 6 0.000000 0.000000 0.000000 0.000000 0.000000 0.031982
#
#
# Mechanical properties :
#
#
# Convention : Reuss Voigt Hill
#
# Bulk Modulus (GPa) = 58.78870 71.62345 65.20608
# Shear Modulus (GPa) = 28.50424 30.36745 29.43585
#
# Velocity S-wave (km/s) = 3.94169 4.06847 4.00558
# Velocity P-wave (km/s) = 7.26361 7.81729 7.54553
#
# Compressibility (1/GPa) = 0.01701007
#
# Stress axis : x y z
#
# Youngs Moduli (GPa) = 97.04901 49.51124 105.92077
#
# Poissons Ratio (x) = 0.23936 0.36659
# Poissons Ratio (y) = 0.46918 0.33585
# Poissons Ratio (z) = 0.33589 0.15699
#
# Static dielectric constant tensor:
#      x y z
#    x 3.535490 0.000000 0.000000 
#    y 0.000000 3.561260 0.000000 
#    z 0.000000 0.000000 3.763520 
# 
# 
# High freq. dielectric constant tensor:
#      x y z
#    x 1.704670 0.000000 0.000000 
#    y 0.000000 1.709800 0.000000 
#    z 0.000000 0.000000 1.726750 
# 
# From -- ./inp_files/71512.got.cif
#   From: 2010.03.12/outbox.cif.g09.slc.cpg/sg65_36_cif.got.tgz:71512.got - 2010.04.10 20:52:16.
