data_PCOD8272930
_publ_section_title
;
Structure prediction by ZEFSAII (Michael W. Deem and Ramdas Pophale) SiO2 
 PCOD8272930
Probable space group: C M M M
;
_chemical_formula_sum "Si O2"
_cell_formula_units_Z 96
_cell_length_a 20.181691
_cell_length_b 27.897357
_cell_length_c 9.174153
_cell_angle_alpha 90.000000
_cell_angle_beta 90.000000
_cell_angle_gamma 90.000000
_cell_volume 5165.193446
_symmetry_space_group_name_H-M "C M M M"
_symmetry_group_IT_number 65
_symmetry_cell_setting 'orthorhombic'
loop_
_space_group_symop_operation_xyz
x,y,z
-x,-y,z
x,-y,-z
-x,y,-z
-x,-y,-z
x,y,-z
-x,y,z
x,-y,z
1/2+x,1/2+y,z
1/2-x,1/2-y,z
1/2+x,1/2-y,-z
1/2-x,1/2+y,-z
1/2-x,1/2-y,-z
1/2+x,1/2+y,-z
1/2-x,1/2+y,z
1/2+x,1/2-y,z
loop_
_atom_site_type_symbol
_atom_site_label
_atom_site_fract_x
_atom_site_fract_y
_atom_site_fract_z
Si Si1 0.074605 0.720337 0.171058
Si Si2 0.309441 0.392563 0.173388
Si Si3 0.193038 0.215541 0.827301
Si Si4 0.076441 0.944699 0.667993
Si Si5 0.308363 0.944609 0.668878
Si Si6 0.425147 0.124557 0.330448
O O1 0.121765 0.763678 0.221286
O O2 0.098853 0.671595 0.245849
O O3 0.000000 0.733758 0.218914
O O4 0.080004 0.711331 0.000000
O O5 0.299454 0.338360 0.232397
O O6 0.380006 0.411386 0.228563
O O7 0.251215 0.425233 0.234572
O O8 0.308835 0.394854 0.000000
O O9 0.250000 0.250000 0.761273
O O10 0.199180 0.214600 0.000000
O O11 0.093596 0.933948 0.500000
O O12 0.000000 0.933011 0.700620
O O13 0.091973 0.000000 0.703404
O O14 0.290414 0.936292 0.500000
O O15 0.376793 0.918753 0.712156
O O16 0.318955 0.000000 0.704778
O O17 0.421284 0.136654 0.500000
O O18 0.500000 0.110053 0.284868
#
# Coordination Sequence:
#
# PCOD8272930 Si02
#       6
#    16  16  16  16  16  16
#     4   9  17  31  52  74  97 129 165 199 244 304
#     4  11  22  34  53  80 105 131 169 217 259 294
#     4   9  18  32  49  70  98 132 168 205 247 298
#     4   9  19  37  58  77 102 139 175 204 245 306
#     4  10  21  36  53  73 101 138 173 205 250 309
#     4   9  18  33  53  77 103 130 166 213 256 294
#
# _framework density 18.585944999999999
#
# number of rings (size 3 to 8) (size 9 to 14) (size 15 to 20)
#    0.000    2.500    0.000    2.500    0.000    6.000 
#    0.000    5.833    0.000    6.500    0.000    3.500 
#    0.000    0.000    0.000    0.000    0.000    0.000 
#
# Total GULP energy -595252.296694 kJ/mol
# GULP energy per Si atom -12401.089514 kJ/mol
# Density = 1.854364 g / cm^3
# Si number density = 18.585945 Si / 1000 Ang^3
#
#
#
# Elastic Constant Matrix: (Units=GPa)
#
#
# Indices 1 2 3 4 5 6 
#
# 1 85.9889 34.8851 25.1523 0.0000 0.0000 0.0000
# 2 34.8851 81.4788 23.0441 0.0000 0.0000 0.0000
# 3 25.1523 23.0441 38.6073 0.0000 0.0000 0.0000
# 4 0.0000 0.0000 0.0000 23.3633 0.0000 0.0000
# 5 0.0000 0.0000 0.0000 0.0000 21.8408 0.0000
# 6 0.0000 0.0000 0.0000 0.0000 0.0000 39.1385
#
#
#
# Elastic Compliance Matrix: (Units=1/GPa)
#
#
# Indices 1 2 3 4 5 6 
#
# 1 0.015681 -0.004601 -0.007470 0.000000 0.000000 0.000000
# 2 -0.004601 0.016116 -0.006622 0.000000 0.000000 0.000000
# 3 -0.007470 -0.006622 0.034721 0.000000 0.000000 0.000000
# 4 0.000000 0.000000 0.000000 0.042802 0.000000 0.000000
# 5 0.000000 0.000000 0.000000 0.000000 0.045786 0.000000
# 6 0.000000 0.000000 0.000000 0.000000 0.000000 0.025550
#
#
# Mechanical properties :
#
#
# Convention : Reuss Voigt Hill
#
# Bulk Modulus (GPa) = 34.32596 41.35977 37.84286
# Shear Modulus (GPa) = 21.95372 25.06808 23.51090
#
# Velocity S-wave (km/s) = 3.44059 3.67654 3.56052
# Velocity P-wave (km/s) = 5.85597 6.35013 6.10805
#
# Compressibility (1/GPa) = 0.02913247
#
# Stress axis : x y z
#
# Youngs Moduli (GPa) = 63.77135 62.05050 28.80130
#
# Poissons Ratio (x) = 0.28551 0.21514
# Poissons Ratio (y) = 0.29343 0.19071
# Poissons Ratio (z) = 0.47635 0.41088
#
# Static dielectric constant tensor:
#      x y z
#    x 3.620970 0.000000 0.000000 
#    y 0.000000 3.543810 0.000000 
#    z 0.000000 0.000000 3.202390 
# 
# 
# High freq. dielectric constant tensor:
#      x y z
#    x 1.735440 0.000000 0.000000 
#    y 0.000000 1.722800 0.000000 
#    z 0.000000 0.000000 1.699010 
# 
# From -- ./inp_files/12220.got.cif
#   From: 2010.03.12/outbox.cif.g09.slc.cpg/sg65_7_cif.got.tgz:12220.got - 2010.04.10 20:52:16.
