data_PCOD8272758
_publ_section_title
;
Structure prediction by ZEFSAII (Michael W. Deem and Ramdas Pophale) SiO2 
 PCOD8272758
Probable space group: C M M M
;
_chemical_formula_sum "Si O2"
_cell_formula_units_Z 72
_cell_length_a 9.216075
_cell_length_b 19.126541
_cell_length_c 22.307357
_cell_angle_alpha 90.000000
_cell_angle_beta 90.000000
_cell_angle_gamma 90.000000
_cell_volume 3932.154321
_symmetry_space_group_name_H-M "C M M M"
_symmetry_group_IT_number 65
_symmetry_cell_setting 'orthorhombic'
loop_
_space_group_symop_operation_xyz
x,y,z
-x,-y,z
x,-y,-z
-x,y,-z
-x,-y,-z
x,y,-z
-x,y,z
x,-y,z
1/2+x,1/2+y,z
1/2-x,1/2-y,z
1/2+x,1/2-y,-z
1/2-x,1/2+y,-z
1/2-x,1/2-y,-z
1/2+x,1/2+y,-z
1/2-x,1/2+y,z
1/2+x,1/2-y,z
loop_
_atom_site_type_symbol
_atom_site_label
_atom_site_fract_x
_atom_site_fract_y
_atom_site_fract_z
Si Si1 0.331985 0.180233 0.429782
Si Si2 0.831887 0.819153 0.761709
Si Si3 0.670577 0.679671 0.102680
Si Si4 0.831131 0.919256 0.655551
Si Si5 0.827860 0.922417 0.000000
O O1 0.310089 0.168015 0.500000
O O2 0.500000 0.188117 0.412485
O O3 0.250000 0.250000 0.408064
O O4 0.263764 0.113459 0.397386
O O5 0.750000 0.750000 0.739585
O O6 0.786730 0.840454 0.829218
O O7 0.791195 0.883269 0.718655
O O8 0.000000 0.800697 0.758453
O O9 0.500000 0.692362 0.095538
O O10 0.750000 0.750000 0.082337
O O11 0.725190 0.617581 0.059683
O O12 0.000000 0.909170 0.639705
O O13 0.789124 0.000000 0.661502
O O14 0.000000 0.927572 0.000000
O O15 0.759150 0.000000 0.000000
#
# Coordination Sequence:
#
# PCOD8272758 Si02
#       5
#    16  16  16  16   8
#     4  10  21  37  57  79 102 130 166 207 249 294
#     4   9  18  32  50  72  97 127 164 205 247 290
#     4   9  17  30  49  71  95 125 162 204 245 287
#     4  10  21  35  51  74 104 136 168 203 247 298
#     4   9  17  28  45  71  98 125 160 200 242 289
#
# _framework density 18.310573999999999
#
# number of rings (size 3 to 8) (size 9 to 14) (size 15 to 20)
#    0.000    2.556    0.000    1.667    0.000    5.778 
#    0.000    6.667    0.000    1.333    0.000    6.222 
#    0.000    0.000    0.000    0.000    0.000    0.000 
#
# Total GULP energy -446480.078729 kJ/mol
# GULP energy per Si atom -12402.224409 kJ/mol
# Density = 1.826890 g / cm^3
# Si number density = 18.310574 Si / 1000 Ang^3
#
#
#
# Elastic Constant Matrix: (Units=GPa)
#
#
# Indices 1 2 3 4 5 6 
#
# 1 60.8309 61.1983 47.4292 0.0000 0.0000 0.0000
# 2 61.1983 174.1954 84.2262 0.0000 0.0000 0.0000
# 3 47.4292 84.2262 97.2933 0.0000 0.0000 0.0000
# 4 0.0000 0.0000 0.0000 24.4930 0.0000 0.0000
# 5 0.0000 0.0000 0.0000 0.0000 18.0683 0.0000
# 6 0.0000 0.0000 0.0000 0.0000 0.0000 29.0571
#
#
#
# Elastic Compliance Matrix: (Units=1/GPa)
#
#
# Indices 1 2 3 4 5 6 
#
# 1 0.029669 -0.005899 -0.009356 0.000000 0.000000 0.000000
# 2 -0.005899 0.011047 -0.006687 0.000000 0.000000 0.000000
# 3 -0.009356 -0.006687 0.020628 0.000000 0.000000 0.000000
# 4 0.000000 0.000000 0.000000 0.040828 0.000000 0.000000
# 5 0.000000 0.000000 0.000000 0.000000 0.055346 0.000000
# 6 0.000000 0.000000 0.000000 0.000000 0.000000 0.034415
#
#
# Mechanical properties :
#
#
# Convention : Reuss Voigt Hill
#
# Bulk Modulus (GPa) = 57.27892 79.78079 68.52986
# Shear Modulus (GPa) = 20.69220 23.62140 22.15680
#
# Velocity S-wave (km/s) = 3.36530 3.59561 3.48236
# Velocity P-wave (km/s) = 6.81543 7.80406 7.32644
#
# Compressibility (1/GPa) = 0.01745843
#
# Stress axis : x y z
#
# Youngs Moduli (GPa) = 33.70526 90.52590 48.47754
#
# Poissons Ratio (x) = 0.53405 0.45356
# Poissons Ratio (y) = 0.19884 0.32417
# Poissons Ratio (z) = 0.31535 0.60535
#
# Static dielectric constant tensor:
#      x y z
#    x 3.253550 0.000000 0.000000 
#    y 0.000000 3.453890 0.000000 
#    z 0.000000 0.000000 3.547160 
# 
# 
# High freq. dielectric constant tensor:
#      x y z
#    x 1.694370 0.000000 0.000000 
#    y 0.000000 1.704670 0.000000 
#    z 0.000000 0.000000 1.721990 
# 
# From -- ./inp_files/59276.got.cif
#   From: 2010.03.12/outbox.cif.g09.slc.cpg/sg65_30_cif.got.tgz:59276.got - 2010.04.10 20:52:16.
