data_PCOD8272343
_publ_section_title
;
Structure prediction by ZEFSAII (Michael W. Deem and Ramdas Pophale) SiO2 
 PCOD8272343
Probable space group: C M M M
;
_chemical_formula_sum "Si O2"
_cell_formula_units_Z 72
_cell_length_a 15.317079
_cell_length_b 13.696699
_cell_length_c 15.959677
_cell_angle_alpha 90.000000
_cell_angle_beta 90.000000
_cell_angle_gamma 90.000000
_cell_volume 3348.235230
_symmetry_space_group_name_H-M "C M M M"
_symmetry_group_IT_number 65
_symmetry_cell_setting 'orthorhombic'
loop_
_space_group_symop_operation_xyz
x,y,z
-x,-y,z
x,-y,-z
-x,y,-z
-x,-y,-z
x,y,-z
-x,y,z
x,-y,z
1/2+x,1/2+y,z
1/2-x,1/2-y,z
1/2+x,1/2-y,-z
1/2-x,1/2+y,-z
1/2-x,1/2-y,-z
1/2+x,1/2+y,-z
1/2-x,1/2+y,z
1/2+x,1/2-y,z
loop_
_atom_site_type_symbol
_atom_site_label
_atom_site_fract_x
_atom_site_fract_y
_atom_site_fract_z
Si Si1 0.103192 0.387975 0.000000
Si Si2 0.903188 0.384987 0.669999
Si Si3 0.848471 0.280799 0.831684
Si Si4 0.226408 0.883993 0.592628
Si Si5 0.097457 0.891470 0.264472
O O1 0.137703 0.327109 0.921759
O O2 0.138943 0.500000 0.000000
O O3 0.000000 0.389832 0.000000
O O4 0.907203 0.500000 0.660233
O O5 0.880384 0.361539 0.765879
O O6 0.824619 0.343986 0.611432
O O7 0.000000 0.341832 0.646499
O O8 0.750000 0.250000 0.817859
O O9 0.901329 0.179706 0.816258
O O10 0.199779 0.846927 0.500000
O O11 0.158025 0.845181 0.662182
O O12 0.224920 0.000000 0.596367
O O13 0.000000 0.896730 0.300822
O O14 0.129326 0.000000 0.237579
#
# Coordination Sequence:
#
# PCOD8272343 Si02
#       5
#     8  16  16  16  16
#     4  11  25  44  67  97 127 153 194 250 303 364
#     4  10  20  36  60  88 121 162 206 255 313 372
#     4  12  23  40  64  90 122 161 200 246 303 363
#     4   9  18  34  57  87 122 161 209 262 311 360
#     4  10  21  38  60  86 121 167 212 253 300 358
#
# _framework density 21.503865999999999
#
# number of rings (size 3 to 8) (size 9 to 14) (size 15 to 20)
#    0.000    1.667    2.222    3.000    0.000    3.556 
#    0.000    7.222    0.000    4.667    0.000    0.000 
#    0.000    0.000    0.000    0.000    0.000    0.000 
#
# Total GULP energy -446144.836012 kJ/mol
# GULP energy per Si atom -12392.912111 kJ/mol
# Density = 2.145492 g / cm^3
# Si number density = 21.503866 Si / 1000 Ang^3
#
#
#
# Elastic Constant Matrix: (Units=GPa)
#
#
# Indices 1 2 3 4 5 6 
#
# 1 138.1399 13.9108 30.9910 0.0000 0.0000 0.0000
# 2 13.9108 84.6962 40.1978 0.0000 0.0000 0.0000
# 3 30.9910 40.1978 116.2479 0.0000 0.0000 0.0000
# 4 0.0000 0.0000 0.0000 23.6345 0.0000 0.0000
# 5 0.0000 0.0000 0.0000 0.0000 38.1408 0.0000
# 6 0.0000 0.0000 0.0000 0.0000 0.0000 19.4431
#
#
#
# Elastic Compliance Matrix: (Units=1/GPa)
#
#
# Indices 1 2 3 4 5 6 
#
# 1 0.007708 -0.000348 -0.001935 0.000000 0.000000 0.000000
# 2 -0.000348 0.014141 -0.004797 0.000000 0.000000 0.000000
# 3 -0.001935 -0.004797 0.010777 0.000000 0.000000 0.000000
# 4 0.000000 0.000000 0.000000 0.042311 0.000000 0.000000
# 5 0.000000 0.000000 0.000000 0.000000 0.026219 0.000000
# 6 0.000000 0.000000 0.000000 0.000000 0.000000 0.051432
#
#
# Mechanical properties :
#
#
# Convention : Reuss Voigt Hill
#
# Bulk Modulus (GPa) = 54.15157 56.58701 55.36929
# Shear Modulus (GPa) = 28.91808 33.17596 31.04702
#
# Velocity S-wave (km/s) = 3.67111 3.93210 3.80384
# Velocity P-wave (km/s) = 6.57315 6.85472 6.71541
#
# Compressibility (1/GPa) = 0.01846669
#
# Stress axis : x y z
#
# Youngs Moduli (GPa) = 129.73372 70.71745 92.79122
#
# Poissons Ratio (x) = 0.02459 0.17952
# Poissons Ratio (y) = 0.04512 0.44513
# Poissons Ratio (z) = 0.25099 0.33924
#
# Static dielectric constant tensor:
#      x y z
#    x 4.301810 0.000000 0.000000 
#    y 0.000000 4.182730 0.000000 
#    z 0.000000 0.000000 3.632110 
# 
# 
# High freq. dielectric constant tensor:
#      x y z
#    x 1.857120 0.000000 0.000000 
#    y 0.000000 1.861240 0.000000 
#    z 0.000000 0.000000 1.817330 
# 
# From -- ./inp_files/52745.got.cif
#   From: 2010.03.12/outbox.cif.g09.slc.cpg/sg65_27_cif.got.tgz:52745.got - 2010.04.10 20:52:16.
