data_PCOD8272882
_publ_section_title
;
Structure prediction by ZEFSAII (Michael W. Deem and Ramdas Pophale) SiO2 
 PCOD8272882
Probable space group: C M M M
;
_chemical_formula_sum "Si O2"
_cell_formula_units_Z 96
_cell_length_a 31.335766
_cell_length_b 9.264103
_cell_length_c 18.870212
_cell_angle_alpha 90.000000
_cell_angle_beta 90.000000
_cell_angle_gamma 90.000000
_cell_volume 5477.980346
_symmetry_space_group_name_H-M "C M M M"
_symmetry_group_IT_number 65
_symmetry_cell_setting 'orthorhombic'
loop_
_space_group_symop_operation_xyz
x,y,z
-x,-y,z
x,-y,-z
-x,y,-z
-x,-y,-z
x,y,-z
-x,y,z
x,-y,z
1/2+x,1/2+y,z
1/2-x,1/2-y,z
1/2+x,1/2-y,-z
1/2-x,1/2+y,-z
1/2-x,1/2-y,-z
1/2+x,1/2+y,-z
1/2-x,1/2+y,z
1/2+x,1/2-y,z
loop_
_atom_site_type_symbol
_atom_site_label
_atom_site_fract_x
_atom_site_fract_y
_atom_site_fract_z
Si Si1 0.207861 0.668405 0.918230
Si Si2 0.454525 0.163172 0.676789
Si Si3 0.046812 0.167898 0.181000
Si Si4 0.292177 0.331811 0.582147
Si Si5 0.363063 0.836892 0.337470
Si Si6 0.372212 0.166511 0.829510
O O1 0.215505 0.500000 0.904994
O O2 0.250000 0.750000 0.891756
O O3 0.168335 0.727207 0.872253
O O4 0.198186 0.703146 0.000000
O O5 0.500000 0.177137 0.633975
O O6 0.455475 0.278928 0.738654
O O7 0.411341 0.187878 0.630964
O O8 0.450924 0.000000 0.709104
O O9 0.085401 0.251409 0.142182
O O10 0.000000 0.195891 0.145242
O O11 0.057961 0.000000 0.180746
O O12 0.300697 0.298470 0.500000
O O13 0.285705 0.500000 0.596831
O O14 0.250000 0.250000 0.608878
O O15 0.332443 0.276827 0.625874
O O16 0.364198 0.807243 0.253602
O O17 0.347313 0.000000 0.353544
O O18 0.379079 0.000000 0.847635
#
# Coordination Sequence:
#
# PCOD8272882 Si02
#       6
#    16  16  16  16  16  16
#     4   9  18  33  51  69  91 121 156 191 228 274
#     4   8  14  26  44  66  94 126 155 183 220 267
#     4   9  16  25  40  65  94 122 154 190 227 269
#     4  10  21  36  52  68  88 118 155 191 229 276
#     4   9  17  29  47  72  98 121 149 188 230 269
#     4   9  18  31  47  70  97 123 153 189 229 271
#
# _framework density 17.524705999999998
#
# number of rings (size 3 to 8) (size 9 to 14) (size 15 to 20)
#    0.000    3.000    0.000    2.000    0.000    6.000 
#    0.000    1.667    0.000    1.000    0.000    7.000 
#    0.000    0.000    0.000    0.000    0.000    0.000 
#
# Total GULP energy -594746.890662 kJ/mol
# GULP energy per Si atom -12390.560222 kJ/mol
# Density = 1.748482 g / cm^3
# Si number density = 17.524706 Si / 1000 Ang^3
#
#
#
# Elastic Constant Matrix: (Units=GPa)
#
#
# Indices 1 2 3 4 5 6 
#
# 1 191.5957 74.4660 47.0109 0.0000 0.0000 0.0000
# 2 74.4660 78.4404 25.9184 0.0000 0.0000 0.0000
# 3 47.0109 25.9184 30.9433 0.0000 0.0000 0.0000
# 4 0.0000 0.0000 0.0000 17.3443 0.0000 0.0000
# 5 0.0000 0.0000 0.0000 0.0000 -0.0672 0.0000
# 6 0.0000 0.0000 0.0000 0.0000 0.0000 35.8143
#
#
#
# Elastic Compliance Matrix: (Units=1/GPa)
#
#
# Indices 1 2 3 4 5 6 
#
# 1 0.010155 -0.006281 -0.010167 0.000000 0.000000 0.000000
# 2 -0.006281 0.021512 -0.008476 0.000000 0.000000 0.000000
# 3 -0.010167 -0.008476 0.054863 0.000000 0.000000 0.000000
# 4 0.000000 0.000000 0.000000 0.057656 0.000000 0.000000
# 5 0.000000 0.000000 0.000000 0.000000-14.884344 0.000000
# 6 0.000000 0.000000 0.000000 0.000000 0.000000 0.027922
#
#
# Mechanical properties :
#
#
# Convention : Reuss Voigt Hill
#
# Bulk Modulus (GPa) = 27.26136 66.19666 46.72901
# Shear Modulus (GPa) = -0.34129 20.85723 10.25797
#
# Velocity S-wave (km/s) = -0.44178 3.45361 2.42201
# Velocity P-wave (km/s) = 3.91529 7.33203 5.87742
#
# Compressibility (1/GPa) = 0.03668196
#
# Stress axis : x y z
#
# Youngs Moduli (GPa) = 98.47057 46.48530 18.22706
#
# Poissons Ratio (x) = 0.29199 0.18532
# Poissons Ratio (y) = 0.61852 0.15449
# Poissons Ratio (z) = 1.00118 0.39401
#
# Static dielectric constant tensor:
#      x y z
#    x 3.807680 0.000000 0.000000 
#    y 0.000000 3.236710 0.000000 
#    z 0.000000 0.000000 2.796070 
# 
# 
# High freq. dielectric constant tensor:
#      x y z
#    x 1.704670 0.000000 0.000000 
#    y 0.000000 1.678850 0.000000 
#    z 0.000000 0.000000 1.616330 
# 
# From -- ./inp_files/68042.got.cif
#   From: 2010.03.12/outbox.cif.g09.slc.cpg/sg65_35_cif.got.tgz:68042.got - 2010.04.10 20:52:16.
