data_PCOD8272428
_publ_section_title
;
Structure prediction by ZEFSAII (Michael W. Deem and Ramdas Pophale) SiO2 
 PCOD8272428
Probable space group: C M M M
;
_chemical_formula_sum "Si O2"
_cell_formula_units_Z 80
_cell_length_a 11.167058
_cell_length_b 17.544715
_cell_length_c 20.213462
_cell_angle_alpha 90.000000
_cell_angle_beta 90.000000
_cell_angle_gamma 90.000000
_cell_volume 3960.279083
_symmetry_space_group_name_H-M "C M M M"
_symmetry_group_IT_number 65
_symmetry_cell_setting 'orthorhombic'
loop_
_space_group_symop_operation_xyz
x,y,z
-x,-y,z
x,-y,-z
-x,y,-z
-x,-y,-z
x,y,-z
-x,y,z
x,-y,z
1/2+x,1/2+y,z
1/2-x,1/2-y,z
1/2+x,1/2-y,-z
1/2-x,1/2+y,-z
1/2-x,1/2-y,-z
1/2+x,1/2+y,-z
1/2-x,1/2+y,z
1/2+x,1/2-y,z
loop_
_atom_site_type_symbol
_atom_site_label
_atom_site_fract_x
_atom_site_fract_y
_atom_site_fract_z
Si Si1 0.359579 0.915720 0.072521
Si Si2 0.000000 0.915600 0.184274
Si Si3 0.634251 0.799367 0.423608
Si Si4 0.758237 0.409056 0.669891
Si Si5 0.000000 0.082537 0.339518
Si Si6 0.743151 0.661471 0.189825
O O1 0.500000 0.920645 0.067303
O O2 0.330203 0.854796 0.128887
O O3 0.308700 0.000000 0.091115
O O4 0.308698 0.890948 0.000000
O O5 0.000000 0.929553 0.261617
O O6 0.885988 0.865593 0.163890
O O7 0.000000 0.000000 0.150142
O O8 0.647263 0.822303 0.500000
O O9 0.500000 0.762631 0.411697
O O10 0.750000 0.750000 0.401794
O O11 0.641578 0.875522 0.379075
O O12 0.760892 0.500000 0.667089
O O13 0.626880 0.376746 0.643929
O O14 0.784652 0.383662 0.744746
O O15 0.000000 0.000000 0.375065
O O16 0.750000 0.750000 0.207680
#
# Coordination Sequence:
#
# PCOD8272428 Si02
#       6
#    16   8  16  16   8  16
#     4   9  19  37  59  81 112 155 197 240 297 363
#     4   9  18  36  57  79 116 161 194 234 301 363
#     4  10  23  42  62  87 122 161 199 247 308 363
#     4  10  20  37  60  88 119 156 198 244 299 365
#     4   7  14  30  53  79 111 150 188 228 284 350
#     4  11  22  35  59  88 122 153 196 251 301 355
#
# _framework density 20.200596000000001
#
# number of rings (size 3 to 8) (size 9 to 14) (size 15 to 20)
#    0.000    2.400    0.000    4.200    2.800    2.000 
#    3.600    1.500    0.000    3.600    0.000    0.000 
#    0.000    0.000    0.000    0.000    0.000    0.000 
#
# Total GULP energy -495523.497097 kJ/mol
# GULP energy per Si atom -12388.087427 kJ/mol
# Density = 2.015462 g / cm^3
# Si number density = 20.200596 Si / 1000 Ang^3
#
#
#
# Elastic Constant Matrix: (Units=GPa)
#
#
# Indices 1 2 3 4 5 6 
#
# 1 99.4235 44.1193 40.3610 0.0000 0.0000 0.0000
# 2 44.1193 96.0827 31.2279 0.0000 0.0000 0.0000
# 3 40.3610 31.2279 74.2309 0.0000 0.0000 0.0000
# 4 0.0000 0.0000 0.0000 18.3233 0.0000 0.0000
# 5 0.0000 0.0000 0.0000 0.0000 27.5480 0.0000
# 6 0.0000 0.0000 0.0000 0.0000 0.0000 29.0772
#
#
#
# Elastic Compliance Matrix: (Units=1/GPa)
#
#
# Indices 1 2 3 4 5 6 
#
# 1 0.014578 -0.004770 -0.005920 0.000000 0.000000 0.000000
# 2 -0.004770 0.013617 -0.003135 0.000000 0.000000 0.000000
# 3 -0.005920 -0.003135 0.018009 0.000000 0.000000 0.000000
# 4 0.000000 0.000000 0.000000 0.054575 0.000000 0.000000
# 5 0.000000 0.000000 0.000000 0.000000 0.036300 0.000000
# 6 0.000000 0.000000 0.000000 0.000000 0.000000 0.034391
#
#
# Mechanical properties :
#
#
# Convention : Reuss Voigt Hill
#
# Bulk Modulus (GPa) = 53.89484 55.68372 54.78928
# Shear Modulus (GPa) = 24.35414 25.25829 24.80621
#
# Velocity S-wave (km/s) = 3.47596 3.53990 3.50808
# Velocity P-wave (km/s) = 6.54580 6.65831 6.60229
#
# Compressibility (1/GPa) = 0.01855465
#
# Stress axis : x y z
#
# Youngs Moduli (GPa) = 68.59813 73.43865 55.52805
#
# Poissons Ratio (x) = 0.35029 0.32870
# Poissons Ratio (y) = 0.32720 0.17408
# Poissons Ratio (z) = 0.40607 0.23023
#
# Static dielectric constant tensor:
#      x y z
#    x 4.087920 0.000000 0.000000 
#    y 0.000000 3.506930 0.000000 
#    z 0.000000 0.000000 3.460580 
# 
# 
# High freq. dielectric constant tensor:
#      x y z
#    x 1.790140 0.000000 0.000000 
#    y 0.000000 1.775140 0.000000 
#    z 0.000000 0.000000 1.773560 
# 
# From -- ./inp_files/61402.got.cif
#   From: 2010.03.12/outbox.cif.g09.slc.cpg/sg65_31_cif.got.tgz:61402.got - 2010.04.10 20:52:16.
