data_PCOD8272845
_publ_section_title
;
Structure prediction by ZEFSAII (Michael W. Deem and Ramdas Pophale) SiO2 
 PCOD8272845
Probable space group: C M M M
;
_chemical_formula_sum "Si O2"
_cell_formula_units_Z 88
_cell_length_a 18.357613
_cell_length_b 7.835036
_cell_length_c 30.274358
_cell_angle_alpha 90.000000
_cell_angle_beta 90.000000
_cell_angle_gamma 90.000000
_cell_volume 4354.438375
_symmetry_space_group_name_H-M "C M M M"
_symmetry_group_IT_number 65
_symmetry_cell_setting 'orthorhombic'
loop_
_space_group_symop_operation_xyz
x,y,z
-x,-y,z
x,-y,-z
-x,y,-z
-x,-y,-z
x,y,-z
-x,y,z
x,-y,z
1/2+x,1/2+y,z
1/2-x,1/2-y,z
1/2+x,1/2-y,-z
1/2-x,1/2+y,-z
1/2-x,1/2-y,-z
1/2+x,1/2+y,-z
1/2-x,1/2+y,z
1/2+x,1/2-y,z
loop_
_atom_site_type_symbol
_atom_site_label
_atom_site_fract_x
_atom_site_fract_y
_atom_site_fract_z
Si Si1 0.080607 0.802064 0.217515
Si Si2 0.166883 0.299546 0.132350
Si Si3 0.581845 0.797154 0.951354
Si Si4 0.666529 0.299933 0.300218
Si Si5 0.085678 0.803535 0.388136
Si Si6 0.413781 0.000000 0.549162
O O1 0.121439 0.781333 0.171575
O O2 0.127053 0.716419 0.257401
O O3 0.000000 0.717501 0.215257
O O4 0.071764 0.000000 0.227643
O O5 0.156617 0.500000 0.134476
O O6 0.250000 0.250000 0.137623
O O7 0.136257 0.224838 0.085976
O O8 0.500000 0.732335 0.941194
O O9 0.582918 0.000000 0.951011
O O10 0.606587 0.731152 0.000000
O O11 0.659549 0.500000 0.296731
O O12 0.750000 0.250000 0.301274
O O13 0.626656 0.237896 0.344482
O O14 0.111633 0.674239 0.426567
O O15 0.000000 0.788005 0.379071
O O16 0.105994 0.000000 0.400780
O O17 0.500000 0.000000 0.546245
O O18 0.379592 0.000000 0.500000
#
# Coordination Sequence:
#
# PCOD8272845 Si02
#       6
#    16  16  16  16  16   8
#     4  10  21  38  58  79 108 142 177 221 274 328
#     4  11  22  35  52  77 108 141 179 222 267 325
#     4   8  15  30  52  75  99 131 174 223 273 323
#     4  10  21  35  54  80 107 143 180 220 266 323
#     4   9  18  34  55  80 111 147 187 232 280 332
#     4   9  18  32  54  86 116 144 185 235 284 332
#
# _framework density 20.209264999999998
#
# number of rings (size 3 to 8) (size 9 to 14) (size 15 to 20)
#    0.000    2.455    0.000    2.727    1.273    6.182 
#    0.000    1.818    0.000    2.182    0.000    6.364 
#    0.000    0.000    0.000    0.000    0.000    0.000 
#
# Total GULP energy -545441.239721 kJ/mol
# GULP energy per Si atom -12396.391812 kJ/mol
# Density = 2.016327 g / cm^3
# Si number density = 20.209265 Si / 1000 Ang^3
#
#
#
# Elastic Constant Matrix: (Units=GPa)
#
#
# Indices 1 2 3 4 5 6 
#
# 1 129.7537 19.6044 83.5768 0.0000 0.0000 0.0000
# 2 19.6044 48.5064 40.1527 0.0000 0.0000 0.0000
# 3 83.5768 40.1527 191.0498 0.0000 0.0000 0.0000
# 4 0.0000 0.0000 0.0000 18.3737 0.0000 0.0000
# 5 0.0000 0.0000 0.0000 0.0000 21.2258 0.0000
# 6 0.0000 0.0000 0.0000 0.0000 0.0000 12.5432
#
#
#
# Elastic Compliance Matrix: (Units=1/GPa)
#
#
# Indices 1 2 3 4 5 6 
#
# 1 0.010742 -0.000547 -0.004585 0.000000 0.000000 0.000000
# 2 -0.000547 0.024986 -0.005012 0.000000 0.000000 0.000000
# 3 -0.004585 -0.005012 0.008293 0.000000 0.000000 0.000000
# 4 0.000000 0.000000 0.000000 0.054426 0.000000 0.000000
# 5 0.000000 0.000000 0.000000 0.000000 0.047112 0.000000
# 6 0.000000 0.000000 0.000000 0.000000 0.000000 0.079724
#
#
# Mechanical properties :
#
#
# Convention : Reuss Voigt Hill
#
# Bulk Modulus (GPa) = 42.13232 72.88642 57.50937
# Shear Modulus (GPa) = 19.72530 25.49362 22.60946
#
# Velocity S-wave (km/s) = 3.12757 3.55559 3.34843
# Velocity P-wave (km/s) = 5.82542 7.28014 6.59303
#
# Compressibility (1/GPa) = 0.02373475
#
# Stress axis : x y z
#
# Youngs Moduli (GPa) = 93.08836 40.02297 120.58132
#
# Poissons Ratio (x) = 0.02188 0.55281
# Poissons Ratio (y) = 0.05089 0.60436
# Poissons Ratio (z) = 0.42676 0.20060
#
# Static dielectric constant tensor:
#      x y z
#    x 3.608290 0.000000 0.000000 
#    y 0.000000 3.532420 0.000000 
#    z 0.000000 0.000000 4.059960 
# 
# 
# High freq. dielectric constant tensor:
#      x y z
#    x 1.780310 0.000000 0.000000 
#    y 0.000000 1.772340 0.000000 
#    z 0.000000 0.000000 1.797970 
# 
# From -- ./inp_files/77902.got.cif
#   From: 2010.03.12/outbox.cif.g09.slc.cpg/sg65_39_cif.got.tgz:77902.got - 2010.04.10 20:52:16.
