data_PCOD8272648
_publ_section_title
;
Structure prediction by ZEFSAII (Michael W. Deem and Ramdas Pophale) SiO2 
 PCOD8272648
Probable space group: C M M M
;
_chemical_formula_sum "Si O2"
_cell_formula_units_Z 88
_cell_length_a 12.038720
_cell_length_b 16.051578
_cell_length_c 24.217261
_cell_angle_alpha 90.000000
_cell_angle_beta 90.000000
_cell_angle_gamma 90.000000
_cell_volume 4679.754488
_symmetry_space_group_name_H-M "C M M M"
_symmetry_group_IT_number 65
_symmetry_cell_setting 'orthorhombic'
loop_
_space_group_symop_operation_xyz
x,y,z
-x,-y,z
x,-y,-z
-x,y,-z
-x,-y,-z
x,y,-z
-x,y,z
x,-y,z
1/2+x,1/2+y,z
1/2-x,1/2-y,z
1/2+x,1/2-y,-z
1/2-x,1/2+y,-z
1/2-x,1/2-y,-z
1/2+x,1/2+y,-z
1/2-x,1/2+y,z
1/2+x,1/2-y,z
loop_
_atom_site_type_symbol
_atom_site_label
_atom_site_fract_x
_atom_site_fract_y
_atom_site_fract_z
Si Si1 0.126914 0.599117 0.720714
Si Si2 0.368554 0.500000 0.565382
Si Si3 0.724887 0.846674 0.388226
Si Si4 0.500000 0.592950 0.934613
Si Si5 0.130606 0.408205 0.158120
Si Si6 0.000000 0.591776 0.564585
Si Si7 0.767606 0.156251 0.059938
O O1 0.138868 0.500000 0.719142
O O2 0.211271 0.640779 0.677528
O O3 0.159509 0.632332 0.782098
O O4 0.000000 0.624227 0.705898
O O5 0.500000 0.500000 0.579240
O O6 0.347139 0.500000 0.500000
O O7 0.314900 0.585498 0.589789
O O8 0.750000 0.750000 0.401118
O O9 0.608620 0.859810 0.417822
O O10 0.500000 0.500000 0.910342
O O11 0.611037 0.638950 0.913711
O O12 0.500000 0.593744 0.000000
O O13 0.182813 0.500000 0.156264
O O14 0.176304 0.360869 0.105649
O O15 0.000000 0.412108 0.151712
O O16 0.000000 0.500000 0.592741
O O17 0.000000 0.581787 0.500000
O O18 0.750000 0.250000 0.044431
O O19 0.752539 0.108269 0.000000
#
# Coordination Sequence:
#
# PCOD8272648 Si02
#       7
#    16   8  16   8  16   8  16
#     4   9  17  36  63  86 112 151 198 249 298 347
#     4  11  26  45  61  87 133 172 194 241 318 374
#     4  12  24  39  66  94 122 162 209 257 303 361
#     4   9  18  34  54  73  99 145 195 226 265 338
#     4   9  19  34  57  86 113 145 189 240 296 352
#     4  11  22  40  66  94 121 159 216 262 292 349
#     4  10  21  34  53  78 113 151 187 235 290 349
#
# _framework density 18.804406
#
# number of rings (size 3 to 8) (size 9 to 14) (size 15 to 20)
#    0.000    1.909    2.727    2.182    2.545    3.636 
#    0.000    0.909    2.000    0.000    0.000    0.000 
#    0.000    0.000    0.000    0.000    0.000    0.000 
#
# Total GULP energy -545148.312837 kJ/mol
# GULP energy per Si atom -12389.734383 kJ/mol
# Density = 1.876161 g / cm^3
# Si number density = 18.804406 Si / 1000 Ang^3
#
#
#
# Elastic Constant Matrix: (Units=GPa)
#
#
# Indices 1 2 3 4 5 6 
#
# 1 88.1279 50.0871 49.9217 0.0000 0.0000 0.0000
# 2 50.0871 110.9381 39.3868 0.0000 0.0000 0.0000
# 3 49.9217 39.3868 129.0050 0.0000 0.0000 0.0000
# 4 0.0000 0.0000 0.0000 17.2449 0.0000 0.0000
# 5 0.0000 0.0000 0.0000 0.0000 31.1892 0.0000
# 6 0.0000 0.0000 0.0000 0.0000 0.0000 27.6919
#
#
#
# Elastic Compliance Matrix: (Units=1/GPa)
#
#
# Indices 1 2 3 4 5 6 
#
# 1 0.017688 -0.006231 -0.004942 0.000000 0.000000 0.000000
# 2 -0.006231 0.012305 -0.001346 0.000000 0.000000 0.000000
# 3 -0.004942 -0.001346 0.010075 0.000000 0.000000 0.000000
# 4 0.000000 0.000000 0.000000 0.057988 0.000000 0.000000
# 5 0.000000 0.000000 0.000000 0.000000 0.032062 0.000000
# 6 0.000000 0.000000 0.000000 0.000000 0.000000 0.036112
#
#
# Mechanical properties :
#
#
# Convention : Reuss Voigt Hill
#
# Bulk Modulus (GPa) = 66.53400 67.42915 66.98158
# Shear Modulus (GPa) = 25.47388 27.80357 26.63872
#
# Velocity S-wave (km/s) = 3.68459 3.84938 3.76789
# Velocity P-wave (km/s) = 7.31850 7.46278 7.39099
#
# Compressibility (1/GPa) = 0.01502991
#
# Stress axis : x y z
#
# Youngs Moduli (GPa) = 56.53399 81.26701 99.25500
#
# Poissons Ratio (x) = 0.50640 0.49057
# Poissons Ratio (y) = 0.35228 0.13355
# Poissons Ratio (z) = 0.27942 0.10935
#
# Static dielectric constant tensor:
#      x y z
#    x 3.388340 0.000000 0.000000 
#    y 0.000000 3.341480 0.000000 
#    z 0.000000 0.000000 3.686280 
# 
# 
# High freq. dielectric constant tensor:
#      x y z
#    x 1.722240 0.000000 0.000000 
#    y 0.000000 1.715190 0.000000 
#    z 0.000000 0.000000 1.741050 
# 
# From -- ./inp_files/74292.got.cif
#   From: 2010.03.12/outbox.cif.g09.slc.cpg/sg65_38_cif.got.tgz:74292.got - 2010.04.10 20:52:16.
