data_PCOD8272389
_publ_section_title
;
Structure prediction by ZEFSAII (Michael W. Deem and Ramdas Pophale) SiO2 
 PCOD8272389
Probable space group: C M M M
;
_chemical_formula_sum "Si O2"
_cell_formula_units_Z 88
_cell_length_a 23.355204
_cell_length_b 8.874330
_cell_length_c 22.512539
_cell_angle_alpha 90.000000
_cell_angle_beta 90.000000
_cell_angle_gamma 90.000000
_cell_volume 4665.989075
_symmetry_space_group_name_H-M "C M M M"
_symmetry_group_IT_number 65
_symmetry_cell_setting 'orthorhombic'
loop_
_space_group_symop_operation_xyz
x,y,z
-x,-y,z
x,-y,-z
-x,y,-z
-x,-y,-z
x,y,-z
-x,y,z
x,-y,z
1/2+x,1/2+y,z
1/2-x,1/2-y,z
1/2+x,1/2-y,-z
1/2-x,1/2+y,-z
1/2-x,1/2-y,-z
1/2+x,1/2+y,-z
1/2-x,1/2+y,z
1/2+x,1/2-y,z
loop_
_atom_site_type_symbol
_atom_site_label
_atom_site_fract_x
_atom_site_fract_y
_atom_site_fract_z
Si Si1 0.187476 0.321605 0.000000
Si Si2 0.190677 0.674018 0.430408
Si Si3 0.877191 0.321444 0.117794
Si Si4 0.500000 0.821252 0.290364
Si Si5 0.310395 0.326220 0.225008
Si Si6 0.000000 0.321553 0.844210
Si Si7 0.111989 0.825647 0.661299
O O1 0.250000 0.250000 0.000000
O O2 0.151523 0.265814 0.943167
O O3 0.194995 0.500000 0.000000
O O4 0.179850 0.693371 0.500000
O O5 0.193108 0.500000 0.411295
O O6 0.250000 0.750000 0.410830
O O7 0.138713 0.757180 0.398203
O O8 0.873767 0.500000 0.123679
O O9 0.843268 0.251087 0.171670
O O10 0.943386 0.265942 0.120648
O O11 0.500000 0.756379 0.222939
O O12 0.554561 0.763444 0.325495
O O13 0.500000 0.000000 0.289862
O O14 0.301778 0.500000 0.209055
O O15 0.250000 0.250000 0.234469
O O16 0.344639 0.301268 0.285047
O O17 0.000000 0.500000 0.840469
O O18 0.097656 0.000000 0.650981
#
# Coordination Sequence:
#
# PCOD8272389 Si02
#       7
#     8  16  16   8  16   8  16
#     4  10  22  37  57  81 113 150 189 238 287 344
#     4  10  21  38  61  89 121 157 197 241 290 346
#     4  10  20  37  58  83 112 147 189 234 286 343
#     4  11  21  37  61  86 115 154 193 239 293 350
#     4  11  23  36  54  82 113 147 187 236 286 339
#     4   9  18  34  59  85 110 145 188 233 285 340
#     4  11  23  38  58  86 118 153 194 241 292 346
#
# _framework density 18.859881000000001
#
# number of rings (size 3 to 8) (size 9 to 14) (size 15 to 20)
#    0.000    1.636    1.818    3.000    0.000    7.273 
#    0.000    2.727    0.000    2.727    0.000    1.909 
#    0.000    0.000    0.000    0.000    0.000    0.000 
#
# Total GULP energy -545764.873248 kJ/mol
# GULP energy per Si atom -12403.747119 kJ/mol
# Density = 1.881696 g / cm^3
# Si number density = 18.859881 Si / 1000 Ang^3
#
#
#
# Elastic Constant Matrix: (Units=GPa)
#
#
# Indices 1 2 3 4 5 6 
#
# 1 158.8144 51.1547 53.5623 0.0000 0.0000 0.0000
# 2 51.1547 73.1591 36.5764 0.0000 0.0000 0.0000
# 3 53.5623 36.5764 83.4922 0.0000 0.0000 0.0000
# 4 0.0000 0.0000 0.0000 31.2131 0.0000 0.0000
# 5 0.0000 0.0000 0.0000 0.0000 63.0364 0.0000
# 6 0.0000 0.0000 0.0000 0.0000 0.0000 37.3990
#
#
#
# Elastic Compliance Matrix: (Units=1/GPa)
#
#
# Indices 1 2 3 4 5 6 
#
# 1 0.009006 -0.004365 -0.003866 0.000000 0.000000 0.000000
# 2 -0.004365 0.019618 -0.005794 0.000000 0.000000 0.000000
# 3 -0.003866 -0.005794 0.016995 0.000000 0.000000 0.000000
# 4 0.000000 0.000000 0.000000 0.032038 0.000000 0.000000
# 5 0.000000 0.000000 0.000000 0.000000 0.015864 0.000000
# 6 0.000000 0.000000 0.000000 0.000000 0.000000 0.026739
#
#
# Mechanical properties :
#
#
# Convention : Reuss Voigt Hill
#
# Bulk Modulus (GPa) = 56.91403 66.45030 61.68216
# Shear Modulus (GPa) = 32.43275 37.94117 35.18696
#
# Velocity S-wave (km/s) = 4.15139 4.49011 4.32407
# Velocity P-wave (km/s) = 7.29531 7.88616 7.59648
#
# Compressibility (1/GPa) = 0.01757036
#
# Stress axis : x y z
#
# Youngs Moduli (GPa) = 111.03328 50.97480 58.83980
#
# Poissons Ratio (x) = 0.22249 0.22745
# Poissons Ratio (y) = 0.48464 0.34092
# Poissons Ratio (z) = 0.42921 0.29535
#
# Static dielectric constant tensor:
#      x y z
#    x 3.572240 0.000000 0.000000 
#    y 0.000000 3.501040 0.000000 
#    z 0.000000 0.000000 1.963640 
# 
# 
# High freq. dielectric constant tensor:
#      x y z
#    x 1.745470 0.000000 0.000000 
#    y 0.000000 1.731630 0.000000 
#    z 0.000000 0.000000 1.735530 
# 
# From -- ./inp_files/59858.got.cif
#   From: 2010.03.12/outbox.cif.g09.slc.cpg/sg65_30_cif.got.tgz:59858.got - 2010.04.10 20:52:16.
