data_PCOD8272698
_publ_section_title
;
Structure prediction by ZEFSAII (Michael W. Deem and Ramdas Pophale) SiO2 
 PCOD8272698
Probable space group: C M M M
;
_chemical_formula_sum "Si O2"
_cell_formula_units_Z 96
_cell_length_a 9.186291
_cell_length_b 19.074537
_cell_length_c 30.462723
_cell_angle_alpha 90.000000
_cell_angle_beta 90.000000
_cell_angle_gamma 90.000000
_cell_volume 5337.807717
_symmetry_space_group_name_H-M "C M M M"
_symmetry_group_IT_number 65
_symmetry_cell_setting 'orthorhombic'
loop_
_space_group_symop_operation_xyz
x,y,z
-x,-y,z
x,-y,-z
-x,y,-z
-x,-y,-z
x,y,-z
-x,y,z
x,-y,z
1/2+x,1/2+y,z
1/2-x,1/2-y,z
1/2+x,1/2-y,-z
1/2-x,1/2+y,-z
1/2-x,1/2-y,-z
1/2+x,1/2+y,-z
1/2-x,1/2+y,z
1/2+x,1/2-y,z
loop_
_atom_site_type_symbol
_atom_site_label
_atom_site_fract_x
_atom_site_fract_y
_atom_site_fract_z
Si Si1 0.668946 0.322503 0.046309
Si Si2 0.829538 0.823684 0.141414
Si Si3 0.329456 0.418653 0.778200
Si Si4 0.829588 0.679088 0.286621
Si Si5 0.831546 0.319299 0.388467
Si Si6 0.835244 0.082393 0.450531
O O1 0.500000 0.304890 0.047031
O O2 0.750000 0.250000 0.044635
O O3 0.709417 0.358103 0.093201
O O4 0.705937 0.364296 0.000000
O O5 0.750000 0.750000 0.149463
O O6 0.779567 0.880270 0.177160
O O7 0.000000 0.808270 0.145628
O O8 0.500000 0.407812 0.768711
O O9 0.289805 0.500000 0.782965
O O10 0.237707 0.387170 0.738210
O O11 0.750000 0.750000 0.270673
O O12 0.799372 0.665209 0.337668
O O13 0.000000 0.686494 0.276109
O O14 0.750000 0.250000 0.404617
O O15 0.776430 0.384273 0.416618
O O16 0.000000 0.307646 0.397507
O O17 0.800230 0.107759 0.500000
O O18 0.000000 0.103563 0.437949
O O19 0.814508 0.000000 0.447161
#
# Coordination Sequence:
#
# PCOD8272698 Si02
#       6
#    16  16  16  16  16  16
#     4   8  13  22  38  61  88 116 148 190 238 284
#     4   9  17  29  46  68  93 122 158 199 242 290
#     4  10  21  35  50  70  98 132 167 203 246 295
#     4  10  21  37  56  77 101 129 164 206 250 298
#     4  10  21  36  55  79 105 133 166 206 251 297
#     4   9  19  36  56  78 106 140 175 209 246 290
#
# _framework density 17.984912000000001
#
# number of rings (size 3 to 8) (size 9 to 14) (size 15 to 20)
#    0.000    2.667    0.000    2.000    0.000    6.000 
#    0.000    4.167    0.000    0.500    0.000    3.500 
#    0.000    0.000    0.000   28.500    0.000   14.333 
#
# Total GULP energy -594839.395403 kJ/mol
# GULP energy per Si atom -12392.487404 kJ/mol
# Density = 1.794398 g / cm^3
# Si number density = 17.984912 Si / 1000 Ang^3
#
#
#
# Elastic Constant Matrix: (Units=GPa)
#
#
# Indices 1 2 3 4 5 6 
#
# 1 69.5988 44.1937 55.5411 0.0000 0.0000 0.0000
# 2 44.1937 90.4543 62.0597 0.0000 0.0000 0.0000
# 3 55.5411 62.0597 111.5092 0.0000 0.0000 0.0000
# 4 0.0000 0.0000 0.0000 15.8897 0.0000 0.0000
# 5 0.0000 0.0000 0.0000 0.0000 22.9403 0.0000
# 6 0.0000 0.0000 0.0000 0.0000 0.0000 28.1698
#
#
#
# Elastic Compliance Matrix: (Units=1/GPa)
#
#
# Indices 1 2 3 4 5 6 
#
# 1 0.025787 -0.006126 -0.009435 0.000000 0.000000 0.000000
# 2 -0.006126 0.019339 -0.007712 0.000000 0.000000 0.000000
# 3 -0.009435 -0.007712 0.017959 0.000000 0.000000 0.000000
# 4 0.000000 0.000000 0.000000 0.062934 0.000000 0.000000
# 5 0.000000 0.000000 0.000000 0.000000 0.043591 0.000000
# 6 0.000000 0.000000 0.000000 0.000000 0.000000 0.035499
#
#
# Mechanical properties :
#
#
# Convention : Reuss Voigt Hill
#
# Bulk Modulus (GPa) = 60.45822 66.12793 63.29307
# Shear Modulus (GPa) = 19.44251 20.71783 20.08017
#
# Velocity S-wave (km/s) = 3.29149 3.39773 3.34503
# Velocity P-wave (km/s) = 6.93789 7.22780 7.08433
#
# Compressibility (1/GPa) = 0.01654035
#
# Stress axis : x y z
#
# Youngs Moduli (GPa) = 38.77928 51.70811 55.68133
#
# Poissons Ratio (x) = 0.31675 0.52535
# Poissons Ratio (y) = 0.23755 0.42942
# Poissons Ratio (z) = 0.36588 0.39878
#
# Static dielectric constant tensor:
#      x y z
#    x 3.278170 0.000000 0.000000 
#    y 0.000000 3.008660 0.000000 
#    z 0.000000 0.000000 3.845190 
# 
# 
# High freq. dielectric constant tensor:
#      x y z
#    x 1.697550 0.000000 0.000000 
#    y 0.000000 1.662520 0.000000 
#    z 0.000000 0.000000 1.718310 
# 
# From -- ./inp_files/73123.got.cif
#   From: 2010.03.12/outbox.cif.g09.slc.cpg/sg65_37_cif.got.tgz:73123.got - 2010.04.10 20:52:16.
