data_PCOD8272720
_publ_section_title
;
Structure prediction by ZEFSAII (Michael W. Deem and Ramdas Pophale) SiO2 
 PCOD8272720
Probable space group: C M M M
;
_chemical_formula_sum "Si O2"
_cell_formula_units_Z 80
_cell_length_a 18.109345
_cell_length_b 9.508269
_cell_length_c 25.891262
_cell_angle_alpha 90.000000
_cell_angle_beta 90.000000
_cell_angle_gamma 90.000000
_cell_volume 4458.178180
_symmetry_space_group_name_H-M "C M M M"
_symmetry_group_IT_number 65
_symmetry_cell_setting 'orthorhombic'
loop_
_space_group_symop_operation_xyz
x,y,z
-x,-y,z
x,-y,-z
-x,y,-z
-x,-y,-z
x,y,-z
-x,y,z
x,-y,z
1/2+x,1/2+y,z
1/2-x,1/2-y,z
1/2+x,1/2-y,-z
1/2-x,1/2+y,-z
1/2-x,1/2-y,-z
1/2+x,1/2+y,-z
1/2-x,1/2+y,z
1/2+x,1/2-y,z
loop_
_atom_site_type_symbol
_atom_site_label
_atom_site_fract_x
_atom_site_fract_y
_atom_site_fract_z
Si Si1 0.588277 0.158302 0.000000
Si Si2 0.912147 0.842078 0.208305
Si Si3 0.585771 0.337849 0.601174
Si Si4 0.675626 0.335920 0.500000
Si Si5 0.411968 0.841287 0.301913
Si Si6 0.912203 0.842291 0.093761
O O1 0.619804 0.236106 0.949077
O O2 0.500000 0.160032 0.000000
O O3 0.618840 0.000000 0.000000
O O4 0.879699 0.734823 0.250771
O O5 0.885759 0.794847 0.151010
O O6 0.000000 0.840899 0.210711
O O7 0.883895 0.000000 0.220312
O O8 0.500000 0.309355 0.590411
O O9 0.599289 0.500000 0.616104
O O10 0.628873 0.293333 0.550023
O O11 0.616041 0.242409 0.647851
O O12 0.694540 0.500000 0.500000
O O13 0.750000 0.250000 0.500000
O O14 0.500000 0.840392 0.300390
O O15 0.381129 0.000000 0.303734
O O16 0.000000 0.841074 0.091633
O O17 0.883858 0.000000 0.081742
#
# Coordination Sequence:
#
# PCOD8272720 Si02
#       6
#     8  16  16   8  16  16
#     4   9  15  19  23  33  49  71 103 145 192 237
#     4   8  13  21  32  45  62  87 118 152 194 243
#     4   9  17  31  50  68  87 114 148 180 209 250
#     4  10  21  35  51  71  93 118 146 178 216 254
#     4   9  16  24  36  57  81 101 124 160 207 251
#     4   8  13  20  28  36  49  74 109 147 187 233
#
# _framework density 17.94455
#
# number of rings (size 3 to 8) (size 9 to 14) (size 15 to 20)
#    0.000    3.300    0.000    2.400    0.000    6.400 
#    0.000    4.000    0.000    3.000    0.000    0.000 
#    0.000    0.000    0.000    0.000    0.000    0.000 
#
# Total GULP energy -495795.861885 kJ/mol
# GULP energy per Si atom -12394.896547 kJ/mol
# Density = 1.790371 g / cm^3
# Si number density = 17.944550 Si / 1000 Ang^3
#
#
#
# Elastic Constant Matrix: (Units=GPa)
#
#
# Indices 1 2 3 4 5 6 
#
# 1 19.2332 21.2352 25.8074 0.0000 0.0000 0.0000
# 2 21.2352 139.1773 115.4712 0.0000 0.0000 0.0000
# 3 25.8074 115.4712 197.4627 0.0000 0.0000 0.0000
# 4 0.0000 0.0000 0.0000 24.7762 0.0000 0.0000
# 5 0.0000 0.0000 0.0000 0.0000 -0.3551 0.0000
# 6 0.0000 0.0000 0.0000 0.0000 0.0000 11.1932
#
#
#
# Elastic Compliance Matrix: (Units=1/GPa)
#
#
# Indices 1 2 3 4 5 6 
#
# 1 0.065216 -0.005592 -0.005254 0.000000 0.000000 0.000000
# 2 -0.005592 0.014436 -0.007711 0.000000 0.000000 0.000000
# 3 -0.005254 -0.007711 0.010260 0.000000 0.000000 0.000000
# 4 0.000000 0.000000 0.000000 0.040361 0.000000 0.000000
# 5 0.000000 0.000000 0.000000 0.000000 -2.816168 0.000000
# 6 0.000000 0.000000 0.000000 0.000000 0.000000 0.089340
#
#
# Mechanical properties :
#
#
# Convention : Reuss Voigt Hill
#
# Bulk Modulus (GPa) = 18.93948 75.65565 47.29756
# Shear Modulus (GPa) = -1.96708 20.01350 9.02321
#
# Velocity S-wave (km/s) = -1.04813 3.34323 2.24484
# Velocity P-wave (km/s) = 3.01871 7.56011 5.75621
#
# Compressibility (1/GPa) = 0.05279977
#
# Stress axis : x y z
#
# Youngs Moduli (GPa) = 15.33357 69.27283 97.46648
#
# Poissons Ratio (x) = 0.38736 0.51204
# Poissons Ratio (y) = 0.08574 0.75154
# Poissons Ratio (z) = 0.08056 0.53415
#
# Static dielectric constant tensor:
#      x y z
#    x 2.514600 0.000000 0.000000 
#    y 0.000000 3.492940 0.000000 
#    z 0.000000 0.000000 3.692820 
# 
# 
# High freq. dielectric constant tensor:
#      x y z
#    x 1.605740 0.000000 0.000000 
#    y 0.000000 1.696550 0.000000 
#    z 0.000000 0.000000 1.714870 
# 
# From -- ./inp_files/75130.got.cif
#   From: 2010.03.12/outbox.cif.g09.slc.cpg/sg65_38_cif.got.tgz:75130.got - 2010.04.10 20:52:16.
