data_PCOD8272377
_publ_section_title
;
Structure prediction by ZEFSAII (Michael W. Deem and Ramdas Pophale) SiO2 
 PCOD8272377
Probable space group: C M M M
;
_chemical_formula_sum "Si O2"
_cell_formula_units_Z 56
_cell_length_a 9.153532
_cell_length_b 33.284432
_cell_length_c 10.190754
_cell_angle_alpha 90.000000
_cell_angle_beta 90.000000
_cell_angle_gamma 90.000000
_cell_volume 3104.818177
_symmetry_space_group_name_H-M "C M M M"
_symmetry_group_IT_number 65
_symmetry_cell_setting 'orthorhombic'
loop_
_space_group_symop_operation_xyz
x,y,z
-x,-y,z
x,-y,-z
-x,y,-z
-x,-y,-z
x,y,-z
-x,y,z
x,-y,z
1/2+x,1/2+y,z
1/2-x,1/2-y,z
1/2+x,1/2-y,-z
1/2-x,1/2+y,-z
1/2-x,1/2-y,-z
1/2+x,1/2+y,-z
1/2-x,1/2+y,z
1/2+x,1/2-y,z
loop_
_atom_site_type_symbol
_atom_site_label
_atom_site_fract_x
_atom_site_fract_y
_atom_site_fract_z
Si Si1 0.335050 0.000000 0.843825
Si Si2 0.167386 0.922967 0.150160
Si Si3 0.173930 0.707320 0.000000
Si Si4 0.830485 0.207908 0.500000
Si Si5 0.830551 0.835680 0.766626
O O1 0.259596 0.040324 0.789122
O O2 0.500000 0.000000 0.794181
O O3 0.320691 0.000000 0.000000
O O4 0.197019 0.883453 0.236693
O O5 0.000000 0.936322 0.156810
O O6 0.212780 0.913338 0.000000
O O7 0.250000 0.750000 0.000000
O O8 0.223474 0.683827 0.128598
O O9 0.000000 0.712229 0.000000
O O10 0.750000 0.250000 0.500000
O O11 0.786629 0.181894 0.373884
O O12 0.000000 0.218052 0.500000
O O13 0.000000 0.826676 0.803191
#
# Coordination Sequence:
#
# PCOD8272377 Si02
#       5
#     8  16   8   8  16
#     4   9  17  27  43  72 109 138 168 214 259 307
#     4   9  16  29  50  74 103 138 174 212 261 316
#     4  12  24  36  54  79 106 139 176 222 273 322
#     4  10  22  38  58  79 106 141 181 222 269 324
#     4  10  20  37  57  80 108 140 178 224 270 320
#
# _framework density 18.036483
#
# number of rings (size 3 to 8) (size 9 to 14) (size 15 to 20)
#    0.000    2.143    1.429    2.571    0.000    6.286 
#    0.000    0.000    0.000    0.857    0.000    6.000 
#    0.000    0.000    0.000    0.000    0.000    0.000 
#
# Total GULP energy -347233.757366 kJ/mol
# GULP energy per Si atom -12401.205620 kJ/mol
# Density = 1.799543 g / cm^3
# Si number density = 18.036483 Si / 1000 Ang^3
#
#
#
# Elastic Constant Matrix: (Units=GPa)
#
#
# Indices 1 2 3 4 5 6 
#
# 1 107.9285 78.1152 51.3794 0.0000 0.0000 0.0000
# 2 78.1152 166.7925 62.6899 0.0000 0.0000 0.0000
# 3 51.3794 62.6899 102.6513 0.0000 0.0000 0.0000
# 4 0.0000 0.0000 0.0000 26.3104 0.0000 0.0000
# 5 0.0000 0.0000 0.0000 0.0000 -0.0838 0.0000
# 6 0.0000 0.0000 0.0000 0.0000 0.0000 34.7393
#
#
#
# Elastic Compliance Matrix: (Units=1/GPa)
#
#
# Indices 1 2 3 4 5 6 
#
# 1 0.015334 -0.005577 -0.004269 0.000000 0.000000 0.000000
# 2 -0.005577 0.009810 -0.003200 0.000000 0.000000 0.000000
# 3 -0.004269 -0.003200 0.013833 0.000000 0.000000 0.000000
# 4 0.000000 0.000000 0.000000 0.038008 0.000000 0.000000
# 5 0.000000 0.000000 0.000000 0.000000-11.930194 0.000000
# 6 0.000000 0.000000 0.000000 0.000000 0.000000 0.028786
#
#
# Mechanical properties :
#
#
# Convention : Reuss Voigt Hill
#
# Bulk Modulus (GPa) = 77.60882 84.63791 81.12336
# Shear Modulus (GPa) = -0.42394 24.53903 12.05754
#
# Velocity S-wave (km/s) = -0.48534 3.69253 2.58836
# Velocity P-wave (km/s) = 6.54279 8.07512 7.34900
#
# Compressibility (1/GPa) = 0.01288513
#
# Stress axis : x y z
#
# Youngs Moduli (GPa) = 65.21381 101.93713 72.29298
#
# Poissons Ratio (x) = 0.56850 0.30864
# Poissons Ratio (y) = 0.36369 0.23131
# Poissons Ratio (z) = 0.27841 0.32616
#
# Static dielectric constant tensor:
#      x y z
#    x 3.342770 0.000000 0.000000 
#    y 0.000000 3.518550 0.000000 
#    z 0.000000 0.000000 3.130030 
# 
# 
# High freq. dielectric constant tensor:
#      x y z
#    x 1.695460 0.000000 0.000000 
#    y 0.000000 1.716120 0.000000 
#    z 0.000000 0.000000 1.662270 
# 
# From -- ./inp_files/20831.got.cif
#   From: 2010.03.12/outbox.cif.g09.slc.cpg/sg65_11_cif.got.tgz:20831.got - 2010.04.10 20:52:16.
