data_PCOD8272836
_publ_section_title
;
Structure prediction by ZEFSAII (Michael W. Deem and Ramdas Pophale) SiO2 
 PCOD8272836
Probable space group: C M M M
;
_chemical_formula_sum "Si O2"
_cell_formula_units_Z 88
_cell_length_a 18.467036
_cell_length_b 8.758173
_cell_length_c 27.808545
_cell_angle_alpha 90.000000
_cell_angle_beta 90.000000
_cell_angle_gamma 90.000000
_cell_volume 4497.684438
_symmetry_space_group_name_H-M "C M M M"
_symmetry_group_IT_number 65
_symmetry_cell_setting 'orthorhombic'
loop_
_space_group_symop_operation_xyz
x,y,z
-x,-y,z
x,-y,-z
-x,y,-z
-x,-y,-z
x,y,-z
-x,y,z
x,-y,z
1/2+x,1/2+y,z
1/2-x,1/2-y,z
1/2+x,1/2-y,-z
1/2-x,1/2+y,-z
1/2-x,1/2-y,-z
1/2+x,1/2+y,-z
1/2-x,1/2+y,z
1/2+x,1/2-y,z
loop_
_atom_site_type_symbol
_atom_site_label
_atom_site_fract_x
_atom_site_fract_y
_atom_site_fract_z
Si Si1 0.671144 0.820295 0.723086
Si Si2 0.083607 0.323671 0.907844
Si Si3 0.328689 0.180859 0.000000
Si Si4 0.083747 0.822126 0.808065
Si Si5 0.674035 0.821333 0.444308
Si Si6 0.584711 0.677411 0.636231
O O1 0.750000 0.750000 0.719755
O O2 0.633097 0.773246 0.772369
O O3 0.623918 0.766149 0.678507
O O4 0.678729 0.000000 0.721215
O O5 0.100561 0.500000 0.896213
O O6 0.105742 0.223007 0.862025
O O7 0.000000 0.301232 0.921333
O O8 0.129527 0.261589 0.952691
O O9 0.250000 0.250000 0.000000
O O10 0.324942 0.000000 0.000000
O O11 0.000000 0.780957 0.798316
O O12 0.098622 0.000000 0.799926
O O13 0.659045 0.786439 0.500000
O O14 0.750000 0.750000 0.427559
O O15 0.609821 0.742256 0.415040
O O16 0.676080 0.000000 0.433249
O O17 0.500000 0.706708 0.641357
O O18 0.604209 0.500000 0.639900
#
# Coordination Sequence:
#
# PCOD8272836 Si02
#       6
#    16  16   8  16  16  16
#     4  12  25  41  62  86 115 151 191 235 284 340
#     4   9  18  35  58  81 107 145 192 234 275 329
#     4  10  21  35  53  79 111 146 184 232 284 334
#     4  10  21  38  60  87 118 149 185 232 284 338
#     4  10  21  38  61  88 119 155 195 239 286 339
#     4  11  24  41  61  86 118 154 192 237 287 339
#
# _framework density 19.565624
#
# number of rings (size 3 to 8) (size 9 to 14) (size 15 to 20)
#    0.000    1.636    0.000    4.636    0.000    8.727 
#    0.000    3.636    0.000    2.727    0.000    0.000 
#    0.000    0.000    0.000    0.000    0.000    0.000 
#
# Total GULP energy -545861.960230 kJ/mol
# GULP energy per Si atom -12405.953642 kJ/mol
# Density = 1.952109 g / cm^3
# Si number density = 19.565624 Si / 1000 Ang^3
#
#
#
# Elastic Constant Matrix: (Units=GPa)
#
#
# Indices 1 2 3 4 5 6 
#
# 1 104.1393 65.2514 69.7276 0.0000 0.0000 0.0000
# 2 65.2514 123.7371 58.7955 0.0000 0.0000 0.0000
# 3 69.7276 58.7955 120.2004 0.0000 0.0000 0.0000
# 4 0.0000 0.0000 0.0000 34.0255 0.0000 0.0000
# 5 0.0000 0.0000 0.0000 0.0000 26.5069 0.0000
# 6 0.0000 0.0000 0.0000 0.0000 0.0000 35.4733
#
#
#
# Elastic Compliance Matrix: (Units=1/GPa)
#
#
# Indices 1 2 3 4 5 6 
#
# 1 0.018699 -0.006132 -0.007848 0.000000 0.000000 0.000000
# 2 -0.006132 0.012539 -0.002577 0.000000 0.000000 0.000000
# 3 -0.007848 -0.002577 0.014132 0.000000 0.000000 0.000000
# 4 0.000000 0.000000 0.000000 0.029390 0.000000 0.000000
# 5 0.000000 0.000000 0.000000 0.000000 0.037726 0.000000
# 6 0.000000 0.000000 0.000000 0.000000 0.000000 0.028190
#
#
# Mechanical properties :
#
#
# Convention : Reuss Voigt Hill
#
# Bulk Modulus (GPa) = 81.57728 81.73620 81.65674
# Shear Modulus (GPa) = 28.10946 29.48797 28.79871
#
# Velocity S-wave (km/s) = 3.79446 3.88639 3.84070
# Velocity P-wave (km/s) = 7.80910 7.87431 7.84177
#
# Compressibility (1/GPa) = 0.01225832
#
# Stress axis : x y z
#
# Youngs Moduli (GPa) = 53.47799 79.74810 70.75941
#
# Poissons Ratio (x) = 0.48900 0.55532
# Poissons Ratio (y) = 0.32791 0.18232
# Poissons Ratio (z) = 0.41970 0.20548
#
# Static dielectric constant tensor:
#      x y z
#    x 3.615470 0.000000 0.000000 
#    y 0.000000 3.652790 0.000000 
#    z 0.000000 0.000000 3.746780 
# 
# 
# High freq. dielectric constant tensor:
#      x y z
#    x 1.764130 0.000000 0.000000 
#    y 0.000000 1.770710 0.000000 
#    z 0.000000 0.000000 1.777070 
# 
# From -- ./inp_files/77794.got.cif
#   From: 2010.03.12/outbox.cif.g09.slc.cpg/sg65_39_cif.got.tgz:77794.got - 2010.04.10 20:52:16.
