data_PCOD8272114
_publ_section_title
;
Structure prediction by ZEFSAII (Michael W. Deem and Ramdas Pophale) SiO2 
 PCOD8272114
Probable space group: C M M M
;
_chemical_formula_sum "Si O2"
_cell_formula_units_Z 72
_cell_length_a 18.282392
_cell_length_b 26.769941
_cell_length_c 7.479421
_cell_angle_alpha 90.000000
_cell_angle_beta 90.000000
_cell_angle_gamma 90.000000
_cell_volume 3660.567419
_symmetry_space_group_name_H-M "C M M M"
_symmetry_group_IT_number 65
_symmetry_cell_setting 'orthorhombic'
loop_
_space_group_symop_operation_xyz
x,y,z
-x,-y,z
x,-y,-z
-x,y,-z
-x,-y,-z
x,y,-z
-x,y,z
x,-y,z
1/2+x,1/2+y,z
1/2-x,1/2-y,z
1/2+x,1/2-y,-z
1/2-x,1/2+y,-z
1/2-x,1/2-y,-z
1/2+x,1/2+y,-z
1/2-x,1/2+y,z
1/2+x,1/2-y,z
loop_
_atom_site_type_symbol
_atom_site_label
_atom_site_fract_x
_atom_site_fract_y
_atom_site_fract_z
Si Si1 0.086749 0.706338 0.197053
Si Si2 0.788359 0.559704 0.500000
Si Si3 0.086546 0.368546 0.500000
Si Si4 0.580214 0.500000 0.789406
Si Si5 0.081425 0.816306 0.211659
Si Si6 0.321942 0.591910 0.787877
O O1 0.113117 0.663049 0.328541
O O2 0.110270 0.761285 0.268841
O O3 0.000000 0.706726 0.184636
O O4 0.120436 0.695911 0.000000
O O5 0.787530 0.500000 0.500000
O O6 0.872322 0.578495 0.500000
O O7 0.752029 0.582325 0.321197
O O8 0.000000 0.378793 0.500000
O O9 0.500000 0.500000 0.700425
O O10 0.622607 0.451103 0.726564
O O11 0.572361 0.500000 0.000000
O O12 0.140790 0.856546 0.276957
O O13 0.000000 0.827075 0.291907
O O14 0.074821 0.819005 0.000000
O O15 0.304823 0.590789 0.000000
#
# Coordination Sequence:
#
# PCOD8272114 Si02
#       6
#    16   8   8   8  16  16
#     4   8  15  31  56  86 115 139 170 217 271 325
#     4  12  26  42  57  77 105 139 184 232 287 343
#     4  10  22  40  63  83  99 130 177 231 289 345
#     4   9  16  29  53  79 106 148 196 228 248 285
#     4   8  14  28  54  85 117 153 187 217 252 303
#     4  10  20  36  55  79 114 153 186 220 266 313
#
# _framework density 19.669082
#
# number of rings (size 3 to 8) (size 9 to 14) (size 15 to 20)
#    0.000    2.778    1.111    2.000    0.000    4.667 
#    0.000    6.111    0.000    4.000    0.000    4.667 
#    0.000    0.000    0.000    0.000    0.000    0.000 
#
# Total GULP energy -446185.378363 kJ/mol
# GULP energy per Si atom -12394.038288 kJ/mol
# Density = 1.962431 g / cm^3
# Si number density = 19.669082 Si / 1000 Ang^3
#
#
#
# Elastic Constant Matrix: (Units=GPa)
#
#
# Indices 1 2 3 4 5 6 
#
# 1 82.1874 58.9258 32.5562 0.0000 0.0000 0.0000
# 2 58.9258 107.0109 38.7263 0.0000 0.0000 0.0000
# 3 32.5562 38.7263 83.0732 0.0000 0.0000 0.0000
# 4 0.0000 0.0000 0.0000 12.1212 0.0000 0.0000
# 5 0.0000 0.0000 0.0000 0.0000 17.3414 0.0000
# 6 0.0000 0.0000 0.0000 0.0000 0.0000 53.3344
#
#
#
# Elastic Compliance Matrix: (Units=1/GPa)
#
#
# Indices 1 2 3 4 5 6 
#
# 1 0.020871 -0.010264 -0.003394 0.000000 0.000000 0.000000
# 2 -0.010264 0.016289 -0.003571 0.000000 0.000000 0.000000
# 3 -0.003394 -0.003571 0.015033 0.000000 0.000000 0.000000
# 4 0.000000 0.000000 0.000000 0.082500 0.000000 0.000000
# 5 0.000000 0.000000 0.000000 0.000000 0.057665 0.000000
# 6 0.000000 0.000000 0.000000 0.000000 0.000000 0.018750
#
#
# Mechanical properties :
#
#
# Convention : Reuss Voigt Hill
#
# Bulk Modulus (GPa) = 56.39073 59.18755 57.78914
# Shear Modulus (GPa) = 19.88242 26.03030 22.95636
#
# Velocity S-wave (km/s) = 3.18283 3.64182 3.42003
# Velocity P-wave (km/s) = 6.49917 6.91670 6.71118
#
# Compressibility (1/GPa) = 0.01773341
#
# Stress axis : x y z
#
# Youngs Moduli (GPa) = 47.91311 61.39034 66.52242
#
# Poissons Ratio (x) = 0.63013 0.22581
# Poissons Ratio (y) = 0.49180 0.23755
# Poissons Ratio (z) = 0.16264 0.21922
#
# Static dielectric constant tensor:
#      x y z
#    x 3.243040 0.000000 0.000000 
#    y 0.000000 3.765700 0.000000 
#    z 0.000000 0.000000 3.797270 
# 
# 
# High freq. dielectric constant tensor:
#      x y z
#    x 1.727520 0.000000 0.000000 
#    y 0.000000 1.766870 0.000000 
#    z 0.000000 0.000000 1.761450 
# 
# From -- ./inp_files/7386.got.cif
#   From: 2010.03.12/outbox.cif.g09.slc.cpg/sg65_4_cif.got.tgz:7386.got - 2010.04.10 20:52:16.
