data_PCOD8272442
_publ_section_title
;
Structure prediction by ZEFSAII (Michael W. Deem and Ramdas Pophale) SiO2 
 PCOD8272442
Probable space group: C M M M
;
_chemical_formula_sum "Si O2"
_cell_formula_units_Z 104
_cell_length_a 18.487114
_cell_length_b 31.781739
_cell_length_c 9.116499
_cell_angle_alpha 90.000000
_cell_angle_beta 90.000000
_cell_angle_gamma 90.000000
_cell_volume 5356.422982
_symmetry_space_group_name_H-M "C M M M"
_symmetry_group_IT_number 65
_symmetry_cell_setting 'orthorhombic'
loop_
_space_group_symop_operation_xyz
x,y,z
-x,-y,z
x,-y,-z
-x,y,-z
-x,-y,-z
x,y,-z
-x,y,z
x,-y,z
1/2+x,1/2+y,z
1/2-x,1/2-y,z
1/2+x,1/2-y,-z
1/2-x,1/2+y,-z
1/2-x,1/2-y,-z
1/2+x,1/2+y,-z
1/2-x,1/2+y,z
1/2+x,1/2-y,z
loop_
_atom_site_type_symbol
_atom_site_label
_atom_site_fract_x
_atom_site_fract_y
_atom_site_fract_z
Si Si1 0.416182 0.824535 0.332179
Si Si2 0.798736 0.452516 0.333896
Si Si3 0.581904 0.907921 0.827681
Si Si4 0.832938 0.242047 0.327562
Si Si5 0.581789 0.500000 0.673335
Si Si6 0.584321 0.333500 0.825984
Si Si7 0.350375 0.414310 0.671808
O O1 0.397414 0.834904 0.500000
O O2 0.500000 0.815030 0.308358
O O3 0.390041 0.863915 0.237204
O O4 0.374363 0.783722 0.277232
O O5 0.826138 0.447472 0.500000
O O6 0.769424 0.500000 0.307854
O O7 0.866779 0.444974 0.228614
O O8 0.735761 0.418494 0.302897
O O9 0.500000 0.917280 0.775392
O O10 0.586878 0.905165 0.000000
O O11 0.842015 0.232704 0.500000
O O12 0.750000 0.250000 0.284853
O O13 0.867264 0.203617 0.239728
O O14 0.500000 0.500000 0.724623
O O15 0.592543 0.500000 0.500000
O O16 0.616641 0.542527 0.735585
O O17 0.500000 0.328452 0.780103
O O18 0.615980 0.376733 0.763969
O O19 0.592625 0.333428 0.000000
O O20 0.368570 0.407497 0.500000
#
# Coordination Sequence:
#
# PCOD8272442 Si02
#       7
#    16  16  16  16   8  16  16
#     4   9  18  35  59  84 112 148 190 237 285 334
#     4  10  21  38  60  86 117 151 191 243 297 346
#     4  10  22  38  57  84 117 154 195 236 284 348
#     4  10  22  39  61  90 119 150 193 242 290 340
#     4   9  16  30  57  89 114 141 186 240 287 331
#     4  11  25  42  59  85 123 162 197 236 286 345
#     4  10  20  37  61  88 116 150 195 243 289 341
#
# _framework density 19.415942000000001
#
# number of rings (size 3 to 8) (size 9 to 14) (size 15 to 20)
#    0.000    2.077    0.769    1.846    2.154    5.538 
#    0.000    3.462    0.000    1.385    0.000    0.000 
#    0.000    0.000    0.000    0.000    0.000    0.000 
#
# Total GULP energy -644852.192264 kJ/mol
# GULP energy per Si atom -12401.003697 kJ/mol
# Density = 1.937175 g / cm^3
# Si number density = 19.415942 Si / 1000 Ang^3
#
#
#
# Elastic Constant Matrix: (Units=GPa)
#
#
# Indices 1 2 3 4 5 6 
#
# 1 106.5192 70.2112 47.1861 0.0000 0.0000 0.0000
# 2 70.2112 108.6951 48.3380 0.0000 0.0000 0.0000
# 3 47.1861 48.3380 65.4666 0.0000 0.0000 0.0000
# 4 0.0000 0.0000 0.0000 -5.3344 0.0000 0.0000
# 5 0.0000 0.0000 0.0000 0.0000 26.8116 0.0000
# 6 0.0000 0.0000 0.0000 0.0000 0.0000 40.0998
#
#
#
# Elastic Compliance Matrix: (Units=1/GPa)
#
#
# Indices 1 2 3 4 5 6 
#
# 1 0.018060 -0.008750 -0.006556 0.000000 0.000000 0.000000
# 2 -0.008750 0.017937 -0.006937 0.000000 0.000000 0.000000
# 3 -0.006556 -0.006937 0.025123 0.000000 0.000000 0.000000
# 4 0.000000 0.000000 0.000000 -0.187462 0.000000 0.000000
# 5 0.000000 0.000000 0.000000 0.000000 0.037297 0.000000
# 6 0.000000 0.000000 0.000000 0.000000 0.000000 0.024938
#
#
# Mechanical properties :
#
#
# Convention : Reuss Voigt Hill
#
# Bulk Modulus (GPa) = 60.12334 68.01682 64.07008
# Shear Modulus (GPa) = -355.22833 19.97845 -167.62494
#
# Velocity S-wave (km/s) = -13.54084 3.21124 -9.30167
# Velocity P-wave (km/s) = 14.60956 6.98977 9.07144
#
# Compressibility (1/GPa) = 0.01663248
#
# Stress axis : x y z
#
# Youngs Moduli (GPa) = 55.37178 55.74983 39.80452
#
# Poissons Ratio (x) = 0.48781 0.26096
# Poissons Ratio (y) = 0.48450 0.27614
# Poissons Ratio (z) = 0.36303 0.38676
#
# Static dielectric constant tensor:
#      x y z
#    x 3.676600 0.000000 0.000000 
#    y 0.000000 3.656600 0.000000 
#    z 0.000000 0.000000 3.346260 
# 
# 
# High freq. dielectric constant tensor:
#      x y z
#    x 1.766960 0.000000 0.000000 
#    y 0.000000 1.764120 0.000000 
#    z 0.000000 0.000000 1.736180 
# 
# From -- ./inp_files/12425.got.cif
#   From: 2010.03.12/outbox.cif.g09.slc.cpg/sg65_7_cif.got.tgz:12425.got - 2010.04.10 20:52:16.
