data_PCOD8272663
_publ_section_title
;
Structure prediction by ZEFSAII (Michael W. Deem and Ramdas Pophale) SiO2 
 PCOD8272663
Probable space group: C M M M
;
_chemical_formula_sum "Si O2"
_cell_formula_units_Z 96
_cell_length_a 24.489049
_cell_length_b 24.024550
_cell_length_c 9.242853
_cell_angle_alpha 90.000000
_cell_angle_beta 90.000000
_cell_angle_gamma 90.000000
_cell_volume 5437.925180
_symmetry_space_group_name_H-M "C M M M"
_symmetry_group_IT_number 65
_symmetry_cell_setting 'orthorhombic'
loop_
_space_group_symop_operation_xyz
x,y,z
-x,-y,z
x,-y,-z
-x,y,-z
-x,-y,-z
x,y,-z
-x,y,z
x,-y,z
1/2+x,1/2+y,z
1/2-x,1/2-y,z
1/2+x,1/2-y,-z
1/2-x,1/2+y,-z
1/2-x,1/2-y,-z
1/2+x,1/2+y,-z
1/2-x,1/2+y,z
1/2+x,1/2-y,z
loop_
_atom_site_type_symbol
_atom_site_label
_atom_site_fract_x
_atom_site_fract_y
_atom_site_fract_z
Si Si1 0.151409 0.147572 0.828880
Si Si2 0.061988 0.358470 0.832882
Si Si3 0.650917 0.229534 0.167412
Si Si4 0.225461 0.368703 0.829438
Si Si5 0.438613 0.437435 0.827945
Si Si6 0.139307 0.565106 0.334852
O O1 0.147264 0.209524 0.758744
O O2 0.211253 0.124623 0.790030
O O3 0.105318 0.106401 0.762169
O O4 0.142802 0.150295 0.000000
O O5 0.093828 0.301148 0.803343
O O6 0.086089 0.407587 0.736290
O O7 0.000000 0.347949 0.787241
O O8 0.067718 0.376144 0.000000
O O9 0.700987 0.190980 0.224756
O O10 0.662163 0.240353 0.000000
O O11 0.194267 0.418106 0.748826
O O12 0.214407 0.374824 0.000000
O O13 0.500000 0.420568 0.778183
O O14 0.424848 0.500000 0.772577
O O15 0.435423 0.436853 0.000000
O O16 0.144110 0.585019 0.500000
O O17 0.131237 0.500000 0.322585
#
# Coordination Sequence:
#
# PCOD8272663 Si02
#       6
#    16  16  16  16  16  16
#     4   9  15  23  41  66  89 119 155 185 220 272
#     4   9  18  32  50  72  96 122 154 193 234 275
#     4   8  14  25  41  63  91 117 142 180 228 270
#     4   9  17  29  46  68  93 119 149 190 234 272
#     4   8  14  23  32  48  82 121 149 177 216 260
#     4  10  21  35  49  66  91 124 159 194 235 282
#
# _framework density 17.653791999999999
#
# number of rings (size 3 to 8) (size 9 to 14) (size 15 to 20)
#    0.000    3.167    0.000    2.500    0.000    5.333 
#    0.000    6.667    0.000    8.000    0.000    0.000 
#    0.000    0.667    0.000    3.667    0.000    3.000 
#
# Total GULP energy -594909.494805 kJ/mol
# GULP energy per Si atom -12393.947808 kJ/mol
# Density = 1.761361 g / cm^3
# Si number density = 17.653792 Si / 1000 Ang^3
#
#
#
# Elastic Constant Matrix: (Units=GPa)
#
#
# Indices 1 2 3 4 5 6 
#
# 1 140.8362 47.9067 26.3406 0.0000 0.0000 0.0000
# 2 47.9067 71.8313 22.3997 0.0000 0.0000 0.0000
# 3 26.3406 22.3997 37.3451 0.0000 0.0000 0.0000
# 4 0.0000 0.0000 0.0000 5.7577 0.0000 0.0000
# 5 0.0000 0.0000 0.0000 0.0000 4.4595 0.0000
# 6 0.0000 0.0000 0.0000 0.0000 0.0000 23.2453
#
#
#
# Elastic Compliance Matrix: (Units=1/GPa)
#
#
# Indices 1 2 3 4 5 6 
#
# 1 0.009560 -0.005256 -0.003590 0.000000 0.000000 0.000000
# 2 -0.005256 0.020014 -0.008297 0.000000 0.000000 0.000000
# 3 -0.003590 -0.008297 0.034286 0.000000 0.000000 0.000000
# 4 0.000000 0.000000 0.000000 0.173681 0.000000 0.000000
# 5 0.000000 0.000000 0.000000 0.000000 0.224242 0.000000
# 6 0.000000 0.000000 0.000000 0.000000 0.000000 0.043019
#
#
# Mechanical properties :
#
#
# Convention : Reuss Voigt Hill
#
# Bulk Modulus (GPa) = 33.81447 49.25628 41.53537
# Shear Modulus (GPa) = 9.10832 16.91687 13.01259
#
# Velocity S-wave (km/s) = 2.27390 3.09893 2.71790
# Velocity P-wave (km/s) = 5.10783 6.38485 5.78171
#
# Compressibility (1/GPa) = 0.02957314
#
# Stress axis : x y z
#
# Youngs Moduli (GPa) = 104.60392 49.96380 29.16622
#
# Poissons Ratio (x) = 0.26262 0.10471
# Poissons Ratio (y) = 0.54982 0.24200
# Poissons Ratio (z) = 0.37554 0.41457
#
# Static dielectric constant tensor:
#      x y z
#    x 3.554210 0.000000 0.000000 
#    y 0.000000 3.464490 0.000000 
#    z 0.000000 0.000000 2.797170 
# 
# 
# High freq. dielectric constant tensor:
#      x y z
#    x 1.691440 0.000000 0.000000 
#    y 0.000000 1.685850 0.000000 
#    z 0.000000 0.000000 1.619700 
# 
# From -- ./inp_files/12249.got.cif
#   From: 2010.03.12/outbox.cif.g09.slc.cpg/sg65_7_cif.got.tgz:12249.got - 2010.04.10 20:52:16.
