data_PCOD8272901
_publ_section_title
;
Structure prediction by ZEFSAII (Michael W. Deem and Ramdas Pophale) SiO2 
 PCOD8272901
Probable space group: C M M M
;
_chemical_formula_sum "Si O2"
_cell_formula_units_Z 72
_cell_length_a 18.441442
_cell_length_b 8.914214
_cell_length_c 23.473779
_cell_angle_alpha 90.000000
_cell_angle_beta 90.000000
_cell_angle_gamma 90.000000
_cell_volume 3858.877075
_symmetry_space_group_name_H-M "C M M M"
_symmetry_group_IT_number 65
_symmetry_cell_setting 'orthorhombic'
loop_
_space_group_symop_operation_xyz
x,y,z
-x,-y,z
x,-y,-z
-x,y,-z
-x,-y,-z
x,y,-z
-x,y,z
x,-y,z
1/2+x,1/2+y,z
1/2-x,1/2-y,z
1/2+x,1/2-y,-z
1/2-x,1/2+y,-z
1/2-x,1/2-y,-z
1/2+x,1/2+y,-z
1/2-x,1/2+y,z
1/2+x,1/2-y,z
loop_
_atom_site_type_symbol
_atom_site_label
_atom_site_fract_x
_atom_site_fract_y
_atom_site_fract_z
Si Si1 0.672095 0.676216 0.622763
Si Si2 0.918909 0.678165 0.936867
Si Si3 0.326662 0.325039 0.500000
Si Si4 0.084603 0.825206 0.731816
Si Si5 0.327787 0.822180 0.168832
O O1 0.684920 0.500000 0.626528
O O2 0.750000 0.750000 0.632785
O O3 0.636164 0.720363 0.560588
O O4 0.616705 0.728688 0.671322
O O5 0.920695 0.500000 0.934650
O O6 0.862516 0.739517 0.890161
O O7 0.000000 0.739166 0.923542
O O8 0.894484 0.732464 0.000000
O O9 0.313482 0.500000 0.500000
O O10 0.250000 0.250000 0.500000
O O11 0.119969 0.725115 0.780396
O O12 0.000000 0.791037 0.730741
O O13 0.100894 0.000000 0.743440
O O14 0.250000 0.750000 0.177730
O O15 0.319576 0.000000 0.168436
#
# Coordination Sequence:
#
# PCOD8272901 Si02
#       5
#    16  16   8  16  16
#     4   9  17  30  49  72  97 127 163 203 246 292
#     4   8  15  30  52  76 101 130 165 204 245 291
#     4   8  14  26  45  69  95 123 159 200 241 288
#     4  10  21  36  52  72 101 134 167 207 255 302
#     4  11  22  35  53  77 103 133 170 209 250 296
#
# _framework density 18.658276999999998
#
# number of rings (size 3 to 8) (size 9 to 14) (size 15 to 20)
#    0.000    2.667    0.000    2.667    0.000    4.444 
#    0.000    0.556    0.000    5.333    0.000    7.778 
#    0.000   10.667    0.000    0.000    0.000    0.000 
#
# Total GULP energy -446093.101186 kJ/mol
# GULP energy per Si atom -12391.475033 kJ/mol
# Density = 1.861581 g / cm^3
# Si number density = 18.658277 Si / 1000 Ang^3
#
#
#
# Elastic Constant Matrix: (Units=GPa)
#
#
# Indices 1 2 3 4 5 6 
#
# 1 105.4402 28.3231 74.2788 0.0000 0.0000 0.0000
# 2 28.3231 32.6886 37.3644 0.0000 0.0000 0.0000
# 3 74.2788 37.3644 177.0627 0.0000 0.0000 0.0000
# 4 0.0000 0.0000 0.0000 24.4282 0.0000 0.0000
# 5 0.0000 0.0000 0.0000 0.0000 25.8587 0.0000
# 6 0.0000 0.0000 0.0000 0.0000 0.0000 14.6117
#
#
#
# Elastic Compliance Matrix: (Units=1/GPa)
#
#
# Indices 1 2 3 4 5 6 
#
# 1 0.014743 -0.007518 -0.004598 0.000000 0.000000 0.000000
# 2 -0.007518 0.044150 -0.006163 0.000000 0.000000 0.000000
# 3 -0.004598 -0.006163 0.008877 0.000000 0.000000 0.000000
# 4 0.000000 0.000000 0.000000 0.040936 0.000000 0.000000
# 5 0.000000 0.000000 0.000000 0.000000 0.038672 0.000000
# 6 0.000000 0.000000 0.000000 0.000000 0.000000 0.068438
#
#
# Mechanical properties :
#
#
# Convention : Reuss Voigt Hill
#
# Bulk Modulus (GPa) = 32.03898 66.12489 49.08193
# Shear Modulus (GPa) = 19.02742 24.66139 21.84441
#
# Velocity S-wave (km/s) = 3.19687 3.63952 3.42535
# Velocity P-wave (km/s) = 5.55296 7.29235 6.48127
#
# Compressibility (1/GPa) = 0.03121198
#
# Stress axis : x y z
#
# Youngs Moduli (GPa) = 67.82974 22.64996 112.64804
#
# Poissons Ratio (x) = 0.17028 0.51798
# Poissons Ratio (y) = 0.50994 0.69424
# Poissons Ratio (z) = 0.31190 0.13959
#
# Static dielectric constant tensor:
#      x y z
#    x 3.323820 0.000000 0.000000 
#    y 0.000000 3.115690 0.000000 
#    z 0.000000 0.000000 4.210020 
# 
# 
# High freq. dielectric constant tensor:
#      x y z
#    x 1.706110 0.000000 0.000000 
#    y 0.000000 1.698360 0.000000 
#    z 0.000000 0.000000 1.752440 
# 
# From -- ./inp_files/59221.got.cif
#   From: 2010.03.12/outbox.cif.g09.slc.cpg/sg65_30_cif.got.tgz:59221.got - 2010.04.10 20:52:16.
