data_PCOD8272326
_publ_section_title
;
Structure prediction by ZEFSAII (Michael W. Deem and Ramdas Pophale) SiO2 
 PCOD8272326
Probable space group: C M M M
;
_chemical_formula_sum "Si O2"
_cell_formula_units_Z 72
_cell_length_a 27.200837
_cell_length_b 17.638668
_cell_length_c 7.678090
_cell_angle_alpha 90.000000
_cell_angle_beta 90.000000
_cell_angle_gamma 90.000000
_cell_volume 3683.844182
_symmetry_space_group_name_H-M "C M M M"
_symmetry_group_IT_number 65
_symmetry_cell_setting 'orthorhombic'
loop_
_space_group_symop_operation_xyz
x,y,z
-x,-y,z
x,-y,-z
-x,y,-z
-x,-y,-z
x,y,-z
-x,y,z
x,-y,z
1/2+x,1/2+y,z
1/2-x,1/2-y,z
1/2+x,1/2-y,-z
1/2-x,1/2+y,-z
1/2-x,1/2-y,-z
1/2+x,1/2+y,-z
1/2-x,1/2+y,z
1/2+x,1/2-y,z
loop_
_atom_site_type_symbol
_atom_site_label
_atom_site_fract_x
_atom_site_fract_y
_atom_site_fract_z
Si Si1 0.598748 0.187889 0.301861
Si Si2 0.557514 0.089548 0.000000
Si Si3 0.553257 0.655325 0.293954
Si Si4 0.696191 0.736214 0.801180
Si Si5 0.150969 0.084044 0.293396
O O1 0.586265 0.163188 0.500000
O O2 0.566607 0.259287 0.238414
O O3 0.655995 0.212977 0.298401
O O4 0.585093 0.119896 0.172592
O O5 0.500000 0.112370 0.000000
O O6 0.564008 0.000000 0.000000
O O7 0.550789 0.650851 0.500000
O O8 0.500000 0.633805 0.213331
O O9 0.595069 0.597939 0.225979
O O10 0.750000 0.750000 0.718381
O O11 0.686352 0.646165 0.790469
O O12 0.695437 0.763041 0.000000
O O13 0.153138 0.093344 0.500000
O O14 0.167490 0.000000 0.234360
#
# Coordination Sequence:
#
# PCOD8272326 Si02
#       5
#    16   8  16  16  16
#     4  10  20  37  60  86 116 150 192 240 291 350
#     4  11  24  40  59  86 119 153 194 247 304 360
#     4   8  14  26  48  77 106 142 184 218 256 315
#     4  10  20  36  60  85 108 146 197 242 290 347
#     4   9  18  31  48  76 113 147 181 224 274 330
#
# _framework density 19.544802000000001
#
# number of rings (size 3 to 8) (size 9 to 14) (size 15 to 20)
#    0.000    2.556    1.111    2.667    0.000    4.444 
#    0.000    4.444    0.000    0.000    0.000    3.111 
#    0.000    0.000    0.000    0.000    0.000    0.000 
#
# Total GULP energy -446225.705072 kJ/mol
# GULP energy per Si atom -12395.158474 kJ/mol
# Density = 1.950032 g / cm^3
# Si number density = 19.544802 Si / 1000 Ang^3
#
#
#
# Elastic Constant Matrix: (Units=GPa)
#
#
# Indices 1 2 3 4 5 6 
#
# 1 139.0089 50.6394 9.7798 0.0000 0.0000 0.0000
# 2 50.6394 98.0821 27.4048 0.0000 0.0000 0.0000
# 3 9.7798 27.4048 69.7363 0.0000 0.0000 0.0000
# 4 0.0000 0.0000 0.0000 27.0579 0.0000 0.0000
# 5 0.0000 0.0000 0.0000 0.0000 14.7532 0.0000
# 6 0.0000 0.0000 0.0000 0.0000 0.0000 12.3101
#
#
#
# Elastic Compliance Matrix: (Units=1/GPa)
#
#
# Indices 1 2 3 4 5 6 
#
# 1 0.008884 -0.004762 0.000625 0.000000 0.000000 0.000000
# 2 -0.004762 0.014005 -0.004836 0.000000 0.000000 0.000000
# 3 0.000625 -0.004836 0.016152 0.000000 0.000000 0.000000
# 4 0.000000 0.000000 0.000000 0.036958 0.000000 0.000000
# 5 0.000000 0.000000 0.000000 0.000000 0.067782 0.000000
# 6 0.000000 0.000000 0.000000 0.000000 0.000000 0.081234
#
#
# Mechanical properties :
#
#
# Convention : Reuss Voigt Hill
#
# Bulk Modulus (GPa) = 47.39930 53.60837 50.50383
# Shear Modulus (GPa) = 20.00059 25.42448 22.71254
#
# Velocity S-wave (km/s) = 3.20241 3.61062 3.41262
# Velocity P-wave (km/s) = 6.16264 6.69851 6.43616
#
# Compressibility (1/GPa) = 0.02109736
#
# Stress axis : x y z
#
# Youngs Moduli (GPa) = 112.55651 71.40212 61.91009
#
# Poissons Ratio (x) = 0.34000 -0.03871
# Poissons Ratio (y) = 0.53596 0.29939
# Poissons Ratio (z) = -0.07038 0.34530
#
# Static dielectric constant tensor:
#      x y z
#    x 3.831470 0.000000 0.000000 
#    y 0.000000 3.392030 0.000000 
#    z 0.000000 0.000000 3.385540 
# 
# 
# High freq. dielectric constant tensor:
#      x y z
#    x 1.760680 0.000000 0.000000 
#    y 0.000000 1.738020 0.000000 
#    z 0.000000 0.000000 1.753260 
# 
# From -- ./inp_files/15968.got.cif
#   From: 2010.03.12/outbox.cif.g09.slc.cpg/sg65_8_cif.got.tgz:15968.got - 2010.04.10 20:52:16.
