data_PCOD8272301
_publ_section_title
;
Structure prediction by ZEFSAII (Michael W. Deem and Ramdas Pophale) SiO2 
 PCOD8272301
Probable space group: C M M M
;
_chemical_formula_sum "Si O2"
_cell_formula_units_Z 72
_cell_length_a 18.562720
_cell_length_b 7.876388
_cell_length_c 25.103874
_cell_angle_alpha 90.000000
_cell_angle_beta 90.000000
_cell_angle_gamma 90.000000
_cell_volume 3670.366752
_symmetry_space_group_name_H-M "C M M M"
_symmetry_group_IT_number 65
_symmetry_cell_setting 'orthorhombic'
loop_
_space_group_symop_operation_xyz
x,y,z
-x,-y,z
x,-y,-z
-x,y,-z
-x,-y,-z
x,y,-z
-x,y,z
x,-y,z
1/2+x,1/2+y,z
1/2-x,1/2-y,z
1/2+x,1/2-y,-z
1/2-x,1/2+y,-z
1/2-x,1/2-y,-z
1/2+x,1/2+y,-z
1/2-x,1/2+y,z
1/2+x,1/2-y,z
loop_
_atom_site_type_symbol
_atom_site_label
_atom_site_fract_x
_atom_site_fract_y
_atom_site_fract_z
Si Si1 0.331490 0.692789 0.771642
Si Si2 0.582592 0.797598 0.671156
Si Si3 0.414425 0.500000 0.059481
Si Si4 0.416916 0.810566 0.130711
Si Si5 0.585512 0.809874 0.443702
O O1 0.336151 0.500000 0.791179
O O2 0.250000 0.750000 0.767212
O O3 0.367306 0.709499 0.714153
O O4 0.372993 0.806596 0.814521
O O5 0.500000 0.744665 0.682079
O O6 0.609558 0.727203 0.612741
O O7 0.590686 0.000000 0.673617
O O8 0.500000 0.500000 0.056399
O O9 0.387146 0.670455 0.089239
O O10 0.381498 0.500000 0.000000
O O11 0.500000 0.772208 0.144441
O O12 0.408156 0.000000 0.106016
O O13 0.609547 0.717561 0.500000
O O14 0.500000 0.817680 0.441524
O O15 0.616508 0.000000 0.445742
#
# Coordination Sequence:
#
# PCOD8272301 Si02
#       5
#    16  16   8  16  16
#     4  12  24  37  53  75 104 142 183 229 278 329
#     4   9  17  30  50  77 107 136 172 218 268 327
#     4   9  18  34  58  90 122 150 184 224 266 313
#     4  10  20  36  59  87 117 149 185 225 270 322
#     4   7  10  19  39  68  99 130 165 208 259 316
#
# _framework density 19.616568000000001
#
# number of rings (size 3 to 8) (size 9 to 14) (size 15 to 20)
#    0.000    2.556    1.111    4.667    0.000    3.556 
#    0.000    2.222    0.000    2.000    0.000    3.111 
#    0.000    0.000    0.000    0.000    0.000    0.000 
#
# Total GULP energy -445991.279492 kJ/mol
# GULP energy per Si atom -12388.646653 kJ/mol
# Density = 1.957192 g / cm^3
# Si number density = 19.616568 Si / 1000 Ang^3
#
#
#
# Elastic Constant Matrix: (Units=GPa)
#
#
# Indices 1 2 3 4 5 6 
#
# 1 65.3920 23.2766 44.0850 0.0000 0.0000 0.0000
# 2 23.2766 93.5311 43.6262 0.0000 0.0000 0.0000
# 3 44.0850 43.6262 163.9490 0.0000 0.0000 0.0000
# 4 0.0000 0.0000 0.0000 19.8588 0.0000 0.0000
# 5 0.0000 0.0000 0.0000 0.0000 -0.3663 0.0000
# 6 0.0000 0.0000 0.0000 0.0000 0.0000 9.5339
#
#
#
# Elastic Compliance Matrix: (Units=1/GPa)
#
#
# Indices 1 2 3 4 5 6 
#
# 1 0.019264 -0.002715 -0.004458 0.000000 0.000000 0.000000
# 2 -0.002715 0.012589 -0.002620 0.000000 0.000000 0.000000
# 3 -0.004458 -0.002620 0.007995 0.000000 0.000000 0.000000
# 4 0.000000 0.000000 0.000000 0.050356 0.000000 0.000000
# 5 0.000000 0.000000 0.000000 0.000000 -2.730260 0.000000
# 6 0.000000 0.000000 0.000000 0.000000 0.000000 0.104889
#
#
# Mechanical properties :
#
#
# Convention : Reuss Voigt Hill
#
# Bulk Modulus (GPa) = 49.34956 60.53864 54.94410
# Shear Modulus (GPa) = -1.99296 19.93089 8.96896
#
# Velocity S-wave (km/s) = -1.00904 3.19097 2.14058
# Velocity P-wave (km/s) = 4.88407 6.67116 5.84630
#
# Compressibility (1/GPa) = 0.02026360
#
# Stress axis : x y z
#
# Youngs Moduli (GPa) = 51.91051 79.43246 125.07482
#
# Poissons Ratio (x) = 0.21566 0.55752
# Poissons Ratio (y) = 0.14094 0.32769
# Poissons Ratio (z) = 0.23139 0.20811
#
# Static dielectric constant tensor:
#      x y z
#    x 3.131200 0.000000 0.000000 
#    y 0.000000 3.456110 0.000000 
#    z 0.000000 0.000000 4.029870 
# 
# 
# High freq. dielectric constant tensor:
#      x y z
#    x 1.710260 0.000000 0.000000 
#    y 0.000000 1.750790 0.000000 
#    z 0.000000 0.000000 1.779180 
# 
# From -- ./inp_files/70330.got.cif
#   From: 2010.03.12/outbox.cif.g09.slc.cpg/sg65_36_cif.got.tgz:70330.got - 2010.04.10 20:52:16.
