data_PCOD8272886
_publ_section_title
;
Structure prediction by ZEFSAII (Michael W. Deem and Ramdas Pophale) SiO2 
 PCOD8272886
Probable space group: C M M M
;
_chemical_formula_sum "Si O2"
_cell_formula_units_Z 104
_cell_length_a 29.067310
_cell_length_b 9.017234
_cell_length_c 23.631104
_cell_angle_alpha 90.000000
_cell_angle_beta 90.000000
_cell_angle_gamma 90.000000
_cell_volume 6193.871538
_symmetry_space_group_name_H-M "C M M M"
_symmetry_group_IT_number 65
_symmetry_cell_setting 'orthorhombic'
loop_
_space_group_symop_operation_xyz
x,y,z
-x,-y,z
x,-y,-z
-x,y,-z
-x,-y,-z
x,y,-z
-x,y,z
x,-y,z
1/2+x,1/2+y,z
1/2-x,1/2-y,z
1/2+x,1/2-y,-z
1/2-x,1/2+y,-z
1/2-x,1/2-y,-z
1/2+x,1/2+y,-z
1/2-x,1/2+y,z
1/2+x,1/2-y,z
loop_
_atom_site_type_symbol
_atom_site_label
_atom_site_fract_x
_atom_site_fract_y
_atom_site_fract_z
Si Si1 0.700576 0.324052 0.161890
Si Si2 0.645013 0.676122 0.272012
Si Si3 0.297903 0.671286 0.500000
Si Si4 0.050101 0.824405 0.769244
Si Si5 0.449287 0.168879 0.114187
Si Si6 0.700675 0.674927 0.377985
Si Si7 0.645607 0.828888 0.063933
O O1 0.706161 0.500000 0.161139
O O2 0.750000 0.250000 0.163643
O O3 0.672821 0.268010 0.217084
O O4 0.673991 0.275205 0.105641
O O5 0.645725 0.500000 0.273246
O O6 0.592144 0.734681 0.269532
O O7 0.667480 0.740303 0.329413
O O8 0.286185 0.500000 0.500000
O O9 0.250000 0.750000 0.500000
O O10 0.322676 0.711249 0.559970
O O11 0.059243 0.774178 0.832823
O O12 0.000000 0.766237 0.747297
O O13 0.050559 0.000000 0.769754
O O14 0.500000 0.199629 0.087212
O O15 0.409251 0.201096 0.068995
O O16 0.446441 0.000000 0.135936
O O17 0.707615 0.500000 0.369915
O O18 0.750000 0.750000 0.371741
O O19 0.656957 0.000000 0.077911
O O20 0.660136 0.789467 0.000000
#
# Coordination Sequence:
#
# PCOD8272886 Si02
#       7
#    16  16   8  16  16  16  16
#     4  11  22  36  52  69  90 117 150 189 232 271
#     4   9  17  29  46  69  93 117 147 185 223 265
#     4   8  14  24  40  60  85 121 153 183 218 256
#     4   9  16  28  47  68  90 117 147 179 220 269
#     4   9  17  30  49  72  95 117 142 178 224 271
#     4   9  16  27  42  63  92 121 153 185 219 261
#     4  10  21  36  52  70  92 119 151 184 222 272
#
# _framework density 16.790790999999999
#
# number of rings (size 3 to 8) (size 9 to 14) (size 15 to 20)
#    0.000    2.615    1.538    0.923    0.000    0.923 
#    0.000    3.077    0.000    0.000    0.000    3.769 
#    0.000    4.308    0.000    0.000    0.000   33.462 
#
# Total GULP energy -644276.737379 kJ/mol
# GULP energy per Si atom -12389.937257 kJ/mol
# Density = 1.675257 g / cm^3
# Si number density = 16.790791 Si / 1000 Ang^3
#
#
#
# Elastic Constant Matrix: (Units=GPa)
#
#
# Indices 1 2 3 4 5 6 
#
# 1 120.2818 27.7806 68.2462 0.0000 0.0000 0.0000
# 2 27.7806 24.7215 25.4277 0.0000 0.0000 0.0000
# 3 68.2462 25.4277 133.9789 0.0000 0.0000 0.0000
# 4 0.0000 0.0000 0.0000 15.6643 0.0000 0.0000
# 5 0.0000 0.0000 0.0000 0.0000 22.1442 0.0000
# 6 0.0000 0.0000 0.0000 0.0000 0.0000 12.4190
#
#
#
# Elastic Compliance Matrix: (Units=1/GPa)
#
#
# Indices 1 2 3 4 5 6 
#
# 1 0.013429 -0.010009 -0.004941 0.000000 0.000000 0.000000
# 2 -0.010009 0.057722 -0.005857 0.000000 0.000000 0.000000
# 3 -0.004941 -0.005857 0.011092 0.000000 0.000000 0.000000
# 4 0.000000 0.000000 0.000000 0.063840 0.000000 0.000000
# 5 0.000000 0.000000 0.000000 0.000000 0.045159 0.000000
# 6 0.000000 0.000000 0.000000 0.000000 0.000000 0.080522
#
#
# Mechanical properties :
#
#
# Convention : Reuss Voigt Hill
#
# Bulk Modulus (GPa) = 24.61211 57.98792 41.30002
# Shear Modulus (GPa) = 15.29434 20.54734 17.92084
#
# Velocity S-wave (km/s) = 3.02135 3.50198 3.27050
# Velocity P-wave (km/s) = 5.18279 7.13879 6.23793
#
# Compressibility (1/GPa) = 0.04063040
#
# Stress axis : x y z
#
# Youngs Moduli (GPa) = 74.46691 17.32448 90.15356
#
# Poissons Ratio (x) = 0.17339 0.44544
# Poissons Ratio (y) = 0.74530 0.52801
# Poissons Ratio (z) = 0.36793 0.10147
#
# Static dielectric constant tensor:
#      x y z
#    x 3.435250 0.000000 0.000000 
#    y 0.000000 2.980930 0.000000 
#    z 0.000000 0.000000 3.457870 
# 
# 
# High freq. dielectric constant tensor:
#      x y z
#    x 1.643190 0.000000 0.000000 
#    y 0.000000 1.632550 0.000000 
#    z 0.000000 0.000000 1.635840 
# 
# From -- ./inp_files/71820.got.cif
#   From: 2010.03.12/outbox.cif.g09.slc.cpg/sg65_36_cif.got.tgz:71820.got - 2010.04.10 20:52:16.
