data_PCOD8272659
_publ_section_title
;
Structure prediction by ZEFSAII (Michael W. Deem and Ramdas Pophale) SiO2 
 PCOD8272659
Probable space group: C M M M
;
_chemical_formula_sum "Si O2"
_cell_formula_units_Z 72
_cell_length_a 14.226536
_cell_length_b 34.012588
_cell_length_c 8.934535
_cell_angle_alpha 90.000000
_cell_angle_beta 90.000000
_cell_angle_gamma 90.000000
_cell_volume 4323.254479
_symmetry_space_group_name_H-M "C M M M"
_symmetry_group_IT_number 65
_symmetry_cell_setting 'orthorhombic'
loop_
_space_group_symop_operation_xyz
x,y,z
-x,-y,z
x,-y,-z
-x,y,-z
-x,-y,-z
x,y,-z
-x,y,z
x,-y,z
1/2+x,1/2+y,z
1/2-x,1/2-y,z
1/2+x,1/2-y,-z
1/2-x,1/2+y,-z
1/2-x,1/2-y,-z
1/2+x,1/2+y,-z
1/2-x,1/2+y,z
1/2+x,1/2-y,z
loop_
_atom_site_type_symbol
_atom_site_label
_atom_site_fract_x
_atom_site_fract_y
_atom_site_fract_z
Si Si1 0.891612 0.271205 0.827756
Si Si2 0.891814 0.190766 0.675482
Si Si3 0.107271 0.585039 0.678841
Si Si4 0.110727 0.500000 0.337510
Si Si5 0.225144 0.346834 0.823232
O O1 0.860443 0.233874 0.730754
O O2 0.833693 0.308738 0.772879
O O3 0.000000 0.281700 0.802094
O O4 0.870140 0.260894 0.000000
O O5 0.874481 0.188025 0.500000
O O6 0.830185 0.157696 0.758422
O O7 0.000000 0.182856 0.718369
O O8 0.116872 0.586184 0.500000
O O9 0.136806 0.541432 0.742494
O O10 0.178173 0.615035 0.753505
O O11 0.000000 0.595155 0.725710
O O12 0.160136 0.500000 0.500000
O O13 0.000000 0.500000 0.362163
O O14 0.228455 0.351721 0.000000
#
# Coordination Sequence:
#
# PCOD8272659 Si02
#       5
#    16  16  16   8  16
#     4   9  18  32  47  64  91 125 155 185 227 278
#     4  10  21  35  49  65  86 116 158 204 242 275
#     4   9  17  30  49  72  98 127 157 188 222 264
#     4   7  12  26  47  69  94 125 156 183 217 264
#     4  11  21  31  46  69  96 125 156 190 230 277
#
# _framework density 16.654119999999999
#
# number of rings (size 3 to 8) (size 9 to 14) (size 15 to 20)
#    0.000    2.556    0.000    4.000    0.000    7.111 
#    0.000    2.778    0.000    2.000    0.000    0.778 
#    0.000    6.222    0.000    0.000    0.000    0.000 
#
# Total GULP energy -446257.856390 kJ/mol
# GULP energy per Si atom -12396.051566 kJ/mol
# Density = 1.661621 g / cm^3
# Si number density = 16.654120 Si / 1000 Ang^3
#
#
#
# Elastic Constant Matrix: (Units=GPa)
#
#
# Indices 1 2 3 4 5 6 
#
# 1 79.3384 75.4112 36.4079 0.0000 0.0000 0.0000
# 2 75.4112 136.9957 48.8339 0.0000 0.0000 0.0000
# 3 36.4079 48.8339 50.5784 0.0000 0.0000 0.0000
# 4 0.0000 0.0000 0.0000 -41.8828 0.0000 0.0000
# 5 0.0000 0.0000 0.0000 0.0000 21.6324 0.0000
# 6 0.0000 0.0000 0.0000 0.0000 0.0000 24.2953
#
#
#
# Elastic Compliance Matrix: (Units=1/GPa)
#
#
# Indices 1 2 3 4 5 6 
#
# 1 0.028497 -0.012769 -0.008184 0.000000 0.000000 0.000000
# 2 -0.012769 0.016852 -0.007079 0.000000 0.000000 0.000000
# 3 -0.008184 -0.007079 0.032497 0.000000 0.000000 0.000000
# 4 0.000000 0.000000 0.000000 -0.023876 0.000000 0.000000
# 5 0.000000 0.000000 0.000000 0.000000 0.046227 0.000000
# 6 0.000000 0.000000 0.000000 0.000000 0.000000 0.041160
#
#
# Mechanical properties :
#
#
# Convention : Reuss Voigt Hill
#
# Bulk Modulus (GPa) = 45.91070 65.35762 55.63416
# Shear Modulus (GPa) = 24.42805 7.89296 16.16050
#
# Velocity S-wave (km/s) = 3.83402 2.17937 3.11844
# Velocity P-wave (km/s) = 6.87216 6.75738 6.81501
#
# Compressibility (1/GPa) = 0.02178142
#
# Stress axis : x y z
#
# Youngs Moduli (GPa) = 35.09131 59.34051 30.77170
#
# Poissons Ratio (x) = 0.75773 0.25184
# Poissons Ratio (y) = 0.44809 0.21783
# Poissons Ratio (z) = 0.28720 0.42007
#
# Static dielectric constant tensor:
#      x y z
#    x 3.097910 0.000000 0.000000 
#    y 0.000000 3.306780 0.000000 
#    z 0.000000 0.000000 2.996450 
# 
# 
# High freq. dielectric constant tensor:
#      x y z
#    x 1.627320 0.000000 0.000000 
#    y 0.000000 1.632760 0.000000 
#    z 0.000000 0.000000 1.633080 
# 
# From -- ./inp_files/7659.got.cif
#   From: 2010.03.12/outbox.cif.g09.slc.cpg/sg65_4_cif.got.tgz:7659.got - 2010.04.10 20:52:16.
