data_PCOD8272059
_publ_section_title
;
Structure prediction by ZEFSAII (Michael W. Deem and Ramdas Pophale) SiO2 
 PCOD8272059
Probable space group: C M M M
;
_chemical_formula_sum "Si O2"
_cell_formula_units_Z 112
_cell_length_a 14.501104
_cell_length_b 25.185897
_cell_length_c 14.738686
_cell_angle_alpha 90.000000
_cell_angle_beta 90.000000
_cell_angle_gamma 90.000000
_cell_volume 5382.911711
_symmetry_space_group_name_H-M "C M M M"
_symmetry_group_IT_number 65
_symmetry_cell_setting 'orthorhombic'
loop_
_space_group_symop_operation_xyz
x,y,z
-x,-y,z
x,-y,-z
-x,y,-z
-x,-y,-z
x,y,-z
-x,y,z
x,-y,z
1/2+x,1/2+y,z
1/2-x,1/2-y,z
1/2+x,1/2-y,-z
1/2-x,1/2+y,-z
1/2-x,1/2-y,-z
1/2+x,1/2+y,-z
1/2-x,1/2+y,z
1/2+x,1/2-y,z
loop_
_atom_site_type_symbol
_atom_site_label
_atom_site_fract_x
_atom_site_fract_y
_atom_site_fract_z
Si Si1 0.103672 0.350687 0.666362
Si Si2 0.101640 0.440747 0.186293
Si Si3 0.600813 0.731784 0.715101
Si Si4 0.326595 0.706169 0.100171
Si Si5 0.797908 0.853154 0.602016
Si Si6 0.783262 0.913020 0.899797
Si Si7 0.894204 0.060382 0.725123
O O1 0.119252 0.398250 0.735782
O O2 0.118528 0.294610 0.716349
O O3 0.186329 0.356504 0.594155
O O4 0.000000 0.353869 0.622872
O O5 0.108095 0.500000 0.228794
O O6 0.179553 0.434814 0.110273
O O7 0.000000 0.431810 0.142717
O O8 0.500000 0.718807 0.674814
O O9 0.599930 0.711990 0.819396
O O10 0.674851 0.701175 0.653365
O O11 0.250000 0.750000 0.115648
O O12 0.276872 0.649985 0.109967
O O13 0.373129 0.712003 0.000000
O O14 0.837569 0.852673 0.500000
O O15 0.838334 0.903359 0.655341
O O16 0.852303 0.937079 0.825890
O O17 0.818877 0.929607 0.000000
O O18 0.000000 0.079769 0.729246
O O19 0.887558 0.000000 0.690083
#
# Coordination Sequence:
#
# PCOD8272059 Si02
#       7
#    16  16  16  16  16  16  16
#     4  10  22  40  64  94 128 165 207 255 313 377
#     4  10  20  36  60  89 125 169 212 252 297 357
#     4  11  22  38  62  91 129 169 208 257 310 368
#     4  10  20  35  58  88 126 171 213 255 306 367
#     4  12  25  42  67  94 122 161 210 262 319 378
#     4  11  22  37  62  94 128 166 210 257 307 367
#     4  11  25  45  66  90 125 165 207 258 313 372
#
# _framework density 20.806583
#
# number of rings (size 3 to 8) (size 9 to 14) (size 15 to 20)
#    0.000    1.286    2.857    3.000    0.000    4.857 
#    0.000    5.000    0.000    5.143    0.000    3.000 
#    0.000    0.000    0.000    0.000    0.000    0.000 
#
# Total GULP energy -694187.181066 kJ/mol
# GULP energy per Si atom -12396.199662 kJ/mol
# Density = 2.075923 g / cm^3
# Si number density = 20.806583 Si / 1000 Ang^3
#
#
#
# Elastic Constant Matrix: (Units=GPa)
#
#
# Indices 1 2 3 4 5 6 
#
# 1 134.8500 35.3320 45.2760 0.0000 0.0000 0.0000
# 2 35.3320 129.6811 39.4393 0.0000 0.0000 0.0000
# 3 45.2760 39.4393 123.6472 0.0000 0.0000 0.0000
# 4 0.0000 0.0000 0.0000 1.6618 0.0000 0.0000
# 5 0.0000 0.0000 0.0000 0.0000 12.1486 0.0000
# 6 0.0000 0.0000 0.0000 0.0000 0.0000 21.6770
#
#
#
# Elastic Compliance Matrix: (Units=1/GPa)
#
#
# Indices 1 2 3 4 5 6 
#
# 1 0.008730 -0.001557 -0.002700 0.000000 0.000000 0.000000
# 2 -0.001557 0.008817 -0.002242 0.000000 0.000000 0.000000
# 3 -0.002700 -0.002242 0.009791 0.000000 0.000000 0.000000
# 4 0.000000 0.000000 0.000000 0.601743 0.000000 0.000000
# 5 0.000000 0.000000 0.000000 0.000000 0.082314 0.000000
# 6 0.000000 0.000000 0.000000 0.000000 0.000000 0.046132
#
#
# Mechanical properties :
#
#
# Convention : Reuss Voigt Hill
#
# Bulk Modulus (GPa) = 69.73584 69.80812 69.77198
# Shear Modulus (GPa) = 6.44906 24.97290 15.71098
#
# Velocity S-wave (km/s) = 1.76246 3.46821 2.75088
# Velocity P-wave (km/s) = 6.14253 7.04711 6.61031
#
# Compressibility (1/GPa) = 0.01433983
#
# Stress axis : x y z
#
# Youngs Moduli (GPa) = 114.54449 113.41141 102.13084
#
# Poissons Ratio (x) = 0.17663 0.27575
# Poissons Ratio (y) = 0.17840 0.22900
# Poissons Ratio (z) = 0.30927 0.25429
#
# Static dielectric constant tensor:
#      x y z
#    x 3.978790 0.000000 0.000000 
#    y 0.000000 3.957800 0.000000 
#    z 0.000000 0.000000 3.572610 
# 
# 
# High freq. dielectric constant tensor:
#      x y z
#    x 1.821300 0.000000 0.000000 
#    y 0.000000 1.833150 0.000000 
#    z 0.000000 0.000000 1.787920 
# 
# From -- ./inp_files/40755.got.cif
#   From: 2010.03.12/outbox.cif.g09.slc.cpg/sg65_21_cif.got.tgz:40755.got - 2010.04.10 20:52:16.
