data_PCOD8272665
_publ_section_title
;
Structure prediction by ZEFSAII (Michael W. Deem and Ramdas Pophale) SiO2 
 PCOD8272665
Probable space group: C M M M
;
_chemical_formula_sum "Si O2"
_cell_formula_units_Z 88
_cell_length_a 9.665085
_cell_length_b 17.971058
_cell_length_c 28.460208
_cell_angle_alpha 90.000000
_cell_angle_beta 90.000000
_cell_angle_gamma 90.000000
_cell_volume 4943.304844
_symmetry_space_group_name_H-M "C M M M"
_symmetry_group_IT_number 65
_symmetry_cell_setting 'orthorhombic'
loop_
_space_group_symop_operation_xyz
x,y,z
-x,-y,z
x,-y,-z
-x,y,-z
-x,-y,-z
x,y,-z
-x,y,z
x,-y,z
1/2+x,1/2+y,z
1/2-x,1/2-y,z
1/2+x,1/2-y,-z
1/2-x,1/2+y,-z
1/2-x,1/2-y,-z
1/2+x,1/2+y,-z
1/2-x,1/2+y,z
1/2+x,1/2-y,z
loop_
_atom_site_type_symbol
_atom_site_label
_atom_site_fract_x
_atom_site_fract_y
_atom_site_fract_z
Si Si1 0.343530 0.911078 0.364073
Si Si2 0.844776 0.911630 0.823887
Si Si3 0.840167 0.413823 0.092206
Si Si4 0.155104 0.911518 0.552275
Si Si5 0.338144 0.176217 0.000000
Si Si6 0.844434 0.911443 0.719811
O O1 0.500000 0.880224 0.364000
O O2 0.264640 0.879745 0.410131
O O3 0.264096 0.879781 0.318134
O O4 0.343510 0.000000 0.364066
O O5 0.743501 0.879323 0.863747
O O6 0.800856 0.883116 0.771908
O O7 0.000000 0.884832 0.835437
O O8 0.836501 0.000000 0.824156
O O9 0.804021 0.500000 0.083903
O O10 0.796281 0.371119 0.045427
O O11 0.000000 0.402685 0.104175
O O12 0.197335 0.884008 0.500000
O O13 0.000000 0.883680 0.564785
O O14 0.156813 0.000000 0.553836
O O15 0.250000 0.250000 0.000000
O O16 0.500000 0.195897 0.000000
O O17 0.000000 0.883931 0.707650
O O18 0.842617 0.000000 0.718626
#
# Coordination Sequence:
#
# PCOD8272665 Si02
#       6
#    16  16  16  16   8  16
#     4   9  15  19  24  36  52  70  95 130 172 217
#     4   8  14  24  38  57  78  98 123 156 193 234
#     4   9  17  30  48  67  87 112 141 173 209 250
#     4   8  13  20  27  32  40  60  92 128 168 217
#     4  10  21  35  49  67  91 118 146 174 208 248
#     4   8  13  21  31  42  60  85 108 133 171 221
#
# _framework density 17.801855
#
# number of rings (size 3 to 8) (size 9 to 14) (size 15 to 20)
#    0.000    3.455    0.000    2.455    0.000    5.091 
#    0.000    5.455    0.000    2.727    0.000    0.000 
#    0.000    0.000    0.000    0.000    0.000    0.000 
#
# Total GULP energy -545290.610782 kJ/mol
# GULP energy per Si atom -12392.968427 kJ/mol
# Density = 1.776134 g / cm^3
# Si number density = 17.801855 Si / 1000 Ang^3
#
#
#
# Elastic Constant Matrix: (Units=GPa)
#
#
# Indices 1 2 3 4 5 6 
#
# 1 132.1167 20.0696 114.9721 0.0000 0.0000 0.0000
# 2 20.0696 17.0074 22.5051 0.0000 0.0000 0.0000
# 3 114.9721 22.5051 192.7695 0.0000 0.0000 0.0000
# 4 0.0000 0.0000 0.0000 -0.3802 0.0000 0.0000
# 5 0.0000 0.0000 0.0000 0.0000 37.9153 0.0000
# 6 0.0000 0.0000 0.0000 0.0000 0.0000 10.1659
#
#
#
# Elastic Compliance Matrix: (Units=1/GPa)
#
#
# Indices 1 2 3 4 5 6 
#
# 1 0.016537 -0.007644 -0.008970 0.000000 0.000000 0.000000
# 2 -0.007644 0.073074 -0.003972 0.000000 0.000000 0.000000
# 3 -0.008970 -0.003972 0.011001 0.000000 0.000000 0.000000
# 4 0.000000 0.000000 0.000000 -2.630450 0.000000 0.000000
# 5 0.000000 0.000000 0.000000 0.000000 0.026375 0.000000
# 6 0.000000 0.000000 0.000000 0.000000 0.000000 0.098368
#
#
# Mechanical properties :
#
#
# Convention : Reuss Voigt Hill
#
# Bulk Modulus (GPa) = 16.82388 72.99859 44.91124
# Shear Modulus (GPa) = -2.13301 21.83001 9.84850
#
# Velocity S-wave (km/s) = -1.09581 3.50562 2.35463
# Velocity P-wave (km/s) = 2.80537 7.58163 5.71625
#
# Compressibility (1/GPa) = 0.05943933
#
# Stress axis : x y z
#
# Youngs Moduli (GPa) = 60.47215 13.68471 90.89752
#
# Poissons Ratio (x) = 0.10460 0.81538
# Poissons Ratio (y) = 0.46224 0.36106
# Poissons Ratio (z) = 0.54246 0.05436
#
# Static dielectric constant tensor:
#      x y z
#    x 3.475290 0.000000 0.000000 
#    y 0.000000 2.483970 0.000000 
#    z 0.000000 0.000000 3.775420 
# 
# 
# High freq. dielectric constant tensor:
#      x y z
#    x 1.690320 0.000000 0.000000 
#    y 0.000000 1.598330 0.000000 
#    z 0.000000 0.000000 1.708370 
# 
# From -- ./inp_files/76620.got.cif
#   From: 2010.03.12/outbox.cif.g09.slc.cpg/sg65_39_cif.got.tgz:76620.got - 2010.04.10 20:52:16.
