data_PCOD8272936
_publ_section_title
;
Structure prediction by ZEFSAII (Michael W. Deem and Ramdas Pophale) SiO2 
 PCOD8272936
Probable space group: C M M M
;
_chemical_formula_sum "Si O2"
_cell_formula_units_Z 96
_cell_length_a 9.405775
_cell_length_b 19.626674
_cell_length_c 29.804881
_cell_angle_alpha 90.000000
_cell_angle_beta 90.000000
_cell_angle_gamma 90.000000
_cell_volume 5502.102626
_symmetry_space_group_name_H-M "C M M M"
_symmetry_group_IT_number 65
_symmetry_cell_setting 'orthorhombic'
loop_
_space_group_symop_operation_xyz
x,y,z
-x,-y,z
x,-y,-z
-x,y,-z
-x,-y,-z
x,y,-z
-x,y,z
x,-y,z
1/2+x,1/2+y,z
1/2-x,1/2-y,z
1/2+x,1/2-y,-z
1/2-x,1/2+y,-z
1/2-x,1/2-y,-z
1/2+x,1/2+y,-z
1/2-x,1/2+y,z
1/2+x,1/2-y,z
loop_
_atom_site_type_symbol
_atom_site_label
_atom_site_fract_x
_atom_site_fract_y
_atom_site_fract_z
Si Si1 0.157010 0.580948 0.370440
Si Si2 0.659066 0.580979 0.549084
Si Si3 0.161394 0.579455 0.948446
Si Si4 0.664224 0.683652 0.107119
Si Si5 0.835086 0.183246 0.787643
Si Si6 0.665188 0.920266 0.270265
O O1 0.153185 0.500000 0.374348
O O2 0.252370 0.613481 0.409936
O O3 0.211973 0.600720 0.320835
O O4 0.000000 0.610820 0.377477
O O5 0.721829 0.601789 0.500000
O O6 0.500000 0.609383 0.553438
O O7 0.658640 0.500000 0.553218
O O8 0.190228 0.500000 0.941466
O O9 0.273381 0.618487 0.917874
O O10 0.000000 0.597526 0.934028
O O11 0.185756 0.600083 0.000000
O O12 0.500000 0.693378 0.093922
O O13 0.750000 0.750000 0.091123
O O14 0.683243 0.671303 0.159708
O O15 0.750000 0.250000 0.771781
O O16 0.767500 0.118188 0.763780
O O17 0.000000 0.191263 0.774216
O O18 0.500000 0.901342 0.262032
O O19 0.688831 0.000000 0.262253
#
# Coordination Sequence:
#
# PCOD8272936 Si02
#       6
#    16  16  16  16  16  16
#     4   8  14  24  37  55  81 113 149 188 229 275
#     4   8  13  20  30  47  74 109 147 185 227 275
#     4   9  19  36  56  78 105 136 168 201 239 285
#     4  10  21  36  54  76 101 130 165 204 245 289
#     4  10  21  36  53  73  98 128 163 203 245 290
#     4   9  18  32  49  70  97 128 161 198 242 291
#
# _framework density 17.447875
#
# number of rings (size 3 to 8) (size 9 to 14) (size 15 to 20)
#    0.000    3.000    0.000    3.000    0.000    5.000 
#    0.000    7.500    0.000    0.000    0.000    0.000 
#    0.000    0.667    0.000    2.167    0.000    4.833 
#
# Total GULP energy -595012.249683 kJ/mol
# GULP energy per Si atom -12396.088535 kJ/mol
# Density = 1.740816 g / cm^3
# Si number density = 17.447875 Si / 1000 Ang^3
#
#
#
# Elastic Constant Matrix: (Units=GPa)
#
#
# Indices 1 2 3 4 5 6 
#
# 1 121.0266 51.4794 63.7315 0.0000 0.0000 0.0000
# 2 51.4794 54.7923 42.4052 0.0000 0.0000 0.0000
# 3 63.7315 42.4052 74.0370 0.0000 0.0000 0.0000
# 4 0.0000 0.0000 0.0000 0.3360 0.0000 0.0000
# 5 0.0000 0.0000 0.0000 0.0000 37.5627 0.0000
# 6 0.0000 0.0000 0.0000 0.0000 0.0000 27.7063
#
#
#
# Elastic Compliance Matrix: (Units=1/GPa)
#
#
# Indices 1 2 3 4 5 6 
#
# 1 0.017003 -0.008348 -0.009855 0.000000 0.000000 0.000000
# 2 -0.008348 0.036881 -0.013938 0.000000 0.000000 0.000000
# 3 -0.009855 -0.013938 0.029973 0.000000 0.000000 0.000000
# 4 0.000000 0.000000 0.000000 2.976455 0.000000 0.000000
# 5 0.000000 0.000000 0.000000 0.000000 0.026622 0.000000
# 6 0.000000 0.000000 0.000000 0.000000 0.000000 0.036093
#
#
# Mechanical properties :
#
#
# Convention : Reuss Voigt Hill
#
# Bulk Modulus (GPa) = 51.08461 62.78758 56.93610
# Shear Modulus (GPa) = 1.56552 19.27032 10.41792
#
# Velocity S-wave (km/s) = 0.94826 3.32693 2.44619
# Velocity P-wave (km/s) = 5.52638 7.12895 6.37820
#
# Compressibility (1/GPa) = 0.01957537
#
# Stress axis : x y z
#
# Youngs Moduli (GPa) = 58.81302 27.11441 33.36348
#
# Poissons Ratio (x) = 0.22635 0.32880
# Poissons Ratio (y) = 0.49097 0.46501
# Poissons Ratio (z) = 0.57960 0.37791
#
# Static dielectric constant tensor:
#      x y z
#    x 3.408940 0.000000 0.000000 
#    y 0.000000 2.827530 0.000000 
#    z 0.000000 0.000000 3.380930 
# 
# 
# High freq. dielectric constant tensor:
#      x y z
#    x 1.677910 0.000000 0.000000 
#    y 0.000000 1.632020 0.000000 
#    z 0.000000 0.000000 1.681040 
# 
# From -- ./inp_files/73184.got.cif
#   From: 2010.03.12/outbox.cif.g09.slc.cpg/sg65_37_cif.got.tgz:73184.got - 2010.04.10 20:52:16.
