data_PCOD8272328
_publ_section_title
;
Structure prediction by ZEFSAII (Michael W. Deem and Ramdas Pophale) SiO2 
 PCOD8272328
Probable space group: C M M M
;
_chemical_formula_sum "Si O2"
_cell_formula_units_Z 96
_cell_length_a 13.620214
_cell_length_b 12.322984
_cell_length_c 22.186757
_cell_angle_alpha 90.000000
_cell_angle_beta 90.000000
_cell_angle_gamma 90.000000
_cell_volume 3723.862551
_symmetry_space_group_name_H-M "C M M M"
_symmetry_group_IT_number 65
_symmetry_cell_setting 'orthorhombic'
loop_
_space_group_symop_operation_xyz
x,y,z
-x,-y,z
x,-y,-z
-x,y,-z
-x,-y,-z
x,y,-z
-x,y,z
x,-y,z
1/2+x,1/2+y,z
1/2-x,1/2-y,z
1/2+x,1/2-y,-z
1/2-x,1/2+y,-z
1/2-x,1/2-y,-z
1/2+x,1/2+y,-z
1/2-x,1/2+y,z
1/2+x,1/2-y,z
loop_
_atom_site_type_symbol
_atom_site_label
_atom_site_fract_x
_atom_site_fract_y
_atom_site_fract_z
Si Si1 0.305240 0.129318 0.753427
Si Si2 0.607383 0.371061 0.809654
Si Si3 0.389295 0.326437 0.569111
Si Si4 0.607940 0.128847 0.877515
Si Si5 0.813666 0.619591 0.380730
Si Si6 0.807553 0.129410 0.933662
O O1 0.193069 0.173618 0.765155
O O2 0.376876 0.171740 0.807713
O O3 0.337192 0.164244 0.686517
O O4 0.302375 0.000000 0.755807
O O5 0.500000 0.337505 0.785959
O O6 0.618258 0.500000 0.813211
O O7 0.622192 0.326371 0.879150
O O8 0.378775 0.363089 0.500000
O O9 0.500000 0.355285 0.591962
O O10 0.304795 0.384111 0.608516
O O11 0.370193 0.197009 0.572922
O O12 0.500000 0.162421 0.900699
O O13 0.694418 0.171656 0.922402
O O14 0.618339 0.000000 0.874729
O O15 0.856605 0.500000 0.389921
O O16 0.807495 0.000000 0.930274
O O17 0.843062 0.166984 0.000000
#
# Coordination Sequence:
#
# PCOD8272328 Si02
#       6
#    16  16  16  16  16  16
#     4   8  15  26  41  65  91 117 160 212 257 309
#     4   8  13  21  32  48  76 112 149 199 259 308
#     4  10  23  41  58  83 119 150 181 227 276 322
#     4   8  13  21  32  48  76 112 149 199 259 308
#     4  10  20  36  60  85 110 147 191 230 273 327
#     4   8  13  19  26  40  65 103 156 207 248 301
#
# _framework density 25.779685000000001
#
# number of rings (size 3 to 8) (size 9 to 14) (size 15 to 20)
#    0.000    3.333    0.000    3.000    0.000    4.000 
#    0.000    8.333    0.000    0.000    0.000    0.000 
#    0.000    0.000    0.000   48.000    0.000  221.333 
#
# Total GULP energy -595073.096652 kJ/mol
# GULP energy per Si atom -12397.356180 kJ/mol
# Density = 2.572101 g / cm^3
# Si number density = 25.779685 Si / 1000 Ang^3
#
#
#
# Elastic Constant Matrix: (Units=GPa)
#
#
# Indices 1 2 3 4 5 6 
#
# 1 129.1481 -12.9375 29.7909 0.0000 0.0000 0.0000
# 2 -12.9375 63.4196 4.3997 0.0000 0.0000 0.0000
# 3 29.7909 4.3997 107.3373 0.0000 0.0000 0.0000
# 4 0.0000 0.0000 0.0000 18.5789 0.0000 0.0000
# 5 0.0000 0.0000 0.0000 0.0000 24.3075 0.0000
# 6 0.0000 0.0000 0.0000 0.0000 0.0000 26.7012
#
#
#
# Elastic Compliance Matrix: (Units=1/GPa)
#
#
# Indices 1 2 3 4 5 6 
#
# 1 0.008495 0.001902 -0.002436 0.000000 0.000000 0.000000
# 2 0.001902 0.016239 -0.001194 0.000000 0.000000 0.000000
# 3 -0.002436 -0.001194 0.010041 0.000000 0.000000 0.000000
# 4 0.000000 0.000000 0.000000 0.053824 0.000000 0.000000
# 5 0.000000 0.000000 0.000000 0.000000 0.041140 0.000000
# 6 0.000000 0.000000 0.000000 0.000000 0.000000 0.037452
#
#
# Mechanical properties :
#
#
# Convention : Reuss Voigt Hill
#
# Bulk Modulus (GPa) = 31.92742 38.04569 34.98656
# Shear Modulus (GPa) = 27.61118 32.49432 30.05275
#
# Velocity S-wave (km/s) = 3.27623 3.55415 3.41802
# Velocity P-wave (km/s) = 5.16945 5.62430 5.40166
#
# Compressibility (1/GPa) = 0.03132104
#
# Stress axis : x y z
#
# Youngs Moduli (GPa) = 117.70980 61.58088 99.58771
#
# Poissons Ratio (x) = -0.11713 0.24258
# Poissons Ratio (y) = -0.22389 0.11886
# Poissons Ratio (z) = 0.28672 0.07350
#
# Static dielectric constant tensor:
#      x y z
#    x 4.590160 0.000000 0.000000 
#    y 0.000000 5.255090 0.000000 
#    z 0.000000 0.000000 4.616660 
# 
# 
# High freq. dielectric constant tensor:
#      x y z
#    x 2.008400 0.000000 0.000000 
#    y 0.000000 2.099940 0.000000 
#    z 0.000000 0.000000 2.007430 
# 
# From -- ./inp_files/62631.got.cif
#   From: 2010.03.12/outbox.cif.g09.slc.cpg/sg65_32_cif.got.tgz:62631.got - 2010.04.10 20:52:16.
