data_PCOD8272035
_publ_section_title
;
Structure prediction by ZEFSAII (Michael W. Deem and Ramdas Pophale) SiO2 
 PCOD8272035
Probable space group: C M M M
;
_chemical_formula_sum "Si O2"
_cell_formula_units_Z 88
_cell_length_a 29.717753
_cell_length_b 8.882932
_cell_length_c 16.904335
_cell_angle_alpha 90.000000
_cell_angle_beta 90.000000
_cell_angle_gamma 90.000000
_cell_volume 4462.419523
_symmetry_space_group_name_H-M "C M M M"
_symmetry_group_IT_number 65
_symmetry_cell_setting 'orthorhombic'
loop_
_space_group_symop_operation_xyz
x,y,z
-x,-y,z
x,-y,-z
-x,y,-z
-x,-y,-z
x,y,-z
-x,y,z
x,-y,z
1/2+x,1/2+y,z
1/2-x,1/2-y,z
1/2+x,1/2-y,-z
1/2-x,1/2+y,-z
1/2-x,1/2-y,-z
1/2+x,1/2+y,-z
1/2-x,1/2+y,z
1/2+x,1/2-y,z
loop_
_atom_site_type_symbol
_atom_site_label
_atom_site_fract_x
_atom_site_fract_y
_atom_site_fract_z
Si Si1 0.203287 0.821879 0.909794
Si Si2 0.116454 0.179181 0.372989
Si Si3 0.447001 0.822205 0.500000
Si Si4 0.621365 0.676523 0.194442
Si Si5 0.207709 0.665555 0.590343
Si Si6 0.052026 0.330255 0.089778
O O1 0.250000 0.750000 0.882160
O O2 0.164922 0.756726 0.851137
O O3 0.207472 0.000000 0.903262
O O4 0.191488 0.773924 0.000000
O O5 0.075446 0.252812 0.421377
O O6 0.115520 0.239557 0.282902
O O7 0.163832 0.230949 0.407563
O O8 0.112066 0.000000 0.379766
O O9 0.500000 0.783587 0.500000
O O10 0.438367 0.000000 0.500000
O O11 0.626952 0.500000 0.198468
O O12 0.576826 0.715907 0.146791
O O13 0.220786 0.638877 0.500000
O O14 0.200052 0.500000 0.629844
O O15 0.250000 0.750000 0.632620
O O16 0.069759 0.500000 0.102624
O O17 0.000000 0.321236 0.111256
O O18 0.060538 0.278971 0.000000
#
# Coordination Sequence:
#
# PCOD8272035 Si02
#       6
#    16  16   8  16  16  16
#     4   9  18  34  55  79 112 153 194 232 270 319
#     4  11  23  39  60  86 118 150 188 240 293 346
#     4  11  25  45  66  85 108 145 193 239 291 359
#     4  10  22  37  55  84 117 150 188 233 285 340
#     4  10  20  35  58  85 114 148 187 229 278 335
#     4   9  19  36  57  82 112 146 186 232 282 337
#
# _framework density 19.720244000000001
#
# number of rings (size 3 to 8) (size 9 to 14) (size 15 to 20)
#    0.000    2.091    0.909    2.455    0.000    6.545 
#    0.000    8.182    0.000    0.000    0.000    0.000 
#    0.000    0.000    0.000    0.000    0.000    0.000 
#
# Total GULP energy -545544.973505 kJ/mol
# GULP energy per Si atom -12398.749398 kJ/mol
# Density = 1.967536 g / cm^3
# Si number density = 19.720244 Si / 1000 Ang^3
#
#
#
# Elastic Constant Matrix: (Units=GPa)
#
#
# Indices 1 2 3 4 5 6 
#
# 1 132.2886 46.1691 68.6578 0.0000 0.0000 0.0000
# 2 46.1691 56.9203 33.7499 0.0000 0.0000 0.0000
# 3 68.6578 33.7499 122.1619 0.0000 0.0000 0.0000
# 4 0.0000 0.0000 0.0000 22.2884 0.0000 0.0000
# 5 0.0000 0.0000 0.0000 0.0000 7.3723 0.0000
# 6 0.0000 0.0000 0.0000 0.0000 0.0000 37.3063
#
#
#
# Elastic Compliance Matrix: (Units=1/GPa)
#
#
# Indices 1 2 3 4 5 6 
#
# 1 0.012795 -0.007312 -0.005171 0.000000 0.000000 0.000000
# 2 -0.007312 0.025189 -0.002849 0.000000 0.000000 0.000000
# 3 -0.005171 -0.002849 0.011879 0.000000 0.000000 0.000000
# 4 0.000000 0.000000 0.000000 0.044866 0.000000 0.000000
# 5 0.000000 0.000000 0.000000 0.000000 0.135643 0.000000
# 6 0.000000 0.000000 0.000000 0.000000 0.000000 0.026805
#
#
# Mechanical properties :
#
#
# Convention : Reuss Voigt Hill
#
# Bulk Modulus (GPa) = 52.08825 67.61383 59.85104
# Shear Modulus (GPa) = 16.99281 24.24634 20.61958
#
# Velocity S-wave (km/s) = 2.93865 3.51025 3.23709
# Velocity P-wave (km/s) = 6.16321 7.12672 6.66240
#
# Compressibility (1/GPa) = 0.01919819
#
# Stress axis : x y z
#
# Youngs Moduli (GPa) = 78.15618 39.69988 84.18069
#
# Poissons Ratio (x) = 0.29029 0.43529
# Poissons Ratio (y) = 0.57149 0.23986
# Poissons Ratio (z) = 0.40414 0.11312
#
# Static dielectric constant tensor:
#      x y z
#    x 3.546210 0.000000 0.000000 
#    y 0.000000 3.712490 0.000000 
#    z 0.000000 0.000000 3.778160 
# 
# 
# High freq. dielectric constant tensor:
#      x y z
#    x 1.772510 0.000000 0.000000 
#    y 0.000000 1.767450 0.000000 
#    z 0.000000 0.000000 1.761650 
# 
# From -- ./inp_files/58032.got.cif
#   From: 2010.03.12/outbox.cif.g09.slc.cpg/sg65_30_cif.got.tgz:58032.got - 2010.04.10 20:52:16.
