data_PCOD8272685
_publ_section_title
;
Structure prediction by ZEFSAII (Michael W. Deem and Ramdas Pophale) SiO2 
 PCOD8272685
Probable space group: C M M M
;
_chemical_formula_sum "Si O2"
_cell_formula_units_Z 112
_cell_length_a 17.057307
_cell_length_b 27.754756
_cell_length_c 14.425970
_cell_angle_alpha 90.000000
_cell_angle_beta 90.000000
_cell_angle_gamma 90.000000
_cell_volume 6829.562824
_symmetry_space_group_name_H-M "C M M M"
_symmetry_group_IT_number 65
_symmetry_cell_setting 'orthorhombic'
loop_
_space_group_symop_operation_xyz
x,y,z
-x,-y,z
x,-y,-z
-x,y,-z
-x,-y,-z
x,y,-z
-x,y,z
x,-y,z
1/2+x,1/2+y,z
1/2-x,1/2-y,z
1/2+x,1/2-y,-z
1/2-x,1/2+y,-z
1/2-x,1/2-y,-z
1/2+x,1/2+y,-z
1/2-x,1/2+y,z
1/2+x,1/2-y,z
loop_
_atom_site_type_symbol
_atom_site_label
_atom_site_fract_x
_atom_site_fract_y
_atom_site_fract_z
Si Si1 0.200206 0.645528 0.392602
Si Si2 0.283263 0.446258 0.605670
Si Si3 0.409202 0.639417 0.106088
Si Si4 0.825804 0.783642 0.601232
Si Si5 0.159003 0.241467 0.893519
Si Si6 0.090397 0.945349 0.758282
Si Si7 0.409416 0.787132 0.722988
O O1 0.176305 0.656578 0.500000
O O2 0.209143 0.588657 0.372318
O O3 0.289252 0.664640 0.372282
O O4 0.136598 0.668556 0.324051
O O5 0.310842 0.438604 0.500000
O O6 0.251236 0.500000 0.623142
O O7 0.359198 0.435547 0.667110
O O8 0.500000 0.651885 0.122475
O O9 0.360484 0.686675 0.135799
O O10 0.382518 0.592667 0.163750
O O11 0.392062 0.626180 0.000000
O O12 0.866022 0.784558 0.500000
O O13 0.750000 0.750000 0.601066
O O14 0.889287 0.763867 0.673575
O O15 0.250000 0.250000 0.875833
O O16 0.112459 0.280218 0.830876
O O17 0.134740 0.250999 0.000000
O O18 0.000000 0.937128 0.731284
O O19 0.103310 0.000000 0.795801
O O20 0.500000 0.799297 0.712651
#
# Coordination Sequence:
#
# PCOD8272685 Si02
#       7
#    16  16  16  16  16  16  16
#     4   9  18  33  51  69  94 126 160 198 239 285
#     4   9  18  32  50  71  95 127 162 196 238 285
#     4   9  18  32  49  69  97 129 158 194 239 283
#     4   8  15  28  44  64  91 123 155 186 226 276
#     4  10  21  35  50  69  93 128 168 200 233 280
#     4   9  18  30  47  73  99 126 161 198 238 284
#     4  11  21  30  47  72  96 126 157 196 243 281
#
# _framework density 16.399291999999999
#
# number of rings (size 3 to 8) (size 9 to 14) (size 15 to 20)
#    0.000    2.714    0.000    3.000    4.000    2.571 
#    0.000    2.857    0.000    3.000    0.000    2.000 
#    0.000    0.000    0.000    1.286    0.000    0.000 
#
# Total GULP energy -694088.572171 kJ/mol
# GULP energy per Si atom -12394.438789 kJ/mol
# Density = 1.636197 g / cm^3
# Si number density = 16.399292 Si / 1000 Ang^3
#
#
#
# Elastic Constant Matrix: (Units=GPa)
#
#
# Indices 1 2 3 4 5 6 
#
# 1 75.6197 53.1927 49.4709 0.0000 0.0000 0.0000
# 2 53.1927 112.7442 61.5647 0.0000 0.0000 0.0000
# 3 49.4709 61.5647 96.2413 0.0000 0.0000 0.0000
# 4 0.0000 0.0000 0.0000 25.9215 0.0000 0.0000
# 5 0.0000 0.0000 0.0000 0.0000 16.2864 0.0000
# 6 0.0000 0.0000 0.0000 0.0000 0.0000 23.8735
#
#
#
# Elastic Compliance Matrix: (Units=1/GPa)
#
#
# Indices 1 2 3 4 5 6 
#
# 1 0.022799 -0.006696 -0.007436 0.000000 0.000000 0.000000
# 2 -0.006696 0.015598 -0.006536 0.000000 0.000000 0.000000
# 3 -0.007436 -0.006536 0.018394 0.000000 0.000000 0.000000
# 4 0.000000 0.000000 0.000000 0.038578 0.000000 0.000000
# 5 0.000000 0.000000 0.000000 0.000000 0.061401 0.000000
# 6 0.000000 0.000000 0.000000 0.000000 0.000000 0.041888
#
#
# Mechanical properties :
#
#
# Convention : Reuss Voigt Hill
#
# Bulk Modulus (GPa) = 64.70456 68.11797 66.41127
# Shear Modulus (GPa) = 20.39618 21.24138 20.81878
#
# Velocity S-wave (km/s) = 3.53047 3.60288 3.56686
# Velocity P-wave (km/s) = 7.49402 7.67691 7.58602
#
# Compressibility (1/GPa) = 0.01545486
#
# Stress axis : x y z
#
# Youngs Moduli (GPa) = 43.86183 64.11183 54.36653
#
# Poissons Ratio (x) = 0.42930 0.40426
# Poissons Ratio (y) = 0.29370 0.35533
# Poissons Ratio (z) = 0.32615 0.41902
#
# Static dielectric constant tensor:
#      x y z
#    x 2.810770 0.000000 0.000000 
#    y 0.000000 3.501930 0.000000 
#    z 0.000000 0.000000 3.176640 
# 
# 
# High freq. dielectric constant tensor:
#      x y z
#    x 1.599450 0.000000 0.000000 
#    y 0.000000 1.628320 0.000000 
#    z 0.000000 0.000000 1.635350 
# 
# From -- ./inp_files/41395.got.cif
#   From: 2010.03.12/outbox.cif.g09.slc.cpg/sg65_21_cif.got.tgz:41395.got - 2010.04.10 20:52:16.
