data_PCOD8272983
_publ_section_title
;
Structure prediction by ZEFSAII (Michael W. Deem and Ramdas Pophale) SiO2 
 PCOD8272983
Probable space group: C M M M
;
_chemical_formula_sum "Si O2"
_cell_formula_units_Z 48
_cell_length_a 10.307159
_cell_length_b 15.211051
_cell_length_c 14.381475
_cell_angle_alpha 90.000000
_cell_angle_beta 90.000000
_cell_angle_gamma 90.000000
_cell_volume 2254.766786
_symmetry_space_group_name_H-M "C M M M"
_symmetry_group_IT_number 65
_symmetry_cell_setting 'orthorhombic'
loop_
_space_group_symop_operation_xyz
x,y,z
-x,-y,z
x,-y,-z
-x,y,-z
-x,-y,-z
x,y,-z
-x,y,z
x,-y,z
1/2+x,1/2+y,z
1/2-x,1/2-y,z
1/2+x,1/2-y,-z
1/2-x,1/2+y,-z
1/2-x,1/2-y,-z
1/2+x,1/2+y,-z
1/2-x,1/2+y,z
1/2+x,1/2-y,z
loop_
_atom_site_type_symbol
_atom_site_label
_atom_site_fract_x
_atom_site_fract_y
_atom_site_fract_z
Si Si1 0.859500 0.311889 0.392328
Si Si2 0.144041 0.000000 0.202851
Si Si3 0.754364 0.000000 0.603844
Si Si4 0.849613 0.173902 0.108768
O O1 0.865812 0.285884 0.500000
O O2 0.750000 0.250000 0.343953
O O3 0.834184 0.414992 0.381292
O O4 0.000000 0.290802 0.346664
O O5 0.207768 0.911096 0.163151
O O6 0.138576 0.000000 0.315415
O O7 0.000000 0.000000 0.162442
O O8 0.818143 0.000000 0.500000
O O9 0.750000 0.250000 0.138280
O O10 0.000000 0.196671 0.135955
O O11 0.840025 0.154098 0.000000
#
# Coordination Sequence:
#
# PCOD8272983 Si02
#       4
#    16   8   8  16
#     4   9  18  34  55  76  99 133 181 234 283 328
#     4  10  21  36  55  82 114 148 188 230 274 328
#     4  10  21  36  53  75 109 153 194 231 273 320
#     4   9  18  36  62  88 114 144 178 222 279 339
#
# _framework density 21.288233000000002
#
# number of rings (size 3 to 8) (size 9 to 14) (size 15 to 20)
#    0.000    2.667    0.000    1.000    0.000    7.000 
#    0.000   10.833    0.000    4.000    0.000    0.000 
#    0.000    0.000    0.000    0.000    0.000    0.000 
#
# Total GULP energy -297403.505630 kJ/mol
# GULP energy per Si atom -12391.812735 kJ/mol
# Density = 2.123978 g / cm^3
# Si number density = 21.288233 Si / 1000 Ang^3
#
#
#
# Elastic Constant Matrix: (Units=GPa)
#
#
# Indices 1 2 3 4 5 6 
#
# 1 128.4466 92.5536 24.6187 0.0000 0.0000 0.0000
# 2 92.5536 185.9188 50.5482 0.0000 0.0000 0.0000
# 3 24.6187 50.5482 77.9539 0.0000 0.0000 0.0000
# 4 0.0000 0.0000 0.0000 9.4826 0.0000 0.0000
# 5 0.0000 0.0000 0.0000 0.0000 15.0077 0.0000
# 6 0.0000 0.0000 0.0000 0.0000 0.0000 25.1967
#
#
#
# Elastic Compliance Matrix: (Units=1/GPa)
#
#
# Indices 1 2 3 4 5 6 
#
# 1 0.012141 -0.006072 0.000103 0.000000 0.000000 0.000000
# 2 -0.006072 0.009567 -0.004286 0.000000 0.000000 0.000000
# 3 0.000103 -0.004286 0.015575 0.000000 0.000000 0.000000
# 4 0.000000 0.000000 0.000000 0.105456 0.000000 0.000000
# 5 0.000000 0.000000 0.000000 0.000000 0.066633 0.000000
# 6 0.000000 0.000000 0.000000 0.000000 0.000000 0.039688
#
#
# Mechanical properties :
#
#
# Convention : Reuss Voigt Hill
#
# Bulk Modulus (GPa) = 59.62051 80.86225 70.24138
# Shear Modulus (GPa) = 18.17133 24.91065 21.54099
#
# Velocity S-wave (km/s) = 2.92479 3.42447 3.18445
# Velocity P-wave (km/s) = 6.28275 7.32823 6.82554
#
# Compressibility (1/GPa) = 0.01677275
#
# Stress axis : x y z
#
# Youngs Moduli (GPa) = 82.36714 104.53005 64.20707
#
# Poissons Ratio (x) = 0.63470 -0.00662
# Poissons Ratio (y) = 0.50013 0.27518
# Poissons Ratio (z) = -0.00849 0.44799
#
# Static dielectric constant tensor:
#      x y z
#    x 3.895390 0.000000 0.000000 
#    y 0.000000 3.963150 0.000000 
#    z 0.000000 0.000000 3.651360 
# 
# 
# High freq. dielectric constant tensor:
#      x y z
#    x 1.815010 0.000000 0.000000 
#    y 0.000000 1.844570 0.000000 
#    z 0.000000 0.000000 1.820890 
# 
# From -- ./inp_files/37338.got.cif
#   From: 2010.03.12/outbox.cif.g09.slc.cpg/sg65_19_cif.got.tgz:37338.got - 2010.04.10 20:52:16.
