data_PCOD8272247
_publ_section_title
;
Structure prediction by ZEFSAII (Michael W. Deem and Ramdas Pophale) SiO2 
 PCOD8272247
Probable space group: C M M M
;
_chemical_formula_sum "Si O2"
_cell_formula_units_Z 88
_cell_length_a 13.881012
_cell_length_b 17.620525
_cell_length_c 17.804205
_cell_angle_alpha 90.000000
_cell_angle_beta 90.000000
_cell_angle_gamma 90.000000
_cell_volume 4354.743302
_symmetry_space_group_name_H-M "C M M M"
_symmetry_group_IT_number 65
_symmetry_cell_setting 'orthorhombic'
loop_
_space_group_symop_operation_xyz
x,y,z
-x,-y,z
x,-y,-z
-x,y,-z
-x,-y,-z
x,y,-z
-x,y,z
x,-y,z
1/2+x,1/2+y,z
1/2-x,1/2-y,z
1/2+x,1/2-y,-z
1/2-x,1/2+y,-z
1/2-x,1/2-y,-z
1/2+x,1/2+y,-z
1/2-x,1/2+y,z
1/2+x,1/2-y,z
loop_
_atom_site_type_symbol
_atom_site_label
_atom_site_fract_x
_atom_site_fract_y
_atom_site_fract_z
Si Si1 0.890413 0.181513 0.708204
Si Si2 0.392982 0.587631 0.858044
Si Si3 0.217147 0.665220 0.917161
Si Si4 0.612233 0.152206 0.234147
Si Si5 0.731731 0.087110 0.358676
Si Si6 0.892076 0.410223 0.500000
O O1 0.874638 0.131979 0.781812
O O2 0.859537 0.266585 0.730037
O O3 0.823297 0.143987 0.644317
O O4 0.000000 0.178879 0.679165
O O5 0.500000 0.606008 0.890362
O O6 0.382640 0.500000 0.838687
O O7 0.312126 0.612291 0.917119
O O8 0.250000 0.750000 0.902029
O O9 0.140510 0.643600 0.853258
O O10 0.169510 0.656455 0.000000
O O11 0.500000 0.135665 0.240525
O O12 0.670162 0.090074 0.281817
O O13 0.665047 0.117143 0.426438
O O14 0.765432 0.000000 0.371410
O O15 0.901047 0.500000 0.500000
O O16 0.000000 0.374467 0.500000
#
# Coordination Sequence:
#
# PCOD8272247 Si02
#       6
#    16  16  16  16  16   8
#     4  10  20  36  58  86 117 150 189 234 287 349
#     4  10  20  36  58  83 112 147 189 239 294 348
#     4  11  22  36  55  81 115 152 193 239 288 343
#     4  11  22  38  59  82 114 155 196 237 285 344
#     4  11  21  37  63  89 115 150 192 238 287 339
#     4   9  20  38  58  87 123 155 193 238 280 332
#
# _framework density 20.207851000000002
#
# number of rings (size 3 to 8) (size 9 to 14) (size 15 to 20)
#    0.000    1.545    3.636    1.636    0.000    3.273 
#    0.000    5.000    0.000    3.818    0.000    2.545 
#    0.000    0.000    0.000    0.000    0.000    0.000 
#
# Total GULP energy -545590.482859 kJ/mol
# GULP energy per Si atom -12399.783701 kJ/mol
# Density = 2.016186 g / cm^3
# Si number density = 20.207851 Si / 1000 Ang^3
#
#
#
# Elastic Constant Matrix: (Units=GPa)
#
#
# Indices 1 2 3 4 5 6 
#
# 1 109.5956 16.5926 37.2792 0.0000 0.0000 0.0000
# 2 16.5926 51.4842 5.6245 0.0000 0.0000 0.0000
# 3 37.2792 5.6245 101.0374 0.0000 0.0000 0.0000
# 4 0.0000 0.0000 0.0000 31.6101 0.0000 0.0000
# 5 0.0000 0.0000 0.0000 0.0000 35.6665 0.0000
# 6 0.0000 0.0000 0.0000 0.0000 0.0000 32.0033
#
#
#
# Elastic Compliance Matrix: (Units=1/GPa)
#
#
# Indices 1 2 3 4 5 6 
#
# 1 0.010902 -0.003093 -0.003850 0.000000 0.000000 0.000000
# 2 -0.003093 0.020420 0.000004 0.000000 0.000000 0.000000
# 3 -0.003850 0.000004 0.011318 0.000000 0.000000 0.000000
# 4 0.000000 0.000000 0.000000 0.031636 0.000000 0.000000
# 5 0.000000 0.000000 0.000000 0.000000 0.028038 0.000000
# 6 0.000000 0.000000 0.000000 0.000000 0.000000 0.031247
#
#
# Mechanical properties :
#
#
# Convention : Reuss Voigt Hill
#
# Bulk Modulus (GPa) = 34.76806 42.34553 38.55680
# Shear Modulus (GPa) = 31.84204 33.36403 32.60303
#
# Velocity S-wave (km/s) = 3.97385 4.06771 4.02105
# Velocity P-wave (km/s) = 6.18853 6.56218 6.37809
#
# Compressibility (1/GPa) = 0.02876203
#
# Stress axis : x y z
#
# Youngs Moduli (GPa) = 91.72229 48.97209 88.35678
#
# Poissons Ratio (x) = 0.15147 0.34021
# Poissons Ratio (y) = 0.28370 -0.00040
# Poissons Ratio (z) = 0.35317 -0.00022
#
# Static dielectric constant tensor:
#      x y z
#    x 3.841070 0.000000 0.000000 
#    y 0.000000 3.687240 0.000000 
#    z 0.000000 0.000000 3.530260 
# 
# 
# High freq. dielectric constant tensor:
#      x y z
#    x 1.795930 0.000000 0.000000 
#    y 0.000000 1.781490 0.000000 
#    z 0.000000 0.000000 1.771300 
# 
# From -- ./inp_files/53017.got.cif
#   From: 2010.03.12/outbox.cif.g09.slc.cpg/sg65_27_cif.got.tgz:53017.got - 2010.04.10 20:52:16.
