data_PCOD8272932
_publ_section_title
;
Structure prediction by ZEFSAII (Michael W. Deem and Ramdas Pophale) SiO2 
 PCOD8272932
Probable space group: C M M M
;
_chemical_formula_sum "Si O2"
_cell_formula_units_Z 64
_cell_length_a 8.994575
_cell_length_b 40.667801
_cell_length_c 9.943578
_cell_angle_alpha 90.000000
_cell_angle_beta 90.000000
_cell_angle_gamma 90.000000
_cell_volume 3637.257282
_symmetry_space_group_name_H-M "C M M M"
_symmetry_group_IT_number 65
_symmetry_cell_setting 'orthorhombic'
loop_
_space_group_symop_operation_xyz
x,y,z
-x,-y,z
x,-y,-z
-x,y,-z
-x,-y,-z
x,y,-z
-x,y,z
x,-y,z
1/2+x,1/2+y,z
1/2-x,1/2-y,z
1/2+x,1/2-y,-z
1/2-x,1/2+y,-z
1/2-x,1/2-y,-z
1/2+x,1/2+y,-z
1/2-x,1/2+y,z
1/2+x,1/2-y,z
loop_
_atom_site_type_symbol
_atom_site_label
_atom_site_fract_x
_atom_site_fract_y
_atom_site_fract_z
Si Si1 0.823106 0.963457 0.849701
Si Si2 0.676556 0.590530 0.648511
Si Si3 0.327521 0.664734 0.343441
Si Si4 0.674415 0.783803 0.153647
O O1 0.753485 0.936007 0.751150
O O2 0.000000 0.961252 0.848569
O O3 0.773307 0.000000 0.802836
O O4 0.763825 0.956497 0.000000
O O5 0.739961 0.582826 0.500000
O O6 0.500000 0.587652 0.645339
O O7 0.720150 0.627417 0.691676
O O8 0.296714 0.672307 0.500000
O O9 0.500000 0.670654 0.309522
O O10 0.227758 0.687525 0.250879
O O11 0.500000 0.779281 0.169993
O O12 0.750000 0.750000 0.199558
O O13 0.718293 0.792499 0.000000
#
# Coordination Sequence:
#
# PCOD8272932 Si02
#       4
#    16  16  16  16
#     4   8  13  20  30  48  77 112 149 187 225 266
#     4   8  14  24  37  55  81 113 149 187 225 267
#     4   9  18  32  49  70  96 125 158 195 234 278
#     4  10  21  36  53  73  96 122 154 191 231 277
#
# _framework density 17.595676999999998
#
# number of rings (size 3 to 8) (size 9 to 14) (size 15 to 20)
#    0.000    3.250    0.000    3.000    0.000    4.000 
#    0.000    5.000    0.000    0.000    0.000    0.000 
#    0.000    1.000    0.000   11.000    0.000   18.000 
#
# Total GULP energy -396647.023801 kJ/mol
# GULP energy per Si atom -12395.219494 kJ/mol
# Density = 1.755563 g / cm^3
# Si number density = 17.595677 Si / 1000 Ang^3
#
#
#
# Elastic Constant Matrix: (Units=GPa)
#
#
# Indices 1 2 3 4 5 6 
#
# 1 34.4543 34.1573 29.1987 0.0000 0.0000 0.0000
# 2 34.1573 155.3409 96.8055 0.0000 0.0000 0.0000
# 3 29.1987 96.8055 103.4345 0.0000 0.0000 0.0000
# 4 0.0000 0.0000 0.0000 38.2911 0.0000 0.0000
# 5 0.0000 0.0000 0.0000 0.0000 19.2670 0.0000
# 6 0.0000 0.0000 0.0000 0.0000 0.0000 15.0519
#
#
#
# Elastic Compliance Matrix: (Units=1/GPa)
#
#
# Indices 1 2 3 4 5 6 
#
# 1 0.039229 -0.004139 -0.007201 0.000000 0.000000 0.000000
# 2 -0.004139 0.015883 -0.013697 0.000000 0.000000 0.000000
# 3 -0.007201 -0.013697 0.024520 0.000000 0.000000 0.000000
# 4 0.000000 0.000000 0.000000 0.026116 0.000000 0.000000
# 5 0.000000 0.000000 0.000000 0.000000 0.051902 0.000000
# 6 0.000000 0.000000 0.000000 0.000000 0.000000 0.066437
#
#
# Mechanical properties :
#
#
# Convention : Reuss Voigt Hill
#
# Bulk Modulus (GPa) = 33.82994 68.17253 51.00124
# Shear Modulus (GPa) = 17.60488 23.39322 20.49905
#
# Velocity S-wave (km/s) = 3.16654 3.65017 3.41692
# Velocity P-wave (km/s) = 5.71291 7.52283 6.67946
#
# Compressibility (1/GPa) = 0.02955961
#
# Stress axis : x y z
#
# Youngs Moduli (GPa) = 25.49124 62.95997 40.78355
#
# Poissons Ratio (x) = 0.26057 0.29367
# Poissons Ratio (y) = 0.10550 0.55861
# Poissons Ratio (z) = 0.18355 0.86235
#
# Static dielectric constant tensor:
#      x y z
#    x 2.740810 0.000000 0.000000 
#    y 0.000000 3.478990 0.000000 
#    z 0.000000 0.000000 3.540410 
# 
# 
# High freq. dielectric constant tensor:
#      x y z
#    x 1.625590 0.000000 0.000000 
#    y 0.000000 1.689900 0.000000 
#    z 0.000000 0.000000 1.683680 
# 
# From -- ./inp_files/20914.got.cif
#   From: 2010.03.12/outbox.cif.g09.slc.cpg/sg65_11_cif.got.tgz:20914.got - 2010.04.10 20:52:16.
