data_PCOD8272180
_publ_section_title
;
Structure prediction by ZEFSAII (Michael W. Deem and Ramdas Pophale) SiO2 
 PCOD8272180
Probable space group: C M M M
;
_chemical_formula_sum "Si O2"
_cell_formula_units_Z 88
_cell_length_a 23.717230
_cell_length_b 8.687333
_cell_length_c 22.890148
_cell_angle_alpha 90.000000
_cell_angle_beta 90.000000
_cell_angle_gamma 90.000000
_cell_volume 4716.274073
_symmetry_space_group_name_H-M "C M M M"
_symmetry_group_IT_number 65
_symmetry_cell_setting 'orthorhombic'
loop_
_space_group_symop_operation_xyz
x,y,z
-x,-y,z
x,-y,-z
-x,y,-z
-x,-y,-z
x,y,-z
-x,y,z
x,-y,z
1/2+x,1/2+y,z
1/2-x,1/2-y,z
1/2+x,1/2-y,-z
1/2-x,1/2+y,-z
1/2-x,1/2-y,-z
1/2+x,1/2+y,-z
1/2-x,1/2+y,z
1/2+x,1/2-y,z
loop_
_atom_site_type_symbol
_atom_site_label
_atom_site_fract_x
_atom_site_fract_y
_atom_site_fract_z
Si Si1 0.190370 0.681504 0.435162
Si Si2 0.500000 0.678991 0.690895
Si Si3 0.382101 0.817830 0.327156
Si Si4 0.100648 0.821597 0.875221
Si Si5 0.000000 0.676368 0.188251
Si Si6 0.563695 0.679466 0.000000
Si Si7 0.311783 0.678734 0.220984
O O1 0.171415 0.737607 0.500000
O O2 0.195785 0.500000 0.433788
O O3 0.250000 0.750000 0.417627
O O4 0.147267 0.740187 0.386430
O O5 0.500000 0.500000 0.675366
O O6 0.554770 0.759319 0.664523
O O7 0.500000 0.701719 0.759916
O O8 0.352019 0.749391 0.270253
O O9 0.381123 0.000000 0.320388
O O10 0.055338 0.706090 0.848900
O O11 0.101727 0.775583 0.943711
O O12 0.160411 0.792564 0.842984
O O13 0.082262 0.000000 0.866858
O O14 0.000000 0.500000 0.210919
O O15 0.553103 0.500000 0.000000
O O16 0.500000 0.754975 0.000000
O O17 0.305757 0.500000 0.234892
O O18 0.250000 0.750000 0.221945
#
# Coordination Sequence:
#
# PCOD8272180 Si02
#       7
#    16   8  16  16   8   8  16
#     4   9  19  36  58  84 114 149 189 232 276 325
#     4  12  24  38  56  82 116 151 186 224 279 340
#     4  11  22  37  59  86 115 146 186 232 282 333
#     4  10  20  36  57  81 110 146 187 231 277 332
#     4  12  22  33  55  83 114 146 179 227 281 332
#     4   9  16  30  57  84 106 140 188 230 273 331
#     4  11  23  37  56  80 112 149 188 233 281 331
#
# _framework density 18.658795999999999
#
# number of rings (size 3 to 8) (size 9 to 14) (size 15 to 20)
#    0.000    1.545    2.727    3.273    0.000    3.636 
#    0.000    1.818    0.000    2.727    0.000    0.000 
#    0.000    0.000    0.000    0.000    0.000    0.000 
#
# Total GULP energy -545477.764708 kJ/mol
# GULP energy per Si atom -12397.221925 kJ/mol
# Density = 1.861633 g / cm^3
# Si number density = 18.658796 Si / 1000 Ang^3
#
#
#
# Elastic Constant Matrix: (Units=GPa)
#
#
# Indices 1 2 3 4 5 6 
#
# 1 144.4145 38.1015 79.7793 0.0000 0.0000 0.0000
# 2 38.1015 63.5766 32.8710 0.0000 0.0000 0.0000
# 3 79.7793 32.8710 144.4413 0.0000 0.0000 0.0000
# 4 0.0000 0.0000 0.0000 20.9738 0.0000 0.0000
# 5 0.0000 0.0000 0.0000 0.0000 47.1467 0.0000
# 6 0.0000 0.0000 0.0000 0.0000 0.0000 29.2081
#
#
#
# Elastic Compliance Matrix: (Units=1/GPa)
#
#
# Indices 1 2 3 4 5 6 
#
# 1 0.010723 -0.003813 -0.005055 0.000000 0.000000 0.000000
# 2 -0.003813 0.019182 -0.002259 0.000000 0.000000 0.000000
# 3 -0.005055 -0.002259 0.010229 0.000000 0.000000 0.000000
# 4 0.000000 0.000000 0.000000 0.047678 0.000000 0.000000
# 5 0.000000 0.000000 0.000000 0.000000 0.021210 0.000000
# 6 0.000000 0.000000 0.000000 0.000000 0.000000 0.034237
#
#
# Mechanical properties :
#
#
# Convention : Reuss Voigt Hill
#
# Bulk Modulus (GPa) = 55.92737 72.65954 64.29346
# Shear Modulus (GPa) = 29.15877 32.91109 31.03493
#
# Velocity S-wave (km/s) = 3.95743 4.20436 4.08277
# Velocity P-wave (km/s) = 7.13586 7.91168 7.53376
#
# Compressibility (1/GPa) = 0.01788033
#
# Stress axis : x y z
#
# Youngs Moduli (GPa) = 93.25790 52.13153 97.75722
#
# Poissons Ratio (x) = 0.19876 0.49416
# Poissons Ratio (y) = 0.35557 0.22088
# Poissons Ratio (z) = 0.47141 0.11779
#
# Static dielectric constant tensor:
#      x y z
#    x 3.457310 0.000000 0.000000 
#    y 0.000000 3.368280 0.000000 
#    z 0.000000 0.000000 3.818710 
# 
# 
# High freq. dielectric constant tensor:
#      x y z
#    x 1.718230 0.000000 0.000000 
#    y 0.000000 1.720660 0.000000 
#    z 0.000000 0.000000 1.729580 
# 
# From -- ./inp_files/65216.got.cif
#   From: 2010.03.12/outbox.cif.g09.slc.cpg/sg65_33_cif.got.tgz:65216.got - 2010.04.10 20:52:16.
