data_PCOD8272530
_publ_section_title
;
Structure prediction by ZEFSAII (Michael W. Deem and Ramdas Pophale) SiO2 
 PCOD8272530
Probable space group: C M M M
;
_chemical_formula_sum "Si O2"
_cell_formula_units_Z 88
_cell_length_a 7.414110
_cell_length_b 18.461822
_cell_length_c 33.223434
_cell_angle_alpha 90.000000
_cell_angle_beta 90.000000
_cell_angle_gamma 90.000000
_cell_volume 4547.556505
_symmetry_space_group_name_H-M "C M M M"
_symmetry_group_IT_number 65
_symmetry_cell_setting 'orthorhombic'
loop_
_space_group_symop_operation_xyz
x,y,z
-x,-y,z
x,-y,-z
-x,y,-z
-x,-y,-z
x,y,-z
-x,y,z
x,-y,z
1/2+x,1/2+y,z
1/2-x,1/2-y,z
1/2+x,1/2-y,-z
1/2-x,1/2+y,-z
1/2-x,1/2-y,-z
1/2+x,1/2+y,-z
1/2-x,1/2+y,z
1/2+x,1/2-y,z
loop_
_atom_site_type_symbol
_atom_site_label
_atom_site_fract_x
_atom_site_fract_y
_atom_site_fract_z
Si Si1 0.789028 0.834529 0.621361
Si Si2 0.713559 0.581005 0.455730
Si Si3 0.291365 0.668643 0.905823
Si Si4 0.000000 0.414850 0.672226
Si Si5 0.291551 0.668808 0.186665
Si Si6 0.000000 0.414657 0.953995
Si Si7 0.500000 0.083851 0.766219
O O1 0.750000 0.750000 0.624702
O O2 0.718455 0.862526 0.577821
O O3 0.680350 0.878030 0.655064
O O4 0.000000 0.850857 0.627872
O O5 0.786707 0.604358 0.500000
O O6 0.500000 0.580357 0.456624
O O7 0.783891 0.500000 0.445275
O O8 0.500000 0.650127 0.911908
O O9 0.250000 0.750000 0.920050
O O10 0.231374 0.659008 0.859568
O O11 0.179766 0.613953 0.932925
O O12 0.000000 0.399075 0.719292
O O13 0.000000 0.500000 0.662265
O O14 0.500000 0.650062 0.192648
O O15 0.250000 0.750000 0.200853
O O16 0.180299 0.615377 0.214457
O O17 0.000000 0.500000 0.950292
O O18 0.000000 0.388624 0.000000
O O19 0.500000 0.000000 0.775632
#
# Coordination Sequence:
#
# PCOD8272530 Si02
#       7
#    16  16  16   8  16   8   8
#     4  11  22  40  62  88 121 158 200 250 299 350
#     4   8  15  30  55  85 115 152 196 240 294 354
#     4  10  20  38  64  91 121 156 205 256 300 362
#     4  11  26  45  63  87 120 161 206 246 290 357
#     4  10  20  38  65  95 122 157 198 244 307 367
#     4  11  25  41  57  85 127 170 210 256 309 357
#     4  11  25  42  61  91 128 157 192 249 303 355
#
# _framework density 19.351051999999999
#
# number of rings (size 3 to 8) (size 9 to 14) (size 15 to 20)
#    0.000    1.909    2.727    1.636    0.000    5.818 
#    0.000    5.000    0.000    1.636    0.000    0.000 
#    0.000    0.000    0.000    0.000    0.000    0.000 
#
# Total GULP energy -545669.252629 kJ/mol
# GULP energy per Si atom -12401.573923 kJ/mol
# Density = 1.930701 g / cm^3
# Si number density = 19.351052 Si / 1000 Ang^3
#
#
#
# Elastic Constant Matrix: (Units=GPa)
#
#
# Indices 1 2 3 4 5 6 
#
# 1 112.6067 52.9847 59.1948 0.0000 0.0000 0.0000
# 2 52.9847 121.5709 88.0300 0.0000 0.0000 0.0000
# 3 59.1948 88.0300 124.3651 0.0000 0.0000 0.0000
# 4 0.0000 0.0000 0.0000 -5.1132 0.0000 0.0000
# 5 0.0000 0.0000 0.0000 0.0000 337.2050 0.0000
# 6 0.0000 0.0000 0.0000 0.0000 0.0000 5.8611
#
#
#
# Elastic Compliance Matrix: (Units=1/GPa)
#
#
# Indices 1 2 3 4 5 6 
#
# 1 0.012142 -0.002271 -0.004172 0.000000 0.000000 0.000000
# 2 -0.002271 0.017300 -0.011164 0.000000 0.000000 0.000000
# 3 -0.004172 -0.011164 0.017929 0.000000 0.000000 0.000000
# 4 0.000000 0.000000 0.000000 -0.195571 0.000000 0.000000
# 5 0.000000 0.000000 0.000000 0.000000 0.002966 0.000000
# 6 0.000000 0.000000 0.000000 0.000000 0.000000 0.170616
#
#
# Mechanical properties :
#
#
# Convention : Reuss Voigt Hill
#
# Bulk Modulus (GPa) = 82.26163 84.32909 83.29536
# Shear Modulus (GPa) = 77.34207 78.14613 77.74410
#
# Velocity S-wave (km/s) = 6.32887 6.36169 6.34530
# Velocity P-wave (km/s) = 9.79840 9.88102 9.83980
#
# Compressibility (1/GPa) = 0.01215634
#
# Stress axis : x y z
#
# Youngs Moduli (GPa) = 82.35802 57.80496 55.77580
#
# Poissons Ratio (x) = 0.13128 0.23268
# Poissons Ratio (y) = 0.18705 0.62269
# Poissons Ratio (z) = 0.34358 0.64535
#
# Static dielectric constant tensor:
#      x y z
#    x 3.486450 0.000000 0.000000 
#    y 0.000000 3.549740 0.000000 
#    z 0.000000 0.000000 3.652020 
# 
# 
# High freq. dielectric constant tensor:
#      x y z
#    x 1.761940 0.000000 0.000000 
#    y 0.000000 1.751380 0.000000 
#    z 0.000000 0.000000 1.751890 
# 
# From -- ./inp_files/76728.got.cif
#   From: 2010.03.12/outbox.cif.g09.slc.cpg/sg65_39_cif.got.tgz:76728.got - 2010.04.10 20:52:16.
