data_PCOD8272667
_publ_section_title
;
Structure prediction by ZEFSAII (Michael W. Deem and Ramdas Pophale) SiO2 
 PCOD8272667
Probable space group: C M M M
;
_chemical_formula_sum "Si O2"
_cell_formula_units_Z 80
_cell_length_a 9.634860
_cell_length_b 18.890404
_cell_length_c 26.136167
_cell_angle_alpha 90.000000
_cell_angle_beta 90.000000
_cell_angle_gamma 90.000000
_cell_volume 4756.949610
_symmetry_space_group_name_H-M "C M M M"
_symmetry_group_IT_number 65
_symmetry_cell_setting 'orthorhombic'
loop_
_space_group_symop_operation_xyz
x,y,z
-x,-y,z
x,-y,-z
-x,y,-z
-x,-y,-z
x,y,-z
-x,y,z
x,-y,z
1/2+x,1/2+y,z
1/2-x,1/2-y,z
1/2+x,1/2-y,-z
1/2-x,1/2+y,-z
1/2-x,1/2-y,-z
1/2+x,1/2+y,-z
1/2-x,1/2+y,z
1/2+x,1/2-y,z
loop_
_atom_site_type_symbol
_atom_site_label
_atom_site_fract_x
_atom_site_fract_y
_atom_site_fract_z
Si Si1 0.337189 0.678176 0.000000
Si Si2 0.843891 0.682658 0.500000
Si Si3 0.335092 0.921714 0.301000
Si Si4 0.161440 0.081526 0.904267
Si Si5 0.662010 0.821022 0.610529
Si Si6 0.845725 0.415772 0.810896
O O1 0.250000 0.750000 0.000000
O O2 0.296033 0.631019 0.048716
O O3 0.500000 0.696936 0.000000
O O4 0.750000 0.750000 0.500000
O O5 0.818441 0.641569 0.554013
O O6 0.000000 0.711660 0.500000
O O7 0.500000 0.926732 0.303951
O O8 0.276728 0.872964 0.346378
O O9 0.293558 0.889790 0.245177
O O10 0.270791 0.000000 0.308304
O O11 0.242424 0.111051 0.854828
O O12 0.000000 0.087435 0.891737
O O13 0.201376 0.000000 0.917106
O O14 0.500000 0.803973 0.620674
O O15 0.750000 0.750000 0.613676
O O16 0.849860 0.500000 0.809216
O O17 0.000000 0.386230 0.822845
#
# Coordination Sequence:
#
# PCOD8272667 Si02
#       6
#     8   8  16  16  16  16
#     4  10  21  35  49  67  93 122 146 172 214 262
#     4   8  14  24  39  59  81 107 141 178 214 252
#     4   8  14  26  44  64  87 115 143 173 214 260
#     4   9  17  31  51  71  89 112 145 182 215 249
#     4   9  16  27  43  62  84 111 144 180 216 255
#     4   8  14  26  45  67  88 112 144 178 211 251
#
# _framework density 16.817499000000002
#
# number of rings (size 3 to 8) (size 9 to 14) (size 15 to 20)
#    0.000    3.400    0.000    1.500    0.000    2.000 
#    0.000    2.500    0.000   12.600    0.000    0.000 
#    0.000    8.000    0.000    0.000    0.000    0.000 
#
# Total GULP energy -495530.587548 kJ/mol
# GULP energy per Si atom -12388.264689 kJ/mol
# Density = 1.677922 g / cm^3
# Si number density = 16.817499 Si / 1000 Ang^3
#
#
#
# Elastic Constant Matrix: (Units=GPa)
#
#
# Indices 1 2 3 4 5 6 
#
# 1 42.7362 29.6615 54.9092 0.0000 0.0000 0.0000
# 2 29.6615 65.8194 68.8524 0.0000 0.0000 0.0000
# 3 54.9092 68.8524 195.0406 0.0000 0.0000 0.0000
# 4 0.0000 0.0000 0.0000 16.0527 0.0000 0.0000
# 5 0.0000 0.0000 0.0000 0.0000 22.8678 0.0000
# 6 0.0000 0.0000 0.0000 0.0000 0.0000 18.4433
#
#
#
# Elastic Compliance Matrix: (Units=1/GPa)
#
#
# Indices 1 2 3 4 5 6 
#
# 1 0.040431 -0.010010 -0.007849 0.000000 0.000000 0.000000
# 2 -0.010010 0.026567 -0.006560 0.000000 0.000000 0.000000
# 3 -0.007849 -0.006560 0.009653 0.000000 0.000000 0.000000
# 4 0.000000 0.000000 0.000000 0.062295 0.000000 0.000000
# 5 0.000000 0.000000 0.000000 0.000000 0.043730 0.000000
# 6 0.000000 0.000000 0.000000 0.000000 0.000000 0.054220
#
#
# Mechanical properties :
#
#
# Convention : Reuss Voigt Hill
#
# Bulk Modulus (GPa) = 35.95495 67.82694 51.89094
# Shear Modulus (GPa) = 16.94887 21.48430 19.21659
#
# Velocity S-wave (km/s) = 3.17805 3.57809 3.38398
# Velocity P-wave (km/s) = 5.90699 7.58215 6.79638
#
# Compressibility (1/GPa) = 0.02781258
#
# Stress axis : x y z
#
# Youngs Moduli (GPa) = 24.73322 37.64105 103.59727
#
# Poissons Ratio (x) = 0.37678 0.81313
# Poissons Ratio (y) = 0.24757 0.67964
# Poissons Ratio (z) = 0.19413 0.24694
#
# Static dielectric constant tensor:
#      x y z
#    x 2.989590 0.000000 0.000000 
#    y 0.000000 2.935000 0.000000 
#    z 0.000000 0.000000 3.808290 
# 
# 
# High freq. dielectric constant tensor:
#      x y z
#    x 1.626710 0.000000 0.000000 
#    y 0.000000 1.603840 0.000000 
#    z 0.000000 0.000000 1.673060 
# 
# From -- ./inp_files/67374.got.cif
#   From: 2010.03.12/outbox.cif.g09.slc.cpg/sg65_34_cif.got.tgz:67374.got - 2010.04.10 20:52:16.
