data_PCOD8272450
_publ_section_title
;
Structure prediction by ZEFSAII (Michael W. Deem and Ramdas Pophale) SiO2 
 PCOD8272450
Probable space group: C M M M
;
_chemical_formula_sum "Si O2"
_cell_formula_units_Z 112
_cell_length_a 14.064220
_cell_length_b 21.622606
_cell_length_c 16.426254
_cell_angle_alpha 90.000000
_cell_angle_beta 90.000000
_cell_angle_gamma 90.000000
_cell_volume 4995.307414
_symmetry_space_group_name_H-M "C M M M"
_symmetry_group_IT_number 65
_symmetry_cell_setting 'orthorhombic'
loop_
_space_group_symop_operation_xyz
x,y,z
-x,-y,z
x,-y,-z
-x,y,-z
-x,-y,-z
x,y,-z
-x,y,z
x,-y,z
1/2+x,1/2+y,z
1/2-x,1/2-y,z
1/2+x,1/2-y,-z
1/2-x,1/2+y,-z
1/2-x,1/2-y,-z
1/2+x,1/2+y,-z
1/2-x,1/2+y,z
1/2+x,1/2-y,z
loop_
_atom_site_type_symbol
_atom_site_label
_atom_site_fract_x
_atom_site_fract_y
_atom_site_fract_z
Si Si1 0.640782 0.250354 0.761180
Si Si2 0.286418 0.930548 0.168259
Si Si3 0.607737 0.747070 0.412002
Si Si4 0.390702 0.927232 0.664922
Si Si5 0.602915 0.169228 0.911372
Si Si6 0.605768 0.392934 0.254360
Si Si7 0.209612 0.120174 0.411116
O O1 0.750000 0.250000 0.781730
O O2 0.620348 0.214691 0.673682
O O3 0.594303 0.218706 0.838884
O O4 0.600513 0.319072 0.752469
O O5 0.353436 0.913287 0.244474
O O6 0.315876 0.882440 0.099000
O O7 0.174745 0.921832 0.186728
O O8 0.304323 0.000000 0.137977
O O9 0.623635 0.782538 0.500000
O O10 0.500000 0.719731 0.412614
O O11 0.687348 0.693299 0.407089
O O12 0.500000 0.904620 0.654623
O O13 0.322619 0.890234 0.602575
O O14 0.382657 0.000000 0.646137
O O15 0.500000 0.136053 0.913752
O O16 0.622567 0.201091 0.000000
O O17 0.500000 0.420309 0.243257
O O18 0.647375 0.414202 0.342248
O O19 0.181683 0.093916 0.500000
#
# Coordination Sequence:
#
# PCOD8272450 Si02
#       7
#    16  16  16  16  16  16  16
#     4  11  20  36  61  90 127 166 201 250 309 362
#     4  10  21  40  62  87 118 154 199 253 303 353
#     4   9  18  34  57  84 117 158 201 247 299 355
#     4   9  18  32  51  74 104 150 203 250 301 360
#     4  11  24  41  64  95 127 160 201 248 300 365
#     4  10  20  37  61  89 118 157 205 249 304 366
#     4   9  17  29  49  78 112 150 195 249 302 357
#
# _framework density 22.421043000000001
#
# number of rings (size 3 to 8) (size 9 to 14) (size 15 to 20)
#    0.000    2.143    1.429    3.000    0.000    3.429 
#    0.000    1.429    0.000    1.714    0.000    9.000 
#    0.000    0.000    0.000    0.000    0.000    0.143 
#
# Total GULP energy -693867.431209 kJ/mol
# GULP energy per Si atom -12390.489843 kJ/mol
# Density = 2.237001 g / cm^3
# Si number density = 22.421043 Si / 1000 Ang^3
#
#
#
# Elastic Constant Matrix: (Units=GPa)
#
#
# Indices 1 2 3 4 5 6 
#
# 1 166.8497 17.3186 45.3183 0.0000 0.0000 0.0000
# 2 17.3186 37.4069 41.7299 0.0000 0.0000 0.0000
# 3 45.3183 41.7299 168.6969 0.0000 0.0000 0.0000
# 4 0.0000 0.0000 0.0000 20.1342 0.0000 0.0000
# 5 0.0000 0.0000 0.0000 0.0000 24.4568 0.0000
# 6 0.0000 0.0000 0.0000 0.0000 0.0000 11.1043
#
#
#
# Elastic Compliance Matrix: (Units=1/GPa)
#
#
# Indices 1 2 3 4 5 6 
#
# 1 0.006523 -0.001471 -0.001388 0.000000 0.000000 0.000000
# 2 -0.001471 0.037254 -0.008820 0.000000 0.000000 0.000000
# 3 -0.001388 -0.008820 0.008483 0.000000 0.000000 0.000000
# 4 0.000000 0.000000 0.000000 0.049667 0.000000 0.000000
# 5 0.000000 0.000000 0.000000 0.000000 0.040888 0.000000
# 6 0.000000 0.000000 0.000000 0.000000 0.000000 0.090055
#
#
# Mechanical properties :
#
#
# Convention : Reuss Voigt Hill
#
# Bulk Modulus (GPa) = 34.60217 64.63189 49.61703
# Shear Modulus (GPa) = 18.80675 29.04486 23.92581
#
# Velocity S-wave (km/s) = 2.89934 3.60311 3.27021
# Velocity P-wave (km/s) = 5.16475 6.79698 6.03629
#
# Compressibility (1/GPa) = 0.02889992
#
# Stress axis : x y z
#
# Youngs Moduli (GPa) = 153.29791 26.84311 117.88900
#
# Poissons Ratio (x) = 0.03949 0.16368
# Poissons Ratio (y) = 0.22553 1.03978
# Poissons Ratio (z) = 0.21285 0.23676
#
# Static dielectric constant tensor:
#      x y z
#    x 4.153250 0.000000 0.000000 
#    y 0.000000 3.824760 0.000000 
#    z 0.000000 0.000000 4.182750 
# 
# 
# High freq. dielectric constant tensor:
#      x y z
#    x 1.900540 0.000000 0.000000 
#    y 0.000000 1.845130 0.000000 
#    z 0.000000 0.000000 1.872410 
# 
# From -- ./inp_files/40827.got.cif
#   From: 2010.03.12/outbox.cif.g09.slc.cpg/sg65_21_cif.got.tgz:40827.got - 2010.04.10 20:52:16.
