data_PCOD8272258
_publ_section_title
;
Structure prediction by ZEFSAII (Michael W. Deem and Ramdas Pophale) SiO2 
 PCOD8272258
Probable space group: C M M M
;
_chemical_formula_sum "Si O2"
_cell_formula_units_Z 56
_cell_length_a 28.018654
_cell_length_b 9.172802
_cell_length_c 10.448619
_cell_angle_alpha 90.000000
_cell_angle_beta 90.000000
_cell_angle_gamma 90.000000
_cell_volume 2685.395029
_symmetry_space_group_name_H-M "C M M M"
_symmetry_group_IT_number 65
_symmetry_cell_setting 'orthorhombic'
loop_
_space_group_symop_operation_xyz
x,y,z
-x,-y,z
x,-y,-z
-x,y,-z
-x,-y,-z
x,y,-z
-x,y,z
x,-y,z
1/2+x,1/2+y,z
1/2-x,1/2-y,z
1/2+x,1/2-y,-z
1/2-x,1/2+y,-z
1/2-x,1/2-y,-z
1/2+x,1/2+y,-z
1/2-x,1/2+y,z
1/2+x,1/2-y,z
loop_
_atom_site_type_symbol
_atom_site_label
_atom_site_fract_x
_atom_site_fract_y
_atom_site_fract_z
Si Si1 0.300704 0.829580 0.722583
Si Si2 0.297621 0.163437 0.000000
Si Si3 0.388479 0.332989 0.641481
Si Si4 0.556579 0.834942 0.856564
O O1 0.250000 0.750000 0.708742
O O2 0.324543 0.806440 0.865725
O O3 0.338728 0.754671 0.630690
O O4 0.294260 0.000000 0.688919
O O5 0.250000 0.250000 0.000000
O O6 0.279148 0.000000 0.000000
O O7 0.412226 0.320369 0.500000
O O8 0.377417 0.500000 0.676255
O O9 0.423579 0.270852 0.748285
O O10 0.500000 0.825464 0.851283
O O11 0.573773 0.000000 0.827821
O O12 0.574126 0.790201 0.000000
#
# Coordination Sequence:
#
# PCOD8272258 Si02
#       4
#    16   8  16  16
#     4  10  20  36  58  84 117 157 202 250 300 353
#     4   8  16  30  50  78 107 138 181 236 290 341
#     4  11  25  41  57  85 124 164 205 246 293 352
#     4   9  20  41  68  95 121 151 192 244 301 361
#
# _framework density 20.853543999999999
#
# number of rings (size 3 to 8) (size 9 to 14) (size 15 to 20)
#    0.000    2.286    0.000    2.571    2.000    5.714 
#    0.000    4.286    0.000    0.000    0.000    0.000 
#    0.000    0.000    0.000    0.000    0.000    0.000 
#
# Total GULP energy -346965.605643 kJ/mol
# GULP energy per Si atom -12391.628773 kJ/mol
# Density = 2.080608 g / cm^3
# Si number density = 20.853544 Si / 1000 Ang^3
#
#
#
# Elastic Constant Matrix: (Units=GPa)
#
#
# Indices 1 2 3 4 5 6 
#
# 1 40.9175 37.9995 38.5389 0.0000 0.0000 0.0000
# 2 37.9995 141.8031 68.0563 0.0000 0.0000 0.0000
# 3 38.5389 68.0563 130.5964 0.0000 0.0000 0.0000
# 4 0.0000 0.0000 0.0000 31.7587 0.0000 0.0000
# 5 0.0000 0.0000 0.0000 0.0000 24.0023 0.0000
# 6 0.0000 0.0000 0.0000 0.0000 0.0000 36.5523
#
#
#
# Elastic Compliance Matrix: (Units=1/GPa)
#
#
# Indices 1 2 3 4 5 6 
#
# 1 0.037699 -0.006352 -0.007815 0.000000 0.000000 0.000000
# 2 -0.006352 0.010474 -0.003584 0.000000 0.000000 0.000000
# 3 -0.007815 -0.003584 0.011831 0.000000 0.000000 0.000000
# 4 0.000000 0.000000 0.000000 0.031487 0.000000 0.000000
# 5 0.000000 0.000000 0.000000 0.000000 0.041663 0.000000
# 6 0.000000 0.000000 0.000000 0.000000 0.000000 0.027358
#
#
# Mechanical properties :
#
#
# Convention : Reuss Voigt Hill
#
# Bulk Modulus (GPa) = 40.81142 66.94516 53.87829
# Shear Modulus (GPa) = 24.48815 29.71083 27.09949
#
# Velocity S-wave (km/s) = 3.43051 3.77866 3.60879
# Velocity P-wave (km/s) = 5.94173 7.15611 6.57701
#
# Compressibility (1/GPa) = 0.02450294
#
# Stress axis : x y z
#
# Youngs Moduli (GPa) = 26.52614 95.47321 84.52368
#
# Poissons Ratio (x) = 0.60641 0.66055
# Poissons Ratio (y) = 0.16848 0.30293
# Poissons Ratio (z) = 0.20730 0.34217
#
# Static dielectric constant tensor:
#      x y z
#    x 3.413800 0.000000 0.000000 
#    y 0.000000 3.814590 0.000000 
#    z 0.000000 0.000000 3.698900 
# 
# 
# High freq. dielectric constant tensor:
#      x y z
#    x 1.801750 0.000000 0.000000 
#    y 0.000000 1.818930 0.000000 
#    z 0.000000 0.000000 1.830040 
# 
# From -- ./inp_files/20799.got.cif
#   From: 2010.03.12/outbox.cif.g09.slc.cpg/sg65_11_cif.got.tgz:20799.got - 2010.04.10 20:52:16.
