data_PCOD8272475
_publ_section_title
;
Structure prediction by ZEFSAII (Michael W. Deem and Ramdas Pophale) SiO2 
 PCOD8272475
Probable space group: C M M M
;
_chemical_formula_sum "Si O2"
_cell_formula_units_Z 72
_cell_length_a 18.457853
_cell_length_b 7.851149
_cell_length_c 24.308711
_cell_angle_alpha 90.000000
_cell_angle_beta 90.000000
_cell_angle_gamma 90.000000
_cell_volume 3522.705463
_symmetry_space_group_name_H-M "C M M M"
_symmetry_group_IT_number 65
_symmetry_cell_setting 'orthorhombic'
loop_
_space_group_symop_operation_xyz
x,y,z
-x,-y,z
x,-y,-z
-x,y,-z
-x,-y,-z
x,y,-z
-x,y,z
x,-y,z
1/2+x,1/2+y,z
1/2-x,1/2-y,z
1/2+x,1/2-y,-z
1/2-x,1/2+y,-z
1/2-x,1/2-y,-z
1/2+x,1/2+y,-z
1/2-x,1/2+y,z
1/2+x,1/2-y,z
loop_
_atom_site_type_symbol
_atom_site_label
_atom_site_fract_x
_atom_site_fract_y
_atom_site_fract_z
Si Si1 0.667707 0.197480 0.560995
Si Si2 0.083416 0.500000 0.065032
Si Si3 0.916619 0.693409 0.777790
Si Si4 0.079723 0.806936 0.337604
Si Si5 0.833131 0.194275 0.121887
O O1 0.637540 0.243321 0.500000
O O2 0.750000 0.250000 0.564595
O O3 0.626167 0.299175 0.607455
O O4 0.658362 0.000000 0.573290
O O5 0.121666 0.673677 0.084950
O O6 0.000000 0.500000 0.085775
O O7 0.087616 0.500000 0.000000
O O8 0.910437 0.500000 0.798861
O O9 0.888268 0.704182 0.714642
O O10 0.865596 0.806309 0.816511
O O11 0.000000 0.757658 0.780538
O O12 0.000000 0.735300 0.351936
O O13 0.076086 0.000000 0.317752
O O14 0.750000 0.250000 0.123255
O O15 0.839349 0.000000 0.098886
#
# Coordination Sequence:
#
# PCOD8272475 Si02
#       5
#    16   8  16  16  16
#     4  10  21  37  56  77 105 144 192 245 305 369
#     4  11  26  48  72 102 139 179 226 274 325 390
#     4  10  20  37  62  90 125 164 205 258 316 380
#     4  10  21  36  55  84 117 153 198 245 302 367
#     4  12  24  43  68 101 137 177 223 273 331 388
#
# _framework density 20.438835999999998
#
# number of rings (size 3 to 8) (size 9 to 14) (size 15 to 20)
#    0.000    1.444    2.222    2.667    0.000    7.556 
#    0.000    7.778    0.000    0.000    0.000    0.000 
#    0.000    0.000    0.000    0.000    0.000    0.000 
#
# Total GULP energy -446353.981521 kJ/mol
# GULP energy per Si atom -12398.721709 kJ/mol
# Density = 2.039232 g / cm^3
# Si number density = 20.438836 Si / 1000 Ang^3
#
#
#
# Elastic Constant Matrix: (Units=GPa)
#
#
# Indices 1 2 3 4 5 6 
#
# 1 100.2318 45.7876 51.5854 0.0000 0.0000 0.0000
# 2 45.7876 117.5699 35.4238 0.0000 0.0000 0.0000
# 3 51.5854 35.4238 104.0962 0.0000 0.0000 0.0000
# 4 0.0000 0.0000 0.0000 29.1864 0.0000 0.0000
# 5 0.0000 0.0000 0.0000 0.0000 9.0686 0.0000
# 6 0.0000 0.0000 0.0000 0.0000 0.0000 29.4932
#
#
#
# Elastic Compliance Matrix: (Units=1/GPa)
#
#
# Indices 1 2 3 4 5 6 
#
# 1 0.014900 -0.003987 -0.006027 0.000000 0.000000 0.000000
# 2 -0.003987 0.010544 -0.001612 0.000000 0.000000 0.000000
# 3 -0.006027 -0.001612 0.013142 0.000000 0.000000 0.000000
# 4 0.000000 0.000000 0.000000 0.034262 0.000000 0.000000
# 5 0.000000 0.000000 0.000000 0.000000 0.110270 0.000000
# 6 0.000000 0.000000 0.000000 0.000000 0.000000 0.033906
#
#
# Mechanical properties :
#
#
# Convention : Reuss Voigt Hill
#
# Bulk Modulus (GPa) = 65.21729 65.27684 65.24706
# Shear Modulus (GPa) = 20.37585 26.15641 23.26613
#
# Velocity S-wave (km/s) = 3.16083 3.58123 3.37757
# Velocity P-wave (km/s) = 6.73044 7.00766 6.87045
#
# Compressibility (1/GPa) = 0.01533336
#
# Stress axis : x y z
#
# Youngs Moduli (GPa) = 67.11390 94.83994 76.09223
#
# Poissons Ratio (x) = 0.37811 0.45861
# Poissons Ratio (y) = 0.26757 0.12269
# Poissons Ratio (z) = 0.40450 0.15292
#
# Static dielectric constant tensor:
#      x y z
#    x 3.659960 0.000000 0.000000 
#    y 0.000000 3.834640 0.000000 
#    z 0.000000 0.000000 3.729290 
# 
# 
# High freq. dielectric constant tensor:
#      x y z
#    x 1.789830 0.000000 0.000000 
#    y 0.000000 1.809230 0.000000 
#    z 0.000000 0.000000 1.804790 
# 
# From -- ./inp_files/70348.got.cif
#   From: 2010.03.12/outbox.cif.g09.slc.cpg/sg65_36_cif.got.tgz:70348.got - 2010.04.10 20:52:16.
