data_PCOD8272432
_publ_section_title
;
Structure prediction by ZEFSAII (Michael W. Deem and Ramdas Pophale) SiO2 
 PCOD8272432
Probable space group: C M M M
;
_chemical_formula_sum "Si O2"
_cell_formula_units_Z 72
_cell_length_a 24.456163
_cell_length_b 16.628182
_cell_length_c 9.094513
_cell_angle_alpha 90.000000
_cell_angle_beta 90.000000
_cell_angle_gamma 90.000000
_cell_volume 3698.388566
_symmetry_space_group_name_H-M "C M M M"
_symmetry_group_IT_number 65
_symmetry_cell_setting 'orthorhombic'
loop_
_space_group_symop_operation_xyz
x,y,z
-x,-y,z
x,-y,-z
-x,y,-z
-x,-y,-z
x,y,-z
-x,y,z
x,-y,z
1/2+x,1/2+y,z
1/2-x,1/2-y,z
1/2+x,1/2-y,-z
1/2-x,1/2+y,-z
1/2-x,1/2-y,-z
1/2+x,1/2+y,-z
1/2-x,1/2+y,z
1/2+x,1/2-y,z
loop_
_atom_site_type_symbol
_atom_site_label
_atom_site_fract_x
_atom_site_fract_y
_atom_site_fract_z
Si Si1 0.736946 0.590548 0.668777
Si Si2 0.561895 0.000000 0.674789
Si Si3 0.649706 0.692841 0.827100
Si Si4 0.061764 0.905784 0.665733
Si Si5 0.140990 0.639638 0.670621
O O1 0.722447 0.609196 0.500000
O O2 0.718020 0.500000 0.709984
O O3 0.706125 0.656118 0.766553
O O4 0.801337 0.596312 0.696124
O O5 0.593644 0.079790 0.728736
O O6 0.500000 0.000000 0.737782
O O7 0.561831 0.000000 0.500000
O O8 0.599450 0.636347 0.784731
O O9 0.637887 0.780210 0.764261
O O10 0.655015 0.698682 0.000000
O O11 0.081652 0.885411 0.500000
O O12 0.000000 0.874950 0.687700
O O13 0.065046 0.000000 0.693639
O O14 0.132373 0.661457 0.500000
#
# Coordination Sequence:
#
# PCOD8272432 Si02
#       5
#    16   8  16  16  16
#     4  10  20  37  61  85 112 150 197 247 295 344
#     4   9  18  36  65  95 115 139 188 251 304 347
#     4  12  25  36  52  85 123 157 191 231 287 355
#     4   9  19  38  62  84 108 144 192 241 286 336
#     4  10  20  38  61  85 113 148 193 245 295 344
#
# _framework density 19.467938
#
# number of rings (size 3 to 8) (size 9 to 14) (size 15 to 20)
#    0.000    1.889    1.111    4.000    0.000    8.444 
#    0.000    3.889    0.000    0.667    0.000    0.000 
#    0.000    0.000    0.000    0.000    0.000    0.000 
#
# Total GULP energy -446482.094254 kJ/mol
# GULP energy per Si atom -12402.280396 kJ/mol
# Density = 1.942363 g / cm^3
# Si number density = 19.467938 Si / 1000 Ang^3
#
#
#
# Elastic Constant Matrix: (Units=GPa)
#
#
# Indices 1 2 3 4 5 6 
#
# 1 126.9109 64.2423 53.2079 0.0000 0.0000 0.0000
# 2 64.2423 115.2615 58.4217 0.0000 0.0000 0.0000
# 3 53.2079 58.4217 97.9099 0.0000 0.0000 0.0000
# 4 0.0000 0.0000 0.0000 -6.8293 0.0000 0.0000
# 5 0.0000 0.0000 0.0000 0.0000 5.4078 0.0000
# 6 0.0000 0.0000 0.0000 0.0000 0.0000 74.1395
#
#
#
# Elastic Compliance Matrix: (Units=1/GPa)
#
#
# Indices 1 2 3 4 5 6 
#
# 1 0.011784 -0.004762 -0.003562 0.000000 0.000000 0.000000
# 2 -0.004762 0.014362 -0.005982 0.000000 0.000000 0.000000
# 3 -0.003562 -0.005982 0.015718 0.000000 0.000000 0.000000
# 4 0.000000 0.000000 0.000000 -0.146428 0.000000 0.000000
# 5 0.000000 0.000000 0.000000 0.000000 0.184918 0.000000
# 6 0.000000 0.000000 0.000000 0.000000 0.000000 0.013488
#
#
# Mechanical properties :
#
#
# Convention : Reuss Voigt Hill
#
# Bulk Modulus (GPa) = 75.45976 76.86956 76.16466
# Shear Modulus (GPa) = 39.40962 25.49096 32.45029
#
# Velocity S-wave (km/s) = 4.50414 3.62246 4.08715
# Velocity P-wave (km/s) = 8.11757 7.55429 7.84099
#
# Compressibility (1/GPa) = 0.01325210
#
# Stress axis : x y z
#
# Youngs Moduli (GPa) = 84.86367 69.62761 63.61942
#
# Poissons Ratio (x) = 0.33158 0.22662
# Poissons Ratio (y) = 0.40414 0.38055
# Poissons Ratio (z) = 0.30229 0.41649
#
# Static dielectric constant tensor:
#      x y z
#    x 3.769280 0.000000 0.000000 
#    y 0.000000 3.738260 0.000000 
#    z 0.000000 0.000000 3.272410 
# 
# 
# High freq. dielectric constant tensor:
#      x y z
#    x 1.769220 0.000000 0.000000 
#    y 0.000000 1.766950 0.000000 
#    z 0.000000 0.000000 1.726250 
# 
# From -- ./inp_files/13585.got.cif
#   From: 2010.03.12/outbox.cif.g09.slc.cpg/sg65_7_cif.got.tgz:13585.got - 2010.04.10 20:52:16.
