data_PCOD8272784
_publ_section_title
;
Structure prediction by ZEFSAII (Michael W. Deem and Ramdas Pophale) SiO2 
 PCOD8272784
Probable space group: C M M M
;
_chemical_formula_sum "Si O2"
_cell_formula_units_Z 88
_cell_length_a 9.118141
_cell_length_b 18.637220
_cell_length_c 28.005686
_cell_angle_alpha 90.000000
_cell_angle_beta 90.000000
_cell_angle_gamma 90.000000
_cell_volume 4759.196655
_symmetry_space_group_name_H-M "C M M M"
_symmetry_group_IT_number 65
_symmetry_cell_setting 'orthorhombic'
loop_
_space_group_symop_operation_xyz
x,y,z
-x,-y,z
x,-y,-z
-x,y,-z
-x,-y,-z
x,y,-z
-x,y,z
x,-y,z
1/2+x,1/2+y,z
1/2-x,1/2-y,z
1/2+x,1/2-y,-z
1/2-x,1/2+y,-z
1/2-x,1/2-y,-z
1/2+x,1/2+y,-z
1/2-x,1/2+y,z
1/2+x,1/2-y,z
loop_
_atom_site_type_symbol
_atom_site_label
_atom_site_fract_x
_atom_site_fract_y
_atom_site_fract_z
Si Si1 0.329368 0.917031 0.724091
Si Si2 0.665320 0.585300 0.000000
Si Si3 0.833597 0.915185 0.629477
Si Si4 0.327141 0.173973 0.815456
Si Si5 0.329104 0.822868 0.444686
Si Si6 0.828122 0.582603 0.093729
O O1 0.500000 0.906030 0.712465
O O2 0.237475 0.888715 0.678966
O O3 0.278302 0.870583 0.769118
O O4 0.295412 0.000000 0.735609
O O5 0.746316 0.613838 0.952739
O O6 0.670888 0.500000 0.000000
O O7 0.500000 0.614757 0.000000
O O8 0.740405 0.887142 0.585066
O O9 0.000000 0.886596 0.626790
O O10 0.827319 0.000000 0.626467
O O11 0.500000 0.185818 0.816105
O O12 0.250000 0.250000 0.815157
O O13 0.275445 0.129222 0.861447
O O14 0.300794 0.840152 0.500000
O O15 0.500000 0.815609 0.433061
O O16 0.250000 0.750000 0.429080
O O17 0.785582 0.500000 0.103857
O O18 0.000000 0.590004 0.084418
#
# Coordination Sequence:
#
# PCOD8272784 Si02
#       6
#    16   8  16  16  16  16
#     4   9  18  35  57  77 100 134 176 218 258 304
#     4   9  17  29  48  77 106 129 161 207 256 301
#     4  10  21  36  55  81 111 141 175 217 264 313
#     4  10  21  35  52  76 104 134 169 210 257 307
#     4  10  21  37  57  80 107 141 180 220 263 313
#     4   9  17  32  54  76  99 131 171 210 248 296
#
# _framework density 18.490514999999998
#
# number of rings (size 3 to 8) (size 9 to 14) (size 15 to 20)
#    0.000    2.455    0.000    1.909    0.000    8.000 
#    0.000    4.091    0.000    5.455    0.000    0.000 
#    0.000    0.000    0.000    0.000    0.000    0.000 
#
# Total GULP energy -545729.614547 kJ/mol
# GULP energy per Si atom -12402.945785 kJ/mol
# Density = 1.844843 g / cm^3
# Si number density = 18.490515 Si / 1000 Ang^3
#
#
#
# Elastic Constant Matrix: (Units=GPa)
#
#
# Indices 1 2 3 4 5 6 
#
# 1 91.7221 41.5695 71.4536 0.0000 0.0000 0.0000
# 2 41.5695 70.9038 61.4177 0.0000 0.0000 0.0000
# 3 71.4536 61.4177 145.6973 0.0000 0.0000 0.0000
# 4 0.0000 0.0000 0.0000 11.4450 0.0000 0.0000
# 5 0.0000 0.0000 0.0000 0.0000 27.8246 0.0000
# 6 0.0000 0.0000 0.0000 0.0000 0.0000 31.9866
#
#
#
# Elastic Compliance Matrix: (Units=1/GPa)
#
#
# Indices 1 2 3 4 5 6 
#
# 1 0.018599 -0.004730 -0.007127 0.000000 0.000000 0.000000
# 2 -0.004730 0.023419 -0.007552 0.000000 0.000000 0.000000
# 3 -0.007127 -0.007552 0.013542 0.000000 0.000000 0.000000
# 4 0.000000 0.000000 0.000000 0.087374 0.000000 0.000000
# 5 0.000000 0.000000 0.000000 0.000000 0.035939 0.000000
# 6 0.000000 0.000000 0.000000 0.000000 0.000000 0.031263
#
#
# Mechanical properties :
#
#
# Convention : Reuss Voigt Hill
#
# Bulk Modulus (GPa) = 59.73562 73.02277 66.37919
# Shear Modulus (GPa) = 19.64360 23.17674 21.41017
#
# Velocity S-wave (km/s) = 3.26292 3.54424 3.40648
# Velocity P-wave (km/s) = 6.82435 7.50510 7.17281
#
# Compressibility (1/GPa) = 0.01674043
#
# Stress axis : x y z
#
# Youngs Moduli (GPa) = 53.76765 42.70106 73.84208
#
# Poissons Ratio (x) = 0.20199 0.52628
# Poissons Ratio (y) = 0.25434 0.55766
# Poissons Ratio (z) = 0.38321 0.32248
#
# Static dielectric constant tensor:
#      x y z
#    x 3.469160 0.000000 0.000000 
#    y 0.000000 3.204910 0.000000 
#    z 0.000000 0.000000 3.542070 
# 
# 
# High freq. dielectric constant tensor:
#      x y z
#    x 1.719170 0.000000 0.000000 
#    y 0.000000 1.700430 0.000000 
#    z 0.000000 0.000000 1.729630 
# 
# From -- ./inp_files/67474.got.cif
#   From: 2010.03.12/outbox.cif.g09.slc.cpg/sg65_34_cif.got.tgz:67474.got - 2010.04.10 20:52:16.
