data_PCOD8272628
_publ_section_title
;
Structure prediction by ZEFSAII (Michael W. Deem and Ramdas Pophale) SiO2 
 PCOD8272628
Probable space group: C M M M
;
_chemical_formula_sum "Si O2"
_cell_formula_units_Z 72
_cell_length_a 7.934535
_cell_length_b 18.481102
_cell_length_c 25.377782
_cell_angle_alpha 90.000000
_cell_angle_beta 90.000000
_cell_angle_gamma 90.000000
_cell_volume 3721.371322
_symmetry_space_group_name_H-M "C M M M"
_symmetry_group_IT_number 65
_symmetry_cell_setting 'orthorhombic'
loop_
_space_group_symop_operation_xyz
x,y,z
-x,-y,z
x,-y,-z
-x,y,-z
-x,-y,-z
x,y,-z
-x,y,z
x,-y,z
1/2+x,1/2+y,z
1/2-x,1/2-y,z
1/2+x,1/2-y,-z
1/2-x,1/2+y,-z
1/2-x,1/2-y,-z
1/2+x,1/2+y,-z
1/2-x,1/2+y,z
1/2+x,1/2-y,z
loop_
_atom_site_type_symbol
_atom_site_label
_atom_site_fract_x
_atom_site_fract_y
_atom_site_fract_z
Si Si1 0.195112 0.419294 0.333360
Si Si2 0.000000 0.085701 0.941236
Si Si3 0.802684 0.667853 0.763954
Si Si4 0.196960 0.915973 0.443588
Si Si5 0.693821 0.914795 0.868476
O O1 0.277784 0.500000 0.331909
O O2 0.279699 0.369375 0.288063
O O3 0.220168 0.381864 0.391038
O O4 0.000000 0.426765 0.321216
O O5 0.173108 0.111279 0.912839
O O6 0.000000 0.000000 0.943994
O O7 0.000000 0.119077 0.000000
O O8 0.750000 0.750000 0.769034
O O9 0.745236 0.624499 0.815518
O O10 0.000000 0.663603 0.758311
O O11 0.261611 0.882520 0.500000
O O12 0.000000 0.903337 0.439281
O O13 0.244170 0.000000 0.444351
O O14 0.500000 0.894207 0.884385
O O15 0.707188 0.000000 0.858400
#
# Coordination Sequence:
#
# PCOD8272628 Si02
#       5
#    16   8  16  16  16
#     4   9  17  30  48  70  97 126 161 205 250 301
#     4   9  18  32  54  86 114 136 170 214 256 301
#     4  10  21  34  50  73  99 134 168 208 257 304
#     4   8  14  25  41  64  94 124 155 196 247 299
#     4   9  18  34  55  79 108 141 174 212 257 304
#
# _framework density 19.347705999999999
#
# number of rings (size 3 to 8) (size 9 to 14) (size 15 to 20)
#    0.000    3.000    0.000    1.333    1.556    4.444 
#    0.000    4.444    0.000    1.333    0.000    0.000 
#    0.000    0.000    0.000    0.000    0.000    0.000 
#
# Total GULP energy -445988.199095 kJ/mol
# GULP energy per Si atom -12388.561086 kJ/mol
# Density = 1.930367 g / cm^3
# Si number density = 19.347706 Si / 1000 Ang^3
#
#
#
# Elastic Constant Matrix: (Units=GPa)
#
#
# Indices 1 2 3 4 5 6 
#
# 1 56.1284 18.3286 66.8985 0.0000 0.0000 0.0000
# 2 18.3286 52.9747 56.0361 0.0000 0.0000 0.0000
# 3 66.8985 56.0361 205.4752 0.0000 0.0000 0.0000
# 4 0.0000 0.0000 0.0000 6.5178 0.0000 0.0000
# 5 0.0000 0.0000 0.0000 0.0000 26.7346 0.0000
# 6 0.0000 0.0000 0.0000 0.0000 0.0000 16.4772
#
#
#
# Elastic Compliance Matrix: (Units=1/GPa)
#
#
# Indices 1 2 3 4 5 6 
#
# 1 0.029114 -0.000065 -0.009461 0.000000 0.000000 0.000000
# 2 -0.000065 0.026530 -0.007214 0.000000 0.000000 0.000000
# 3 -0.009461 -0.007214 0.009915 0.000000 0.000000 0.000000
# 4 0.000000 0.000000 0.000000 0.153427 0.000000 0.000000
# 5 0.000000 0.000000 0.000000 0.000000 0.037405 0.000000
# 6 0.000000 0.000000 0.000000 0.000000 0.000000 0.060690
#
#
# Mechanical properties :
#
#
# Convention : Reuss Voigt Hill
#
# Bulk Modulus (GPa) = 31.17368 66.34496 48.75932
# Shear Modulus (GPa) = 13.84068 21.50027 17.67047
#
# Velocity S-wave (km/s) = 2.67753 3.33717 3.02538
# Velocity P-wave (km/s) = 5.07013 7.01529 6.12048
#
# Compressibility (1/GPa) = 0.03207835
#
# Stress axis : x y z
#
# Youngs Moduli (GPa) = 34.34742 37.69262 100.86216
#
# Poissons Ratio (x) = 0.00246 0.95428
# Poissons Ratio (y) = 0.00224 0.72762
# Poissons Ratio (z) = 0.32497 0.27191
#
# Static dielectric constant tensor:
#      x y z
#    x 3.467610 0.000000 0.000000 
#    y 0.000000 3.072000 0.000000 
#    z 0.000000 0.000000 4.072430 
# 
# 
# High freq. dielectric constant tensor:
#      x y z
#    x 1.742790 0.000000 0.000000 
#    y 0.000000 1.697390 0.000000 
#    z 0.000000 0.000000 1.769900 
# 
# From -- ./inp_files/59267.got.cif
#   From: 2010.03.12/outbox.cif.g09.slc.cpg/sg65_30_cif.got.tgz:59267.got - 2010.04.10 20:52:16.
