data_PCOD8272412
_publ_section_title
;
Structure prediction by ZEFSAII (Michael W. Deem and Ramdas Pophale) SiO2 
 PCOD8272412
Probable space group: C M M M
;
_chemical_formula_sum "Si O2"
_cell_formula_units_Z 88
_cell_length_a 27.801593
_cell_length_b 14.415948
_cell_length_c 11.169707
_cell_angle_alpha 90.000000
_cell_angle_beta 90.000000
_cell_angle_gamma 90.000000
_cell_volume 4476.665753
_symmetry_space_group_name_H-M "C M M M"
_symmetry_group_IT_number 65
_symmetry_cell_setting 'orthorhombic'
loop_
_space_group_symop_operation_xyz
x,y,z
-x,-y,z
x,-y,-z
-x,y,-z
-x,-y,-z
x,y,-z
-x,y,z
x,-y,z
1/2+x,1/2+y,z
1/2-x,1/2-y,z
1/2+x,1/2-y,-z
1/2-x,1/2+y,-z
1/2-x,1/2-y,-z
1/2+x,1/2+y,-z
1/2-x,1/2+y,z
1/2+x,1/2-y,z
loop_
_atom_site_type_symbol
_atom_site_label
_atom_site_fract_x
_atom_site_fract_y
_atom_site_fract_z
Si Si1 0.500000 0.605686 0.357138
Si Si2 0.270176 0.852526 0.361126
Si Si3 0.197747 0.788190 0.000000
Si Si4 0.625538 0.896614 0.735510
Si Si5 0.593231 0.711527 0.359808
Si Si6 0.141232 0.600694 0.000000
Si Si7 0.677733 0.397999 0.761151
O O1 0.500000 0.500000 0.309415
O O2 0.500000 0.606940 0.500000
O O3 0.546690 0.659345 0.306047
O O4 0.281359 0.874432 0.500000
O O5 0.250000 0.750000 0.341357
O O6 0.318279 0.869986 0.284230
O O7 0.227336 0.915606 0.310846
O O8 0.250000 0.750000 0.000000
O O9 0.186569 0.850828 0.887184
O O10 0.170646 0.692771 0.000000
O O11 0.591697 0.820981 0.671425
O O12 0.611171 0.896278 0.876296
O O13 0.615986 0.000000 0.682505
O O14 0.593875 0.699089 0.500000
O O15 0.641745 0.666148 0.312500
O O16 0.169562 0.500000 0.000000
O O17 0.654829 0.500000 0.780189
#
# Coordination Sequence:
#
# PCOD8272412 Si02
#       7
#     8  16   8  16  16   8  16
#     4   9  20  40  65  92 121 156 199 244 299 368
#     4  11  21  35  52  79 120 160 200 245 294 352
#     4  12  23  39  56  81 121 158 202 256 295 346
#     4  11  22  37  59  87 118 157 201 248 300 357
#     4  11  22  39  63  91 123 158 198 250 307 366
#     4  10  20  37  60  79 107 154 203 238 282 342
#     4  12  24  37  57  85 119 162 206 250 298 354
#
# _framework density 19.657488000000001
#
# number of rings (size 3 to 8) (size 9 to 14) (size 15 to 20)
#    0.000    1.000    3.636    4.091    0.000    6.545 
#    0.000    0.455    0.000    3.818    0.000    5.727 
#    0.000    0.000    0.000    0.000    0.000    0.000 
#
# Total GULP energy -545313.476488 kJ/mol
# GULP energy per Si atom -12393.488102 kJ/mol
# Density = 1.961275 g / cm^3
# Si number density = 19.657488 Si / 1000 Ang^3
#
#
#
# Elastic Constant Matrix: (Units=GPa)
#
#
# Indices 1 2 3 4 5 6 
#
# 1 83.2492 36.0029 20.4723 0.0000 0.0000 0.0000
# 2 36.0029 165.2694 25.4313 0.0000 0.0000 0.0000
# 3 20.4723 25.4313 89.6389 0.0000 0.0000 0.0000
# 4 0.0000 0.0000 0.0000 19.4332 0.0000 0.0000
# 5 0.0000 0.0000 0.0000 0.0000 9.6047 0.0000
# 6 0.0000 0.0000 0.0000 0.0000 0.0000 25.9851
#
#
#
# Elastic Compliance Matrix: (Units=1/GPa)
#
#
# Indices 1 2 3 4 5 6 
#
# 1 0.013735 -0.002624 -0.002392 0.000000 0.000000 0.000000
# 2 -0.002624 0.006828 -0.001338 0.000000 0.000000 0.000000
# 3 -0.002392 -0.001338 0.012082 0.000000 0.000000 0.000000
# 4 0.000000 0.000000 0.000000 0.051458 0.000000 0.000000
# 5 0.000000 0.000000 0.000000 0.000000 0.104116 0.000000
# 6 0.000000 0.000000 0.000000 0.000000 0.000000 0.038484
#
#
# Mechanical properties :
#
#
# Convention : Reuss Voigt Hill
#
# Bulk Modulus (GPa) = 50.15922 55.77451 52.96686
# Shear Modulus (GPa) = 20.32043 28.08799 24.20421
#
# Velocity S-wave (km/s) = 3.21865 3.78414 3.51279
# Velocity P-wave (km/s) = 6.27574 6.89403 6.59214
#
# Compressibility (1/GPa) = 0.01993651
#
# Stress axis : x y z
#
# Youngs Moduli (GPa) = 72.80515 146.45088 82.76861
#
# Poissons Ratio (x) = 0.38429 0.19802
# Poissons Ratio (y) = 0.19104 0.11074
# Poissons Ratio (z) = 0.17419 0.19594
#
# Static dielectric constant tensor:
#      x y z
#    x 3.475100 0.000000 0.000000 
#    y 0.000000 4.057430 0.000000 
#    z 0.000000 0.000000 3.752530 
# 
# 
# High freq. dielectric constant tensor:
#      x y z
#    x 1.720220 0.000000 0.000000 
#    y 0.000000 1.799150 0.000000 
#    z 0.000000 0.000000 1.764850 
# 
# From -- ./inp_files/32275.got.cif
#   From: 2010.03.12/outbox.cif.g09.slc.cpg/sg65_17_cif.got.tgz:32275.got - 2010.04.10 20:52:16.
