data_PCOD8272062
_publ_section_title
;
Structure prediction by ZEFSAII (Michael W. Deem and Ramdas Pophale) SiO2 
 PCOD8272062
Probable space group: C M M M
;
_chemical_formula_sum "Si O2"
_cell_formula_units_Z 120
_cell_length_a 17.541380
_cell_length_b 18.091175
_cell_length_c 19.987335
_cell_angle_alpha 90.000000
_cell_angle_beta 90.000000
_cell_angle_gamma 90.000000
_cell_volume 6342.864342
_symmetry_space_group_name_H-M "C M M M"
_symmetry_group_IT_number 65
_symmetry_cell_setting 'orthorhombic'
loop_
_space_group_symop_operation_xyz
x,y,z
-x,-y,z
x,-y,-z
-x,y,-z
-x,-y,-z
x,y,-z
-x,y,z
x,-y,z
1/2+x,1/2+y,z
1/2-x,1/2-y,z
1/2+x,1/2-y,-z
1/2-x,1/2+y,-z
1/2-x,1/2-y,-z
1/2+x,1/2+y,-z
1/2-x,1/2+y,z
1/2+x,1/2-y,z
loop_
_atom_site_type_symbol
_atom_site_label
_atom_site_fract_x
_atom_site_fract_y
_atom_site_fract_z
Si Si1 0.085898 0.617123 0.749645
Si Si2 0.203801 0.417883 0.358414
Si Si3 0.868346 0.150752 0.663391
Si Si4 0.500000 0.414641 0.575390
Si Si5 0.161435 0.264707 0.073781
Si Si6 0.913870 0.581749 0.898693
Si Si7 0.911559 0.222685 0.206391
Si Si8 0.164923 0.278040 0.428051
O O1 0.147220 0.576232 0.704021
O O2 0.085947 0.574599 0.819160
O O3 0.114909 0.700878 0.760220
O O4 0.000000 0.615109 0.718503
O O5 0.215431 0.500000 0.388266
O O6 0.285140 0.384479 0.337942
O O7 0.163936 0.365369 0.412911
O O8 0.925821 0.102607 0.619629
O O9 0.889884 0.156900 0.742077
O O10 0.875502 0.232541 0.630808
O O11 0.500000 0.500000 0.561942
O O12 0.500000 0.377462 0.500000
O O13 0.250000 0.250000 0.081692
O O14 0.142261 0.352593 0.078266
O O15 0.124343 0.215152 0.132462
O O16 0.134301 0.237405 0.000000
O O17 0.889095 0.500000 0.926394
O O18 0.000000 0.600618 0.923314
O O19 0.000000 0.223344 0.192795
O O20 0.123855 0.266052 0.500000
O O21 0.250000 0.250000 0.433999
#
# Coordination Sequence:
#
# PCOD8272062 Si02
#       8
#    16  16  16   8  16  16  16  16
#     4   9  18  33  53  81 112 144 186 232 285 344
#     4  11  22  33  53  82 113 149 188 241 294 345
#     4  11  21  37  58  86 114 148 199 238 291 357
#     4  11  24  42  64  90 124 154 184 247 316 356
#     4  10  22  36  54  84 123 158 193 242 300 358
#     4   9  18  33  55  82 114 151 191 237 292 355
#     4  10  20  35  59  84 108 150 199 244 281 333
#     4   9  19  35  54  75 104 144 187 230 276 343
#
# _framework density 18.918897000000001
#
# number of rings (size 3 to 8) (size 9 to 14) (size 15 to 20)
#    0.000    2.067    2.000    2.400    3.733    2.933 
#    0.000    0.667    0.000    0.000    0.000    0.933 
#    0.000    0.533    0.000    0.133    0.000    0.000 
#
# Total GULP energy -743421.272133 kJ/mol
# GULP energy per Si atom -12390.354536 kJ/mol
# Density = 1.887584 g / cm^3
# Si number density = 18.918897 Si / 1000 Ang^3
#
#
#
# Elastic Constant Matrix: (Units=GPa)
#
#
# Indices 1 2 3 4 5 6 
#
# 1 74.1334 29.1195 35.8681 0.0000 0.0000 0.0000
# 2 29.1195 92.7126 33.3070 0.0000 0.0000 0.0000
# 3 35.8681 33.3070 133.4906 0.0000 0.0000 0.0000
# 4 0.0000 0.0000 0.0000 11.0494 0.0000 0.0000
# 5 0.0000 0.0000 0.0000 0.0000 11.5850 0.0000
# 6 0.0000 0.0000 0.0000 0.0000 0.0000 24.1125
#
#
#
# Elastic Compliance Matrix: (Units=1/GPa)
#
#
# Indices 1 2 3 4 5 6 
#
# 1 0.016757 -0.004005 -0.003503 0.000000 0.000000 0.000000
# 2 -0.004005 0.012805 -0.002119 0.000000 0.000000 0.000000
# 3 -0.003503 -0.002119 0.008961 0.000000 0.000000 0.000000
# 4 0.000000 0.000000 0.000000 0.090502 0.000000 0.000000
# 5 0.000000 0.000000 0.000000 0.000000 0.086318 0.000000
# 6 0.000000 0.000000 0.000000 0.000000 0.000000 0.041472
#
#
# Mechanical properties :
#
#
# Convention : Reuss Voigt Hill
#
# Bulk Modulus (GPa) = 51.89517 55.21399 53.55458
# Shear Modulus (GPa) = 17.69953 22.81887 20.25920
#
# Velocity S-wave (km/s) = 3.06199 3.47672 3.27593
# Velocity P-wave (km/s) = 6.32384 6.73533 6.53283
#
# Compressibility (1/GPa) = 0.01926962
#
# Stress axis : x y z
#
# Youngs Moduli (GPa) = 59.67573 78.09438 111.59223
#
# Poissons Ratio (x) = 0.31273 0.39095
# Poissons Ratio (y) = 0.23898 0.23646
# Poissons Ratio (z) = 0.20907 0.16548
#
# Static dielectric constant tensor:
#      x y z
#    x 3.382740 0.000000 0.000000 
#    y 0.000000 3.442480 0.000000 
#    z 0.000000 0.000000 3.659020 
# 
# 
# High freq. dielectric constant tensor:
#      x y z
#    x 1.725080 0.000000 0.000000 
#    y 0.000000 1.718750 0.000000 
#    z 0.000000 0.000000 1.740160 
# 
# From -- ./inp_files/63989.got.cif
#   From: 2010.03.12/outbox.cif.g09.slc.cpg/sg65_32_cif.got.tgz:63989.got - 2010.04.10 20:52:16.
