data_PCOD8272015
_publ_section_title
;
Structure prediction by ZEFSAII (Michael W. Deem and Ramdas Pophale) SiO2 
 PCOD8272015
Probable space group: C M M M
;
_chemical_formula_sum "Si O2"
_cell_formula_units_Z 72
_cell_length_a 28.583598
_cell_length_b 7.715384
_cell_length_c 16.181435
_cell_angle_alpha 90.000000
_cell_angle_beta 90.000000
_cell_angle_gamma 90.000000
_cell_volume 3568.547438
_symmetry_space_group_name_H-M "C M M M"
_symmetry_group_IT_number 65
_symmetry_cell_setting 'orthorhombic'
loop_
_space_group_symop_operation_xyz
x,y,z
-x,-y,z
x,-y,-z
-x,y,-z
-x,-y,-z
x,y,-z
-x,y,z
x,-y,z
1/2+x,1/2+y,z
1/2-x,1/2-y,z
1/2+x,1/2-y,-z
1/2-x,1/2+y,-z
1/2-x,1/2-y,-z
1/2+x,1/2+y,-z
1/2-x,1/2+y,z
1/2+x,1/2-y,z
loop_
_atom_site_type_symbol
_atom_site_label
_atom_site_fract_x
_atom_site_fract_y
_atom_site_fract_z
Si Si1 0.947952 0.792499 0.500000
Si Si2 0.889343 0.197768 0.815189
Si Si3 0.300410 0.201362 0.904892
Si Si4 0.055283 0.500000 0.903384
Si Si5 0.303999 0.200971 0.500000
Si Si6 0.376897 0.298901 0.367916
O O1 0.920236 0.721191 0.420168
O O2 0.000000 0.714632 0.500000
O O3 0.948599 0.000000 0.500000
O O4 0.839455 0.187570 0.859470
O O5 0.924703 0.324731 0.862732
O O6 0.879410 0.279133 0.724074
O O7 0.909663 0.000000 0.813682
O O8 0.250000 0.250000 0.866496
O O9 0.311803 0.000000 0.892858
O O10 0.301037 0.257276 0.000000
O O11 0.000000 0.500000 0.890461
O O12 0.069161 0.500000 0.000000
O O13 0.250000 0.250000 0.500000
O O14 0.328098 0.270239 0.416112
O O15 0.310600 0.000000 0.500000
O O16 0.384317 0.500000 0.357263
#
# Coordination Sequence:
#
# PCOD8272015 Si02
#       6
#     8  16  16   8   8  16
#     4   8  14  30  57  83 110 144 182 232 294 352
#     4  11  23  40  65  92 126 169 212 267 324 381
#     4  10  20  35  57  87 122 158 200 252 311 374
#     4  11  26  46  66  91 127 169 217 276 337 399
#     4  11  22  36  60  86 123 174 211 251 306 368
#     4   9  20  37  57  86 122 156 202 253 302 365
#
# _framework density 20.176276999999999
#
# number of rings (size 3 to 8) (size 9 to 14) (size 15 to 20)
#    0.000    2.000    1.111    3.000    1.556    4.889 
#    0.000    3.333    0.000    1.333    0.000    0.000 
#    0.000    0.000    0.000    0.000    0.000    0.000 
#
# Total GULP energy -446287.983958 kJ/mol
# GULP energy per Si atom -12396.888443 kJ/mol
# Density = 2.013036 g / cm^3
# Si number density = 20.176277 Si / 1000 Ang^3
#
#
#
# Elastic Constant Matrix: (Units=GPa)
#
#
# Indices 1 2 3 4 5 6 
#
# 1 151.6361 23.6688 70.9437 0.0000 0.0000 0.0000
# 2 23.6688 73.6732 42.8743 0.0000 0.0000 0.0000
# 3 70.9437 42.8743 150.1958 0.0000 0.0000 0.0000
# 4 0.0000 0.0000 0.0000 21.4124 0.0000 0.0000
# 5 0.0000 0.0000 0.0000 0.0000 6.1181 0.0000
# 6 0.0000 0.0000 0.0000 0.0000 0.0000 25.9199
#
#
#
# Elastic Compliance Matrix: (Units=1/GPa)
#
#
# Indices 1 2 3 4 5 6 
#
# 1 0.008479 -0.000472 -0.003870 0.000000 0.000000 0.000000
# 2 -0.000472 0.016304 -0.004431 0.000000 0.000000 0.000000
# 3 -0.003870 -0.004431 0.009751 0.000000 0.000000 0.000000
# 4 0.000000 0.000000 0.000000 0.046702 0.000000 0.000000
# 5 0.000000 0.000000 0.000000 0.000000 0.163449 0.000000
# 6 0.000000 0.000000 0.000000 0.000000 0.000000 0.038580
#
#
# Mechanical properties :
#
#
# Convention : Reuss Voigt Hill
#
# Bulk Modulus (GPa) = 58.86736 72.27541 65.57138
# Shear Modulus (GPa) = 16.31459 26.55796 21.43627
#
# Velocity S-wave (km/s) = 2.84668 3.63202 3.26306
# Velocity P-wave (km/s) = 6.32808 7.31358 6.83861
#
# Compressibility (1/GPa) = 0.01698734
#
# Stress axis : x y z
#
# Youngs Moduli (GPa) = 117.93629 61.33565 102.55309
#
# Poissons Ratio (x) = 0.02893 0.39692
# Poissons Ratio (y) = 0.05563 0.45443
# Poissons Ratio (z) = 0.45646 0.27179
#
# Static dielectric constant tensor:
#      x y z
#    x 3.678400 0.000000 0.000000 
#    y 0.000000 3.527520 0.000000 
#    z 0.000000 0.000000 4.013210 
# 
# 
# High freq. dielectric constant tensor:
#      x y z
#    x 1.785740 0.000000 0.000000 
#    y 0.000000 1.785810 0.000000 
#    z 0.000000 0.000000 1.790920 
# 
# From -- ./inp_files/46554.got.cif
#   From: 2010.03.12/outbox.cif.g09.slc.cpg/sg65_24_cif.got.tgz:46554.got - 2010.04.10 20:52:16.
