data_PCOD8272209
_publ_section_title
;
Structure prediction by ZEFSAII (Michael W. Deem and Ramdas Pophale) SiO2 
 PCOD8272209
Probable space group: C M M M
;
_chemical_formula_sum "Si O2"
_cell_formula_units_Z 72
_cell_length_a 35.426854
_cell_length_b 13.836563
_cell_length_c 7.568216
_cell_angle_alpha 90.000000
_cell_angle_beta 90.000000
_cell_angle_gamma 90.000000
_cell_volume 3709.832751
_symmetry_space_group_name_H-M "C M M M"
_symmetry_group_IT_number 65
_symmetry_cell_setting 'orthorhombic'
loop_
_space_group_symop_operation_xyz
x,y,z
-x,-y,z
x,-y,-z
-x,y,-z
-x,-y,-z
x,y,-z
-x,y,z
x,-y,z
1/2+x,1/2+y,z
1/2-x,1/2-y,z
1/2+x,1/2-y,-z
1/2-x,1/2+y,-z
1/2-x,1/2-y,-z
1/2+x,1/2+y,-z
1/2-x,1/2+y,z
1/2+x,1/2-y,z
loop_
_atom_site_type_symbol
_atom_site_label
_atom_site_fract_x
_atom_site_fract_y
_atom_site_fract_z
Si Si1 0.171962 0.386090 0.300848
Si Si2 0.811120 0.886272 0.000000
Si Si3 0.867837 0.109034 0.700817
Si Si4 0.955484 0.388534 0.000000
Si Si5 0.227391 0.615462 0.000000
Si Si6 0.592336 0.203749 0.298436
O O1 0.182357 0.354458 0.500000
O O2 0.167419 0.500000 0.284084
O O3 0.132230 0.341467 0.241984
O O4 0.204884 0.347801 0.172562
O O5 0.833714 0.854962 0.824618
O O6 0.769488 0.837770 0.000000
O O7 0.805581 0.000000 0.000000
O O8 0.852742 0.115300 0.500000
O O9 0.903716 0.179933 0.725559
O O10 0.880817 0.000000 0.749371
O O11 0.940396 0.336398 0.175043
O O12 0.942753 0.500000 0.000000
O O13 0.000000 0.377934 0.000000
O O14 0.230071 0.500000 0.000000
O O15 0.581980 0.176473 0.500000
#
# Coordination Sequence:
#
# PCOD8272209 Si02
#       6
#    16   8  16   8   8  16
#     4   9  17  29  46  68  94 129 174 218 260 310
#     4   9  17  29  46  69  99 136 175 220 277 325
#     4   9  18  33  54  78 102 134 180 228 267 304
#     4  11  24  39  58  87 117 141 165 197 245 308
#     4   9  17  28  43  65  96 135 174 216 269 319
#     4  10  20  36  58  80 105 139 177 216 258 306
#
# _framework density 19.407883000000002
#
# number of rings (size 3 to 8) (size 9 to 14) (size 15 to 20)
#    0.000    2.556    0.000    2.000    0.000    3.556 
#    0.000    7.778    0.000    5.333    0.000    3.111 
#    0.000    0.000    0.000    0.000    0.000    0.000 
#
# Total GULP energy -446371.028591 kJ/mol
# GULP energy per Si atom -12399.195239 kJ/mol
# Density = 1.936371 g / cm^3
# Si number density = 19.407883 Si / 1000 Ang^3
#
#
#
# Elastic Constant Matrix: (Units=GPa)
#
#
# Indices 1 2 3 4 5 6 
#
# 1 92.1180 46.0464 65.0301 0.0000 0.0000 0.0000
# 2 46.0464 65.4066 37.4141 0.0000 0.0000 0.0000
# 3 65.0301 37.4141 126.6735 0.0000 0.0000 0.0000
# 4 0.0000 0.0000 0.0000 21.0127 0.0000 0.0000
# 5 0.0000 0.0000 0.0000 0.0000 8.8776 0.0000
# 6 0.0000 0.0000 0.0000 0.0000 0.0000 24.4622
#
#
#
# Elastic Compliance Matrix: (Units=1/GPa)
#
#
# Indices 1 2 3 4 5 6 
#
# 1 0.021987 -0.010856 -0.008081 0.000000 0.000000 0.000000
# 2 -0.010856 0.023758 -0.001444 0.000000 0.000000 0.000000
# 3 -0.008081 -0.001444 0.012469 0.000000 0.000000 0.000000
# 4 0.000000 0.000000 0.000000 0.047590 0.000000 0.000000
# 5 0.000000 0.000000 0.000000 0.000000 0.112643 0.000000
# 6 0.000000 0.000000 0.000000 0.000000 0.000000 0.040879
#
#
# Mechanical properties :
#
#
# Convention : Reuss Voigt Hill
#
# Bulk Modulus (GPa) = 57.30038 64.57550 60.93794
# Shear Modulus (GPa) = 16.34487 19.91765 18.13126
#
# Velocity S-wave (km/s) = 2.90518 3.20701 3.05982
# Velocity P-wave (km/s) = 6.39076 6.85991 6.62948
#
# Compressibility (1/GPa) = 0.01745189
#
# Stress axis : x y z
#
# Youngs Moduli (GPa) = 45.48130 42.09144 80.19768
#
# Poissons Ratio (x) = 0.45696 0.64807
# Poissons Ratio (y) = 0.49377 0.11578
# Poissons Ratio (z) = 0.36753 0.06077
#
# Static dielectric constant tensor:
#      x y z
#    x 3.270310 0.000000 0.000000 
#    y 0.000000 3.737640 0.000000 
#    z 0.000000 0.000000 4.298630 
# 
# 
# High freq. dielectric constant tensor:
#      x y z
#    x 1.711990 0.000000 0.000000 
#    y 0.000000 1.770110 0.000000 
#    z 0.000000 0.000000 1.769230 
# 
# From -- ./inp_files/15810.got.cif
#   From: 2010.03.12/outbox.cif.g09.slc.cpg/sg65_8_cif.got.tgz:15810.got - 2010.04.10 20:52:16.
