data_PCOD8272599
_publ_section_title
;
Structure prediction by ZEFSAII (Michael W. Deem and Ramdas Pophale) SiO2 
 PCOD8272599
Probable space group: C M M M
;
_chemical_formula_sum "Si O2"
_cell_formula_units_Z 80
_cell_length_a 9.566734
_cell_length_b 25.931141
_cell_length_c 20.178152
_cell_angle_alpha 90.000000
_cell_angle_beta 90.000000
_cell_angle_gamma 90.000000
_cell_volume 5005.721859
_symmetry_space_group_name_H-M "C M M M"
_symmetry_group_IT_number 65
_symmetry_cell_setting 'orthorhombic'
loop_
_space_group_symop_operation_xyz
x,y,z
-x,-y,z
x,-y,-z
-x,y,-z
-x,-y,-z
x,y,-z
-x,y,z
x,-y,z
1/2+x,1/2+y,z
1/2-x,1/2-y,z
1/2+x,1/2-y,-z
1/2-x,1/2+y,-z
1/2-x,1/2-y,-z
1/2+x,1/2+y,-z
1/2-x,1/2+y,z
1/2+x,1/2-y,z
loop_
_atom_site_type_symbol
_atom_site_label
_atom_site_fract_x
_atom_site_fract_y
_atom_site_fract_z
Si Si1 0.160928 0.938497 0.000000
Si Si2 0.500000 0.187252 0.420296
Si Si3 0.338460 0.939385 0.500000
Si Si4 0.000000 0.192753 0.577746
Si Si5 0.340185 0.061019 0.124172
Si Si6 0.336351 0.439692 0.747858
Si Si7 0.254177 0.623573 0.620370
O O1 0.247666 0.917558 0.936794
O O2 0.000000 0.917537 0.000000
O O3 0.155329 0.000000 0.000000
O O4 0.500000 0.177796 0.500000
O O5 0.500000 0.247383 0.404147
O O6 0.376664 0.160489 0.381428
O O7 0.500000 0.920098 0.500000
O O8 0.255487 0.919499 0.563639
O O9 0.331909 0.000000 0.500000
O O10 0.871677 0.165059 0.610070
O O11 0.000000 0.184604 0.500000
O O12 0.500000 0.083299 0.123747
O O13 0.256694 0.077479 0.189806
O O14 0.349191 0.000000 0.118894
O O15 0.500000 0.427742 0.760938
O O16 0.315885 0.500000 0.731811
O O17 0.275154 0.406507 0.688230
#
# Coordination Sequence:
#
# PCOD8272599 Si02
#       7
#     8   8   8   8  16  16  16
#     4   9  15  25  43  65  95 131 168 209 244 277
#     4  11  22  38  56  74  94 121 162 211 267 320
#     4  11  22  35  50  72  99 130 167 203 242 293
#     4  11  22  36  58  76  94 117 160 219 265 314
#     4   9  17  28  44  67  93 129 173 209 240 281
#     4  10  21  34  47  67  99 136 170 203 245 297
#     4  12  20  37  51  74  96 128 163 205 257 303
#
# _framework density 15.98171
#
# number of rings (size 3 to 8) (size 9 to 14) (size 15 to 20)
#    0.000    1.600    4.000    2.100    1.400    5.200 
#    0.000    0.500    0.000    0.000    0.000    0.000 
#    0.000    0.000    0.000    5.400    0.000    0.700 
#
# Total GULP energy -495731.493701 kJ/mol
# GULP energy per Si atom -12393.287343 kJ/mol
# Density = 1.594534 g / cm^3
# Si number density = 15.981710 Si / 1000 Ang^3
#
#
#
# Elastic Constant Matrix: (Units=GPa)
#
#
# Indices 1 2 3 4 5 6 
#
# 1 159.2733 46.7214 79.6318 0.0000 0.0000 0.0000
# 2 46.7214 73.3991 49.2901 0.0000 0.0000 0.0000
# 3 79.6318 49.2901 140.5156 0.0000 0.0000 0.0000
# 4 0.0000 0.0000 0.0000 4.4292 0.0000 0.0000
# 5 0.0000 0.0000 0.0000 0.0000 31.5120 0.0000
# 6 0.0000 0.0000 0.0000 0.0000 0.0000 30.4142
#
#
#
# Elastic Compliance Matrix: (Units=1/GPa)
#
#
# Indices 1 2 3 4 5 6 
#
# 1 0.009272 -0.003105 -0.004165 0.000000 0.000000 0.000000
# 2 -0.003105 0.018862 -0.004857 0.000000 0.000000 0.000000
# 3 -0.004165 -0.004857 0.011181 0.000000 0.000000 0.000000
# 4 0.000000 0.000000 0.000000 0.225774 0.000000 0.000000
# 5 0.000000 0.000000 0.000000 0.000000 0.031734 0.000000
# 6 0.000000 0.000000 0.000000 0.000000 0.000000 0.032879
#
#
# Mechanical properties :
#
#
# Convention : Reuss Voigt Hill
#
# Bulk Modulus (GPa) = 66.39788 80.49720 73.44754
# Shear Modulus (GPa) = 13.92850 26.44073 20.18462
#
# Velocity S-wave (km/s) = 2.95537 4.07189 3.55770
# Velocity P-wave (km/s) = 7.29945 8.51967 7.93305
#
# Compressibility (1/GPa) = 0.01506072
#
# Stress axis : x y z
#
# Youngs Moduli (GPa) = 107.85383 53.01661 89.43782
#
# Poissons Ratio (x) = 0.16460 0.37254
# Poissons Ratio (y) = 0.33485 0.43440
# Poissons Ratio (z) = 0.44925 0.25750
#
# Static dielectric constant tensor:
#      x y z
#    x 3.310580 0.000000 0.000000 
#    y 0.000000 2.791030 0.000000 
#    z 0.000000 0.000000 3.042890 
# 
# 
# High freq. dielectric constant tensor:
#      x y z
#    x 1.638980 0.000000 0.000000 
#    y 0.000000 1.575650 0.000000 
#    z 0.000000 0.000000 1.608320 
# 
# From -- ./inp_files/50011.got.cif
#   From: 2010.03.12/outbox.cif.g09.slc.cpg/sg65_26_cif.got.tgz:50011.got - 2010.04.10 20:52:16.
