data_PCOD8272360
_publ_section_title
;
Structure prediction by ZEFSAII (Michael W. Deem and Ramdas Pophale) SiO2 
 PCOD8272360
Probable space group: C M M M
;
_chemical_formula_sum "Si O2"
_cell_formula_units_Z 64
_cell_length_a 11.815057
_cell_length_b 35.905393
_cell_length_c 7.904050
_cell_angle_alpha 90.000000
_cell_angle_beta 90.000000
_cell_angle_gamma 90.000000
_cell_volume 3353.089801
_symmetry_space_group_name_H-M "C M M M"
_symmetry_group_IT_number 65
_symmetry_cell_setting 'orthorhombic'
loop_
_space_group_symop_operation_xyz
x,y,z
-x,-y,z
x,-y,-z
-x,y,-z
-x,-y,-z
x,y,-z
-x,y,z
x,-y,z
1/2+x,1/2+y,z
1/2-x,1/2-y,z
1/2+x,1/2-y,-z
1/2-x,1/2+y,-z
1/2-x,1/2-y,-z
1/2+x,1/2+y,-z
1/2-x,1/2+y,z
1/2+x,1/2-y,z
loop_
_atom_site_type_symbol
_atom_site_label
_atom_site_fract_x
_atom_site_fract_y
_atom_site_fract_z
Si Si1 0.870994 0.829607 0.187986
Si Si2 0.804584 0.905574 0.309593
Si Si3 0.500000 0.458217 0.298084
Si Si4 0.863280 0.223874 0.500000
Si Si5 0.130474 0.540992 0.803985
O O1 0.797247 0.867017 0.207291
O O2 0.842754 0.799324 0.329595
O O3 0.000000 0.842576 0.208179
O O4 0.847936 0.812745 0.000000
O O5 0.839514 0.895013 0.500000
O O6 0.892110 0.935300 0.230180
O O7 0.684569 0.926179 0.306145
O O8 0.500000 0.500000 0.221031
O O9 0.500000 0.460631 0.500000
O O10 0.750000 0.250000 0.500000
O O11 0.000000 0.238720 0.500000
O O12 0.179553 0.500000 0.756116
O O13 0.000000 0.541513 0.759274
O O14 0.152265 0.549357 0.000000
#
# Coordination Sequence:
#
# PCOD8272360 Si02
#       5
#    16  16   8   8  16
#     4  10  20  36  61  90 120 156 192 231 285 352
#     4  11  19  31  53  78 110 146 191 241 288 341
#     4   9  18  28  43  73 113 150 185 237 294 331
#     4  10  22  42  68  96 126 157 192 238 291 360
#     4   9  19  35  50  66  98 146 198 251 301 347
#
# _framework density 19.086874000000002
#
# number of rings (size 3 to 8) (size 9 to 14) (size 15 to 20)
#    0.000    2.125    2.500    2.250    0.000    2.500 
#    0.000    2.500    0.000    4.500    0.000    0.000 
#    0.000    0.000    0.000    0.000    0.000    0.000 
#
# Total GULP energy -396464.353327 kJ/mol
# GULP energy per Si atom -12389.511041 kJ/mol
# Density = 1.904343 g / cm^3
# Si number density = 19.086874 Si / 1000 Ang^3
#
#
#
# Elastic Constant Matrix: (Units=GPa)
#
#
# Indices 1 2 3 4 5 6 
#
# 1 75.8683 51.7956 27.5853 0.0000 0.0000 0.0000
# 2 51.7956 105.7773 48.1439 0.0000 0.0000 0.0000
# 3 27.5853 48.1439 95.5361 0.0000 0.0000 0.0000
# 4 0.0000 0.0000 0.0000 23.2506 0.0000 0.0000
# 5 0.0000 0.0000 0.0000 0.0000 19.2638 0.0000
# 6 0.0000 0.0000 0.0000 0.0000 0.0000 30.1331
#
#
#
# Elastic Compliance Matrix: (Units=1/GPa)
#
#
# Indices 1 2 3 4 5 6 
#
# 1 0.019886 -0.009244 -0.001083 0.000000 0.000000 0.000000
# 2 -0.009244 0.016565 -0.005678 0.000000 0.000000 0.000000
# 3 -0.001083 -0.005678 0.013642 0.000000 0.000000 0.000000
# 4 0.000000 0.000000 0.000000 0.043010 0.000000 0.000000
# 5 0.000000 0.000000 0.000000 0.000000 0.051911 0.000000
# 6 0.000000 0.000000 0.000000 0.000000 0.000000 0.033186
#
#
# Mechanical properties :
#
#
# Convention : Reuss Voigt Hill
#
# Bulk Modulus (GPa) = 55.30918 59.13680 57.22299
# Shear Modulus (GPa) = 23.12269 24.50663 23.81466
#
# Velocity S-wave (km/s) = 3.48436 3.58711 3.53611
# Velocity P-wave (km/s) = 6.72519 6.94311 6.83502
#
# Compressibility (1/GPa) = 0.01808018
#
# Stress axis : x y z
#
# Youngs Moduli (GPa) = 50.28723 60.36837 73.30514
#
# Poissons Ratio (x) = 0.55807 0.07941
# Poissons Ratio (y) = 0.46487 0.41626
# Poissons Ratio (z) = 0.05448 0.34280
#
# Static dielectric constant tensor:
#      x y z
#    x 3.506250 0.000000 0.000000 
#    y 0.000000 3.311690 0.000000 
#    z 0.000000 0.000000 3.454510 
# 
# 
# High freq. dielectric constant tensor:
#      x y z
#    x 1.727950 0.000000 0.000000 
#    y 0.000000 1.720580 0.000000 
#    z 0.000000 0.000000 1.743490 
# 
# From -- ./inp_files/4888.got.cif
#   From: 2010.03.12/outbox.cif.g09.slc.cpg/sg65_3_cif.got.tgz:4888.got - 2010.04.10 20:52:16.
