data_PCOD8272801
_publ_section_title
;
Structure prediction by ZEFSAII (Michael W. Deem and Ramdas Pophale) SiO2 
 PCOD8272801
Probable space group: C M M M
;
_chemical_formula_sum "Si O2"
_cell_formula_units_Z 72
_cell_length_a 15.011351
_cell_length_b 29.053781
_cell_length_c 8.911453
_cell_angle_alpha 90.000000
_cell_angle_beta 90.000000
_cell_angle_gamma 90.000000
_cell_volume 3886.609961
_symmetry_space_group_name_H-M "C M M M"
_symmetry_group_IT_number 65
_symmetry_cell_setting 'orthorhombic'
loop_
_space_group_symop_operation_xyz
x,y,z
-x,-y,z
x,-y,-z
-x,y,-z
-x,-y,-z
x,y,-z
-x,y,z
x,-y,z
1/2+x,1/2+y,z
1/2-x,1/2-y,z
1/2+x,1/2-y,-z
1/2-x,1/2+y,-z
1/2-x,1/2-y,-z
1/2+x,1/2+y,-z
1/2-x,1/2+y,z
1/2+x,1/2-y,z
loop_
_atom_site_type_symbol
_atom_site_label
_atom_site_fract_x
_atom_site_fract_y
_atom_site_fract_z
Si Si1 0.603189 0.301484 0.674863
Si Si2 0.601624 0.206800 0.826947
Si Si3 0.180592 0.052461 0.677071
Si Si4 0.251922 0.363591 0.823882
Si Si5 0.500000 0.445600 0.832482
O O1 0.624719 0.306479 0.500000
O O2 0.500000 0.311515 0.710859
O O3 0.628722 0.250107 0.726040
O O4 0.660625 0.337543 0.767188
O O5 0.500000 0.191697 0.798023
O O6 0.663312 0.164215 0.779375
O O7 0.617514 0.220580 0.000000
O O8 0.176368 0.057061 0.500000
O O9 0.255459 0.086362 0.744646
O O10 0.086833 0.070481 0.742509
O O11 0.201996 0.000000 0.725665
O O12 0.259523 0.371201 0.000000
O O13 0.500000 0.500000 0.842516
O O14 0.500000 0.424135 0.000000
#
# Coordination Sequence:
#
# PCOD8272801 Si02
#       5
#    16  16  16  16   8
#     4  10  21  35  52  77 110 144 175 211 258 314
#     4   9  19  37  57  77 104 137 175 220 269 317
#     4  10  21  36  53  74 104 140 175 215 262 310
#     4  11  22  34  54  80 105 138 178 220 264 313
#     4   9  17  31  51  73  99 133 171 209 251 303
#
# _framework density 18.52514
#
# number of rings (size 3 to 8) (size 9 to 14) (size 15 to 20)
#    0.000    2.111    0.000    3.000    1.556    8.444 
#    0.000    0.000    0.000    0.667    0.000    4.667 
#    0.000    0.000    0.000    0.000    0.000    0.000 
#
# Total GULP energy -446490.750917 kJ/mol
# GULP energy per Si atom -12402.520859 kJ/mol
# Density = 1.848298 g / cm^3
# Si number density = 18.525140 Si / 1000 Ang^3
#
#
#
# Elastic Constant Matrix: (Units=GPa)
#
#
# Indices 1 2 3 4 5 6 
#
# 1 63.3490 53.8187 30.9485 0.0000 0.0000 0.0000
# 2 53.8187 113.1486 41.4440 0.0000 0.0000 0.0000
# 3 30.9485 41.4440 75.1407 0.0000 0.0000 0.0000
# 4 0.0000 0.0000 0.0000 34.5338 0.0000 0.0000
# 5 0.0000 0.0000 0.0000 0.0000 22.5605 0.0000
# 6 0.0000 0.0000 0.0000 0.0000 0.0000 28.7730
#
#
#
# Elastic Compliance Matrix: (Units=1/GPa)
#
#
# Indices 1 2 3 4 5 6 
#
# 1 0.028055 -0.011419 -0.005257 0.000000 0.000000 0.000000
# 2 -0.011419 0.015723 -0.003969 0.000000 0.000000 0.000000
# 3 -0.005257 -0.003969 0.017663 0.000000 0.000000 0.000000
# 4 0.000000 0.000000 0.000000 0.028957 0.000000 0.000000
# 5 0.000000 0.000000 0.000000 0.000000 0.044325 0.000000
# 6 0.000000 0.000000 0.000000 0.000000 0.000000 0.034755
#
#
# Mechanical properties :
#
#
# Convention : Reuss Voigt Hill
#
# Bulk Modulus (GPa) = 49.62520 56.00674 52.81597
# Shear Modulus (GPa) = 22.99025 25.53526 24.26276
#
# Velocity S-wave (km/s) = 3.52665 3.71672 3.62293
# Velocity P-wave (km/s) = 6.59008 6.97977 6.78772
#
# Compressibility (1/GPa) = 0.02015105
#
# Stress axis : x y z
#
# Youngs Moduli (GPa) = 35.64482 63.60163 56.61648
#
# Poissons Ratio (x) = 0.72624 0.29764
# Poissons Ratio (y) = 0.40701 0.22471
# Poissons Ratio (z) = 0.18739 0.25243
#
# Static dielectric constant tensor:
#      x y z
#    x 3.353680 0.000000 0.000000 
#    y 0.000000 3.504260 0.000000 
#    z 0.000000 0.000000 3.490730 
# 
# 
# High freq. dielectric constant tensor:
#      x y z
#    x 1.696890 0.000000 0.000000 
#    y 0.000000 1.718420 0.000000 
#    z 0.000000 0.000000 1.729950 
# 
# From -- ./inp_files/7200.got.cif
#   From: 2010.03.12/outbox.cif.g09.slc.cpg/sg65_4_cif.got.tgz:7200.got - 2010.04.10 20:52:16.
