data_PCOD8272323
_publ_section_title
;
Structure prediction by ZEFSAII (Michael W. Deem and Ramdas Pophale) SiO2 
 PCOD8272323
Probable space group: C M M M
;
_chemical_formula_sum "Si O2"
_cell_formula_units_Z 88
_cell_length_a 9.121165
_cell_length_b 25.703700
_cell_length_c 20.519780
_cell_angle_alpha 90.000000
_cell_angle_beta 90.000000
_cell_angle_gamma 90.000000
_cell_volume 4810.814996
_symmetry_space_group_name_H-M "C M M M"
_symmetry_group_IT_number 65
_symmetry_cell_setting 'orthorhombic'
loop_
_space_group_symop_operation_xyz
x,y,z
-x,-y,z
x,-y,-z
-x,y,-z
-x,-y,-z
x,y,-z
-x,y,z
x,-y,z
1/2+x,1/2+y,z
1/2-x,1/2-y,z
1/2+x,1/2-y,-z
1/2-x,1/2+y,-z
1/2-x,1/2-y,-z
1/2+x,1/2+y,-z
1/2-x,1/2+y,z
1/2+x,1/2-y,z
loop_
_atom_site_type_symbol
_atom_site_label
_atom_site_fract_x
_atom_site_fract_y
_atom_site_fract_z
Si Si1 0.173981 0.000000 0.356613
Si Si2 0.328429 0.198447 0.350878
Si Si3 0.671134 0.904544 0.872590
Si Si4 0.328507 0.801442 0.797941
Si Si5 0.830710 0.405033 0.423302
Si Si6 0.330298 0.000000 0.779701
Si Si7 0.826366 0.940349 0.000000
O O1 0.230738 0.949496 0.393674
O O2 0.228917 0.000000 0.282973
O O3 0.000000 0.000000 0.357259
O O4 0.500000 0.207949 0.357202
O O5 0.250000 0.250000 0.377981
O O6 0.281046 0.187384 0.276421
O O7 0.277788 0.149722 0.393936
O O8 0.500000 0.905711 0.890817
O O9 0.720008 0.850129 0.841325
O O10 0.708802 0.949444 0.821425
O O11 0.765022 0.911397 0.937138
O O12 0.500000 0.791828 0.802771
O O13 0.250000 0.750000 0.825324
O O14 0.807790 0.403341 0.500000
O O15 0.000000 0.416068 0.404753
O O16 0.500000 0.000000 0.757991
O O17 0.000000 0.936517 0.000000
O O18 0.772324 0.000000 0.000000
#
# Coordination Sequence:
#
# PCOD8272323 Si02
#       7
#     8  16  16  16  16   8   8
#     4  12  25  37  53  80 112 143 179 231 286 331
#     4   9  18  34  56  82 111 140 178 226 277 328
#     4  10  20  36  60  84 107 143 189 225 260 315
#     4   9  18  33  54  80 108 140 178 223 269 318
#     4  10  21  38  58  77 104 147 191 227 270 332
#     4  10  20  36  60  84 107 138 180 229 272 324
#     4  11  23  37  54  81 120 151 174 216 275 328
#
# _framework density 18.292119
#
# number of rings (size 3 to 8) (size 9 to 14) (size 15 to 20)
#    0.000    2.091    0.909    2.455    0.000    7.273 
#    0.000    4.091    0.000    0.000    0.000    0.000 
#    0.000    0.000    0.000    0.000    0.000    0.000 
#
# Total GULP energy -545780.014685 kJ/mol
# GULP energy per Si atom -12404.091243 kJ/mol
# Density = 1.825049 g / cm^3
# Si number density = 18.292119 Si / 1000 Ang^3
#
#
#
# Elastic Constant Matrix: (Units=GPa)
#
#
# Indices 1 2 3 4 5 6 
#
# 1 73.2437 71.4861 59.3114 0.0000 0.0000 0.0000
# 2 71.4861 176.5217 86.1956 0.0000 0.0000 0.0000
# 3 59.3114 86.1956 117.1309 0.0000 0.0000 0.0000
# 4 0.0000 0.0000 0.0000 48.5523 0.0000 0.0000
# 5 0.0000 0.0000 0.0000 0.0000 15.4251 0.0000
# 6 0.0000 0.0000 0.0000 0.0000 0.0000 33.9190
#
#
#
# Elastic Compliance Matrix: (Units=1/GPa)
#
#
# Indices 1 2 3 4 5 6 
#
# 1 0.027505 -0.006771 -0.008945 0.000000 0.000000 0.000000
# 2 -0.006771 0.010509 -0.004305 0.000000 0.000000 0.000000
# 3 -0.008945 -0.004305 0.016235 0.000000 0.000000 0.000000
# 4 0.000000 0.000000 0.000000 0.020596 0.000000 0.000000
# 5 0.000000 0.000000 0.000000 0.000000 0.064829 0.000000
# 6 0.000000 0.000000 0.000000 0.000000 0.000000 0.029482
#
#
# Mechanical properties :
#
#
# Convention : Reuss Voigt Hill
#
# Bulk Modulus (GPa) = 70.38669 88.98693 79.68681
# Shear Modulus (GPa) = 23.37166 29.57283 26.47224
#
# Velocity S-wave (km/s) = 3.57836 4.02518 3.80833
# Velocity P-wave (km/s) = 7.45893 8.38785 7.93699
#
# Compressibility (1/GPa) = 0.01420723
#
# Stress axis : x y z
#
# Youngs Moduli (GPa) = 36.35716 95.15484 61.59528
#
# Poissons Ratio (x) = 0.64428 0.55097
# Poissons Ratio (y) = 0.24617 0.26517
# Poissons Ratio (z) = 0.32522 0.40965
#
# Static dielectric constant tensor:
#      x y z
#    x 3.264020 0.000000 0.000000 
#    y 0.000000 3.563970 0.000000 
#    z 0.000000 0.000000 3.370270 
# 
# 
# High freq. dielectric constant tensor:
#      x y z
#    x 1.699040 0.000000 0.000000 
#    y 0.000000 1.721480 0.000000 
#    z 0.000000 0.000000 1.709860 
# 
# From -- ./inp_files/59885.got.cif
#   From: 2010.03.12/outbox.cif.g09.slc.cpg/sg65_30_cif.got.tgz:59885.got - 2010.04.10 20:52:16.
