data_PCOD8272724
_publ_section_title
;
Structure prediction by ZEFSAII (Michael W. Deem and Ramdas Pophale) SiO2 
 PCOD8272724
Probable space group: C M M M
;
_chemical_formula_sum "Si O2"
_cell_formula_units_Z 80
_cell_length_a 18.300357
_cell_length_b 9.119613
_cell_length_c 26.058563
_cell_angle_alpha 90.000000
_cell_angle_beta 90.000000
_cell_angle_gamma 90.000000
_cell_volume 4348.970220
_symmetry_space_group_name_H-M "C M M M"
_symmetry_group_IT_number 65
_symmetry_cell_setting 'orthorhombic'
loop_
_space_group_symop_operation_xyz
x,y,z
-x,-y,z
x,-y,-z
-x,y,-z
-x,-y,-z
x,y,-z
-x,y,z
x,-y,z
1/2+x,1/2+y,z
1/2-x,1/2-y,z
1/2+x,1/2-y,-z
1/2-x,1/2+y,-z
1/2-x,1/2-y,-z
1/2+x,1/2+y,-z
1/2-x,1/2+y,z
1/2+x,1/2-y,z
loop_
_atom_site_type_symbol
_atom_site_label
_atom_site_fract_x
_atom_site_fract_y
_atom_site_fract_z
Si Si1 0.587127 0.334043 0.000000
Si Si2 0.912833 0.834148 0.200110
Si Si3 0.584497 0.329123 0.599548
Si Si4 0.672979 0.327060 0.500000
Si Si5 0.412963 0.834428 0.299614
Si Si6 0.912882 0.665919 0.100053
O O1 0.617073 0.250460 0.949873
O O2 0.617134 0.500000 0.000000
O O3 0.500000 0.334542 0.000000
O O4 0.882091 0.753990 0.250772
O O5 0.883007 0.748351 0.150419
O O6 0.000000 0.833724 0.200331
O O7 0.882985 0.000000 0.198931
O O8 0.500000 0.292821 0.589247
O O9 0.595656 0.500000 0.610920
O O10 0.628576 0.276018 0.549944
O O11 0.615448 0.241231 0.648400
O O12 0.684180 0.500000 0.500000
O O13 0.750000 0.250000 0.500000
O O14 0.500000 0.831603 0.298511
O O15 0.383105 0.000000 0.297333
O O16 0.882854 0.500000 0.099696
O O17 0.000000 0.665457 0.099987
#
# Coordination Sequence:
#
# PCOD8272724 Si02
#       6
#     8  16  16   8  16  16
#     4   9  15  21  27  35  49  73 109 151 194 243
#     4   9  15  22  32  46  65  90 119 153 197 248
#     4   9  17  31  50  69  89 116 150 184 218 260
#     4  10  21  35  51  71  95 122 150 182 220 262
#     4   9  16  25  38  58  81 102 127 164 210 255
#     4   9  15  21  28  38  54  78 110 151 198 244
#
# _framework density 18.395159
#
# number of rings (size 3 to 8) (size 9 to 14) (size 15 to 20)
#    0.000    2.900    0.000    2.400    0.000   10.400 
#    0.000    0.000    0.000    3.000    0.000    0.000 
#    0.000    0.000    0.000    0.000    0.000    0.000 
#
# Total GULP energy -495970.490003 kJ/mol
# GULP energy per Si atom -12399.262250 kJ/mol
# Density = 1.835329 g / cm^3
# Si number density = 18.395159 Si / 1000 Ang^3
#
#
#
# Elastic Constant Matrix: (Units=GPa)
#
#
# Indices 1 2 3 4 5 6 
#
# 1 21.8339 19.7501 28.5861 0.0000 0.0000 0.0000
# 2 19.7501 160.0642 109.6619 0.0000 0.0000 0.0000
# 3 28.5861 109.6619 216.0799 0.0000 0.0000 0.0000
# 4 0.0000 0.0000 0.0000 37.2513 0.0000 0.0000
# 5 0.0000 0.0000 0.0000 0.0000 0.1417 0.0000
# 6 0.0000 0.0000 0.0000 0.0000 0.0000 10.7106
#
#
#
# Elastic Compliance Matrix: (Units=1/GPa)
#
#
# Indices 1 2 3 4 5 6 
#
# 1 0.056215 -0.002823 -0.006004 0.000000 0.000000 0.000000
# 2 -0.002823 0.009719 -0.004559 0.000000 0.000000 0.000000
# 3 -0.006004 -0.004559 0.007736 0.000000 0.000000 0.000000
# 4 0.000000 0.000000 0.000000 0.026845 0.000000 0.000000
# 5 0.000000 0.000000 0.000000 0.000000 7.055957 0.000000
# 6 0.000000 0.000000 0.000000 0.000000 0.000000 0.093366
#
#
# Mechanical properties :
#
#
# Convention : Reuss Voigt Hill
#
# Bulk Modulus (GPa) = 21.32292 79.33047 50.32669
# Shear Modulus (GPa) = 0.68566 25.61937 13.15252
#
# Velocity S-wave (km/s) = 0.61119 3.73597 2.67685
# Velocity P-wave (km/s) = 3.48064 7.86316 6.08047
#
# Compressibility (1/GPa) = 0.04689789
#
# Stress axis : x y z
#
# Youngs Moduli (GPa) = 17.78889 102.88763 129.26403
#
# Poissons Ratio (x) = 0.29040 0.77616
# Poissons Ratio (y) = 0.05021 0.58934
# Poissons Ratio (z) = 0.10681 0.46909
#
# Static dielectric constant tensor:
#      x y z
#    x 2.542840 0.000000 0.000000 
#    y 0.000000 3.557480 0.000000 
#    z 0.000000 0.000000 3.669360 
# 
# 
# High freq. dielectric constant tensor:
#      x y z
#    x 1.619450 0.000000 0.000000 
#    y 0.000000 1.725900 0.000000 
#    z 0.000000 0.000000 1.735460 
# 
# From -- ./inp_files/75053.got.cif
#   From: 2010.03.12/outbox.cif.g09.slc.cpg/sg65_38_cif.got.tgz:75053.got - 2010.04.10 20:52:16.
