data_PCOD8272390
_publ_section_title
;
Structure prediction by ZEFSAII (Michael W. Deem and Ramdas Pophale) SiO2 
 PCOD8272390
Probable space group: C M M M
;
_chemical_formula_sum "Si O2"
_cell_formula_units_Z 48
_cell_length_a 14.514476
_cell_length_b 8.486449
_cell_length_c 19.368482
_cell_angle_alpha 90.000000
_cell_angle_beta 90.000000
_cell_angle_gamma 90.000000
_cell_volume 2385.739118
_symmetry_space_group_name_H-M "C M M M"
_symmetry_group_IT_number 65
_symmetry_cell_setting 'orthorhombic'
loop_
_space_group_symop_operation_xyz
x,y,z
-x,-y,z
x,-y,-z
-x,y,-z
-x,-y,-z
x,y,-z
-x,y,z
x,-y,z
1/2+x,1/2+y,z
1/2-x,1/2-y,z
1/2+x,1/2-y,-z
1/2-x,1/2+y,-z
1/2-x,1/2-y,-z
1/2+x,1/2+y,-z
1/2-x,1/2+y,z
1/2+x,1/2-y,z
loop_
_atom_site_type_symbol
_atom_site_label
_atom_site_fract_x
_atom_site_fract_y
_atom_site_fract_z
Si Si1 0.500000 0.182547 0.250047
Si Si2 0.646728 0.813963 0.500000
Si Si3 0.353062 0.313068 0.149088
Si Si4 0.850163 0.183482 0.000000
Si Si5 0.500000 0.683927 0.600533
O O1 0.409662 0.223232 0.206844
O O2 0.500000 0.286103 0.318487
O O3 0.500000 0.000000 0.270183
O O4 0.750000 0.750000 0.500000
O O5 0.592431 0.757284 0.567947
O O6 0.650765 0.000000 0.500000
O O7 0.356908 0.500000 0.162247
O O8 0.250000 0.250000 0.153991
O O9 0.397571 0.269216 0.073091
O O10 0.750000 0.250000 0.000000
O O11 0.837631 0.000000 0.000000
O O12 0.500000 0.500000 0.584756
#
# Coordination Sequence:
#
# PCOD8272390 Si02
#       5
#     8   8  16   8   8
#     4  12  25  40  57  84 119 158 197 240 291 348
#     4  11  22  41  68  98 126 157 192 231 278 336
#     4  10  20  37  58  83 113 151 195 245 298 353
#     4   8  16  31  54  79 108 144 190 243 296 347
#     4  11  23  42  64  91 123 156 194 241 287 338
#
# _framework density 20.11955
#
# number of rings (size 3 to 8) (size 9 to 14) (size 15 to 20)
#    0.000    1.667    0.000    6.500    0.000    3.333 
#    0.000   10.000    0.000    0.000    0.000    0.000 
#    0.000    0.000    0.000    0.000    0.000    0.000 
#
# Total GULP energy -297427.634926 kJ/mol
# GULP energy per Si atom -12392.818122 kJ/mol
# Density = 2.007376 g / cm^3
# Si number density = 20.119550 Si / 1000 Ang^3
#
#
#
# Elastic Constant Matrix: (Units=GPa)
#
#
# Indices 1 2 3 4 5 6 
#
# 1 127.5464 40.3732 54.4209 0.0000 0.0000 0.0000
# 2 40.3732 114.5728 32.0861 0.0000 0.0000 0.0000
# 3 54.4209 32.0861 147.3905 0.0000 0.0000 0.0000
# 4 0.0000 0.0000 0.0000 31.3426 0.0000 0.0000
# 5 0.0000 0.0000 0.0000 0.0000 26.0961 0.0000
# 6 0.0000 0.0000 0.0000 0.0000 0.0000 34.3071
#
#
#
# Elastic Compliance Matrix: (Units=1/GPa)
#
#
# Indices 1 2 3 4 5 6 
#
# 1 0.010011 -0.002654 -0.003119 0.000000 0.000000 0.000000
# 2 -0.002654 0.009999 -0.001197 0.000000 0.000000 0.000000
# 3 -0.003119 -0.001197 0.008197 0.000000 0.000000 0.000000
# 4 0.000000 0.000000 0.000000 0.031905 0.000000 0.000000
# 5 0.000000 0.000000 0.000000 0.000000 0.038320 0.000000
# 6 0.000000 0.000000 0.000000 0.000000 0.000000 0.029149
#
#
# Mechanical properties :
#
#
# Convention : Reuss Voigt Hill
#
# Bulk Modulus (GPa) = 70.09025 71.47445 70.78235
# Shear Modulus (GPa) = 34.18223 35.85779 35.02001
#
# Velocity S-wave (km/s) = 4.12631 4.22623 4.17657
# Velocity P-wave (km/s) = 7.59042 7.70822 7.64955
#
# Compressibility (1/GPa) = 0.01426732
#
# Stress axis : x y z
#
# Youngs Moduli (GPa) = 99.88911 100.01481 122.00122
#
# Poissons Ratio (x) = 0.26548 0.38047
# Poissons Ratio (y) = 0.26514 0.14598
# Poissons Ratio (z) = 0.31151 0.11967
#
# Static dielectric constant tensor:
#      x y z
#    x 3.309270 0.000000 0.000000 
#    y 0.000000 3.802240 0.000000 
#    z 0.000000 0.000000 4.026950 
# 
# 
# High freq. dielectric constant tensor:
#      x y z
#    x 1.779290 0.000000 0.000000 
#    y 0.000000 1.798860 0.000000 
#    z 0.000000 0.000000 1.798330 
# 
# From -- ./inp_files/52343.got.cif
#   From: 2010.03.12/outbox.cif.g09.slc.cpg/sg65_27_cif.got.tgz:52343.got - 2010.04.10 20:52:16.
