data_PCOD8272501
_publ_section_title
;
Structure prediction by ZEFSAII (Michael W. Deem and Ramdas Pophale) SiO2 
 PCOD8272501
Probable space group: C M M M
;
_chemical_formula_sum "Si O2"
_cell_formula_units_Z 72
_cell_length_a 16.132610
_cell_length_b 7.663252
_cell_length_c 28.399489
_cell_angle_alpha 90.000000
_cell_angle_beta 90.000000
_cell_angle_gamma 90.000000
_cell_volume 3510.979292
_symmetry_space_group_name_H-M "C M M M"
_symmetry_group_IT_number 65
_symmetry_cell_setting 'orthorhombic'
loop_
_space_group_symop_operation_xyz
x,y,z
-x,-y,z
x,-y,-z
-x,y,-z
-x,-y,-z
x,y,-z
-x,y,z
x,-y,z
1/2+x,1/2+y,z
1/2-x,1/2-y,z
1/2+x,1/2-y,-z
1/2-x,1/2+y,-z
1/2-x,1/2-y,-z
1/2+x,1/2+y,-z
1/2-x,1/2+y,z
1/2+x,1/2-y,z
loop_
_atom_site_type_symbol
_atom_site_label
_atom_site_fract_x
_atom_site_fract_y
_atom_site_fract_z
Si Si1 0.658113 0.794725 0.783189
Si Si2 0.000000 0.708498 0.946713
Si Si3 0.401428 0.806474 0.447426
Si Si4 0.341934 0.795971 0.109650
Si Si5 0.099518 0.000000 0.382687
Si Si6 0.907903 0.000000 0.279776
O O1 0.750000 0.750000 0.766564
O O2 0.646898 0.729567 0.836985
O O3 0.601751 0.676456 0.750345
O O4 0.637236 0.000000 0.777068
O O5 0.083519 0.784074 0.921811
O O6 0.000000 0.500000 0.945167
O O7 0.000000 0.777736 0.000000
O O8 0.370422 0.756926 0.500000
O O9 0.500000 0.802177 0.446902
O O10 0.365437 0.670203 0.409608
O O11 0.369953 0.000000 0.433569
O O12 0.250000 0.750000 0.089959
O O13 0.351803 0.000000 0.108887
O O14 0.140055 0.000000 0.329854
O O15 0.000000 0.000000 0.383781
O O16 0.000000 0.000000 0.297790
#
# Coordination Sequence:
#
# PCOD8272501 Si02
#       6
#    16   8  16  16   8   8
#     4  10  20  38  60  80 108 146 193 239 280 340
#     4   9  18  34  55  81 115 149 181 223 279 346
#     4   8  13  22  39  61  89 135 184 220 264 329
#     4   9  19  34  55  82 105 141 188 230 283 338
#     4   9  17  28  39  62 106 139 171 218 283 340
#     4  11  24  35  52  87 115 149 186 234 298 342
#
# _framework density 20.507097999999999
#
# number of rings (size 3 to 8) (size 9 to 14) (size 15 to 20)
#    0.000    2.778    1.111    1.000    3.111    3.111 
#    0.000    2.778    0.000    0.667    0.000    0.000 
#    0.000    3.556    0.000    0.000    0.000    0.000 
#
# Total GULP energy -446086.801878 kJ/mol
# GULP energy per Si atom -12391.300052 kJ/mol
# Density = 2.046042 g / cm^3
# Si number density = 20.507098 Si / 1000 Ang^3
#
#
#
# Elastic Constant Matrix: (Units=GPa)
#
#
# Indices 1 2 3 4 5 6 
#
# 1 79.0423 20.7041 53.3113 0.0000 0.0000 0.0000
# 2 20.7041 102.9395 63.5649 0.0000 0.0000 0.0000
# 3 53.3113 63.5649 147.3019 0.0000 0.0000 0.0000
# 4 0.0000 0.0000 0.0000 21.9859 0.0000 0.0000
# 5 0.0000 0.0000 0.0000 0.0000 18.9345 0.0000
# 6 0.0000 0.0000 0.0000 0.0000 0.0000 16.0069
#
#
#
# Elastic Compliance Matrix: (Units=1/GPa)
#
#
# Indices 1 2 3 4 5 6 
#
# 1 0.016757 0.000511 -0.006285 0.000000 0.000000 0.000000
# 2 0.000511 0.013259 -0.005906 0.000000 0.000000 0.000000
# 3 -0.006285 -0.005906 0.011612 0.000000 0.000000 0.000000
# 4 0.000000 0.000000 0.000000 0.045484 0.000000 0.000000
# 5 0.000000 0.000000 0.000000 0.000000 0.052814 0.000000
# 6 0.000000 0.000000 0.000000 0.000000 0.000000 0.062473
#
#
# Mechanical properties :
#
#
# Convention : Reuss Voigt Hill
#
# Bulk Modulus (GPa) = 54.74516 67.16048 60.95282
# Shear Modulus (GPa) = 21.56583 24.16569 22.86576
#
# Velocity S-wave (km/s) = 3.24640 3.43652 3.34281
# Velocity P-wave (km/s) = 6.38794 6.96901 6.68480
#
# Compressibility (1/GPa) = 0.01826645
#
# Stress axis : x y z
#
# Youngs Moduli (GPa) = 59.67783 75.42074 86.11629
#
# Poissons Ratio (x) = -0.03852 0.54123
# Poissons Ratio (y) = -0.03048 0.50864
# Poissons Ratio (z) = 0.37507 0.44547
#
# Static dielectric constant tensor:
#      x y z
#    x 4.157730 0.000000 0.000000 
#    y 0.000000 2.202730 0.000000 
#    z 0.000000 0.000000 3.849580 
# 
# 
# High freq. dielectric constant tensor:
#      x y z
#    x 1.768380 0.000000 0.000000 
#    y 0.000000 1.798810 0.000000 
#    z 0.000000 0.000000 1.798150 
# 
# From -- ./inp_files/74663.got.cif
#   From: 2010.03.12/outbox.cif.g09.slc.cpg/sg65_38_cif.got.tgz:74663.got - 2010.04.10 20:52:16.
