data_PCOD8272890
_publ_section_title
;
Structure prediction by ZEFSAII (Michael W. Deem and Ramdas Pophale) SiO2 
 PCOD8272890
Probable space group: C M M M
;
_chemical_formula_sum "Si O2"
_cell_formula_units_Z 88
_cell_length_a 8.912661
_cell_length_b 18.649601
_cell_length_c 28.611501
_cell_angle_alpha 90.000000
_cell_angle_beta 90.000000
_cell_angle_gamma 90.000000
_cell_volume 4755.734213
_symmetry_space_group_name_H-M "C M M M"
_symmetry_group_IT_number 65
_symmetry_cell_setting 'orthorhombic'
loop_
_space_group_symop_operation_xyz
x,y,z
-x,-y,z
x,-y,-z
-x,y,-z
-x,-y,-z
x,y,-z
-x,y,z
x,-y,z
1/2+x,1/2+y,z
1/2-x,1/2-y,z
1/2+x,1/2-y,-z
1/2-x,1/2+y,-z
1/2-x,1/2-y,-z
1/2+x,1/2+y,-z
1/2-x,1/2+y,z
1/2+x,1/2-y,z
loop_
_atom_site_type_symbol
_atom_site_label
_atom_site_fract_x
_atom_site_fract_y
_atom_site_fract_z
Si Si1 0.177808 0.080766 0.500000
Si Si2 0.679073 0.082711 0.669813
Si Si3 0.164633 0.415245 0.228780
Si Si4 0.175879 0.823184 0.947243
Si Si5 0.172298 0.584328 0.871878
Si Si6 0.178476 0.827739 0.411563
O O1 0.234398 0.123164 0.545531
O O2 0.000000 0.076375 0.500000
O O3 0.245551 0.000000 0.500000
O O4 0.500000 0.093545 0.666768
O O5 0.742106 0.105175 0.721752
O O6 0.764511 0.135236 0.635339
O O7 0.720136 0.000000 0.658458
O O8 0.146537 0.500000 0.228272
O O9 0.240684 0.391625 0.179376
O O10 0.000000 0.380182 0.228951
O O11 0.250000 0.750000 0.929915
O O12 0.226456 0.885429 0.912915
O O13 0.000000 0.813620 0.944577
O O14 0.227935 0.842168 0.000000
O O15 0.180953 0.500000 0.877072
O O16 0.000000 0.610336 0.876686
O O17 0.250000 0.750000 0.417467
O O18 0.000000 0.820215 0.410275
#
# Coordination Sequence:
#
# PCOD8272890 Si02
#       6
#     8  16  16  16  16  16
#     4   9  19  36  57  79 102 131 168 211 258 306
#     4   9  17  32  55  80 105 134 170 210 251 298
#     4   7  12  26  49  75 102 132 164 201 247 296
#     4  10  21  36  52  70  96 131 169 209 254 303
#     4   9  17  31  53  79 104 131 165 204 248 300
#     4  11  22  36  54  76 106 140 173 210 254 302
#
# _framework density 18.503978
#
# number of rings (size 3 to 8) (size 9 to 14) (size 15 to 20)
#    0.000    2.818    0.000    4.091    0.000    2.909 
#    0.000    5.000    0.000    6.545    0.000    0.000 
#    0.000    0.000    0.000    0.000    0.000    0.000 
#
# Total GULP energy -545129.267204 kJ/mol
# GULP energy per Si atom -12389.301527 kJ/mol
# Density = 1.846186 g / cm^3
# Si number density = 18.503978 Si / 1000 Ang^3
#
#
#
# Elastic Constant Matrix: (Units=GPa)
#
#
# Indices 1 2 3 4 5 6 
#
# 1 49.6391 31.2604 37.8208 0.0000 0.0000 0.0000
# 2 31.2604 86.0835 64.2707 0.0000 0.0000 0.0000
# 3 37.8208 64.2707 155.3238 0.0000 0.0000 0.0000
# 4 0.0000 0.0000 0.0000 5.3718 0.0000 0.0000
# 5 0.0000 0.0000 0.0000 0.0000 19.2496 0.0000
# 6 0.0000 0.0000 0.0000 0.0000 0.0000 20.7219
#
#
#
# Elastic Compliance Matrix: (Units=1/GPa)
#
#
# Indices 1 2 3 4 5 6 
#
# 1 0.027523 -0.007222 -0.003713 0.000000 0.000000 0.000000
# 2 -0.007222 0.018705 -0.005981 0.000000 0.000000 0.000000
# 3 -0.003713 -0.005981 0.009817 0.000000 0.000000 0.000000
# 4 0.000000 0.000000 0.000000 0.186156 0.000000 0.000000
# 5 0.000000 0.000000 0.000000 0.000000 0.051949 0.000000
# 6 0.000000 0.000000 0.000000 0.000000 0.000000 0.048258
#
#
# Mechanical properties :
#
#
# Convention : Reuss Voigt Hill
#
# Bulk Modulus (GPa) = 45.02167 61.97224 53.49696
# Shear Modulus (GPa) = 13.03286 19.58164 16.30725
#
# Velocity S-wave (km/s) = 2.65680 3.25659 2.97186
# Velocity P-wave (km/s) = 5.81335 6.90684 6.38356
#
# Compressibility (1/GPa) = 0.02221153
#
# Stress axis : x y z
#
# Youngs Moduli (GPa) = 36.33342 53.46161 101.86139
#
# Poissons Ratio (x) = 0.38612 0.37823
# Poissons Ratio (y) = 0.26241 0.60926
# Poissons Ratio (z) = 0.13491 0.31977
#
# Static dielectric constant tensor:
#      x y z
#    x 3.119010 0.000000 0.000000 
#    y 0.000000 3.207770 0.000000 
#    z 0.000000 0.000000 3.927490 
# 
# 
# High freq. dielectric constant tensor:
#      x y z
#    x 1.687080 0.000000 0.000000 
#    y 0.000000 1.696300 0.000000 
#    z 0.000000 0.000000 1.743510 
# 
# From -- ./inp_files/76521.got.cif
#   From: 2010.03.12/outbox.cif.g09.slc.cpg/sg65_39_cif.got.tgz:76521.got - 2010.04.10 20:52:16.
