data_PCOD8272295
_publ_section_title
;
Structure prediction by ZEFSAII (Michael W. Deem and Ramdas Pophale) SiO2 
 PCOD8272295
Probable space group: C M M M
;
_chemical_formula_sum "Si O2"
_cell_formula_units_Z 88
_cell_length_a 17.983212
_cell_length_b 30.197386
_cell_length_c 8.773935
_cell_angle_alpha 90.000000
_cell_angle_beta 90.000000
_cell_angle_gamma 90.000000
_cell_volume 4764.650256
_symmetry_space_group_name_H-M "C M M M"
_symmetry_group_IT_number 65
_symmetry_cell_setting 'orthorhombic'
loop_
_space_group_symop_operation_xyz
x,y,z
-x,-y,z
x,-y,-z
-x,y,-z
-x,-y,-z
x,y,-z
-x,y,z
x,-y,z
1/2+x,1/2+y,z
1/2-x,1/2-y,z
1/2+x,1/2-y,-z
1/2-x,1/2+y,-z
1/2-x,1/2-y,-z
1/2+x,1/2+y,-z
1/2-x,1/2+y,z
1/2+x,1/2-y,z
loop_
_atom_site_type_symbol
_atom_site_label
_atom_site_fract_x
_atom_site_fract_y
_atom_site_fract_z
Si Si1 0.917152 0.048519 0.818839
Si Si2 0.911344 0.448374 0.500000
Si Si3 0.412486 0.797913 0.830201
Si Si4 0.333624 0.124146 0.332244
Si Si5 0.178608 0.128709 0.820048
Si Si6 0.585355 0.292889 0.680088
O O1 0.862187 0.085336 0.753376
O O2 0.000000 0.058754 0.758350
O O3 0.891333 0.000000 0.760925
O O4 0.916891 0.049376 0.000000
O O5 0.887887 0.500000 0.500000
O O6 0.876716 0.423361 0.649606
O O7 0.000000 0.443329 0.500000
O O8 0.500000 0.797501 0.840684
O O9 0.390640 0.840353 0.732829
O O10 0.385203 0.753241 0.748504
O O11 0.377445 0.800078 0.000000
O O12 0.306256 0.139826 0.500000
O O13 0.264474 0.121871 0.218949
O O14 0.141859 0.170646 0.740897
O O15 0.168923 0.133881 0.000000
O O16 0.590685 0.290032 0.500000
O O17 0.500000 0.303153 0.731098
#
# Coordination Sequence:
#
# PCOD8272295 Si02
#       6
#    16   8  16  16  16  16
#     4   8  15  29  50  75 103 141 189 235 279 331
#     4   9  20  40  66  89 109 143 189 232 277 344
#     4  10  20  36  59  86 113 145 191 242 290 341
#     4  10  22  36  57  83 114 146 185 227 285 346
#     4  11  21  34  53  81 118 155 194 240 292 339
#     4  10  21  36  56  81 116 160 203 241 279 331
#
# _framework density 18.469351
#
# number of rings (size 3 to 8) (size 9 to 14) (size 15 to 20)
#    0.545    1.727    0.000    3.818    0.000    4.000 
#    0.000    3.636    0.000    1.636    0.000   10.182 
#    0.000    0.000    0.000    0.000    0.000    0.000 
#
# Total GULP energy -545387.526263 kJ/mol
# GULP energy per Si atom -12395.171051 kJ/mol
# Density = 1.842731 g / cm^3
# Si number density = 18.469351 Si / 1000 Ang^3
#
#
#
# Elastic Constant Matrix: (Units=GPa)
#
#
# Indices 1 2 3 4 5 6 
#
# 1 61.9543 53.6970 14.4327 0.0000 0.0000 0.0000
# 2 53.6970 162.8510 37.5686 0.0000 0.0000 0.0000
# 3 14.4327 37.5686 61.3353 0.0000 0.0000 0.0000
# 4 0.0000 0.0000 0.0000 25.2036 0.0000 0.0000
# 5 0.0000 0.0000 0.0000 0.0000 25.3367 0.0000
# 6 0.0000 0.0000 0.0000 0.0000 0.0000 7.1986
#
#
#
# Elastic Compliance Matrix: (Units=1/GPa)
#
#
# Indices 1 2 3 4 5 6 
#
# 1 0.022640 -0.007262 -0.000879 0.000000 0.000000 0.000000
# 2 -0.007262 0.009481 -0.004098 0.000000 0.000000 0.000000
# 3 -0.000879 -0.004098 0.019021 0.000000 0.000000 0.000000
# 4 0.000000 0.000000 0.000000 0.039677 0.000000 0.000000
# 5 0.000000 0.000000 0.000000 0.000000 0.039468 0.000000
# 6 0.000000 0.000000 0.000000 0.000000 0.000000 0.138916
#
#
# Mechanical properties :
#
#
# Convention : Reuss Voigt Hill
#
# Bulk Modulus (GPa) = 37.50597 55.28190 46.39394
# Shear Modulus (GPa) = 16.52512 23.57727 20.05120
#
# Velocity S-wave (km/s) = 2.99445 3.57678 3.29849
# Velocity P-wave (km/s) = 5.68391 6.85962 6.29926
#
# Compressibility (1/GPa) = 0.02666242
#
# Stress axis : x y z
#
# Youngs Moduli (GPa) = 44.16933 105.47863 52.57392
#
# Poissons Ratio (x) = 0.76602 0.04622
# Poissons Ratio (y) = 0.32077 0.21545
# Poissons Ratio (z) = 0.03883 0.43226
#
# Static dielectric constant tensor:
#      x y z
#    x 3.298010 0.000000 0.000000 
#    y 0.000000 3.628730 0.000000 
#    z 0.000000 0.000000 3.332180 
# 
# 
# High freq. dielectric constant tensor:
#      x y z
#    x 1.711450 0.000000 0.000000 
#    y 0.000000 1.724440 0.000000 
#    z 0.000000 0.000000 1.703110 
# 
# From -- ./inp_files/10142.got.cif
#   From: 2010.03.12/outbox.cif.g09.slc.cpg/sg65_6_cif.got.tgz:10142.got - 2010.04.10 20:52:16.
