data_PCOD8272596
_publ_section_title
;
Structure prediction by ZEFSAII (Michael W. Deem and Ramdas Pophale) SiO2 
 PCOD8272596
Probable space group: C M M M
;
_chemical_formula_sum "Si O2"
_cell_formula_units_Z 88
_cell_length_a 13.622821
_cell_length_b 18.109561
_cell_length_c 21.634573
_cell_angle_alpha 90.000000
_cell_angle_beta 90.000000
_cell_angle_gamma 90.000000
_cell_volume 5337.320724
_symmetry_space_group_name_H-M "C M M M"
_symmetry_group_IT_number 65
_symmetry_cell_setting 'orthorhombic'
loop_
_space_group_symop_operation_xyz
x,y,z
-x,-y,z
x,-y,-z
-x,y,-z
-x,-y,-z
x,y,-z
-x,y,z
x,-y,z
1/2+x,1/2+y,z
1/2-x,1/2-y,z
1/2+x,1/2-y,-z
1/2-x,1/2+y,-z
1/2-x,1/2-y,-z
1/2+x,1/2+y,-z
1/2-x,1/2+y,z
1/2+x,1/2-y,z
loop_
_atom_site_type_symbol
_atom_site_label
_atom_site_fract_x
_atom_site_fract_y
_atom_site_fract_z
Si Si1 0.886446 0.912220 0.633862
Si Si2 0.387814 0.687150 0.141556
Si Si3 0.386963 0.144495 0.834137
Si Si4 0.272191 0.667022 0.739575
Si Si5 0.252914 0.917026 0.929679
Si Si6 0.888278 0.913301 0.500000
O O1 0.808930 0.879093 0.681548
O O2 0.846289 0.884616 0.565976
O O3 0.000000 0.886428 0.645048
O O4 0.882368 0.000000 0.638990
O O5 0.500000 0.667856 0.129830
O O6 0.366736 0.774390 0.137308
O O7 0.358347 0.661600 0.209962
O O8 0.327763 0.642907 0.090083
O O9 0.500000 0.129798 0.818853
O O10 0.326836 0.133317 0.770235
O O11 0.349455 0.088618 0.886643
O O12 0.250000 0.750000 0.717565
O O13 0.210064 0.000000 0.922863
O O14 0.283941 0.900915 0.000000
O O15 0.000000 0.889316 0.500000
O O16 0.877046 0.000000 0.500000
#
# Coordination Sequence:
#
# PCOD8272596 Si02
#       6
#    16  16  16  16  16   8
#     4   9  16  27  46  71  96 121 150 184 223 267
#     4   9  18  33  51  68  88 116 148 181 221 271
#     4   9  19  35  51  65  85 118 157 190 219 258
#     4   9  17  29  45  68  95 119 145 183 228 269
#     4  10  21  34  47  67  94 118 142 180 229 274
#     4   7  12  24  41  64  95 125 149 177 216 263
#
# _framework density 16.487673000000001
#
# number of rings (size 3 to 8) (size 9 to 14) (size 15 to 20)
#    0.000    3.000    0.000    3.273    0.000    6.545 
#    0.000    4.091    0.000    0.000    0.000    0.636 
#    0.000    2.182    0.000    0.000    0.000    0.000 
#
# Total GULP energy -545180.942762 kJ/mol
# GULP energy per Si atom -12390.475972 kJ/mol
# Density = 1.645015 g / cm^3
# Si number density = 16.487673 Si / 1000 Ang^3
#
#
#
# Elastic Constant Matrix: (Units=GPa)
#
#
# Indices 1 2 3 4 5 6 
#
# 1 96.9966 29.5080 56.1619 0.0000 0.0000 0.0000
# 2 29.5080 44.8688 44.1498 0.0000 0.0000 0.0000
# 3 56.1619 44.1498 134.9413 0.0000 0.0000 0.0000
# 4 0.0000 0.0000 0.0000 20.3150 0.0000 0.0000
# 5 0.0000 0.0000 0.0000 0.0000 15.6343 0.0000
# 6 0.0000 0.0000 0.0000 0.0000 0.0000 19.7364
#
#
#
# Elastic Compliance Matrix: (Units=1/GPa)
#
#
# Indices 1 2 3 4 5 6 
#
# 1 0.014378 -0.005262 -0.004263 0.000000 0.000000 0.000000
# 2 -0.005262 0.034794 -0.009194 0.000000 0.000000 0.000000
# 3 -0.004263 -0.009194 0.012193 0.000000 0.000000 0.000000
# 4 0.000000 0.000000 0.000000 0.049225 0.000000 0.000000
# 5 0.000000 0.000000 0.000000 0.000000 0.063962 0.000000
# 6 0.000000 0.000000 0.000000 0.000000 0.000000 0.050668
#
#
# Mechanical properties :
#
#
# Convention : Reuss Voigt Hill
#
# Bulk Modulus (GPa) = 41.79074 59.60512 50.69793
# Shear Modulus (GPa) = 18.47521 20.93628 19.70575
#
# Velocity S-wave (km/s) = 3.35109 3.56731 3.46089
# Velocity P-wave (km/s) = 6.35411 7.29366 6.84003
#
# Compressibility (1/GPa) = 0.02392875
#
# Stress axis : x y z
#
# Youngs Moduli (GPa) = 69.54837 28.74044 82.01519
#
# Poissons Ratio (x) = 0.15122 0.34961
# Poissons Ratio (y) = 0.36593 0.75405
# Poissons Ratio (z) = 0.29647 0.26424
#
# Static dielectric constant tensor:
#      x y z
#    x 3.053560 0.000000 0.000000 
#    y 0.000000 2.999610 0.000000 
#    z 0.000000 0.000000 3.214240 
# 
# 
# High freq. dielectric constant tensor:
#      x y z
#    x 1.620400 0.000000 0.000000 
#    y 0.000000 1.618910 0.000000 
#    z 0.000000 0.000000 1.633430 
# 
# From -- ./inp_files/53222.got.cif
#   From: 2010.03.12/outbox.cif.g09.slc.cpg/sg65_27_cif.got.tgz:53222.got - 2010.04.10 20:52:16.
