data_PCOD8272727
_publ_section_title
;
Structure prediction by ZEFSAII (Michael W. Deem and Ramdas Pophale) SiO2 
 PCOD8272727
Probable space group: C M M M
;
_chemical_formula_sum "Si O2"
_cell_formula_units_Z 80
_cell_length_a 18.281002
_cell_length_b 9.239551
_cell_length_c 25.801951
_cell_angle_alpha 90.000000
_cell_angle_beta 90.000000
_cell_angle_gamma 90.000000
_cell_volume 4358.162398
_symmetry_space_group_name_H-M "C M M M"
_symmetry_group_IT_number 65
_symmetry_cell_setting 'orthorhombic'
loop_
_space_group_symop_operation_xyz
x,y,z
-x,-y,z
x,-y,-z
-x,y,-z
-x,-y,-z
x,y,-z
-x,y,z
x,-y,z
1/2+x,1/2+y,z
1/2-x,1/2-y,z
1/2+x,1/2-y,-z
1/2-x,1/2+y,-z
1/2-x,1/2-y,-z
1/2+x,1/2+y,-z
1/2-x,1/2+y,z
1/2+x,1/2-y,z
loop_
_atom_site_type_symbol
_atom_site_label
_atom_site_fract_x
_atom_site_fract_y
_atom_site_fract_z
Si Si1 0.672384 0.173110 0.000000
Si Si2 0.913118 0.839869 0.203450
Si Si3 0.584241 0.331157 0.600307
Si Si4 0.673753 0.329371 0.500000
Si Si5 0.412767 0.837876 0.299593
Si Si6 0.914225 0.832191 0.087155
O O1 0.750000 0.250000 0.000000
O O2 0.629016 0.223320 0.949306
O O3 0.680805 0.000000 0.000000
O O4 0.880795 0.732510 0.246896
O O5 0.890337 0.790977 0.145714
O O6 0.000000 0.844014 0.206672
O O7 0.882187 0.000000 0.214907
O O8 0.500000 0.291381 0.589922
O O9 0.593683 0.500000 0.611307
O O10 0.628964 0.279823 0.550375
O O11 0.615793 0.248295 0.650302
O O12 0.686533 0.500000 0.500000
O O13 0.750000 0.250000 0.500000
O O14 0.500000 0.834133 0.298242
O O15 0.382353 0.000000 0.302907
O O16 0.000000 0.806760 0.078562
O O17 0.894909 0.000000 0.075085
#
# Coordination Sequence:
#
# PCOD8272727 Si02
#       6
#     8  16  16   8  16  16
#     4  12  25  38  53  73 101 137 175 214 257 304
#     4   8  14  26  46  72 101 133 164 194 236 291
#     4   9  17  31  51  72  95 126 165 203 238 285
#     4  10  21  35  51  71  95 126 162 202 248 292
#     4   9  16  25  41  70 104 131 157 196 244 287
#     4   9  18  34  56  80 106 135 168 208 253 301
#
# _framework density 18.356361
#
# number of rings (size 3 to 8) (size 9 to 14) (size 15 to 20)
#    0.000    2.800    0.000    3.300    0.000    6.800 
#    0.000    2.000    0.000    4.200    0.000    5.600 
#    0.000    0.000    0.000    0.000    0.000    0.000 
#
# Total GULP energy -495904.902583 kJ/mol
# GULP energy per Si atom -12397.622565 kJ/mol
# Density = 1.831458 g / cm^3
# Si number density = 18.356361 Si / 1000 Ang^3
#
#
#
# Elastic Constant Matrix: (Units=GPa)
#
#
# Indices 1 2 3 4 5 6 
#
# 1 52.7809 42.7425 50.4483 0.0000 0.0000 0.0000
# 2 42.7425 115.2328 92.2418 0.0000 0.0000 0.0000
# 3 50.4483 92.2418 185.2018 0.0000 0.0000 0.0000
# 4 0.0000 0.0000 0.0000 26.9952 0.0000 0.0000
# 5 0.0000 0.0000 0.0000 0.0000 -1.3724 0.0000
# 6 0.0000 0.0000 0.0000 0.0000 0.0000 22.5280
#
#
#
# Elastic Compliance Matrix: (Units=1/GPa)
#
#
# Indices 1 2 3 4 5 6 
#
# 1 0.028935 -0.007356 -0.004218 0.000000 0.000000 0.000000
# 2 -0.007356 0.016302 -0.006116 0.000000 0.000000 0.000000
# 3 -0.004218 -0.006116 0.009594 0.000000 0.000000 0.000000
# 4 0.000000 0.000000 0.000000 0.037044 0.000000 0.000000
# 5 0.000000 0.000000 0.000000 0.000000 -0.728670 0.000000
# 6 0.000000 0.000000 0.000000 0.000000 0.000000 0.044389
#
#
# Mechanical properties :
#
#
# Convention : Reuss Voigt Hill
#
# Bulk Modulus (GPa) = 51.40895 80.45342 65.93118
# Shear Modulus (GPa) = -9.08195 20.81570 5.86687
#
# Velocity S-wave (km/s) = -2.22673 3.37111 1.78970
# Velocity P-wave (km/s) = 4.63204 7.68611 6.34555
#
# Compressibility (1/GPa) = 0.01945186
#
# Stress axis : x y z
#
# Youngs Moduli (GPa) = 34.56028 61.34154 104.22738
#
# Poissons Ratio (x) = 0.45125 0.43962
# Poissons Ratio (y) = 0.25424 0.63742
# Poissons Ratio (z) = 0.14577 0.37514
#
# Static dielectric constant tensor:
#      x y z
#    x 2.921020 0.000000 0.000000 
#    y 0.000000 3.446740 0.000000 
#    z 0.000000 0.000000 3.687370 
# 
# 
# High freq. dielectric constant tensor:
#      x y z
#    x 1.660070 0.000000 0.000000 
#    y 0.000000 1.708120 0.000000 
#    z 0.000000 0.000000 1.732170 
# 
# From -- ./inp_files/75131.got.cif
#   From: 2010.03.12/outbox.cif.g09.slc.cpg/sg65_38_cif.got.tgz:75131.got - 2010.04.10 20:52:16.
