data_PCOD8272933
_publ_section_title
;
Structure prediction by ZEFSAII (Michael W. Deem and Ramdas Pophale) SiO2 
 PCOD8272933
Probable space group: C M M M
;
_chemical_formula_sum "Si O2"
_cell_formula_units_Z 72
_cell_length_a 9.202406
_cell_length_b 19.852692
_cell_length_c 22.763376
_cell_angle_alpha 90.000000
_cell_angle_beta 90.000000
_cell_angle_gamma 90.000000
_cell_volume 4158.698798
_symmetry_space_group_name_H-M "C M M M"
_symmetry_group_IT_number 65
_symmetry_cell_setting 'orthorhombic'
loop_
_space_group_symop_operation_xyz
x,y,z
-x,-y,z
x,-y,-z
-x,y,-z
-x,-y,-z
x,y,-z
-x,y,z
x,-y,z
1/2+x,1/2+y,z
1/2-x,1/2-y,z
1/2+x,1/2-y,-z
1/2-x,1/2+y,-z
1/2-x,1/2-y,-z
1/2+x,1/2+y,-z
1/2-x,1/2+y,z
1/2+x,1/2-y,z
loop_
_atom_site_type_symbol
_atom_site_label
_atom_site_fract_x
_atom_site_fract_y
_atom_site_fract_z
Si Si1 0.166862 0.421121 0.645749
Si Si2 0.327902 0.074412 0.778209
Si Si3 0.165755 0.318016 0.000000
Si Si4 0.829121 0.678851 0.872798
Si Si5 0.830931 0.183010 0.431610
O O1 0.188753 0.500000 0.634130
O O2 0.212886 0.402776 0.712353
O O3 0.271009 0.381512 0.602154
O O4 0.000000 0.400528 0.634107
O O5 0.500000 0.070524 0.784441
O O6 0.263322 0.127520 0.824838
O O7 0.263011 0.000000 0.791192
O O8 0.250000 0.250000 0.000000
O O9 0.200443 0.355013 0.062190
O O10 0.000000 0.296321 0.000000
O O11 0.750000 0.750000 0.865732
O O12 0.000000 0.690659 0.862455
O O13 0.800307 0.170828 0.500000
O O14 0.750000 0.250000 0.409236
O O15 0.000000 0.191789 0.417950
#
# Coordination Sequence:
#
# PCOD8272933 Si02
#       5
#    16  16   8  16  16
#     4   9  18  33  52  72  95 126 161 193 230 279
#     4   8  15  29  47  66  91 122 152 185 227 271
#     4   8  14  24  39  61  87 115 147 184 226 268
#     4   9  16  27  44  65  89 117 151 189 227 269
#     4  10  21  36  53  73  98 126 155 191 235 279
#
# _framework density 17.313106999999999
#
# number of rings (size 3 to 8) (size 9 to 14) (size 15 to 20)
#    0.000    3.111    0.000    2.000    0.000    3.111 
#    0.000    6.111    0.000    5.333    0.000    0.000 
#    0.000    8.889    0.000    0.000    0.000    0.000 
#
# Total GULP energy -446099.796843 kJ/mol
# GULP energy per Si atom -12391.661023 kJ/mol
# Density = 1.727370 g / cm^3
# Si number density = 17.313107 Si / 1000 Ang^3
#
#
#
# Elastic Constant Matrix: (Units=GPa)
#
#
# Indices 1 2 3 4 5 6 
#
# 1 53.6741 39.6917 47.8437 0.0000 0.0000 0.0000
# 2 39.6917 88.3492 71.2659 0.0000 0.0000 0.0000
# 3 47.8437 71.2659 112.9918 0.0000 0.0000 0.0000
# 4 0.0000 0.0000 0.0000 24.2731 0.0000 0.0000
# 5 0.0000 0.0000 0.0000 0.0000 19.0415 0.0000
# 6 0.0000 0.0000 0.0000 0.0000 0.0000 25.8410
#
#
#
# Elastic Compliance Matrix: (Units=1/GPa)
#
#
# Indices 1 2 3 4 5 6 
#
# 1 0.031919 -0.006998 -0.009101 0.000000 0.000000 0.000000
# 2 -0.006998 0.024576 -0.012537 0.000000 0.000000 0.000000
# 3 -0.009101 -0.012537 0.020611 0.000000 0.000000 0.000000
# 4 0.000000 0.000000 0.000000 0.041198 0.000000 0.000000
# 5 0.000000 0.000000 0.000000 0.000000 0.052517 0.000000
# 6 0.000000 0.000000 0.000000 0.000000 0.000000 0.038698
#
#
# Mechanical properties :
#
#
# Convention : Reuss Voigt Hill
#
# Bulk Modulus (GPa) = 50.42247 63.62418 57.02333
# Shear Modulus (GPa) = 18.28804 20.24538 19.26671
#
# Velocity S-wave (km/s) = 3.25362 3.42331 3.33954
# Velocity P-wave (km/s) = 6.58041 7.24254 6.91940
#
# Compressibility (1/GPa) = 0.01983243
#
# Stress axis : x y z
#
# Youngs Moduli (GPa) = 31.32939 40.69074 48.51730
#
# Poissons Ratio (x) = 0.28477 0.44157
# Poissons Ratio (y) = 0.21926 0.60826
# Poissons Ratio (z) = 0.28514 0.51014
#
# Static dielectric constant tensor:
#      x y z
#    x 2.980460 0.000000 0.000000 
#    y 0.000000 3.184280 0.000000 
#    z 0.000000 0.000000 3.696220 
# 
# 
# High freq. dielectric constant tensor:
#      x y z
#    x 1.646280 0.000000 0.000000 
#    y 0.000000 1.652230 0.000000 
#    z 0.000000 0.000000 1.682250 
# 
# From -- ./inp_files/59247.got.cif
#   From: 2010.03.12/outbox.cif.g09.slc.cpg/sg65_30_cif.got.tgz:59247.got - 2010.04.10 20:52:16.
