data_PCOD8272042
_publ_section_title
;
Structure prediction by ZEFSAII (Michael W. Deem and Ramdas Pophale) SiO2 
 PCOD8272042
Probable space group: C M M M
;
_chemical_formula_sum "Si O2"
_cell_formula_units_Z 72
_cell_length_a 17.250254
_cell_length_b 24.100596
_cell_length_c 8.793992
_cell_angle_alpha 90.000000
_cell_angle_beta 90.000000
_cell_angle_gamma 90.000000
_cell_volume 3656.026568
_symmetry_space_group_name_H-M "C M M M"
_symmetry_group_IT_number 65
_symmetry_cell_setting 'orthorhombic'
loop_
_space_group_symop_operation_xyz
x,y,z
-x,-y,z
x,-y,-z
-x,y,-z
-x,-y,-z
x,y,-z
-x,y,z
x,-y,z
1/2+x,1/2+y,z
1/2-x,1/2-y,z
1/2+x,1/2-y,-z
1/2-x,1/2+y,-z
1/2-x,1/2-y,-z
1/2+x,1/2+y,-z
1/2-x,1/2+y,z
1/2+x,1/2-y,z
loop_
_atom_site_type_symbol
_atom_site_label
_atom_site_fract_x
_atom_site_fract_y
_atom_site_fract_z
Si Si1 0.584709 0.565048 0.832123
Si Si2 0.000000 0.565271 0.680608
Si Si3 0.342749 0.748548 0.330601
Si Si4 0.866744 0.359465 0.178806
Si Si5 0.298570 0.633425 0.323581
O O1 0.500000 0.588030 0.784469
O O2 0.581338 0.500000 0.838497
O O3 0.648923 0.580409 0.707835
O O4 0.607206 0.588066 0.000000
O O5 0.075999 0.596629 0.742656
O O6 0.000000 0.500000 0.731138
O O7 0.000000 0.569320 0.500000
O O8 0.375651 0.758562 0.500000
O O9 0.250000 0.750000 0.330248
O O10 0.383318 0.795107 0.225471
O O11 0.355108 0.685216 0.274458
O O12 0.779300 0.373011 0.226497
O O13 0.877869 0.365394 0.000000
O O14 0.274528 0.638186 0.500000
#
# Coordination Sequence:
#
# PCOD8272042 Si02
#       5
#    16   8  16  16  16
#     4   9  19  36  55  77 110 149 186 232 287 334
#     4  11  25  45  65  83 111 153 198 245 294 345
#     4   8  16  33  55  80 112 147 181 224 277 333
#     4  11  22  37  60  87 115 148 187 235 289 341
#     4  10  20  35  58  86 115 151 193 234 282 340
#
# _framework density 19.693511999999998
#
# number of rings (size 3 to 8) (size 9 to 14) (size 15 to 20)
#    0.000    2.333    0.000    5.000    0.000    7.556 
#    2.000    1.111    0.000    0.000    0.000    0.000 
#    0.000    0.000    0.000    0.000    0.000    0.000 
#
# Total GULP energy -446015.120779 kJ/mol
# GULP energy per Si atom -12389.308911 kJ/mol
# Density = 1.964869 g / cm^3
# Si number density = 19.693512 Si / 1000 Ang^3
#
#
#
# Elastic Constant Matrix: (Units=GPa)
#
#
# Indices 1 2 3 4 5 6 
#
# 1 82.5870 57.2659 42.8776 0.0000 0.0000 0.0000
# 2 57.2659 96.7728 49.7914 0.0000 0.0000 0.0000
# 3 42.8776 49.7914 101.6142 0.0000 0.0000 0.0000
# 4 0.0000 0.0000 0.0000 26.6259 0.0000 0.0000
# 5 0.0000 0.0000 0.0000 0.0000 26.1576 0.0000
# 6 0.0000 0.0000 0.0000 0.0000 0.0000 33.9315
#
#
#
# Elastic Compliance Matrix: (Units=1/GPa)
#
#
# Indices 1 2 3 4 5 6 
#
# 1 0.021583 -0.010812 -0.003809 0.000000 0.000000 0.000000
# 2 -0.010812 0.019233 -0.004862 0.000000 0.000000 0.000000
# 3 -0.003809 -0.004862 0.013831 0.000000 0.000000 0.000000
# 4 0.000000 0.000000 0.000000 0.037557 0.000000 0.000000
# 5 0.000000 0.000000 0.000000 0.000000 0.038230 0.000000
# 6 0.000000 0.000000 0.000000 0.000000 0.000000 0.029471
#
#
# Mechanical properties :
#
#
# Convention : Reuss Voigt Hill
#
# Bulk Modulus (GPa) = 63.77365 64.53820 64.15592
# Shear Modulus (GPa) = 24.49782 26.07894 25.28838
#
# Velocity S-wave (km/s) = 3.53080 3.64296 3.58732
# Velocity P-wave (km/s) = 7.00539 7.10896 7.05736
#
# Compressibility (1/GPa) = 0.01568046
#
# Stress axis : x y z
#
# Youngs Moduli (GPa) = 46.33206 51.99340 72.30116
#
# Poissons Ratio (x) = 0.56215 0.27543
# Poissons Ratio (y) = 0.50094 0.35153
# Poissons Ratio (z) = 0.17650 0.25280
#
# Static dielectric constant tensor:
#      x y z
#    x 3.540610 0.000000 0.000000 
#    y 0.000000 4.307380 0.000000 
#    z 0.000000 0.000000 3.567380 
# 
# 
# High freq. dielectric constant tensor:
#      x y z
#    x 1.750790 0.000000 0.000000 
#    y 0.000000 1.773900 0.000000 
#    z 0.000000 0.000000 1.764760 
# 
# From -- ./inp_files/9233.got.cif
#   From: 2010.03.12/outbox.cif.g09.slc.cpg/sg65_5_cif.got.tgz:9233.got - 2010.04.10 20:52:16.
