data_PCOD8272394
_publ_section_title
;
Structure prediction by ZEFSAII (Michael W. Deem and Ramdas Pophale) SiO2 
 PCOD8272394
Probable space group: C M M M
;
_chemical_formula_sum "Si O2"
_cell_formula_units_Z 72
_cell_length_a 9.037676
_cell_length_b 15.494925
_cell_length_c 26.227741
_cell_angle_alpha 90.000000
_cell_angle_beta 90.000000
_cell_angle_gamma 90.000000
_cell_volume 3672.883326
_symmetry_space_group_name_H-M "C M M M"
_symmetry_group_IT_number 65
_symmetry_cell_setting 'orthorhombic'
loop_
_space_group_symop_operation_xyz
x,y,z
-x,-y,z
x,-y,-z
-x,y,-z
-x,-y,-z
x,y,-z
-x,y,z
x,-y,z
1/2+x,1/2+y,z
1/2-x,1/2-y,z
1/2+x,1/2-y,-z
1/2-x,1/2+y,-z
1/2-x,1/2-y,-z
1/2+x,1/2+y,-z
1/2-x,1/2+y,z
1/2+x,1/2-y,z
loop_
_atom_site_type_symbol
_atom_site_label
_atom_site_fract_x
_atom_site_fract_y
_atom_site_fract_z
Si Si1 0.327933 0.900369 0.099480
Si Si2 0.824039 0.500000 0.611893
Si Si3 0.167327 0.102721 0.000000
Si Si4 0.328731 0.338210 0.439942
Si Si5 0.674691 0.000000 0.270625
Si Si6 0.324954 0.836664 0.208914
O O1 0.500000 0.889721 0.088451
O O2 0.278457 0.850408 0.150175
O O3 0.286056 0.000000 0.107880
O O4 0.243257 0.860088 0.050985
O O5 0.755501 0.415712 0.586837
O O6 0.777964 0.500000 0.670812
O O7 0.000000 0.500000 0.603887
O O8 0.000000 0.134463 0.000000
O O9 0.183644 0.000000 0.000000
O O10 0.314259 0.352132 0.500000
O O11 0.500000 0.335793 0.423039
O O12 0.250000 0.250000 0.422700
O O13 0.738338 0.914892 0.243068
O O14 0.500000 0.000000 0.263636
O O15 0.500000 0.828960 0.214657
O O16 0.250000 0.750000 0.229664
#
# Coordination Sequence:
#
# PCOD8272394 Si02
#       6
#    16   8   8  16   8  16
#     4   9  16  30  53  75  99 137 179 214 257 325
#     4  11  22  36  59  88 119 157 196 240 291 344
#     4   9  17  27  44  75 110 136 162 212 272 319
#     4  10  21  38  60  87 121 159 198 241 287 339
#     4   9  20  40  60  80 111 150 189 230 279 334
#     4  10  20  37  59  81 106 140 183 229 276 328
#
# _framework density 19.603127000000001
#
# number of rings (size 3 to 8) (size 9 to 14) (size 15 to 20)
#    0.000    2.333    1.111    1.667    0.000    5.778 
#    0.000    5.556    0.000    0.000    0.000    0.000 
#    0.000    0.000    0.000    0.000    0.000    0.000 
#
# Total GULP energy -446454.394124 kJ/mol
# GULP energy per Si atom -12401.510948 kJ/mol
# Density = 1.955851 g / cm^3
# Si number density = 19.603127 Si / 1000 Ang^3
#
#
#
# Elastic Constant Matrix: (Units=GPa)
#
#
# Indices 1 2 3 4 5 6 
#
# 1 88.3045 58.2078 54.6228 0.0000 0.0000 0.0000
# 2 58.2078 153.0898 73.5639 0.0000 0.0000 0.0000
# 3 54.6228 73.5639 95.2187 0.0000 0.0000 0.0000
# 4 0.0000 0.0000 0.0000 10.8729 0.0000 0.0000
# 5 0.0000 0.0000 0.0000 0.0000 21.2237 0.0000
# 6 0.0000 0.0000 0.0000 0.0000 0.0000 33.6102
#
#
#
# Elastic Compliance Matrix: (Units=1/GPa)
#
#
# Indices 1 2 3 4 5 6 
#
# 1 0.018414 -0.003062 -0.008197 0.000000 0.000000 0.000000
# 2 -0.003062 0.010898 -0.006663 0.000000 0.000000 0.000000
# 3 -0.008197 -0.006663 0.020352 0.000000 0.000000 0.000000
# 4 0.000000 0.000000 0.000000 0.091972 0.000000 0.000000
# 5 0.000000 0.000000 0.000000 0.000000 0.047117 0.000000
# 6 0.000000 0.000000 0.000000 0.000000 0.000000 0.029753
#
#
# Mechanical properties :
#
#
# Convention : Reuss Voigt Hill
#
# Bulk Modulus (GPa) = 72.36415 78.82245 75.59330
# Shear Modulus (GPa) = 19.30821 23.15593 21.23207
#
# Velocity S-wave (km/s) = 3.14180 3.44064 3.29461
# Velocity P-wave (km/s) = 7.08209 7.48869 7.28822
#
# Compressibility (1/GPa) = 0.01381900
#
# Stress axis : x y z
#
# Youngs Moduli (GPa) = 54.30777 91.75813 49.13440
#
# Poissons Ratio (x) = 0.28098 0.40277
# Poissons Ratio (y) = 0.16630 0.32739
# Poissons Ratio (z) = 0.44518 0.61139
#
# Static dielectric constant tensor:
#      x y z
#    x 3.437320 0.000000 0.000000 
#    y 0.000000 3.654150 0.000000 
#    z 0.000000 0.000000 3.675070 
# 
# 
# High freq. dielectric constant tensor:
#      x y z
#    x 1.751410 0.000000 0.000000 
#    y 0.000000 1.764020 0.000000 
#    z 0.000000 0.000000 1.764610 
# 
# From -- ./inp_files/72584.got.cif
#   From: 2010.03.12/outbox.cif.g09.slc.cpg/sg65_37_cif.got.tgz:72584.got - 2010.04.10 20:52:16.
