data_PCOD8272726
_publ_section_title
;
Structure prediction by ZEFSAII (Michael W. Deem and Ramdas Pophale) SiO2 
 PCOD8272726
Probable space group: C M M M
;
_chemical_formula_sum "Si O2"
_cell_formula_units_Z 88
_cell_length_a 9.373478
_cell_length_b 18.819208
_cell_length_c 27.939801
_cell_angle_alpha 90.000000
_cell_angle_beta 90.000000
_cell_angle_gamma 90.000000
_cell_volume 4928.620911
_symmetry_space_group_name_H-M "C M M M"
_symmetry_group_IT_number 65
_symmetry_cell_setting 'orthorhombic'
loop_
_space_group_symop_operation_xyz
x,y,z
-x,-y,z
x,-y,-z
-x,y,-z
-x,-y,-z
x,y,-z
-x,y,z
x,-y,z
1/2+x,1/2+y,z
1/2-x,1/2-y,z
1/2+x,1/2-y,-z
1/2-x,1/2+y,-z
1/2-x,1/2-y,-z
1/2+x,1/2+y,-z
1/2-x,1/2+y,z
1/2+x,1/2-y,z
loop_
_atom_site_type_symbol
_atom_site_label
_atom_site_fract_x
_atom_site_fract_y
_atom_site_fract_z
Si Si1 0.833873 0.081852 0.590291
Si Si2 0.658930 0.415446 0.769789
Si Si3 0.839973 0.584589 0.317784
Si Si4 0.334470 0.820197 0.055406
Si Si5 0.667293 0.323659 0.500000
Si Si6 0.162246 0.083768 0.123398
O O1 0.746538 0.110239 0.635837
O O2 0.788085 0.130297 0.545907
O O3 0.000000 0.089514 0.602461
O O4 0.796607 0.000000 0.578029
O O5 0.500000 0.387771 0.757836
O O6 0.659402 0.500000 0.768085
O O7 0.766920 0.384091 0.730229
O O8 0.703822 0.390315 0.823005
O O9 0.839838 0.500000 0.315672
O O10 0.000000 0.614891 0.320724
O O11 0.500000 0.808842 0.067197
O O12 0.250000 0.750000 0.070449
O O13 0.273257 0.884666 0.085990
O O14 0.309899 0.838759 0.000000
O O15 0.500000 0.307337 0.500000
O O16 0.750000 0.250000 0.500000
O O17 0.000000 0.107172 0.111375
O O18 0.176484 0.000000 0.119616
#
# Coordination Sequence:
#
# PCOD8272726 Si02
#       6
#    16  16  16  16   8  16
#     4   9  17  31  51  72  94 123 161 200 234 275
#     4   8  14  26  44  67  97 131 162 191 230 283
#     4   9  16  25  41  69 100 126 155 194 239 281
#     4  10  21  36  53  72  96 129 168 208 250 297
#     4  10  21  35  51  71  95 126 160 194 238 288
#     4   9  18  32  51  76 104 133 165 202 245 293
#
# _framework density 17.854894000000002
#
# number of rings (size 3 to 8) (size 9 to 14) (size 15 to 20)
#    0.000    2.909    0.000    2.455    0.000    6.545 
#    0.000    3.636    0.000    3.818    0.000    5.091 
#    0.000    0.000    0.000    0.000    0.000    0.000 
#
# Total GULP energy -545519.903030 kJ/mol
# GULP energy per Si atom -12398.179614 kJ/mol
# Density = 1.781426 g / cm^3
# Si number density = 17.854894 Si / 1000 Ang^3
#
#
#
# Elastic Constant Matrix: (Units=GPa)
#
#
# Indices 1 2 3 4 5 6 
#
# 1 116.1072 39.2419 81.3991 0.0000 0.0000 0.0000
# 2 39.2419 46.9631 44.6419 0.0000 0.0000 0.0000
# 3 81.3991 44.6419 129.3653 0.0000 0.0000 0.0000
# 4 0.0000 0.0000 0.0000 1.1312 0.0000 0.0000
# 5 0.0000 0.0000 0.0000 0.0000 29.1631 0.0000
# 6 0.0000 0.0000 0.0000 0.0000 0.0000 25.3496
#
#
#
# Elastic Compliance Matrix: (Units=1/GPa)
#
#
# Indices 1 2 3 4 5 6 
#
# 1 0.016407 -0.005798 -0.008323 0.000000 0.000000 0.000000
# 2 -0.005798 0.033737 -0.007994 0.000000 0.000000 0.000000
# 3 -0.008323 -0.007994 0.015725 0.000000 0.000000 0.000000
# 4 0.000000 0.000000 0.000000 0.884048 0.000000 0.000000
# 5 0.000000 0.000000 0.000000 0.000000 0.034290 0.000000
# 6 0.000000 0.000000 0.000000 0.000000 0.000000 0.039448
#
#
# Mechanical properties :
#
#
# Convention : Reuss Voigt Hill
#
# Bulk Modulus (GPa) = 46.21084 69.22239 57.71662
# Shear Modulus (GPa) = 4.65073 19.60563 12.12818
#
# Velocity S-wave (km/s) = 1.61567 3.31728 2.60910
# Velocity P-wave (km/s) = 5.42384 7.31615 6.43988
#
# Compressibility (1/GPa) = 0.02163995
#
# Stress axis : x y z
#
# Youngs Moduli (GPa) = 60.94817 29.64119 63.59100
#
# Poissons Ratio (x) = 0.17187 0.52926
# Poissons Ratio (y) = 0.35339 0.50833
# Poissons Ratio (z) = 0.50727 0.23694
#
# Static dielectric constant tensor:
#      x y z
#    x 3.438590 0.000000 0.000000 
#    y 0.000000 2.845260 0.000000 
#    z 0.000000 0.000000 3.494630 
# 
# 
# High freq. dielectric constant tensor:
#      x y z
#    x 1.693920 0.000000 0.000000 
#    y 0.000000 1.643100 0.000000 
#    z 0.000000 0.000000 1.703510 
# 
# From -- ./inp_files/76525.got.cif
#   From: 2010.03.12/outbox.cif.g09.slc.cpg/sg65_39_cif.got.tgz:76525.got - 2010.04.10 20:52:16.
