data_PCOD8272002
_publ_section_title
;
Structure prediction by ZEFSAII (Michael W. Deem and Ramdas Pophale) SiO2 
 PCOD8272002
Probable space group: C M M M
;
_chemical_formula_sum "Si O2"
_cell_formula_units_Z 88
_cell_length_a 17.606838
_cell_length_b 32.282681
_cell_length_c 7.710073
_cell_angle_alpha 90.000000
_cell_angle_beta 90.000000
_cell_angle_gamma 90.000000
_cell_volume 4382.374148
_symmetry_space_group_name_H-M "C M M M"
_symmetry_group_IT_number 65
_symmetry_cell_setting 'orthorhombic'
loop_
_space_group_symop_operation_xyz
x,y,z
-x,-y,z
x,-y,-z
-x,y,-z
-x,-y,-z
x,y,-z
-x,y,z
x,-y,z
1/2+x,1/2+y,z
1/2-x,1/2-y,z
1/2+x,1/2-y,-z
1/2-x,1/2+y,-z
1/2-x,1/2-y,-z
1/2+x,1/2+y,-z
1/2-x,1/2+y,z
1/2+x,1/2-y,z
loop_
_atom_site_type_symbol
_atom_site_label
_atom_site_fract_x
_atom_site_fract_y
_atom_site_fract_z
Si Si1 0.500000 0.545290 0.796309
Si Si2 0.585017 0.101960 0.702674
Si Si3 0.589919 0.190515 0.809208
Si Si4 0.091140 0.840445 0.500000
Si Si5 0.909623 0.254154 0.500000
Si Si6 0.719065 0.954007 0.202881
Si Si7 0.640618 0.399436 0.793390
O O1 0.500000 0.500000 0.707845
O O2 0.425617 0.569427 0.737700
O O3 0.500000 0.539994 0.000000
O O4 0.582595 0.109540 0.500000
O O5 0.500000 0.093047 0.773757
O O6 0.620760 0.143674 0.785769
O O7 0.636022 0.062680 0.750213
O O8 0.500000 0.188197 0.784870
O O9 0.623909 0.222455 0.669230
O O10 0.613043 0.206629 0.000000
O O11 0.117704 0.792919 0.500000
O O12 0.127565 0.858843 0.676468
O O13 0.000000 0.845464 0.500000
O O14 0.000000 0.255861 0.500000
O O15 0.782194 0.921695 0.269174
O O16 0.728927 0.000000 0.286061
O O17 0.729230 0.958351 0.000000
O O18 0.639270 0.388289 0.000000
#
# Coordination Sequence:
#
# PCOD8272002 Si02
#       7
#     8  16  16   8   8  16  16
#     4   9  16  31  57  81 106 145 189 238 287 331
#     4  10  20  35  57  85 119 152 188 236 286 339
#     4   9  16  30  54  82 111 146 187 230 281 335
#     4  11  22  36  57  86 118 152 192 234 293 353
#     4   9  18  32  51  82 118 144 181 237 281 337
#     4  10  22  39  58  82 113 153 198 240 286 339
#     4  10  21  38  57  80 115 153 193 241 289 340
#
# _framework density 20.080438000000001
#
# number of rings (size 3 to 8) (size 9 to 14) (size 15 to 20)
#    0.000    2.273    1.818    1.091    1.273    4.727 
#    0.000    5.455    0.000    2.182    0.000    3.818 
#    0.000    0.000    0.000    0.000    0.000    0.000 
#
# Total GULP energy -545454.272877 kJ/mol
# GULP energy per Si atom -12396.688020 kJ/mol
# Density = 2.003473 g / cm^3
# Si number density = 20.080438 Si / 1000 Ang^3
#
#
#
# Elastic Constant Matrix: (Units=GPa)
#
#
# Indices 1 2 3 4 5 6 
#
# 1 83.4821 45.5304 14.5247 0.0000 0.0000 0.0000
# 2 45.5304 137.2349 59.7529 0.0000 0.0000 0.0000
# 3 14.5247 59.7529 91.0332 0.0000 0.0000 0.0000
# 4 0.0000 0.0000 0.0000 28.7804 0.0000 0.0000
# 5 0.0000 0.0000 0.0000 0.0000 19.5969 0.0000
# 6 0.0000 0.0000 0.0000 0.0000 0.0000 24.5707
#
#
#
# Elastic Compliance Matrix: (Units=1/GPa)
#
#
# Indices 1 2 3 4 5 6 
#
# 1 0.014718 -0.005405 0.001200 0.000000 0.000000 0.000000
# 2 -0.005405 0.012188 -0.007137 0.000000 0.000000 0.000000
# 3 0.001200 -0.007137 0.015479 0.000000 0.000000 0.000000
# 4 0.000000 0.000000 0.000000 0.034746 0.000000 0.000000
# 5 0.000000 0.000000 0.000000 0.000000 0.051028 0.000000
# 6 0.000000 0.000000 0.000000 0.000000 0.000000 0.040699
#
#
# Mechanical properties :
#
#
# Convention : Reuss Voigt Hill
#
# Bulk Modulus (GPa) = 50.76655 61.26292 56.01474
# Shear Modulus (GPa) = 25.23856 27.38575 26.31216
#
# Velocity S-wave (km/s) = 3.54909 3.69698 3.62379
# Velocity P-wave (km/s) = 6.49085 6.98559 6.74276
#
# Compressibility (1/GPa) = 0.01969801
#
# Stress axis : x y z
#
# Youngs Moduli (GPa) = 67.94454 82.04938 64.60566
#
# Poissons Ratio (x) = 0.44350 -0.07750
# Poissons Ratio (y) = 0.36726 0.46112
# Poissons Ratio (z) = -0.08151 0.58562
#
# Static dielectric constant tensor:
#      x y z
#    x 3.514580 0.000000 0.000000 
#    y 0.000000 3.824930 0.000000 
#    z 0.000000 0.000000 3.617310 
# 
# 
# High freq. dielectric constant tensor:
#      x y z
#    x 1.755270 0.000000 0.000000 
#    y 0.000000 1.780170 0.000000 
#    z 0.000000 0.000000 1.785850 
# 
# From -- ./inp_files/10219.got.cif
#   From: 2010.03.12/outbox.cif.g09.slc.cpg/sg65_6_cif.got.tgz:10219.got - 2010.04.10 20:52:16.
