data_PCOD8272864
_publ_section_title
;
Structure prediction by ZEFSAII (Michael W. Deem and Ramdas Pophale) SiO2 
 PCOD8272864
Probable space group: C M M M
;
_chemical_formula_sum "Si O2"
_cell_formula_units_Z 64
_cell_length_a 16.060961
_cell_length_b 8.871059
_cell_length_c 23.628184
_cell_angle_alpha 90.000000
_cell_angle_beta 90.000000
_cell_angle_gamma 90.000000
_cell_volume 3366.490082
_symmetry_space_group_name_H-M "C M M M"
_symmetry_group_IT_number 65
_symmetry_cell_setting 'orthorhombic'
loop_
_space_group_symop_operation_xyz
x,y,z
-x,-y,z
x,-y,-z
-x,y,-z
-x,-y,-z
x,y,-z
-x,y,z
x,-y,z
1/2+x,1/2+y,z
1/2-x,1/2-y,z
1/2+x,1/2-y,-z
1/2-x,1/2+y,-z
1/2-x,1/2-y,-z
1/2+x,1/2+y,-z
1/2-x,1/2+y,z
1/2+x,1/2-y,z
loop_
_atom_site_type_symbol
_atom_site_label
_atom_site_fract_x
_atom_site_fract_y
_atom_site_fract_z
Si Si1 0.835851 0.833184 0.339352
Si Si2 0.902751 0.000000 0.437456
Si Si3 0.594910 0.173627 0.764150
Si Si4 0.664496 0.321138 0.870643
Si Si5 0.500000 0.679095 0.936004
O O1 0.750000 0.750000 0.346400
O O2 0.875962 0.850614 0.402038
O O3 0.896274 0.738178 0.298991
O O4 0.822005 0.000000 0.312589
O O5 0.861010 0.000000 0.500000
O O6 0.000000 0.000000 0.444693
O O7 0.500000 0.193738 0.783681
O O8 0.654078 0.266626 0.806131
O O9 0.622346 0.000000 0.765216
O O10 0.671750 0.500000 0.873230
O O11 0.750000 0.250000 0.895496
O O12 0.584491 0.261574 0.906054
O O13 0.500000 0.500000 0.934104
O O14 0.500000 0.740239 0.000000
#
# Coordination Sequence:
#
# PCOD8272864 Si02
#       5
#    16   8  16  16   8
#     4  10  21  35  57  84 117 151 192 239 291 352
#     4   9  20  38  60  84 113 155 199 243 287 350
#     4  11  22  36  58  86 121 156 193 246 302 357
#     4  11  22  38  61  89 121 159 201 247 301 358
#     4   9  20  40  63  87 119 161 205 246 293 354
#
# _framework density 19.010898999999998
#
# number of rings (size 3 to 8) (size 9 to 14) (size 15 to 20)
#    0.750    1.000    1.250    3.750    0.000    2.000 
#    0.000    0.000    0.000    5.250    0.000    5.250 
#    0.000    0.000    0.000    0.000    0.000    0.000 
#
# Total GULP energy -396696.893274 kJ/mol
# GULP energy per Si atom -12396.777915 kJ/mol
# Density = 1.896763 g / cm^3
# Si number density = 19.010899 Si / 1000 Ang^3
#
#
#
# Elastic Constant Matrix: (Units=GPa)
#
#
# Indices 1 2 3 4 5 6 
#
# 1 128.3524 47.6937 49.2330 0.0000 0.0000 0.0000
# 2 47.6937 89.3237 32.6289 0.0000 0.0000 0.0000
# 3 49.2330 32.6289 120.4835 0.0000 0.0000 0.0000
# 4 0.0000 0.0000 0.0000 22.6920 0.0000 0.0000
# 5 0.0000 0.0000 0.0000 0.0000 23.3927 0.0000
# 6 0.0000 0.0000 0.0000 0.0000 0.0000 29.8056
#
#
#
# Elastic Compliance Matrix: (Units=1/GPa)
#
#
# Indices 1 2 3 4 5 6 
#
# 1 0.010688 -0.004563 -0.003132 0.000000 0.000000 0.000000
# 2 -0.004563 0.014372 -0.002028 0.000000 0.000000 0.000000
# 3 -0.003132 -0.002028 0.010129 0.000000 0.000000 0.000000
# 4 0.000000 0.000000 0.000000 0.044068 0.000000 0.000000
# 5 0.000000 0.000000 0.000000 0.000000 0.042748 0.000000
# 6 0.000000 0.000000 0.000000 0.000000 0.000000 0.033551
#
#
# Mechanical properties :
#
#
# Convention : Reuss Voigt Hill
#
# Bulk Modulus (GPa) = 63.51469 66.36344 64.93906
# Shear Modulus (GPa) = 27.73950 29.08499 28.41225
#
# Velocity S-wave (km/s) = 3.82401 3.91565 3.87010
# Velocity P-wave (km/s) = 7.27870 7.44493 7.36229
#
# Compressibility (1/GPa) = 0.01574439
#
# Stress axis : x y z
#
# Youngs Moduli (GPa) = 93.56566 69.57903 98.72900
#
# Poissons Ratio (x) = 0.31746 0.30919
# Poissons Ratio (y) = 0.42691 0.20020
# Poissons Ratio (z) = 0.29302 0.14109
#
# Static dielectric constant tensor:
#      x y z
#    x 2.762110 0.000000 0.000000 
#    y 0.000000 3.207490 0.000000 
#    z 0.000000 0.000000 3.633200 
# 
# 
# High freq. dielectric constant tensor:
#      x y z
#    x 1.750860 0.000000 0.000000 
#    y 0.000000 1.725830 0.000000 
#    z 0.000000 0.000000 1.728940 
# 
# From -- ./inp_files/74534.got.cif
#   From: 2010.03.12/outbox.cif.g09.slc.cpg/sg65_38_cif.got.tgz:74534.got - 2010.04.10 20:52:16.
