data_PCOD8272624
_publ_section_title
;
Structure prediction by ZEFSAII (Michael W. Deem and Ramdas Pophale) SiO2 
 PCOD8272624
Probable space group: C M M M
;
_chemical_formula_sum "Si O2"
_cell_formula_units_Z 48
_cell_length_a 37.847356
_cell_length_b 9.030650
_cell_length_c 7.490075
_cell_angle_alpha 90.000000
_cell_angle_beta 90.000000
_cell_angle_gamma 90.000000
_cell_volume 2560.004463
_symmetry_space_group_name_H-M "C M M M"
_symmetry_group_IT_number 65
_symmetry_cell_setting 'orthorhombic'
loop_
_space_group_symop_operation_xyz
x,y,z
-x,-y,z
x,-y,-z
-x,y,-z
-x,-y,-z
x,y,-z
-x,y,z
x,-y,z
1/2+x,1/2+y,z
1/2-x,1/2-y,z
1/2+x,1/2-y,-z
1/2-x,1/2+y,-z
1/2-x,1/2-y,-z
1/2+x,1/2+y,-z
1/2-x,1/2+y,z
1/2+x,1/2-y,z
loop_
_atom_site_type_symbol
_atom_site_label
_atom_site_fract_x
_atom_site_fract_y
_atom_site_fract_z
Si Si1 0.212663 0.173035 0.000000
Si Si2 0.541560 0.328627 0.000000
Si Si3 0.913999 0.673260 0.293668
Si Si4 0.341816 0.671619 0.296069
O O1 0.250000 0.250000 0.000000
O O2 0.191019 0.221928 0.175421
O O3 0.219713 0.000000 0.000000
O O4 0.556338 0.253087 0.178010
O O5 0.552317 0.500000 0.000000
O O6 0.500000 0.305451 0.000000
O O7 0.922059 0.708825 0.500000
O O8 0.914878 0.500000 0.253097
O O9 0.875667 0.733699 0.238555
O O10 0.331062 0.702939 0.500000
O O11 0.351232 0.500000 0.263688
#
# Coordination Sequence:
#
# PCOD8272624 Si02
#       4
#     8   8  16  16
#     4  10  21  34  49  73 104 138 175 216 265 317
#     4  11  24  39  56  80 111 149 188 223 264 319
#     4  10  21  37  59  86 112 140 178 226 278 326
#     4   9  18  34  55  77 103 137 177 219 263 316
#
# _framework density 18.749967999999999
#
# number of rings (size 3 to 8) (size 9 to 14) (size 15 to 20)
#    0.000    2.167    0.000    2.500    0.000    7.333 
#    0.000    3.333    0.000    0.000    0.000    0.000 
#    0.000    0.000    0.000    0.000    0.000    0.000 
#
# Total GULP energy -297700.181884 kJ/mol
# GULP energy per Si atom -12404.174245 kJ/mol
# Density = 1.870729 g / cm^3
# Si number density = 18.749968 Si / 1000 Ang^3
#
#
#
# Elastic Constant Matrix: (Units=GPa)
#
#
# Indices 1 2 3 4 5 6 
#
# 1 136.5929 75.8870 80.7134 0.0000 0.0000 0.0000
# 2 75.8870 103.0728 59.6135 0.0000 0.0000 0.0000
# 3 80.7134 59.6135 118.3101 0.0000 0.0000 0.0000
# 4 0.0000 0.0000 0.0000 27.5756 0.0000 0.0000
# 5 0.0000 0.0000 0.0000 0.0000 21.4829 0.0000
# 6 0.0000 0.0000 0.0000 0.0000 0.0000 35.5735
#
#
#
# Elastic Compliance Matrix: (Units=1/GPa)
#
#
# Indices 1 2 3 4 5 6 
#
# 1 0.015493 -0.007471 -0.006805 0.000000 0.000000 0.000000
# 2 -0.007471 0.017294 -0.003618 0.000000 0.000000 0.000000
# 3 -0.006805 -0.003618 0.014918 0.000000 0.000000 0.000000
# 4 0.000000 0.000000 0.000000 0.036264 0.000000 0.000000
# 5 0.000000 0.000000 0.000000 0.000000 0.046549 0.000000
# 6 0.000000 0.000000 0.000000 0.000000 0.000000 0.028111
#
#
# Mechanical properties :
#
#
# Convention : Reuss Voigt Hill
#
# Bulk Modulus (GPa) = 83.90587 87.82261 85.86424
# Shear Modulus (GPa) = 25.20320 26.37721 25.79021
#
# Velocity S-wave (km/s) = 3.67027 3.75478 3.71277
# Velocity P-wave (km/s) = 7.92516 8.10792 8.01706
#
# Compressibility (1/GPa) = 0.01191812
#
# Stress axis : x y z
#
# Youngs Moduli (GPa) = 64.54682 57.82232 67.03399
#
# Poissons Ratio (x) = 0.43196 0.45618
# Poissons Ratio (y) = 0.48220 0.24251
# Poissons Ratio (z) = 0.43925 0.20918
#
# Static dielectric constant tensor:
#      x y z
#    x 3.315810 0.000000 0.000000 
#    y 0.000000 3.498540 0.000000 
#    z 0.000000 0.000000 3.765810 
# 
# 
# High freq. dielectric constant tensor:
#      x y z
#    x 1.721290 0.000000 0.000000 
#    y 0.000000 1.731350 0.000000 
#    z 0.000000 0.000000 1.744340 
# 
# From -- ./inp_files/3029.got.cif
#   From: 2010.03.12/outbox.cif.g09.slc.cpg/sg65_2_cif.got.tgz:3029.got - 2010.04.10 20:52:16.
