data_PCOD8272898
_publ_section_title
;
Structure prediction by ZEFSAII (Michael W. Deem and Ramdas Pophale) SiO2 
 PCOD8272898
Probable space group: C M M M
;
_chemical_formula_sum "Si O2"
_cell_formula_units_Z 104
_cell_length_a 29.404138
_cell_length_b 22.528962
_cell_length_c 9.103145
_cell_angle_alpha 90.000000
_cell_angle_beta 90.000000
_cell_angle_gamma 90.000000
_cell_volume 6030.330228
_symmetry_space_group_name_H-M "C M M M"
_symmetry_group_IT_number 65
_symmetry_cell_setting 'orthorhombic'
loop_
_space_group_symop_operation_xyz
x,y,z
-x,-y,z
x,-y,-z
-x,y,-z
-x,-y,-z
x,y,-z
-x,y,z
x,-y,z
1/2+x,1/2+y,z
1/2-x,1/2-y,z
1/2+x,1/2-y,-z
1/2-x,1/2+y,-z
1/2-x,1/2-y,-z
1/2+x,1/2+y,-z
1/2-x,1/2+y,z
1/2+x,1/2-y,z
loop_
_atom_site_type_symbol
_atom_site_label
_atom_site_fract_x
_atom_site_fract_y
_atom_site_fract_z
Si Si1 0.626622 0.932560 0.671646
Si Si2 0.946163 0.000000 0.168024
Si Si3 0.948094 0.661470 0.669172
Si Si4 0.715590 0.929390 0.165809
Si Si5 0.947114 0.781731 0.170546
Si Si6 0.401926 0.610430 0.672422
Si Si7 0.803439 0.067912 0.330779
O O1 0.636831 0.929815 0.500000
O O2 0.582979 0.893889 0.715640
O O3 0.670842 0.905605 0.751910
O O4 0.616658 0.000000 0.722379
O O5 0.928536 0.058272 0.247772
O O6 0.000000 0.000000 0.175084
O O7 0.928980 0.000000 0.000000
O O8 0.939970 0.679916 0.500000
O O9 0.935158 0.716367 0.772256
O O10 0.000000 0.641540 0.694762
O O11 0.761568 0.904456 0.239628
O O12 0.716525 0.000000 0.177170
O O13 0.713934 0.906301 0.000000
O O14 0.917582 0.827077 0.264294
O O15 0.000000 0.796279 0.195915
O O16 0.933996 0.786466 0.000000
O O17 0.412660 0.606274 0.500000
O O18 0.348226 0.605839 0.703325
O O19 0.789430 0.071425 0.500000
O O20 0.813781 0.000000 0.285096
#
# Coordination Sequence:
#
# PCOD8272898 Si02
#       7
#    16   8  16  16  16  16  16
#     4   9  17  30  50  77 107 136 163 198 248 296
#     4  11  23  35  47  69 103 137 167 207 260 309
#     4   9  18  33  53  76 101 132 171 208 242 290
#     4   9  17  28  45  71 100 132 167 200 239 293
#     4  10  21  36  52  71  97 132 172 210 252 300
#     4  11  21  34  52  74  98 129 170 214 258 303
#     4   9  17  31  48  69  98 128 162 204 252 301
#
# _framework density 17.246154000000001
#
# number of rings (size 3 to 8) (size 9 to 14) (size 15 to 20)
#    0.000    2.385    0.769    2.077    0.000    7.385 
#    0.000    1.538    0.000    0.923    0.000   10.769 
#    0.000    0.000    0.000    0.000    0.000    0.000 
#
# Total GULP energy -644889.766900 kJ/mol
# GULP energy per Si atom -12401.726287 kJ/mol
# Density = 1.720690 g / cm^3
# Si number density = 17.246154 Si / 1000 Ang^3
#
#
#
# Elastic Constant Matrix: (Units=GPa)
#
#
# Indices 1 2 3 4 5 6 
#
# 1 123.9034 63.9075 70.8010 0.0000 0.0000 0.0000
# 2 63.9075 77.4098 49.1293 0.0000 0.0000 0.0000
# 3 70.8010 49.1293 101.8861 0.0000 0.0000 0.0000
# 4 0.0000 0.0000 0.0000 19.9697 0.0000 0.0000
# 5 0.0000 0.0000 0.0000 0.0000 22.9618 0.0000
# 6 0.0000 0.0000 0.0000 0.0000 0.0000 -18.2030
#
#
#
# Elastic Compliance Matrix: (Units=1/GPa)
#
#
# Indices 1 2 3 4 5 6 
#
# 1 0.017180 -0.009520 -0.007348 0.000000 0.000000 0.000000
# 2 -0.009520 0.023890 -0.004905 0.000000 0.000000 0.000000
# 3 -0.007348 -0.004905 0.017286 0.000000 0.000000 0.000000
# 4 0.000000 0.000000 0.000000 0.050076 0.000000 0.000000
# 5 0.000000 0.000000 0.000000 0.000000 0.043551 0.000000
# 6 0.000000 0.000000 0.000000 0.000000 0.000000 -0.054936
#
#
# Mechanical properties :
#
#
# Convention : Reuss Voigt Hill
#
# Bulk Modulus (GPa) = 67.51460 74.54168 71.02814
# Shear Modulus (GPa) = 34.35784 12.90314 23.63049
#
# Velocity S-wave (km/s) = 4.46825 2.73825 3.70562
# Velocity P-wave (km/s) = 8.11499 7.30160 7.71901
#
# Compressibility (1/GPa) = 0.01481161
#
# Stress axis : x y z
#
# Youngs Moduli (GPa) = 58.20878 41.85822 57.85075
#
# Poissons Ratio (x) = 0.39847 0.42507
# Poissons Ratio (y) = 0.55412 0.28373
# Poissons Ratio (z) = 0.42771 0.20530
#
# Static dielectric constant tensor:
#      x y z
#    x 3.317600 0.000000 0.000000 
#    y 0.000000 3.001960 0.000000 
#    z 0.000000 0.000000 3.329890 
# 
# 
# High freq. dielectric constant tensor:
#      x y z
#    x 1.671530 0.000000 0.000000 
#    y 0.000000 1.634170 0.000000 
#    z 0.000000 0.000000 1.674220 
# 
# From -- ./inp_files/14804.got.cif
#   From: 2010.03.12/outbox.cif.g09.slc.cpg/sg65_8_cif.got.tgz:14804.got - 2010.04.10 20:52:16.
