data_PCOD8272366
_publ_section_title
;
Structure prediction by ZEFSAII (Michael W. Deem and Ramdas Pophale) SiO2 
 PCOD8272366
Probable space group: C M M M
;
_chemical_formula_sum "Si O2"
_cell_formula_units_Z 72
_cell_length_a 14.641710
_cell_length_b 30.372345
_cell_length_c 9.092695
_cell_angle_alpha 90.000000
_cell_angle_beta 90.000000
_cell_angle_gamma 90.000000
_cell_volume 4043.549358
_symmetry_space_group_name_H-M "C M M M"
_symmetry_group_IT_number 65
_symmetry_cell_setting 'orthorhombic'
loop_
_space_group_symop_operation_xyz
x,y,z
-x,-y,z
x,-y,-z
-x,y,-z
-x,-y,-z
x,y,-z
-x,y,z
x,-y,z
1/2+x,1/2+y,z
1/2-x,1/2-y,z
1/2+x,1/2-y,-z
1/2-x,1/2+y,-z
1/2-x,1/2-y,-z
1/2+x,1/2+y,-z
1/2-x,1/2+y,z
1/2+x,1/2-y,z
loop_
_atom_site_type_symbol
_atom_site_label
_atom_site_fract_x
_atom_site_fract_y
_atom_site_fract_z
Si Si1 0.745773 0.951718 0.166345
Si Si2 0.314546 0.370748 0.331447
Si Si3 0.685431 0.790467 0.672576
Si Si4 0.000000 0.821582 0.331083
Si Si5 0.395932 0.000000 0.673103
Si Si6 0.000000 0.269224 0.174722
O O1 0.809138 0.914408 0.234297
O O2 0.795634 0.000000 0.172617
O O3 0.651201 0.956088 0.258792
O O4 0.721586 0.938714 0.000000
O O5 0.305814 0.384854 0.500000
O O6 0.236289 0.335876 0.290027
O O7 0.412247 0.350439 0.297353
O O8 0.663976 0.785493 0.500000
O O9 0.750000 0.750000 0.723468
O O10 0.590817 0.791880 0.760846
O O11 0.000000 0.804258 0.500000
O O12 0.000000 0.781471 0.219657
O O13 0.500000 0.000000 0.721555
O O14 0.382776 0.000000 0.500000
O O15 0.000000 0.274063 0.000000
#
# Coordination Sequence:
#
# PCOD8272366 Si02
#       6
#    16  16  16   8   8   8
#     4   9  20  36  55  80 115 151 180 225 288 340
#     4  10  20  36  62  87 109 147 194 241 285 334
#     4  10  20  38  61  81 108 148 192 238 282 334
#     4  10  20  38  61  85 112 148 198 237 284 345
#     4   9  17  33  59  84 105 138 189 235 274 332
#     4  12  24  36  54  85 120 155 190 233 293 349
#
# _framework density 17.806138000000001
#
# number of rings (size 3 to 8) (size 9 to 14) (size 15 to 20)
#    0.667    1.444    2.222    1.667    0.000    3.111 
#    2.000    0.556    0.000    3.333    0.000    0.000 
#    0.000    0.000    0.000    0.000    0.000    0.000 
#
# Total GULP energy -446273.163251 kJ/mol
# GULP energy per Si atom -12396.476757 kJ/mol
# Density = 1.776561 g / cm^3
# Si number density = 17.806138 Si / 1000 Ang^3
#
#
#
# Elastic Constant Matrix: (Units=GPa)
#
#
# Indices 1 2 3 4 5 6 
#
# 1 135.6277 50.1134 63.2049 0.0000 0.0000 0.0000
# 2 50.1134 97.5040 52.1460 0.0000 0.0000 0.0000
# 3 63.2049 52.1460 98.0153 0.0000 0.0000 0.0000
# 4 0.0000 0.0000 0.0000 28.3626 0.0000 0.0000
# 5 0.0000 0.0000 0.0000 0.0000 9.0736 0.0000
# 6 0.0000 0.0000 0.0000 0.0000 0.0000 15.2988
#
#
#
# Elastic Compliance Matrix: (Units=1/GPa)
#
#
# Indices 1 2 3 4 5 6 
#
# 1 0.010992 -0.002598 -0.005706 0.000000 0.000000 0.000000
# 2 -0.002598 0.014949 -0.006278 0.000000 0.000000 0.000000
# 3 -0.005706 -0.006278 0.017222 0.000000 0.000000 0.000000
# 4 0.000000 0.000000 0.000000 0.035258 0.000000 0.000000
# 5 0.000000 0.000000 0.000000 0.000000 0.110209 0.000000
# 6 0.000000 0.000000 0.000000 0.000000 0.000000 0.065365
#
#
# Mechanical properties :
#
#
# Convention : Reuss Voigt Hill
#
# Bulk Modulus (GPa) = 71.43242 73.56395 72.49819
# Shear Modulus (GPa) = 17.37172 21.59253 19.48212
#
# Velocity S-wave (km/s) = 3.12685 3.48608 3.31134
# Velocity P-wave (km/s) = 7.29658 7.58994 7.44471
#
# Compressibility (1/GPa) = 0.01399925
#
# Stress axis : x y z
#
# Youngs Moduli (GPa) = 90.97370 66.89604 58.06538
#
# Poissons Ratio (x) = 0.17379 0.33133
# Poissons Ratio (y) = 0.23634 0.36452
# Poissons Ratio (z) = 0.51911 0.41995
#
# Static dielectric constant tensor:
#      x y z
#    x 3.247290 0.000000 0.000000 
#    y 0.000000 3.173800 0.000000 
#    z 0.000000 0.000000 3.232900 
# 
# 
# High freq. dielectric constant tensor:
#      x y z
#    x 1.684200 0.000000 0.000000 
#    y 0.000000 1.680440 0.000000 
#    z 0.000000 0.000000 1.688980 
# 
# From -- ./inp_files/7775.got.cif
#   From: 2010.03.12/outbox.cif.g09.slc.cpg/sg65_4_cif.got.tgz:7775.got - 2010.04.10 20:52:16.
