data_PCOD8272703
_publ_section_title
;
Structure prediction by ZEFSAII (Michael W. Deem and Ramdas Pophale) SiO2 
 PCOD8272703
Probable space group: C M M M
;
_chemical_formula_sum "Si O2"
_cell_formula_units_Z 96
_cell_length_a 14.721718
_cell_length_b 14.195518
_cell_length_c 22.622413
_cell_angle_alpha 90.000000
_cell_angle_beta 90.000000
_cell_angle_gamma 90.000000
_cell_volume 4727.686453
_symmetry_space_group_name_H-M "C M M M"
_symmetry_group_IT_number 65
_symmetry_cell_setting 'orthorhombic'
loop_
_space_group_symop_operation_xyz
x,y,z
-x,-y,z
x,-y,-z
-x,y,-z
-x,-y,-z
x,y,-z
-x,y,z
x,-y,z
1/2+x,1/2+y,z
1/2-x,1/2-y,z
1/2+x,1/2-y,-z
1/2-x,1/2+y,-z
1/2-x,1/2-y,-z
1/2+x,1/2+y,-z
1/2-x,1/2+y,z
1/2+x,1/2-y,z
loop_
_atom_site_type_symbol
_atom_site_label
_atom_site_fract_x
_atom_site_fract_y
_atom_site_fract_z
Si Si1 0.867501 0.397619 0.164011
Si Si2 0.755167 0.608680 0.569640
Si Si3 0.396955 0.247990 0.934236
Si Si4 0.658115 0.397165 0.155674
Si Si5 0.141735 0.243576 0.252327
Si Si6 0.896110 0.755496 0.614392
O O1 0.915560 0.500000 0.165862
O O2 0.890477 0.349048 0.101761
O O3 0.761600 0.411368 0.171398
O O4 0.900182 0.335115 0.219587
O O5 0.767210 0.617899 0.500000
O O6 0.753652 0.500000 0.590325
O O7 0.841918 0.659358 0.599463
O O8 0.659647 0.656461 0.587656
O O9 0.500000 0.281526 0.937980
O O10 0.343613 0.332740 0.902739
O O11 0.356617 0.232380 0.000000
O O12 0.612179 0.500000 0.145539
O O13 0.612011 0.344994 0.211495
O O14 0.250000 0.250000 0.259467
O O15 0.095844 0.232564 0.315480
O O16 0.000000 0.753047 0.589168
#
# Coordination Sequence:
#
# PCOD8272703 Si02
#       6
#    16  16  16  16  16  16
#     4   9  19  35  56  79 103 138 181 226 278 333
#     4  10  23  43  64  89 125 166 203 247 302 352
#     4  10  21  35  50  71 103 141 179 224 279 337
#     4   9  19  35  56  79 103 138 181 226 278 333
#     4   9  17  34  54  83 115 149 180 229 286 346
#     4  11  22  38  63  94 123 159 207 252 297 354
#
# _framework density 20.305914000000001
#
# number of rings (size 3 to 8) (size 9 to 14) (size 15 to 20)
#    0.000    2.333    1.667    2.500    0.000    8.667 
#    0.000    5.000    0.000    0.000    0.000    0.000 
#    0.000    0.000    0.000    0.000    0.000    0.000 
#
# Total GULP energy -594926.134654 kJ/mol
# GULP energy per Si atom -12394.294472 kJ/mol
# Density = 2.025970 g / cm^3
# Si number density = 20.305914 Si / 1000 Ang^3
#
#
#
# Elastic Constant Matrix: (Units=GPa)
#
#
# Indices 1 2 3 4 5 6 
#
# 1 95.4450 32.9193 10.2601 0.0000 0.0000 0.0000
# 2 32.9193 166.8371 40.5061 0.0000 0.0000 0.0000
# 3 10.2601 40.5061 110.8773 0.0000 0.0000 0.0000
# 4 0.0000 0.0000 0.0000 14.2545 0.0000 0.0000
# 5 0.0000 0.0000 0.0000 0.0000 -8.3058 0.0000
# 6 0.0000 0.0000 0.0000 0.0000 0.0000 -3.8334
#
#
#
# Elastic Compliance Matrix: (Units=1/GPa)
#
#
# Indices 1 2 3 4 5 6 
#
# 1 0.011249 -0.002158 -0.000252 0.000000 0.000000 0.000000
# 2 -0.002158 0.006991 -0.002354 0.000000 0.000000 0.000000
# 3 -0.000252 -0.002354 0.009902 0.000000 0.000000 0.000000
# 4 0.000000 0.000000 0.000000 0.070153 0.000000 0.000000
# 5 0.000000 0.000000 0.000000 0.000000 -0.120397 0.000000
# 6 0.000000 0.000000 0.000000 0.000000 0.000000 -0.260866
#
#
# Mechanical properties :
#
#
# Convention : Reuss Voigt Hill
#
# Bulk Modulus (GPa) = 53.72765 60.05892 56.89328
# Shear Modulus (GPa) = -18.71023 19.72132 0.50554
#
# Velocity S-wave (km/s) = -3.03878 3.11981 0.49950
# Velocity P-wave (km/s) = 3.76886 6.52831 5.33025
#
# Compressibility (1/GPa) = 0.01861239
#
# Stress axis : x y z
#
# Youngs Moduli (GPa) = 88.89865 143.03400 100.98502
#
# Poissons Ratio (x) = 0.30870 0.02549
# Poissons Ratio (y) = 0.19187 0.23776
# Poissons Ratio (z) = 0.02244 0.33676
#
# Static dielectric constant tensor:
#      x y z
#    x 3.592750 0.000000 0.000000 
#    y 0.000000 4.281960 0.000000 
#    z 0.000000 0.000000 3.729830 
# 
# 
# High freq. dielectric constant tensor:
#      x y z
#    x 1.788600 0.000000 0.000000 
#    y 0.000000 1.793580 0.000000 
#    z 0.000000 0.000000 1.791130 
# 
# From -- ./inp_files/62575.got.cif
#   From: 2010.03.12/outbox.cif.g09.slc.cpg/sg65_32_cif.got.tgz:62575.got - 2010.04.10 20:52:16.
