data_PCOD8272418
_publ_section_title
;
Structure prediction by ZEFSAII (Michael W. Deem and Ramdas Pophale) SiO2 
 PCOD8272418
Probable space group: C M M M
;
_chemical_formula_sum "Si O2"
_cell_formula_units_Z 72
_cell_length_a 29.528482
_cell_length_b 11.042411
_cell_length_c 11.983276
_cell_angle_alpha 90.000000
_cell_angle_beta 90.000000
_cell_angle_gamma 90.000000
_cell_volume 3907.334492
_symmetry_space_group_name_H-M "C M M M"
_symmetry_group_IT_number 65
_symmetry_cell_setting 'orthorhombic'
loop_
_space_group_symop_operation_xyz
x,y,z
-x,-y,z
x,-y,-z
-x,y,-z
-x,-y,-z
x,y,-z
-x,y,z
x,-y,z
1/2+x,1/2+y,z
1/2-x,1/2-y,z
1/2+x,1/2-y,-z
1/2-x,1/2+y,-z
1/2-x,1/2-y,-z
1/2+x,1/2+y,-z
1/2-x,1/2+y,z
1/2+x,1/2-y,z
loop_
_atom_site_type_symbol
_atom_site_label
_atom_site_fract_x
_atom_site_fract_y
_atom_site_fract_z
Si Si1 0.946357 0.000000 0.124341
Si Si2 0.418277 0.859102 0.000000
Si Si3 0.318599 0.859154 0.000000
Si Si4 0.374327 0.860123 0.374549
Si Si5 0.783096 0.357181 0.761237
Si Si6 0.448318 0.252260 0.777200
O O1 0.929871 0.114891 0.193659
O O2 0.000000 0.000000 0.111340
O O3 0.924763 0.000000 0.000000
O O4 0.446044 0.825277 0.890061
O O5 0.368306 0.796225 0.000000
O O6 0.411651 0.000000 0.000000
O O7 0.290415 0.824231 0.109381
O O8 0.328035 0.000000 0.000000
O O9 0.366595 0.811522 0.500000
O O10 0.329536 0.836875 0.303719
O O11 0.417236 0.794443 0.321858
O O12 0.386784 0.000000 0.375210
O O13 0.766629 0.500000 0.745799
O O14 0.750000 0.250000 0.715477
O O15 0.500000 0.252275 0.734309
#
# Coordination Sequence:
#
# PCOD8272418 Si02
#       6
#     8   8   8  16  16  16
#     4   9  18  34  53  77 111 151 186 225 281 339
#     4  11  19  30  52  86 117 146 184 230 283 340
#     4   9  17  32  55  80 114 148 175 221 290 352
#     4  10  22  40  59  81 114 153 191 237 290 334
#     4  10  20  37  60  84 113 148 185 231 290 349
#     4  11  21  35  57  83 114 152 193 233 280 338
#
# _framework density 18.426884000000001
#
# number of rings (size 3 to 8) (size 9 to 14) (size 15 to 20)
#    0.000    1.889    3.333    1.333    0.000    3.111 
#    2.000    1.667    2.444    2.000    0.000    0.000 
#    0.000    0.000    0.000    0.000    0.000    0.000 
#
# Total GULP energy -446194.815022 kJ/mol
# GULP energy per Si atom -12394.300417 kJ/mol
# Density = 1.838494 g / cm^3
# Si number density = 18.426884 Si / 1000 Ang^3
#
#
#
# Elastic Constant Matrix: (Units=GPa)
#
#
# Indices 1 2 3 4 5 6 
#
# 1 85.5796 53.7176 34.4485 0.0000 0.0000 0.0000
# 2 53.7176 92.1545 38.9028 0.0000 0.0000 0.0000
# 3 34.4485 38.9028 112.0995 0.0000 0.0000 0.0000
# 4 0.0000 0.0000 0.0000 18.4480 0.0000 0.0000
# 5 0.0000 0.0000 0.0000 0.0000 -1.1549 0.0000
# 6 0.0000 0.0000 0.0000 0.0000 0.0000 30.4405
#
#
#
# Elastic Compliance Matrix: (Units=1/GPa)
#
#
# Indices 1 2 3 4 5 6 
#
# 1 0.018933 -0.010053 -0.002329 0.000000 0.000000 0.000000
# 2 -0.010053 0.018052 -0.003175 0.000000 0.000000 0.000000
# 3 -0.002329 -0.003175 0.010738 0.000000 0.000000 0.000000
# 4 0.000000 0.000000 0.000000 0.054207 0.000000 0.000000
# 5 0.000000 0.000000 0.000000 0.000000 -0.865855 0.000000
# 6 0.000000 0.000000 0.000000 0.000000 0.000000 0.032851
#
#
# Mechanical properties :
#
#
# Convention : Reuss Voigt Hill
#
# Bulk Modulus (GPa) = 60.21256 60.44127 60.32691
# Shear Modulus (GPa) = -7.20022 20.39768 6.59873
#
# Velocity S-wave (km/s) = -1.97887 3.33070 1.89442
# Velocity P-wave (km/s) = 5.24654 6.90385 6.13145
#
# Compressibility (1/GPa) = 0.01660783
#
# Stress axis : x y z
#
# Youngs Moduli (GPa) = 52.81882 55.39684 93.12322
#
# Poissons Ratio (x) = 0.55688 0.21692
# Poissons Ratio (y) = 0.53097 0.29570
# Poissons Ratio (z) = 0.12304 0.17591
#
# Static dielectric constant tensor:
#      x y z
#    x 3.307250 0.000000 0.000000 
#    y 0.000000 4.052460 0.000000 
#    z 0.000000 0.000000 3.528350 
# 
# 
# High freq. dielectric constant tensor:
#      x y z
#    x 1.705890 0.000000 0.000000 
#    y 0.000000 1.709440 0.000000 
#    z 0.000000 0.000000 1.708330 
# 
# From -- ./inp_files/32025.got.cif
#   From: 2010.03.12/outbox.cif.g09.slc.cpg/sg65_17_cif.got.tgz:32025.got - 2010.04.10 20:52:16.
