data_PCOD8272601
_publ_section_title
;
Structure prediction by ZEFSAII (Michael W. Deem and Ramdas Pophale) SiO2 
 PCOD8272601
Probable space group: C M M M
;
_chemical_formula_sum "Si O2"
_cell_formula_units_Z 72
_cell_length_a 25.187115
_cell_length_b 9.068944
_cell_length_c 16.715855
_cell_angle_alpha 90.000000
_cell_angle_beta 90.000000
_cell_angle_gamma 90.000000
_cell_volume 3818.244550
_symmetry_space_group_name_H-M "C M M M"
_symmetry_group_IT_number 65
_symmetry_cell_setting 'orthorhombic'
loop_
_space_group_symop_operation_xyz
x,y,z
-x,-y,z
x,-y,-z
-x,y,-z
-x,-y,-z
x,y,-z
-x,y,z
x,-y,z
1/2+x,1/2+y,z
1/2-x,1/2-y,z
1/2+x,1/2-y,-z
1/2-x,1/2+y,-z
1/2-x,1/2-y,-z
1/2+x,1/2+y,-z
1/2-x,1/2+y,z
1/2+x,1/2-y,z
loop_
_atom_site_type_symbol
_atom_site_label
_atom_site_fract_x
_atom_site_fract_y
_atom_site_fract_z
Si Si1 0.585275 0.832047 0.306087
Si Si2 0.941132 0.333062 0.126022
Si Si3 0.302094 0.174266 0.756490
Si Si4 0.660147 0.330297 0.910876
Si Si5 0.500000 0.672556 0.407644
O O1 0.557186 0.812585 0.221190
O O2 0.647040 0.782461 0.297563
O O3 0.554282 0.734089 0.369880
O O4 0.582050 0.000000 0.335762
O O5 0.922615 0.500000 0.105745
O O6 0.901382 0.218544 0.085537
O O7 0.000000 0.303213 0.092193
O O8 0.250000 0.250000 0.718091
O O9 0.308321 0.231003 0.847581
O O10 0.294613 0.000000 0.760290
O O11 0.663325 0.500000 0.883635
O O12 0.684303 0.309665 0.000000
O O13 0.500000 0.500000 0.393712
O O14 0.500000 0.716652 0.500000
#
# Coordination Sequence:
#
# PCOD8272601 Si02
#       5
#    16  16  16  16   8
#     4   9  18  35  56  79 108 141 178 216 257 314
#     4   9  17  31  50  71  98 134 178 223 268 321
#     4  10  21  37  58  81 104 136 181 227 271 320
#     4  10  21  34  47  69 102 138 179 226 274 322
#     4  11  23  35  53  87 122 147 172 207 255 306
#
# _framework density 18.856832000000001
#
# number of rings (size 3 to 8) (size 9 to 14) (size 15 to 20)
#    0.000    2.333    1.111    3.000    0.000    8.444 
#    0.000    2.222    0.000    0.667    0.000    0.000 
#    0.000    0.000    0.000    0.000    0.000    0.000 
#
# Total GULP energy -446320.296556 kJ/mol
# GULP energy per Si atom -12397.786015 kJ/mol
# Density = 1.881391 g / cm^3
# Si number density = 18.856832 Si / 1000 Ang^3
#
#
#
# Elastic Constant Matrix: (Units=GPa)
#
#
# Indices 1 2 3 4 5 6 
#
# 1 128.1499 50.9849 40.7726 0.0000 0.0000 0.0000
# 2 50.9849 90.6220 44.9302 0.0000 0.0000 0.0000
# 3 40.7726 44.9302 79.8863 0.0000 0.0000 0.0000
# 4 0.0000 0.0000 0.0000 24.8352 0.0000 0.0000
# 5 0.0000 0.0000 0.0000 0.0000 -0.6312 0.0000
# 6 0.0000 0.0000 0.0000 0.0000 0.0000 36.5426
#
#
#
# Elastic Compliance Matrix: (Units=1/GPa)
#
#
# Indices 1 2 3 4 5 6 
#
# 1 0.010493 -0.004504 -0.002822 0.000000 0.000000 0.000000
# 2 -0.004504 0.017235 -0.007395 0.000000 0.000000 0.000000
# 3 -0.002822 -0.007395 0.018117 0.000000 0.000000 0.000000
# 4 0.000000 0.000000 0.000000 0.040265 0.000000 0.000000
# 5 0.000000 0.000000 0.000000 0.000000 -1.584335 0.000000
# 6 0.000000 0.000000 0.000000 0.000000 0.000000 0.027365
#
#
# Mechanical properties :
#
#
# Convention : Reuss Voigt Hill
#
# Bulk Modulus (GPa) = 60.96340 63.55929 62.26135
# Shear Modulus (GPa) = -3.48202 22.94734 9.73266
#
# Velocity S-wave (km/s) = -1.36035 3.49223 2.27432
# Velocity P-wave (km/s) = 5.47105 7.07392 6.32348
#
# Compressibility (1/GPa) = 0.01640328
#
# Stress axis : x y z
#
# Youngs Moduli (GPa) = 95.29801 58.02030 55.19625
#
# Poissons Ratio (x) = 0.26135 0.15578
# Poissons Ratio (y) = 0.42926 0.40816
# Poissons Ratio (z) = 0.26895 0.42904
#
# Static dielectric constant tensor:
#      x y z
#    x 3.630420 0.000000 0.000000 
#    y 0.000000 3.445500 0.000000 
#    z 0.000000 0.000000 3.112380 
# 
# 
# High freq. dielectric constant tensor:
#      x y z
#    x 1.740920 0.000000 0.000000 
#    y 0.000000 1.734040 0.000000 
#    z 0.000000 0.000000 1.693920 
# 
# From -- ./inp_files/36574.got.cif
#   From: 2010.03.12/outbox.cif.g09.slc.cpg/sg65_19_cif.got.tgz:36574.got - 2010.04.10 20:52:16.
