data_PCOD8272907
_publ_section_title
;
Structure prediction by ZEFSAII (Michael W. Deem and Ramdas Pophale) SiO2 
 PCOD8272907
Probable space group: C M M M
;
_chemical_formula_sum "Si O2"
_cell_formula_units_Z 72
_cell_length_a 8.914218
_cell_length_b 29.381360
_cell_length_c 15.481335
_cell_angle_alpha 90.000000
_cell_angle_beta 90.000000
_cell_angle_gamma 90.000000
_cell_volume 4054.745062
_symmetry_space_group_name_H-M "C M M M"
_symmetry_group_IT_number 65
_symmetry_cell_setting 'orthorhombic'
loop_
_space_group_symop_operation_xyz
x,y,z
-x,-y,z
x,-y,-z
-x,y,-z
-x,-y,-z
x,y,-z
-x,y,z
x,-y,z
1/2+x,1/2+y,z
1/2-x,1/2-y,z
1/2+x,1/2-y,-z
1/2-x,1/2+y,-z
1/2-x,1/2-y,-z
1/2+x,1/2+y,-z
1/2-x,1/2+y,z
1/2+x,1/2-y,z
loop_
_atom_site_type_symbol
_atom_site_label
_atom_site_fract_x
_atom_site_fract_y
_atom_site_fract_z
Si Si1 0.827398 0.949632 0.229188
Si Si2 0.175739 0.702911 0.404043
Si Si3 0.822976 0.798426 0.899870
Si Si4 0.331926 0.000000 0.100102
Si Si5 0.322647 0.858563 0.753344
O O1 0.733162 0.909224 0.271387
O O2 0.000000 0.935243 0.224343
O O3 0.807987 0.000000 0.275562
O O4 0.758242 0.955288 0.132669
O O5 0.226084 0.686424 0.500000
O O6 0.250000 0.750000 0.379030
O O7 0.228880 0.667728 0.332132
O O8 0.000000 0.710358 0.400850
O O9 0.750000 0.750000 0.874942
O O10 0.755164 0.837765 0.838706
O O11 0.000000 0.794905 0.883814
O O12 0.787239 0.810522 0.000000
O O13 0.500000 0.000000 0.138936
O O14 0.337080 0.000000 0.000000
O O15 0.500000 0.857971 0.768155
#
# Coordination Sequence:
#
# PCOD8272907 Si02
#       5
#    16  16  16   8  16
#     4   9  20  35  51  72 100 135 171 214 262 310
#     4   9  19  35  54  80 111 140 173 214 263 318
#     4  10  21  36  52  72 103 140 176 216 260 310
#     4   9  17  31  51  73  98 129 168 215 263 310
#     4  11  21  33  55  80 104 139 178 219 264 315
#
# _framework density 17.756972999999999
#
# number of rings (size 3 to 8) (size 9 to 14) (size 15 to 20)
#    0.667    1.667    0.000    2.667    0.000    6.667 
#    0.000    0.000    0.000    0.667    0.000    4.667 
#    0.000    0.000    0.000    0.000    0.000    0.000 
#
# Total GULP energy -446024.152259 kJ/mol
# GULP energy per Si atom -12389.559785 kJ/mol
# Density = 1.771656 g / cm^3
# Si number density = 17.756973 Si / 1000 Ang^3
#
#
#
# Elastic Constant Matrix: (Units=GPa)
#
#
# Indices 1 2 3 4 5 6 
#
# 1 74.7142 45.8164 45.2050 0.0000 0.0000 0.0000
# 2 45.8164 123.2048 64.1266 0.0000 0.0000 0.0000
# 3 45.2050 64.1266 88.8325 0.0000 0.0000 0.0000
# 4 0.0000 0.0000 0.0000 17.4128 0.0000 0.0000
# 5 0.0000 0.0000 0.0000 0.0000 18.1878 0.0000
# 6 0.0000 0.0000 0.0000 0.0000 0.0000 34.2138
#
#
#
# Elastic Compliance Matrix: (Units=1/GPa)
#
#
# Indices 1 2 3 4 5 6 
#
# 1 0.020222 -0.003466 -0.007788 0.000000 0.000000 0.000000
# 2 -0.003466 0.013596 -0.008051 0.000000 0.000000 0.000000
# 3 -0.007788 -0.008051 0.021032 0.000000 0.000000 0.000000
# 4 0.000000 0.000000 0.000000 0.057429 0.000000 0.000000
# 5 0.000000 0.000000 0.000000 0.000000 0.054982 0.000000
# 6 0.000000 0.000000 0.000000 0.000000 0.000000 0.029228
#
#
# Mechanical properties :
#
#
# Convention : Reuss Voigt Hill
#
# Bulk Modulus (GPa) = 61.57842 66.33860 63.95851
# Shear Modulus (GPa) = 20.78888 22.73645 21.76266
#
# Velocity S-wave (km/s) = 3.42533 3.58218 3.50463
# Velocity P-wave (km/s) = 7.09912 7.38577 7.24387
#
# Compressibility (1/GPa) = 0.01623946
#
# Stress axis : x y z
#
# Youngs Moduli (GPa) = 49.45054 73.55160 47.54620
#
# Poissons Ratio (x) = 0.25495 0.37031
# Poissons Ratio (y) = 0.17141 0.38278
# Poissons Ratio (z) = 0.38514 0.59214
#
# Static dielectric constant tensor:
#      x y z
#    x 3.519100 0.000000 0.000000 
#    y 0.000000 3.860110 0.000000 
#    z 0.000000 0.000000 3.271600 
# 
# 
# High freq. dielectric constant tensor:
#      x y z
#    x 1.703020 0.000000 0.000000 
#    y 0.000000 1.683080 0.000000 
#    z 0.000000 0.000000 1.663510 
# 
# From -- ./inp_files/36955.got.cif
#   From: 2010.03.12/outbox.cif.g09.slc.cpg/sg65_19_cif.got.tgz:36955.got - 2010.04.10 20:52:16.
