data_PCOD8272952
_publ_section_title
;
Structure prediction by ZEFSAII (Michael W. Deem and Ramdas Pophale) SiO2 
 PCOD8272952
Probable space group: C M M M
;
_chemical_formula_sum "Si O2"
_cell_formula_units_Z 80
_cell_length_a 9.006985
_cell_length_b 18.976093
_cell_length_c 25.848000
_cell_angle_alpha 90.000000
_cell_angle_beta 90.000000
_cell_angle_gamma 90.000000
_cell_volume 4417.872568
_symmetry_space_group_name_H-M "C M M M"
_symmetry_group_IT_number 65
_symmetry_cell_setting 'orthorhombic'
loop_
_space_group_symop_operation_xyz
x,y,z
-x,-y,z
x,-y,-z
-x,y,-z
-x,-y,-z
x,y,-z
-x,y,z
x,-y,z
1/2+x,1/2+y,z
1/2-x,1/2-y,z
1/2+x,1/2-y,-z
1/2-x,1/2+y,-z
1/2-x,1/2-y,-z
1/2+x,1/2+y,-z
1/2-x,1/2+y,z
1/2+x,1/2-y,z
loop_
_atom_site_type_symbol
_atom_site_label
_atom_site_fract_x
_atom_site_fract_y
_atom_site_fract_z
Si Si1 0.827317 0.324426 0.733522
Si Si2 0.326402 0.174424 0.847256
Si Si3 0.174632 0.580994 0.639108
Si Si4 0.673057 0.321614 0.439862
Si Si5 0.326682 0.325783 0.943795
O O1 0.750000 0.250000 0.724634
O O2 0.795971 0.358751 0.790455
O O3 0.771051 0.379983 0.691154
O O4 0.000000 0.309019 0.727147
O O5 0.500000 0.180934 0.858620
O O6 0.250000 0.250000 0.845772
O O7 0.249587 0.131803 0.895444
O O8 0.220211 0.500000 0.644704
O O9 0.259490 0.612206 0.589970
O O10 0.000000 0.590170 0.630190
O O11 0.706141 0.334326 0.500000
O O12 0.500000 0.314956 0.428030
O O13 0.750000 0.250000 0.420149
O O14 0.500000 0.316857 0.932340
O O15 0.250000 0.250000 0.946351
O O16 0.302086 0.363470 0.000000
#
# Coordination Sequence:
#
# PCOD8272952 Si02
#       5
#    16  16  16  16  16
#     4   9  18  31  47  68  92 121 158 198 239 282
#     4   9  15  23  36  54  78 108 144 184 225 272
#     4  10  21  36  53  74 102 134 166 201 243 291
#     4  10  21  37  57  80 105 132 164 202 241 284
#     4   9  15  21  30  47  74 107 141 177 220 271
#
# _framework density 18.108263999999998
#
# number of rings (size 3 to 8) (size 9 to 14) (size 15 to 20)
#    0.000    2.600    0.000    3.600    0.000    6.400 
#    0.000    2.000    0.000    0.000    0.000    0.000 
#    0.000    0.800    0.000   10.000    0.000    5.400 
#
# Total GULP energy -495631.188327 kJ/mol
# GULP energy per Si atom -12390.779708 kJ/mol
# Density = 1.806705 g / cm^3
# Si number density = 18.108264 Si / 1000 Ang^3
#
#
#
# Elastic Constant Matrix: (Units=GPa)
#
#
# Indices 1 2 3 4 5 6 
#
# 1 88.4306 37.9977 61.5528 0.0000 0.0000 0.0000
# 2 37.9977 80.9840 63.3921 0.0000 0.0000 0.0000
# 3 61.5528 63.3921 143.3329 0.0000 0.0000 0.0000
# 4 0.0000 0.0000 0.0000 3.7116 0.0000 0.0000
# 5 0.0000 0.0000 0.0000 0.0000 31.9119 0.0000
# 6 0.0000 0.0000 0.0000 0.0000 0.0000 17.5425
#
#
#
# Elastic Compliance Matrix: (Units=1/GPa)
#
#
# Indices 1 2 3 4 5 6 
#
# 1 0.016721 -0.003403 -0.005676 0.000000 0.000000 0.000000
# 2 -0.003403 0.019579 -0.007198 0.000000 0.000000 0.000000
# 3 -0.005676 -0.007198 0.012598 0.000000 0.000000 0.000000
# 4 0.000000 0.000000 0.000000 0.269429 0.000000 0.000000
# 5 0.000000 0.000000 0.000000 0.000000 0.031336 0.000000
# 6 0.000000 0.000000 0.000000 0.000000 0.000000 0.057004
#
#
# Mechanical properties :
#
#
# Convention : Reuss Voigt Hill
#
# Bulk Modulus (GPa) = 61.18147 70.95922 66.07034
# Shear Modulus (GPa) = 11.24434 20.62020 15.93227
#
# Velocity S-wave (km/s) = 2.49459 3.37815 2.96942
# Velocity P-wave (km/s) = 6.49285 7.38153 6.95141
#
# Compressibility (1/GPa) = 0.01634482
#
# Stress axis : x y z
#
# Youngs Moduli (GPa) = 59.80480 51.07491 79.37984
#
# Poissons Ratio (x) = 0.17379 0.45054
# Poissons Ratio (y) = 0.20350 0.57138
# Poissons Ratio (z) = 0.33944 0.36764
#
# Static dielectric constant tensor:
#      x y z
#    x 3.415560 0.000000 0.000000 
#    y 0.000000 3.109460 0.000000 
#    z 0.000000 0.000000 4.605020 
# 
# 
# High freq. dielectric constant tensor:
#      x y z
#    x 1.710030 0.000000 0.000000 
#    y 0.000000 1.630600 0.000000 
#    z 0.000000 0.000000 1.734880 
# 
# From -- ./inp_files/72823.got.cif
#   From: 2010.03.12/outbox.cif.g09.slc.cpg/sg65_37_cif.got.tgz:72823.got - 2010.04.10 20:52:16.
