data_PCOD8272041
_publ_section_title
;
Structure prediction by ZEFSAII (Michael W. Deem and Ramdas Pophale) SiO2 
 PCOD8272041
Probable space group: C M M M
;
_chemical_formula_sum "Si O2"
_cell_formula_units_Z 64
_cell_length_a 33.056226
_cell_length_b 10.912880
_cell_length_c 8.900721
_cell_angle_alpha 90.000000
_cell_angle_beta 90.000000
_cell_angle_gamma 90.000000
_cell_volume 3210.833878
_symmetry_space_group_name_H-M "C M M M"
_symmetry_group_IT_number 65
_symmetry_cell_setting 'orthorhombic'
loop_
_space_group_symop_operation_xyz
x,y,z
-x,-y,z
x,-y,-z
-x,y,-z
-x,-y,-z
x,y,-z
-x,y,z
x,-y,z
1/2+x,1/2+y,z
1/2-x,1/2-y,z
1/2+x,1/2-y,-z
1/2-x,1/2+y,-z
1/2-x,1/2-y,-z
1/2+x,1/2+y,-z
1/2-x,1/2+y,z
1/2+x,1/2-y,z
loop_
_atom_site_type_symbol
_atom_site_label
_atom_site_fract_x
_atom_site_fract_y
_atom_site_fract_z
Si Si1 0.286073 0.000000 0.178561
Si Si2 0.500000 0.869058 0.178032
Si Si3 0.168287 0.251200 0.173281
Si Si4 0.454680 0.500000 0.325333
Si Si5 0.198796 0.000000 0.678989
Si Si6 0.577145 0.274994 0.827213
O O1 0.308774 0.874296 0.228342
O O2 0.244599 0.000000 0.267101
O O3 0.279229 0.000000 0.000000
O O4 0.541307 0.809453 0.234875
O O5 0.500000 0.000000 0.255109
O O6 0.500000 0.876880 0.000000
O O7 0.178486 0.126428 0.262693
O O8 0.121055 0.285222 0.193627
O O9 0.178925 0.224193 0.000000
O O10 0.500000 0.500000 0.249710
O O11 0.461090 0.500000 0.500000
O O12 0.425916 0.391456 0.276580
O O13 0.196339 0.000000 0.500000
O O14 0.569654 0.311714 0.000000
#
# Coordination Sequence:
#
# PCOD8272041 Si02
#       6
#     8   8  16   8   8  16
#     4  10  22  41  65  91 121 153 190 240 299 358
#     4   9  18  31  53  84 116 147 182 231 282 329
#     4  10  22  39  62  91 121 154 194 242 295 352
#     4  11  22  35  52  76 110 151 195 238 281 328
#     4  12  25  41  62  88 119 156 199 241 292 354
#     4  10  20  35  58  86 115 148 189 234 283 338
#
# _framework density 19.932516
#
# number of rings (size 3 to 8) (size 9 to 14) (size 15 to 20)
#    0.000    1.750    1.250    3.000    1.750    8.500 
#    0.000    0.000    0.000    1.500    0.000    0.000 
#    0.000    0.000    0.000    0.000    0.000    0.000 
#
# Total GULP energy -396545.155885 kJ/mol
# GULP energy per Si atom -12392.036121 kJ/mol
# Density = 1.988715 g / cm^3
# Si number density = 19.932516 Si / 1000 Ang^3
#
#
#
# Elastic Constant Matrix: (Units=GPa)
#
#
# Indices 1 2 3 4 5 6 
#
# 1 144.2183 63.5894 36.0154 0.0000 0.0000 0.0000
# 2 63.5894 164.5580 41.8120 0.0000 0.0000 0.0000
# 3 36.0154 41.8120 61.3457 0.0000 0.0000 0.0000
# 4 0.0000 0.0000 0.0000 58.6721 0.0000 0.0000
# 5 0.0000 0.0000 0.0000 0.0000 12.6850 0.0000
# 6 0.0000 0.0000 0.0000 0.0000 0.0000 26.0116
#
#
#
# Elastic Compliance Matrix: (Units=1/GPa)
#
#
# Indices 1 2 3 4 5 6 
#
# 1 0.008939 -0.002565 -0.003500 0.000000 0.000000 0.000000
# 2 -0.002565 0.008086 -0.004005 0.000000 0.000000 0.000000
# 3 -0.003500 -0.004005 0.021086 0.000000 0.000000 0.000000
# 4 0.000000 0.000000 0.000000 0.017044 0.000000 0.000000
# 5 0.000000 0.000000 0.000000 0.000000 0.078833 0.000000
# 6 0.000000 0.000000 0.000000 0.000000 0.000000 0.038444
#
#
# Mechanical properties :
#
#
# Convention : Reuss Voigt Hill
#
# Bulk Modulus (GPa) = 55.64693 72.55061 64.09877
# Shear Modulus (GPa) = 25.18113 34.72075 29.95094
#
# Velocity S-wave (km/s) = 3.55818 4.17815 3.88057
# Velocity P-wave (km/s) = 6.69769 7.73001 7.23230
#
# Compressibility (1/GPa) = 0.01797044
#
# Stress axis : x y z
#
# Youngs Moduli (GPa) = 111.87102 123.67464 47.42585
#
# Poissons Ratio (x) = 0.31722 0.16597
# Poissons Ratio (y) = 0.28695 0.18995
# Poissons Ratio (z) = 0.39151 0.49534
#
# Static dielectric constant tensor:
#      x y z
#    x 3.951840 0.000000 0.000000 
#    y 0.000000 3.479530 0.000000 
#    z 0.000000 0.000000 3.343940 
# 
# 
# High freq. dielectric constant tensor:
#      x y z
#    x 1.797750 0.000000 0.000000 
#    y 0.000000 1.786040 0.000000 
#    z 0.000000 0.000000 1.745820 
# 
# From -- ./inp_files/5004.got.cif
#   From: 2010.03.12/outbox.cif.g09.slc.cpg/sg65_3_cif.got.tgz:5004.got - 2010.04.10 20:52:16.
