data_PCOD8272557
_publ_section_title
;
Structure prediction by ZEFSAII (Michael W. Deem and Ramdas Pophale) SiO2 
 PCOD8272557
Probable space group: C M M M
;
_chemical_formula_sum "Si O2"
_cell_formula_units_Z 72
_cell_length_a 7.728975
_cell_length_b 16.017756
_cell_length_c 27.999092
_cell_angle_alpha 90.000000
_cell_angle_beta 90.000000
_cell_angle_gamma 90.000000
_cell_volume 3466.310988
_symmetry_space_group_name_H-M "C M M M"
_symmetry_group_IT_number 65
_symmetry_cell_setting 'orthorhombic'
loop_
_space_group_symop_operation_xyz
x,y,z
-x,-y,z
x,-y,-z
-x,y,-z
-x,-y,-z
x,y,-z
-x,y,z
x,-y,z
1/2+x,1/2+y,z
1/2-x,1/2-y,z
1/2+x,1/2-y,-z
1/2-x,1/2+y,-z
1/2-x,1/2-y,-z
1/2+x,1/2+y,-z
1/2-x,1/2+y,z
1/2+x,1/2-y,z
loop_
_atom_site_type_symbol
_atom_site_label
_atom_site_fract_x
_atom_site_fract_y
_atom_site_fract_z
Si Si1 0.203941 0.342650 0.114959
Si Si2 0.794912 0.000000 0.389470
Si Si3 0.796646 0.159274 0.446487
Si Si4 0.500000 0.406932 0.948755
Si Si5 0.298090 0.000000 0.720138
Si Si6 0.202449 0.342347 0.223816
O O1 0.250000 0.250000 0.099180
O O2 0.323843 0.397161 0.081262
O O3 0.265270 0.356040 0.169612
O O4 0.000000 0.362816 0.107727
O O5 0.719257 0.916498 0.414908
O O6 0.733725 0.000000 0.335636
O O7 0.000000 0.000000 0.391952
O O8 0.717450 0.153273 0.500000
O O9 0.750000 0.250000 0.424024
O O10 0.000000 0.148783 0.448731
O O11 0.500000 0.500000 0.965257
O O12 0.500000 0.356053 0.000000
O O13 0.214749 0.084148 0.743417
O O14 0.500000 0.000000 0.731126
O O15 0.250000 0.250000 0.243066
O O16 0.000000 0.350390 0.225734
#
# Coordination Sequence:
#
# PCOD8272557 Si02
#       6
#    16   8  16   8   8  16
#     4  10  20  40  65  90 117 156 202 247 298 355
#     4  10  21  36  52  78 112 144 187 227 281 346
#     4   9  18  34  56  79 106 144 188 233 278 331
#     4  11  26  42  58  92 129 157 199 247 298 364
#     4  10  22  39  55  81 114 151 186 229 297 345
#     4   9  20  37  59  84 111 143 192 241 283 346
#
# _framework density 20.771363000000001
#
# number of rings (size 3 to 8) (size 9 to 14) (size 15 to 20)
#    0.000    2.333    1.111    0.333    3.111    5.333 
#    0.000    5.556    0.000    3.333    0.000    0.000 
#    0.000    0.000    0.000    0.000    0.000    0.000 
#
# Total GULP energy -446102.013605 kJ/mol
# GULP energy per Si atom -12391.722600 kJ/mol
# Density = 2.072409 g / cm^3
# Si number density = 20.771363 Si / 1000 Ang^3
#
#
#
# Elastic Constant Matrix: (Units=GPa)
#
#
# Indices 1 2 3 4 5 6 
#
# 1 57.2282 20.2946 27.5354 0.0000 0.0000 0.0000
# 2 20.2946 178.7905 89.2216 0.0000 0.0000 0.0000
# 3 27.5354 89.2216 124.8124 0.0000 0.0000 0.0000
# 4 0.0000 0.0000 0.0000 24.4934 0.0000 0.0000
# 5 0.0000 0.0000 0.0000 0.0000 31.1054 0.0000
# 6 0.0000 0.0000 0.0000 0.0000 0.0000 25.6457
#
#
#
# Elastic Compliance Matrix: (Units=1/GPa)
#
#
# Indices 1 2 3 4 5 6 
#
# 1 0.019550 -0.000104 -0.004239 0.000000 0.000000 0.000000
# 2 -0.000104 0.008695 -0.006193 0.000000 0.000000 0.000000
# 3 -0.004239 -0.006193 0.013374 0.000000 0.000000 0.000000
# 4 0.000000 0.000000 0.000000 0.040827 0.000000 0.000000
# 5 0.000000 0.000000 0.000000 0.000000 0.032149 0.000000
# 6 0.000000 0.000000 0.000000 0.000000 0.000000 0.038993
#
#
# Mechanical properties :
#
#
# Convention : Reuss Voigt Hill
#
# Bulk Modulus (GPa) = 48.66522 70.54826 59.60674
# Shear Modulus (GPa) = 27.54674 31.16752 29.35713
#
# Velocity S-wave (km/s) = 3.64564 3.87784 3.76353
# Velocity P-wave (km/s) = 6.41878 7.35446 6.90249
#
# Compressibility (1/GPa) = 0.02054856
#
# Stress axis : x y z
#
# Youngs Moduli (GPa) = 51.15020 115.00357 74.77104
#
# Poissons Ratio (x) = 0.01195 0.31694
# Poissons Ratio (y) = 0.00531 0.46305
# Poissons Ratio (z) = 0.21682 0.71221
#
# Static dielectric constant tensor:
#      x y z
#    x 12.866460 0.000000 0.000000 
#    y 0.000000 4.361190 0.000000 
#    z 0.000000 0.000000 3.853400 
# 
# 
# High freq. dielectric constant tensor:
#      x y z
#    x 1.800180 0.000000 0.000000 
#    y 0.000000 1.821520 0.000000 
#    z 0.000000 0.000000 1.805090 
# 
# From -- ./inp_files/72601.got.cif
#   From: 2010.03.12/outbox.cif.g09.slc.cpg/sg65_37_cif.got.tgz:72601.got - 2010.04.10 20:52:16.
