data_PCOD8272123
_publ_section_title
;
Structure prediction by ZEFSAII (Michael W. Deem and Ramdas Pophale) SiO2 
 PCOD8272123
Probable space group: C M M M
;
_chemical_formula_sum "Si O2"
_cell_formula_units_Z 104
_cell_length_a 8.901756
_cell_length_b 26.541745
_cell_length_c 22.711830
_cell_angle_alpha 90.000000
_cell_angle_beta 90.000000
_cell_angle_gamma 90.000000
_cell_volume 5366.081780
_symmetry_space_group_name_H-M "C M M M"
_symmetry_group_IT_number 65
_symmetry_cell_setting 'orthorhombic'
loop_
_space_group_symop_operation_xyz
x,y,z
-x,-y,z
x,-y,-z
-x,y,-z
-x,-y,-z
x,y,-z
-x,y,z
x,-y,z
1/2+x,1/2+y,z
1/2-x,1/2-y,z
1/2+x,1/2-y,-z
1/2-x,1/2+y,-z
1/2-x,1/2-y,-z
1/2+x,1/2+y,-z
1/2-x,1/2+y,z
1/2+x,1/2-y,z
loop_
_atom_site_type_symbol
_atom_site_label
_atom_site_fract_x
_atom_site_fract_y
_atom_site_fract_z
Si Si1 0.173534 0.698021 0.430351
Si Si2 0.676745 0.299927 0.827606
Si Si3 0.172647 0.500000 0.569686
Si Si4 0.177938 0.650400 0.066647
Si Si5 0.676100 0.397696 0.757695
Si Si6 0.826841 0.555384 0.138030
Si Si7 0.320661 0.401124 0.623760
O O1 0.188509 0.693475 0.500000
O O2 0.250000 0.750000 0.408152
O O3 0.257916 0.650299 0.403254
O O4 0.000000 0.698056 0.410436
O O5 0.500000 0.294080 0.832079
O O6 0.750000 0.250000 0.800620
O O7 0.742224 0.308088 0.893110
O O8 0.726735 0.343760 0.783218
O O9 0.181542 0.500000 0.500000
O O10 0.254845 0.449912 0.591871
O O11 0.000000 0.500000 0.591246
O O12 0.230259 0.595402 0.089824
O O13 0.000000 0.657295 0.070628
O O14 0.235223 0.656632 0.000000
O O15 0.500000 0.404066 0.760304
O O16 0.745092 0.440519 0.799133
O O17 0.733385 0.403708 0.691329
O O18 0.796143 0.500000 0.111767
O O19 0.000000 0.564760 0.151349
O O20 0.500000 0.401109 0.617441
#
# Coordination Sequence:
#
# PCOD8272123 Si02
#       7
#    16  16   8  16  16  16  16
#     4  10  21  38  60  86 116 150 188 232 283 339
#     4  10  20  36  56  77 105 141 179 222 271 324
#     4  11  25  43  61  85 119 157 196 239 288 343
#     4   9  18  33  52  76 107 140 177 221 268 322
#     4   9  21  38  54  77 108 141 178 221 271 324
#     4   9  18  32  52  78 105 137 177 220 268 320
#     4  11  23  39  60  87 117 151 193 239 288 343
#
# _framework density 19.380994000000001
#
# number of rings (size 3 to 8) (size 9 to 14) (size 15 to 20)
#    0.000    2.231    0.000    2.077    1.077    7.077 
#    0.000    3.077    0.000    0.000    0.000    4.308 
#    0.000    0.000    0.000    0.000    0.000    0.000 
#
# Total GULP energy -644816.946994 kJ/mol
# GULP energy per Si atom -12400.325904 kJ/mol
# Density = 1.933688 g / cm^3
# Si number density = 19.380994 Si / 1000 Ang^3
#
#
#
# Elastic Constant Matrix: (Units=GPa)
#
#
# Indices 1 2 3 4 5 6 
#
# 1 63.3418 33.8311 31.7262 0.0000 0.0000 0.0000
# 2 33.8311 103.3488 22.3300 0.0000 0.0000 0.0000
# 3 31.7262 22.3300 79.0713 0.0000 0.0000 0.0000
# 4 0.0000 0.0000 0.0000 10.7525 0.0000 0.0000
# 5 0.0000 0.0000 0.0000 0.0000 28.8908 0.0000
# 6 0.0000 0.0000 0.0000 0.0000 0.0000 31.6054
#
#
#
# Elastic Compliance Matrix: (Units=1/GPa)
#
#
# Indices 1 2 3 4 5 6 
#
# 1 0.022605 -0.005794 -0.007434 0.000000 0.000000 0.000000
# 2 -0.005794 0.011790 -0.001005 0.000000 0.000000 0.000000
# 3 -0.007434 -0.001005 0.015913 0.000000 0.000000 0.000000
# 4 0.000000 0.000000 0.000000 0.093001 0.000000 0.000000
# 5 0.000000 0.000000 0.000000 0.000000 0.034613 0.000000
# 6 0.000000 0.000000 0.000000 0.000000 0.000000 0.031640
#
#
# Mechanical properties :
#
#
# Convention : Reuss Voigt Hill
#
# Bulk Modulus (GPa) = 45.78018 46.83740 46.30879
# Shear Modulus (GPa) = 20.38249 24.77471 22.57860
#
# Velocity S-wave (km/s) = 3.24647 3.57921 3.41689
# Velocity P-wave (km/s) = 6.14209 6.42652 6.28591
#
# Compressibility (1/GPa) = 0.02184351
#
# Stress axis : x y z
#
# Youngs Moduli (GPa) = 44.23772 84.82045 62.84049
#
# Poissons Ratio (x) = 0.49141 0.46715
# Poissons Ratio (y) = 0.25629 0.06314
# Poissons Ratio (z) = 0.32886 0.08523
#
# Static dielectric constant tensor:
#      x y z
#    x 3.558310 0.000000 0.000000 
#    y 0.000000 3.731090 0.000000 
#    z 0.000000 0.000000 3.642610 
# 
# 
# High freq. dielectric constant tensor:
#      x y z
#    x 1.756180 0.000000 0.000000 
#    y 0.000000 1.766440 0.000000 
#    z 0.000000 0.000000 1.749930 
# 
# From -- ./inp_files/60383.got.cif
#   From: 2010.03.12/outbox.cif.g09.slc.cpg/sg65_31_cif.got.tgz:60383.got - 2010.04.10 20:52:16.
