data_PCOD8272018
_publ_section_title
;
Structure prediction by ZEFSAII (Michael W. Deem and Ramdas Pophale) SiO2 
 PCOD8272018
Probable space group: C M M M
;
_chemical_formula_sum "Si O2"
_cell_formula_units_Z 88
_cell_length_a 14.172294
_cell_length_b 13.966835
_cell_length_c 22.261594
_cell_angle_alpha 90.000000
_cell_angle_beta 90.000000
_cell_angle_gamma 90.000000
_cell_volume 4406.506485
_symmetry_space_group_name_H-M "C M M M"
_symmetry_group_IT_number 65
_symmetry_cell_setting 'orthorhombic'
loop_
_space_group_symop_operation_xyz
x,y,z
-x,-y,z
x,-y,-z
-x,y,-z
-x,-y,-z
x,y,-z
-x,y,z
x,-y,z
1/2+x,1/2+y,z
1/2-x,1/2-y,z
1/2+x,1/2-y,-z
1/2-x,1/2+y,-z
1/2-x,1/2-y,-z
1/2+x,1/2+y,-z
1/2-x,1/2+y,z
1/2+x,1/2-y,z
loop_
_atom_site_type_symbol
_atom_site_label
_atom_site_fract_x
_atom_site_fract_y
_atom_site_fract_z
Si Si1 0.106899 0.760099 0.619871
Si Si2 0.779109 0.611699 0.811668
Si Si3 0.200849 0.113321 0.066012
Si Si4 0.106975 0.780188 0.760938
Si Si5 0.240115 0.608957 0.569918
Si Si6 0.500000 0.603773 0.070788
O O1 0.111892 0.783995 0.689611
O O2 0.157713 0.659030 0.608006
O O3 0.158929 0.843239 0.582835
O O4 0.000000 0.754085 0.596722
O O5 0.800140 0.500000 0.800251
O O6 0.777807 0.637936 0.883141
O O7 0.861025 0.674423 0.782049
O O8 0.676388 0.637641 0.784999
O O9 0.098598 0.158682 0.086263
O O10 0.185343 0.000000 0.062641
O O11 0.233797 0.151356 0.000000
O O12 0.000000 0.799628 0.783583
O O13 0.216139 0.618970 0.500000
O O14 0.244832 0.500000 0.591141
O O15 0.500000 0.500000 0.103458
O O16 0.500000 0.587989 0.000000
#
# Coordination Sequence:
#
# PCOD8272018 Si02
#       6
#    16  16  16  16  16   8
#     4  10  21  38  58  77 108 153 187 218 266 320
#     4  10  20  35  58  80 103 141 181 224 276 327
#     4   8  14  25  45  74 103 133 172 216 267 329
#     4  10  23  39  53  79 113 141 182 232 269 313
#     4  10  21  36  57  87 117 142 176 224 270 315
#     4   7  10  18  34  62  98 126 153 197 250 307
#
# _framework density 19.970469999999999
#
# number of rings (size 3 to 8) (size 9 to 14) (size 15 to 20)
#    0.000    2.636    0.000    4.364    1.273    5.818 
#    0.000    7.273    0.000    1.636    0.000    2.545 
#    0.000    0.000    0.000    0.000    0.000    0.000 
#
# Total GULP energy -545287.048130 kJ/mol
# GULP energy per Si atom -12392.887458 kJ/mol
# Density = 1.992502 g / cm^3
# Si number density = 19.970470 Si / 1000 Ang^3
#
#
#
# Elastic Constant Matrix: (Units=GPa)
#
#
# Indices 1 2 3 4 5 6 
#
# 1 92.1578 12.7003 9.8463 0.0000 0.0000 0.0000
# 2 12.7003 83.1202 -0.6546 0.0000 0.0000 0.0000
# 3 9.8463 -0.6546 50.5905 0.0000 0.0000 0.0000
# 4 0.0000 0.0000 0.0000 31.6431 0.0000 0.0000
# 5 0.0000 0.0000 0.0000 0.0000 48.6466 0.0000
# 6 0.0000 0.0000 0.0000 0.0000 0.0000 10.9118
#
#
#
# Elastic Compliance Matrix: (Units=1/GPa)
#
#
# Indices 1 2 3 4 5 6 
#
# 1 0.011330 -0.001749 -0.002228 0.000000 0.000000 0.000000
# 2 -0.001749 0.012302 0.000500 0.000000 0.000000 0.000000
# 3 -0.002228 0.000500 0.020207 0.000000 0.000000 0.000000
# 4 0.000000 0.000000 0.000000 0.031602 0.000000 0.000000
# 5 0.000000 0.000000 0.000000 0.000000 0.020556 0.000000
# 6 0.000000 0.000000 0.000000 0.000000 0.000000 0.091644
#
#
# Mechanical properties :
#
#
# Convention : Reuss Voigt Hill
#
# Bulk Modulus (GPa) = 27.11157 29.96137 28.53647
# Shear Modulus (GPa) = 24.16741 31.83874 28.00308
#
# Velocity S-wave (km/s) = 3.48251 3.99719 3.74869
# Velocity P-wave (km/s) = 5.45672 6.02816 5.74954
#
# Compressibility (1/GPa) = 0.03688462
#
# Stress axis : x y z
#
# Youngs Moduli (GPa) = 88.26156 81.28832 49.48877
#
# Poissons Ratio (x) = 0.14215 0.11025
# Poissons Ratio (y) = 0.15434 -0.02472
# Poissons Ratio (z) = 0.19662 -0.04060
#
# Static dielectric constant tensor:
#      x y z
#    x 3.753560 0.000000 0.000000 
#    y 0.000000 3.410540 0.000000 
#    z 0.000000 0.000000 3.820540 
# 
# 
# High freq. dielectric constant tensor:
#      x y z
#    x 1.768550 0.000000 0.000000 
#    y 0.000000 1.759810 0.000000 
#    z 0.000000 0.000000 1.791700 
# 
# From -- ./inp_files/62450.got.cif
#   From: 2010.03.12/outbox.cif.g09.slc.cpg/sg65_32_cif.got.tgz:62450.got - 2010.04.10 20:52:16.
