data_PCOD8272961
_publ_section_title
;
Structure prediction by ZEFSAII (Michael W. Deem and Ramdas Pophale) SiO2 
 PCOD8272961
Probable space group: C M M M
;
_chemical_formula_sum "Si O2"
_cell_formula_units_Z 88
_cell_length_a 17.991425
_cell_length_b 29.672948
_cell_length_c 9.352499
_cell_angle_alpha 90.000000
_cell_angle_beta 90.000000
_cell_angle_gamma 90.000000
_cell_volume 4992.912195
_symmetry_space_group_name_H-M "C M M M"
_symmetry_group_IT_number 65
_symmetry_cell_setting 'orthorhombic'
loop_
_space_group_symop_operation_xyz
x,y,z
-x,-y,z
x,-y,-z
-x,y,-z
-x,-y,-z
x,y,-z
-x,y,z
x,-y,z
1/2+x,1/2+y,z
1/2-x,1/2-y,z
1/2+x,1/2-y,-z
1/2-x,1/2+y,-z
1/2-x,1/2-y,-z
1/2+x,1/2+y,-z
1/2-x,1/2+y,z
1/2+x,1/2-y,z
loop_
_atom_site_type_symbol
_atom_site_label
_atom_site_fract_x
_atom_site_fract_y
_atom_site_fract_z
Si Si1 0.584137 0.449586 0.669825
Si Si2 0.583136 0.000000 0.831997
Si Si3 0.297589 0.377795 0.337225
Si Si4 0.224821 0.699139 0.164288
Si Si5 0.916721 0.324473 0.663825
Si Si6 0.138655 0.420628 0.343232
O O1 0.590176 0.449806 0.500000
O O2 0.500000 0.438667 0.718926
O O3 0.606783 0.500000 0.725358
O O4 0.637657 0.409846 0.729136
O O5 0.625493 0.956136 0.779955
O O6 0.500000 0.000000 0.769732
O O7 0.583648 0.000000 0.000000
O O8 0.316580 0.362896 0.500000
O O9 0.284894 0.332910 0.243223
O O10 0.223806 0.406976 0.334129
O O11 0.250000 0.750000 0.178831
O O12 0.142876 0.698158 0.232609
O O13 0.219616 0.683562 0.000000
O O14 0.896426 0.312019 0.500000
O O15 0.914505 0.378183 0.683671
O O16 0.000000 0.307762 0.702563
O O17 0.122042 0.441468 0.500000
#
# Coordination Sequence:
#
# PCOD8272961 Si02
#       6
#    16   8  16  16  16  16
#     4   8  14  26  48  78 107 133 165 210 261 309
#     4  11  23  33  41  61  94 129 164 200 237 277
#     4   9  18  32  53  77 100 130 168 212 257 302
#     4  10  21  36  53  74 103 138 172 208 255 310
#     4   9  18  34  56  79  99 123 162 210 257 302
#     4   9  18  31  48  69  94 126 161 199 243 291
#
# _framework density 17.624984000000001
#
# number of rings (size 3 to 8) (size 9 to 14) (size 15 to 20)
#    0.000    2.818    0.000    3.000    1.273    6.182 
#    0.000    0.909    0.000    3.818    0.000    1.273 
#    0.000    0.000    0.000    0.000    0.000    0.000 
#
# Total GULP energy -545395.718406 kJ/mol
# GULP energy per Si atom -12395.357236 kJ/mol
# Density = 1.758487 g / cm^3
# Si number density = 17.624984 Si / 1000 Ang^3
#
#
#
# Elastic Constant Matrix: (Units=GPa)
#
#
# Indices 1 2 3 4 5 6 
#
# 1 91.8668 51.0523 38.4756 0.0000 0.0000 0.0000
# 2 51.0523 88.3568 51.7702 0.0000 0.0000 0.0000
# 3 38.4756 51.7702 81.7381 0.0000 0.0000 0.0000
# 4 0.0000 0.0000 0.0000 19.2816 0.0000 0.0000
# 5 0.0000 0.0000 0.0000 0.0000 6.6446 0.0000
# 6 0.0000 0.0000 0.0000 0.0000 0.0000 18.7898
#
#
#
# Elastic Compliance Matrix: (Units=1/GPa)
#
#
# Indices 1 2 3 4 5 6 
#
# 1 0.016409 -0.007879 -0.002733 0.000000 0.000000 0.000000
# 2 -0.007879 0.021780 -0.010086 0.000000 0.000000 0.000000
# 3 -0.002733 -0.010086 0.019909 0.000000 0.000000 0.000000
# 4 0.000000 0.000000 0.000000 0.051863 0.000000 0.000000
# 5 0.000000 0.000000 0.000000 0.000000 0.150499 0.000000
# 6 0.000000 0.000000 0.000000 0.000000 0.000000 0.053220
#
#
# Mechanical properties :
#
#
# Convention : Reuss Voigt Hill
#
# Bulk Modulus (GPa) = 59.87823 60.50646 60.19234
# Shear Modulus (GPa) = 13.86411 16.98743 15.42577
#
# Velocity S-wave (km/s) = 2.80771 3.10792 2.96162
# Velocity P-wave (km/s) = 6.67520 6.87629 6.77649
#
# Compressibility (1/GPa) = 0.01670056
#
# Stress axis : x y z
#
# Youngs Moduli (GPa) = 60.94255 45.91392 50.22919
#
# Poissons Ratio (x) = 0.36178 0.13729
# Poissons Ratio (y) = 0.48020 0.50659
# Poissons Ratio (z) = 0.16658 0.46307
#
# Static dielectric constant tensor:
#      x y z
#    x 3.465130 0.000000 0.000000 
#    y 0.000000 3.175570 0.000000 
#    z 0.000000 0.000000 3.154790 
# 
# 
# High freq. dielectric constant tensor:
#      x y z
#    x 1.683260 0.000000 0.000000 
#    y 0.000000 1.670750 0.000000 
#    z 0.000000 0.000000 1.659260 
# 
# From -- ./inp_files/10105.got.cif
#   From: 2010.03.12/outbox.cif.g09.slc.cpg/sg65_6_cif.got.tgz:10105.got - 2010.04.10 20:52:16.
