data_PCOD8272254
_publ_section_title
;
Structure prediction by ZEFSAII (Michael W. Deem and Ramdas Pophale) SiO2 
 PCOD8272254
Probable space group: C M M M
;
_chemical_formula_sum "Si O2"
_cell_formula_units_Z 96
_cell_length_a 14.566701
_cell_length_b 20.162303
_cell_length_c 16.806573
_cell_angle_alpha 90.000000
_cell_angle_beta 90.000000
_cell_angle_gamma 90.000000
_cell_volume 4936.060898
_symmetry_space_group_name_H-M "C M M M"
_symmetry_group_IT_number 65
_symmetry_cell_setting 'orthorhombic'
loop_
_space_group_symop_operation_xyz
x,y,z
-x,-y,z
x,-y,-z
-x,y,-z
-x,-y,-z
x,y,-z
-x,y,z
x,-y,z
1/2+x,1/2+y,z
1/2-x,1/2-y,z
1/2+x,1/2-y,-z
1/2-x,1/2+y,-z
1/2-x,1/2-y,-z
1/2+x,1/2+y,-z
1/2-x,1/2+y,z
1/2+x,1/2-y,z
loop_
_atom_site_type_symbol
_atom_site_label
_atom_site_fract_x
_atom_site_fract_y
_atom_site_fract_z
Si Si1 0.724270 0.575350 0.145143
Si Si2 0.859230 0.742761 0.000000
Si Si3 0.600122 0.155124 0.854195
Si Si4 0.599773 0.614406 0.000000
Si Si5 0.893737 0.814599 0.592778
Si Si6 0.767333 0.079569 0.327666
Si Si7 0.894147 0.678961 0.323370
O O1 0.729718 0.500000 0.126405
O O2 0.825540 0.600237 0.126310
O O3 0.698971 0.590347 0.236780
O O4 0.651464 0.601952 0.082556
O O5 0.750000 0.750000 0.000000
O O6 0.894044 0.709424 0.920838
O O7 0.916673 0.808714 0.000000
O O8 0.500000 0.120552 0.854266
O O9 0.616251 0.192021 0.770408
O O10 0.500000 0.578132 0.000000
O O11 0.876848 0.804402 0.500000
O O12 0.841379 0.881315 0.619635
O O13 0.858650 0.746542 0.634580
O O14 0.000000 0.826059 0.613502
O O15 0.668421 0.114475 0.344997
O O16 0.762281 0.000000 0.347924
O O17 0.000000 0.663375 0.348106
#
# Coordination Sequence:
#
# PCOD8272254 Si02
#       7
#    16   8  16   8  16  16  16
#     4  10  22  39  56  80 112 147 188 229 273 331
#     4  12  22  35  54  80 111 144 182 236 286 329
#     4  10  20  36  58  84 111 141 181 231 284 336
#     4  12  25  38  55  76 107 152 193 233 277 324
#     4  10  22  40  62  87 115 150 194 240 283 333
#     4  10  22  38  59  87 120 154 188 233 288 342
#     4   9  20  37  61  89 117 150 189 234 285 343
#
# _framework density 19.448706999999999
#
# number of rings (size 3 to 8) (size 9 to 14) (size 15 to 20)
#    0.000    1.833    1.667    1.500    2.333    4.000 
#    0.000    5.833    0.000    2.000    0.000    3.500 
#    0.000    0.000    0.000    0.000    0.000    0.000 
#
# Total GULP energy -594810.243074 kJ/mol
# GULP energy per Si atom -12391.880064 kJ/mol
# Density = 1.940444 g / cm^3
# Si number density = 19.448707 Si / 1000 Ang^3
#
#
#
# Elastic Constant Matrix: (Units=GPa)
#
#
# Indices 1 2 3 4 5 6 
#
# 1 130.5184 62.3747 59.5402 0.0000 0.0000 0.0000
# 2 62.3747 149.5175 65.0525 0.0000 0.0000 0.0000
# 3 59.5402 65.0525 99.3678 0.0000 0.0000 0.0000
# 4 0.0000 0.0000 0.0000 17.8085 0.0000 0.0000
# 5 0.0000 0.0000 0.0000 0.0000 30.9054 0.0000
# 6 0.0000 0.0000 0.0000 0.0000 0.0000 58.2065
#
#
#
# Elastic Compliance Matrix: (Units=1/GPa)
#
#
# Indices 1 2 3 4 5 6 
#
# 1 0.011145 -0.002439 -0.005082 0.000000 0.000000 0.000000
# 2 -0.002439 0.009885 -0.005010 0.000000 0.000000 0.000000
# 3 -0.005082 -0.005010 0.016389 0.000000 0.000000 0.000000
# 4 0.000000 0.000000 0.000000 0.056153 0.000000 0.000000
# 5 0.000000 0.000000 0.000000 0.000000 0.032357 0.000000
# 6 0.000000 0.000000 0.000000 0.000000 0.000000 0.017180
#
#
# Mechanical properties :
#
#
# Convention : Reuss Voigt Hill
#
# Bulk Modulus (GPa) = 80.91954 83.70429 82.31192
# Shear Modulus (GPa) = 29.02075 34.21316 31.61695
#
# Velocity S-wave (km/s) = 3.86705 4.19877 4.03632
# Velocity P-wave (km/s) = 7.85084 8.16322 8.00855
#
# Compressibility (1/GPa) = 0.01235795
#
# Stress axis : x y z
#
# Youngs Moduli (GPa) = 89.72352 101.15866 61.01748
#
# Poissons Ratio (x) = 0.24668 0.31008
# Poissons Ratio (y) = 0.21880 0.30573
# Poissons Ratio (z) = 0.45595 0.50685
#
# Static dielectric constant tensor:
#      x y z
#    x 3.659470 0.000000 0.000000 
#    y 0.000000 3.585680 0.000000 
#    z 0.000000 0.000000 3.722150 
# 
# 
# High freq. dielectric constant tensor:
#      x y z
#    x 1.768230 0.000000 0.000000 
#    y 0.000000 1.752040 0.000000 
#    z 0.000000 0.000000 1.762290 
# 
# From -- ./inp_files/40455.got.cif
#   From: 2010.03.12/outbox.cif.g09.slc.cpg/sg65_21_cif.got.tgz:40455.got - 2010.04.10 20:52:16.
