data_PCOD8272777
_publ_section_title
;
Structure prediction by ZEFSAII (Michael W. Deem and Ramdas Pophale) SiO2 
 PCOD8272777
Probable space group: C M M M
;
_chemical_formula_sum "Si O2"
_cell_formula_units_Z 104
_cell_length_a 27.319569
_cell_length_b 23.605268
_cell_length_c 9.142820
_cell_angle_alpha 90.000000
_cell_angle_beta 90.000000
_cell_angle_gamma 90.000000
_cell_volume 5896.074314
_symmetry_space_group_name_H-M "C M M M"
_symmetry_group_IT_number 65
_symmetry_cell_setting 'orthorhombic'
loop_
_space_group_symop_operation_xyz
x,y,z
-x,-y,z
x,-y,-z
-x,y,-z
-x,-y,-z
x,y,-z
-x,y,z
x,-y,z
1/2+x,1/2+y,z
1/2-x,1/2-y,z
1/2+x,1/2-y,-z
1/2-x,1/2+y,-z
1/2-x,1/2-y,-z
1/2+x,1/2+y,-z
1/2-x,1/2+y,z
1/2+x,1/2-y,z
loop_
_atom_site_type_symbol
_atom_site_label
_atom_site_fract_x
_atom_site_fract_y
_atom_site_fract_z
Si Si1 0.444127 0.182450 0.326307
Si Si2 0.384170 0.713043 0.329020
Si Si3 0.707931 0.500000 0.326301
Si Si4 0.140703 0.616879 0.832168
Si Si5 0.196079 0.272940 0.164057
Si Si6 0.553219 0.500000 0.325801
Si Si7 0.371443 0.410759 0.673885
Si Si8 0.312068 0.000000 0.173338
O O1 0.439143 0.176804 0.500000
O O2 0.500000 0.171279 0.275273
O O3 0.428905 0.246537 0.275638
O O4 0.407376 0.136810 0.255990
O O5 0.388461 0.704511 0.500000
O O6 0.334151 0.743514 0.290412
O O7 0.380073 0.651117 0.254523
O O8 0.715595 0.500000 0.500000
O O9 0.677972 0.443499 0.276166
O O10 0.759518 0.500000 0.247841
O O11 0.187323 0.659528 0.814644
O O12 0.157865 0.555428 0.774912
O O13 0.124218 0.612990 0.000000
O O14 0.250000 0.250000 0.190030
O O15 0.178578 0.256163 0.000000
O O16 0.500000 0.500000 0.253187
O O17 0.550267 0.500000 0.500000
O O18 0.581478 0.444800 0.270641
O O19 0.370001 0.407452 0.500000
O O20 0.303926 0.000000 0.000000
#
# Coordination Sequence:
#
# PCOD8272777 Si02
#       8
#    16  16   8  16  16   8  16   8
#     4   9  18  33  52  74  99 125 156 197 243 289
#     4   9  17  29  46  69  96 124 155 193 233 276
#     4   9  18  31  46  66  96 135 166 195 238 283
#     4   9  19  35  51  71  97 125 158 198 240 286
#     4   9  18  31  47  67  94 125 154 189 233 278
#     4   8  13  22  38  60  89 126 161 194 234 274
#     4   8  15  27  41  63  96 127 161 199 232 275
#     4  10  21  35  52  73  96 122 162 207 240 278
#
# _framework density 17.638856000000001
#
# number of rings (size 3 to 8) (size 9 to 14) (size 15 to 20)
#    0.000    3.154    0.000    0.923    2.154    1.846 
#    0.000    3.462    0.000    2.308    0.000    0.000 
#    0.000   10.462    0.000    0.000    0.000    0.000 
#
# Total GULP energy -644184.619405 kJ/mol
# GULP energy per Si atom -12388.165758 kJ/mol
# Density = 1.759871 g / cm^3
# Si number density = 17.638856 Si / 1000 Ang^3
#
#
#
# Elastic Constant Matrix: (Units=GPa)
#
#
# Indices 1 2 3 4 5 6 
#
# 1 147.4585 82.2676 29.3629 0.0000 0.0000 0.0000
# 2 82.2676 161.7353 23.1652 0.0000 0.0000 0.0000
# 3 29.3629 23.1652 12.4361 0.0000 0.0000 0.0000
# 4 0.0000 0.0000 0.0000 16.5645 0.0000 0.0000
# 5 0.0000 0.0000 0.0000 0.0000 14.5778 0.0000
# 6 0.0000 0.0000 0.0000 0.0000 0.0000 16.2307
#
#
#
# Elastic Compliance Matrix: (Units=1/GPa)
#
#
# Indices 1 2 3 4 5 6 
#
# 1 0.013943 -0.003242 -0.026883 0.000000 0.000000 0.000000
# 2 -0.003242 0.009187 -0.009458 0.000000 0.000000 0.000000
# 3 -0.026883 -0.009458 0.161502 0.000000 0.000000 0.000000
# 4 0.000000 0.000000 0.000000 0.060370 0.000000 0.000000
# 5 0.000000 0.000000 0.000000 0.000000 0.068597 0.000000
# 6 0.000000 0.000000 0.000000 0.000000 0.000000 0.061612
#
#
# Mechanical properties :
#
#
# Convention : Reuss Voigt Hill
#
# Bulk Modulus (GPa) = 9.48164 65.69126 37.58645
# Shear Modulus (GPa) = 10.21383 21.93020 16.07202
#
# Velocity S-wave (km/s) = 2.40896 3.52986 3.02184
# Velocity P-wave (km/s) = 3.62278 7.34414 5.79055
#
# Compressibility (1/GPa) = 0.10546700
#
# Stress axis : x y z
#
# Youngs Moduli (GPa) = 71.71865 108.85423 6.19187
#
# Poissons Ratio (x) = 0.35290 0.16646
# Poissons Ratio (y) = 0.23251 0.05856
# Poissons Ratio (z) = 1.92801 1.02951
#
# Static dielectric constant tensor:
#      x y z
#    x 3.279110 0.000000 0.000000 
#    y 0.000000 3.725130 0.000000 
#    z 0.000000 0.000000 2.974460 
# 
# 
# High freq. dielectric constant tensor:
#      x y z
#    x 1.676070 0.000000 0.000000 
#    y 0.000000 1.690120 0.000000 
#    z 0.000000 0.000000 1.648370 
# 
# From -- ./inp_files/16841.got.cif
#   From: 2010.03.12/outbox.cif.g09.slc.cpg/sg65_9_cif.got.tgz:16841.got - 2010.04.10 20:52:16.
