data_PCOD8272889
_publ_section_title
;
Structure prediction by ZEFSAII (Michael W. Deem and Ramdas Pophale) SiO2 
 PCOD8272889
Probable space group: C M M M
;
_chemical_formula_sum "Si O2"
_cell_formula_units_Z 80
_cell_length_a 9.159423
_cell_length_b 19.611890
_cell_length_c 25.230102
_cell_angle_alpha 90.000000
_cell_angle_beta 90.000000
_cell_angle_gamma 90.000000
_cell_volume 4532.173958
_symmetry_space_group_name_H-M "C M M M"
_symmetry_group_IT_number 65
_symmetry_cell_setting 'orthorhombic'
loop_
_space_group_symop_operation_xyz
x,y,z
-x,-y,z
x,-y,-z
-x,y,-z
-x,-y,-z
x,y,-z
-x,y,z
x,-y,z
1/2+x,1/2+y,z
1/2-x,1/2-y,z
1/2+x,1/2-y,-z
1/2-x,1/2+y,-z
1/2-x,1/2-y,-z
1/2+x,1/2+y,-z
1/2-x,1/2+y,z
1/2+x,1/2-y,z
loop_
_atom_site_type_symbol
_atom_site_label
_atom_site_fract_x
_atom_site_fract_y
_atom_site_fract_z
Si Si1 0.826871 0.423690 0.556017
Si Si2 0.668870 0.918924 0.329315
Si Si3 0.666473 0.079454 0.060474
Si Si4 0.829399 0.818500 0.254764
Si Si5 0.330292 0.317780 0.867939
O O1 0.777349 0.386680 0.500000
O O2 0.763618 0.500000 0.554119
O O3 0.778218 0.390771 0.612223
O O4 0.000000 0.427329 0.557846
O O5 0.500000 0.900274 0.318771
O O6 0.768943 0.883472 0.285874
O O7 0.691762 0.000000 0.325796
O O8 0.500000 0.096759 0.075967
O O9 0.775838 0.118246 0.098810
O O10 0.697476 0.000000 0.067914
O O11 0.696694 0.101319 0.000000
O O12 0.750000 0.750000 0.274635
O O13 0.794984 0.831974 0.193339
O O14 0.000000 0.810168 0.265798
O O15 0.500000 0.307132 0.878137
O O16 0.250000 0.250000 0.888081
#
# Coordination Sequence:
#
# PCOD8272889 Si02
#       5
#    16  16  16  16  16
#     4   7  10  19  38  65  95 124 155 193 235 280
#     4   9  17  29  48  75 102 128 161 199 241 292
#     4   9  19  36  56  78 105 135 164 196 238 286
#     4  10  21  36  52  70  96 130 166 205 248 292
#     4  10  21  36  54  75  98 128 167 207 246 289
#
# _framework density 17.651572999999999
#
# number of rings (size 3 to 8) (size 9 to 14) (size 15 to 20)
#    0.000    3.000    0.000    3.600    0.000    4.800 
#    0.000    5.000    0.000    1.200    0.000    2.800 
#    0.000    0.000    0.000    0.000    0.000    0.000 
#
# Total GULP energy -495633.851912 kJ/mol
# GULP energy per Si atom -12390.846298 kJ/mol
# Density = 1.761140 g / cm^3
# Si number density = 17.651573 Si / 1000 Ang^3
#
#
#
# Elastic Constant Matrix: (Units=GPa)
#
#
# Indices 1 2 3 4 5 6 
#
# 1 76.7271 41.3383 54.7367 0.0000 0.0000 0.0000
# 2 41.3383 61.8382 51.7544 0.0000 0.0000 0.0000
# 3 54.7367 51.7544 97.6213 0.0000 0.0000 0.0000
# 4 0.0000 0.0000 0.0000 4.0746 0.0000 0.0000
# 5 0.0000 0.0000 0.0000 0.0000 20.9494 0.0000
# 6 0.0000 0.0000 0.0000 0.0000 0.0000 31.4903
#
#
#
# Elastic Compliance Matrix: (Units=1/GPa)
#
#
# Indices 1 2 3 4 5 6 
#
# 1 0.024024 -0.008604 -0.008909 0.000000 0.000000 0.000000
# 2 -0.008604 0.032151 -0.012221 0.000000 0.000000 0.000000
# 3 -0.008909 -0.012221 0.021718 0.000000 0.000000 0.000000
# 4 0.000000 0.000000 0.000000 0.245421 0.000000 0.000000
# 5 0.000000 0.000000 0.000000 0.000000 0.047734 0.000000
# 6 0.000000 0.000000 0.000000 0.000000 0.000000 0.031756
#
#
# Mechanical properties :
#
#
# Convention : Reuss Voigt Hill
#
# Bulk Modulus (GPa) = 54.27193 59.09391 56.68292
# Shear Modulus (GPa) = 10.67433 17.19334 13.93383
#
# Velocity S-wave (km/s) = 2.46178 3.12435 2.81264
# Velocity P-wave (km/s) = 6.23646 6.82393 6.53680
#
# Compressibility (1/GPa) = 0.01842573
#
# Stress axis : x y z
#
# Youngs Moduli (GPa) = 41.62423 31.10370 46.04465
#
# Poissons Ratio (x) = 0.26760 0.41023
# Poissons Ratio (y) = 0.35812 0.56270
# Poissons Ratio (z) = 0.37085 0.38011
#
# Static dielectric constant tensor:
#      x y z
#    x 3.071210 0.000000 0.000000 
#    y 0.000000 2.987830 0.000000 
#    z 0.000000 0.000000 3.622070 
# 
# 
# High freq. dielectric constant tensor:
#      x y z
#    x 1.664740 0.000000 0.000000 
#    y 0.000000 1.654060 0.000000 
#    z 0.000000 0.000000 1.698520 
# 
# From -- ./inp_files/72819.got.cif
#   From: 2010.03.12/outbox.cif.g09.slc.cpg/sg65_37_cif.got.tgz:72819.got - 2010.04.10 20:52:16.
