data_PCOD8272516
_publ_section_title
;
Structure prediction by ZEFSAII (Michael W. Deem and Ramdas Pophale) SiO2 
 PCOD8272516
Probable space group: C M M M
;
_chemical_formula_sum "Si O2"
_cell_formula_units_Z 64
_cell_length_a 17.859837
_cell_length_b 14.284300
_cell_length_c 11.839269
_cell_angle_alpha 90.000000
_cell_angle_beta 90.000000
_cell_angle_gamma 90.000000
_cell_volume 3020.378304
_symmetry_space_group_name_H-M "C M M M"
_symmetry_group_IT_number 65
_symmetry_cell_setting 'orthorhombic'
loop_
_space_group_symop_operation_xyz
x,y,z
-x,-y,z
x,-y,-z
-x,y,-z
-x,-y,-z
x,y,-z
-x,y,z
x,-y,z
1/2+x,1/2+y,z
1/2-x,1/2-y,z
1/2+x,1/2-y,-z
1/2-x,1/2+y,-z
1/2-x,1/2-y,-z
1/2+x,1/2+y,-z
1/2-x,1/2+y,z
1/2+x,1/2-y,z
loop_
_atom_site_type_symbol
_atom_site_label
_atom_site_fract_x
_atom_site_fract_y
_atom_site_fract_z
Si Si1 0.629362 0.396495 0.233183
Si Si2 0.915610 0.808851 0.000000
Si Si3 0.631939 0.898653 0.000000
Si Si4 0.286484 0.151582 0.781369
Si Si5 0.915757 0.726099 0.631087
O O1 0.592899 0.500000 0.231820
O O2 0.625522 0.347695 0.110224
O O3 0.716839 0.406920 0.269415
O O4 0.585918 0.332275 0.322641
O O5 0.918835 0.694793 0.000000
O O6 0.000000 0.845959 0.000000
O O7 0.684482 0.900180 0.891246
O O8 0.588069 0.000000 0.000000
O O9 0.250000 0.250000 0.815225
O O10 0.354805 0.160885 0.692617
O O11 0.895404 0.727461 0.500000
O O12 0.000000 0.686568 0.651578
#
# Coordination Sequence:
#
# PCOD8272516 Si02
#       5
#    16   8   8  16  16
#     4  11  23  38  63  95 127 165 207 254 308 367
#     4  12  24  40  60  93 135 170 201 245 311 384
#     4  12  22  36  62  93 122 158 201 253 305 362
#     4  10  20  38  62  90 124 165 204 251 307 370
#     4  10  22  40  63  89 122 166 212 257 311 369
#
# _framework density 21.189399000000002
#
# number of rings (size 3 to 8) (size 9 to 14) (size 15 to 20)
#    0.000    1.250    5.000    3.000    0.000    7.750 
#    0.000    1.250    0.000    4.500    0.000    7.000 
#    0.000    0.000    0.000    0.000    0.000    0.000 
#
# Total GULP energy -396572.345153 kJ/mol
# GULP energy per Si atom -12392.885786 kJ/mol
# Density = 2.114117 g / cm^3
# Si number density = 21.189399 Si / 1000 Ang^3
#
#
#
# Elastic Constant Matrix: (Units=GPa)
#
#
# Indices 1 2 3 4 5 6 
#
# 1 123.5737 13.4962 54.3794 0.0000 0.0000 0.0000
# 2 13.4962 99.4552 27.1271 0.0000 0.0000 0.0000
# 3 54.3794 27.1271 137.2662 0.0000 0.0000 0.0000
# 4 0.0000 0.0000 0.0000 80.4804 0.0000 0.0000
# 5 0.0000 0.0000 0.0000 0.0000 1.1126 0.0000
# 6 0.0000 0.0000 0.0000 0.0000 0.0000 9.0591
#
#
#
# Elastic Compliance Matrix: (Units=1/GPa)
#
#
# Indices 1 2 3 4 5 6 
#
# 1 0.009809 -0.000287 -0.003829 0.000000 0.000000 0.000000
# 2 -0.000287 0.010636 -0.001988 0.000000 0.000000 0.000000
# 3 -0.003829 -0.001988 0.009195 0.000000 0.000000 0.000000
# 4 0.000000 0.000000 0.000000 0.012425 0.000000 0.000000
# 5 0.000000 0.000000 0.000000 0.000000 0.898796 0.000000
# 6 0.000000 0.000000 0.000000 0.000000 0.000000 0.110386
#
#
# Mechanical properties :
#
#
# Convention : Reuss Voigt Hill
#
# Bulk Modulus (GPa) = 57.36775 61.14449 59.25612
# Shear Modulus (GPa) = 4.67611 35.81659 20.24635
#
# Velocity S-wave (km/s) = 1.48715 4.11579 3.09446
# Velocity P-wave (km/s) = 5.48465 7.17671 6.38696
#
# Compressibility (1/GPa) = 0.01743140
#
# Stress axis : x y z
#
# Youngs Moduli (GPa) = 101.95046 94.02014 108.75442
#
# Poissons Ratio (x) = 0.02695 0.41644
# Poissons Ratio (y) = 0.02922 0.21625
# Poissons Ratio (z) = 0.39039 0.18695
#
# Static dielectric constant tensor:
#      x y z
#    x 4.075940 0.000000 0.000000 
#    y 0.000000 3.889000 0.000000 
#    z 0.000000 0.000000 3.663530 
# 
# 
# High freq. dielectric constant tensor:
#      x y z
#    x 1.840060 0.000000 0.000000 
#    y 0.000000 1.819790 0.000000 
#    z 0.000000 0.000000 1.816060 
# 
# From -- ./inp_files/26128.got.cif
#   From: 2010.03.12/outbox.cif.g09.slc.cpg/sg65_14_cif.got.tgz:26128.got - 2010.04.10 20:52:16.
