data_PCOD8272813
_publ_section_title
;
Structure prediction by ZEFSAII (Michael W. Deem and Ramdas Pophale) SiO2 
 PCOD8272813
Probable space group: C M M M
;
_chemical_formula_sum "Si O2"
_cell_formula_units_Z 104
_cell_length_a 8.095592
_cell_length_b 28.860036
_cell_length_c 24.749200
_cell_angle_alpha 90.000000
_cell_angle_beta 90.000000
_cell_angle_gamma 90.000000
_cell_volume 5782.380234
_symmetry_space_group_name_H-M "C M M M"
_symmetry_group_IT_number 65
_symmetry_cell_setting 'orthorhombic'
loop_
_space_group_symop_operation_xyz
x,y,z
-x,-y,z
x,-y,-z
-x,y,-z
-x,-y,-z
x,y,-z
-x,y,z
x,-y,z
1/2+x,1/2+y,z
1/2-x,1/2-y,z
1/2+x,1/2-y,-z
1/2-x,1/2+y,-z
1/2-x,1/2-y,-z
1/2+x,1/2+y,-z
1/2-x,1/2+y,z
1/2+x,1/2-y,z
loop_
_atom_site_type_symbol
_atom_site_label
_atom_site_fract_x
_atom_site_fract_y
_atom_site_fract_z
Si Si1 0.500000 0.445172 0.439730
Si Si2 0.687407 0.895954 0.257471
Si Si3 0.311351 0.300536 0.228628
Si Si4 0.689898 0.798182 0.889748
Si Si5 0.810149 0.554397 0.631748
Si Si6 0.193877 0.887887 0.060259
Si Si7 0.190543 0.949095 0.156585
O O1 0.500000 0.500000 0.442478
O O2 0.500000 0.423851 0.500000
O O3 0.671416 0.429053 0.411218
O O4 0.500000 0.907463 0.243098
O O5 0.713587 0.840667 0.260466
O O6 0.736466 0.918272 0.314223
O O7 0.794817 0.918680 0.210312
O O8 0.500000 0.305706 0.245039
O O9 0.250000 0.250000 0.247204
O O10 0.292122 0.307988 0.164635
O O11 0.500000 0.794645 0.872757
O O12 0.750000 0.750000 0.916224
O O13 0.718834 0.838335 0.932985
O O14 0.793208 0.500000 0.643707
O O15 0.000000 0.565615 0.612567
O O16 0.269548 0.923269 0.104501
O O17 0.000000 0.880682 0.069160
O O18 0.232713 0.906522 0.000000
O O19 0.000000 0.955997 0.143893
O O20 0.273761 0.000000 0.163574
#
# Coordination Sequence:
#
# PCOD8272813 Si02
#       7
#     8  16  16  16  16  16  16
#     4   9  18  32  52  78 112 154 195 233 273 313
#     4  11  21  34  53  78 108 143 175 217 266 315
#     4  11  21  34  53  77 105 137 169 207 260 322
#     4  11  21  35  55  76  99 127 161 204 256 318
#     4   9  19  33  50  77 113 152 192 231 270 315
#     4  10  21  37  54  72  97 128 166 212 262 318
#     4  10  21  35  53  76  99 131 173 214 263 320
#
# _framework density 17.985672999999998
#
# number of rings (size 3 to 8) (size 9 to 14) (size 15 to 20)
#    0.000    1.769    1.538    4.615    2.154    2.154 
#    0.000    3.077    0.000    0.000    0.000    2.154 
#    0.000    0.615    0.308    0.000    0.000    0.000 
#
# Total GULP energy -644754.561547 kJ/mol
# GULP energy per Si atom -12399.126184 kJ/mol
# Density = 1.794474 g / cm^3
# Si number density = 17.985673 Si / 1000 Ang^3
#
#
#
# Elastic Constant Matrix: (Units=GPa)
#
#
# Indices 1 2 3 4 5 6 
#
# 1 68.6994 21.4814 41.8571 0.0000 0.0000 0.0000
# 2 21.4814 107.5269 51.6694 0.0000 0.0000 0.0000
# 3 41.8571 51.6694 113.0926 0.0000 0.0000 0.0000
# 4 0.0000 0.0000 0.0000 15.9717 0.0000 0.0000
# 5 0.0000 0.0000 0.0000 0.0000 20.3239 0.0000
# 6 0.0000 0.0000 0.0000 0.0000 0.0000 20.3304
#
#
#
# Elastic Compliance Matrix: (Units=1/GPa)
#
#
# Indices 1 2 3 4 5 6 
#
# 1 0.018818 -0.000529 -0.006723 0.000000 0.000000 0.000000
# 2 -0.000529 0.011931 -0.005255 0.000000 0.000000 0.000000
# 3 -0.006723 -0.005255 0.013732 0.000000 0.000000 0.000000
# 4 0.000000 0.000000 0.000000 0.062611 0.000000 0.000000
# 5 0.000000 0.000000 0.000000 0.000000 0.049203 0.000000
# 6 0.000000 0.000000 0.000000 0.000000 0.000000 0.049187
#
#
# Mechanical properties :
#
#
# Convention : Reuss Voigt Hill
#
# Bulk Modulus (GPa) = 51.37148 57.70386 54.53767
# Shear Modulus (GPa) = 21.09840 22.94593 22.02217
#
# Velocity S-wave (km/s) = 3.42872 3.57569 3.50298
# Velocity P-wave (km/s) = 6.65577 7.01430 6.83738
#
# Compressibility (1/GPa) = 0.01946605
#
# Stress axis : x y z
#
# Youngs Moduli (GPa) = 53.14125 83.81588 72.82442
#
# Poissons Ratio (x) = 0.04431 0.48961
# Poissons Ratio (y) = 0.02810 0.38271
# Poissons Ratio (z) = 0.35728 0.44048
#
# Static dielectric constant tensor:
#      x y z
#    x 3.358240 0.000000 0.000000 
#    y 0.000000 3.507770 0.000000 
#    z 0.000000 0.000000 3.118120 
# 
# 
# High freq. dielectric constant tensor:
#      x y z
#    x 1.704150 0.000000 0.000000 
#    y 0.000000 1.690570 0.000000 
#    z 0.000000 0.000000 1.660250 
# 
# From -- ./inp_files/68518.got.cif
#   From: 2010.03.12/outbox.cif.g09.slc.cpg/sg65_35_cif.got.tgz:68518.got - 2010.04.10 20:52:16.
