data_PCOD8272617
_publ_section_title
;
Structure prediction by ZEFSAII (Michael W. Deem and Ramdas Pophale) SiO2 
 PCOD8272617
Probable space group: C M M M
;
_chemical_formula_sum "Si O2"
_cell_formula_units_Z 64
_cell_length_a 20.720783
_cell_length_b 9.533416
_cell_length_c 17.651511
_cell_angle_alpha 90.000000
_cell_angle_beta 90.000000
_cell_angle_gamma 90.000000
_cell_volume 3486.876733
_symmetry_space_group_name_H-M "C M M M"
_symmetry_group_IT_number 65
_symmetry_cell_setting 'orthorhombic'
loop_
_space_group_symop_operation_xyz
x,y,z
-x,-y,z
x,-y,-z
-x,y,-z
-x,-y,-z
x,y,-z
-x,y,z
x,-y,z
1/2+x,1/2+y,z
1/2-x,1/2-y,z
1/2+x,1/2-y,-z
1/2-x,1/2+y,-z
1/2-x,1/2-y,-z
1/2+x,1/2+y,-z
1/2-x,1/2+y,z
1/2+x,1/2-y,z
loop_
_atom_site_type_symbol
_atom_site_label
_atom_site_fract_x
_atom_site_fract_y
_atom_site_fract_z
Si Si1 0.188782 0.338775 0.766574
Si Si2 0.619457 0.840075 0.914340
Si Si3 0.923983 0.347785 0.500000
Si Si4 0.427796 0.832320 0.662955
Si Si5 0.500000 0.656780 0.089731
O O1 0.201997 0.500000 0.745431
O O2 0.250000 0.250000 0.739803
O O3 0.179184 0.320481 0.857141
O O4 0.124614 0.282006 0.724267
O O5 0.563050 0.740057 0.883679
O O6 0.593750 0.000000 0.911021
O O7 0.641612 0.801661 0.000000
O O8 0.889494 0.500000 0.500000
O O9 0.906359 0.270648 0.579670
O O10 0.000000 0.370142 0.500000
O O11 0.500000 0.778038 0.685546
O O12 0.429641 0.000000 0.658057
O O13 0.500000 0.500000 0.124553
O O14 0.500000 0.650164 0.000000
#
# Coordination Sequence:
#
# PCOD8272617 Si02
#       5
#    16  16   8  16   8
#     4  10  21  34  49  69  98 131 163 203 244 287
#     4   9  18  32  49  68  92 127 167 201 238 286
#     4   7  10  20  41  70  97 117 148 197 240 276
#     4   8  14  26  47  72  95 122 158 198 239 283
#     4   9  17  29  47  73  99 120 149 198 252 291
#
# _framework density 18.354536
#
# number of rings (size 3 to 8) (size 9 to 14) (size 15 to 20)
#    0.000    3.250    0.000    1.875    1.750    3.000 
#    0.000    0.625    0.000    0.000    0.000    0.000 
#    0.000    3.000    0.000    0.000    0.000    0.000 
#
# Total GULP energy -396424.460669 kJ/mol
# GULP energy per Si atom -12388.264396 kJ/mol
# Density = 1.831276 g / cm^3
# Si number density = 18.354536 Si / 1000 Ang^3
#
#
#
# Elastic Constant Matrix: (Units=GPa)
#
#
# Indices 1 2 3 4 5 6 
#
# 1 111.1690 37.0249 55.3469 0.0000 0.0000 0.0000
# 2 37.0249 51.2032 17.9682 0.0000 0.0000 0.0000
# 3 55.3469 17.9682 106.3623 0.0000 0.0000 0.0000
# 4 0.0000 0.0000 0.0000 6.3876 0.0000 0.0000
# 5 0.0000 0.0000 0.0000 0.0000 15.5062 0.0000
# 6 0.0000 0.0000 0.0000 0.0000 0.0000 24.3875
#
#
#
# Elastic Compliance Matrix: (Units=1/GPa)
#
#
# Indices 1 2 3 4 5 6 
#
# 1 0.015045 -0.008644 -0.006369 0.000000 0.000000 0.000000
# 2 -0.008644 0.025727 0.000152 0.000000 0.000000 0.000000
# 3 -0.006369 0.000152 0.012690 0.000000 0.000000 0.000000
# 4 0.000000 0.000000 0.000000 0.156554 0.000000 0.000000
# 5 0.000000 0.000000 0.000000 0.000000 0.064490 0.000000
# 6 0.000000 0.000000 0.000000 0.000000 0.000000 0.041005
#
#
# Mechanical properties :
#
#
# Convention : Reuss Voigt Hill
#
# Bulk Modulus (GPa) = 42.12166 54.37939 48.25053
# Shear Modulus (GPa) = 14.15844 19.81588 16.98716
#
# Velocity S-wave (km/s) = 2.78040 3.28932 3.04551
# Velocity P-wave (km/s) = 5.77115 6.64211 6.22189
#
# Compressibility (1/GPa) = 0.02374075
#
# Stress axis : x y z
#
# Youngs Moduli (GPa) = 66.46780 38.86932 78.80154
#
# Poissons Ratio (x) = 0.33599 0.50185
# Poissons Ratio (y) = 0.57455 -0.01197
# Poissons Ratio (z) = 0.42330 -0.00590
#
# Static dielectric constant tensor:
#      x y z
#    x 3.116140 0.000000 0.000000 
#    y 0.000000 3.067630 0.000000 
#    z 0.000000 0.000000 3.741610 
# 
# 
# High freq. dielectric constant tensor:
#      x y z
#    x 1.683070 0.000000 0.000000 
#    y 0.000000 1.660440 0.000000 
#    z 0.000000 0.000000 1.720190 
# 
# From -- ./inp_files/49128.got.cif
#   From: 2010.03.12/outbox.cif.g09.slc.cpg/sg65_25_cif.got.tgz:49128.got - 2010.04.10 20:52:16.
