data_PCOD8272237
_publ_section_title
;
Structure prediction by ZEFSAII (Michael W. Deem and Ramdas Pophale) SiO2 
 PCOD8272237
Probable space group: C M M M
;
_chemical_formula_sum "Si O2"
_cell_formula_units_Z 64
_cell_length_a 34.868893
_cell_length_b 9.098100
_cell_length_c 10.410512
_cell_angle_alpha 90.000000
_cell_angle_beta 90.000000
_cell_angle_gamma 90.000000
_cell_volume 3302.637858
_symmetry_space_group_name_H-M "C M M M"
_symmetry_group_IT_number 65
_symmetry_cell_setting 'orthorhombic'
loop_
_space_group_symop_operation_xyz
x,y,z
-x,-y,z
x,-y,-z
-x,y,-z
-x,-y,-z
x,y,-z
-x,y,z
x,-y,z
1/2+x,1/2+y,z
1/2-x,1/2-y,z
1/2+x,1/2-y,-z
1/2-x,1/2+y,-z
1/2-x,1/2-y,-z
1/2+x,1/2+y,-z
1/2-x,1/2+y,z
1/2+x,1/2-y,z
loop_
_atom_site_type_symbol
_atom_site_label
_atom_site_fract_x
_atom_site_fract_y
_atom_site_fract_z
Si Si1 0.155831 0.827357 0.647988
Si Si2 0.928012 0.827505 0.731397
Si Si3 0.000000 0.655754 0.357187
Si Si4 0.709647 0.172769 0.853752
Si Si5 0.043270 0.172798 0.000000
O O1 0.167104 0.791423 0.500000
O O2 0.112205 0.776822 0.671755
O O3 0.181045 0.736673 0.747970
O O4 0.160939 0.000000 0.676599
O O5 0.931363 0.777334 0.879424
O O6 0.962419 0.751247 0.660131
O O7 0.933336 0.000000 0.714074
O O8 0.000000 0.500000 0.276899
O O9 0.000000 0.603057 0.500000
O O10 0.750000 0.250000 0.831179
O O11 0.714547 0.000000 0.830109
O O12 0.695036 0.203852 0.000000
O O13 0.000000 0.243042 0.000000
O O14 0.037476 0.000000 0.000000
#
# Coordination Sequence:
#
# PCOD8272237 Si02
#       5
#    16  16   8  16   8
#     4  10  22  38  59  90 122 155 198 243 292 351
#     4  10  20  36  58  82 111 148 193 240 286 344
#     4  11  23  36  51  74 108 151 194 239 294 345
#     4  10  22  41  65  92 121 155 195 237 288 349
#     4   9  16  30  54  84 109 136 185 242 291 338
#
# _framework density 19.378450000000001
#
# number of rings (size 3 to 8) (size 9 to 14) (size 15 to 20)
#    0.000    2.000    1.250    1.875    1.750    5.500 
#    0.000    1.250    0.000    0.000    0.000    0.000 
#    0.000    0.000    0.000    0.000    0.000    0.000 
#
# Total GULP energy -396594.059535 kJ/mol
# GULP energy per Si atom -12393.564360 kJ/mol
# Density = 1.933434 g / cm^3
# Si number density = 19.378450 Si / 1000 Ang^3
#
#
#
# Elastic Constant Matrix: (Units=GPa)
#
#
# Indices 1 2 3 4 5 6 
#
# 1 136.2390 72.3734 74.3502 0.0000 0.0000 0.0000
# 2 72.3734 82.2195 61.4865 0.0000 0.0000 0.0000
# 3 74.3502 61.4865 136.9042 0.0000 0.0000 0.0000
# 4 0.0000 0.0000 0.0000 27.7128 0.0000 0.0000
# 5 0.0000 0.0000 0.0000 0.0000 19.9969 0.0000
# 6 0.0000 0.0000 0.0000 0.0000 0.0000 30.2925
#
#
#
# Elastic Compliance Matrix: (Units=1/GPa)
#
#
# Indices 1 2 3 4 5 6 
#
# 1 0.014699 -0.010493 -0.003270 0.000000 0.000000 0.000000
# 2 -0.010493 0.025804 -0.005891 0.000000 0.000000 0.000000
# 3 -0.003270 -0.005891 0.011726 0.000000 0.000000 0.000000
# 4 0.000000 0.000000 0.000000 0.036084 0.000000 0.000000
# 5 0.000000 0.000000 0.000000 0.000000 0.050008 0.000000
# 6 0.000000 0.000000 0.000000 0.000000 0.000000 0.033011
#
#
# Mechanical properties :
#
#
# Convention : Reuss Voigt Hill
#
# Bulk Modulus (GPa) = 77.39048 85.75366 81.57207
# Shear Modulus (GPa) = 23.26154 25.41063 24.33608
#
# Velocity S-wave (km/s) = 3.46841 3.62509 3.54762
# Velocity P-wave (km/s) = 7.48752 7.86574 7.67896
#
# Compressibility (1/GPa) = 0.01292149
#
# Stress axis : x y z
#
# Youngs Moduli (GPa) = 68.03287 38.75320 85.28186
#
# Poissons Ratio (x) = 0.40664 0.27887
# Poissons Ratio (y) = 0.71388 0.50236
# Poissons Ratio (z) = 0.22246 0.22828
#
# Static dielectric constant tensor:
#      x y z
#    x 3.518390 0.000000 0.000000 
#    y 0.000000 3.407900 0.000000 
#    z 0.000000 0.000000 3.901000 
# 
# 
# High freq. dielectric constant tensor:
#      x y z
#    x 1.751580 0.000000 0.000000 
#    y 0.000000 1.745070 0.000000 
#    z 0.000000 0.000000 1.767260 
# 
# From -- ./inp_files/33228.got.cif
#   From: 2010.03.12/outbox.cif.g09.slc.cpg/sg65_17_cif.got.tgz:33228.got - 2010.04.10 20:52:16.
