data_PCOD8272745
_publ_section_title
;
Structure prediction by ZEFSAII (Michael W. Deem and Ramdas Pophale) SiO2 
 PCOD8272745
Probable space group: C M M M
;
_chemical_formula_sum "Si O2"
_cell_formula_units_Z 88
_cell_length_a 18.464364
_cell_length_b 9.203472
_cell_length_c 28.052689
_cell_angle_alpha 90.000000
_cell_angle_beta 90.000000
_cell_angle_gamma 90.000000
_cell_volume 4767.168969
_symmetry_space_group_name_H-M "C M M M"
_symmetry_group_IT_number 65
_symmetry_cell_setting 'orthorhombic'
loop_
_space_group_symop_operation_xyz
x,y,z
-x,-y,z
x,-y,-z
-x,y,-z
-x,-y,-z
x,y,-z
-x,y,z
x,-y,z
1/2+x,1/2+y,z
1/2-x,1/2-y,z
1/2+x,1/2-y,-z
1/2-x,1/2+y,-z
1/2-x,1/2-y,-z
1/2+x,1/2+y,-z
1/2-x,1/2+y,z
1/2+x,1/2-y,z
loop_
_atom_site_type_symbol
_atom_site_label
_atom_site_fract_x
_atom_site_fract_y
_atom_site_fract_z
Si Si1 0.825720 0.171248 0.868778
Si Si2 0.174041 0.828885 0.500000
Si Si3 0.916669 0.666066 0.055287
Si Si4 0.583404 0.668638 0.223608
Si Si5 0.086165 0.664078 0.684316
Si Si6 0.083580 0.830403 0.408300
O O1 0.750000 0.250000 0.863582
O O2 0.866297 0.224948 0.915844
O O3 0.872911 0.214308 0.823031
O O4 0.813616 0.000000 0.872989
O O5 0.250000 0.750000 0.500000
O O6 0.129018 0.779743 0.453862
O O7 0.187041 0.000000 0.500000
O O8 0.900898 0.500000 0.070456
O O9 0.000000 0.705278 0.065482
O O10 0.898387 0.688098 0.000000
O O11 0.500000 0.709077 0.214021
O O12 0.592300 0.500000 0.235838
O O13 0.615681 0.757299 0.268313
O O14 0.115414 0.500000 0.683834
O O15 0.115055 0.745121 0.637287
O O16 0.000000 0.670981 0.684579
O O17 0.000000 0.791146 0.418240
O O18 0.092619 0.000000 0.397797
#
# Coordination Sequence:
#
# PCOD8272745 Si02
#       6
#    16   8  16  16  16  16
#     4  11  23  37  54  78 109 144 181 220 263 312
#     4  10  21  35  51  73 101 134 170 206 250 302
#     4   9  19  37  60  84 109 138 174 217 265 316
#     4   9  18  34  55  77 102 134 172 213 258 309
#     4   9  17  29  49  79 107 129 161 208 259 306
#     4   9  17  32  54  76  99 130 169 210 250 297
#
# _framework density 18.459593999999999
#
# number of rings (size 3 to 8) (size 9 to 14) (size 15 to 20)
#    0.000    2.545    0.000    2.455    0.000    7.273 
#    0.000    3.636    0.000    2.727    0.000    0.000 
#    0.000    0.000    0.000    0.000    0.000    0.000 
#
# Total GULP energy -545699.642202 kJ/mol
# GULP energy per Si atom -12402.264595 kJ/mol
# Density = 1.841758 g / cm^3
# Si number density = 18.459594 Si / 1000 Ang^3
#
#
#
# Elastic Constant Matrix: (Units=GPa)
#
#
# Indices 1 2 3 4 5 6 
#
# 1 88.3985 52.2331 68.2676 0.0000 0.0000 0.0000
# 2 52.2331 90.2801 75.0893 0.0000 0.0000 0.0000
# 3 68.2676 75.0893 148.0037 0.0000 0.0000 0.0000
# 4 0.0000 0.0000 0.0000 29.5343 0.0000 0.0000
# 5 0.0000 0.0000 0.0000 0.0000 2.1895 0.0000
# 6 0.0000 0.0000 0.0000 0.0000 0.0000 -6.7375
#
#
#
# Elastic Compliance Matrix: (Units=1/GPa)
#
#
# Indices 1 2 3 4 5 6 
#
# 1 0.019617 -0.006615 -0.005692 0.000000 0.000000 0.000000
# 2 -0.006615 0.021394 -0.007803 0.000000 0.000000 0.000000
# 3 -0.005692 -0.007803 0.013341 0.000000 0.000000 0.000000
# 4 0.000000 0.000000 0.000000 0.033859 0.000000 0.000000
# 5 0.000000 0.000000 0.000000 0.000000 0.456735 0.000000
# 6 0.000000 0.000000 0.000000 0.000000 0.000000 -0.148422
#
#
# Mechanical properties :
#
#
# Convention : Reuss Voigt Hill
#
# Bulk Modulus (GPa) = 70.76534 79.76246 75.26390
# Shear Modulus (GPa) = 11.32617 13.73673 12.53145
#
# Velocity S-wave (km/s) = 2.47971 2.73087 2.60832
# Velocity P-wave (km/s) = 6.82767 7.29703 7.06625
#
# Compressibility (1/GPa) = 0.01413121
#
# Stress axis : x y z
#
# Youngs Moduli (GPa) = 50.97523 46.74217 74.95751
#
# Poissons Ratio (x) = 0.30922 0.42668
# Poissons Ratio (y) = 0.33723 0.58487
# Poissons Ratio (z) = 0.29017 0.36472
#
# Static dielectric constant tensor:
#      x y z
#    x 3.181270 0.000000 0.000000 
#    y 0.000000 3.395540 0.000000 
#    z 0.000000 0.000000 3.532850 
# 
# 
# High freq. dielectric constant tensor:
#      x y z
#    x 1.691830 0.000000 0.000000 
#    y 0.000000 1.716230 0.000000 
#    z 0.000000 0.000000 1.730030 
# 
# From -- ./inp_files/77905.got.cif
#   From: 2010.03.12/outbox.cif.g09.slc.cpg/sg65_39_cif.got.tgz:77905.got - 2010.04.10 20:52:16.
