data_PCOD8272028
_publ_section_title
;
Structure prediction by ZEFSAII (Michael W. Deem and Ramdas Pophale) SiO2 
 PCOD8272028
Probable space group: C M M M
;
_chemical_formula_sum "Si O2"
_cell_formula_units_Z 64
_cell_length_a 22.167670
_cell_length_b 16.478624
_cell_length_c 9.043638
_cell_angle_alpha 90.000000
_cell_angle_beta 90.000000
_cell_angle_gamma 90.000000
_cell_volume 3303.574933
_symmetry_space_group_name_H-M "C M M M"
_symmetry_group_IT_number 65
_symmetry_cell_setting 'orthorhombic'
loop_
_space_group_symop_operation_xyz
x,y,z
-x,-y,z
x,-y,-z
-x,y,-z
-x,-y,-z
x,y,-z
-x,y,z
x,-y,z
1/2+x,1/2+y,z
1/2-x,1/2-y,z
1/2+x,1/2-y,-z
1/2-x,1/2+y,-z
1/2-x,1/2-y,-z
1/2+x,1/2+y,-z
1/2-x,1/2+y,z
1/2+x,1/2-y,z
loop_
_atom_site_type_symbol
_atom_site_label
_atom_site_fract_x
_atom_site_fract_y
_atom_site_fract_z
Si Si1 0.739982 0.845499 0.333540
Si Si2 0.378478 0.176516 0.827232
Si Si3 0.641020 0.363796 0.172861
Si Si4 0.571067 0.500000 0.333062
Si Si5 0.500000 0.908108 0.824284
O O1 0.740355 0.880086 0.500000
O O2 0.750000 0.750000 0.332486
O O3 0.676328 0.867103 0.257974
O O4 0.793759 0.885928 0.240541
O O5 0.379075 0.272059 0.794042
O O6 0.440661 0.138529 0.766394
O O7 0.369358 0.159184 0.000000
O O8 0.591631 0.419755 0.248451
O O9 0.643869 0.382124 0.000000
O O10 0.500000 0.500000 0.333854
O O11 0.596746 0.500000 0.500000
O O12 0.500000 0.000000 0.763247
O O13 0.500000 0.907410 0.000000
#
# Coordination Sequence:
#
# PCOD8272028 Si02
#       5
#    16  16  16   8   8
#     4   9  17  32  55  81 111 145 184 228 279 334
#     4   9  18  33  57  84 111 145 189 235 280 332
#     4  10  20  35  58  84 111 145 189 235 279 329
#     4  11  25  41  55  79 117 152 185 228 281 341
#     4   9  18  34  55  82 113 144 180 231 283 327
#
# _framework density 19.372952999999999
#
# number of rings (size 3 to 8) (size 9 to 14) (size 15 to 20)
#    0.000    2.500    0.000    1.875    1.750    5.000 
#    2.250    0.625    0.000    0.750    0.000    0.000 
#    0.000    0.000    0.000    0.000    0.000    0.000 
#
# Total GULP energy -396848.834945 kJ/mol
# GULP energy per Si atom -12401.526092 kJ/mol
# Density = 1.932886 g / cm^3
# Si number density = 19.372953 Si / 1000 Ang^3
#
#
#
# Elastic Constant Matrix: (Units=GPa)
#
#
# Indices 1 2 3 4 5 6 
#
# 1 162.4465 55.8398 61.7613 0.0000 0.0000 0.0000
# 2 55.8398 71.9236 44.5582 0.0000 0.0000 0.0000
# 3 61.7613 44.5582 112.2680 0.0000 0.0000 0.0000
# 4 0.0000 0.0000 0.0000 19.3195 0.0000 0.0000
# 5 0.0000 0.0000 0.0000 0.0000 31.3828 0.0000
# 6 0.0000 0.0000 0.0000 0.0000 0.0000 26.3905
#
#
#
# Elastic Compliance Matrix: (Units=1/GPa)
#
#
# Indices 1 2 3 4 5 6 
#
# 1 0.009060 -0.005233 -0.002907 0.000000 0.000000 0.000000
# 2 -0.005233 0.021459 -0.005638 0.000000 0.000000 0.000000
# 3 -0.002907 -0.005638 0.012744 0.000000 0.000000 0.000000
# 4 0.000000 0.000000 0.000000 0.051761 0.000000 0.000000
# 5 0.000000 0.000000 0.000000 0.000000 0.031865 0.000000
# 6 0.000000 0.000000 0.000000 0.000000 0.000000 0.037892
#
#
# Mechanical properties :
#
#
# Convention : Reuss Voigt Hill
#
# Bulk Modulus (GPa) = 63.66619 74.55074 69.10847
# Shear Modulus (GPa) = 25.30694 27.71714 26.51204
#
# Velocity S-wave (km/s) = 3.61820 3.78658 3.70335
# Velocity P-wave (km/s) = 7.09859 7.59493 7.35095
#
# Compressibility (1/GPa) = 0.01570692
#
# Stress axis : x y z
#
# Youngs Moduli (GPa) = 110.37607 46.59975 78.46597
#
# Poissons Ratio (x) = 0.24385 0.22812
# Poissons Ratio (y) = 0.57758 0.44242
# Poissons Ratio (z) = 0.32089 0.26274
#
# Static dielectric constant tensor:
#      x y z
#    x 3.705660 0.000000 0.000000 
#    y 0.000000 3.370460 0.000000 
#    z 0.000000 0.000000 3.557530 
# 
# 
# High freq. dielectric constant tensor:
#      x y z
#    x 1.764750 0.000000 0.000000 
#    y 0.000000 1.735640 0.000000 
#    z 0.000000 0.000000 1.748130 
# 
# From -- ./inp_files/6778.got.cif
#   From: 2010.03.12/outbox.cif.g09.slc.cpg/sg65_4_cif.got.tgz:6778.got - 2010.04.10 20:52:16.
