data_PCOD8272956
_publ_section_title
;
Structure prediction by ZEFSAII (Michael W. Deem and Ramdas Pophale) SiO2 
 PCOD8272956
Probable space group: C M M M
;
_chemical_formula_sum "Si O2"
_cell_formula_units_Z 104
_cell_length_a 15.085127
_cell_length_b 28.113765
_cell_length_c 13.155400
_cell_angle_alpha 90.000000
_cell_angle_beta 90.000000
_cell_angle_gamma 90.000000
_cell_volume 5579.201397
_symmetry_space_group_name_H-M "C M M M"
_symmetry_group_IT_number 65
_symmetry_cell_setting 'orthorhombic'
loop_
_space_group_symop_operation_xyz
x,y,z
-x,-y,z
x,-y,-z
-x,y,-z
-x,-y,-z
x,y,-z
-x,y,z
x,-y,z
1/2+x,1/2+y,z
1/2-x,1/2-y,z
1/2+x,1/2-y,-z
1/2-x,1/2+y,-z
1/2-x,1/2-y,-z
1/2+x,1/2+y,-z
1/2-x,1/2+y,z
1/2+x,1/2-y,z
loop_
_atom_site_type_symbol
_atom_site_label
_atom_site_fract_x
_atom_site_fract_y
_atom_site_fract_z
Si Si1 0.256876 0.697687 0.764987
Si Si2 0.098023 0.580822 0.744329
Si Si3 0.253189 0.609527 0.381487
Si Si4 0.096160 0.671203 0.884835
Si Si5 0.102593 0.055395 0.262104
Si Si6 0.602444 0.640713 0.116636
Si Si7 0.394225 0.000000 0.112091
O O1 0.250000 0.750000 0.714737
O O2 0.248710 0.660283 0.674060
O O3 0.177219 0.702782 0.847147
O O4 0.344867 0.682910 0.826857
O O5 0.162378 0.582349 0.647239
O O6 0.092851 0.629042 0.805197
O O7 0.140224 0.544959 0.825559
O O8 0.000000 0.565319 0.706220
O O9 0.256991 0.619524 0.500000
O O10 0.337071 0.576665 0.352270
O O11 0.000000 0.697751 0.880128
O O12 0.113126 0.653115 0.000000
O O13 0.121502 0.088225 0.163339
O O14 0.000000 0.059745 0.295940
O O15 0.126131 0.000000 0.238988
O O16 0.500000 0.654327 0.127625
O O17 0.632723 0.638159 0.000000
O O18 0.500000 0.000000 0.103295
O O19 0.351372 0.000000 0.000000
#
# Coordination Sequence:
#
# PCOD8272956 Si02
#       7
#    16  16  16  16  16  16   8
#     4  10  21  36  53  74 103 135 174 222 267 315
#     4   9  18  32  50  74 106 138 171 208 247 296
#     4  10  22  38  56  75 100 134 176 228 276 316
#     4   9  17  30  49  73 102 136 170 203 245 301
#     4   9  19  36  57  80 107 138 177 222 267 318
#     4   9  18  33  54  81 113 145 174 209 259 319
#     4   9  16  28  49  75 104 139 171 197 233 285
#
# _framework density 18.640661000000001
#
# number of rings (size 3 to 8) (size 9 to 14) (size 15 to 20)
#    0.000    2.692    0.000    0.923    1.077    5.231 
#    0.000    4.615    0.000    1.385    0.000    8.615 
#    0.000    0.000    0.000    0.000    0.000    0.000 
#
# Total GULP energy -644260.185499 kJ/mol
# GULP energy per Si atom -12389.618952 kJ/mol
# Density = 1.859823 g / cm^3
# Si number density = 18.640661 Si / 1000 Ang^3
#
#
#
# Elastic Constant Matrix: (Units=GPa)
#
#
# Indices 1 2 3 4 5 6 
#
# 1 96.9942 41.8081 53.0421 0.0000 0.0000 0.0000
# 2 41.8081 103.9234 33.6391 0.0000 0.0000 0.0000
# 3 53.0421 33.6391 124.4133 0.0000 0.0000 0.0000
# 4 0.0000 0.0000 0.0000 14.9666 0.0000 0.0000
# 5 0.0000 0.0000 0.0000 0.0000 23.5738 0.0000
# 6 0.0000 0.0000 0.0000 0.0000 0.0000 13.0428
#
#
#
# Elastic Compliance Matrix: (Units=1/GPa)
#
#
# Indices 1 2 3 4 5 6 
#
# 1 0.015055 -0.004361 -0.005239 0.000000 0.000000 0.000000
# 2 -0.004361 0.011808 -0.001334 0.000000 0.000000 0.000000
# 3 -0.005239 -0.001334 0.010632 0.000000 0.000000 0.000000
# 4 0.000000 0.000000 0.000000 0.066815 0.000000 0.000000
# 5 0.000000 0.000000 0.000000 0.000000 0.042420 0.000000
# 6 0.000000 0.000000 0.000000 0.000000 0.000000 0.076671
#
#
# Mechanical properties :
#
#
# Convention : Reuss Voigt Hill
#
# Bulk Modulus (GPa) = 63.98800 64.70106 64.34453
# Shear Modulus (GPa) = 19.96186 23.43942 21.70064
#
# Velocity S-wave (km/s) = 3.27598 3.54988 3.41567
# Velocity P-wave (km/s) = 6.97933 7.18242 7.08160
#
# Compressibility (1/GPa) = 0.01562793
#
# Stress axis : x y z
#
# Youngs Moduli (GPa) = 66.42476 84.68547 94.05500
#
# Poissons Ratio (x) = 0.36927 0.49279
# Poissons Ratio (y) = 0.28965 0.12544
# Poissons Ratio (z) = 0.34802 0.11295
#
# Static dielectric constant tensor:
#      x y z
#    x 4.012740 0.000000 0.000000 
#    y 0.000000 3.224910 0.000000 
#    z 0.000000 0.000000 3.178470 
# 
# 
# High freq. dielectric constant tensor:
#      x y z
#    x 1.735060 0.000000 0.000000 
#    y 0.000000 1.713780 0.000000 
#    z 0.000000 0.000000 1.700640 
# 
# From -- ./inp_files/25546.got.cif
#   From: 2010.03.12/outbox.cif.g09.slc.cpg/sg65_13_cif.got.tgz:25546.got - 2010.04.10 20:52:16.
