data_PCOD8272789
_publ_section_title
;
Structure prediction by ZEFSAII (Michael W. Deem and Ramdas Pophale) SiO2 
 PCOD8272789
Probable space group: C M M M
;
_chemical_formula_sum "Si O2"
_cell_formula_units_Z 88
_cell_length_a 30.469157
_cell_length_b 9.029762
_cell_length_c 17.763977
_cell_angle_alpha 90.000000
_cell_angle_beta 90.000000
_cell_angle_gamma 90.000000
_cell_volume 4887.389421
_symmetry_space_group_name_H-M "C M M M"
_symmetry_group_IT_number 65
_symmetry_cell_setting 'orthorhombic'
loop_
_space_group_symop_operation_xyz
x,y,z
-x,-y,z
x,-y,-z
-x,y,-z
-x,-y,-z
x,y,-z
-x,y,z
x,-y,z
1/2+x,1/2+y,z
1/2-x,1/2-y,z
1/2+x,1/2-y,-z
1/2-x,1/2+y,-z
1/2-x,1/2-y,-z
1/2+x,1/2+y,-z
1/2-x,1/2+y,z
1/2+x,1/2-y,z
loop_
_atom_site_type_symbol
_atom_site_label
_atom_site_fract_x
_atom_site_fract_y
_atom_site_fract_z
Si Si1 0.676905 0.830515 0.085394
Si Si2 0.413270 0.830850 0.840875
Si Si3 0.049237 0.673078 0.412578
Si Si4 0.706333 0.675081 0.234427
Si Si5 0.500000 0.175656 0.918629
Si Si6 0.615393 0.326871 0.697015
O O1 0.624719 0.819081 0.096980
O O2 0.700296 0.730958 0.148419
O O3 0.692549 0.000000 0.096147
O O4 0.687909 0.776212 0.000000
O O5 0.457242 0.769221 0.876605
O O6 0.408081 0.718666 0.773024
O O7 0.417073 0.000000 0.810981
O O8 0.054545 0.710262 0.500000
O O9 0.053457 0.500000 0.397018
O O10 0.090166 0.750650 0.371782
O O11 0.000000 0.725318 0.386024
O O12 0.711737 0.500000 0.231254
O O13 0.750000 0.750000 0.268367
O O14 0.666590 0.720801 0.291030
O O15 0.500000 0.000000 0.925360
O O16 0.500000 0.250423 0.000000
O O17 0.611836 0.500000 0.683717
#
# Coordination Sequence:
#
# PCOD8272789 Si02
#       6
#    16  16  16  16   8  16
#     4   9  17  30  48  69  95 129 170 217 268 317
#     4   9  17  29  46  68  95 131 173 215 255 301
#     4   9  19  36  58  84 112 141 173 206 241 289
#     4  10  21  36  53  74 100 132 173 217 263 313
#     4   9  16  26  43  67  92 123 170 221 257 288
#     4  10  21  35  52  77 107 137 168 208 256 306
#
# _framework density 18.005523
#
# number of rings (size 3 to 8) (size 9 to 14) (size 15 to 20)
#    0.000    2.636    0.000    2.182    1.273    5.818 
#    0.000    0.909    0.000    2.727    0.000    0.000 
#    0.000    0.000    0.000    0.000    0.000    0.000 
#
# Total GULP energy -545287.495214 kJ/mol
# GULP energy per Si atom -12392.897619 kJ/mol
# Density = 1.796454 g / cm^3
# Si number density = 18.005523 Si / 1000 Ang^3
#
#
#
# Elastic Constant Matrix: (Units=GPa)
#
#
# Indices 1 2 3 4 5 6 
#
# 1 150.1670 54.5919 60.5270 0.0000 0.0000 0.0000
# 2 54.5919 58.8694 40.8934 0.0000 0.0000 0.0000
# 3 60.5270 40.8934 83.1739 0.0000 0.0000 0.0000
# 4 0.0000 0.0000 0.0000 13.9694 0.0000 0.0000
# 5 0.0000 0.0000 0.0000 0.0000 18.3261 0.0000
# 6 0.0000 0.0000 0.0000 0.0000 0.0000 26.5008
#
#
#
# Elastic Compliance Matrix: (Units=1/GPa)
#
#
# Indices 1 2 3 4 5 6 
#
# 1 0.011085 -0.007101 -0.004575 0.000000 0.000000 0.000000
# 2 -0.007101 0.030347 -0.009753 0.000000 0.000000 0.000000
# 3 -0.004575 -0.009753 0.020147 0.000000 0.000000 0.000000
# 4 0.000000 0.000000 0.000000 0.071585 0.000000 0.000000
# 5 0.000000 0.000000 0.000000 0.000000 0.054567 0.000000
# 6 0.000000 0.000000 0.000000 0.000000 0.000000 0.037735
#
#
# Mechanical properties :
#
#
# Convention : Reuss Voigt Hill
#
# Bulk Modulus (GPa) = 53.41649 67.13720 60.27684
# Shear Modulus (GPa) = 18.21067 20.83913 19.52490
#
# Velocity S-wave (km/s) = 3.18369 3.40571 3.29657
# Velocity P-wave (km/s) = 6.57614 7.26864 6.93104
#
# Compressibility (1/GPa) = 0.01872081
#
# Stress axis : x y z
#
# Youngs Moduli (GPa) = 90.21177 32.95257 49.63408
#
# Poissons Ratio (x) = 0.23401 0.22709
# Poissons Ratio (y) = 0.64063 0.48406
# Poissons Ratio (z) = 0.41274 0.32137
#
# Static dielectric constant tensor:
#      x y z
#    x 3.611620 0.000000 0.000000 
#    y 0.000000 3.166900 0.000000 
#    z 0.000000 0.000000 3.168290 
# 
# 
# High freq. dielectric constant tensor:
#      x y z
#    x 1.708330 0.000000 0.000000 
#    y 0.000000 1.683400 0.000000 
#    z 0.000000 0.000000 1.676340 
# 
# From -- ./inp_files/58005.got.cif
#   From: 2010.03.12/outbox.cif.g09.slc.cpg/sg65_30_cif.got.tgz:58005.got - 2010.04.10 20:52:16.
