data_PCOD8272368
_publ_section_title
;
Structure prediction by ZEFSAII (Michael W. Deem and Ramdas Pophale) SiO2 
 PCOD8272368
Probable space group: C M M M
;
_chemical_formula_sum "Si O2"
_cell_formula_units_Z 64
_cell_length_a 21.840795
_cell_length_b 17.667263
_cell_length_c 7.856688
_cell_angle_alpha 90.000000
_cell_angle_beta 90.000000
_cell_angle_gamma 90.000000
_cell_volume 3031.637174
_symmetry_space_group_name_H-M "C M M M"
_symmetry_group_IT_number 65
_symmetry_cell_setting 'orthorhombic'
loop_
_space_group_symop_operation_xyz
x,y,z
-x,-y,z
x,-y,-z
-x,y,-z
-x,-y,-z
x,y,-z
-x,y,z
x,-y,z
1/2+x,1/2+y,z
1/2-x,1/2-y,z
1/2+x,1/2-y,-z
1/2-x,1/2+y,-z
1/2-x,1/2-y,-z
1/2+x,1/2+y,-z
1/2-x,1/2+y,z
1/2+x,1/2-y,z
loop_
_atom_site_type_symbol
_atom_site_label
_atom_site_fract_x
_atom_site_fract_y
_atom_site_fract_z
Si Si1 0.072250 0.585809 0.000000
Si Si2 0.136706 0.664573 0.688295
Si Si3 0.000000 0.914932 0.797607
Si Si4 0.254408 0.414132 0.801172
Si Si5 0.378283 0.331621 0.199257
O O1 0.094985 0.625400 0.170809
O O2 0.096783 0.500000 0.000000
O O3 0.000000 0.589979 0.000000
O O4 0.113329 0.641160 0.500000
O O5 0.207220 0.639893 0.704843
O O6 0.132899 0.754524 0.701576
O O7 0.940139 0.870647 0.732494
O O8 0.000000 0.000000 0.722392
O O9 0.000000 0.919166 0.000000
O O10 0.246683 0.500000 0.737189
O O11 0.323142 0.388617 0.760631
O O12 0.239628 0.407509 0.000000
O O13 0.382819 0.312971 0.000000
#
# Coordination Sequence:
#
# PCOD8272368 Si02
#       5
#     8  16   8  16  16
#     4  11  26  48  71  94 128 169 214 271 329 387
#     4  12  25  41  67  98 130 168 216 267 324 390
#     4   9  18  34  61  97 131 169 219 266 315 382
#     4  10  20  37  62  92 129 173 222 274 326 383
#     4  10  20  36  62  93 132 176 219 266 323 382
#
# _framework density 21.110707000000001
#
# number of rings (size 3 to 8) (size 9 to 14) (size 15 to 20)
#    0.000    1.500    2.500    2.250    1.750    9.500 
#    0.000    1.250    0.000    3.000    0.000    0.000 
#    0.000    0.000    0.000    0.000    0.000    0.000 
#
# Total GULP energy -396928.420660 kJ/mol
# GULP energy per Si atom -12404.013146 kJ/mol
# Density = 2.106266 g / cm^3
# Si number density = 21.110707 Si / 1000 Ang^3
#
#
#
# Elastic Constant Matrix: (Units=GPa)
#
#
# Indices 1 2 3 4 5 6 
#
# 1 132.3607 77.9010 40.5066 0.0000 0.0000 0.0000
# 2 77.9010 171.8019 47.6199 0.0000 0.0000 0.0000
# 3 40.5066 47.6199 107.8886 0.0000 0.0000 0.0000
# 4 0.0000 0.0000 0.0000 -4.0678 0.0000 0.0000
# 5 0.0000 0.0000 0.0000 0.0000 -2.2581 0.0000
# 6 0.0000 0.0000 0.0000 0.0000 0.0000 20.6812
#
#
#
# Elastic Compliance Matrix: (Units=1/GPa)
#
#
# Indices 1 2 3 4 5 6 
#
# 1 0.010723 -0.004268 -0.002142 0.000000 0.000000 0.000000
# 2 -0.004268 0.008331 -0.002075 0.000000 0.000000 0.000000
# 3 -0.002142 -0.002075 0.010989 0.000000 0.000000 0.000000
# 4 0.000000 0.000000 0.000000 -0.245832 0.000000 0.000000
# 5 0.000000 0.000000 0.000000 0.000000 -0.442852 0.000000
# 6 0.000000 0.000000 0.000000 0.000000 0.000000 0.048353
#
#
# Mechanical properties :
#
#
# Convention : Reuss Voigt Hill
#
# Bulk Modulus (GPa) = 76.49469 82.67844 79.58657
# Shear Modulus (GPa) = -8.48953 19.27264 5.39155
#
# Velocity S-wave (km/s) = -2.00753 3.02475 1.59984
# Velocity P-wave (km/s) = 5.56239 7.17273 6.41826
#
# Compressibility (1/GPa) = 0.01307280
#
# Stress axis : x y z
#
# Youngs Moduli (GPa) = 93.25961 120.03158 91.00270
#
# Poissons Ratio (x) = 0.51234 0.19491
# Poissons Ratio (y) = 0.39807 0.18880
# Poissons Ratio (z) = 0.19975 0.24902
#
# Static dielectric constant tensor:
#      x y z
#    x 3.885100 0.000000 0.000000 
#    y 0.000000 3.968260 0.000000 
#    z 0.000000 0.000000 3.638320 
# 
# 
# High freq. dielectric constant tensor:
#      x y z
#    x 1.835350 0.000000 0.000000 
#    y 0.000000 1.840140 0.000000 
#    z 0.000000 0.000000 1.809000 
# 
# From -- ./inp_files/10844.got.cif
#   From: 2010.03.12/outbox.cif.g09.slc.cpg/sg65_6_cif.got.tgz:10844.got - 2010.04.10 20:52:16.
