data_PCOD8272734
_publ_section_title
;
Structure prediction by ZEFSAII (Michael W. Deem and Ramdas Pophale) SiO2 
 PCOD8272734
Probable space group: C M M M
;
_chemical_formula_sum "Si O2"
_cell_formula_units_Z 88
_cell_length_a 10.296632
_cell_length_b 18.680756
_cell_length_c 25.512168
_cell_angle_alpha 90.000000
_cell_angle_beta 90.000000
_cell_angle_gamma 90.000000
_cell_volume 4907.236686
_symmetry_space_group_name_H-M "C M M M"
_symmetry_group_IT_number 65
_symmetry_cell_setting 'orthorhombic'
loop_
_space_group_symop_operation_xyz
x,y,z
-x,-y,z
x,-y,-z
-x,y,-z
-x,-y,-z
x,y,-z
-x,y,z
x,-y,z
1/2+x,1/2+y,z
1/2-x,1/2-y,z
1/2+x,1/2-y,-z
1/2-x,1/2+y,-z
1/2-x,1/2-y,-z
1/2+x,1/2+y,-z
1/2-x,1/2+y,z
1/2+x,1/2-y,z
loop_
_atom_site_type_symbol
_atom_site_label
_atom_site_fract_x
_atom_site_fract_y
_atom_site_fract_z
Si Si1 0.150840 0.814902 0.763697
Si Si2 0.149602 0.813326 0.645268
Si Si3 0.500000 0.080538 0.061712
Si Si4 0.646103 0.421666 0.149847
Si Si5 0.746586 0.665838 0.061074
Si Si6 0.846321 0.920846 0.557512
O O1 0.250000 0.750000 0.771969
O O2 0.158112 0.843958 0.704262
O O3 0.206440 0.876606 0.802105
O O4 0.000000 0.793179 0.776998
O O5 0.250000 0.750000 0.638199
O O6 0.203373 0.871725 0.604601
O O7 0.000000 0.789924 0.633067
O O8 0.378571 0.127669 0.079690
O O9 0.500000 0.000000 0.086288
O O10 0.500000 0.072852 0.000000
O O11 0.500000 0.436986 0.165706
O O12 0.715445 0.500000 0.142845
O O13 0.641751 0.374878 0.096296
O O14 0.750000 0.750000 0.073990
O O15 0.714293 0.653602 0.000000
O O16 0.803494 0.891065 0.500000
O O17 0.000000 0.925472 0.559979
O O18 0.787133 0.000000 0.565542
#
# Coordination Sequence:
#
# PCOD8272734 Si02
#       6
#    16  16   8  16  16  16
#     4   9  18  34  53  72  97 128 163 202 244 293
#     4   9  17  29  48  72  96 126 162 201 247 293
#     4   9  18  34  54  74  99 131 165 201 239 287
#     4  10  21  35  51  73 100 126 155 197 246 292
#     4  10  21  35  54  76 100 129 163 199 240 294
#     4   8  14  25  42  67  98 129 164 205 243 283
#
# _framework density 17.932700000000001
#
# number of rings (size 3 to 8) (size 9 to 14) (size 15 to 20)
#    0.000    2.818    0.000    1.636    1.273    2.545 
#    1.636    4.545    0.000    0.545    0.000    6.364 
#    0.000    0.000    0.000    0.000    0.000    0.000 
#
# Total GULP energy -545111.315408 kJ/mol
# GULP energy per Si atom -12388.893532 kJ/mol
# Density = 1.789188 g / cm^3
# Si number density = 17.932700 Si / 1000 Ang^3
#
#
#
# Elastic Constant Matrix: (Units=GPa)
#
#
# Indices 1 2 3 4 5 6 
#
# 1 46.2168 32.5548 23.5419 0.0000 0.0000 0.0000
# 2 32.5548 141.4914 84.9378 0.0000 0.0000 0.0000
# 3 23.5419 84.9378 126.7818 0.0000 0.0000 0.0000
# 4 0.0000 0.0000 0.0000 11.6586 0.0000 0.0000
# 5 0.0000 0.0000 0.0000 0.0000 17.6016 0.0000
# 6 0.0000 0.0000 0.0000 0.0000 0.0000 19.4012
#
#
#
# Elastic Compliance Matrix: (Units=1/GPa)
#
#
# Indices 1 2 3 4 5 6 
#
# 1 0.025964 -0.005151 -0.001370 0.000000 0.000000 0.000000
# 2 -0.005151 0.012844 -0.007648 0.000000 0.000000 0.000000
# 3 -0.001370 -0.007648 0.013266 0.000000 0.000000 0.000000
# 4 0.000000 0.000000 0.000000 0.085774 0.000000 0.000000
# 5 0.000000 0.000000 0.000000 0.000000 0.056813 0.000000
# 6 0.000000 0.000000 0.000000 0.000000 0.000000 0.051543
#
#
# Mechanical properties :
#
#
# Convention : Reuss Voigt Hill
#
# Bulk Modulus (GPa) = 42.13321 66.28433 54.20877
# Shear Modulus (GPa) = 17.70195 21.29598 19.49897
#
# Velocity S-wave (km/s) = 3.14528 3.44982 3.30106
# Velocity P-wave (km/s) = 6.06107 7.27403 6.69507
#
# Compressibility (1/GPa) = 0.02373424
#
# Stress axis : x y z
#
# Youngs Moduli (GPa) = 38.51551 77.85607 75.38032
#
# Poissons Ratio (x) = 0.40107 0.10327
# Poissons Ratio (y) = 0.19841 0.57654
# Poissons Ratio (z) = 0.05276 0.59548
#
# Static dielectric constant tensor:
#      x y z
#    x 3.144920 0.000000 0.000000 
#    y 0.000000 3.626650 0.000000 
#    z 0.000000 0.000000 3.499980 
# 
# 
# High freq. dielectric constant tensor:
#      x y z
#    x 1.664200 0.000000 0.000000 
#    y 0.000000 1.693420 0.000000 
#    z 0.000000 0.000000 1.698730 
# 
# From -- ./inp_files/68922.got.cif
#   From: 2010.03.12/outbox.cif.g09.slc.cpg/sg65_35_cif.got.tgz:68922.got - 2010.04.10 20:52:16.
