data_PCOD8272452
_publ_section_title
;
Structure prediction by ZEFSAII (Michael W. Deem and Ramdas Pophale) SiO2 
 PCOD8272452
Probable space group: C M M M
;
_chemical_formula_sum "Si O2"
_cell_formula_units_Z 104
_cell_length_a 27.252361
_cell_length_b 21.868346
_cell_length_c 8.652152
_cell_angle_alpha 90.000000
_cell_angle_beta 90.000000
_cell_angle_gamma 90.000000
_cell_volume 5156.371631
_symmetry_space_group_name_H-M "C M M M"
_symmetry_group_IT_number 65
_symmetry_cell_setting 'orthorhombic'
loop_
_space_group_symop_operation_xyz
x,y,z
-x,-y,z
x,-y,-z
-x,y,-z
-x,-y,-z
x,y,-z
-x,y,z
x,-y,z
1/2+x,1/2+y,z
1/2-x,1/2-y,z
1/2+x,1/2-y,-z
1/2-x,1/2+y,-z
1/2-x,1/2-y,-z
1/2+x,1/2+y,-z
1/2-x,1/2+y,z
1/2+x,1/2-y,z
loop_
_atom_site_type_symbol
_atom_site_label
_atom_site_fract_x
_atom_site_fract_y
_atom_site_fract_z
Si Si1 0.782356 0.000000 0.824320
Si Si2 0.676733 0.000000 0.681923
Si Si3 0.323781 0.626003 0.824709
Si Si4 0.943773 0.699982 0.678979
Si Si5 0.266631 0.181341 0.671533
Si Si6 0.000000 0.930153 0.315662
Si Si7 0.858383 0.372984 0.182433
Si Si8 0.920907 0.834672 0.680184
O O1 0.735046 0.000000 0.714109
O O2 0.820152 0.945587 0.793456
O O3 0.761990 0.000000 0.000000
O O4 0.650867 0.940685 0.753407
O O5 0.668101 0.000000 0.500000
O O6 0.269507 0.649105 0.789722
O O7 0.363731 0.655299 0.712719
O O8 0.338132 0.642169 0.000000
O O9 0.927385 0.697998 0.500000
O O10 0.912431 0.650643 0.774374
O O11 0.936736 0.768693 0.747856
O O12 0.000000 0.680302 0.698850
O O13 0.265351 0.151011 0.500000
O O14 0.250000 0.250000 0.656801
O O15 0.320816 0.175427 0.741566
O O16 0.952848 0.891575 0.253254
O O17 0.000000 0.934238 0.500000
O O18 0.000000 0.000000 0.248359
O O19 0.851369 0.373690 0.000000
O O20 0.931019 0.832134 0.500000
#
# Coordination Sequence:
#
# PCOD8272452 Si02
#       8
#     8   8  16  16  16   8  16  16
#     4  10  22  40  58  82 122 166 203 248 307 366
#     4  12  24  42  69  95 123 165 214 253 310 383
#     4  11  23  37  56  84 121 159 197 245 303 364
#     4  10  21  41  66  91 122 162 212 266 320 376
#     4  11  23  39  59  87 121 158 204 253 300 361
#     4   9  18  34  57  87 119 158 209 264 315 365
#     4  12  25  41  64  94 129 164 204 258 323 386
#     4  10  20  37  61  89 121 161 211 265 316 368
#
# _framework density 20.169222000000001
#
# number of rings (size 3 to 8) (size 9 to 14) (size 15 to 20)
#    0.000    1.308    2.308    3.923    1.077    6.462 
#    0.000    0.769    0.000    2.769    0.000    0.000 
#    0.000    0.000    0.000    0.000    0.000    0.000 
#
# Total GULP energy -644820.776597 kJ/mol
# GULP energy per Si atom -12400.399550 kJ/mol
# Density = 2.012332 g / cm^3
# Si number density = 20.169222 Si / 1000 Ang^3
#
#
#
# Elastic Constant Matrix: (Units=GPa)
#
#
# Indices 1 2 3 4 5 6 
#
# 1 106.0947 39.5168 31.8605 0.0000 0.0000 0.0000
# 2 39.5168 97.8789 51.4555 0.0000 0.0000 0.0000
# 3 31.8605 51.4555 73.0596 0.0000 0.0000 0.0000
# 4 0.0000 0.0000 0.0000 25.2019 0.0000 0.0000
# 5 0.0000 0.0000 0.0000 0.0000 17.4263 0.0000
# 6 0.0000 0.0000 0.0000 0.0000 0.0000 9.4700
#
#
#
# Elastic Compliance Matrix: (Units=1/GPa)
#
#
# Indices 1 2 3 4 5 6 
#
# 1 0.011433 -0.003167 -0.002755 0.000000 0.000000 0.000000
# 2 -0.003167 0.017101 -0.010663 0.000000 0.000000 0.000000
# 3 -0.002755 -0.010663 0.022399 0.000000 0.000000 0.000000
# 4 0.000000 0.000000 0.000000 0.039680 0.000000 0.000000
# 5 0.000000 0.000000 0.000000 0.000000 0.057384 0.000000
# 6 0.000000 0.000000 0.000000 0.000000 0.000000 0.105596
#
#
# Mechanical properties :
#
#
# Convention : Reuss Voigt Hill
#
# Bulk Modulus (GPa) = 56.30014 58.07765 57.18890
# Shear Modulus (GPa) = 17.08331 20.69969 18.89150
#
# Velocity S-wave (km/s) = 2.91348 3.20707 3.06379
# Velocity P-wave (km/s) = 6.26836 6.52468 6.39780
#
# Compressibility (1/GPa) = 0.01776195
#
# Stress axis : x y z
#
# Youngs Moduli (GPa) = 87.46923 58.47586 44.64560
#
# Poissons Ratio (x) = 0.18522 0.12299
# Poissons Ratio (y) = 0.27706 0.47605
# Poissons Ratio (z) = 0.24096 0.62352
#
# Static dielectric constant tensor:
#      x y z
#    x 3.562580 0.000000 0.000000 
#    y 0.000000 3.482910 0.000000 
#    z 0.000000 0.000000 3.580840 
# 
# 
# High freq. dielectric constant tensor:
#      x y z
#    x 1.786210 0.000000 0.000000 
#    y 0.000000 1.796540 0.000000 
#    z 0.000000 0.000000 1.775940 
# 
# From -- ./inp_files/16571.got.cif
#   From: 2010.03.12/outbox.cif.g09.slc.cpg/sg65_9_cif.got.tgz:16571.got - 2010.04.10 20:52:16.
