data_PCOD8272286
_publ_section_title
;
Structure prediction by ZEFSAII (Michael W. Deem and Ramdas Pophale) SiO2 
 PCOD8272286
Probable space group: C M M M
;
_chemical_formula_sum "Si O2"
_cell_formula_units_Z 80
_cell_length_a 23.922792
_cell_length_b 9.017359
_cell_length_c 20.136491
_cell_angle_alpha 90.000000
_cell_angle_beta 90.000000
_cell_angle_gamma 90.000000
_cell_volume 4343.851969
_symmetry_space_group_name_H-M "C M M M"
_symmetry_group_IT_number 65
_symmetry_cell_setting 'orthorhombic'
loop_
_space_group_symop_operation_xyz
x,y,z
-x,-y,z
x,-y,-z
-x,y,-z
-x,-y,-z
x,y,-z
-x,y,z
x,-y,z
1/2+x,1/2+y,z
1/2-x,1/2-y,z
1/2+x,1/2-y,-z
1/2-x,1/2+y,-z
1/2-x,1/2-y,-z
1/2+x,1/2+y,-z
1/2-x,1/2+y,z
1/2+x,1/2-y,z
loop_
_atom_site_type_symbol
_atom_site_label
_atom_site_fract_x
_atom_site_fract_y
_atom_site_fract_z
Si Si1 0.564147 0.172995 0.074960
Si Si2 0.378898 0.173765 0.425870
Si Si3 0.500000 0.160984 0.595774
Si Si4 0.605648 0.326897 0.196300
Si Si5 0.500000 0.836696 0.249943
Si Si6 0.690579 0.674226 0.689734
O O1 0.500000 0.204111 0.098689
O O2 0.608409 0.256988 0.122299
O O3 0.577341 0.000000 0.077597
O O4 0.572055 0.232072 0.000000
O O5 0.353700 0.195005 0.500000
O O6 0.442308 0.241219 0.425892
O O7 0.342176 0.262188 0.373313
O O8 0.379675 0.000000 0.405505
O O9 0.500000 0.139078 0.673148
O O10 0.500000 0.000000 0.560645
O O11 0.595413 0.500000 0.189098
O O12 0.554363 0.254551 0.233357
O O13 0.660178 0.291656 0.240197
O O14 0.500000 0.000000 0.214662
O O15 0.697593 0.500000 0.678435
O O16 0.750000 0.750000 0.694566
#
# Coordination Sequence:
#
# PCOD8272286 Si02
#       6
#    16  16   8  16   8  16
#     4   9  18  32  52  82 118 153 186 216 256 320
#     4  10  20  36  59  85 113 145 182 225 273 328
#     4   9  17  31  54  84 114 144 179 216 263 329
#     4  11  22  35  54  83 115 144 180 230 278 322
#     4  11  19  30  54  82 110 149 184 217 268 331
#     4  11  25  42  59  79 106 141 188 237 280 328
#
# _framework density 18.416833
#
# number of rings (size 3 to 8) (size 9 to 14) (size 15 to 20)
#    0.000    1.800    3.000    2.400    0.000    4.800 
#    0.000    1.500    0.000    1.800    0.000    0.000 
#    0.000    0.000    0.000    0.000    0.000    0.000 
#
# Total GULP energy -495797.474424 kJ/mol
# GULP energy per Si atom -12394.936861 kJ/mol
# Density = 1.837492 g / cm^3
# Si number density = 18.416833 Si / 1000 Ang^3
#
#
#
# Elastic Constant Matrix: (Units=GPa)
#
#
# Indices 1 2 3 4 5 6 
#
# 1 127.1792 66.4196 62.8863 0.0000 0.0000 0.0000
# 2 66.4196 91.1115 65.4590 0.0000 0.0000 0.0000
# 3 62.8863 65.4590 135.0644 0.0000 0.0000 0.0000
# 4 0.0000 0.0000 0.0000 28.2591 0.0000 0.0000
# 5 0.0000 0.0000 0.0000 0.0000 25.7440 0.0000
# 6 0.0000 0.0000 0.0000 0.0000 0.0000 19.9994
#
#
#
# Elastic Compliance Matrix: (Units=1/GPa)
#
#
# Indices 1 2 3 4 5 6 
#
# 1 0.013133 -0.007948 -0.002263 0.000000 0.000000 0.000000
# 2 -0.007948 0.021649 -0.006792 0.000000 0.000000 0.000000
# 3 -0.002263 -0.006792 0.011749 0.000000 0.000000 0.000000
# 4 0.000000 0.000000 0.000000 0.035387 0.000000 0.000000
# 5 0.000000 0.000000 0.000000 0.000000 0.038844 0.000000
# 6 0.000000 0.000000 0.000000 0.000000 0.000000 0.050002
#
#
# Mechanical properties :
#
#
# Convention : Reuss Voigt Hill
#
# Bulk Modulus (GPa) = 79.83298 82.54276 81.18787
# Shear Modulus (GPa) = 23.93005 25.37318 24.65162
#
# Velocity S-wave (km/s) = 3.60857 3.71579 3.66257
# Velocity P-wave (km/s) = 7.79771 7.95776 7.87814
#
# Compressibility (1/GPa) = 0.01252615
#
# Stress axis : x y z
#
# Youngs Moduli (GPa) = 76.14675 46.19158 85.11458
#
# Poissons Ratio (x) = 0.36713 0.19258
# Poissons Ratio (y) = 0.60521 0.57806
# Poissons Ratio (z) = 0.17229 0.31371
#
# Static dielectric constant tensor:
#      x y z
#    x 3.270890 0.000000 0.000000 
#    y 0.000000 3.332120 0.000000 
#    z 0.000000 0.000000 3.689210 
# 
# 
# High freq. dielectric constant tensor:
#      x y z
#    x 1.688900 0.000000 0.000000 
#    y 0.000000 1.704620 0.000000 
#    z 0.000000 0.000000 1.734440 
# 
# From -- ./inp_files/65063.got.cif
#   From: 2010.03.12/outbox.cif.g09.slc.cpg/sg65_33_cif.got.tgz:65063.got - 2010.04.10 20:52:16.
