data_PCOD8272682
_publ_section_title
;
Structure prediction by ZEFSAII (Michael W. Deem and Ramdas Pophale) SiO2 
 PCOD8272682
Probable space group: C M M M
;
_chemical_formula_sum "Si O2"
_cell_formula_units_Z 96
_cell_length_a 9.356328
_cell_length_b 26.746825
_cell_length_c 24.520484
_cell_angle_alpha 90.000000
_cell_angle_beta 90.000000
_cell_angle_gamma 90.000000
_cell_volume 6136.301821
_symmetry_space_group_name_H-M "C M M M"
_symmetry_group_IT_number 65
_symmetry_cell_setting 'orthorhombic'
loop_
_space_group_symop_operation_xyz
x,y,z
-x,-y,z
x,-y,-z
-x,y,-z
-x,-y,-z
x,y,-z
-x,y,z
x,-y,z
1/2+x,1/2+y,z
1/2-x,1/2-y,z
1/2+x,1/2-y,-z
1/2-x,1/2+y,-z
1/2-x,1/2-y,-z
1/2+x,1/2+y,-z
1/2-x,1/2+y,z
1/2+x,1/2-y,z
loop_
_atom_site_type_symbol
_atom_site_label
_atom_site_fract_x
_atom_site_fract_y
_atom_site_fract_z
Si Si1 0.834110 0.400651 0.562153
Si Si2 0.164633 0.300582 0.057594
Si Si3 0.832898 0.361429 0.279767
Si Si4 0.335491 0.557469 0.340491
Si Si5 0.163108 0.701210 0.616152
Si Si6 0.832804 0.698191 0.824349
O O1 0.796389 0.413783 0.500000
O O2 0.738080 0.435072 0.600751
O O3 0.801103 0.342355 0.572975
O O4 0.000000 0.411632 0.575443
O O5 0.250000 0.250000 0.055863
O O6 0.200171 0.327073 0.115707
O O7 0.000000 0.285446 0.058559
O O8 0.197651 0.330690 0.000000
O O9 0.742683 0.410706 0.293605
O O10 0.798051 0.318116 0.323375
O O11 0.783319 0.341847 0.220627
O O12 0.000000 0.375667 0.281674
O O13 0.500000 0.574375 0.344811
O O14 0.322471 0.500000 0.323229
O O15 0.250000 0.750000 0.600261
O O16 0.000000 0.717415 0.612859
O O17 0.750000 0.750000 0.816656
O O18 0.000000 0.710032 0.816587
#
# Coordination Sequence:
#
# PCOD8272682 Si02
#       6
#    16  16  16  16  16  16
#     4   9  19  35  51  67  88 113 141 169 198 242
#     4   8  13  21  33  51  79 115 150 180 209 240
#     4   9  18  31  45  62  85 112 143 176 208 250
#     4  10  21  35  50  68  87 105 129 168 217 261
#     4   9  17  28  42  61  85 112 140 169 200 234
#     4   9  16  25  39  61  88 118 151 182 210 243
#
# _framework density 15.644602000000001
#
# number of rings (size 3 to 8) (size 9 to 14) (size 15 to 20)
#    0.000    3.000    0.000    2.000    0.000    5.667 
#    0.000    1.667    0.000    0.000    0.000    0.000 
#    0.000    0.667    0.000    8.333    0.000    1.333 
#
# Total GULP energy -594724.883694 kJ/mol
# GULP energy per Si atom -12390.101744 kJ/mol
# Density = 1.560899 g / cm^3
# Si number density = 15.644602 Si / 1000 Ang^3
#
#
#
# Elastic Constant Matrix: (Units=GPa)
#
#
# Indices 1 2 3 4 5 6 
#
# 1 57.9107 36.5394 37.2863 0.0000 0.0000 0.0000
# 2 36.5394 61.9147 35.7558 0.0000 0.0000 0.0000
# 3 37.2863 35.7558 136.0078 0.0000 0.0000 0.0000
# 4 0.0000 0.0000 0.0000 8.6468 0.0000 0.0000
# 5 0.0000 0.0000 0.0000 0.0000 15.4094 0.0000
# 6 0.0000 0.0000 0.0000 0.0000 0.0000 24.8461
#
#
#
# Elastic Compliance Matrix: (Units=1/GPa)
#
#
# Indices 1 2 3 4 5 6 
#
# 1 0.029346 -0.014941 -0.004117 0.000000 0.000000 0.000000
# 2 -0.014941 0.026649 -0.002910 0.000000 0.000000 0.000000
# 3 -0.004117 -0.002910 0.009246 0.000000 0.000000 0.000000
# 4 0.000000 0.000000 0.000000 0.115650 0.000000 0.000000
# 5 0.000000 0.000000 0.000000 0.000000 0.064895 0.000000
# 6 0.000000 0.000000 0.000000 0.000000 0.000000 0.040248
#
#
# Mechanical properties :
#
#
# Convention : Reuss Voigt Hill
#
# Bulk Modulus (GPa) = 46.93689 52.77736 49.85713
# Shear Modulus (GPa) = 14.83359 19.53058 17.18209
#
# Velocity S-wave (km/s) = 3.08256 3.53709 3.31762
# Velocity P-wave (km/s) = 6.53733 7.10562 6.82739
#
# Compressibility (1/GPa) = 0.02130520
#
# Stress axis : x y z
#
# Youngs Moduli (GPa) = 34.07604 37.52442 108.15183
#
# Poissons Ratio (x) = 0.56066 0.44529
# Poissons Ratio (y) = 0.50913 0.31471
# Poissons Ratio (z) = 0.14030 0.10919
#
# Static dielectric constant tensor:
#      x y z
#    x 2.944190 0.000000 0.000000 
#    y 0.000000 2.498140 0.000000 
#    z 0.000000 0.000000 3.573100 
# 
# 
# High freq. dielectric constant tensor:
#      x y z
#    x 1.604510 0.000000 0.000000 
#    y 0.000000 1.556630 0.000000 
#    z 0.000000 0.000000 1.610050 
# 
# From -- ./inp_files/67850.got.cif
#   From: 2010.03.12/outbox.cif.g09.slc.cpg/sg65_34_cif.got.tgz:67850.got - 2010.04.10 20:52:16.
