data_PCOD8272297
_publ_section_title
;
Structure prediction by ZEFSAII (Michael W. Deem and Ramdas Pophale) SiO2 
 PCOD8272297
Probable space group: C M M M
;
_chemical_formula_sum "Si O2"
_cell_formula_units_Z 64
_cell_length_a 13.725069
_cell_length_b 18.209398
_cell_length_c 11.817190
_cell_angle_alpha 90.000000
_cell_angle_beta 90.000000
_cell_angle_gamma 90.000000
_cell_volume 2953.414094
_symmetry_space_group_name_H-M "C M M M"
_symmetry_group_IT_number 65
_symmetry_cell_setting 'orthorhombic'
loop_
_space_group_symop_operation_xyz
x,y,z
-x,-y,z
x,-y,-z
-x,y,-z
-x,-y,-z
x,y,-z
-x,y,z
x,-y,z
1/2+x,1/2+y,z
1/2-x,1/2-y,z
1/2+x,1/2-y,-z
1/2-x,1/2+y,-z
1/2-x,1/2-y,-z
1/2+x,1/2+y,-z
1/2-x,1/2+y,z
1/2+x,1/2-y,z
loop_
_atom_site_type_symbol
_atom_site_label
_atom_site_fract_x
_atom_site_fract_y
_atom_site_fract_z
Si Si1 0.617677 0.117729 0.500000
Si Si2 0.893578 0.854447 0.271664
Si Si3 0.191696 0.419076 0.257518
Si Si4 0.858436 0.721406 0.873962
Si Si5 0.885250 0.782000 0.500000
O O1 0.500000 0.111797 0.500000
O O2 0.661907 0.079651 0.610921
O O3 0.659765 0.200747 0.500000
O O4 0.807970 0.908656 0.231855
O O5 0.916030 0.784748 0.191337
O O6 0.851055 0.825827 0.390386
O O7 0.000000 0.894369 0.283329
O O8 0.166207 0.500000 0.208817
O O9 0.131592 0.356124 0.191690
O O10 0.750000 0.750000 0.879544
O O11 0.901433 0.710932 0.000000
O O12 0.000000 0.772663 0.500000
#
# Coordination Sequence:
#
# PCOD8272297 Si02
#       5
#     8  16  16  16   8
#     4  11  22  38  59  84 115 149 191 239 283 335
#     4  10  20  36  59  86 115 148 190 236 281 338
#     4  11  23  36  56  86 119 155 187 226 288 348
#     4   9  19  36  57  80 108 146 193 239 276 320
#     4   9  17  31  56  83 105 139 185 232 279 323
#
# _framework density 21.669837999999999
#
# number of rings (size 3 to 8) (size 9 to 14) (size 15 to 20)
#    0.000    2.000    2.500    1.125    0.000    3.500 
#    0.000    0.000    0.000    3.750    0.000   10.500 
#    0.000    0.000    0.000    0.000    0.000    0.000 
#
# Total GULP energy -396553.365953 kJ/mol
# GULP energy per Si atom -12392.292686 kJ/mol
# Density = 2.162052 g / cm^3
# Si number density = 21.669838 Si / 1000 Ang^3
#
#
#
# Elastic Constant Matrix: (Units=GPa)
#
#
# Indices 1 2 3 4 5 6 
#
# 1 82.6103 -1.2714 -3.5149 0.0000 0.0000 0.0000
# 2 -1.2714 102.9197 26.9347 0.0000 0.0000 0.0000
# 3 -3.5149 26.9347 131.9622 0.0000 0.0000 0.0000
# 4 0.0000 0.0000 0.0000 10.2242 0.0000 0.0000
# 5 0.0000 0.0000 0.0000 0.0000 561.6234 0.0000
# 6 0.0000 0.0000 0.0000 0.0000 0.0000 14.5718
#
#
#
# Elastic Compliance Matrix: (Units=1/GPa)
#
#
# Indices 1 2 3 4 5 6 
#
# 1 0.012119 0.000069 0.000309 0.000000 0.000000 0.000000
# 2 0.000069 0.010265 -0.002093 0.000000 0.000000 0.000000
# 3 0.000309 -0.002093 0.008013 0.000000 0.000000 0.000000
# 4 0.000000 0.000000 0.000000 0.097807 0.000000 0.000000
# 5 0.000000 0.000000 0.000000 0.000000 0.001781 0.000000
# 6 0.000000 0.000000 0.000000 0.000000 0.000000 0.068626
#
#
# Mechanical properties :
#
#
# Convention : Reuss Voigt Hill
#
# Bulk Modulus (GPa) = 37.08339 40.19879 38.64109
# Shear Modulus (GPa) = 23.69314 136.97345 80.33330
#
# Velocity S-wave (km/s) = 3.31020 7.95905 6.09524
# Velocity P-wave (km/s) = 5.63560 10.15149 8.21014
#
# Compressibility (1/GPa) = 0.02696625
#
# Stress axis : x y z
#
# Youngs Moduli (GPa) = 82.51355 97.41833 124.79068
#
# Poissons Ratio (x) = -0.00671 -0.03853
# Poissons Ratio (y) = -0.00569 0.26123
# Poissons Ratio (z) = -0.02548 0.20393
#
# Static dielectric constant tensor:
#      x y z
#    x 3.756590 0.000000 0.000000 
#    y 0.000000 3.698230 0.000000 
#    z 0.000000 0.000000 4.181770 
# 
# 
# High freq. dielectric constant tensor:
#      x y z
#    x 1.862850 0.000000 0.000000 
#    y 0.000000 1.825340 0.000000 
#    z 0.000000 0.000000 1.839320 
# 
# From -- ./inp_files/23944.got.cif
#   From: 2010.03.12/outbox.cif.g09.slc.cpg/sg65_12_cif.got.tgz:23944.got - 2010.04.10 20:52:16.
