data_PCOD8272548
_publ_section_title
;
Structure prediction by ZEFSAII (Michael W. Deem and Ramdas Pophale) SiO2 
 PCOD8272548
Probable space group: C M M M
;
_chemical_formula_sum "Si O2"
_cell_formula_units_Z 56
_cell_length_a 17.247098
_cell_length_b 22.523093
_cell_length_c 7.274036
_cell_angle_alpha 90.000000
_cell_angle_beta 90.000000
_cell_angle_gamma 90.000000
_cell_volume 2825.657420
_symmetry_space_group_name_H-M "C M M M"
_symmetry_group_IT_number 65
_symmetry_cell_setting 'orthorhombic'
loop_
_space_group_symop_operation_xyz
x,y,z
-x,-y,z
x,-y,-z
-x,y,-z
-x,-y,-z
x,y,-z
-x,y,z
x,-y,z
1/2+x,1/2+y,z
1/2-x,1/2-y,z
1/2+x,1/2-y,-z
1/2-x,1/2+y,-z
1/2-x,1/2-y,-z
1/2+x,1/2+y,-z
1/2-x,1/2+y,z
1/2+x,1/2-y,z
loop_
_atom_site_type_symbol
_atom_site_label
_atom_site_fract_x
_atom_site_fract_y
_atom_site_fract_z
Si Si1 0.409188 0.837909 0.500000
Si Si2 0.844948 0.117875 0.787617
Si Si3 0.336909 0.753024 0.210466
Si Si4 0.274735 0.071652 0.500000
Si Si5 0.500000 0.568783 0.202639
O O1 0.500000 0.854429 0.500000
O O2 0.389728 0.798792 0.321183
O O3 0.360482 0.899350 0.500000
O O4 0.867473 0.186591 0.768028
O O5 0.769336 0.095932 0.679878
O O6 0.920495 0.086977 0.697101
O O7 0.830355 0.100120 0.000000
O O8 0.250000 0.750000 0.290046
O O9 0.336618 0.775233 0.000000
O O10 0.281047 0.000000 0.500000
O O11 0.500000 0.500000 0.183115
O O12 0.500000 0.599228 0.000000
#
# Coordination Sequence:
#
# PCOD8272548 Si02
#       5
#     8  16  16   8   8
#     4  12  26  41  60  90 126 160 203 261 311 357
#     4  10  21  38  61  90 122 156 196 244 299 363
#     4  10  20  39  66  91 118 152 195 249 308 368
#     4  12  25  41  62  84 112 162 219 255 297 357
#     4   9  18  33  53  83 124 159 185 225 284 351
#
# _framework density 19.818397000000001
#
# number of rings (size 3 to 8) (size 9 to 14) (size 15 to 20)
#    0.000    1.571    2.857    2.143    2.000    3.143 
#    0.000    1.429    0.000    0.000    0.000    4.000 
#    0.000    0.000    0.000    0.000    0.000    0.000 
#
# Total GULP energy -347077.900375 kJ/mol
# GULP energy per Si atom -12395.639299 kJ/mol
# Density = 1.977329 g / cm^3
# Si number density = 19.818397 Si / 1000 Ang^3
#
#
#
# Elastic Constant Matrix: (Units=GPa)
#
#
# Indices 1 2 3 4 5 6 
#
# 1 162.6655 49.7172 42.8898 0.0000 0.0000 0.0000
# 2 49.7172 102.0322 32.1853 0.0000 0.0000 0.0000
# 3 42.8898 32.1853 96.1033 0.0000 0.0000 0.0000
# 4 0.0000 0.0000 0.0000 9.2707 0.0000 0.0000
# 5 0.0000 0.0000 0.0000 0.0000 5.0821 0.0000
# 6 0.0000 0.0000 0.0000 0.0000 0.0000 38.3409
#
#
#
# Elastic Compliance Matrix: (Units=1/GPa)
#
#
# Indices 1 2 3 4 5 6 
#
# 1 0.007703 -0.002984 -0.002438 0.000000 0.000000 0.000000
# 2 -0.002984 0.012115 -0.002725 0.000000 0.000000 0.000000
# 3 -0.002438 -0.002725 0.012406 0.000000 0.000000 0.000000
# 4 0.000000 0.000000 0.000000 0.107867 0.000000 0.000000
# 5 0.000000 0.000000 0.000000 0.000000 0.196771 0.000000
# 6 0.000000 0.000000 0.000000 0.000000 0.000000 0.026082
#
#
# Mechanical properties :
#
#
# Convention : Reuss Voigt Hill
#
# Bulk Modulus (GPa) = 62.78229 67.82060 65.30145
# Shear Modulus (GPa) = 13.00229 26.27265 19.63747
#
# Velocity S-wave (km/s) = 2.56417 3.64492 3.15122
# Velocity P-wave (km/s) = 6.36508 7.21175 6.80160
#
# Compressibility (1/GPa) = 0.01592806
#
# Stress axis : x y z
#
# Youngs Moduli (GPa) = 129.82775 82.54491 80.60388
#
# Poissons Ratio (x) = 0.24632 0.19652
# Poissons Ratio (y) = 0.38742 0.21968
# Poissons Ratio (z) = 0.31654 0.22497
#
# Static dielectric constant tensor:
#      x y z
#    x 3.617920 0.000000 0.000000 
#    y 0.000000 3.582960 0.000000 
#    z 0.000000 0.000000 3.929520 
# 
# 
# High freq. dielectric constant tensor:
#      x y z
#    x 1.764970 0.000000 0.000000 
#    y 0.000000 1.767750 0.000000 
#    z 0.000000 0.000000 1.776420 
# 
# From -- ./inp_files/6314.got.cif
#   From: 2010.03.12/outbox.cif.g09.slc.cpg/sg65_4_cif.got.tgz:6314.got - 2010.04.10 20:52:16.
