data_PCOD8272843
_publ_section_title
;
Structure prediction by ZEFSAII (Michael W. Deem and Ramdas Pophale) SiO2 
 PCOD8272843
Probable space group: C M M M
;
_chemical_formula_sum "Si O2"
_cell_formula_units_Z 88
_cell_length_a 20.192229
_cell_length_b 18.996137
_cell_length_c 12.261463
_cell_angle_alpha 90.000000
_cell_angle_beta 90.000000
_cell_angle_gamma 90.000000
_cell_volume 4703.182681
_symmetry_space_group_name_H-M "C M M M"
_symmetry_group_IT_number 65
_symmetry_cell_setting 'orthorhombic'
loop_
_space_group_symop_operation_xyz
x,y,z
-x,-y,z
x,-y,-z
-x,y,-z
-x,-y,-z
x,y,-z
-x,y,z
x,-y,z
1/2+x,1/2+y,z
1/2-x,1/2-y,z
1/2+x,1/2-y,-z
1/2-x,1/2+y,-z
1/2-x,1/2-y,-z
1/2+x,1/2+y,-z
1/2-x,1/2+y,z
1/2+x,1/2-y,z
loop_
_atom_site_type_symbol
_atom_site_label
_atom_site_fract_x
_atom_site_fract_y
_atom_site_fract_z
Si Si1 0.572168 0.418000 0.000000
Si Si2 0.737161 0.861902 0.500000
Si Si3 0.876024 0.920859 0.772796
Si Si4 0.424381 0.720131 0.719404
Si Si5 0.777716 0.420815 0.732117
Si Si6 0.354825 0.732472 0.500000
Si Si7 0.318061 0.791163 0.129456
O O1 0.615073 0.396158 0.102884
O O2 0.559089 0.500000 0.000000
O O3 0.500000 0.379864 0.000000
O O4 0.712471 0.905240 0.395360
O O5 0.703374 0.787435 0.500000
O O6 0.817042 0.844304 0.500000
O O7 0.918640 0.864763 0.704973
O O8 0.799563 0.913928 0.751313
O O9 0.902496 0.000000 0.749254
O O10 0.500000 0.742681 0.741194
O O11 0.400139 0.749075 0.604047
O O12 0.379030 0.748303 0.818421
O O13 0.802876 0.500000 0.757938
O O14 0.816042 0.367415 0.811985
O O15 0.250000 0.750000 0.154606
O O16 0.329633 0.800512 0.000000
#
# Coordination Sequence:
#
# PCOD8272843 Si02
#       7
#     8   8  16  16  16   8  16
#     4   9  18  32  48  69 110 166 204 231 276 337
#     4  11  19  38  66  86 121 156 202 249 301 358
#     4  10  21  35  53  84 123 160 202 244 288 349
#     4  12  24  39  61  88 121 164 208 247 300 361
#     4  11  22  37  63  93 119 155 199 249 307 361
#     4  11  21  38  62  87 122 159 201 251 301 348
#     4  11  23  41  62  90 125 159 202 254 303 356
#
# _framework density 18.710733999999999
#
# number of rings (size 3 to 8) (size 9 to 14) (size 15 to 20)
#    0.000    1.182    5.455    1.091    2.545    1.818 
#    0.000    0.455    0.000    1.636    0.000    2.545 
#    0.000    0.000    0.000    0.000    0.000    0.000 
#
# Total GULP energy -545375.598979 kJ/mol
# GULP energy per Si atom -12394.899977 kJ/mol
# Density = 1.866815 g / cm^3
# Si number density = 18.710734 Si / 1000 Ang^3
#
#
#
# Elastic Constant Matrix: (Units=GPa)
#
#
# Indices 1 2 3 4 5 6 
#
# 1 91.4598 38.3243 46.0248 0.0000 0.0000 0.0000
# 2 38.3243 104.6865 44.0950 0.0000 0.0000 0.0000
# 3 46.0248 44.0950 131.8926 0.0000 0.0000 0.0000
# 4 0.0000 0.0000 0.0000 29.5203 0.0000 0.0000
# 5 0.0000 0.0000 0.0000 0.0000 172.0874 0.0000
# 6 0.0000 0.0000 0.0000 0.0000 0.0000 24.5319
#
#
#
# Elastic Compliance Matrix: (Units=1/GPa)
#
#
# Indices 1 2 3 4 5 6 
#
# 1 0.014378 -0.003667 -0.003792 0.000000 0.000000 0.000000
# 2 -0.003667 0.012053 -0.002750 0.000000 0.000000 0.000000
# 3 -0.003792 -0.002750 0.009824 0.000000 0.000000 0.000000
# 4 0.000000 0.000000 0.000000 0.033875 0.000000 0.000000
# 5 0.000000 0.000000 0.000000 0.000000 0.005811 0.000000
# 6 0.000000 0.000000 0.000000 0.000000 0.000000 0.040763
#
#
# Mechanical properties :
#
#
# Convention : Reuss Voigt Hill
#
# Bulk Modulus (GPa) = 63.13498 64.99190 64.06344
# Shear Modulus (GPa) = 35.11207 58.53422 46.82315
#
# Velocity S-wave (km/s) = 4.33664 5.59926 5.00790
# Velocity P-wave (km/s) = 7.67406 8.75287 8.23116
#
# Compressibility (1/GPa) = 0.01583908
#
# Stress axis : x y z
#
# Youngs Moduli (GPa) = 69.54984 82.96672 101.78707
#
# Poissons Ratio (x) = 0.30421 0.38593
# Poissons Ratio (y) = 0.25501 0.27993
# Poissons Ratio (z) = 0.26370 0.22817
#
# Static dielectric constant tensor:
#      x y z
#    x 3.128160 0.000000 0.000000 
#    y 0.000000 3.564590 0.000000 
#    z 0.000000 0.000000 3.804150 
# 
# 
# High freq. dielectric constant tensor:
#      x y z
#    x 1.700530 0.000000 0.000000 
#    y 0.000000 1.720290 0.000000 
#    z 0.000000 0.000000 1.736970 
# 
# From -- ./inp_files/26849.got.cif
#   From: 2010.03.12/outbox.cif.g09.slc.cpg/sg65_14_cif.got.tgz:26849.got - 2010.04.10 20:52:16.
