data_PCOD8272834
_publ_section_title
;
Structure prediction by ZEFSAII (Michael W. Deem and Ramdas Pophale) SiO2 
 PCOD8272834
Probable space group: C M M M
;
_chemical_formula_sum "Si O2"
_cell_formula_units_Z 80
_cell_length_a 8.848037
_cell_length_b 18.369674
_cell_length_c 25.819960
_cell_angle_alpha 90.000000
_cell_angle_beta 90.000000
_cell_angle_gamma 90.000000
_cell_volume 4196.661535
_symmetry_space_group_name_H-M "C M M M"
_symmetry_group_IT_number 65
_symmetry_cell_setting 'orthorhombic'
loop_
_space_group_symop_operation_xyz
x,y,z
-x,-y,z
x,-y,-z
-x,y,-z
-x,-y,-z
x,y,-z
-x,y,z
x,-y,z
1/2+x,1/2+y,z
1/2-x,1/2-y,z
1/2+x,1/2-y,-z
1/2-x,1/2+y,-z
1/2-x,1/2-y,-z
1/2+x,1/2+y,-z
1/2-x,1/2+y,z
1/2+x,1/2-y,z
loop_
_atom_site_type_symbol
_atom_site_label
_atom_site_fract_x
_atom_site_fract_y
_atom_site_fract_z
Si Si1 0.327075 0.413131 0.388134
Si Si2 0.678981 0.171518 0.000000
Si Si3 0.678360 0.420724 0.500000
Si Si4 0.177406 0.328220 0.702043
Si Si5 0.176884 0.083967 0.793559
Si Si6 0.825720 0.415871 0.099718
O O1 0.500000 0.391445 0.374974
O O2 0.309824 0.500000 0.386995
O O3 0.278546 0.381856 0.445450
O O4 0.216116 0.378291 0.346812
O O5 0.750000 0.250000 0.000000
O O6 0.735245 0.129374 0.949044
O O7 0.500000 0.176679 0.000000
O O8 0.756508 0.500000 0.500000
O O9 0.500000 0.431970 0.500000
O O10 0.250000 0.250000 0.694252
O O11 0.235733 0.365238 0.754076
O O12 0.000000 0.318831 0.706273
O O13 0.225754 0.106810 0.851125
O O14 0.000000 0.097128 0.786813
O O15 0.220251 0.000000 0.782720
O O16 0.803943 0.500000 0.085620
O O17 0.000000 0.398410 0.112354
#
# Coordination Sequence:
#
# PCOD8272834 Si02
#       6
#    16   8   8  16  16  16
#     4   9  17  33  58  85 112 142 178 220 266 319
#     4  10  21  35  53  79 111 146 180 218 266 318
#     4   7  12  26  52  83 110 139 175 215 262 315
#     4  12  25  39  55  77 108 145 184 225 272 324
#     4  10  21  38  60  85 111 140 177 222 272 325
#     4   9  18  35  58  81 106 140 183 225 263 309
#
# _framework density 19.062771000000001
#
# number of rings (size 3 to 8) (size 9 to 14) (size 15 to 20)
#    0.000    2.300    0.000    4.500    0.000    6.800 
#    0.000    3.000    0.000    4.800    0.000    0.000 
#    0.000    0.000    0.000    0.000    0.000    0.000 
#
# Total GULP energy -495909.001884 kJ/mol
# GULP energy per Si atom -12397.725047 kJ/mol
# Density = 1.901938 g / cm^3
# Si number density = 19.062771 Si / 1000 Ang^3
#
#
#
# Elastic Constant Matrix: (Units=GPa)
#
#
# Indices 1 2 3 4 5 6 
#
# 1 79.2271 32.1787 44.6309 0.0000 0.0000 0.0000
# 2 32.1787 70.0896 54.8686 0.0000 0.0000 0.0000
# 3 44.6309 54.8686 140.8188 0.0000 0.0000 0.0000
# 4 0.0000 0.0000 0.0000 -3.3459 0.0000 0.0000
# 5 0.0000 0.0000 0.0000 0.0000 30.7218 0.0000
# 6 0.0000 0.0000 0.0000 0.0000 0.0000 29.5124
#
#
#
# Elastic Compliance Matrix: (Units=1/GPa)
#
#
# Indices 1 2 3 4 5 6 
#
# 1 0.016504 -0.005011 -0.003278 0.000000 0.000000 0.000000
# 2 -0.005011 0.022051 -0.007004 0.000000 0.000000 0.000000
# 3 -0.003278 -0.007004 0.010869 0.000000 0.000000 0.000000
# 4 0.000000 0.000000 0.000000 -0.298872 0.000000 0.000000
# 5 0.000000 0.000000 0.000000 0.000000 0.032550 0.000000
# 6 0.000000 0.000000 0.000000 0.000000 0.000000 0.033884
#
#
# Mechanical properties :
#
#
# Convention : Reuss Voigt Hill
#
# Bulk Modulus (GPa) = 53.08334 61.49911 57.29122
# Shear Modulus (GPa) = -34.21165 21.94148 -6.13509
#
# Velocity S-wave (km/s) = -4.24097 3.39634 -1.79593
# Velocity P-wave (km/s) = 1.98141 6.90735 5.08122
#
# Compressibility (1/GPa) = 0.01883830
#
# Stress axis : x y z
#
# Youngs Moduli (GPa) = 60.59198 45.35012 92.00220
#
# Poissons Ratio (x) = 0.22723 0.30162
# Poissons Ratio (y) = 0.30360 0.64436
# Poissons Ratio (z) = 0.19864 0.31762
#
# Static dielectric constant tensor:
#      x y z
#    x 3.357220 0.000000 0.000000 
#    y 0.000000 3.358210 0.000000 
#    z 0.000000 0.000000 3.844310 
# 
# 
# High freq. dielectric constant tensor:
#      x y z
#    x 1.727800 0.000000 0.000000 
#    y 0.000000 1.722770 0.000000 
#    z 0.000000 0.000000 1.763710 
# 
# From -- ./inp_files/72939.got.cif
#   From: 2010.03.12/outbox.cif.g09.slc.cpg/sg65_37_cif.got.tgz:72939.got - 2010.04.10 20:52:16.
