data_PCOD8272706
_publ_section_title
;
Structure prediction by ZEFSAII (Michael W. Deem and Ramdas Pophale) SiO2 
 PCOD8272706
Probable space group: C M M M
;
_chemical_formula_sum "Si O2"
_cell_formula_units_Z 104
_cell_length_a 9.451646
_cell_length_b 28.721437
_cell_length_c 20.822606
_cell_angle_alpha 90.000000
_cell_angle_beta 90.000000
_cell_angle_gamma 90.000000
_cell_volume 5652.605721
_symmetry_space_group_name_H-M "C M M M"
_symmetry_group_IT_number 65
_symmetry_cell_setting 'orthorhombic'
loop_
_space_group_symop_operation_xyz
x,y,z
-x,-y,z
x,-y,-z
-x,y,-z
-x,-y,-z
x,y,-z
-x,y,z
x,-y,z
1/2+x,1/2+y,z
1/2-x,1/2-y,z
1/2+x,1/2-y,-z
1/2-x,1/2+y,-z
1/2-x,1/2-y,-z
1/2+x,1/2+y,-z
1/2-x,1/2+y,z
1/2+x,1/2-y,z
loop_
_atom_site_type_symbol
_atom_site_label
_atom_site_fract_x
_atom_site_fract_y
_atom_site_fract_z
Si Si1 0.163875 0.446327 0.627104
Si Si2 0.663958 0.295486 0.324495
Si Si3 0.339838 0.554031 0.752307
Si Si4 0.838134 0.129806 0.428725
Si Si5 0.835556 0.204134 0.822780
Si Si6 0.832307 0.892703 0.124432
Si Si7 0.169036 0.946344 0.000000
O O1 0.185086 0.500000 0.608481
O O2 0.238312 0.433863 0.693917
O O3 0.239686 0.415876 0.572718
O O4 0.000000 0.433133 0.632394
O O5 0.500000 0.284137 0.334793
O O6 0.750000 0.250000 0.342848
O O7 0.715014 0.334967 0.373838
O O8 0.695074 0.310795 0.251059
O O9 0.500000 0.571082 0.736091
O O10 0.340237 0.500000 0.769207
O O11 0.275262 0.580208 0.813544
O O12 0.822808 0.152029 0.500000
O O13 0.000000 0.115042 0.415686
O O14 0.750000 0.250000 0.842924
O O15 0.787773 0.161654 0.869276
O O16 0.000000 0.215724 0.831982
O O17 0.000000 0.896730 0.123012
O O18 0.770294 0.917870 0.061218
O O19 0.000000 0.946433 0.000000
O O20 0.223855 0.000000 0.000000
#
# Coordination Sequence:
#
# PCOD8272706 Si02
#       7
#    16  16  16  16  16  16   8
#     4  10  21  35  50  71  99 129 164 209 257 299
#     4   9  18  33  52  74  99 126 159 202 249 295
#     4   9  16  28  49  74  97 123 158 200 248 302
#     4  10  21  36  53  73  98 130 167 203 242 296
#     4   9  17  30  48  69  95 126 161 201 243 285
#     4   9  16  27  45  70 101 134 163 198 246 291
#     4   9  16  26  43  72 107 135 163 201 244 291
#
# _framework density 18.398595
#
# number of rings (size 3 to 8) (size 9 to 14) (size 15 to 20)
#    0.000    2.692    0.000    1.846    0.000    6.769 
#    0.000    5.769    0.000    0.000    0.000    1.615 
#    0.000    4.923    0.000    0.000    0.000    0.000 
#
# Total GULP energy -644700.585347 kJ/mol
# GULP energy per Si atom -12398.088180 kJ/mol
# Density = 1.835672 g / cm^3
# Si number density = 18.398595 Si / 1000 Ang^3
#
#
#
# Elastic Constant Matrix: (Units=GPa)
#
#
# Indices 1 2 3 4 5 6 
#
# 1 55.3060 42.6875 27.8545 0.0000 0.0000 0.0000
# 2 42.6875 117.9513 70.0147 0.0000 0.0000 0.0000
# 3 27.8545 70.0147 86.1052 0.0000 0.0000 0.0000
# 4 0.0000 0.0000 0.0000 28.2465 0.0000 0.0000
# 5 0.0000 0.0000 0.0000 0.0000 8.0404 0.0000
# 6 0.0000 0.0000 0.0000 0.0000 0.0000 28.7808
#
#
#
# Elastic Compliance Matrix: (Units=1/GPa)
#
#
# Indices 1 2 3 4 5 6 
#
# 1 0.025179 -0.008269 -0.001422 0.000000 0.000000 0.000000
# 2 -0.008269 0.019103 -0.012859 0.000000 0.000000 0.000000
# 3 -0.001422 -0.012859 0.022529 0.000000 0.000000 0.000000
# 4 0.000000 0.000000 0.000000 0.035403 0.000000 0.000000
# 5 0.000000 0.000000 0.000000 0.000000 0.124372 0.000000
# 6 0.000000 0.000000 0.000000 0.000000 0.000000 0.034745
#
#
# Mechanical properties :
#
#
# Convention : Reuss Voigt Hill
#
# Bulk Modulus (GPa) = 46.05367 60.05288 53.05328
# Shear Modulus (GPa) = 15.94040 20.93393 18.43717
#
# Velocity S-wave (km/s) = 2.94665 3.37679 3.16903
# Velocity P-wave (km/s) = 6.05495 6.92202 6.50295
#
# Compressibility (1/GPa) = 0.02171380
#
# Stress axis : x y z
#
# Youngs Moduli (GPa) = 39.71503 52.34718 44.38645
#
# Poissons Ratio (x) = 0.43283 0.06312
# Poissons Ratio (y) = 0.32838 0.57075
# Poissons Ratio (z) = 0.05648 0.67311
#
# Static dielectric constant tensor:
#      x y z
#    x 3.120300 0.000000 0.000000 
#    y 0.000000 3.451240 0.000000 
#    z 0.000000 0.000000 3.439930 
# 
# 
# High freq. dielectric constant tensor:
#      x y z
#    x 1.679020 0.000000 0.000000 
#    y 0.000000 1.717870 0.000000 
#    z 0.000000 0.000000 1.707770 
# 
# From -- ./inp_files/60403.got.cif
#   From: 2010.03.12/outbox.cif.g09.slc.cpg/sg65_31_cif.got.tgz:60403.got - 2010.04.10 20:52:16.
