data_PCOD8272193
_publ_section_title
;
Structure prediction by ZEFSAII (Michael W. Deem and Ramdas Pophale) SiO2 
 PCOD8272193
Probable space group: C M M M
;
_chemical_formula_sum "Si O2"
_cell_formula_units_Z 88
_cell_length_a 8.490711
_cell_length_b 25.792143
_cell_length_c 20.825042
_cell_angle_alpha 90.000000
_cell_angle_beta 90.000000
_cell_angle_gamma 90.000000
_cell_volume 4560.551590
_symmetry_space_group_name_H-M "C M M M"
_symmetry_group_IT_number 65
_symmetry_cell_setting 'orthorhombic'
loop_
_space_group_symop_operation_xyz
x,y,z
-x,-y,z
x,-y,-z
-x,y,-z
-x,-y,-z
x,y,-z
-x,y,z
x,-y,z
1/2+x,1/2+y,z
1/2-x,1/2-y,z
1/2+x,1/2-y,-z
1/2-x,1/2+y,-z
1/2-x,1/2-y,-z
1/2+x,1/2+y,-z
1/2-x,1/2+y,z
1/2+x,1/2-y,z
loop_
_atom_site_type_symbol
_atom_site_label
_atom_site_fract_x
_atom_site_fract_y
_atom_site_fract_z
Si Si1 0.183494 0.000000 0.357642
Si Si2 0.314295 0.195697 0.347204
Si Si3 0.814522 0.906319 0.862699
Si Si4 0.313266 0.805287 0.799415
Si Si5 0.813048 0.400475 0.427717
Si Si6 0.316696 0.000000 0.781863
Si Si7 0.814028 0.942275 0.000000
O O1 0.259636 0.950181 0.389314
O O2 0.214411 0.000000 0.282232
O O3 0.000000 0.000000 0.371571
O O4 0.500000 0.197120 0.350966
O O5 0.250000 0.250000 0.373821
O O6 0.259245 0.186159 0.274133
O O7 0.245060 0.150130 0.391626
O O8 0.769858 0.848836 0.841621
O O9 0.722003 0.948468 0.821225
O O10 0.758844 0.911804 0.936530
O O11 0.000000 0.916259 0.854662
O O12 0.500000 0.808401 0.807474
O O13 0.250000 0.750000 0.824193
O O14 0.745384 0.401679 0.500000
O O15 0.000000 0.399057 0.428658
O O16 0.500000 0.000000 0.763480
O O17 0.000000 0.947290 0.000000
O O18 0.739667 0.000000 0.000000
#
# Coordination Sequence:
#
# PCOD8272193 Si02
#       7
#     8  16  16  16  16   8   8
#     4  12  25  39  57  82 110 145 191 241 288 333
#     4   9  19  35  56  81 110 144 184 231 281 333
#     4  11  21  37  61  88 117 152 192 233 283 340
#     4  10  20  36  57  83 115 152 195 243 291 338
#     4  10  21  38  58  80 112 153 188 224 282 350
#     4  12  24  38  58  86 117 148 186 235 288 344
#     4   9  18  36  59  84 119 156 187 227 282 340
#
# _framework density 19.295911
#
# number of rings (size 3 to 8) (size 9 to 14) (size 15 to 20)
#    0.000    1.727    0.909    4.091    0.000    4.727 
#    0.000    2.727    0.000    0.000    0.000    0.000 
#    0.000    0.000    0.000    0.000    0.000    0.000 
#
# Total GULP energy -545740.997372 kJ/mol
# GULP energy per Si atom -12403.204486 kJ/mol
# Density = 1.925199 g / cm^3
# Si number density = 19.295911 Si / 1000 Ang^3
#
#
#
# Elastic Constant Matrix: (Units=GPa)
#
#
# Indices 1 2 3 4 5 6 
#
# 1 21.0902 6.8739 4.3616 0.0000 0.0000 0.0000
# 2 6.8739 165.4223 77.0548 0.0000 0.0000 0.0000
# 3 4.3616 77.0548 129.9992 0.0000 0.0000 0.0000
# 4 0.0000 0.0000 0.0000 -9.2715 0.0000 0.0000
# 5 0.0000 0.0000 0.0000 0.0000 20.7565 0.0000
# 6 0.0000 0.0000 0.0000 0.0000 0.0000 32.8620
#
#
#
# Elastic Compliance Matrix: (Units=1/GPa)
#
#
# Indices 1 2 3 4 5 6 
#
# 1 0.048099 -0.001723 -0.000593 0.000000 0.000000 0.000000
# 2 -0.001723 0.008412 -0.004929 0.000000 0.000000 0.000000
# 3 -0.000593 -0.004929 0.010634 0.000000 0.000000 0.000000
# 4 0.000000 0.000000 0.000000 -0.107857 0.000000 0.000000
# 5 0.000000 0.000000 0.000000 0.000000 0.048178 0.000000
# 6 0.000000 0.000000 0.000000 0.000000 0.000000 0.030430
#
#
# Mechanical properties :
#
#
# Convention : Reuss Voigt Hill
#
# Bulk Modulus (GPa) = 18.99063 54.78804 36.88933
# Shear Modulus (GPa) = 71.49328 24.08417 47.78872
#
# Velocity S-wave (km/s) = 6.09356 3.53675 4.98197
# Velocity P-wave (km/s) = 7.70531 6.71814 7.22859
#
# Compressibility (1/GPa) = 0.05265756
#
# Stress axis : x y z
#
# Youngs Moduli (GPa) = 20.79032 118.87123 94.04188
#
# Poissons Ratio (x) = 0.20477 0.05574
# Poissons Ratio (y) = 0.03581 0.46349
# Poissons Ratio (z) = 0.01232 0.58586
#
# Static dielectric constant tensor:
#      x y z
#    x 3.409590 0.000000 0.000000 
#    y 0.000000 3.605570 0.000000 
#    z 0.000000 0.000000 3.775920 
# 
# 
# High freq. dielectric constant tensor:
#      x y z
#    x 1.742660 0.000000 0.000000 
#    y 0.000000 1.763520 0.000000 
#    z 0.000000 0.000000 1.753020 
# 
# From -- ./inp_files/59892.got.cif
#   From: 2010.03.12/outbox.cif.g09.slc.cpg/sg65_30_cif.got.tgz:59892.got - 2010.04.10 20:52:16.
