data_PCOD8272333
_publ_section_title
;
Structure prediction by ZEFSAII (Michael W. Deem and Ramdas Pophale) SiO2 
 PCOD8272333
Probable space group: C M M M
;
_chemical_formula_sum "Si O2"
_cell_formula_units_Z 104
_cell_length_a 28.250097
_cell_length_b 21.035812
_cell_length_c 8.800976
_cell_angle_alpha 90.000000
_cell_angle_beta 90.000000
_cell_angle_gamma 90.000000
_cell_volume 5230.100821
_symmetry_space_group_name_H-M "C M M M"
_symmetry_group_IT_number 65
_symmetry_cell_setting 'orthorhombic'
loop_
_space_group_symop_operation_xyz
x,y,z
-x,-y,z
x,-y,-z
-x,y,-z
-x,-y,-z
x,y,-z
-x,y,z
x,-y,z
1/2+x,1/2+y,z
1/2-x,1/2-y,z
1/2+x,1/2-y,-z
1/2-x,1/2+y,-z
1/2-x,1/2-y,-z
1/2+x,1/2+y,-z
1/2-x,1/2+y,z
1/2+x,1/2-y,z
loop_
_atom_site_type_symbol
_atom_site_label
_atom_site_fract_x
_atom_site_fract_y
_atom_site_fract_z
Si Si1 0.125686 0.901486 0.321650
Si Si2 0.691069 0.147259 0.820883
Si Si3 0.553793 0.810177 0.326689
Si Si4 0.109664 0.570289 0.326299
Si Si5 0.278905 0.429951 0.173451
Si Si6 0.632901 0.734610 0.823021
Si Si7 0.444502 0.500000 0.180194
O O1 0.117473 0.907010 0.500000
O O2 0.174567 0.934440 0.275936
O O3 0.131339 0.828586 0.274539
O O4 0.081139 0.936510 0.243047
O O5 0.653465 0.095914 0.768082
O O6 0.742876 0.124320 0.763075
O O7 0.676384 0.218947 0.768712
O O8 0.691174 0.145103 0.000000
O O9 0.565928 0.789511 0.500000
O O10 0.500000 0.796114 0.286848
O O11 0.563883 0.885055 0.305038
O O12 0.584042 0.770857 0.206309
O O13 0.126344 0.569360 0.500000
O O14 0.095771 0.500000 0.269190
O O15 0.254791 0.500000 0.180549
O O16 0.293562 0.413531 0.000000
O O17 0.637652 0.717685 0.000000
O O18 0.500000 0.500000 0.229047
O O19 0.439701 0.500000 0.000000
#
# Coordination Sequence:
#
# PCOD8272333 Si02
#       7
#    16  16  16  16  16  16   8
#     4  12  25  41  63  91 122 152 187 231 286 347
#     4   9  19  35  56  83 112 153 201 241 283 335
#     4   9  18  33  52  75 106 144 188 238 291 346
#     4   9  17  29  47  74 109 148 189 237 289 340
#     4  10  20  36  60  86 118 157 197 239 285 340
#     4  10  21  38  59  82 114 152 195 243 290 345
#     4  11  25  47  73  97 121 151 191 239 294 355
#
# _framework density 19.884893000000002
#
# number of rings (size 3 to 8) (size 9 to 14) (size 15 to 20)
#    0.000    2.077    0.769    2.538    0.000    4.615 
#    0.000    4.615    0.000    0.000    0.000    4.308 
#    0.000    0.000    0.000    0.000    0.000    0.000 
#
# Total GULP energy -644552.487529 kJ/mol
# GULP energy per Si atom -12395.240145 kJ/mol
# Density = 1.983963 g / cm^3
# Si number density = 19.884893 Si / 1000 Ang^3
#
#
#
# Elastic Constant Matrix: (Units=GPa)
#
#
# Indices 1 2 3 4 5 6 
#
# 1 115.3483 48.0655 43.0620 0.0000 0.0000 0.0000
# 2 48.0655 129.4164 33.8189 0.0000 0.0000 0.0000
# 3 43.0620 33.8189 55.0648 0.0000 0.0000 0.0000
# 4 0.0000 0.0000 0.0000 28.3299 0.0000 0.0000
# 5 0.0000 0.0000 0.0000 0.0000 25.1611 0.0000
# 6 0.0000 0.0000 0.0000 0.0000 0.0000 23.8832
#
#
#
# Elastic Compliance Matrix: (Units=1/GPa)
#
#
# Indices 1 2 3 4 5 6 
#
# 1 0.012925 -0.002572 -0.008528 0.000000 0.000000 0.000000
# 2 -0.002572 0.009716 -0.003956 0.000000 0.000000 0.000000
# 3 -0.008528 -0.003956 0.027259 0.000000 0.000000 0.000000
# 4 0.000000 0.000000 0.000000 0.035298 0.000000 0.000000
# 5 0.000000 0.000000 0.000000 0.000000 0.039744 0.000000
# 6 0.000000 0.000000 0.000000 0.000000 0.000000 0.041870
#
#
# Mechanical properties :
#
#
# Convention : Reuss Voigt Hill
#
# Bulk Modulus (GPa) = 50.53481 61.08025 55.80753
# Shear Modulus (GPa) = 24.56761 27.13372 25.85067
#
# Velocity S-wave (km/s) = 3.51877 3.69797 3.60948
# Velocity P-wave (km/s) = 6.47903 7.00121 6.74517
#
# Compressibility (1/GPa) = 0.01978834
#
# Stress axis : x y z
#
# Youngs Moduli (GPa) = 77.37125 102.92372 36.68491
#
# Poissons Ratio (x) = 0.26469 0.31285
# Poissons Ratio (y) = 0.19898 0.14513
# Poissons Ratio (z) = 0.65982 0.40717
#
# Static dielectric constant tensor:
#      x y z
#    x 3.650290 0.000000 0.000000 
#    y 0.000000 3.899580 0.000000 
#    z 0.000000 0.000000 3.533890 
# 
# 
# High freq. dielectric constant tensor:
#      x y z
#    x 1.767080 0.000000 0.000000 
#    y 0.000000 1.787700 0.000000 
#    z 0.000000 0.000000 1.765680 
# 
# From -- ./inp_files/16469.got.cif
#   From: 2010.03.12/outbox.cif.g09.slc.cpg/sg65_9_cif.got.tgz:16469.got - 2010.04.10 20:52:16.
