data_PCOD8272770
_publ_section_title
;
Structure prediction by ZEFSAII (Michael W. Deem and Ramdas Pophale) SiO2 
 PCOD8272770
Probable space group: C M M M
;
_chemical_formula_sum "Si O2"
_cell_formula_units_Z 88
_cell_length_a 14.181755
_cell_length_b 18.663712
_cell_length_c 18.971955
_cell_angle_alpha 90.000000
_cell_angle_beta 90.000000
_cell_angle_gamma 90.000000
_cell_volume 5021.576560
_symmetry_space_group_name_H-M "C M M M"
_symmetry_group_IT_number 65
_symmetry_cell_setting 'orthorhombic'
loop_
_space_group_symop_operation_xyz
x,y,z
-x,-y,z
x,-y,-z
-x,y,-z
-x,-y,-z
x,y,-z
-x,y,z
x,-y,z
1/2+x,1/2+y,z
1/2-x,1/2-y,z
1/2+x,1/2-y,-z
1/2-x,1/2+y,-z
1/2-x,1/2-y,-z
1/2+x,1/2+y,-z
1/2-x,1/2+y,z
1/2+x,1/2-y,z
loop_
_atom_site_type_symbol
_atom_site_label
_atom_site_fract_x
_atom_site_fract_y
_atom_site_fract_z
Si Si1 0.252529 0.917284 0.582753
Si Si2 0.000000 0.584520 0.923086
Si Si3 0.891701 0.173166 0.668372
Si Si4 0.795704 0.415917 0.081303
Si Si5 0.391184 0.839626 0.321887
Si Si6 0.740756 0.668564 0.793416
O O1 0.261532 0.906828 0.500000
O O2 0.163958 0.871027 0.609404
O O3 0.350070 0.889849 0.616755
O O4 0.236283 0.000000 0.603315
O O5 0.099682 0.606761 0.888526
O O6 0.000000 0.500000 0.932084
O O7 0.000000 0.619958 0.000000
O O8 0.878344 0.257502 0.653450
O O9 0.851390 0.155352 0.745757
O O10 0.000000 0.149654 0.665706
O O11 0.778603 0.500000 0.086707
O O12 0.725381 0.376960 0.135131
O O13 0.780745 0.391281 0.000000
O O14 0.500000 0.859172 0.308308
O O15 0.333416 0.854844 0.250442
O O16 0.750000 0.750000 0.817596
#
# Coordination Sequence:
#
# PCOD8272770 Si02
#       6
#    16   8  16  16  16  16
#     4  10  21  35  51  76 108 134 161 203 251 297
#     4   7  12  24  40  62  92 122 150 182 226 281
#     4   9  19  37  56  72  96 132 174 214 248 288
#     4   9  17  29  46  69  99 132 163 197 241 295
#     4   9  19  35  54  75 100 133 169 202 245 301
#     4   9  18  31  49  74  99 126 161 209 253 292
#
# _framework density 17.524376
#
# number of rings (size 3 to 8) (size 9 to 14) (size 15 to 20)
#    0.000    3.000    0.000    2.727    1.273    6.182 
#    0.000    3.636    0.000    0.545    0.000    1.273 
#    0.000    0.000    0.000    0.000    0.000    0.000 
#
# Total GULP energy -545267.365375 kJ/mol
# GULP energy per Si atom -12392.440122 kJ/mol
# Density = 1.748449 g / cm^3
# Si number density = 17.524376 Si / 1000 Ang^3
#
#
#
# Elastic Constant Matrix: (Units=GPa)
#
#
# Indices 1 2 3 4 5 6 
#
# 1 87.1230 22.9764 31.9228 0.0000 0.0000 0.0000
# 2 22.9764 57.7916 53.6106 0.0000 0.0000 0.0000
# 3 31.9228 53.6106 104.2006 0.0000 0.0000 0.0000
# 4 0.0000 0.0000 0.0000 33.3825 0.0000 0.0000
# 5 0.0000 0.0000 0.0000 0.0000 14.9129 0.0000
# 6 0.0000 0.0000 0.0000 0.0000 0.0000 15.4753
#
#
#
# Elastic Compliance Matrix: (Units=1/GPa)
#
#
# Indices 1 2 3 4 5 6 
#
# 1 0.013171 -0.002857 -0.002565 0.000000 0.000000 0.000000
# 2 -0.002857 0.033722 -0.016475 0.000000 0.000000 0.000000
# 3 -0.002565 -0.016475 0.018859 0.000000 0.000000 0.000000
# 4 0.000000 0.000000 0.000000 0.029956 0.000000 0.000000
# 5 0.000000 0.000000 0.000000 0.000000 0.067056 0.000000
# 6 0.000000 0.000000 0.000000 0.000000 0.000000 0.064619
#
#
# Mechanical properties :
#
#
# Convention : Reuss Voigt Hill
#
# Bulk Modulus (GPa) = 45.53986 51.79274 48.66630
# Shear Modulus (GPa) = 17.95353 22.12781 20.04067
#
# Velocity S-wave (km/s) = 3.20424 3.55729 3.38537
# Velocity P-wave (km/s) = 6.30337 6.81845 6.56596
#
# Compressibility (1/GPa) = 0.02195879
#
# Stress axis : x y z
#
# Youngs Moduli (GPa) = 75.92195 29.65416 53.02542
#
# Poissons Ratio (x) = 0.08472 0.13603
# Poissons Ratio (y) = 0.21690 0.87357
# Poissons Ratio (z) = 0.19477 0.48854
#
# Static dielectric constant tensor:
#      x y z
#    x 3.409850 0.000000 0.000000 
#    y 0.000000 3.146250 0.000000 
#    z 0.000000 0.000000 3.105640 
# 
# 
# High freq. dielectric constant tensor:
#      x y z
#    x 1.668190 0.000000 0.000000 
#    y 0.000000 1.665330 0.000000 
#    z 0.000000 0.000000 1.671960 
# 
# From -- ./inp_files/53049.got.cif
#   From: 2010.03.12/outbox.cif.g09.slc.cpg/sg65_27_cif.got.tgz:53049.got - 2010.04.10 20:52:16.
