data_PCOD8272917
_publ_section_title
;
Structure prediction by ZEFSAII (Michael W. Deem and Ramdas Pophale) SiO2 
 PCOD8272917
Probable space group: C M M M
;
_chemical_formula_sum "Si O2"
_cell_formula_units_Z 88
_cell_length_a 13.423618
_cell_length_b 27.006920
_cell_length_c 12.758226
_cell_angle_alpha 90.000000
_cell_angle_beta 90.000000
_cell_angle_gamma 90.000000
_cell_volume 4625.247039
_symmetry_space_group_name_H-M "C M M M"
_symmetry_group_IT_number 65
_symmetry_cell_setting 'orthorhombic'
loop_
_space_group_symop_operation_xyz
x,y,z
-x,-y,z
x,-y,-z
-x,y,-z
-x,-y,-z
x,y,-z
-x,y,z
x,-y,z
1/2+x,1/2+y,z
1/2-x,1/2-y,z
1/2+x,1/2-y,-z
1/2-x,1/2+y,-z
1/2-x,1/2-y,-z
1/2+x,1/2+y,-z
1/2-x,1/2+y,z
1/2+x,1/2-y,z
loop_
_atom_site_type_symbol
_atom_site_label
_atom_site_fract_x
_atom_site_fract_y
_atom_site_fract_z
Si Si1 0.801690 0.103064 0.807877
Si Si2 0.383016 0.664357 0.000000
Si Si3 0.384080 0.159457 0.805149
Si Si4 0.617237 0.226122 0.000000
Si Si5 0.882504 0.000000 0.123552
Si Si6 0.617844 0.227852 0.615623
Si Si7 0.884024 0.162081 0.379860
O O1 0.681669 0.109681 0.816507
O O2 0.830629 0.046414 0.821934
O O3 0.834033 0.121352 0.693594
O O4 0.854567 0.135315 0.896250
O O5 0.500000 0.670527 0.000000
O O6 0.331698 0.719166 0.000000
O O7 0.500000 0.144569 0.808740
O O8 0.351010 0.186356 0.698275
O O9 0.351696 0.196027 0.897631
O O10 0.500000 0.234259 0.000000
O O11 0.000000 0.000000 0.146381
O O12 0.861121 0.000000 0.000000
O O13 0.652042 0.209923 0.500000
O O14 0.500000 0.235200 0.618414
O O15 0.663487 0.282687 0.639858
O O16 0.866682 0.146116 0.500000
O O17 0.000000 0.163518 0.352171
#
# Coordination Sequence:
#
# PCOD8272917 Si02
#       7
#    16   8  16   8   8  16  16
#     4  12  23  36  59  82 105 143 190 230 279 333
#     4  11  21  34  55  83 111 141 180 224 270 330
#     4  10  21  36  52  77 115 152 184 223 266 317
#     4   9  19  33  49  75 115 150 174 213 272 325
#     4  11  24  44  64  84 108 131 172 239 297 339
#     4   8  15  30  52  79 116 158 192 222 260 312
#     4   9  18  33  54  84 120 152 184 226 276 333
#
# _framework density 19.026012000000001
#
# number of rings (size 3 to 8) (size 9 to 14) (size 15 to 20)
#    0.000    2.091    0.909    4.364    0.000    7.273 
#    0.000    2.727    0.000    2.182    0.000    0.000 
#    0.000    4.364    0.000    0.000    0.000    0.000 
#
# Total GULP energy -545576.172006 kJ/mol
# GULP energy per Si atom -12399.458455 kJ/mol
# Density = 1.898271 g / cm^3
# Si number density = 19.026012 Si / 1000 Ang^3
#
#
#
# Elastic Constant Matrix: (Units=GPa)
#
#
# Indices 1 2 3 4 5 6 
#
# 1 72.0326 59.2013 38.2303 0.0000 0.0000 0.0000
# 2 59.2013 143.1636 56.7099 0.0000 0.0000 0.0000
# 3 38.2303 56.7099 109.5595 0.0000 0.0000 0.0000
# 4 0.0000 0.0000 0.0000 25.5797 0.0000 0.0000
# 5 0.0000 0.0000 0.0000 0.0000 2.0991 0.0000
# 6 0.0000 0.0000 0.0000 0.0000 0.0000 29.3260
#
#
#
# Elastic Compliance Matrix: (Units=1/GPa)
#
#
# Indices 1 2 3 4 5 6 
#
# 1 0.022201 -0.007688 -0.003767 0.000000 0.000000 0.000000
# 2 -0.007688 0.011449 -0.003243 0.000000 0.000000 0.000000
# 3 -0.003767 -0.003243 0.012121 0.000000 0.000000 0.000000
# 4 0.000000 0.000000 0.000000 0.039093 0.000000 0.000000
# 5 0.000000 0.000000 0.000000 0.000000 0.476399 0.000000
# 6 0.000000 0.000000 0.000000 0.000000 0.000000 0.034099
#
#
# Mechanical properties :
#
#
# Convention : Reuss Voigt Hill
#
# Bulk Modulus (GPa) = 61.07701 70.33763 65.70732
# Shear Modulus (GPa) = 7.93376 22.77524 15.35450
#
# Velocity S-wave (km/s) = 2.04426 3.46361 2.84390
# Velocity P-wave (km/s) = 6.14358 7.28319 6.73752
#
# Compressibility (1/GPa) = 0.01637277
#
# Stress axis : x y z
#
# Youngs Moduli (GPa) = 45.04360 87.34344 82.50197
#
# Poissons Ratio (x) = 0.67151 0.31081
# Poissons Ratio (y) = 0.34630 0.26759
# Poissons Ratio (z) = 0.16969 0.28330
#
# Static dielectric constant tensor:
#      x y z
#    x 3.612660 0.000000 0.000000 
#    y 0.000000 3.238900 0.000000 
#    z 0.000000 0.000000 3.714830 
# 
# 
# High freq. dielectric constant tensor:
#      x y z
#    x 1.758730 0.000000 0.000000 
#    y 0.000000 1.694770 0.000000 
#    z 0.000000 0.000000 1.751380 
# 
# From -- ./inp_files/25216.got.cif
#   From: 2010.03.12/outbox.cif.g09.slc.cpg/sg65_13_cif.got.tgz:25216.got - 2010.04.10 20:52:16.
