data_PCOD8272420
_publ_section_title
;
Structure prediction by ZEFSAII (Michael W. Deem and Ramdas Pophale) SiO2 
 PCOD8272420
Probable space group: C M M M
;
_chemical_formula_sum "Si O2"
_cell_formula_units_Z 72
_cell_length_a 23.346038
_cell_length_b 17.439412
_cell_length_c 9.298332
_cell_angle_alpha 90.000000
_cell_angle_beta 90.000000
_cell_angle_gamma 90.000000
_cell_volume 3785.733818
_symmetry_space_group_name_H-M "C M M M"
_symmetry_group_IT_number 65
_symmetry_cell_setting 'orthorhombic'
loop_
_space_group_symop_operation_xyz
x,y,z
-x,-y,z
x,-y,-z
-x,y,-z
-x,-y,-z
x,y,-z
-x,y,z
x,-y,z
1/2+x,1/2+y,z
1/2-x,1/2-y,z
1/2+x,1/2-y,-z
1/2-x,1/2+y,-z
1/2-x,1/2-y,-z
1/2+x,1/2+y,-z
1/2-x,1/2+y,z
1/2+x,1/2-y,z
loop_
_atom_site_type_symbol
_atom_site_label
_atom_site_fract_x
_atom_site_fract_y
_atom_site_fract_z
Si Si1 0.359823 0.089446 0.667270
Si Si2 0.751209 0.911432 0.163808
Si Si3 0.124443 0.862463 0.833055
Si Si4 0.432678 0.500000 0.666762
Si Si5 0.433824 0.204166 0.833760
O O1 0.358210 0.108420 0.500000
O O2 0.299865 0.117541 0.734930
O O3 0.412566 0.133330 0.738965
O O4 0.369308 0.000000 0.698369
O O5 0.807724 0.862492 0.198875
O O6 0.766496 0.000000 0.193025
O O7 0.731214 0.898803 0.000000
O O8 0.092646 0.924406 0.737628
O O9 0.101193 0.779526 0.789585
O O10 0.112310 0.881606 0.000000
O O11 0.500000 0.500000 0.691386
O O12 0.415907 0.500000 0.500000
O O13 0.500000 0.219203 0.799228
O O14 0.424152 0.183502 0.000000
#
# Coordination Sequence:
#
# PCOD8272420 Si02
#       5
#    16  16  16   8  16
#     4  10  22  39  59  83 112 149 188 230 288 350
#     4   9  17  33  58  86 114 145 186 232 279 330
#     4  10  20  37  60  85 113 150 194 236 281 333
#     4  11  23  35  51  81 119 159 198 233 276 329
#     4  10  22  39  59  84 113 147 190 241 290 335
#
# _framework density 19.018768999999999
#
# number of rings (size 3 to 8) (size 9 to 14) (size 15 to 20)
#    0.000    2.111    1.111    1.667    0.000    6.667 
#    0.000    6.667    0.000    0.000    0.000    0.000 
#    0.000    0.000    0.000    0.000    0.000    0.000 
#
# Total GULP energy -446579.161706 kJ/mol
# GULP energy per Si atom -12404.976714 kJ/mol
# Density = 1.897548 g / cm^3
# Si number density = 19.018769 Si / 1000 Ang^3
#
#
#
# Elastic Constant Matrix: (Units=GPa)
#
#
# Indices 1 2 3 4 5 6 
#
# 1 105.8823 59.3927 53.5365 0.0000 0.0000 0.0000
# 2 59.3927 86.7944 57.5014 0.0000 0.0000 0.0000
# 3 53.5365 57.5014 94.7103 0.0000 0.0000 0.0000
# 4 0.0000 0.0000 0.0000 5.0842 0.0000 0.0000
# 5 0.0000 0.0000 0.0000 0.0000 28.2898 0.0000
# 6 0.0000 0.0000 0.0000 0.0000 0.0000 137.6496
#
#
#
# Elastic Compliance Matrix: (Units=1/GPa)
#
#
# Indices 1 2 3 4 5 6 
#
# 1 0.016212 -0.008402 -0.004063 0.000000 0.000000 0.000000
# 2 -0.008402 0.023628 -0.009596 0.000000 0.000000 0.000000
# 3 -0.004063 -0.009596 0.018681 0.000000 0.000000 0.000000
# 4 0.000000 0.000000 0.000000 0.196687 0.000000 0.000000
# 5 0.000000 0.000000 0.000000 0.000000 0.035348 0.000000
# 6 0.000000 0.000000 0.000000 0.000000 0.000000 0.007265
#
#
# Mechanical properties :
#
#
# Convention : Reuss Voigt Hill
#
# Bulk Modulus (GPa) = 69.44734 69.80534 69.62634
# Shear Modulus (GPa) = 14.41994 42.00182 28.21088
#
# Velocity S-wave (km/s) = 2.75652 4.70450 3.85556
# Velocity P-wave (km/s) = 6.83562 8.14204 7.51726
#
# Compressibility (1/GPa) = 0.01439940
#
# Stress axis : x y z
#
# Youngs Moduli (GPa) = 61.68445 42.32230 53.52969
#
# Poissons Ratio (x) = 0.35558 0.21748
# Poissons Ratio (y) = 0.51826 0.51368
# Poissons Ratio (z) = 0.25062 0.40613
#
# Static dielectric constant tensor:
#      x y z
#    x 3.534710 0.000000 0.000000 
#    y 0.000000 3.395330 0.000000 
#    z 0.000000 0.000000 3.474610 
# 
# 
# High freq. dielectric constant tensor:
#      x y z
#    x 1.748990 0.000000 0.000000 
#    y 0.000000 1.733780 0.000000 
#    z 0.000000 0.000000 1.735560 
# 
# From -- ./inp_files/9229.got.cif
#   From: 2010.03.12/outbox.cif.g09.slc.cpg/sg65_5_cif.got.tgz:9229.got - 2010.04.10 20:52:16.
