data_PCOD8272590
_publ_section_title
;
Structure prediction by ZEFSAII (Michael W. Deem and Ramdas Pophale) SiO2 
 PCOD8272590
Probable space group: C M M M
;
_chemical_formula_sum "Si O2"
_cell_formula_units_Z 72
_cell_length_a 18.041982
_cell_length_b 7.440737
_cell_length_c 27.102518
_cell_angle_alpha 90.000000
_cell_angle_beta 90.000000
_cell_angle_gamma 90.000000
_cell_volume 3638.394956
_symmetry_space_group_name_H-M "C M M M"
_symmetry_group_IT_number 65
_symmetry_cell_setting 'orthorhombic'
loop_
_space_group_symop_operation_xyz
x,y,z
-x,-y,z
x,-y,-z
-x,y,-z
-x,-y,-z
x,y,-z
-x,y,z
x,-y,z
1/2+x,1/2+y,z
1/2-x,1/2-y,z
1/2+x,1/2-y,-z
1/2-x,1/2+y,-z
1/2-x,1/2-y,-z
1/2+x,1/2+y,-z
1/2-x,1/2+y,z
1/2+x,1/2-y,z
loop_
_atom_site_type_symbol
_atom_site_label
_atom_site_fract_x
_atom_site_fract_y
_atom_site_fract_z
Si Si1 0.082946 0.212824 0.054102
Si Si2 0.411719 0.000000 0.784316
Si Si3 0.835860 0.210199 0.849596
Si Si4 0.335930 0.708811 0.500000
Si Si5 0.087208 0.794220 0.402338
Si Si6 0.587559 0.000000 0.326674
O O1 0.138975 0.280510 0.096263
O O2 0.000000 0.283915 0.065885
O O3 0.082019 0.000000 0.053080
O O4 0.108391 0.285021 0.000000
O O5 0.381726 0.818982 0.809189
O O6 0.380270 0.000000 0.728491
O O7 0.500000 0.000000 0.786850
O O8 0.750000 0.250000 0.843221
O O9 0.853320 0.000000 0.842109
O O10 0.353600 0.500000 0.500000
O O11 0.250000 0.750000 0.500000
O O12 0.372916 0.788567 0.450652
O O13 0.114345 0.678283 0.355546
O O14 0.000000 0.775363 0.411215
O O15 0.110300 0.000000 0.391983
O O16 0.500000 0.000000 0.323265
#
# Coordination Sequence:
#
# PCOD8272590 Si02
#       6
#    16   8  16   8  16   8
#     4   8  15  30  54  85 118 152 193 240 294 358
#     4  11  24  42  64  92 119 150 206 264 301 354
#     4  11  22  39  62  86 121 163 200 245 304 362
#     4  10  21  33  52  80 118 150 181 225 272 334
#     4   9  18  35  58  83 111 146 188 229 276 333
#     4   9  20  37  60  86 110 142 189 246 292 331
#
# _framework density 19.788947
#
# number of rings (size 3 to 8) (size 9 to 14) (size 15 to 20)
#    0.000    2.444    1.111    1.667    1.556    4.000 
#    0.000    5.556    0.000    2.000    0.000    0.000 
#    0.000    0.000    0.000    0.000    0.000    0.000 
#
# Total GULP energy -446300.684267 kJ/mol
# GULP energy per Si atom -12397.241230 kJ/mol
# Density = 1.974391 g / cm^3
# Si number density = 19.788947 Si / 1000 Ang^3
#
#
#
# Elastic Constant Matrix: (Units=GPa)
#
#
# Indices 1 2 3 4 5 6 
#
# 1 87.9532 29.5893 62.9596 0.0000 0.0000 0.0000
# 2 29.5893 99.8231 68.7980 0.0000 0.0000 0.0000
# 3 62.9596 68.7980 195.6355 0.0000 0.0000 0.0000
# 4 0.0000 0.0000 0.0000 29.6864 0.0000 0.0000
# 5 0.0000 0.0000 0.0000 0.0000 8.1357 0.0000
# 6 0.0000 0.0000 0.0000 0.0000 0.0000 8.6695
#
#
#
# Elastic Compliance Matrix: (Units=1/GPa)
#
#
# Indices 1 2 3 4 5 6 
#
# 1 0.014935 -0.001471 -0.004289 0.000000 0.000000 0.000000
# 2 -0.001471 0.013367 -0.004227 0.000000 0.000000 0.000000
# 3 -0.004289 -0.004227 0.007978 0.000000 0.000000 0.000000
# 4 0.000000 0.000000 0.000000 0.033685 0.000000 0.000000
# 5 0.000000 0.000000 0.000000 0.000000 0.122916 0.000000
# 6 0.000000 0.000000 0.000000 0.000000 0.000000 0.115347
#
#
# Mechanical properties :
#
#
# Convention : Reuss Voigt Hill
#
# Bulk Modulus (GPa) = 61.32807 78.45617 69.89212
# Shear Modulus (GPa) = 14.98626 24.10264 19.54445
#
# Velocity S-wave (km/s) = 2.75490 3.49375 3.14609
# Velocity P-wave (km/s) = 6.41698 7.48382 6.97084
#
# Compressibility (1/GPa) = 0.01630575
#
# Stress axis : x y z
#
# Youngs Moduli (GPa) = 66.95790 74.80972 125.33712
#
# Poissons Ratio (x) = 0.11004 0.53758
# Poissons Ratio (y) = 0.09849 0.52985
# Poissons Ratio (z) = 0.28719 0.31625
#
# Static dielectric constant tensor:
#      x y z
#    x 3.420130 0.000000 0.000000 
#    y 0.000000 3.670740 0.000000 
#    z 0.000000 0.000000 4.018050 
# 
# 
# High freq. dielectric constant tensor:
#      x y z
#    x 1.752960 0.000000 0.000000 
#    y 0.000000 1.771570 0.000000 
#    z 0.000000 0.000000 1.775130 
# 
# From -- ./inp_files/70393.got.cif
#   From: 2010.03.12/outbox.cif.g09.slc.cpg/sg65_36_cif.got.tgz:70393.got - 2010.04.10 20:52:16.
