data_PCOD8272702
_publ_section_title
;
Structure prediction by ZEFSAII (Michael W. Deem and Ramdas Pophale) SiO2 
 PCOD8272702
Probable space group: C M M M
;
_chemical_formula_sum "Si O2"
_cell_formula_units_Z 80
_cell_length_a 28.840762
_cell_length_b 14.600864
_cell_length_c 9.162321
_cell_angle_alpha 90.000000
_cell_angle_beta 90.000000
_cell_angle_gamma 90.000000
_cell_volume 3858.253773
_symmetry_space_group_name_H-M "C M M M"
_symmetry_group_IT_number 65
_symmetry_cell_setting 'orthorhombic'
loop_
_space_group_symop_operation_xyz
x,y,z
-x,-y,z
x,-y,-z
-x,y,-z
-x,-y,-z
x,y,-z
-x,y,z
x,-y,z
1/2+x,1/2+y,z
1/2-x,1/2-y,z
1/2+x,1/2-y,-z
1/2-x,1/2+y,-z
1/2-x,1/2-y,-z
1/2+x,1/2+y,-z
1/2-x,1/2+y,z
1/2+x,1/2-y,z
loop_
_atom_site_type_symbol
_atom_site_label
_atom_site_fract_x
_atom_site_fract_y
_atom_site_fract_z
Si Si1 0.446085 0.400745 0.840613
Si Si2 0.220144 0.606376 0.668647
Si Si3 0.052452 0.273952 0.669893
Si Si4 0.187286 0.103360 0.834297
Si Si5 0.859740 0.711967 0.832356
O O1 0.500000 0.414563 0.860939
O O2 0.423359 0.500000 0.804861
O O3 0.437997 0.332014 0.707018
O O4 0.426565 0.364646 0.000000
O O5 0.218300 0.634202 0.500000
O O6 0.209002 0.500000 0.692701
O O7 0.270917 0.630920 0.728076
O O8 0.183004 0.664508 0.755459
O O9 0.060099 0.291580 0.500000
O O10 0.092289 0.326472 0.761004
O O11 0.000000 0.303982 0.716149
O O12 0.145516 0.176756 0.811632
O O13 0.169446 0.000000 0.800154
O O14 0.205973 0.109724 0.000000
O O15 0.859715 0.682679 0.000000
#
# Coordination Sequence:
#
# PCOD8272702 Si02
#       5
#    16  16  16  16  16
#     4   8  14  26  44  64  88 123 168 215 261 311
#     4  10  21  37  58  84 113 144 178 221 276 333
#     4  10  21  35  50  71 102 140 182 230 281 328
#     4   9  19  36  56  81 115 150 183 220 264 319
#     4  11  22  35  56  83 110 146 188 228 273 325
#
# _framework density 20.734770000000001
#
# number of rings (size 3 to 8) (size 9 to 14) (size 15 to 20)
#    0.000    2.400    0.000    3.000    0.000    7.600 
#    0.000    4.000    0.000    0.600    0.000    4.200 
#    0.000    0.000    0.000    0.000    0.000    0.000 
#
# Total GULP energy -495669.383521 kJ/mol
# GULP energy per Si atom -12391.734588 kJ/mol
# Density = 2.068758 g / cm^3
# Si number density = 20.734770 Si / 1000 Ang^3
#
#
#
# Elastic Constant Matrix: (Units=GPa)
#
#
# Indices 1 2 3 4 5 6 
#
# 1 123.6800 21.6314 62.4055 0.0000 0.0000 0.0000
# 2 21.6314 29.4051 22.2377 0.0000 0.0000 0.0000
# 3 62.4055 22.2377 117.0933 0.0000 0.0000 0.0000
# 4 0.0000 0.0000 0.0000 26.4891 0.0000 0.0000
# 5 0.0000 0.0000 0.0000 0.0000 36.4152 0.0000
# 6 0.0000 0.0000 0.0000 0.0000 0.0000 6.4838
#
#
#
# Elastic Compliance Matrix: (Units=1/GPa)
#
#
# Indices 1 2 3 4 5 6 
#
# 1 0.011544 -0.004483 -0.005301 0.000000 0.000000 0.000000
# 2 -0.004483 0.041452 -0.005483 0.000000 0.000000 0.000000
# 3 -0.005301 -0.005483 0.012407 0.000000 0.000000 0.000000
# 4 0.000000 0.000000 0.000000 0.037751 0.000000 0.000000
# 5 0.000000 0.000000 0.000000 0.000000 0.027461 0.000000
# 6 0.000000 0.000000 0.000000 0.000000 0.000000 0.154230
#
#
# Mechanical properties :
#
#
# Convention : Reuss Voigt Hill
#
# Bulk Modulus (GPa) = 28.67921 53.63638 41.15780
# Shear Modulus (GPa) = 15.29035 24.80457 20.04746
#
# Velocity S-wave (km/s) = 2.71850 3.46248 3.11280
# Velocity P-wave (km/s) = 4.86982 6.47372 5.72818
#
# Compressibility (1/GPa) = 0.03486847
#
# Stress axis : x y z
#
# Youngs Moduli (GPa) = 86.62264 24.12409 80.60124
#
# Poissons Ratio (x) = 0.10816 0.42728
# Poissons Ratio (y) = 0.38836 0.44193
# Poissons Ratio (z) = 0.45920 0.13227
#
# Static dielectric constant tensor:
#      x y z
#    x 3.888860 0.000000 0.000000 
#    y 0.000000 3.631170 0.000000 
#    z 0.000000 0.000000 3.732900 
# 
# 
# High freq. dielectric constant tensor:
#      x y z
#    x 1.827080 0.000000 0.000000 
#    y 0.000000 1.776380 0.000000 
#    z 0.000000 0.000000 1.809360 
# 
# From -- ./inp_files/16047.got.cif
#   From: 2010.03.12/outbox.cif.g09.slc.cpg/sg65_9_cif.got.tgz:16047.got - 2010.04.10 20:52:16.
