data_PCOD8272690
_publ_section_title
;
Structure prediction by ZEFSAII (Michael W. Deem and Ramdas Pophale) SiO2 
 PCOD8272690
Probable space group: C M M M
;
_chemical_formula_sum "Si O2"
_cell_formula_units_Z 96
_cell_length_a 30.053449
_cell_length_b 19.682871
_cell_length_c 9.389898
_cell_angle_alpha 90.000000
_cell_angle_beta 90.000000
_cell_angle_gamma 90.000000
_cell_volume 5554.482983
_symmetry_space_group_name_H-M "C M M M"
_symmetry_group_IT_number 65
_symmetry_cell_setting 'orthorhombic'
loop_
_space_group_symop_operation_xyz
x,y,z
-x,-y,z
x,-y,-z
-x,y,-z
-x,-y,-z
x,y,-z
-x,y,z
x,-y,z
1/2+x,1/2+y,z
1/2-x,1/2-y,z
1/2+x,1/2-y,-z
1/2-x,1/2+y,-z
1/2-x,1/2-y,-z
1/2+x,1/2+y,-z
1/2-x,1/2+y,z
1/2+x,1/2-y,z
loop_
_atom_site_type_symbol
_atom_site_label
_atom_site_fract_x
_atom_site_fract_y
_atom_site_fract_z
Si Si1 0.710490 0.080786 0.157995
Si Si2 0.949129 0.813505 0.835556
Si Si3 0.389189 0.920745 0.834835
Si Si4 0.052060 0.318599 0.665016
Si Si5 0.791734 0.919052 0.659952
Si Si6 0.376452 0.577718 0.164985
O O1 0.660947 0.102913 0.204938
O O2 0.747120 0.110560 0.266469
O O3 0.712729 0.000000 0.154096
O O4 0.720993 0.108980 0.000000
O O5 0.932688 0.750699 0.740878
O O6 0.919847 0.878884 0.796137
O O7 0.000000 0.832908 0.800845
O O8 0.943294 0.792695 0.000000
O O9 0.423107 0.881752 0.734523
O O10 0.395550 0.000000 0.803495
O O11 0.399114 0.904746 0.000000
O O12 0.064791 0.313479 0.500000
O O13 0.000000 0.330950 0.688172
O O14 0.793970 0.890405 0.500000
O O15 0.834958 0.893764 0.745223
O O16 0.790158 0.000000 0.661293
O O17 0.387488 0.500000 0.205100
O O18 0.363401 0.584391 0.000000
#
# Coordination Sequence:
#
# PCOD8272690 Si02
#       6
#    16  16  16  16  16  16
#     4   8  14  26  44  66  93 123 154 189 230 276
#     4   9  18  33  52  71  92 123 162 199 236 283
#     4   9  18  32  51  75  99 124 157 197 239 281
#     4  10  21  35  50  69  95 128 162 195 235 284
#     4   9  16  25  40  65  96 128 159 189 225 274
#     4   9  17  29  47  72  99 125 155 195 241 282
#
# _framework density 17.283337
#
# number of rings (size 3 to 8) (size 9 to 14) (size 15 to 20)
#    0.000    3.000    0.000    2.000    0.000    5.333 
#    0.000    5.000    0.000    1.000    0.000   11.667 
#    0.000    0.000    0.000    0.000    0.000    0.000 
#
# Total GULP energy -595139.894971 kJ/mol
# GULP energy per Si atom -12398.747812 kJ/mol
# Density = 1.724400 g / cm^3
# Si number density = 17.283337 Si / 1000 Ang^3
#
#
#
# Elastic Constant Matrix: (Units=GPa)
#
#
# Indices 1 2 3 4 5 6 
#
# 1 100.2169 51.8677 68.4820 0.0000 0.0000 0.0000
# 2 51.8677 62.2931 49.9162 0.0000 0.0000 0.0000
# 3 68.4820 49.9162 108.4223 0.0000 0.0000 0.0000
# 4 0.0000 0.0000 0.0000 18.1317 0.0000 0.0000
# 5 0.0000 0.0000 0.0000 0.0000 25.5811 0.0000
# 6 0.0000 0.0000 0.0000 0.0000 0.0000 3.9633
#
#
#
# Elastic Compliance Matrix: (Units=1/GPa)
#
#
# Indices 1 2 3 4 5 6 
#
# 1 0.021534 -0.011141 -0.008472 0.000000 0.000000 0.000000
# 2 -0.011141 0.031201 -0.007328 0.000000 0.000000 0.000000
# 3 -0.008472 -0.007328 0.017948 0.000000 0.000000 0.000000
# 4 0.000000 0.000000 0.000000 0.055152 0.000000 0.000000
# 5 0.000000 0.000000 0.000000 0.000000 0.039091 0.000000
# 6 0.000000 0.000000 0.000000 0.000000 0.000000 0.252312
#
#
# Mechanical properties :
#
#
# Convention : Reuss Voigt Hill
#
# Bulk Modulus (GPa) = 59.51886 67.94045 63.72966
# Shear Modulus (GPa) = 10.48831 16.24632 13.36732
#
# Velocity S-wave (km/s) = 2.46610 3.06927 2.78406
# Velocity P-wave (km/s) = 6.52846 7.20803 6.87664
#
# Compressibility (1/GPa) = 0.01680140
#
# Stress axis : x y z
#
# Youngs Moduli (GPa) = 46.43884 32.04976 55.71688
#
# Poissons Ratio (x) = 0.35707 0.47203
# Poissons Ratio (y) = 0.51738 0.40828
# Poissons Ratio (z) = 0.39343 0.23485
#
# Static dielectric constant tensor:
#      x y z
#    x 3.343600 0.000000 0.000000 
#    y 0.000000 2.851080 0.000000 
#    z 0.000000 0.000000 3.362760 
# 
# 
# High freq. dielectric constant tensor:
#      x y z
#    x 1.674340 0.000000 0.000000 
#    y 0.000000 1.626090 0.000000 
#    z 0.000000 0.000000 1.669490 
# 
# From -- ./inp_files/16324.got.cif
#   From: 2010.03.12/outbox.cif.g09.slc.cpg/sg65_9_cif.got.tgz:16324.got - 2010.04.10 20:52:16.
