data_PCOD8272162
_publ_section_title
;
Structure prediction by ZEFSAII (Michael W. Deem and Ramdas Pophale) SiO2 
 PCOD8272162
Probable space group: C M M M
;
_chemical_formula_sum "Si O2"
_cell_formula_units_Z 80
_cell_length_a 19.184022
_cell_length_b 8.801400
_cell_length_c 24.951142
_cell_angle_alpha 90.000000
_cell_angle_beta 90.000000
_cell_angle_gamma 90.000000
_cell_volume 4212.906791
_symmetry_space_group_name_H-M "C M M M"
_symmetry_group_IT_number 65
_symmetry_cell_setting 'orthorhombic'
loop_
_space_group_symop_operation_xyz
x,y,z
-x,-y,z
x,-y,-z
-x,y,-z
-x,-y,-z
x,y,-z
-x,y,z
x,-y,z
1/2+x,1/2+y,z
1/2-x,1/2-y,z
1/2+x,1/2-y,-z
1/2-x,1/2+y,-z
1/2-x,1/2-y,-z
1/2+x,1/2+y,-z
1/2-x,1/2+y,z
1/2+x,1/2-y,z
loop_
_atom_site_type_symbol
_atom_site_label
_atom_site_fract_x
_atom_site_fract_y
_atom_site_fract_z
Si Si1 0.676709 0.178350 0.354773
Si Si2 0.321642 0.178233 0.061412
Si Si3 0.176137 0.820370 0.756869
Si Si4 0.079920 0.822027 0.144964
Si Si5 0.581348 0.673127 0.438818
O O1 0.750000 0.250000 0.372218
O O2 0.650235 0.251911 0.299367
O O3 0.621415 0.210336 0.401081
O O4 0.685841 0.000000 0.346592
O O5 0.250000 0.250000 0.083694
O O6 0.387372 0.236616 0.094521
O O7 0.314904 0.000000 0.068044
O O8 0.333811 0.227191 0.000000
O O9 0.250000 0.750000 0.774131
O O10 0.119173 0.774298 0.800820
O O11 0.184414 0.000000 0.751101
O O12 0.000000 0.771078 0.150702
O O13 0.086893 0.000000 0.134355
O O14 0.602582 0.706944 0.500000
O O15 0.500000 0.701088 0.430447
O O16 0.600860 0.500000 0.423818
#
# Coordination Sequence:
#
# PCOD8272162 Si02
#       5
#    16  16  16  16  16
#     4  11  22  36  56  82 111 143 181 225 272 320
#     4  10  21  37  58  83 110 143 183 225 270 321
#     4  10  20  36  57  79 106 141 182 226 271 322
#     4  10  22  38  56  81 112 146 182 221 269 322
#     4   9  19  37  59  81 108 144 182 220 268 325
#
# _framework density 18.989265
#
# number of rings (size 3 to 8) (size 9 to 14) (size 15 to 20)
#    0.000    2.000    0.000    5.400    0.000    7.200 
#    0.000    5.000    0.000    0.000    0.000    0.000 
#    0.000    0.000    0.000    0.000    0.000    0.000 
#
# Total GULP energy -496173.299071 kJ/mol
# GULP energy per Si atom -12404.332477 kJ/mol
# Density = 1.894604 g / cm^3
# Si number density = 18.989265 Si / 1000 Ang^3
#
#
#
# Elastic Constant Matrix: (Units=GPa)
#
#
# Indices 1 2 3 4 5 6 
#
# 1 120.0205 49.2540 80.2645 0.0000 0.0000 0.0000
# 2 49.2540 89.5278 53.6505 0.0000 0.0000 0.0000
# 3 80.2645 53.6505 116.3734 0.0000 0.0000 0.0000
# 4 0.0000 0.0000 0.0000 32.9252 0.0000 0.0000
# 5 0.0000 0.0000 0.0000 0.0000 21.4250 0.0000
# 6 0.0000 0.0000 0.0000 0.0000 0.0000 33.1314
#
#
#
# Elastic Compliance Matrix: (Units=1/GPa)
#
#
# Indices 1 2 3 4 5 6 
#
# 1 0.016040 -0.003033 -0.009665 0.000000 0.000000 0.000000
# 2 -0.003033 0.016007 -0.005288 0.000000 0.000000 0.000000
# 3 -0.009665 -0.005288 0.017697 0.000000 0.000000 0.000000
# 4 0.000000 0.000000 0.000000 0.030372 0.000000 0.000000
# 5 0.000000 0.000000 0.000000 0.000000 0.046674 0.000000
# 6 0.000000 0.000000 0.000000 0.000000 0.000000 0.030183
#
#
# Mechanical properties :
#
#
# Convention : Reuss Voigt Hill
#
# Bulk Modulus (GPa) = 72.60604 76.91775 74.76189
# Shear Modulus (GPa) = 25.31204 27.01317 26.16260
#
# Velocity S-wave (km/s) = 3.65494 3.77576 3.71584
# Velocity P-wave (km/s) = 7.49198 7.72026 7.60697
#
# Compressibility (1/GPa) = 0.01377296
#
# Stress axis : x y z
#
# Youngs Moduli (GPa) = 62.34467 62.47288 56.50727
#
# Poissons Ratio (x) = 0.18946 0.54613
# Poissons Ratio (y) = 0.18907 0.29880
# Poissons Ratio (z) = 0.60255 0.33035
#
# Static dielectric constant tensor:
#      x y z
#    x 3.426690 0.000000 0.000000 
#    y 0.000000 3.467570 0.000000 
#    z 0.000000 0.000000 3.530130 
# 
# 
# High freq. dielectric constant tensor:
#      x y z
#    x 1.734640 0.000000 0.000000 
#    y 0.000000 1.742830 0.000000 
#    z 0.000000 0.000000 1.746540 
# 
# From -- ./inp_files/72833.got.cif
#   From: 2010.03.12/outbox.cif.g09.slc.cpg/sg65_37_cif.got.tgz:72833.got - 2010.04.10 20:52:16.
