data_PCOD8272421
_publ_section_title
;
Structure prediction by ZEFSAII (Michael W. Deem and Ramdas Pophale) SiO2 
 PCOD8272421
Probable space group: C M M M
;
_chemical_formula_sum "Si O2"
_cell_formula_units_Z 64
_cell_length_a 8.595374
_cell_length_b 15.203580
_cell_length_c 24.252833
_cell_angle_alpha 90.000000
_cell_angle_beta 90.000000
_cell_angle_gamma 90.000000
_cell_volume 3169.371282
_symmetry_space_group_name_H-M "C M M M"
_symmetry_group_IT_number 65
_symmetry_cell_setting 'orthorhombic'
loop_
_space_group_symop_operation_xyz
x,y,z
-x,-y,z
x,-y,-z
-x,y,-z
-x,-y,-z
x,y,-z
-x,y,z
x,-y,z
1/2+x,1/2+y,z
1/2-x,1/2-y,z
1/2+x,1/2-y,-z
1/2-x,1/2+y,-z
1/2-x,1/2-y,-z
1/2+x,1/2+y,-z
1/2-x,1/2+y,z
1/2+x,1/2-y,z
loop_
_atom_site_type_symbol
_atom_site_label
_atom_site_fract_x
_atom_site_fract_y
_atom_site_fract_z
Si Si1 0.319046 0.500000 0.868022
Si Si2 0.184156 0.152511 0.322383
Si Si3 0.816668 0.153710 0.441902
Si Si4 0.181376 0.500000 0.749201
Si Si5 0.679972 0.843686 0.935484
O O1 0.500000 0.500000 0.852269
O O2 0.215779 0.500000 0.813564
O O3 0.279959 0.414637 0.903342
O O4 0.250000 0.250000 0.312925
O O5 0.235040 0.112435 0.383030
O O6 0.000000 0.157364 0.316871
O O7 0.247896 0.088142 0.276279
O O8 0.765256 0.104763 0.500000
O O9 0.750000 0.250000 0.443819
O O10 0.000000 0.160634 0.441202
O O11 0.000000 0.500000 0.738157
O O12 0.500000 0.848469 0.917716
O O13 0.750000 0.750000 0.919214
O O14 0.699073 0.862488 0.000000
#
# Coordination Sequence:
#
# PCOD8272421 Si02
#       5
#     8  16  16   8  16
#     4  12  25  41  62  88 119 156 199 245 293 342
#     4  10  20  37  60  85 114 149 190 237 291 348
#     4   8  14  26  48  78 109 141 178 223 279 343
#     4  12  26  43  60  81 112 152 201 248 291 342
#     4  10  21  39  64  95 129 162 196 235 282 337
#
# _framework density 20.193280000000001
#
# number of rings (size 3 to 8) (size 9 to 14) (size 15 to 20)
#    0.000    2.000    0.000    4.125    0.000    5.000 
#    0.000    5.625    0.000    3.750    0.000    0.000 
#    0.000    0.000    0.000    0.000    0.000    0.000 
#
# Total GULP energy -396467.025573 kJ/mol
# GULP energy per Si atom -12389.594549 kJ/mol
# Density = 2.014732 g / cm^3
# Si number density = 20.193280 Si / 1000 Ang^3
#
#
#
# Elastic Constant Matrix: (Units=GPa)
#
#
# Indices 1 2 3 4 5 6 
#
# 1 75.5916 32.7452 22.2305 0.0000 0.0000 0.0000
# 2 32.7452 109.1090 57.8961 0.0000 0.0000 0.0000
# 3 22.2305 57.8961 91.6129 0.0000 0.0000 0.0000
# 4 0.0000 0.0000 0.0000 64.8200 0.0000 0.0000
# 5 0.0000 0.0000 0.0000 0.0000 27.2340 0.0000
# 6 0.0000 0.0000 0.0000 0.0000 0.0000 25.5963
#
#
#
# Elastic Compliance Matrix: (Units=1/GPa)
#
#
# Indices 1 2 3 4 5 6 
#
# 1 0.015296 -0.003943 -0.001220 0.000000 0.000000 0.000000
# 2 -0.003943 0.014806 -0.008400 0.000000 0.000000 0.000000
# 3 -0.001220 -0.008400 0.016520 0.000000 0.000000 0.000000
# 4 0.000000 0.000000 0.000000 0.015427 0.000000 0.000000
# 5 0.000000 0.000000 0.000000 0.000000 0.036719 0.000000
# 6 0.000000 0.000000 0.000000 0.000000 0.000000 0.039068
#
#
# Mechanical properties :
#
#
# Convention : Reuss Voigt Hill
#
# Bulk Modulus (GPa) = 51.29283 55.78411 53.53847
# Shear Modulus (GPa) = 29.16133 34.42618 31.79375
#
# Velocity S-wave (km/s) = 3.80427 4.13344 3.97227
# Velocity P-wave (km/s) = 6.68975 7.10391 6.89994
#
# Compressibility (1/GPa) = 0.01949590
#
# Stress axis : x y z
#
# Youngs Moduli (GPa) = 65.37713 67.54113 60.53329
#
# Poissons Ratio (x) = 0.26634 0.07382
# Poissons Ratio (y) = 0.25781 0.50847
# Poissons Ratio (z) = 0.07973 0.56734
#
# Static dielectric constant tensor:
#      x y z
#    x 3.792010 0.000000 0.000000 
#    y 0.000000 3.622740 0.000000 
#    z 0.000000 0.000000 4.197710 
# 
# 
# High freq. dielectric constant tensor:
#      x y z
#    x 1.795180 0.000000 0.000000 
#    y 0.000000 1.772810 0.000000 
#    z 0.000000 0.000000 1.806390 
# 
# From -- ./inp_files/66810.got.cif
#   From: 2010.03.12/outbox.cif.g09.slc.cpg/sg65_34_cif.got.tgz:66810.got - 2010.04.10 20:52:16.
