data_PCOD8272658
_publ_section_title
;
Structure prediction by ZEFSAII (Michael W. Deem and Ramdas Pophale) SiO2 
 PCOD8272658
Probable space group: C M M M
;
_chemical_formula_sum "Si O2"
_cell_formula_units_Z 80
_cell_length_a 27.549440
_cell_length_b 18.277276
_cell_length_c 9.119011
_cell_angle_alpha 90.000000
_cell_angle_beta 90.000000
_cell_angle_gamma 90.000000
_cell_volume 4591.683923
_symmetry_space_group_name_H-M "C M M M"
_symmetry_group_IT_number 65
_symmetry_cell_setting 'orthorhombic'
loop_
_space_group_symop_operation_xyz
x,y,z
-x,-y,z
x,-y,-z
-x,y,-z
-x,-y,-z
x,y,-z
-x,y,z
x,-y,z
1/2+x,1/2+y,z
1/2-x,1/2-y,z
1/2+x,1/2-y,-z
1/2-x,1/2+y,-z
1/2-x,1/2-y,-z
1/2+x,1/2+y,-z
1/2-x,1/2+y,z
1/2+x,1/2-y,z
loop_
_atom_site_type_symbol
_atom_site_label
_atom_site_fract_x
_atom_site_fract_y
_atom_site_fract_z
Si Si1 0.909168 0.417892 0.829827
Si Si2 0.192113 0.354233 0.170336
Si Si3 0.055194 0.279649 0.669012
Si Si4 0.708915 0.581688 0.825503
Si Si5 0.858983 0.209941 0.173736
O O1 0.925191 0.500000 0.787609
O O2 0.851759 0.410096 0.798173
O O3 0.939702 0.360937 0.734976
O O4 0.919756 0.401317 0.000000
O O5 0.241373 0.385098 0.243752
O O6 0.177483 0.273852 0.229737
O O7 0.202985 0.346364 0.000000
O O8 0.070403 0.283116 0.500000
O O9 0.088900 0.220402 0.750492
O O10 0.000000 0.253277 0.688799
O O11 0.700417 0.500000 0.763034
O O12 0.663534 0.632245 0.778677
O O13 0.713225 0.579142 0.000000
O O14 0.866867 0.215986 0.000000
#
# Coordination Sequence:
#
# PCOD8272658 Si02
#       5
#    16  16  16  16  16
#     4   9  17  29  47  72  99 125 153 184 218 259
#     4   8  13  23  41  67  98 127 152 177 209 256
#     4  10  21  35  49  64  84 116 157 196 235 277
#     4   9  15  23  41  71 101 123 146 182 226 269
#     4   9  17  29  47  70  93 119 153 190 226 266
#
# _framework density 17.422802999999998
#
# number of rings (size 3 to 8) (size 9 to 14) (size 15 to 20)
#    0.000    3.000    0.000    3.000    0.000    7.200 
#    0.000    2.000    0.000   10.800    0.000    4.200 
#    0.000    0.000    0.000    0.000    0.000    0.000 
#
# Total GULP energy -495807.269155 kJ/mol
# GULP energy per Si atom -12395.181729 kJ/mol
# Density = 1.738315 g / cm^3
# Si number density = 17.422803 Si / 1000 Ang^3
#
#
#
# Elastic Constant Matrix: (Units=GPa)
#
#
# Indices 1 2 3 4 5 6 
#
# 1 105.7804 59.9760 37.7426 0.0000 0.0000 0.0000
# 2 59.9760 114.2146 26.7071 0.0000 0.0000 0.0000
# 3 37.7426 26.7071 44.8307 0.0000 0.0000 0.0000
# 4 0.0000 0.0000 0.0000 8.7566 0.0000 0.0000
# 5 0.0000 0.0000 0.0000 0.0000 3.5992 0.0000
# 6 0.0000 0.0000 0.0000 0.0000 0.0000 15.1685
#
#
#
# Elastic Compliance Matrix: (Units=1/GPa)
#
#
# Indices 1 2 3 4 5 6 
#
# 1 0.016749 -0.006388 -0.010295 0.000000 0.000000 0.000000
# 2 -0.006388 0.012609 -0.002134 0.000000 0.000000 0.000000
# 3 -0.010295 -0.002134 0.032245 0.000000 0.000000 0.000000
# 4 0.000000 0.000000 0.000000 0.114199 0.000000 0.000000
# 5 0.000000 0.000000 0.000000 0.000000 0.277837 0.000000
# 6 0.000000 0.000000 0.000000 0.000000 0.000000 0.065926
#
#
# Mechanical properties :
#
#
# Convention : Reuss Voigt Hill
#
# Bulk Modulus (GPa) = 41.72068 57.07523 49.39795
# Shear Modulus (GPa) = 8.84663 14.86488 11.85576
#
# Velocity S-wave (km/s) = 2.25580 2.92410 2.61142
# Velocity P-wave (km/s) = 5.54823 6.65060 6.12427
#
# Compressibility (1/GPa) = 0.02396893
#
# Stress axis : x y z
#
# Youngs Moduli (GPa) = 59.70669 79.31086 31.01286
#
# Poissons Ratio (x) = 0.50661 0.31928
# Poissons Ratio (y) = 0.38138 0.06617
# Poissons Ratio (z) = 0.61469 0.16923
#
# Static dielectric constant tensor:
#      x y z
#    x 3.222120 0.000000 0.000000 
#    y 0.000000 3.425940 0.000000 
#    z 0.000000 0.000000 2.813470 
# 
# 
# High freq. dielectric constant tensor:
#      x y z
#    x 1.669180 0.000000 0.000000 
#    y 0.000000 1.664880 0.000000 
#    z 0.000000 0.000000 1.623900 
# 
# From -- ./inp_files/9604.got.cif
#   From: 2010.03.12/outbox.cif.g09.slc.cpg/sg65_5_cif.got.tgz:9604.got - 2010.04.10 20:52:16.
