data_PCOD8272963
_publ_section_title
;
Structure prediction by ZEFSAII (Michael W. Deem and Ramdas Pophale) SiO2 
 PCOD8272963
Probable space group: C M M M
;
_chemical_formula_sum "Si O2"
_cell_formula_units_Z 96
_cell_length_a 9.071152
_cell_length_b 18.715908
_cell_length_c 30.318337
_cell_angle_alpha 90.000000
_cell_angle_beta 90.000000
_cell_angle_gamma 90.000000
_cell_volume 5147.291004
_symmetry_space_group_name_H-M "C M M M"
_symmetry_group_IT_number 65
_symmetry_cell_setting 'orthorhombic'
loop_
_space_group_symop_operation_xyz
x,y,z
-x,-y,z
x,-y,-z
-x,y,-z
-x,-y,-z
x,y,-z
-x,y,z
x,-y,z
1/2+x,1/2+y,z
1/2-x,1/2-y,z
1/2+x,1/2-y,-z
1/2-x,1/2+y,-z
1/2-x,1/2-y,-z
1/2+x,1/2+y,-z
1/2-x,1/2+y,z
1/2+x,1/2-y,z
loop_
_atom_site_type_symbol
_atom_site_label
_atom_site_fract_x
_atom_site_fract_y
_atom_site_fract_z
Si Si1 0.825131 0.579360 0.215323
Si Si2 0.824636 0.673471 0.703777
Si Si3 0.665278 0.915658 0.117569
Si Si4 0.171159 0.821114 0.450561
Si Si5 0.172462 0.177890 0.050227
Si Si6 0.328849 0.582986 0.629945
O O1 0.760007 0.500000 0.225570
O O2 0.768329 0.636207 0.251108
O O3 0.776845 0.605458 0.166518
O O4 0.000000 0.573797 0.216660
O O5 0.750000 0.750000 0.699592
O O6 0.775170 0.623502 0.663940
O O7 0.000000 0.682491 0.702630
O O8 0.500000 0.885619 0.109715
O O9 0.775692 0.885962 0.081189
O O10 0.664246 0.000000 0.112994
O O11 0.225939 0.840708 0.500000
O O12 0.250000 0.750000 0.432596
O O13 0.206878 0.887477 0.418834
O O14 0.000000 0.803198 0.450527
O O15 0.250000 0.250000 0.066301
O O16 0.000000 0.188637 0.055198
O O17 0.217160 0.159428 0.000000
O O18 0.500000 0.595629 0.642231
O O19 0.287492 0.500000 0.630502
#
# Coordination Sequence:
#
# PCOD8272963 Si02
#       6
#    16  16  16  16  16  16
#     4   8  16  33  55  77 102 134 171 210 254 305
#     4  11  22  36  55  78 106 139 175 214 258 309
#     4   9  18  34  56  80 106 136 170 209 254 306
#     4   9  18  33  53  76 103 137 174 212 257 307
#     4  10  21  36  53  74 103 138 175 216 260 306
#     4  10  21  36  54  78 107 137 173 218 263 308
#
# _framework density 18.650587000000002
#
# number of rings (size 3 to 8) (size 9 to 14) (size 15 to 20)
#    0.000    2.500    0.000    3.000    0.000    5.667 
#    0.000    6.667    0.000    2.000    0.000    3.500 
#    0.000    0.000    0.000    0.000    0.000    0.000 
#
# Total GULP energy -595190.676135 kJ/mol
# GULP energy per Si atom -12399.805753 kJ/mol
# Density = 1.860814 g / cm^3
# Si number density = 18.650587 Si / 1000 Ang^3
#
#
#
# Elastic Constant Matrix: (Units=GPa)
#
#
# Indices 1 2 3 4 5 6 
#
# 1 57.6799 41.2144 43.6631 0.0000 0.0000 0.0000
# 2 41.2144 112.7820 69.3873 0.0000 0.0000 0.0000
# 3 43.6631 69.3873 119.4205 0.0000 0.0000 0.0000
# 4 0.0000 0.0000 0.0000 35.4532 0.0000 0.0000
# 5 0.0000 0.0000 0.0000 0.0000 18.8819 0.0000
# 6 0.0000 0.0000 0.0000 0.0000 0.0000 24.6625
#
#
#
# Elastic Compliance Matrix: (Units=1/GPa)
#
#
# Indices 1 2 3 4 5 6 
#
# 1 0.026143 -0.005716 -0.006237 0.000000 0.000000 0.000000
# 2 -0.005716 0.015049 -0.006654 0.000000 0.000000 0.000000
# 3 -0.006237 -0.006654 0.014521 0.000000 0.000000 0.000000
# 4 0.000000 0.000000 0.000000 0.028206 0.000000 0.000000
# 5 0.000000 0.000000 0.000000 0.000000 0.052961 0.000000
# 6 0.000000 0.000000 0.000000 0.000000 0.000000 0.040547
#
#
# Mechanical properties :
#
#
# Convention : Reuss Voigt Hill
#
# Bulk Modulus (GPa) = 54.06073 66.49023 60.27548
# Shear Modulus (GPa) = 22.64401 24.84068 23.74235
#
# Velocity S-wave (km/s) = 3.48820 3.65348 3.57179
# Velocity P-wave (km/s) = 6.72848 7.31608 7.02842
#
# Compressibility (1/GPa) = 0.01849771
#
# Stress axis : x y z
#
# Youngs Moduli (GPa) = 38.25111 66.44745 68.86749
#
# Poissons Ratio (x) = 0.37983 0.42954
# Poissons Ratio (y) = 0.21865 0.45826
# Poissons Ratio (z) = 0.23858 0.44216
#
# Static dielectric constant tensor:
#      x y z
#    x 3.312280 0.000000 0.000000 
#    y 0.000000 3.437590 0.000000 
#    z 0.000000 0.000000 3.748550 
# 
# 
# High freq. dielectric constant tensor:
#      x y z
#    x 1.707190 0.000000 0.000000 
#    y 0.000000 1.722040 0.000000 
#    z 0.000000 0.000000 1.735620 
# 
# From -- ./inp_files/73097.got.cif
#   From: 2010.03.12/outbox.cif.g09.slc.cpg/sg65_37_cif.got.tgz:73097.got - 2010.04.10 20:52:16.
