data_PCOD8272304
_publ_section_title
;
Structure prediction by ZEFSAII (Michael W. Deem and Ramdas Pophale) SiO2 
 PCOD8272304
Probable space group: C M M M
;
_chemical_formula_sum "Si O2"
_cell_formula_units_Z 56
_cell_length_a 18.683777
_cell_length_b 7.905202
_cell_length_c 19.274439
_cell_angle_alpha 90.000000
_cell_angle_beta 90.000000
_cell_angle_gamma 90.000000
_cell_volume 2846.815969
_symmetry_space_group_name_H-M "C M M M"
_symmetry_group_IT_number 65
_symmetry_cell_setting 'orthorhombic'
loop_
_space_group_symop_operation_xyz
x,y,z
-x,-y,z
x,-y,-z
-x,y,-z
-x,-y,-z
x,y,-z
-x,y,z
x,-y,z
1/2+x,1/2+y,z
1/2-x,1/2-y,z
1/2+x,1/2-y,-z
1/2-x,1/2+y,-z
1/2-x,1/2-y,-z
1/2+x,1/2+y,-z
1/2-x,1/2+y,z
1/2+x,1/2-y,z
loop_
_atom_site_type_symbol
_atom_site_label
_atom_site_fract_x
_atom_site_fract_y
_atom_site_fract_z
Si Si1 0.169303 0.309003 0.295379
Si Si2 0.082620 0.810978 0.169842
Si Si3 0.584979 0.000000 0.922543
Si Si4 0.581730 0.301988 0.421306
O O1 0.166099 0.500000 0.268204
O O2 0.250000 0.250000 0.301492
O O3 0.126692 0.194096 0.240961
O O4 0.133745 0.299527 0.370888
O O5 0.111826 0.670479 0.115971
O O6 0.000000 0.773908 0.187943
O O7 0.091570 0.000000 0.137832
O O8 0.500000 0.000000 0.926549
O O9 0.617743 0.000000 0.000000
O O10 0.601019 0.251183 0.500000
O O11 0.500000 0.252125 0.404904
O O12 0.593427 0.500000 0.409699
#
# Coordination Sequence:
#
# PCOD8272304 Si02
#       4
#    16  16   8  16
#     4  12  24  37  55  81 112 151 195 241 288 340
#     4  10  20  36  59  87 118 152 190 236 287 340
#     4   9  18  34  58  90 121 149 188 233 281 339
#     4   9  19  37  59  82 111 147 188 236 289 345
#
# _framework density 19.671099000000002
#
# number of rings (size 3 to 8) (size 9 to 14) (size 15 to 20)
#    0.000    1.857    1.429    4.286    0.000    5.714 
#    0.000    4.286    0.000    0.857    0.000    0.000 
#    0.000    0.000    0.000    0.000    0.000    0.000 
#
# Total GULP energy -347251.068738 kJ/mol
# GULP energy per Si atom -12401.823883 kJ/mol
# Density = 1.962633 g / cm^3
# Si number density = 19.671099 Si / 1000 Ang^3
#
#
#
# Elastic Constant Matrix: (Units=GPa)
#
#
# Indices 1 2 3 4 5 6 
#
# 1 85.9170 34.1388 52.9048 0.0000 0.0000 0.0000
# 2 34.1388 123.8217 49.2471 0.0000 0.0000 0.0000
# 3 52.9048 49.2471 127.3427 0.0000 0.0000 0.0000
# 4 0.0000 0.0000 0.0000 27.8875 0.0000 0.0000
# 5 0.0000 0.0000 0.0000 0.0000 4.5237 0.0000
# 6 0.0000 0.0000 0.0000 0.0000 0.0000 15.1939
#
#
#
# Elastic Compliance Matrix: (Units=1/GPa)
#
#
# Indices 1 2 3 4 5 6 
#
# 1 0.016090 -0.002101 -0.005872 0.000000 0.000000 0.000000
# 2 -0.002101 0.009818 -0.002924 0.000000 0.000000 0.000000
# 3 -0.005872 -0.002924 0.011423 0.000000 0.000000 0.000000
# 4 0.000000 0.000000 0.000000 0.035858 0.000000 0.000000
# 5 0.000000 0.000000 0.000000 0.000000 0.221059 0.000000
# 6 0.000000 0.000000 0.000000 0.000000 0.000000 0.065816
#
#
# Mechanical properties :
#
#
# Convention : Reuss Voigt Hill
#
# Bulk Modulus (GPa) = 64.36144 67.74030 66.05087
# Shear Modulus (GPa) = 12.91864 22.90707 17.91285
#
# Velocity S-wave (km/s) = 2.56546 3.41618 3.02092
# Velocity P-wave (km/s) = 6.44711 7.07613 6.76893
#
# Compressibility (1/GPa) = 0.01553725
#
# Stress axis : x y z
#
# Youngs Moduli (GPa) = 62.15174 101.84990 87.54006
#
# Poissons Ratio (x) = 0.21394 0.51405
# Poissons Ratio (y) = 0.13055 0.25600
# Poissons Ratio (z) = 0.36496 0.29785
#
# Static dielectric constant tensor:
#      x y z
#    x 3.343600 0.000000 0.000000 
#    y 0.000000 3.680440 0.000000 
#    z 0.000000 0.000000 3.585950 
# 
# 
# High freq. dielectric constant tensor:
#      x y z
#    x 1.741980 0.000000 0.000000 
#    y 0.000000 1.778230 0.000000 
#    z 0.000000 0.000000 1.759570 
# 
# From -- ./inp_files/48744.got.cif
#   From: 2010.03.12/outbox.cif.g09.slc.cpg/sg65_25_cif.got.tgz:48744.got - 2010.04.10 20:52:16.
