data_PCOD8272716
_publ_section_title
;
Structure prediction by ZEFSAII (Michael W. Deem and Ramdas Pophale) SiO2 
 PCOD8272716
Probable space group: C M M M
;
_chemical_formula_sum "Si O2"
_cell_formula_units_Z 120
_cell_length_a 27.003823
_cell_length_b 27.669147
_cell_length_c 8.964179
_cell_angle_alpha 90.000000
_cell_angle_beta 90.000000
_cell_angle_gamma 90.000000
_cell_volume 6697.790258
_symmetry_space_group_name_H-M "C M M M"
_symmetry_group_IT_number 65
_symmetry_cell_setting 'orthorhombic'
loop_
_space_group_symop_operation_xyz
x,y,z
-x,-y,z
x,-y,-z
-x,y,-z
-x,-y,-z
x,y,-z
-x,y,z
x,-y,z
1/2+x,1/2+y,z
1/2-x,1/2-y,z
1/2+x,1/2-y,-z
1/2-x,1/2+y,-z
1/2-x,1/2-y,-z
1/2+x,1/2+y,-z
1/2-x,1/2+y,z
1/2+x,1/2-y,z
loop_
_atom_site_type_symbol
_atom_site_label
_atom_site_fract_x
_atom_site_fract_y
_atom_site_fract_z
Si Si1 0.944793 0.803764 0.827200
Si Si2 0.100215 0.714301 0.674717
Si Si3 0.904233 0.612258 0.822687
Si Si4 0.000000 0.554245 0.177109
Si Si5 0.848956 0.856818 0.173373
Si Si6 0.713417 0.554406 0.826496
Si Si7 0.198473 0.769179 0.325767
Si Si8 0.315655 0.055890 0.674539
O O1 0.936842 0.756052 0.728943
O O2 0.905972 0.845925 0.779936
O O3 0.000000 0.823771 0.797098
O O4 0.937544 0.789499 0.000000
O O5 0.092124 0.705335 0.500000
O O6 0.088126 0.666149 0.764250
O O7 0.156233 0.730173 0.711827
O O8 0.854614 0.589263 0.758147
O O9 0.951051 0.581392 0.765127
O O10 0.900760 0.612827 0.000000
O O11 0.000000 0.500000 0.243031
O O12 0.000000 0.552854 0.000000
O O13 0.832924 0.911245 0.216761
O O14 0.811960 0.820567 0.253636
O O15 0.841933 0.847839 0.000000
O O16 0.696771 0.500000 0.786894
O O17 0.761189 0.569761 0.731702
O O18 0.727531 0.559234 0.000000
O O19 0.202677 0.778438 0.500000
O O20 0.250000 0.750000 0.259125
O O21 0.318433 0.066993 0.500000
O O22 0.327356 0.000000 0.710667
#
# Coordination Sequence:
#
# PCOD8272716 Si02
#       8
#    16  16  16   8  16  16  16  16
#     4   9  18  34  55  75 101 136 174 215 258 310
#     4  10  21  35  50  75 106 134 169 211 258 308
#     4  11  22  36  56  78 101 131 170 216 264 313
#     4   9  20  38  57  75  95 127 171 215 258 305
#     4   9  18  32  51  77 102 132 174 215 255 303
#     4   9  18  33  53  78 108 140 173 210 255 306
#     4   9  19  34  50  70 100 137 168 202 252 308
#     4  10  21  36  53  75 103 135 172 213 257 306
#
# _framework density 17.916357000000001
#
# number of rings (size 3 to 8) (size 9 to 14) (size 15 to 20)
#    0.000    2.467    0.000    1.600    2.800    2.933 
#    0.000    1.000    0.000    2.800    0.000    2.800 
#    0.000    0.000    0.000   10.000    0.000   10.400 
#
# Total GULP energy -744023.370611 kJ/mol
# GULP energy per Si atom -12400.389510 kJ/mol
# Density = 1.787558 g / cm^3
# Si number density = 17.916357 Si / 1000 Ang^3
#
#
#
# Elastic Constant Matrix: (Units=GPa)
#
#
# Indices 1 2 3 4 5 6 
#
# 1 132.5029 76.8385 34.0414 0.0000 0.0000 0.0000
# 2 76.8385 123.4336 37.6673 0.0000 0.0000 0.0000
# 3 34.0414 37.6673 50.7373 0.0000 0.0000 0.0000
# 4 0.0000 0.0000 0.0000 20.9643 0.0000 0.0000
# 5 0.0000 0.0000 0.0000 0.0000 17.8871 0.0000
# 6 0.0000 0.0000 0.0000 0.0000 0.0000 23.0243
#
#
#
# Elastic Compliance Matrix: (Units=1/GPa)
#
#
# Indices 1 2 3 4 5 6 
#
# 1 0.012223 -0.006602 -0.003300 0.000000 0.000000 0.000000
# 2 -0.006602 0.014041 -0.005994 0.000000 0.000000 0.000000
# 3 -0.003300 -0.005994 0.026373 0.000000 0.000000 0.000000
# 4 0.000000 0.000000 0.000000 0.047700 0.000000 0.000000
# 5 0.000000 0.000000 0.000000 0.000000 0.055906 0.000000
# 6 0.000000 0.000000 0.000000 0.000000 0.000000 0.043432
#
#
# Mechanical properties :
#
#
# Convention : Reuss Voigt Hill
#
# Bulk Modulus (GPa) = 47.97229 67.08536 57.52882
# Shear Modulus (GPa) = 20.97173 22.91691 21.94432
#
# Velocity S-wave (km/s) = 3.42502 3.58034 3.50354
# Velocity P-wave (km/s) = 6.51727 7.39031 6.96748
#
# Compressibility (1/GPa) = 0.02084537
#
# Stress axis : x y z
#
# Youngs Moduli (GPa) = 81.81082 71.22185 37.91730
#
# Poissons Ratio (x) = 0.47022 0.12511
# Poissons Ratio (y) = 0.54013 0.22728
# Poissons Ratio (z) = 0.26994 0.42691
#
# Static dielectric constant tensor:
#      x y z
#    x 3.482850 0.000000 0.000000 
#    y 0.000000 3.379900 0.000000 
#    z 0.000000 0.000000 3.290450 
# 
# 
# High freq. dielectric constant tensor:
#      x y z
#    x 1.693910 0.000000 0.000000 
#    y 0.000000 1.687810 0.000000 
#    z 0.000000 0.000000 1.689940 
# 
# From -- ./inp_files/17107.got.cif
#   From: 2010.03.12/outbox.cif.g09.slc.cpg/sg65_9_cif.got.tgz:17107.got - 2010.04.10 20:52:16.
