data_PCOD8272393
_publ_section_title
;
Structure prediction by ZEFSAII (Michael W. Deem and Ramdas Pophale) SiO2 
 PCOD8272393
Probable space group: C M M M
;
_chemical_formula_sum "Si O2"
_cell_formula_units_Z 72
_cell_length_a 15.500009
_cell_length_b 8.815026
_cell_length_c 27.844487
_cell_angle_alpha 90.000000
_cell_angle_beta 90.000000
_cell_angle_gamma 90.000000
_cell_volume 3804.475300
_symmetry_space_group_name_H-M "C M M M"
_symmetry_group_IT_number 65
_symmetry_cell_setting 'orthorhombic'
loop_
_space_group_symop_operation_xyz
x,y,z
-x,-y,z
x,-y,-z
-x,y,-z
-x,-y,-z
x,y,-z
-x,y,z
x,-y,z
1/2+x,1/2+y,z
1/2-x,1/2-y,z
1/2+x,1/2-y,-z
1/2-x,1/2+y,-z
1/2-x,1/2-y,-z
1/2+x,1/2+y,-z
1/2-x,1/2+y,z
1/2+x,1/2-y,z
loop_
_atom_site_type_symbol
_atom_site_label
_atom_site_fract_x
_atom_site_fract_y
_atom_site_fract_z
Si Si1 0.337914 0.178563 0.054297
Si Si2 0.000000 0.320457 0.117518
Si Si3 0.159732 0.320699 0.275526
Si Si4 0.000000 0.179527 0.220753
Si Si5 0.161400 0.678040 0.614006
Si Si6 0.500000 0.180945 0.554279
O O1 0.250000 0.250000 0.074951
O O2 0.416603 0.230087 0.087457
O O3 0.327602 0.000000 0.055125
O O4 0.355376 0.236227 0.000000
O O5 0.000000 0.500000 0.128573
O O6 0.000000 0.223795 0.165456
O O7 0.161559 0.500000 0.267165
O O8 0.250000 0.250000 0.258124
O O9 0.142617 0.278243 0.330944
O O10 0.084554 0.248304 0.244693
O O11 0.000000 0.000000 0.227067
O O12 0.169852 0.500000 0.607777
O O13 0.250000 0.750000 0.595411
O O14 0.084239 0.743894 0.581549
O O15 0.500000 0.242780 0.500000
O O16 0.500000 0.000000 0.555600
#
# Coordination Sequence:
#
# PCOD8272393 Si02
#       6
#    16   8  16   8  16   8
#     4   9  18  34  57  82 106 136 176 219 262 310
#     4  10  21  37  55  76 108 147 180 214 263 319
#     4  10  20  37  59  81 106 138 180 227 274 322
#     4  12  25  38  54  80 112 145 182 222 270 326
#     4   9  18  33  54  78 102 133 174 218 262 311
#     4   9  17  30  49  74 106 143 176 206 251 313
#
# _framework density 18.925079
#
# number of rings (size 3 to 8) (size 9 to 14) (size 15 to 20)
#    0.000    2.333    0.000    2.667    0.000    6.222 
#    0.000    2.778    0.000    4.000    0.000    0.000 
#    0.000    0.000    0.000    0.000    0.000    0.000 
#
# Total GULP energy -446479.504243 kJ/mol
# GULP energy per Si atom -12402.208451 kJ/mol
# Density = 1.888200 g / cm^3
# Si number density = 18.925079 Si / 1000 Ang^3
#
#
#
# Elastic Constant Matrix: (Units=GPa)
#
#
# Indices 1 2 3 4 5 6 
#
# 1 206.1414 53.0028 102.3139 0.0000 0.0000 0.0000
# 2 53.0028 54.1160 40.6686 0.0000 0.0000 0.0000
# 3 102.3139 40.6686 115.0788 0.0000 0.0000 0.0000
# 4 0.0000 0.0000 0.0000 20.3388 0.0000 0.0000
# 5 0.0000 0.0000 0.0000 0.0000 8.3978 0.0000
# 6 0.0000 0.0000 0.0000 0.0000 0.0000 35.7172
#
#
#
# Elastic Compliance Matrix: (Units=1/GPa)
#
#
# Indices 1 2 3 4 5 6 
#
# 1 0.009256 -0.003923 -0.006843 0.000000 0.000000 0.000000
# 2 -0.003923 0.026824 -0.005991 0.000000 0.000000 0.000000
# 3 -0.006843 -0.005991 0.016891 0.000000 0.000000 0.000000
# 4 0.000000 0.000000 0.000000 0.049167 0.000000 0.000000
# 5 0.000000 0.000000 0.000000 0.000000 0.119078 0.000000
# 6 0.000000 0.000000 0.000000 0.000000 0.000000 0.027998
#
#
# Mechanical properties :
#
#
# Convention : Reuss Voigt Hill
#
# Bulk Modulus (GPa) = 51.39861 85.25632 68.32746
# Shear Modulus (GPa) = 17.28818 24.84749 21.06783
#
# Velocity S-wave (km/s) = 3.02571 3.62738 3.34012
# Velocity P-wave (km/s) = 6.27889 7.91777 7.14547
#
# Compressibility (1/GPa) = 0.01945578
#
# Stress axis : x y z
#
# Youngs Moduli (GPa) = 108.03664 37.28009 59.20316
#
# Poissons Ratio (x) = 0.14626 0.40512
# Poissons Ratio (y) = 0.42385 0.35472
# Poissons Ratio (z) = 0.73929 0.22336
#
# Static dielectric constant tensor:
#      x y z
#    x 3.720390 0.000000 0.000000 
#    y 0.000000 3.295450 0.000000 
#    z 0.000000 0.000000 3.552710 
# 
# 
# High freq. dielectric constant tensor:
#      x y z
#    x 1.753090 0.000000 0.000000 
#    y 0.000000 1.719760 0.000000 
#    z 0.000000 0.000000 1.732120 
# 
# From -- ./inp_files/72567.got.cif
#   From: 2010.03.12/outbox.cif.g09.slc.cpg/sg65_37_cif.got.tgz:72567.got - 2010.04.10 20:52:16.
