data_PCOD8272586
_publ_section_title
;
Structure prediction by ZEFSAII (Michael W. Deem and Ramdas Pophale) SiO2 
 PCOD8272586
Probable space group: C M M M
;
_chemical_formula_sum "Si O2"
_cell_formula_units_Z 72
_cell_length_a 7.554117
_cell_length_b 18.838480
_cell_length_c 27.050583
_cell_angle_alpha 90.000000
_cell_angle_beta 90.000000
_cell_angle_gamma 90.000000
_cell_volume 3849.516584
_symmetry_space_group_name_H-M "C M M M"
_symmetry_group_IT_number 65
_symmetry_cell_setting 'orthorhombic'
loop_
_space_group_symop_operation_xyz
x,y,z
-x,-y,z
x,-y,-z
-x,y,-z
-x,-y,-z
x,y,-z
-x,y,z
x,-y,z
1/2+x,1/2+y,z
1/2-x,1/2-y,z
1/2+x,1/2-y,-z
1/2-x,1/2+y,-z
1/2-x,1/2-y,-z
1/2+x,1/2+y,-z
1/2-x,1/2+y,z
1/2+x,1/2-y,z
loop_
_atom_site_type_symbol
_atom_site_label
_atom_site_fract_x
_atom_site_fract_y
_atom_site_fract_z
Si Si1 0.797451 0.083430 0.353868
Si Si2 0.293864 0.667262 0.000000
Si Si3 0.500000 0.084259 0.279884
Si Si4 0.794965 0.082991 0.094678
Si Si5 0.000000 0.416406 0.170271
Si Si6 0.293167 0.670818 0.445708
O O1 0.676774 0.109787 0.308339
O O2 0.719459 0.117851 0.404071
O O3 0.000000 0.106817 0.343060
O O4 0.782436 0.000000 0.361390
O O5 0.250000 0.750000 0.000000
O O6 0.219255 0.628726 0.048785
O O7 0.500000 0.653872 0.000000
O O8 0.500000 0.118368 0.224929
O O9 0.500000 0.000000 0.276393
O O10 0.677910 0.106896 0.141524
O O11 0.000000 0.099785 0.106780
O O12 0.768734 0.000000 0.082057
O O13 0.000000 0.500000 0.176165
O O14 0.206629 0.655975 0.500000
O O15 0.500000 0.658976 0.450143
O O16 0.250000 0.750000 0.428189
#
# Coordination Sequence:
#
# PCOD8272586 Si02
#       6
#    16   8   8  16   8  16
#     4   9  18  32  50  73 100 131 163 202 249 296
#     4  10  21  33  50  78 104 138 169 197 248 302
#     4   9  18  32  50  76 102 126 165 208 250 296
#     4   9  18  33  52  76 104 132 167 208 245 289
#     4   9  18  31  52  78 100 129 166 209 254 288
#     4   9  18  31  48  72  98 128 163 201 247 299
#
# _framework density 18.703648000000001
#
# number of rings (size 3 to 8) (size 9 to 14) (size 15 to 20)
#    0.000    2.889    0.000    0.333    3.111    2.667 
#    0.000    8.333    0.000    3.333    0.000    0.000 
#    0.000    0.000    0.000    0.000    0.000    0.000 
#
# Total GULP energy -446220.871063 kJ/mol
# GULP energy per Si atom -12395.024196 kJ/mol
# Density = 1.866108 g / cm^3
# Si number density = 18.703648 Si / 1000 Ang^3
#
#
#
# Elastic Constant Matrix: (Units=GPa)
#
#
# Indices 1 2 3 4 5 6 
#
# 1 87.9053 24.5787 71.8541 0.0000 0.0000 0.0000
# 2 24.5787 52.2360 55.9483 0.0000 0.0000 0.0000
# 3 71.8541 55.9483 190.2919 0.0000 0.0000 0.0000
# 4 0.0000 0.0000 0.0000 9.5800 0.0000 0.0000
# 5 0.0000 0.0000 0.0000 0.0000 15.2607 0.0000
# 6 0.0000 0.0000 0.0000 0.0000 0.0000 18.6064
#
#
#
# Elastic Compliance Matrix: (Units=1/GPa)
#
#
# Indices 1 2 3 4 5 6 
#
# 1 0.016545 -0.001596 -0.005778 0.000000 0.000000 0.000000
# 2 -0.001596 0.028098 -0.007658 0.000000 0.000000 0.000000
# 3 -0.005778 -0.007658 0.009689 0.000000 0.000000 0.000000
# 4 0.000000 0.000000 0.000000 0.104384 0.000000 0.000000
# 5 0.000000 0.000000 0.000000 0.000000 0.065528 0.000000
# 6 0.000000 0.000000 0.000000 0.000000 0.000000 0.053745
#
#
# Mechanical properties :
#
#
# Convention : Reuss Voigt Hill
#
# Bulk Modulus (GPa) = 41.21005 70.57727 55.89366
# Shear Modulus (GPa) = 15.81566 20.55956 18.18761
#
# Velocity S-wave (km/s) = 2.91106 3.31906 3.12173
# Velocity P-wave (km/s) = 5.77755 7.24600 6.55304
#
# Compressibility (1/GPa) = 0.02426593
#
# Stress axis : x y z
#
# Youngs Moduli (GPa) = 60.44021 35.59027 103.21466
#
# Poissons Ratio (x) = 0.05681 0.59639
# Poissons Ratio (y) = 0.09648 0.79045
# Poissons Ratio (z) = 0.34923 0.27256
#
# Static dielectric constant tensor:
#      x y z
#    x 3.539590 0.000000 0.000000 
#    y 0.000000 3.068600 0.000000 
#    z 0.000000 0.000000 3.904390 
# 
# 
# High freq. dielectric constant tensor:
#      x y z
#    x 1.731170 0.000000 0.000000 
#    y 0.000000 1.689680 0.000000 
#    z 0.000000 0.000000 1.727170 
# 
# From -- ./inp_files/59388.got.cif
#   From: 2010.03.12/outbox.cif.g09.slc.cpg/sg65_30_cif.got.tgz:59388.got - 2010.04.10 20:52:16.
