data_PCOD8272780
_publ_section_title
;
Structure prediction by ZEFSAII (Michael W. Deem and Ramdas Pophale) SiO2 
 PCOD8272780
Probable space group: C M M M
;
_chemical_formula_sum "Si O2"
_cell_formula_units_Z 80
_cell_length_a 29.050158
_cell_length_b 14.685725
_cell_length_c 9.887949
_cell_angle_alpha 90.000000
_cell_angle_beta 90.000000
_cell_angle_gamma 90.000000
_cell_volume 4218.422823
_symmetry_space_group_name_H-M "C M M M"
_symmetry_group_IT_number 65
_symmetry_cell_setting 'orthorhombic'
loop_
_space_group_symop_operation_xyz
x,y,z
-x,-y,z
x,-y,-z
-x,y,-z
-x,-y,-z
x,y,-z
-x,y,z
x,-y,z
1/2+x,1/2+y,z
1/2-x,1/2-y,z
1/2+x,1/2-y,-z
1/2-x,1/2+y,-z
1/2-x,1/2-y,-z
1/2+x,1/2+y,-z
1/2-x,1/2+y,z
1/2+x,1/2-y,z
loop_
_atom_site_type_symbol
_atom_site_label
_atom_site_fract_x
_atom_site_fract_y
_atom_site_fract_z
Si Si1 0.595311 0.893968 0.843698
Si Si2 0.877016 0.100863 0.660770
Si Si3 0.300916 0.891817 0.850255
Si Si4 0.724478 0.391531 0.349615
Si Si5 0.052639 0.748233 0.344121
O O1 0.647479 0.865633 0.805061
O O2 0.560713 0.840609 0.746425
O O3 0.586925 0.000000 0.817178
O O4 0.585192 0.870147 0.000000
O O5 0.877559 0.094935 0.500000
O O6 0.826221 0.135205 0.706667
O O7 0.915749 0.170111 0.713429
O O8 0.887361 0.000000 0.720467
O O9 0.263887 0.849023 0.746647
O O10 0.296555 0.000000 0.853329
O O11 0.290676 0.853175 0.000000
O O12 0.732553 0.352014 0.500000
O O13 0.727951 0.500000 0.353864
O O14 0.064752 0.725404 0.500000
O O15 0.000000 0.779633 0.330158
#
# Coordination Sequence:
#
# PCOD8272780 Si02
#       5
#    16  16  16  16  16
#     4   9  19  36  55  73  97 133 170 200 241 300
#     4   8  15  30  51  74 102 134 165 198 240 294
#     4   8  14  26  45  69  96 125 159 198 236 279
#     4   8  13  23  43  70  97 127 161 193 230 281
#     4  10  21  35  52  76 101 125 162 213 258 291
#
# _framework density 18.964434000000001
#
# number of rings (size 3 to 8) (size 9 to 14) (size 15 to 20)
#    0.000    3.400    0.000    2.400    0.000    2.400 
#    0.000    8.000    0.000    7.800    0.000    1.400 
#    0.000    0.000    0.000    0.000    0.000    0.000 
#
# Total GULP energy -495820.607304 kJ/mol
# GULP energy per Si atom -12395.515183 kJ/mol
# Density = 1.892127 g / cm^3
# Si number density = 18.964434 Si / 1000 Ang^3
#
#
#
# Elastic Constant Matrix: (Units=GPa)
#
#
# Indices 1 2 3 4 5 6 
#
# 1 93.0244 25.0409 40.6415 0.0000 0.0000 0.0000
# 2 25.0409 44.0811 23.4970 0.0000 0.0000 0.0000
# 3 40.6415 23.4970 63.1971 0.0000 0.0000 0.0000
# 4 0.0000 0.0000 0.0000 14.4023 0.0000 0.0000
# 5 0.0000 0.0000 0.0000 0.0000 -0.4118 0.0000
# 6 0.0000 0.0000 0.0000 0.0000 0.0000 28.2181
#
#
#
# Elastic Compliance Matrix: (Units=1/GPa)
#
#
# Indices 1 2 3 4 5 6 
#
# 1 0.015601 -0.004383 -0.008403 0.000000 0.000000 0.000000
# 2 -0.004383 0.029524 -0.008158 0.000000 0.000000 0.000000
# 3 -0.008403 -0.008158 0.024261 0.000000 0.000000 0.000000
# 4 0.000000 0.000000 0.000000 0.069433 0.000000 0.000000
# 5 0.000000 0.000000 0.000000 0.000000 -2.428456 0.000000
# 6 0.000000 0.000000 0.000000 0.000000 0.000000 0.035438
#
#
# Mechanical properties :
#
#
# Convention : Reuss Voigt Hill
#
# Bulk Modulus (GPa) = 36.36833 42.07348 39.22091
# Shear Modulus (GPa) = -2.26948 15.84993 6.79022
#
# Velocity S-wave (km/s) = -1.09513 2.89411 1.89427
# Velocity P-wave (km/s) = 4.19758 5.77940 5.05080
#
# Compressibility (1/GPa) = 0.02749645
#
# Stress axis : x y z
#
# Youngs Moduli (GPa) = 64.09822 33.87059 41.21849
#
# Poissons Ratio (x) = 0.14846 0.34637
# Poissons Ratio (y) = 0.28095 0.33628
# Poissons Ratio (z) = 0.53863 0.27633
#
# Static dielectric constant tensor:
#      x y z
#    x 3.610570 0.000000 0.000000 
#    y 0.000000 3.256440 0.000000 
#    z 0.000000 0.000000 3.438990 
# 
# 
# High freq. dielectric constant tensor:
#      x y z
#    x 1.739600 0.000000 0.000000 
#    y 0.000000 1.714960 0.000000 
#    z 0.000000 0.000000 1.711140 
# 
# From -- ./inp_files/9669.got.cif
#   From: 2010.03.12/outbox.cif.g09.slc.cpg/sg65_5_cif.got.tgz:9669.got - 2010.04.10 20:52:16.
