data_PCOD8272268
_publ_section_title
;
Structure prediction by ZEFSAII (Michael W. Deem and Ramdas Pophale) SiO2 
 PCOD8272268
Probable space group: C M M M
;
_chemical_formula_sum "Si O2"
_cell_formula_units_Z 72
_cell_length_a 19.075459
_cell_length_b 8.942655
_cell_length_c 22.328886
_cell_angle_alpha 90.000000
_cell_angle_beta 90.000000
_cell_angle_gamma 90.000000
_cell_volume 3808.978574
_symmetry_space_group_name_H-M "C M M M"
_symmetry_group_IT_number 65
_symmetry_cell_setting 'orthorhombic'
loop_
_space_group_symop_operation_xyz
x,y,z
-x,-y,z
x,-y,-z
-x,y,-z
-x,-y,-z
x,y,-z
-x,y,z
x,-y,z
1/2+x,1/2+y,z
1/2-x,1/2-y,z
1/2+x,1/2-y,-z
1/2-x,1/2+y,-z
1/2-x,1/2-y,-z
1/2+x,1/2+y,-z
1/2-x,1/2+y,z
1/2+x,1/2-y,z
loop_
_atom_site_type_symbol
_atom_site_label
_atom_site_fract_x
_atom_site_fract_y
_atom_site_fract_z
Si Si1 0.323311 0.322529 0.903245
Si Si2 0.419730 0.324657 0.661168
Si Si3 0.179141 0.825870 0.233089
Si Si4 0.178479 0.325192 0.430878
Si Si5 0.082526 0.675060 0.000000
O O1 0.319702 0.500000 0.913401
O O2 0.250000 0.250000 0.924060
O O3 0.339583 0.278435 0.834581
O O4 0.385902 0.252439 0.941245
O O5 0.500000 0.276319 0.666308
O O6 0.410999 0.500000 0.649275
O O7 0.383661 0.276237 0.723489
O O8 0.386866 0.237562 0.605624
O O9 0.250000 0.750000 0.256020
O O10 0.193164 0.000000 0.236485
O O11 0.164891 0.285369 0.500000
O O12 0.185691 0.500000 0.419978
O O13 0.250000 0.250000 0.407724
O O14 0.100628 0.500000 0.000000
O O15 0.000000 0.704277 0.000000
#
# Coordination Sequence:
#
# PCOD8272268 Si02
#       5
#    16  16  16  16   8
#     4  10  20  36  59  83 108 140 179 221 265 316
#     4  10  21  36  54  79 112 146 178 216 265 318
#     4   9  19  35  56  81 107 138 177 221 265 312
#     4  10  21  37  57  80 106 138 179 225 269 316
#     4  11  24  39  54  77 111 145 178 221 270 317
#
# _framework density 18.902705999999998
#
# number of rings (size 3 to 8) (size 9 to 14) (size 15 to 20)
#    0.000    2.111    0.000    2.667    0.000    7.556 
#    0.000    4.444    0.000    0.000    0.000    0.000 
#    0.000    0.000    0.000    0.000    0.000    0.000 
#
# Total GULP energy -446555.709799 kJ/mol
# GULP energy per Si atom -12404.325272 kJ/mol
# Density = 1.885968 g / cm^3
# Si number density = 18.902706 Si / 1000 Ang^3
#
#
#
# Elastic Constant Matrix: (Units=GPa)
#
#
# Indices 1 2 3 4 5 6 
#
# 1 160.4102 64.8671 85.1243 0.0000 0.0000 0.0000
# 2 64.8671 77.7745 51.5746 0.0000 0.0000 0.0000
# 3 85.1243 51.5746 112.2557 0.0000 0.0000 0.0000
# 4 0.0000 0.0000 0.0000 28.4991 0.0000 0.0000
# 5 0.0000 0.0000 0.0000 0.0000 142.9740 0.0000
# 6 0.0000 0.0000 0.0000 0.0000 0.0000 33.0075
#
#
#
# Elastic Compliance Matrix: (Units=1/GPa)
#
#
# Indices 1 2 3 4 5 6 
#
# 1 0.011963 -0.005698 -0.006454 0.000000 0.000000 0.000000
# 2 -0.005698 0.021205 -0.005422 0.000000 0.000000 0.000000
# 3 -0.006454 -0.005422 0.016293 0.000000 0.000000 0.000000
# 4 0.000000 0.000000 0.000000 0.035089 0.000000 0.000000
# 5 0.000000 0.000000 0.000000 0.000000 0.006994 0.000000
# 6 0.000000 0.000000 0.000000 0.000000 0.000000 0.030296
#
#
# Mechanical properties :
#
#
# Convention : Reuss Voigt Hill
#
# Bulk Modulus (GPa) = 69.85907 83.73025 76.79466
# Shear Modulus (GPa) = 30.91017 50.82108 40.86563
#
# Velocity S-wave (km/s) = 4.04818 5.19076 4.65466
# Velocity P-wave (km/s) = 7.67383 8.96197 8.34280
#
# Compressibility (1/GPa) = 0.01431453
#
# Stress axis : x y z
#
# Youngs Moduli (GPa) = 83.59157 47.15796 61.37560
#
# Poissons Ratio (x) = 0.26870 0.39610
# Poissons Ratio (y) = 0.47630 0.33276
# Poissons Ratio (z) = 0.53948 0.25568
#
# Static dielectric constant tensor:
#      x y z
#    x 3.497140 0.000000 0.000000 
#    y 0.000000 3.486470 0.000000 
#    z 0.000000 0.000000 3.663360 
# 
# 
# High freq. dielectric constant tensor:
#      x y z
#    x 1.730320 0.000000 0.000000 
#    y 0.000000 1.738750 0.000000 
#    z 0.000000 0.000000 1.746770 
# 
# From -- ./inp_files/67089.got.cif
#   From: 2010.03.12/outbox.cif.g09.slc.cpg/sg65_34_cif.got.tgz:67089.got - 2010.04.10 20:52:16.
