data_PCOD8272214
_publ_section_title
;
Structure prediction by ZEFSAII (Michael W. Deem and Ramdas Pophale) SiO2 
 PCOD8272214
Probable space group: C M M M
;
_chemical_formula_sum "Si O2"
_cell_formula_units_Z 104
_cell_length_a 9.082473
_cell_length_b 23.678226
_cell_length_c 27.875169
_cell_angle_alpha 90.000000
_cell_angle_beta 90.000000
_cell_angle_gamma 90.000000
_cell_volume 5994.745992
_symmetry_space_group_name_H-M "C M M M"
_symmetry_group_IT_number 65
_symmetry_cell_setting 'orthorhombic'
loop_
_space_group_symop_operation_xyz
x,y,z
-x,-y,z
x,-y,-z
-x,y,-z
-x,-y,-z
x,y,-z
-x,y,z
x,-y,z
1/2+x,1/2+y,z
1/2-x,1/2-y,z
1/2+x,1/2-y,-z
1/2-x,1/2+y,-z
1/2-x,1/2-y,-z
1/2+x,1/2+y,-z
1/2-x,1/2+y,z
1/2+x,1/2-y,z
loop_
_atom_site_type_symbol
_atom_site_label
_atom_site_fract_x
_atom_site_fract_y
_atom_site_fract_z
Si Si1 0.672139 0.692962 0.945141
Si Si2 0.164622 0.500000 0.837770
Si Si3 0.673399 0.895718 0.305301
Si Si4 0.828883 0.690568 0.775061
Si Si5 0.832419 0.376978 0.130722
Si Si6 0.171425 0.934803 0.500000
Si Si7 0.827330 0.000000 0.256565
Si Si8 0.825673 0.066671 0.603987
O O1 0.500000 0.701224 0.938242
O O2 0.750000 0.750000 0.927668
O O3 0.727974 0.642562 0.912079
O O4 0.713664 0.678872 0.000000
O O5 0.182522 0.444492 0.869873
O O6 0.294610 0.500000 0.799493
O O7 0.000000 0.500000 0.813695
O O8 0.500000 0.907725 0.306419
O O9 0.708930 0.838436 0.276070
O O10 0.755840 0.945390 0.278886
O O11 0.737710 0.893428 0.359121
O O12 0.750000 0.750000 0.779403
O O13 0.779702 0.649114 0.818355
O O14 0.000000 0.703044 0.778812
O O15 0.000000 0.358500 0.120207
O O16 0.231340 0.911649 0.551158
O O17 0.000000 0.923896 0.500000
O O18 0.208027 0.000000 0.500000
O O19 0.000000 0.000000 0.266998
O O20 0.000000 0.076150 0.609824
O O21 0.789770 0.000000 0.612046
#
# Coordination Sequence:
#
# PCOD8272214 Si02
#       8
#    16   8  16  16  16   8   8  16
#     4  10  21  37  57  81 108 138 175 221 266 306
#     4  10  20  38  57  77 109 142 170 206 253 306
#     4  11  21  34  50  71 104 140 169 209 260 303
#     4  10  22  37  53  74 102 135 169 209 258 304
#     4  10  20  36  58  81 106 139 172 208 255 309
#     4   7  12  24  41  63  98 133 161 204 253 297
#     4  12  22  32  50  76 102 136 178 213 244 298
#     4   9  16  27  45  71  99 132 172 207 247 302
#
# _framework density 17.348524000000001
#
# number of rings (size 3 to 8) (size 9 to 14) (size 15 to 20)
#    0.000    2.077    2.308    3.000    0.000    4.615 
#    0.000    0.769    0.000    3.692    0.000    0.538 
#    0.000    0.000    0.000    0.000    0.000    0.000 
#
# Total GULP energy -644552.524336 kJ/mol
# GULP energy per Si atom -12395.240853 kJ/mol
# Density = 1.730904 g / cm^3
# Si number density = 17.348524 Si / 1000 Ang^3
#
#
#
# Elastic Constant Matrix: (Units=GPa)
#
#
# Indices 1 2 3 4 5 6 
#
# 1 69.6415 41.7922 47.7672 0.0000 0.0000 0.0000
# 2 41.7922 102.5990 51.7448 0.0000 0.0000 0.0000
# 3 47.7672 51.7448 118.3853 0.0000 0.0000 0.0000
# 4 0.0000 0.0000 0.0000 26.2715 0.0000 0.0000
# 5 0.0000 0.0000 0.0000 0.0000 30.2868 0.0000
# 6 0.0000 0.0000 0.0000 0.0000 0.0000 18.6779
#
#
#
# Elastic Compliance Matrix: (Units=1/GPa)
#
#
# Indices 1 2 3 4 5 6 
#
# 1 0.022272 -0.005824 -0.006441 0.000000 0.000000 0.000000
# 2 -0.005824 0.014026 -0.003781 0.000000 0.000000 0.000000
# 3 -0.006441 -0.003781 0.012698 0.000000 0.000000 0.000000
# 4 0.000000 0.000000 0.000000 0.038064 0.000000 0.000000
# 5 0.000000 0.000000 0.000000 0.000000 0.033018 0.000000
# 6 0.000000 0.000000 0.000000 0.000000 0.000000 0.053539
#
#
# Mechanical properties :
#
#
# Convention : Reuss Voigt Hill
#
# Bulk Modulus (GPa) = 59.15330 63.69268 61.42299
# Shear Modulus (GPa) = 23.65824 25.00200 24.33012
#
# Velocity S-wave (km/s) = 3.69684 3.80038 3.74897
# Velocity P-wave (km/s) = 7.23832 7.48669 7.36355
#
# Compressibility (1/GPa) = 0.01690523
#
# Stress axis : x y z
#
# Youngs Moduli (GPa) = 44.89941 71.29814 78.75041
#
# Poissons Ratio (x) = 0.41522 0.50723
# Poissons Ratio (y) = 0.26148 0.29773
# Poissons Ratio (z) = 0.28920 0.26955
#
# Static dielectric constant tensor:
#      x y z
#    x 3.231270 0.000000 0.000000 
#    y 0.000000 2.954480 0.000000 
#    z 0.000000 0.000000 3.568170 
# 
# 
# High freq. dielectric constant tensor:
#      x y z
#    x 1.665120 0.000000 0.000000 
#    y 0.000000 1.641060 0.000000 
#    z 0.000000 0.000000 1.678150 
# 
# From -- ./inp_files/73632.got.cif
#   From: 2010.03.12/outbox.cif.g09.slc.cpg/sg65_37_cif.got.tgz:73632.got - 2010.04.10 20:52:16.
