data_PCOD8272471
_publ_section_title
;
Structure prediction by ZEFSAII (Michael W. Deem and Ramdas Pophale) SiO2 
 PCOD8272471
Probable space group: C M M M
;
_chemical_formula_sum "Si O2"
_cell_formula_units_Z 88
_cell_length_a 22.612240
_cell_length_b 9.742304
_cell_length_c 20.907337
_cell_angle_alpha 90.000000
_cell_angle_beta 90.000000
_cell_angle_gamma 90.000000
_cell_volume 4605.788415
_symmetry_space_group_name_H-M "C M M M"
_symmetry_group_IT_number 65
_symmetry_cell_setting 'orthorhombic'
loop_
_space_group_symop_operation_xyz
x,y,z
-x,-y,z
x,-y,-z
-x,y,-z
-x,-y,-z
x,y,-z
-x,y,z
x,-y,z
1/2+x,1/2+y,z
1/2-x,1/2-y,z
1/2+x,1/2-y,-z
1/2-x,1/2+y,-z
1/2-x,1/2-y,-z
1/2+x,1/2+y,-z
1/2-x,1/2+y,z
1/2+x,1/2-y,z
loop_
_atom_site_type_symbol
_atom_site_label
_atom_site_fract_x
_atom_site_fract_y
_atom_site_fract_z
Si Si1 0.834606 0.500000 0.426739
Si Si2 0.500000 0.661427 0.200468
Si Si3 0.000000 0.160608 0.660503
Si Si4 0.890705 0.840184 0.117164
Si Si5 0.371623 0.268091 0.357397
Si Si6 0.691547 0.660579 0.768148
Si Si7 0.070665 0.664541 0.000000
Si Si8 0.694913 0.500000 0.571488
O O1 0.858707 0.500000 0.500000
O O2 0.859065 0.621363 0.384657
O O3 0.764786 0.500000 0.427966
O O4 0.500000 0.500000 0.209692
O O5 0.500000 0.732666 0.269758
O O6 0.556946 0.708814 0.162467
O O7 0.940007 0.203209 0.624783
O O8 0.000000 0.000000 0.668063
O O9 0.831067 0.821071 0.158798
O O10 0.897204 0.000000 0.094658
O O11 0.894525 0.734503 0.058688
O O12 0.358539 0.286207 0.281543
O O13 0.327251 0.366182 0.393811
O O14 0.704963 0.500000 0.754580
O O15 0.750000 0.750000 0.758219
O O16 0.080460 0.500000 0.000000
O O17 0.000000 0.699316 0.000000
O O18 0.669834 0.500000 0.500000
#
# Coordination Sequence:
#
# PCOD8272471 Si02
#       8
#     8   8   8  16  16  16   8   8
#     4  11  26  45  63  87 127 169 209 264 316 374
#     4   9  16  31  57  87 118 150 193 248 295 350
#     4  11  20  39  63  93 130 161 200 263 316 377
#     4  10  20  37  62  90 118 160 209 247 298 364
#     4  12  23  40  65  95 124 164 211 258 319 376
#     4  11  23  39  63  95 126 158 207 262 312 371
#     4  11  23  37  56  89 132 165 200 252 309 368
#     4  11  22  41  67  93 121 161 213 260 310 374
#
# _framework density 19.106392
#
# number of rings (size 3 to 8) (size 9 to 14) (size 15 to 20)
#    0.000    1.182    4.545    2.455    1.273    2.909 
#    0.000    3.182    2.000    0.000    0.000    0.000 
#    0.000    0.000    0.000    0.000    0.000    0.000 
#
# Total GULP energy -545398.088189 kJ/mol
# GULP energy per Si atom -12395.411095 kJ/mol
# Density = 1.906290 g / cm^3
# Si number density = 19.106392 Si / 1000 Ang^3
#
#
#
# Elastic Constant Matrix: (Units=GPa)
#
#
# Indices 1 2 3 4 5 6 
#
# 1 93.7832 35.8990 23.2932 0.0000 0.0000 0.0000
# 2 35.8990 129.9019 57.0772 0.0000 0.0000 0.0000
# 3 23.2932 57.0772 106.9587 0.0000 0.0000 0.0000
# 4 0.0000 0.0000 0.0000 36.7787 0.0000 0.0000
# 5 0.0000 0.0000 0.0000 0.0000 156.7331 0.0000
# 6 0.0000 0.0000 0.0000 0.0000 0.0000 -9.5326
#
#
#
# Elastic Compliance Matrix: (Units=1/GPa)
#
#
# Indices 1 2 3 4 5 6 
#
# 1 0.012023 -0.002838 -0.001104 0.000000 0.000000 0.000000
# 2 -0.002838 0.010726 -0.005106 0.000000 0.000000 0.000000
# 3 -0.001104 -0.005106 0.012314 0.000000 0.000000 0.000000
# 4 0.000000 0.000000 0.000000 0.027190 0.000000 0.000000
# 5 0.000000 0.000000 0.000000 0.000000 0.006380 0.000000
# 6 0.000000 0.000000 0.000000 0.000000 0.000000 -0.104903
#
#
# Mechanical properties :
#
#
# Convention : Reuss Voigt Hill
#
# Bulk Modulus (GPa) = 58.93225 62.57583 60.75404
# Shear Modulus (GPa) = -399.39509 51.08747 -174.15381
#
# Velocity S-wave (km/s) = -14.47381 5.17653 -9.55758
# Velocity P-wave (km/s) = 15.76104 8.27955 9.48313
#
# Compressibility (1/GPa) = 0.01696864
#
# Stress axis : x y z
#
# Youngs Moduli (GPa) = 83.17170 93.23450 81.20547
#
# Poissons Ratio (x) = 0.26456 0.08967
# Poissons Ratio (y) = 0.23600 0.41461
# Poissons Ratio (z) = 0.09184 0.47602
#
# Static dielectric constant tensor:
#      x y z
#    x 3.100220 0.000000 0.000000 
#    y 0.000000 3.304680 0.000000 
#    z 0.000000 0.000000 3.790070 
# 
# 
# High freq. dielectric constant tensor:
#      x y z
#    x 1.740500 0.000000 0.000000 
#    y 0.000000 1.734980 0.000000 
#    z 0.000000 0.000000 1.748080 
# 
# From -- ./inp_files/65289.got.cif
#   From: 2010.03.12/outbox.cif.g09.slc.cpg/sg65_33_cif.got.tgz:65289.got - 2010.04.10 20:52:16.
