data_PCOD8272771
_publ_section_title
;
Structure prediction by ZEFSAII (Michael W. Deem and Ramdas Pophale) SiO2 
 PCOD8272771
Probable space group: C M M M
;
_chemical_formula_sum "Si O2"
_cell_formula_units_Z 72
_cell_length_a 15.750704
_cell_length_b 27.393889
_cell_length_c 9.290041
_cell_angle_alpha 90.000000
_cell_angle_beta 90.000000
_cell_angle_gamma 90.000000
_cell_volume 4008.402205
_symmetry_space_group_name_H-M "C M M M"
_symmetry_group_IT_number 65
_symmetry_cell_setting 'orthorhombic'
loop_
_space_group_symop_operation_xyz
x,y,z
-x,-y,z
x,-y,-z
-x,y,-z
-x,-y,-z
x,y,-z
-x,y,z
x,-y,z
1/2+x,1/2+y,z
1/2-x,1/2-y,z
1/2+x,1/2-y,-z
1/2-x,1/2+y,-z
1/2-x,1/2-y,-z
1/2+x,1/2+y,-z
1/2-x,1/2+y,z
1/2+x,1/2-y,z
loop_
_atom_site_type_symbol
_atom_site_label
_atom_site_fract_x
_atom_site_fract_y
_atom_site_fract_z
Si Si1 0.000000 0.057024 0.328837
Si Si2 0.345419 0.395624 0.164426
Si Si3 0.096641 0.639696 0.663833
Si Si4 0.735308 0.194329 0.832469
Si Si5 0.167452 0.444769 0.164943
O O1 0.918170 0.085317 0.269442
O O2 0.000000 0.061033 0.500000
O O3 0.000000 0.000000 0.280236
O O4 0.316517 0.340085 0.204994
O O5 0.265254 0.430592 0.186529
O O6 0.378603 0.397738 0.000000
O O7 0.127563 0.635986 0.500000
O O8 0.152703 0.679292 0.745036
O O9 0.106019 0.586788 0.735655
O O10 0.000000 0.657219 0.674302
O O11 0.750000 0.250000 0.789657
O O12 0.713766 0.187858 0.000000
O O13 0.155328 0.500000 0.214103
O O14 0.140508 0.436632 0.000000
#
# Coordination Sequence:
#
# PCOD8272771 Si02
#       5
#     8  16  16  16  16
#     4  11  23  35  49  75 111 147 181 217 260 315
#     4   9  18  34  55  77 103 134 173 219 267 316
#     4  10  21  35  51  76 110 142 172 208 255 314
#     4   9  19  38  61  81 101 131 175 224 270 316
#     4   9  18  33  54  78 103 136 179 222 262 305
#
# _framework density 17.962268999999999
#
# number of rings (size 3 to 8) (size 9 to 14) (size 15 to 20)
#    0.000    2.556    0.000    3.000    0.000    8.444 
#    2.000    2.222    0.000    0.000    0.000    0.000 
#    0.000    0.000    0.000    0.000    0.000    0.000 
#
# Total GULP energy -446378.817560 kJ/mol
# GULP energy per Si atom -12399.411599 kJ/mol
# Density = 1.792139 g / cm^3
# Si number density = 17.962269 Si / 1000 Ang^3
#
#
#
# Elastic Constant Matrix: (Units=GPa)
#
#
# Indices 1 2 3 4 5 6 
#
# 1 84.2871 55.9843 54.9311 0.0000 0.0000 0.0000
# 2 55.9843 161.4141 66.1016 0.0000 0.0000 0.0000
# 3 54.9311 66.1016 89.4230 0.0000 0.0000 0.0000
# 4 0.0000 0.0000 0.0000 12.7835 0.0000 0.0000
# 5 0.0000 0.0000 0.0000 0.0000 32.6080 0.0000
# 6 0.0000 0.0000 0.0000 0.0000 0.0000 15.3836
#
#
#
# Elastic Compliance Matrix: (Units=1/GPa)
#
#
# Indices 1 2 3 4 5 6 
#
# 1 0.020643 -0.002821 -0.010596 0.000000 0.000000 0.000000
# 2 -0.002821 0.009270 -0.005120 0.000000 0.000000 0.000000
# 3 -0.010596 -0.005120 0.021476 0.000000 0.000000 0.000000
# 4 0.000000 0.000000 0.000000 0.078226 0.000000 0.000000
# 5 0.000000 0.000000 0.000000 0.000000 0.030667 0.000000
# 6 0.000000 0.000000 0.000000 0.000000 0.000000 0.065004
#
#
# Mechanical properties :
#
#
# Convention : Reuss Voigt Hill
#
# Bulk Modulus (GPa) = 69.84675 76.57311 73.20993
# Shear Modulus (GPa) = 18.71736 22.69550 20.70643
#
# Velocity S-wave (km/s) = 3.23156 3.55844 3.39894
# Velocity P-wave (km/s) = 7.27280 7.72049 7.49999
#
# Compressibility (1/GPa) = 0.01431706
#
# Stress axis : x y z
#
# Youngs Moduli (GPa) = 48.44241 107.87218 46.56330
#
# Poissons Ratio (x) = 0.30427 0.49337
# Poissons Ratio (y) = 0.13664 0.23840
# Poissons Ratio (z) = 0.51328 0.55229
#
# Static dielectric constant tensor:
#      x y z
#    x 3.149690 0.000000 0.000000 
#    y 0.000000 3.508190 0.000000 
#    z 0.000000 0.000000 3.326760 
# 
# 
# High freq. dielectric constant tensor:
#      x y z
#    x 1.687040 0.000000 0.000000 
#    y 0.000000 1.699310 0.000000 
#    z 0.000000 0.000000 1.695550 
# 
# From -- ./inp_files/7220.got.cif
#   From: 2010.03.12/outbox.cif.g09.slc.cpg/sg65_4_cif.got.tgz:7220.got - 2010.04.10 20:52:16.
