data_PCOD8272976
_publ_section_title
;
Structure prediction by ZEFSAII (Michael W. Deem and Ramdas Pophale) SiO2 
 PCOD8272976
Probable space group: C M M M
;
_chemical_formula_sum "Si O2"
_cell_formula_units_Z 112
_cell_length_a 14.740223
_cell_length_b 28.301498
_cell_length_c 14.199465
_cell_angle_alpha 90.000000
_cell_angle_beta 90.000000
_cell_angle_gamma 90.000000
_cell_volume 5923.596377
_symmetry_space_group_name_H-M "C M M M"
_symmetry_group_IT_number 65
_symmetry_cell_setting 'orthorhombic'
loop_
_space_group_symop_operation_xyz
x,y,z
-x,-y,z
x,-y,-z
-x,y,-z
-x,-y,-z
x,y,-z
-x,y,z
x,-y,z
1/2+x,1/2+y,z
1/2-x,1/2-y,z
1/2+x,1/2-y,-z
1/2-x,1/2+y,-z
1/2-x,1/2-y,-z
1/2+x,1/2+y,-z
1/2-x,1/2+y,z
1/2+x,1/2-y,z
loop_
_atom_site_type_symbol
_atom_site_label
_atom_site_fract_x
_atom_site_fract_y
_atom_site_fract_z
Si Si1 0.283639 0.447947 0.274451
Si Si2 0.602593 0.623033 0.609191
Si Si3 0.173881 0.639968 0.229333
Si Si4 0.601028 0.433117 0.104556
Si Si5 0.840036 0.170865 0.107017
Si Si6 0.240250 0.305009 0.391309
Si Si7 0.000000 0.343327 0.111658
Si Si8 0.500000 0.733136 0.109623
O O1 0.254549 0.500000 0.313866
O O2 0.357980 0.423428 0.341029
O O3 0.197710 0.413457 0.261347
O O4 0.328394 0.457496 0.173462
O O5 0.602853 0.611194 0.500000
O O6 0.500000 0.633086 0.644978
O O7 0.663994 0.668991 0.631267
O O8 0.250897 0.666723 0.169801
O O9 0.162625 0.671586 0.324481
O O10 0.086362 0.634903 0.164054
O O11 0.500000 0.450515 0.128355
O O12 0.602661 0.376764 0.113188
O O13 0.629091 0.449046 0.000000
O O14 0.906430 0.211167 0.150277
O O15 0.809254 0.182520 0.000000
O O16 0.211319 0.312685 0.500000
O O17 0.250000 0.250000 0.368064
O O18 0.000000 0.287993 0.130057
O O19 0.000000 0.355826 0.000000
O O20 0.500000 0.719934 0.000000
#
# Coordination Sequence:
#
# PCOD8272976 Si02
#       8
#    16  16  16  16  16  16   8   8
#     4  10  21  36  53  75 104 138 183 232 281 339
#     4   9  18  34  56  84 118 152 183 222 281 345
#     4  10  22  38  56  79 105 148 187 232 293 338
#     4   9  16  27  44  68 102 140 172 208 255 313
#     4   9  16  30  51  76 108 144 180 214 265 336
#     4   9  19  37  56  79 114 153 194 232 266 322
#     4  11  24  40  56  81 114 141 185 251 297 337
#     4   9  18  30  50  80 110 142 177 215 265 337
#
# _framework density 18.907433999999999
#
# number of rings (size 3 to 8) (size 9 to 14) (size 15 to 20)
#    0.000    2.571    0.714    0.857    2.000    2.286 
#    2.571    4.286    0.000    0.429    0.000    0.000 
#    0.000    4.571    0.000    0.000    0.000    0.000 
#
# Total GULP energy -694112.097175 kJ/mol
# GULP energy per Si atom -12394.858878 kJ/mol
# Density = 1.886440 g / cm^3
# Si number density = 18.907434 Si / 1000 Ang^3
#
#
#
# Elastic Constant Matrix: (Units=GPa)
#
#
# Indices 1 2 3 4 5 6 
#
# 1 93.6455 36.6420 40.0201 0.0000 0.0000 0.0000
# 2 36.6420 121.9102 40.7312 0.0000 0.0000 0.0000
# 3 40.0201 40.7312 83.3285 0.0000 0.0000 0.0000
# 4 0.0000 0.0000 0.0000 7.5568 0.0000 0.0000
# 5 0.0000 0.0000 0.0000 0.0000 29.9787 0.0000
# 6 0.0000 0.0000 0.0000 0.0000 0.0000 29.0540
#
#
#
# Elastic Compliance Matrix: (Units=1/GPa)
#
#
# Indices 1 2 3 4 5 6 
#
# 1 0.013973 -0.002340 -0.005567 0.000000 0.000000 0.000000
# 2 -0.002340 0.010196 -0.003860 0.000000 0.000000 0.000000
# 3 -0.005567 -0.003860 0.016561 0.000000 0.000000 0.000000
# 4 0.000000 0.000000 0.000000 0.132330 0.000000 0.000000
# 5 0.000000 0.000000 0.000000 0.000000 0.033357 0.000000
# 6 0.000000 0.000000 0.000000 0.000000 0.000000 0.034419
#
#
# Mechanical properties :
#
#
# Convention : Reuss Voigt Hill
#
# Bulk Modulus (GPa) = 58.15236 59.29676 58.72456
# Shear Modulus (GPa) = 18.51151 25.41732 21.96442
#
# Velocity S-wave (km/s) = 3.13239 3.67045 3.41204
# Velocity P-wave (km/s) = 6.62613 7.02799 6.83002
#
# Compressibility (1/GPa) = 0.01719621
#
# Stress axis : x y z
#
# Youngs Moduli (GPa) = 71.56505 98.08093 60.38212
#
# Poissons Ratio (x) = 0.22949 0.33616
# Poissons Ratio (y) = 0.16745 0.23307
# Poissons Ratio (z) = 0.39842 0.37858
#
# Static dielectric constant tensor:
#      x y z
#    x 3.285910 0.000000 0.000000 
#    y 0.000000 4.139990 0.000000 
#    z 0.000000 0.000000 3.702600 
# 
# 
# High freq. dielectric constant tensor:
#      x y z
#    x 1.701590 0.000000 0.000000 
#    y 0.000000 1.730500 0.000000 
#    z 0.000000 0.000000 1.742010 
# 
# From -- ./inp_files/41200.got.cif
#   From: 2010.03.12/outbox.cif.g09.slc.cpg/sg65_21_cif.got.tgz:41200.got - 2010.04.10 20:52:16.
