data_PCOD8272782
_publ_section_title
;
Structure prediction by ZEFSAII (Michael W. Deem and Ramdas Pophale) SiO2 
 PCOD8272782
Probable space group: C M M M
;
_chemical_formula_sum "Si O2"
_cell_formula_units_Z 72
_cell_length_a 23.633418
_cell_length_b 13.496687
_cell_length_c 13.503092
_cell_angle_alpha 90.000000
_cell_angle_beta 90.000000
_cell_angle_gamma 90.000000
_cell_volume 4307.119678
_symmetry_space_group_name_H-M "C M M M"
_symmetry_group_IT_number 65
_symmetry_cell_setting 'orthorhombic'
loop_
_space_group_symop_operation_xyz
x,y,z
-x,-y,z
x,-y,-z
-x,y,-z
-x,-y,-z
x,y,-z
-x,y,z
x,-y,z
1/2+x,1/2+y,z
1/2-x,1/2-y,z
1/2+x,1/2-y,-z
1/2-x,1/2+y,-z
1/2-x,1/2-y,-z
1/2+x,1/2+y,-z
1/2-x,1/2+y,z
1/2+x,1/2-y,z
loop_
_atom_site_type_symbol
_atom_site_label
_atom_site_fract_x
_atom_site_fract_y
_atom_site_fract_z
Si Si1 0.326925 0.387029 0.385386
Si Si2 0.673345 0.114789 0.887031
Si Si3 0.436621 0.112632 0.773507
Si Si4 0.250000 0.250000 0.749557
Si Si5 0.436662 0.726927 0.612438
O O1 0.310539 0.371239 0.500000
O O2 0.317338 0.500000 0.352820
O O3 0.288428 0.317327 0.319472
O O4 0.392876 0.361605 0.366888
O O5 0.607445 0.133871 0.861495
O O6 0.712458 0.180138 0.817704
O O7 0.689372 0.000000 0.871236
O O8 0.682855 0.147318 0.000000
O O9 0.500000 0.134944 0.813616
O O10 0.421293 0.179272 0.679459
O O11 0.431464 0.000000 0.736225
O O12 0.431512 0.764758 0.500000
O O13 0.500000 0.686832 0.634730
#
# Coordination Sequence:
#
# PCOD8272782 Si02
#       5
#    16  16  16   8  16
#     4  10  21  35  52  76 103 132 168 207 246 295
#     4  10  21  35  52  76 101 128 168 213 253 296
#     4   9  17  31  51  75 102 131 163 203 253 303
#     4  12  20  36  54  72 100 140 168 202 248 300
#     4   9  17  31  51  75 102 131 164 204 250 299
#
# _framework density 16.716508000000001
#
# number of rings (size 3 to 8) (size 9 to 14) (size 15 to 20)
#    0.000    2.222    2.222    1.333    0.000    1.333 
#    0.000    6.667    0.000    0.000    0.000    0.000 
#    0.000    3.556    0.000    0.000    0.000    0.000 
#
# Total GULP energy -446345.921027 kJ/mol
# GULP energy per Si atom -12398.497806 kJ/mol
# Density = 1.667846 g / cm^3
# Si number density = 16.716508 Si / 1000 Ang^3
#
#
#
# Elastic Constant Matrix: (Units=GPa)
#
#
# Indices 1 2 3 4 5 6 
#
# 1 107.7859 63.7141 65.6612 0.0000 0.0000 0.0000
# 2 63.7141 95.9854 69.0656 0.0000 0.0000 0.0000
# 3 65.6612 69.0656 100.9532 0.0000 0.0000 0.0000
# 4 0.0000 0.0000 0.0000 25.8881 0.0000 0.0000
# 5 0.0000 0.0000 0.0000 0.0000 14.2533 0.0000
# 6 0.0000 0.0000 0.0000 0.0000 0.0000 21.8854
#
#
#
# Elastic Compliance Matrix: (Units=1/GPa)
#
#
# Indices 1 2 3 4 5 6 
#
# 1 0.017291 -0.006668 -0.006685 0.000000 0.000000 0.000000
# 2 -0.006668 0.023090 -0.011460 0.000000 0.000000 0.000000
# 3 -0.006685 -0.011460 0.022094 0.000000 0.000000 0.000000
# 4 0.000000 0.000000 0.000000 0.038628 0.000000 0.000000
# 5 0.000000 0.000000 0.000000 0.000000 0.070159 0.000000
# 6 0.000000 0.000000 0.000000 0.000000 0.000000 0.045693
#
#
# Mechanical properties :
#
#
# Convention : Reuss Voigt Hill
#
# Bulk Modulus (GPa) = 77.82121 77.95627 77.88874
# Shear Modulus (GPa) = 18.45947 19.49093 18.97520
#
# Velocity S-wave (km/s) = 3.32666 3.41833 3.37281
# Velocity P-wave (km/s) = 7.83646 7.89402 7.86529
#
# Compressibility (1/GPa) = 0.01284997
#
# Stress axis : x y z
#
# Youngs Moduli (GPa) = 57.83221 43.30832 45.26174
#
# Poissons Ratio (x) = 0.28877 0.30257
# Poissons Ratio (y) = 0.38561 0.51870
# Poissons Ratio (z) = 0.38660 0.49631
#
# Static dielectric constant tensor:
#      x y z
#    x 3.323860 0.000000 0.000000 
#    y 0.000000 3.096340 0.000000 
#    z 0.000000 0.000000 3.084270 
# 
# 
# High freq. dielectric constant tensor:
#      x y z
#    x 1.656730 0.000000 0.000000 
#    y 0.000000 1.638190 0.000000 
#    z 0.000000 0.000000 1.636810 
# 
# From -- ./inp_files/22493.got.cif
#   From: 2010.03.12/outbox.cif.g09.slc.cpg/sg65_12_cif.got.tgz:22493.got - 2010.04.10 20:52:16.
