data_PCOD8272960
_publ_section_title
;
Structure prediction by ZEFSAII (Michael W. Deem and Ramdas Pophale) SiO2 
 PCOD8272960
Probable space group: C M M M
;
_chemical_formula_sum "Si O2"
_cell_formula_units_Z 64
_cell_length_a 9.346798
_cell_length_b 41.266346
_cell_length_c 9.073902
_cell_angle_alpha 90.000000
_cell_angle_beta 90.000000
_cell_angle_gamma 90.000000
_cell_volume 3499.878410
_symmetry_space_group_name_H-M "C M M M"
_symmetry_group_IT_number 65
_symmetry_cell_setting 'orthorhombic'
loop_
_space_group_symop_operation_xyz
x,y,z
-x,-y,z
x,-y,-z
-x,y,-z
-x,-y,-z
x,y,-z
-x,y,z
x,-y,z
1/2+x,1/2+y,z
1/2-x,1/2-y,z
1/2+x,1/2-y,-z
1/2-x,1/2+y,-z
1/2-x,1/2-y,-z
1/2+x,1/2+y,-z
1/2-x,1/2+y,z
1/2+x,1/2-y,z
loop_
_atom_site_type_symbol
_atom_site_label
_atom_site_fract_x
_atom_site_fract_y
_atom_site_fract_z
Si Si1 0.338668 0.035485 0.675173
Si Si2 0.666753 0.217648 0.328729
Si Si3 0.333406 0.596212 0.330461
Si Si4 0.336203 0.338409 0.173944
O O1 0.331070 0.035997 0.500000
O O2 0.500000 0.041251 0.729672
O O3 0.242262 0.064503 0.738646
O O4 0.284829 0.000000 0.730929
O O5 0.690430 0.209720 0.500000
O O6 0.500000 0.222135 0.290775
O O7 0.750000 0.250000 0.282689
O O8 0.730913 0.188721 0.234259
O O9 0.289295 0.602009 0.500000
O O10 0.500000 0.589863 0.313649
O O11 0.284108 0.627431 0.239089
O O12 0.500000 0.331070 0.222716
O O13 0.322336 0.339884 0.000000
#
# Coordination Sequence:
#
# PCOD8272960 Si02
#       4
#    16  16  16  16
#     4   8  14  25  42  66  95 124 156 199 250 299
#     4  10  21  37  58  82 105 131 165 205 249 297
#     4   9  17  29  47  71  97 126 162 205 250 295
#     4  10  21  36  53  74 103 138 172 207 249 297
#
# _framework density 18.286349000000001
#
# number of rings (size 3 to 8) (size 9 to 14) (size 15 to 20)
#    0.000    2.750    0.000    2.250    0.000    5.000 
#    0.000    5.000    0.000    0.750    0.000    5.250 
#    0.000    0.000    0.000    0.000    0.000    0.000 
#
# Total GULP energy -396755.467821 kJ/mol
# GULP energy per Si atom -12398.608369 kJ/mol
# Density = 1.824473 g / cm^3
# Si number density = 18.286349 Si / 1000 Ang^3
#
#
#
# Elastic Constant Matrix: (Units=GPa)
#
#
# Indices 1 2 3 4 5 6 
#
# 1 92.1308 87.4910 38.0261 0.0000 0.0000 0.0000
# 2 87.4910 182.2712 54.7002 0.0000 0.0000 0.0000
# 3 38.0261 54.7002 47.3242 0.0000 0.0000 0.0000
# 4 0.0000 0.0000 0.0000 -4.7233 0.0000 0.0000
# 5 0.0000 0.0000 0.0000 0.0000 19.3278 0.0000
# 6 0.0000 0.0000 0.0000 0.0000 0.0000 41.5156
#
#
#
# Elastic Compliance Matrix: (Units=1/GPa)
#
#
# Indices 1 2 3 4 5 6 
#
# 1 0.021904 -0.008011 -0.008341 0.000000 0.000000 0.000000
# 2 -0.008011 0.011330 -0.006659 0.000000 0.000000 0.000000
# 3 -0.008341 -0.006659 0.035530 0.000000 0.000000 0.000000
# 4 0.000000 0.000000 0.000000 -0.211718 0.000000 0.000000
# 5 0.000000 0.000000 0.000000 0.000000 0.051739 0.000000
# 6 0.000000 0.000000 0.000000 0.000000 0.000000 0.024087
#
#
# Mechanical properties :
#
#
# Convention : Reuss Voigt Hill
#
# Bulk Modulus (GPa) = 43.97092 75.79564 59.88328
# Shear Modulus (GPa) = -369.68215 20.65796 -174.51209
#
# Velocity S-wave (km/s) = -14.23383 3.36474 -9.77958
# Velocity P-wave (km/s) = 15.68559 7.52559 9.73147
#
# Compressibility (1/GPa) = 0.02274230
#
# Stress axis : x y z
#
# Youngs Moduli (GPa) = 45.65288 88.26123 28.14537
#
# Poissons Ratio (x) = 0.70706 0.23476
# Poissons Ratio (y) = 0.36573 0.18742
# Poissons Ratio (z) = 0.38079 0.58772
#
# Static dielectric constant tensor:
#      x y z
#    x 3.431400 0.000000 0.000000 
#    y 0.000000 3.735450 0.000000 
#    z 0.000000 0.000000 3.049410 
# 
# 
# High freq. dielectric constant tensor:
#      x y z
#    x 1.706280 0.000000 0.000000 
#    y 0.000000 1.725320 0.000000 
#    z 0.000000 0.000000 1.673830 
# 
# From -- ./inp_files/4884.got.cif
#   From: 2010.03.12/outbox.cif.g09.slc.cpg/sg65_3_cif.got.tgz:4884.got - 2010.04.10 20:52:16.
