data_PCOD8272037
_publ_section_title
;
Structure prediction by ZEFSAII (Michael W. Deem and Ramdas Pophale) SiO2 
 PCOD8272037
Probable space group: C M M M
;
_chemical_formula_sum "Si O2"
_cell_formula_units_Z 72
_cell_length_a 14.434426
_cell_length_b 8.690536
_cell_length_c 29.099646
_cell_angle_alpha 90.000000
_cell_angle_beta 90.000000
_cell_angle_gamma 90.000000
_cell_volume 3650.343948
_symmetry_space_group_name_H-M "C M M M"
_symmetry_group_IT_number 65
_symmetry_cell_setting 'orthorhombic'
loop_
_space_group_symop_operation_xyz
x,y,z
-x,-y,z
x,-y,-z
-x,y,-z
-x,-y,-z
x,y,-z
-x,y,z
x,-y,z
1/2+x,1/2+y,z
1/2-x,1/2-y,z
1/2+x,1/2-y,-z
1/2-x,1/2+y,-z
1/2-x,1/2-y,-z
1/2+x,1/2+y,-z
1/2-x,1/2+y,z
1/2+x,1/2-y,z
loop_
_atom_site_type_symbol
_atom_site_label
_atom_site_fract_x
_atom_site_fract_y
_atom_site_fract_z
Si Si1 0.000000 0.318043 0.449067
Si Si2 0.000000 0.179171 0.688067
Si Si3 0.647911 0.181803 0.859259
Si Si4 0.147949 0.682292 0.376069
Si Si5 0.500000 0.679054 0.795662
Si Si6 0.148910 0.180034 0.950285
O O1 0.091979 0.265128 0.421726
O O2 0.000000 0.500000 0.453077
O O3 0.000000 0.242974 0.500000
O O4 0.093185 0.254949 0.668058
O O5 0.000000 0.210463 0.741861
O O6 0.000000 0.000000 0.675868
O O7 0.750000 0.250000 0.855710
O O8 0.591126 0.242912 0.816153
O O9 0.598784 0.237102 0.907205
O O10 0.651053 0.000000 0.857798
O O11 0.153592 0.500000 0.372064
O O12 0.250000 0.750000 0.378352
O O13 0.500000 0.500000 0.807710
O O14 0.250000 0.250000 0.953926
O O15 0.155076 0.000000 0.939287
O O16 0.098580 0.207060 0.000000
#
# Coordination Sequence:
#
# PCOD8272037 Si02
#       6
#     8   8  16  16   8  16
#     4   8  16  32  53  81 119 160 199 238 280 325
#     4  10  22  40  61  82 107 141 184 236 289 340
#     4  11  22  37  58  83 112 145 180 222 272 330
#     4  10  20  35  58  85 116 153 192 237 283 332
#     4  11  24  42  61  82 109 141 180 230 285 338
#     4   9  16  28  49  76 106 141 179 219 264 317
#
# _framework density 19.724167999999999
#
# number of rings (size 3 to 8) (size 9 to 14) (size 15 to 20)
#    0.000    2.111    0.000    6.000    0.000    4.444 
#    0.000    0.556    0.000   14.667    0.000    0.000 
#    0.000    0.000    0.000    0.000    0.000    0.000 
#
# Total GULP energy -446225.041675 kJ/mol
# GULP energy per Si atom -12395.140047 kJ/mol
# Density = 1.967927 g / cm^3
# Si number density = 19.724168 Si / 1000 Ang^3
#
#
#
# Elastic Constant Matrix: (Units=GPa)
#
#
# Indices 1 2 3 4 5 6 
#
# 1 138.6859 57.6086 72.9495 0.0000 0.0000 0.0000
# 2 57.6086 147.5496 82.2514 0.0000 0.0000 0.0000
# 3 72.9495 82.2514 154.0860 0.0000 0.0000 0.0000
# 4 0.0000 0.0000 0.0000 28.4277 0.0000 0.0000
# 5 0.0000 0.0000 0.0000 0.0000 28.0355 0.0000
# 6 0.0000 0.0000 0.0000 0.0000 0.0000 29.4694
#
#
#
# Elastic Compliance Matrix: (Units=1/GPa)
#
#
# Indices 1 2 3 4 5 6 
#
# 1 0.009922 -0.001787 -0.003743 0.000000 0.000000 0.000000
# 2 -0.001787 0.009970 -0.004476 0.000000 0.000000 0.000000
# 3 -0.003743 -0.004476 0.010651 0.000000 0.000000 0.000000
# 4 0.000000 0.000000 0.000000 0.035177 0.000000 0.000000
# 5 0.000000 0.000000 0.000000 0.000000 0.035669 0.000000
# 6 0.000000 0.000000 0.000000 0.000000 0.000000 0.033934
#
#
# Mechanical properties :
#
#
# Convention : Reuss Voigt Hill
#
# Bulk Modulus (GPa) = 94.96221 96.21559 95.58890
# Shear Modulus (GPa) = 31.47688 32.35398 31.91543
#
# Velocity S-wave (km/s) = 3.99915 4.05448 4.02691
# Velocity P-wave (km/s) = 8.34109 8.41456 8.37791
#
# Compressibility (1/GPa) = 0.01053050
#
# Stress axis : x y z
#
# Youngs Moduli (GPa) = 100.78673 100.29753 93.88355
#
# Poissons Ratio (x) = 0.17924 0.35145
# Poissons Ratio (y) = 0.18012 0.42023
# Poissons Ratio (z) = 0.37729 0.44894
#
# Static dielectric constant tensor:
#      x y z
#    x 3.431330 0.000000 0.000000 
#    y 0.000000 3.653370 0.000000 
#    z 0.000000 0.000000 4.099260 
# 
# 
# High freq. dielectric constant tensor:
#      x y z
#    x 1.759390 0.000000 0.000000 
#    y 0.000000 1.775900 0.000000 
#    z 0.000000 0.000000 1.776920 
# 
# From -- ./inp_files/74647.got.cif
#   From: 2010.03.12/outbox.cif.g09.slc.cpg/sg65_38_cif.got.tgz:74647.got - 2010.04.10 20:52:16.
