data_PCOD8272768
_publ_section_title
;
Structure prediction by ZEFSAII (Michael W. Deem and Ramdas Pophale) SiO2 
 PCOD8272768
Probable space group: C M M M
;
_chemical_formula_sum "Si O2"
_cell_formula_units_Z 112
_cell_length_a 14.465971
_cell_length_b 27.302971
_cell_length_c 14.034156
_cell_angle_alpha 90.000000
_cell_angle_beta 90.000000
_cell_angle_gamma 90.000000
_cell_volume 5542.986204
_symmetry_space_group_name_H-M "C M M M"
_symmetry_group_IT_number 65
_symmetry_cell_setting 'orthorhombic'
loop_
_space_group_symop_operation_xyz
x,y,z
-x,-y,z
x,-y,-z
-x,y,-z
-x,-y,-z
x,y,-z
-x,y,z
x,-y,z
1/2+x,1/2+y,z
1/2-x,1/2-y,z
1/2+x,1/2-y,-z
1/2-x,1/2+y,-z
1/2-x,1/2-y,-z
1/2+x,1/2+y,-z
1/2-x,1/2+y,z
1/2+x,1/2-y,z
loop_
_atom_site_type_symbol
_atom_site_label
_atom_site_fract_x
_atom_site_fract_y
_atom_site_fract_z
Si Si1 0.103084 0.820376 0.610169
Si Si2 0.288836 0.134117 0.610921
Si Si3 0.605330 0.056743 0.724754
Si Si4 0.856260 0.762215 0.894360
Si Si5 0.102316 0.720464 0.704416
Si Si6 0.897607 0.128005 0.887295
Si Si7 0.760069 0.556158 0.890788
O O1 0.100100 0.806460 0.500000
O O2 0.177494 0.863878 0.628356
O O3 0.138797 0.771836 0.663340
O O4 0.000000 0.836690 0.645138
O O5 0.312728 0.141227 0.500000
O O6 0.331680 0.083149 0.645761
O O7 0.331676 0.177400 0.672768
O O8 0.500000 0.076897 0.724612
O O9 0.647544 0.065714 0.829713
O O10 0.606827 0.000000 0.697144
O O11 0.750000 0.750000 0.901602
O O12 0.901292 0.724577 0.819704
O O13 0.871358 0.817268 0.854702
O O14 0.901496 0.756424 0.000000
O O15 0.000000 0.709148 0.665597
O O16 0.822395 0.089506 0.847827
O O17 0.000000 0.114848 0.848068
O O18 0.896738 0.124465 0.000000
O O19 0.727355 0.500000 0.882283
O O20 0.783806 0.569854 0.000000
#
# Coordination Sequence:
#
# PCOD8272768 Si02
#       7
#    16  16  16  16  16  16  16
#     4   9  19  36  58  85 116 149 185 228 283 345
#     4  11  23  40  62  86 115 147 187 242 294 340
#     4  10  23  42  62  86 115 148 189 235 285 344
#     4  10  21  35  51  75 113 163 207 241 278 331
#     4  11  22  34  54  85 117 153 194 237 285 335
#     4   9  18  33  54  81 116 157 198 238 283 335
#     4   9  19  36  60  89 118 150 189 234 284 339
#
# _framework density 20.205714
#
# number of rings (size 3 to 8) (size 9 to 14) (size 15 to 20)
#    0.000    2.143    0.000    2.571    4.000    4.571 
#    0.000    3.571    0.000    3.000    0.000    2.000 
#    0.000    0.000    0.000    0.000    0.000    0.000 
#
# Total GULP energy -694252.900278 kJ/mol
# GULP energy per Si atom -12397.373219 kJ/mol
# Density = 2.015973 g / cm^3
# Si number density = 20.205714 Si / 1000 Ang^3
#
#
#
# Elastic Constant Matrix: (Units=GPa)
#
#
# Indices 1 2 3 4 5 6 
#
# 1 124.0443 54.7426 26.6638 0.0000 0.0000 0.0000
# 2 54.7426 78.9716 43.2557 0.0000 0.0000 0.0000
# 3 26.6638 43.2557 75.9652 0.0000 0.0000 0.0000
# 4 0.0000 0.0000 0.0000 25.6151 0.0000 0.0000
# 5 0.0000 0.0000 0.0000 0.0000 14.2924 0.0000
# 6 0.0000 0.0000 0.0000 0.0000 0.0000 31.2622
#
#
#
# Elastic Compliance Matrix: (Units=1/GPa)
#
#
# Indices 1 2 3 4 5 6 
#
# 1 0.011643 -0.008476 0.000740 0.000000 0.000000 0.000000
# 2 -0.008476 0.024573 -0.011017 0.000000 0.000000 0.000000
# 3 0.000740 -0.011017 0.019178 0.000000 0.000000 0.000000
# 4 0.000000 0.000000 0.000000 0.039039 0.000000 0.000000
# 5 0.000000 0.000000 0.000000 0.000000 0.069967 0.000000
# 6 0.000000 0.000000 0.000000 0.000000 0.000000 0.031987
#
#
# Mechanical properties :
#
#
# Convention : Reuss Voigt Hill
#
# Bulk Modulus (GPa) = 55.90765 58.70058 57.30412
# Shear Modulus (GPa) = 20.84572 24.52188 22.68380
#
# Velocity S-wave (km/s) = 3.21545 3.48747 3.35422
# Velocity P-wave (km/s) = 6.44320 6.73284 6.58961
#
# Compressibility (1/GPa) = 0.01788664
#
# Stress axis : x y z
#
# Youngs Moduli (GPa) = 85.88609 40.69521 52.14430
#
# Poissons Ratio (x) = 0.34494 -0.03857
# Poissons Ratio (y) = 0.72799 0.57448
# Poissons Ratio (z) = -0.06353 0.44834
#
# Static dielectric constant tensor:
#      x y z
#    x 3.968780 0.000000 0.000000 
#    y 0.000000 3.561450 0.000000 
#    z 0.000000 0.000000 3.771190 
# 
# 
# High freq. dielectric constant tensor:
#      x y z
#    x 1.799460 0.000000 0.000000 
#    y 0.000000 1.763190 0.000000 
#    z 0.000000 0.000000 1.791560 
# 
# From -- ./inp_files/40852.got.cif
#   From: 2010.03.12/outbox.cif.g09.slc.cpg/sg65_21_cif.got.tgz:40852.got - 2010.04.10 20:52:16.
