data_PCOD8272832
_publ_section_title
;
Structure prediction by ZEFSAII (Michael W. Deem and Ramdas Pophale) SiO2 
 PCOD8272832
Probable space group: C M M M
;
_chemical_formula_sum "Si O2"
_cell_formula_units_Z 88
_cell_length_a 18.517580
_cell_length_b 8.951545
_cell_length_c 27.753492
_cell_angle_alpha 90.000000
_cell_angle_beta 90.000000
_cell_angle_gamma 90.000000
_cell_volume 4600.445218
_symmetry_space_group_name_H-M "C M M M"
_symmetry_group_IT_number 65
_symmetry_cell_setting 'orthorhombic'
loop_
_space_group_symop_operation_xyz
x,y,z
-x,-y,z
x,-y,-z
-x,y,-z
-x,-y,-z
x,y,-z
-x,y,z
x,-y,z
1/2+x,1/2+y,z
1/2-x,1/2-y,z
1/2+x,1/2-y,-z
1/2-x,1/2+y,-z
1/2-x,1/2-y,-z
1/2+x,1/2+y,-z
1/2-x,1/2+y,z
1/2+x,1/2-y,z
loop_
_atom_site_type_symbol
_atom_site_label
_atom_site_fract_x
_atom_site_fract_y
_atom_site_fract_z
Si Si1 0.583703 0.674212 0.190799
Si Si2 0.672703 0.176472 0.000000
Si Si3 0.176232 0.825160 0.444627
Si Si4 0.172472 0.323502 0.274372
Si Si5 0.916694 0.327737 0.092138
Si Si6 0.416922 0.173760 0.367767
O O1 0.500000 0.710069 0.201265
O O2 0.600861 0.500000 0.196067
O O3 0.632010 0.766267 0.227397
O O4 0.605045 0.726403 0.137408
O O5 0.750000 0.250000 0.000000
O O6 0.629793 0.229888 0.047192
O O7 0.680753 0.000000 0.000000
O O8 0.161013 0.783005 0.500000
O O9 0.250000 0.750000 0.426170
O O10 0.109398 0.765428 0.413961
O O11 0.184641 0.000000 0.436969
O O12 0.181082 0.500000 0.270609
O O13 0.250000 0.250000 0.278881
O O14 0.126766 0.274967 0.320867
O O15 0.900318 0.500000 0.104825
O O16 0.000000 0.306240 0.078136
O O17 0.500000 0.213146 0.358426
O O18 0.405503 0.000000 0.378691
#
# Coordination Sequence:
#
# PCOD8272832 Si02
#       6
#    16   8  16  16  16  16
#     4  10  21  37  58  85 114 144 182 227 275 328
#     4  10  21  35  53  79 109 142 180 224 274 326
#     4  10  21  37  58  84 114 149 188 229 275 328
#     4  11  23  39  59  83 112 146 185 228 276 330
#     4   9  18  35  58  80 105 142 186 227 268 320
#     4  10  22  39  59  84 113 146 185 229 277 329
#
# _framework density 19.128582000000002
#
# number of rings (size 3 to 8) (size 9 to 14) (size 15 to 20)
#    0.000    2.000    0.000    3.000    0.000    9.091 
#    0.000    3.636    0.000    2.727    0.000    0.000 
#    0.000    0.000    0.000    0.000    0.000    0.000 
#
# Total GULP energy -545844.540133 kJ/mol
# GULP energy per Si atom -12405.557730 kJ/mol
# Density = 1.908504 g / cm^3
# Si number density = 19.128582 Si / 1000 Ang^3
#
#
#
# Elastic Constant Matrix: (Units=GPa)
#
#
# Indices 1 2 3 4 5 6 
#
# 1 132.8435 55.9937 87.4957 0.0000 0.0000 0.0000
# 2 55.9937 71.3318 54.7343 0.0000 0.0000 0.0000
# 3 87.4957 54.7343 129.6178 0.0000 0.0000 0.0000
# 4 0.0000 0.0000 0.0000 27.8582 0.0000 0.0000
# 5 0.0000 0.0000 0.0000 0.0000 28.8053 0.0000
# 6 0.0000 0.0000 0.0000 0.0000 0.0000 34.8342
#
#
#
# Elastic Compliance Matrix: (Units=1/GPa)
#
#
# Indices 1 2 3 4 5 6 
#
# 1 0.015093 -0.005962 -0.007670 0.000000 0.000000 0.000000
# 2 -0.005962 0.023094 -0.005728 0.000000 0.000000 0.000000
# 3 -0.007670 -0.005728 0.015311 0.000000 0.000000 0.000000
# 4 0.000000 0.000000 0.000000 0.035896 0.000000 0.000000
# 5 0.000000 0.000000 0.000000 0.000000 0.034716 0.000000
# 6 0.000000 0.000000 0.000000 0.000000 0.000000 0.028707
#
#
# Mechanical properties :
#
#
# Convention : Reuss Voigt Hill
#
# Bulk Modulus (GPa) = 67.66710 81.13783 74.40246
# Shear Modulus (GPa) = 25.45018 27.33748 26.39383
#
# Velocity S-wave (km/s) = 3.65153 3.78450 3.71861
# Velocity P-wave (km/s) = 7.29588 7.84893 7.57745
#
# Compressibility (1/GPa) = 0.01477823
#
# Stress axis : x y z
#
# Youngs Moduli (GPa) = 66.25801 43.30205 65.31081
#
# Poissons Ratio (x) = 0.25815 0.50096
# Poissons Ratio (y) = 0.39500 0.37408
# Poissons Ratio (z) = 0.50823 0.24802
#
# Static dielectric constant tensor:
#      x y z
#    x 3.534490 0.000000 0.000000 
#    y 0.000000 3.483850 0.000000 
#    z 0.000000 0.000000 3.599680 
# 
# 
# High freq. dielectric constant tensor:
#      x y z
#    x 1.746550 0.000000 0.000000 
#    y 0.000000 1.746110 0.000000 
#    z 0.000000 0.000000 1.755070 
# 
# From -- ./inp_files/71035.got.cif
#   From: 2010.03.12/outbox.cif.g09.slc.cpg/sg65_36_cif.got.tgz:71035.got - 2010.04.10 20:52:16.
