data_PCOD8272312
_publ_section_title
;
Structure prediction by ZEFSAII (Michael W. Deem and Ramdas Pophale) SiO2 
 PCOD8272312
Probable space group: C M M M
;
_chemical_formula_sum "Si O2"
_cell_formula_units_Z 88
_cell_length_a 7.885001
_cell_length_b 18.320544
_cell_length_c 30.416434
_cell_angle_alpha 90.000000
_cell_angle_beta 90.000000
_cell_angle_gamma 90.000000
_cell_volume 4393.882251
_symmetry_space_group_name_H-M "C M M M"
_symmetry_group_IT_number 65
_symmetry_cell_setting 'orthorhombic'
loop_
_space_group_symop_operation_xyz
x,y,z
-x,-y,z
x,-y,-z
-x,y,-z
-x,-y,-z
x,y,-z
-x,y,z
x,-y,z
1/2+x,1/2+y,z
1/2-x,1/2-y,z
1/2+x,1/2-y,-z
1/2-x,1/2+y,-z
1/2-x,1/2-y,-z
1/2+x,1/2+y,-z
1/2-x,1/2+y,z
1/2+x,1/2-y,z
loop_
_atom_site_type_symbol
_atom_site_label
_atom_site_fract_x
_atom_site_fract_y
_atom_site_fract_z
Si Si1 0.810571 0.084208 0.107974
Si Si2 0.799639 0.833276 0.359103
Si Si3 0.799841 0.833518 0.453606
Si Si4 0.500000 0.913370 0.950950
Si Si5 0.692437 0.167965 0.810272
Si Si6 0.700148 0.584270 0.274209
O O1 0.670578 0.113856 0.073609
O O2 0.806364 0.130256 0.152618
O O3 0.000000 0.092677 0.087619
O O4 0.772606 0.000000 0.119828
O O5 0.750000 0.750000 0.350349
O O6 0.728612 0.863638 0.406678
O O7 0.727846 0.883305 0.320000
O O8 0.000000 0.839141 0.359672
O O9 0.730749 0.869730 0.500000
O O10 0.750000 0.750000 0.454701
O O11 0.000000 0.842111 0.453334
O O12 0.500000 0.000000 0.953672
O O13 0.500000 0.879763 0.000000
O O14 0.500000 0.165749 0.826868
O O15 0.750000 0.250000 0.802048
O O16 0.706356 0.124931 0.764976
O O17 0.500000 0.596754 0.269530
O O18 0.749695 0.500000 0.272445
#
# Coordination Sequence:
#
# PCOD8272312 Si02
#       6
#    16  16  16   8  16  16
#     4  10  20  36  59  88 121 156 194 238 285 331
#     4   9  17  29  46  68  95 128 165 212 263 317
#     4   8  13  22  38  61  88 118 156 203 256 310
#     4   9  18  34  58  90 124 158 199 241 280 328
#     4  12  24  38  57  82 109 142 182 229 276 333
#     4  10  21  36  52  72 102 138 176 217 268 328
#
# _framework density 20.027844999999999
#
# number of rings (size 3 to 8) (size 9 to 14) (size 15 to 20)
#    0.000    2.273    0.909    2.727    0.000    5.091 
#    0.000    1.818    0.000    1.091    0.000    3.818 
#    0.000    0.000    0.000   31.091    0.000   15.636 
#
# Total GULP energy -545163.340458 kJ/mol
# GULP energy per Si atom -12390.075919 kJ/mol
# Density = 1.998226 g / cm^3
# Si number density = 20.027845 Si / 1000 Ang^3
#
#
#
# Elastic Constant Matrix: (Units=GPa)
#
#
# Indices 1 2 3 4 5 6 
#
# 1 78.0111 19.7559 40.0960 0.0000 0.0000 0.0000
# 2 19.7559 80.8772 50.0096 0.0000 0.0000 0.0000
# 3 40.0960 50.0096 175.5017 0.0000 0.0000 0.0000
# 4 0.0000 0.0000 0.0000 23.9468 0.0000 0.0000
# 5 0.0000 0.0000 0.0000 0.0000 8.7872 0.0000
# 6 0.0000 0.0000 0.0000 0.0000 0.0000 15.6181
#
#
#
# Elastic Compliance Matrix: (Units=1/GPa)
#
#
# Indices 1 2 3 4 5 6 
#
# 1 0.014747 -0.001844 -0.002844 0.000000 0.000000 0.000000
# 2 -0.001844 0.015239 -0.003921 0.000000 0.000000 0.000000
# 3 -0.002844 -0.003921 0.007465 0.000000 0.000000 0.000000
# 4 0.000000 0.000000 0.000000 0.041759 0.000000 0.000000
# 5 0.000000 0.000000 0.000000 0.000000 0.113802 0.000000
# 6 0.000000 0.000000 0.000000 0.000000 0.000000 0.064028
#
#
# Mechanical properties :
#
#
# Convention : Reuss Voigt Hill
#
# Bulk Modulus (GPa) = 49.42201 61.56811 55.49506
# Shear Modulus (GPa) = 17.79336 24.63899 21.21617
#
# Velocity S-wave (km/s) = 2.98389 3.51128 3.25827
# Velocity P-wave (km/s) = 6.04993 6.87363 6.47489
#
# Compressibility (1/GPa) = 0.02023390
#
# Stress axis : x y z
#
# Youngs Moduli (GPa) = 67.80896 65.61896 133.95784
#
# Poissons Ratio (x) = 0.12099 0.38095
# Poissons Ratio (y) = 0.12503 0.52528
# Poissons Ratio (z) = 0.19284 0.25731
#
# Static dielectric constant tensor:
#      x y z
#    x 3.587020 0.000000 0.000000 
#    y 0.000000 3.276560 0.000000 
#    z 0.000000 0.000000 4.254940 
# 
# 
# High freq. dielectric constant tensor:
#      x y z
#    x 1.778220 0.000000 0.000000 
#    y 0.000000 1.736430 0.000000 
#    z 0.000000 0.000000 1.799970 
# 
# From -- ./inp_files/76612.got.cif
#   From: 2010.03.12/outbox.cif.g09.slc.cpg/sg65_39_cif.got.tgz:76612.got - 2010.04.10 20:52:16.
