data_PCOD8272311
_publ_section_title
;
Structure prediction by ZEFSAII (Michael W. Deem and Ramdas Pophale) SiO2 
 PCOD8272311
Probable space group: C M M M
;
_chemical_formula_sum "Si O2"
_cell_formula_units_Z 88
_cell_length_a 19.022744
_cell_length_b 7.944114
_cell_length_c 29.580108
_cell_angle_alpha 90.000000
_cell_angle_beta 90.000000
_cell_angle_gamma 90.000000
_cell_volume 4470.111813
_symmetry_space_group_name_H-M "C M M M"
_symmetry_group_IT_number 65
_symmetry_cell_setting 'orthorhombic'
loop_
_space_group_symop_operation_xyz
x,y,z
-x,-y,z
x,-y,-z
-x,y,-z
-x,-y,-z
x,y,-z
-x,y,z
x,-y,z
1/2+x,1/2+y,z
1/2-x,1/2-y,z
1/2+x,1/2-y,-z
1/2-x,1/2+y,-z
1/2-x,1/2-y,-z
1/2+x,1/2+y,-z
1/2-x,1/2+y,z
1/2+x,1/2-y,z
loop_
_atom_site_type_symbol
_atom_site_label
_atom_site_fract_x
_atom_site_fract_y
_atom_site_fract_z
Si Si1 0.670328 0.809089 0.808506
Si Si2 0.081225 0.188990 0.889138
Si Si3 0.916785 0.500000 0.050329
Si Si4 0.580231 0.693351 0.271381
Si Si5 0.919646 0.697402 0.631116
Si Si6 0.672331 0.198724 0.450073
O O1 0.750000 0.750000 0.803465
O O2 0.628255 0.696492 0.844357
O O3 0.631896 0.798845 0.760323
O O4 0.668829 0.000000 0.825700
O O5 0.108381 0.329247 0.924633
O O6 0.000000 0.224308 0.875912
O O7 0.089071 0.000000 0.909759
O O8 0.000000 0.500000 0.047070
O O9 0.883803 0.500000 0.000000
O O10 0.500000 0.760699 0.266540
O O11 0.584870 0.500000 0.256878
O O12 0.606151 0.714300 0.322896
O O13 0.906273 0.500000 0.636586
O O14 0.878335 0.774429 0.588306
O O15 0.000000 0.740988 0.621710
O O16 0.653793 0.272643 0.500000
O O17 0.750000 0.250000 0.435834
O O18 0.664243 0.000000 0.451517
#
# Coordination Sequence:
#
# PCOD8272311 Si02
#       6
#    16  16   8  16  16  16
#     4  12  24  38  57  83 113 149 189 234 282 335
#     4  10  20  36  59  88 120 155 195 239 289 341
#     4   9  18  34  58  90 122 154 197 243 288 338
#     4  10  21  37  56  79 109 143 181 224 273 333
#     4   9  18  33  52  74 100 133 172 216 267 319
#     4   9  18  32  50  72  98 130 169 213 264 321
#
# _framework density 19.686309000000001
#
# number of rings (size 3 to 8) (size 9 to 14) (size 15 to 20)
#    0.000    2.091    0.909    2.727    0.000    5.455 
#    0.000    5.455    0.000    0.545    0.000    5.091 
#    0.000    0.000    0.000    0.000    0.000    0.000 
#
# Total GULP energy -545590.030302 kJ/mol
# GULP energy per Si atom -12399.773416 kJ/mol
# Density = 1.964150 g / cm^3
# Si number density = 19.686309 Si / 1000 Ang^3
#
#
#
# Elastic Constant Matrix: (Units=GPa)
#
#
# Indices 1 2 3 4 5 6 
#
# 1 89.3170 25.7980 70.2839 0.0000 0.0000 0.0000
# 2 25.7980 86.2976 38.4141 0.0000 0.0000 0.0000
# 3 70.2839 38.4141 137.3657 0.0000 0.0000 0.0000
# 4 0.0000 0.0000 0.0000 22.8784 0.0000 0.0000
# 5 0.0000 0.0000 0.0000 0.0000 11.8998 0.0000
# 6 0.0000 0.0000 0.0000 0.0000 0.0000 22.4155
#
#
#
# Elastic Compliance Matrix: (Units=1/GPa)
#
#
# Indices 1 2 3 4 5 6 
#
# 1 0.018919 -0.001538 -0.009250 0.000000 0.000000 0.000000
# 2 -0.001538 0.013360 -0.002949 0.000000 0.000000 0.000000
# 3 -0.009250 -0.002949 0.012837 0.000000 0.000000 0.000000
# 4 0.000000 0.000000 0.000000 0.043709 0.000000 0.000000
# 5 0.000000 0.000000 0.000000 0.000000 0.084035 0.000000
# 6 0.000000 0.000000 0.000000 0.000000 0.000000 0.044612
#
#
# Mechanical properties :
#
#
# Convention : Reuss Voigt Hill
#
# Bulk Modulus (GPa) = 56.68210 64.66358 60.67284
# Shear Modulus (GPa) = 19.93390 23.33769 21.63579
#
# Velocity S-wave (km/s) = 3.18555 3.44681 3.31875
# Velocity P-wave (km/s) = 6.51041 6.98276 6.75072
#
# Compressibility (1/GPa) = 0.01764225
#
# Stress axis : x y z
#
# Youngs Moduli (GPa) = 52.85631 74.84781 77.89768
#
# Poissons Ratio (x) = 0.11514 0.72055
# Poissons Ratio (y) = 0.08131 0.22973
# Poissons Ratio (z) = 0.48892 0.22074
#
# Static dielectric constant tensor:
#      x y z
#    x 3.447660 0.000000 0.000000 
#    y 0.000000 3.583870 0.000000 
#    z 0.000000 0.000000 3.782140 
# 
# 
# High freq. dielectric constant tensor:
#      x y z
#    x 1.746420 0.000000 0.000000 
#    y 0.000000 1.769760 0.000000 
#    z 0.000000 0.000000 1.767290 
# 
# From -- ./inp_files/77954.got.cif
#   From: 2010.03.12/outbox.cif.g09.slc.cpg/sg65_39_cif.got.tgz:77954.got - 2010.04.10 20:52:16.
