data_PCOD8272684
_publ_section_title
;
Structure prediction by ZEFSAII (Michael W. Deem and Ramdas Pophale) SiO2 
 PCOD8272684
Probable space group: C M M M
;
_chemical_formula_sum "Si O2"
_cell_formula_units_Z 128
_cell_length_a 29.810398
_cell_length_b 9.757481
_cell_length_c 25.305848
_cell_angle_alpha 90.000000
_cell_angle_beta 90.000000
_cell_angle_gamma 90.000000
_cell_volume 7360.823153
_symmetry_space_group_name_H-M "C M M M"
_symmetry_group_IT_number 65
_symmetry_cell_setting 'orthorhombic'
loop_
_space_group_symop_operation_xyz
x,y,z
-x,-y,z
x,-y,-z
-x,y,-z
-x,-y,-z
x,y,-z
-x,y,z
x,-y,z
1/2+x,1/2+y,z
1/2-x,1/2-y,z
1/2+x,1/2-y,-z
1/2-x,1/2+y,-z
1/2-x,1/2-y,-z
1/2+x,1/2+y,-z
1/2-x,1/2+y,z
1/2+x,1/2-y,z
loop_
_atom_site_type_symbol
_atom_site_label
_atom_site_fract_x
_atom_site_fract_y
_atom_site_fract_z
Si Si1 0.385493 0.663087 0.852222
Si Si2 0.711571 0.847589 0.562827
Si Si3 0.050186 0.837000 0.058354
Si Si4 0.112801 0.662404 0.558283
Si Si5 0.287330 0.651625 0.853563
Si Si6 0.288383 0.348684 0.271729
Si Si7 0.947396 0.660567 0.345569
Si Si8 0.889886 0.837407 0.732780
O O1 0.385036 0.500000 0.853625
O O2 0.419165 0.727133 0.895478
O O3 0.335848 0.714587 0.867677
O O4 0.398753 0.708825 0.793240
O O5 0.715567 0.853326 0.500000
O O6 0.750000 0.750000 0.587336
O O7 0.662213 0.787844 0.577691
O O8 0.718471 0.000000 0.586350
O O9 0.000000 0.781460 0.067194
O O10 0.050535 0.000000 0.062423
O O11 0.067463 0.792345 0.000000
O O12 0.101343 0.723260 0.500000
O O13 0.114972 0.500000 0.553854
O O14 0.074639 0.708891 0.599146
O O15 0.281042 0.500000 0.877862
O O16 0.250000 0.750000 0.878863
O O17 0.282659 0.643330 0.790815
O O18 0.280968 0.500000 0.295854
O O19 0.250000 0.250000 0.296358
O O20 0.339036 0.297671 0.284704
O O21 0.938083 0.500000 0.334674
O O22 0.925757 0.751320 0.299902
O O23 0.000000 0.691759 0.348656
O O24 0.897755 0.000000 0.725304
#
# Coordination Sequence:
#
# PCOD8272684 Si02
#       8
#    16  16  16  16  16  16  16  16
#     4   8  14  25  41  61  86 118 152 181 214 263
#     4   8  13  23  42  67  92 116 141 170 208 257
#     4   8  13  21  35  58  86 112 142 185 231 267
#     4   8  15  30  51  71  90 115 148 184 222 265
#     4   8  13  22  37  58  84 112 144 180 213 250
#     4   8  14  25  42  64  88 115 148 183 217 257
#     4  10  21  35  50  69  92 117 149 193 238 272
#     4   9  18  32  48  67  93 124 155 183 218 273
#
# _framework density 17.389358999999999
#
# number of rings (size 3 to 8) (size 9 to 14) (size 15 to 20)
#    0.000    3.625    0.000    2.625    0.000    1.500 
#    0.000    5.625    0.000    4.500    0.000    0.875 
#    0.000    1.500    0.000    6.875    0.000    6.000 
#
# Total GULP energy -793015.830090 kJ/mol
# GULP energy per Si atom -12390.872345 kJ/mol
# Density = 1.734978 g / cm^3
# Si number density = 17.389359 Si / 1000 Ang^3
#
#
#
# Elastic Constant Matrix: (Units=GPa)
#
#
# Indices 1 2 3 4 5 6 
#
# 1 155.0831 52.4776 74.0098 0.0000 0.0000 0.0000
# 2 52.4776 48.3283 30.4168 0.0000 0.0000 0.0000
# 3 74.0098 30.4168 86.6672 0.0000 0.0000 0.0000
# 4 0.0000 0.0000 0.0000 9.5999 0.0000 0.0000
# 5 0.0000 0.0000 0.0000 0.0000 6.4431 0.0000
# 6 0.0000 0.0000 0.0000 0.0000 0.0000 26.2002
#
#
#
# Elastic Compliance Matrix: (Units=1/GPa)
#
#
# Indices 1 2 3 4 5 6 
#
# 1 0.013656 -0.009612 -0.008288 0.000000 0.000000 0.000000
# 2 -0.009612 0.033324 -0.003487 0.000000 0.000000 0.000000
# 3 -0.008288 -0.003487 0.019840 0.000000 0.000000 0.000000
# 4 0.000000 0.000000 0.000000 0.104168 0.000000 0.000000
# 5 0.000000 0.000000 0.000000 0.000000 0.155205 0.000000
# 6 0.000000 0.000000 0.000000 0.000000 0.000000 0.038168
#
#
# Mechanical properties :
#
#
# Convention : Reuss Voigt Hill
#
# Bulk Modulus (GPa) = 41.58840 67.09854 54.34347
# Shear Modulus (GPa) = 12.04385 17.32694 14.68539
#
# Velocity S-wave (km/s) = 2.63458 3.16002 2.90919
# Velocity P-wave (km/s) = 5.76391 7.21000 6.52712
#
# Compressibility (1/GPa) = 0.02404516
#
# Stress axis : x y z
#
# Youngs Moduli (GPa) = 73.22739 30.00852 50.40338
#
# Poissons Ratio (x) = 0.28845 0.41775
# Poissons Ratio (y) = 0.70387 0.17576
# Poissons Ratio (z) = 0.60692 0.10464
#
# Static dielectric constant tensor:
#      x y z
#    x 3.527110 0.000000 0.000000 
#    y 0.000000 3.058750 0.000000 
#    z 0.000000 0.000000 3.188960 
# 
# 
# High freq. dielectric constant tensor:
#      x y z
#    x 1.678270 0.000000 0.000000 
#    y 0.000000 1.627260 0.000000 
#    z 0.000000 0.000000 1.648320 
# 
# From -- ./inp_files/72000.got.cif
#   From: 2010.03.12/outbox.cif.g09.slc.cpg/sg65_36_cif.got.tgz:72000.got - 2010.04.10 20:52:16.
