data_PCOD8272274
_publ_section_title
;
Structure prediction by ZEFSAII (Michael W. Deem and Ramdas Pophale) SiO2 
 PCOD8272274
Probable space group: C M M M
;
_chemical_formula_sum "Si O2"
_cell_formula_units_Z 88
_cell_length_a 19.268993
_cell_length_b 25.041522
_cell_length_c 9.357515
_cell_angle_alpha 90.000000
_cell_angle_beta 90.000000
_cell_angle_gamma 90.000000
_cell_volume 4515.234103
_symmetry_space_group_name_H-M "C M M M"
_symmetry_group_IT_number 65
_symmetry_cell_setting 'orthorhombic'
loop_
_space_group_symop_operation_xyz
x,y,z
-x,-y,z
x,-y,-z
-x,y,-z
-x,-y,-z
x,y,-z
-x,y,z
x,-y,z
1/2+x,1/2+y,z
1/2-x,1/2-y,z
1/2+x,1/2-y,-z
1/2-x,1/2+y,-z
1/2-x,1/2-y,-z
1/2+x,1/2+y,-z
1/2-x,1/2+y,z
1/2+x,1/2-y,z
loop_
_atom_site_type_symbol
_atom_site_label
_atom_site_fract_x
_atom_site_fract_y
_atom_site_fract_z
Si Si1 0.811147 0.708109 0.662689
Si Si2 0.580639 0.366789 0.662724
Si Si3 0.194858 0.417824 0.335835
Si Si4 0.579787 0.738098 0.163973
Si Si5 0.578082 0.000000 0.666752
Si Si6 0.175192 0.059446 0.842064
O O1 0.833914 0.719956 0.500000
O O2 0.750000 0.750000 0.705599
O O3 0.794729 0.645824 0.681889
O O4 0.875095 0.714592 0.770669
O O5 0.605951 0.360111 0.500000
O O6 0.500000 0.380342 0.671618
O O7 0.599693 0.313456 0.745555
O O8 0.621115 0.413887 0.736503
O O9 0.211008 0.433547 0.500000
O O10 0.120856 0.445353 0.292319
O O11 0.249470 0.443072 0.228413
O O12 0.500000 0.754202 0.181902
O O13 0.599063 0.727570 0.000000
O O14 0.500000 0.000000 0.738347
O O15 0.565919 0.000000 0.500000
O O16 0.147550 0.000000 0.861397
O O17 0.178022 0.086911 0.000000
#
# Coordination Sequence:
#
# PCOD8272274 Si02
#       6
#    16  16  16  16   8  16
#     4  10  21  35  54  84 116 148 192 241 289 344
#     4  10  21  37  58  83 112 149 192 237 282 331
#     4  10  20  36  59  83 112 150 191 242 293 343
#     4  10  21  37  57  82 114 151 188 228 281 344
#     4   9  18  34  57  85 112 143 192 247 297 348
#     4  11  23  37  56  82 114 151 189 232 284 343
#
# _framework density 19.489574999999999
#
# number of rings (size 3 to 8) (size 9 to 14) (size 15 to 20)
#    0.000    1.909    0.909    2.727    0.000    6.909 
#    0.000    3.636    0.000    1.091    0.000    0.000 
#    0.000    0.000    0.000    0.000    0.000    0.000 
#
# Total GULP energy -545352.401035 kJ/mol
# GULP energy per Si atom -12394.372751 kJ/mol
# Density = 1.944522 g / cm^3
# Si number density = 19.489575 Si / 1000 Ang^3
#
#
#
# Elastic Constant Matrix: (Units=GPa)
#
#
# Indices 1 2 3 4 5 6 
#
# 1 52.6871 39.2080 38.3580 0.0000 0.0000 0.0000
# 2 39.2080 91.7575 33.4847 0.0000 0.0000 0.0000
# 3 38.3580 33.4847 121.9808 0.0000 0.0000 0.0000
# 4 0.0000 0.0000 0.0000 23.8061 0.0000 0.0000
# 5 0.0000 0.0000 0.0000 0.0000 31.0895 0.0000
# 6 0.0000 0.0000 0.0000 0.0000 0.0000 31.2949
#
#
#
# Elastic Compliance Matrix: (Units=1/GPa)
#
#
# Indices 1 2 3 4 5 6 
#
# 1 0.032612 -0.011327 -0.007146 0.000000 0.000000 0.000000
# 2 -0.011327 0.016046 -0.000843 0.000000 0.000000 0.000000
# 3 -0.007146 -0.000843 0.010676 0.000000 0.000000 0.000000
# 4 0.000000 0.000000 0.000000 0.042006 0.000000 0.000000
# 5 0.000000 0.000000 0.000000 0.000000 0.032165 0.000000
# 6 0.000000 0.000000 0.000000 0.000000 0.000000 0.031954
#
#
# Mechanical properties :
#
#
# Convention : Reuss Voigt Hill
#
# Bulk Modulus (GPa) = 48.30309 54.28074 51.29192
# Shear Modulus (GPa) = 23.69763 27.59643 25.64703
#
# Velocity S-wave (km/s) = 3.49078 3.76700 3.63152
# Velocity P-wave (km/s) = 6.40978 6.84340 6.63013
#
# Compressibility (1/GPa) = 0.02070261
#
# Stress axis : x y z
#
# Youngs Moduli (GPa) = 30.66387 62.32073 93.66499
#
# Poissons Ratio (x) = 0.70593 0.66929
# Poissons Ratio (y) = 0.34734 0.07894
# Poissons Ratio (z) = 0.21911 0.05252
#
# Static dielectric constant tensor:
#      x y z
#    x 3.608910 0.000000 0.000000 
#    y 0.000000 3.562710 0.000000 
#    z 0.000000 0.000000 3.713070 
# 
# 
# High freq. dielectric constant tensor:
#      x y z
#    x 1.756890 0.000000 0.000000 
#    y 0.000000 1.759030 0.000000 
#    z 0.000000 0.000000 1.759140 
# 
# From -- ./inp_files/11705.got.cif
#   From: 2010.03.12/outbox.cif.g09.slc.cpg/sg65_6_cif.got.tgz:11705.got - 2010.04.10 20:52:16.
