data_PCOD8272309
_publ_section_title
;
Structure prediction by ZEFSAII (Michael W. Deem and Ramdas Pophale) SiO2 
 PCOD8272309
Probable space group: C M M M
;
_chemical_formula_sum "Si O2"
_cell_formula_units_Z 64
_cell_length_a 8.661491
_cell_length_b 23.938049
_cell_length_c 15.491370
_cell_angle_alpha 90.000000
_cell_angle_beta 90.000000
_cell_angle_gamma 90.000000
_cell_volume 3211.968200
_symmetry_space_group_name_H-M "C M M M"
_symmetry_group_IT_number 65
_symmetry_cell_setting 'orthorhombic'
loop_
_space_group_symop_operation_xyz
x,y,z
-x,-y,z
x,-y,-z
-x,y,-z
-x,-y,-z
x,y,-z
-x,y,z
x,-y,z
1/2+x,1/2+y,z
1/2-x,1/2-y,z
1/2+x,1/2-y,-z
1/2-x,1/2+y,-z
1/2-x,1/2-y,-z
1/2+x,1/2+y,-z
1/2-x,1/2+y,z
1/2+x,1/2-y,z
loop_
_atom_site_type_symbol
_atom_site_label
_atom_site_fract_x
_atom_site_fract_y
_atom_site_fract_z
Si Si1 0.816782 0.500000 0.596477
Si Si2 0.682426 0.811160 0.500000
Si Si3 0.682400 0.380493 0.156280
Si Si4 0.683127 0.118106 0.663886
Si Si5 0.317617 0.811373 0.000000
Si Si6 0.817145 0.000000 0.903569
O O1 0.746753 0.500000 0.500000
O O2 0.759567 0.445118 0.646640
O O3 0.000000 0.500000 0.589128
O O4 0.500000 0.808160 0.500000
O O5 0.750000 0.750000 0.500000
O O6 0.740135 0.843669 0.415154
O O7 0.500000 0.374924 0.145035
O O8 0.734526 0.359249 0.250190
O O9 0.762258 0.342758 0.085120
O O10 0.740187 0.444545 0.145533
O O11 0.500000 0.121091 0.675528
O O12 0.250000 0.750000 0.000000
O O13 0.500000 0.808026 0.000000
O O14 0.000000 0.000000 0.909222
O O15 0.746982 0.000000 0.000000
#
# Coordination Sequence:
#
# PCOD8272309 Si02
#       6
#     8   8  16  16   8   8
#     4   9  15  30  59  88 116 152 196 249 307 354
#     4  10  22  39  59  81 113 154 197 244 294 346
#     4  11  22  39  63  91 124 162 198 241 297 357
#     4  10  20  36  59  88 118 153 197 247 300 355
#     4  12  26  45  66  89 117 154 202 252 299 354
#     4   9  17  34  60  87 121 161 194 232 291 354
#
# _framework density 19.925477000000001
#
# number of rings (size 3 to 8) (size 9 to 14) (size 15 to 20)
#    0.000    1.750    2.500    2.625    0.000    2.000 
#    0.000    5.000    0.000    0.750    0.000    0.000 
#    0.000    0.000    0.000    0.000    0.000    0.000 
#
# Total GULP energy -396867.433454 kJ/mol
# GULP energy per Si atom -12402.107295 kJ/mol
# Density = 1.988013 g / cm^3
# Si number density = 19.925477 Si / 1000 Ang^3
#
#
#
# Elastic Constant Matrix: (Units=GPa)
#
#
# Indices 1 2 3 4 5 6 
#
# 1 71.4202 47.8974 50.3357 0.0000 0.0000 0.0000
# 2 47.8974 163.6754 81.3132 0.0000 0.0000 0.0000
# 3 50.3357 81.3132 188.6742 0.0000 0.0000 0.0000
# 4 0.0000 0.0000 0.0000 2.7620 0.0000 0.0000
# 5 0.0000 0.0000 0.0000 0.0000 24.1778 0.0000
# 6 0.0000 0.0000 0.0000 0.0000 0.0000 28.1554
#
#
#
# Elastic Compliance Matrix: (Units=1/GPa)
#
#
# Indices 1 2 3 4 5 6 
#
# 1 0.018992 -0.003869 -0.003399 0.000000 0.000000 0.000000
# 2 -0.003869 0.008562 -0.002658 0.000000 0.000000 0.000000
# 3 -0.003399 -0.002658 0.007353 0.000000 0.000000 0.000000
# 4 0.000000 0.000000 0.000000 0.362059 0.000000 0.000000
# 5 0.000000 0.000000 0.000000 0.000000 0.041360 0.000000
# 6 0.000000 0.000000 0.000000 0.000000 0.000000 0.035517
#
#
# Mechanical properties :
#
#
# Convention : Reuss Voigt Hill
#
# Bulk Modulus (GPa) = 66.42586 86.98471 76.70528
# Shear Modulus (GPa) = 10.02579 27.30060 18.66319
#
# Velocity S-wave (km/s) = 2.24557 3.70555 3.06379
# Velocity P-wave (km/s) = 6.33506 7.87768 7.14811
#
# Compressibility (1/GPa) = 0.01505438
#
# Stress axis : x y z
#
# Youngs Moduli (GPa) = 52.65318 116.79098 136.00718
#
# Poissons Ratio (x) = 0.45186 0.46235
# Poissons Ratio (y) = 0.20371 0.36150
# Poissons Ratio (z) = 0.17899 0.31042
#
# Static dielectric constant tensor:
#      x y z
#    x 3.293580 0.000000 0.000000 
#    y 0.000000 3.669250 0.000000 
#    z 0.000000 0.000000 3.769690 
# 
# 
# High freq. dielectric constant tensor:
#      x y z
#    x 1.750440 0.000000 0.000000 
#    y 0.000000 1.779950 0.000000 
#    z 0.000000 0.000000 1.795280 
# 
# From -- ./inp_files/36073.got.cif
#   From: 2010.03.12/outbox.cif.g09.slc.cpg/sg65_19_cif.got.tgz:36073.got - 2010.04.10 20:52:16.
