data_PCOD8272912
_publ_section_title
;
Structure prediction by ZEFSAII (Michael W. Deem and Ramdas Pophale) SiO2 
 PCOD8272912
Probable space group: C M M M
;
_chemical_formula_sum "Si O2"
_cell_formula_units_Z 72
_cell_length_a 31.009971
_cell_length_b 8.785877
_cell_length_c 14.268847
_cell_angle_alpha 90.000000
_cell_angle_beta 90.000000
_cell_angle_gamma 90.000000
_cell_volume 3887.544383
_symmetry_space_group_name_H-M "C M M M"
_symmetry_group_IT_number 65
_symmetry_cell_setting 'orthorhombic'
loop_
_space_group_symop_operation_xyz
x,y,z
-x,-y,z
x,-y,-z
-x,y,-z
-x,-y,-z
x,y,-z
-x,y,z
x,-y,z
1/2+x,1/2+y,z
1/2-x,1/2-y,z
1/2+x,1/2-y,-z
1/2-x,1/2+y,-z
1/2-x,1/2-y,-z
1/2+x,1/2+y,-z
1/2-x,1/2+y,z
1/2+x,1/2-y,z
loop_
_atom_site_type_symbol
_atom_site_label
_atom_site_fract_x
_atom_site_fract_y
_atom_site_fract_z
Si Si1 0.372291 0.180792 0.276252
Si Si2 0.588186 0.679464 0.892548
Si Si3 0.500000 0.829958 0.110998
Si Si4 0.547541 0.180403 0.605063
Si Si5 0.795788 0.821689 0.607735
O O1 0.374316 0.245679 0.170444
O O2 0.414462 0.245722 0.330168
O O3 0.330091 0.242437 0.325921
O O4 0.370613 0.000000 0.273916
O O5 0.588308 0.500000 0.881000
O O6 0.542478 0.742557 0.855004
O O7 0.596627 0.727559 0.000000
O O8 0.500000 0.000000 0.154980
O O9 0.500000 0.838279 0.000000
O O10 0.553656 0.245486 0.500000
O O11 0.500000 0.228585 0.643748
O O12 0.550985 0.000000 0.601803
O O13 0.808043 0.787518 0.500000
O O14 0.750000 0.750000 0.632956
O O15 0.794218 0.000000 0.628372
#
# Coordination Sequence:
#
# PCOD8272912 Si02
#       5
#    16  16   8  16  16
#     4  11  21  32  54  83 110 143 185 230 277 330
#     4  10  21  36  52  73 106 147 188 232 282 331
#     4   9  17  31  51  73  98 133 182 235 281 325
#     4   8  15  28  45  69 104 142 178 216 258 310
#     4  10  21  38  60  85 114 145 180 225 276 330
#
# _framework density 18.520689000000001
#
# number of rings (size 3 to 8) (size 9 to 14) (size 15 to 20)
#    0.000    2.333    0.000    3.667    1.556    4.889 
#    0.000    0.000    0.000    0.667    0.000    4.667 
#    0.000    0.000    0.000    0.000    0.000    0.000 
#
# Total GULP energy -446393.618140 kJ/mol
# GULP energy per Si atom -12399.822726 kJ/mol
# Density = 1.847853 g / cm^3
# Si number density = 18.520689 Si / 1000 Ang^3
#
#
#
# Elastic Constant Matrix: (Units=GPa)
#
#
# Indices 1 2 3 4 5 6 
#
# 1 122.1417 54.0814 77.0653 0.0000 0.0000 0.0000
# 2 54.0814 88.3986 51.7772 0.0000 0.0000 0.0000
# 3 77.0653 51.7772 99.7963 0.0000 0.0000 0.0000
# 4 0.0000 0.0000 0.0000 25.4357 0.0000 0.0000
# 5 0.0000 0.0000 0.0000 0.0000 31.3240 0.0000
# 6 0.0000 0.0000 0.0000 0.0000 0.0000 31.1758
#
#
#
# Elastic Compliance Matrix: (Units=1/GPa)
#
#
# Indices 1 2 3 4 5 6 
#
# 1 0.016835 -0.003857 -0.010999 0.000000 0.000000 0.000000
# 2 -0.003857 0.017134 -0.005911 0.000000 0.000000 0.000000
# 3 -0.010999 -0.005911 0.021581 0.000000 0.000000 0.000000
# 4 0.000000 0.000000 0.000000 0.039315 0.000000 0.000000
# 5 0.000000 0.000000 0.000000 0.000000 0.031924 0.000000
# 6 0.000000 0.000000 0.000000 0.000000 0.000000 0.032076
#
#
# Mechanical properties :
#
#
# Convention : Reuss Voigt Hill
#
# Bulk Modulus (GPa) = 71.34967 75.13162 73.24064
# Shear Modulus (GPa) = 24.38148 26.08127 25.23137
#
# Velocity S-wave (km/s) = 3.63222 3.75670 3.69499
# Velocity P-wave (km/s) = 7.49658 7.71177 7.60494
#
# Compressibility (1/GPa) = 0.01401548
#
# Stress axis : x y z
#
# Youngs Moduli (GPa) = 59.40004 58.36181 46.33609
#
# Poissons Ratio (x) = 0.22510 0.50967
# Poissons Ratio (y) = 0.22910 0.27391
# Poissons Ratio (z) = 0.65336 0.34500
#
# Static dielectric constant tensor:
#      x y z
#    x 3.387420 0.000000 0.000000 
#    y 0.000000 3.268430 0.000000 
#    z 0.000000 0.000000 3.506630 
# 
# 
# High freq. dielectric constant tensor:
#      x y z
#    x 1.703470 0.000000 0.000000 
#    y 0.000000 1.709880 0.000000 
#    z 0.000000 0.000000 1.719690 
# 
# From -- ./inp_files/36524.got.cif
#   From: 2010.03.12/outbox.cif.g09.slc.cpg/sg65_19_cif.got.tgz:36524.got - 2010.04.10 20:52:16.
