data_PCOD8272313
_publ_section_title
;
Structure prediction by ZEFSAII (Michael W. Deem and Ramdas Pophale) SiO2 
 PCOD8272313
Probable space group: C M M M
;
_chemical_formula_sum "Si O2"
_cell_formula_units_Z 72
_cell_length_a 18.465585
_cell_length_b 7.892774
_cell_length_c 24.562949
_cell_angle_alpha 90.000000
_cell_angle_beta 90.000000
_cell_angle_gamma 90.000000
_cell_volume 3579.919367
_symmetry_space_group_name_H-M "C M M M"
_symmetry_group_IT_number 65
_symmetry_cell_setting 'orthorhombic'
loop_
_space_group_symop_operation_xyz
x,y,z
-x,-y,z
x,-y,-z
-x,y,-z
-x,-y,-z
x,y,-z
-x,y,z
x,-y,z
1/2+x,1/2+y,z
1/2-x,1/2-y,z
1/2+x,1/2-y,-z
1/2-x,1/2+y,-z
1/2-x,1/2-y,-z
1/2+x,1/2+y,-z
1/2-x,1/2+y,z
1/2+x,1/2-y,z
loop_
_atom_site_type_symbol
_atom_site_label
_atom_site_fract_x
_atom_site_fract_y
_atom_site_fract_z
Si Si1 0.414073 0.500000 0.060727
Si Si2 0.416827 0.200250 0.337660
Si Si3 0.083566 0.689355 0.133662
Si Si4 0.668367 0.307644 0.234139
Si Si5 0.170392 0.300568 0.560075
O O1 0.500000 0.500000 0.057312
O O2 0.387176 0.670589 0.091099
O O3 0.380671 0.500000 0.000000
O O4 0.500000 0.253589 0.333271
O O5 0.372911 0.293523 0.290871
O O6 0.387261 0.266564 0.395882
O O7 0.405831 0.000000 0.331346
O O8 0.091961 0.500000 0.108495
O O9 0.129466 0.693974 0.188836
O O10 0.000000 0.726903 0.148475
O O11 0.665845 0.500000 0.213715
O O12 0.750000 0.250000 0.242874
O O13 0.154532 0.221318 0.500000
O O14 0.164404 0.500000 0.556022
O O15 0.250000 0.250000 0.580359
#
# Coordination Sequence:
#
# PCOD8272313 Si02
#       5
#     8  16  16  16  16
#     4   9  18  34  58  90 124 158 198 240 284 337
#     4  10  21  36  54  79 111 144 184 234 288 348
#     4  10  20  36  59  88 121 156 195 241 290 342
#     4  12  24  38  57  82 111 148 190 238 290 350
#     4   9  18  33  53  76 104 142 186 233 283 339
#
# _framework density 20.112183000000002
#
# number of rings (size 3 to 8) (size 9 to 14) (size 15 to 20)
#    0.000    1.889    1.111    3.333    0.000    6.667 
#    0.000    4.444    0.000    0.667    0.000    4.667 
#    0.000    0.000    0.000    0.000    0.000    0.000 
#
# Total GULP energy -446428.557980 kJ/mol
# GULP energy per Si atom -12400.793277 kJ/mol
# Density = 2.006641 g / cm^3
# Si number density = 20.112183 Si / 1000 Ang^3
#
#
#
# Elastic Constant Matrix: (Units=GPa)
#
#
# Indices 1 2 3 4 5 6 
#
# 1 111.1790 28.2250 58.5638 0.0000 0.0000 0.0000
# 2 28.2250 95.7396 42.0456 0.0000 0.0000 0.0000
# 3 58.5638 42.0456 137.6430 0.0000 0.0000 0.0000
# 4 0.0000 0.0000 0.0000 26.0415 0.0000 0.0000
# 5 0.0000 0.0000 0.0000 0.0000 16.2379 0.0000
# 6 0.0000 0.0000 0.0000 0.0000 0.0000 20.2739
#
#
#
# Elastic Compliance Matrix: (Units=1/GPa)
#
#
# Indices 1 2 3 4 5 6 
#
# 1 0.011768 -0.001467 -0.004559 0.000000 0.000000 0.000000
# 2 -0.001467 0.012246 -0.003117 0.000000 0.000000 0.000000
# 3 -0.004559 -0.003117 0.010157 0.000000 0.000000 0.000000
# 4 0.000000 0.000000 0.000000 0.038400 0.000000 0.000000
# 5 0.000000 0.000000 0.000000 0.000000 0.061584 0.000000
# 6 0.000000 0.000000 0.000000 0.000000 0.000000 0.049324
#
#
# Mechanical properties :
#
#
# Convention : Reuss Voigt Hill
#
# Bulk Modulus (GPa) = 62.94864 66.91450 64.93157
# Shear Modulus (GPa) = 24.14741 26.89248 25.51995
#
# Velocity S-wave (km/s) = 3.46878 3.66064 3.56600
# Velocity P-wave (km/s) = 6.88549 7.15611 7.02210
#
# Compressibility (1/GPa) = 0.01588597
#
# Stress axis : x y z
#
# Youngs Moduli (GPa) = 84.97283 81.65760 98.45503
#
# Poissons Ratio (x) = 0.11982 0.44886
# Poissons Ratio (y) = 0.12468 0.30684
# Poissons Ratio (z) = 0.38739 0.25449
#
# Static dielectric constant tensor:
#      x y z
#    x 3.523980 0.000000 0.000000 
#    y 0.000000 3.676050 0.000000 
#    z 0.000000 0.000000 3.851920 
# 
# 
# High freq. dielectric constant tensor:
#      x y z
#    x 1.768670 0.000000 0.000000 
#    y 0.000000 1.787660 0.000000 
#    z 0.000000 0.000000 1.784350 
# 
# From -- ./inp_files/67112.got.cif
#   From: 2010.03.12/outbox.cif.g09.slc.cpg/sg65_34_cif.got.tgz:67112.got - 2010.04.10 20:52:16.
