data_PCOD8272056
_publ_section_title
;
Structure prediction by ZEFSAII (Michael W. Deem and Ramdas Pophale) SiO2 
 PCOD8272056
Probable space group: C M M M
;
_chemical_formula_sum "Si O2"
_cell_formula_units_Z 88
_cell_length_a 18.373965
_cell_length_b 7.961362
_cell_length_c 29.631727
_cell_angle_alpha 90.000000
_cell_angle_beta 90.000000
_cell_angle_gamma 90.000000
_cell_volume 4334.581970
_symmetry_space_group_name_H-M "C M M M"
_symmetry_group_IT_number 65
_symmetry_cell_setting 'orthorhombic'
loop_
_space_group_symop_operation_xyz
x,y,z
-x,-y,z
x,-y,-z
-x,y,-z
-x,-y,-z
x,y,-z
-x,y,z
x,-y,z
1/2+x,1/2+y,z
1/2-x,1/2-y,z
1/2+x,1/2-y,-z
1/2-x,1/2+y,-z
1/2-x,1/2-y,-z
1/2+x,1/2+y,-z
1/2-x,1/2+y,z
1/2+x,1/2-y,z
loop_
_atom_site_type_symbol
_atom_site_label
_atom_site_fract_x
_atom_site_fract_y
_atom_site_fract_z
Si Si1 0.833127 0.801100 0.802401
Si Si2 0.419935 0.306947 0.716756
Si Si3 0.668044 0.189648 0.365721
Si Si4 0.415581 0.189956 0.889222
Si Si5 0.416909 0.303242 0.448832
Si Si6 0.586250 0.500000 0.050322
O O1 0.750000 0.750000 0.799423
O O2 0.871355 0.730393 0.756997
O O3 0.870004 0.706743 0.843849
O O4 0.841816 0.000000 0.808480
O O5 0.500000 0.220023 0.714960
O O6 0.430931 0.500000 0.727909
O O7 0.380603 0.294515 0.668721
O O8 0.750000 0.250000 0.365367
O O9 0.636521 0.203663 0.416054
O O10 0.665472 0.000000 0.349015
O O11 0.500000 0.223289 0.877840
O O12 0.387120 0.329568 0.924788
O O13 0.404595 0.000000 0.908552
O O14 0.397207 0.252611 0.500000
O O15 0.500000 0.253206 0.438147
O O16 0.405420 0.500000 0.441359
O O17 0.500000 0.500000 0.047483
O O18 0.619917 0.500000 0.000000
#
# Coordination Sequence:
#
# PCOD8272056 Si02
#       6
#    16  16  16  16  16   8
#     4  11  22  37  58  86 118 156 196 242 292 351
#     4  10  22  40  62  86 116 153 191 235 289 348
#     4  12  25  39  57  82 115 153 191 238 288 343
#     4  10  20  35  58  88 120 157 201 249 299 355
#     4   9  19  38  63  87 112 145 186 232 286 348
#     4   9  18  34  58  88 122 158 199 251 302 352
#
# _framework density 20.301843000000002
#
# number of rings (size 3 to 8) (size 9 to 14) (size 15 to 20)
#    0.000    1.727    0.909    4.364    0.000    7.636 
#    0.000    2.727    0.000    0.545    0.000    0.000 
#    0.000    0.000    0.000    0.000    0.000    0.000 
#
# Total GULP energy -545643.471581 kJ/mol
# GULP energy per Si atom -12400.987990 kJ/mol
# Density = 2.025564 g / cm^3
# Si number density = 20.301843 Si / 1000 Ang^3
#
#
#
# Elastic Constant Matrix: (Units=GPa)
#
#
# Indices 1 2 3 4 5 6 
#
# 1 131.6249 30.1666 68.3487 0.0000 0.0000 0.0000
# 2 30.1666 89.1813 36.4363 0.0000 0.0000 0.0000
# 3 68.3487 36.4363 144.2681 0.0000 0.0000 0.0000
# 4 0.0000 0.0000 0.0000 21.0295 0.0000 0.0000
# 5 0.0000 0.0000 0.0000 0.0000 9.5008 0.0000
# 6 0.0000 0.0000 0.0000 0.0000 0.0000 18.3164
#
#
#
# Elastic Compliance Matrix: (Units=1/GPa)
#
#
# Indices 1 2 3 4 5 6 
#
# 1 0.010292 -0.001661 -0.004457 0.000000 0.000000 0.000000
# 2 -0.001661 0.012771 -0.002439 0.000000 0.000000 0.000000
# 3 -0.004457 -0.002439 0.009659 0.000000 0.000000 0.000000
# 4 0.000000 0.000000 0.000000 0.047552 0.000000 0.000000
# 5 0.000000 0.000000 0.000000 0.000000 0.105254 0.000000
# 6 0.000000 0.000000 0.000000 0.000000 0.000000 0.054596
#
#
# Mechanical properties :
#
#
# Convention : Reuss Voigt Hill
#
# Bulk Modulus (GPa) = 64.06059 70.55304 67.30682
# Shear Modulus (GPa) = 19.05198 25.11085 22.08141
#
# Velocity S-wave (km/s) = 3.06671 3.52074 3.30154
# Velocity P-wave (km/s) = 6.64547 7.16624 6.91076
#
# Compressibility (1/GPa) = 0.01561022
#
# Stress axis : x y z
#
# Youngs Moduli (GPa) = 97.16183 78.30102 103.53211
#
# Poissons Ratio (x) = 0.13003 0.46140
# Poissons Ratio (y) = 0.16135 0.25249
# Poissons Ratio (z) = 0.43301 0.19096
#
# Static dielectric constant tensor:
#      x y z
#    x 3.686010 0.000000 0.000000 
#    y 0.000000 3.694850 0.000000 
#    z 0.000000 0.000000 3.725940 
# 
# 
# High freq. dielectric constant tensor:
#      x y z
#    x 1.786880 0.000000 0.000000 
#    y 0.000000 1.793220 0.000000 
#    z 0.000000 0.000000 1.793560 
# 
# From -- ./inp_files/77895.got.cif
#   From: 2010.03.12/outbox.cif.g09.slc.cpg/sg65_39_cif.got.tgz:77895.got - 2010.04.10 20:52:16.
