data_PCOD8272097
_publ_section_title
;
Structure prediction by ZEFSAII (Michael W. Deem and Ramdas Pophale) SiO2 
 PCOD8272097
Probable space group: C M M M
;
_chemical_formula_sum "Si O2"
_cell_formula_units_Z 104
_cell_length_a 8.789742
_cell_length_b 28.728270
_cell_length_c 23.018260
_cell_angle_alpha 90.000000
_cell_angle_beta 90.000000
_cell_angle_gamma 90.000000
_cell_volume 5812.434779
_symmetry_space_group_name_H-M "C M M M"
_symmetry_group_IT_number 65
_symmetry_cell_setting 'orthorhombic'
loop_
_space_group_symop_operation_xyz
x,y,z
-x,-y,z
x,-y,-z
-x,y,-z
-x,-y,-z
x,y,-z
-x,y,z
x,-y,z
1/2+x,1/2+y,z
1/2-x,1/2-y,z
1/2+x,1/2-y,-z
1/2-x,1/2+y,-z
1/2-x,1/2-y,-z
1/2+x,1/2+y,-z
1/2-x,1/2+y,z
1/2+x,1/2-y,z
loop_
_atom_site_type_symbol
_atom_site_label
_atom_site_fract_x
_atom_site_fract_y
_atom_site_fract_z
Si Si1 0.177284 0.145234 0.664781
Si Si2 0.819336 0.699338 0.228538
Si Si3 0.818498 0.301013 0.000000
Si Si4 0.173809 0.948402 0.278718
Si Si5 0.819229 0.353344 0.113783
Si Si6 0.678245 0.798652 0.432918
Si Si7 0.179724 0.449133 0.157375
O O1 0.261934 0.172003 0.715756
O O2 0.206193 0.089848 0.671721
O O3 0.247150 0.159556 0.603088
O O4 0.000000 0.157879 0.666589
O O5 0.750000 0.750000 0.228844
O O6 0.760082 0.673834 0.170418
O O7 0.000000 0.702354 0.230548
O O8 0.750000 0.250000 0.000000
O O9 0.755676 0.328642 0.943877
O O10 0.000000 0.297526 0.000000
O O11 0.278184 0.937688 0.223514
O O12 0.000000 0.944949 0.257299
O O13 0.208813 0.000000 0.304135
O O14 0.759849 0.407109 0.116477
O O15 0.000000 0.352709 0.112626
O O16 0.716285 0.808203 0.500000
O O17 0.500000 0.796486 0.420862
O O18 0.750000 0.750000 0.412084
O O19 0.246651 0.500000 0.138409
O O20 0.000000 0.450780 0.153743
#
# Coordination Sequence:
#
# PCOD8272097 Si02
#       7
#    16  16   8  16  16  16  16
#     4  11  21  33  52  78 105 134 168 208 255 303
#     4  11  21  33  48  70 101 132 166 209 258 305
#     4  10  20  36  53  69  95 131 174 214 253 302
#     4   9  18  32  50  75 105 134 166 206 252 301
#     4   9  18  32  50  72  98 130 165 210 256 300
#     4  10  21  37  56  77 104 139 176 212 250 296
#     4   9  16  29  50  74  99 128 163 202 252 311
#
# _framework density 17.892674
#
# number of rings (size 3 to 8) (size 9 to 14) (size 15 to 20)
#    0.000    2.154    1.538    2.308    0.000    1.538 
#    0.000    1.923    0.000    2.769    0.000    3.231 
#    0.000    3.077    0.000    0.000    0.000    0.000 
#
# Total GULP energy -644681.631383 kJ/mol
# GULP energy per Si atom -12397.723680 kJ/mol
# Density = 1.785195 g / cm^3
# Si number density = 17.892674 Si / 1000 Ang^3
#
#
#
# Elastic Constant Matrix: (Units=GPa)
#
#
# Indices 1 2 3 4 5 6 
#
# 1 47.2666 36.1604 27.3427 0.0000 0.0000 0.0000
# 2 36.1604 166.9830 73.6094 0.0000 0.0000 0.0000
# 3 27.3427 73.6094 101.6355 0.0000 0.0000 0.0000
# 4 0.0000 0.0000 0.0000 31.8371 0.0000 0.0000
# 5 0.0000 0.0000 0.0000 0.0000 15.6554 0.0000
# 6 0.0000 0.0000 0.0000 0.0000 0.0000 1.0721
#
#
#
# Elastic Compliance Matrix: (Units=1/GPa)
#
#
# Indices 1 2 3 4 5 6 
#
# 1 0.026626 -0.003832 -0.004388 0.000000 0.000000 0.000000
# 2 -0.003832 0.009349 -0.005740 0.000000 0.000000 0.000000
# 3 -0.004388 -0.005740 0.015177 0.000000 0.000000 0.000000
# 4 0.000000 0.000000 0.000000 0.031410 0.000000 0.000000
# 5 0.000000 0.000000 0.000000 0.000000 0.063876 0.000000
# 6 0.000000 0.000000 0.000000 0.000000 0.000000 0.932784
#
#
# Mechanical properties :
#
#
# Convention : Reuss Voigt Hill
#
# Bulk Modulus (GPa) = 43.04347 65.56779 54.30563
# Shear Modulus (GPa) = 4.48477 21.63107 13.05792
#
# Velocity S-wave (km/s) = 1.58491 3.48075 2.70440
# Velocity P-wave (km/s) = 5.24003 7.27178 6.33785
#
# Compressibility (1/GPa) = 0.02323233
#
# Stress axis : x y z
#
# Youngs Moduli (GPa) = 37.55682 106.96719 65.89007
#
# Poissons Ratio (x) = 0.40985 0.28914
# Poissons Ratio (y) = 0.14390 0.37821
# Poissons Ratio (z) = 0.16481 0.61399
#
# Static dielectric constant tensor:
#      x y z
#    x 3.241760 0.000000 0.000000 
#    y 0.000000 3.769690 0.000000 
#    z 0.000000 0.000000 3.290750 
# 
# 
# High freq. dielectric constant tensor:
#      x y z
#    x 1.683290 0.000000 0.000000 
#    y 0.000000 1.708110 0.000000 
#    z 0.000000 0.000000 1.671950 
# 
# From -- ./inp_files/68526.got.cif
#   From: 2010.03.12/outbox.cif.g09.slc.cpg/sg65_35_cif.got.tgz:68526.got - 2010.04.10 20:52:16.
