data_PCOD8272561
_publ_section_title
;
Structure prediction by ZEFSAII (Michael W. Deem and Ramdas Pophale) SiO2 
 PCOD8272561
Probable space group: C M M M
;
_chemical_formula_sum "Si O2"
_cell_formula_units_Z 72
_cell_length_a 19.155350
_cell_length_b 7.634273
_cell_length_c 24.152336
_cell_angle_alpha 90.000000
_cell_angle_beta 90.000000
_cell_angle_gamma 90.000000
_cell_volume 3531.969297
_symmetry_space_group_name_H-M "C M M M"
_symmetry_group_IT_number 65
_symmetry_cell_setting 'orthorhombic'
loop_
_space_group_symop_operation_xyz
x,y,z
-x,-y,z
x,-y,-z
-x,y,-z
-x,-y,-z
x,y,-z
-x,y,z
x,-y,z
1/2+x,1/2+y,z
1/2-x,1/2-y,z
1/2+x,1/2-y,-z
1/2-x,1/2+y,-z
1/2-x,1/2-y,-z
1/2+x,1/2+y,-z
1/2-x,1/2+y,z
1/2+x,1/2-y,z
loop_
_atom_site_type_symbol
_atom_site_label
_atom_site_fract_x
_atom_site_fract_y
_atom_site_fract_z
Si Si1 0.419753 0.000000 0.934540
Si Si2 0.671090 0.707600 0.121245
Si Si3 0.423685 0.298862 0.659323
Si Si4 0.326832 0.295035 0.753458
Si Si5 0.173249 0.295443 0.562051
O O1 0.382531 0.821782 0.914354
O O2 0.500000 0.000000 0.913779
O O3 0.416160 0.000000 0.000000
O O4 0.655583 0.500000 0.113750
O O5 0.750000 0.750000 0.102000
O O6 0.661037 0.774803 0.184425
O O7 0.500000 0.208692 0.654797
O O8 0.433324 0.500000 0.674454
O O9 0.380546 0.207822 0.709573
O O10 0.384468 0.288653 0.601052
O O11 0.337056 0.500000 0.754191
O O12 0.250000 0.250000 0.732044
O O13 0.164618 0.217512 0.500000
O O14 0.161204 0.500000 0.561723
O O15 0.250000 0.250000 0.585067
#
# Coordination Sequence:
#
# PCOD8272561 Si02
#       5
#     8  16  16  16  16
#     4  11  26  44  62  94 135 169 210 262 315 374
#     4  10  20  40  67  95 126 164 213 263 313 367
#     4  10  21  36  53  79 114 148 185 228 281 345
#     4   9  19  34  58  85 114 148 187 239 289 342
#     4  10  21  37  56  77 103 137 183 236 286 340
#
# _framework density 20.385228000000001
#
# number of rings (size 3 to 8) (size 9 to 14) (size 15 to 20)
#    0.000    2.111    1.111    1.333    1.556    7.111 
#    0.000    5.556    0.000    0.000    0.000    0.000 
#    0.000    0.000    0.000    0.000    0.000    0.000 
#
# Total GULP energy -446297.694166 kJ/mol
# GULP energy per Si atom -12397.158171 kJ/mol
# Density = 2.033883 g / cm^3
# Si number density = 20.385228 Si / 1000 Ang^3
#
#
#
# Elastic Constant Matrix: (Units=GPa)
#
#
# Indices 1 2 3 4 5 6 
#
# 1 187.4867 33.3659 85.0930 0.0000 0.0000 0.0000
# 2 33.3659 70.9619 22.6847 0.0000 0.0000 0.0000
# 3 85.0930 22.6847 101.1273 0.0000 0.0000 0.0000
# 4 0.0000 0.0000 0.0000 21.2312 0.0000 0.0000
# 5 0.0000 0.0000 0.0000 0.0000 29.8717 0.0000
# 6 0.0000 0.0000 0.0000 0.0000 0.0000 24.3375
#
#
#
# Elastic Compliance Matrix: (Units=1/GPa)
#
#
# Indices 1 2 3 4 5 6 
#
# 1 0.008866 -0.001922 -0.007029 0.000000 0.000000 0.000000
# 2 -0.001922 0.015597 -0.001882 0.000000 0.000000 0.000000
# 3 -0.007029 -0.001882 0.016225 0.000000 0.000000 0.000000
# 4 0.000000 0.000000 0.000000 0.047100 0.000000 0.000000
# 5 0.000000 0.000000 0.000000 0.000000 0.033477 0.000000
# 6 0.000000 0.000000 0.000000 0.000000 0.000000 0.041089
#
#
# Mechanical properties :
#
#
# Convention : Reuss Voigt Hill
#
# Bulk Modulus (GPa) = 52.56719 71.31811 61.94265
# Shear Modulus (GPa) = 26.26595 29.65023 27.95809
#
# Velocity S-wave (km/s) = 3.59343 3.81792 3.70738
# Velocity P-wave (km/s) = 6.56201 7.38218 6.98414
#
# Compressibility (1/GPa) = 0.01902327
#
# Stress axis : x y z
#
# Youngs Moduli (GPa) = 112.79086 64.11414 61.63225
#
# Poissons Ratio (x) = 0.12321 0.43322
# Poissons Ratio (y) = 0.21675 0.11598
# Poissons Ratio (z) = 0.79282 0.12065
#
# Static dielectric constant tensor:
#      x y z
#    x 3.972470 0.000000 0.000000 
#    y 0.000000 3.633960 0.000000 
#    z 0.000000 0.000000 3.907600 
# 
# 
# High freq. dielectric constant tensor:
#      x y z
#    x 1.794850 0.000000 0.000000 
#    y 0.000000 1.792140 0.000000 
#    z 0.000000 0.000000 1.796600 
# 
# From -- ./inp_files/66988.got.cif
#   From: 2010.03.12/outbox.cif.g09.slc.cpg/sg65_34_cif.got.tgz:66988.got - 2010.04.10 20:52:16.
