data_PCOD8272773
_publ_section_title
;
Structure prediction by ZEFSAII (Michael W. Deem and Ramdas Pophale) SiO2 
 PCOD8272773
Probable space group: C M M M
;
_chemical_formula_sum "Si O2"
_cell_formula_units_Z 88
_cell_length_a 9.016849
_cell_length_b 31.143271
_cell_length_c 16.426510
_cell_angle_alpha 90.000000
_cell_angle_beta 90.000000
_cell_angle_gamma 90.000000
_cell_volume 4612.796804
_symmetry_space_group_name_H-M "C M M M"
_symmetry_group_IT_number 65
_symmetry_cell_setting 'orthorhombic'
loop_
_space_group_symop_operation_xyz
x,y,z
-x,-y,z
x,-y,-z
-x,y,-z
-x,-y,-z
x,y,-z
-x,y,z
x,-y,z
1/2+x,1/2+y,z
1/2-x,1/2-y,z
1/2+x,1/2-y,-z
1/2-x,1/2+y,-z
1/2-x,1/2-y,-z
1/2+x,1/2+y,-z
1/2-x,1/2+y,z
1/2+x,1/2-y,z
loop_
_atom_site_type_symbol
_atom_site_label
_atom_site_fract_x
_atom_site_fract_y
_atom_site_fract_z
Si Si1 0.174230 0.631928 0.191146
Si Si2 0.169788 0.206563 0.903492
Si Si3 0.837249 0.343291 0.628515
Si Si4 0.171801 0.047813 0.754007
Si Si5 0.830020 0.793756 0.500000
Si Si6 0.165470 0.560127 0.589962
O O1 0.251035 0.662797 0.125601
O O2 0.205759 0.654015 0.277318
O O3 0.240442 0.583389 0.192686
O O4 0.000000 0.627928 0.172028
O O5 0.250000 0.250000 0.870653
O O6 0.000000 0.207334 0.872676
O O7 0.177703 0.205667 0.000000
O O8 0.711390 0.317204 0.583282
O O9 0.841076 0.389097 0.586923
O O10 0.000000 0.321667 0.618348
O O11 0.224452 0.044661 0.660243
O O12 0.000000 0.061003 0.754297
O O13 0.194448 0.000000 0.792406
O O14 0.750000 0.750000 0.500000
O O15 0.000000 0.785090 0.500000
O O16 0.217580 0.544009 0.500000
O O17 0.000000 0.542423 0.609011
#
# Coordination Sequence:
#
# PCOD8272773 Si02
#       6
#    16  16  16  16   8  16
#     4  10  21  37  60  85 111 149 189 230 280 334
#     4  10  21  38  62  92 124 153 181 220 272 331
#     4   9  18  35  52  69  98 133 175 224 271 321
#     4  10  21  35  51  76 111 148 188 236 286 337
#     4  12  24  34  48  68  93 132 177 224 276 325
#     4   9  17  31  51  71  96 134 178 228 282 334
#
# _framework density 19.077362999999998
#
# number of rings (size 3 to 8) (size 9 to 14) (size 15 to 20)
#    0.000    2.182    0.909    3.545    0.000    7.636 
#    0.000    1.818    0.000    0.545    0.000    3.818 
#    0.000    0.000    0.000    0.000    0.000    0.000 
#
# Total GULP energy -545325.249803 kJ/mol
# GULP energy per Si atom -12393.755677 kJ/mol
# Density = 1.903394 g / cm^3
# Si number density = 19.077363 Si / 1000 Ang^3
#
#
#
# Elastic Constant Matrix: (Units=GPa)
#
#
# Indices 1 2 3 4 5 6 
#
# 1 145.8828 67.3117 27.5921 0.0000 0.0000 0.0000
# 2 67.3117 122.5186 27.4594 0.0000 0.0000 0.0000
# 3 27.5921 27.4594 31.3427 0.0000 0.0000 0.0000
# 4 0.0000 0.0000 0.0000 10.3447 0.0000 0.0000
# 5 0.0000 0.0000 0.0000 0.0000 29.1647 0.0000
# 6 0.0000 0.0000 0.0000 0.0000 0.0000 19.2650
#
#
#
# Elastic Compliance Matrix: (Units=1/GPa)
#
#
# Indices 1 2 3 4 5 6 
#
# 1 0.009738 -0.004266 -0.004835 0.000000 0.000000 0.000000
# 2 -0.004266 0.012025 -0.006780 0.000000 0.000000 0.000000
# 3 -0.004835 -0.006780 0.042101 0.000000 0.000000 0.000000
# 4 0.000000 0.000000 0.000000 0.096668 0.000000 0.000000
# 5 0.000000 0.000000 0.000000 0.000000 0.034288 0.000000
# 6 0.000000 0.000000 0.000000 0.000000 0.000000 0.051908
#
#
# Mechanical properties :
#
#
# Convention : Reuss Voigt Hill
#
# Bulk Modulus (GPa) = 31.14985 60.49672 45.82329
# Shear Modulus (GPa) = 17.28962 23.58028 20.43495
#
# Velocity S-wave (km/s) = 3.01373 3.51954 3.27641
# Velocity P-wave (km/s) = 5.33608 6.94956 6.19557
#
# Compressibility (1/GPa) = 0.03210288
#
# Stress axis : x y z
#
# Youngs Moduli (GPa) = 102.69268 83.15694 23.75227
#
# Poissons Ratio (x) = 0.35478 0.11484
# Poissons Ratio (y) = 0.43812 0.16103
# Poissons Ratio (z) = 0.49649 0.56378
#
# Static dielectric constant tensor:
#      x y z
#    x 3.387810 0.000000 0.000000 
#    y 0.000000 3.497240 0.000000 
#    z 0.000000 0.000000 3.227730 
# 
# 
# High freq. dielectric constant tensor:
#      x y z
#    x 1.748170 0.000000 0.000000 
#    y 0.000000 1.749870 0.000000 
#    z 0.000000 0.000000 1.712130 
# 
# From -- ./inp_files/50318.got.cif
#   From: 2010.03.12/outbox.cif.g09.slc.cpg/sg65_26_cif.got.tgz:50318.got - 2010.04.10 20:52:16.
