data_PCOD8272109
_publ_section_title
;
Structure prediction by ZEFSAII (Michael W. Deem and Ramdas Pophale) SiO2 
 PCOD8272109
Probable space group: C M M M
;
_chemical_formula_sum "Si O2"
_cell_formula_units_Z 96
_cell_length_a 9.257827
_cell_length_b 23.606505
_cell_length_c 24.954845
_cell_angle_alpha 90.000000
_cell_angle_beta 90.000000
_cell_angle_gamma 90.000000
_cell_volume 5453.755087
_symmetry_space_group_name_H-M "C M M M"
_symmetry_group_IT_number 65
_symmetry_cell_setting 'orthorhombic'
loop_
_space_group_symop_operation_xyz
x,y,z
-x,-y,z
x,-y,-z
-x,y,-z
-x,-y,-z
x,y,-z
-x,y,z
x,-y,z
1/2+x,1/2+y,z
1/2-x,1/2-y,z
1/2+x,1/2-y,-z
1/2-x,1/2+y,-z
1/2-x,1/2-y,-z
1/2+x,1/2+y,-z
1/2-x,1/2+y,z
1/2+x,1/2-y,z
loop_
_atom_site_type_symbol
_atom_site_label
_atom_site_fract_x
_atom_site_fract_y
_atom_site_fract_z
Si Si1 0.668672 0.612667 0.844695
Si Si2 0.167024 0.434542 0.438851
Si Si3 0.660822 0.000000 0.168845
Si Si4 0.832892 0.808703 0.747082
Si Si5 0.331676 0.396660 0.657661
Si Si6 0.333204 0.694793 0.060294
Si Si7 0.338323 0.000000 0.294516
O O1 0.500000 0.598884 0.837248
O O2 0.754579 0.554929 0.850389
O O3 0.723566 0.650013 0.794275
O O4 0.703306 0.644018 0.900035
O O5 0.216766 0.426118 0.500000
O O6 0.191427 0.500000 0.421192
O O7 0.264042 0.393294 0.402052
O O8 0.000000 0.417918 0.432444
O O9 0.648289 0.000000 0.231835
O O10 0.500000 0.000000 0.143627
O O11 0.750000 0.750000 0.748497
O O12 0.808004 0.837887 0.689168
O O13 0.000000 0.795093 0.756856
O O14 0.500000 0.412194 0.653924
O O15 0.248485 0.444729 0.689492
O O16 0.500000 0.710776 0.062772
O O17 0.250000 0.750000 0.080386
O O18 0.286371 0.677275 0.000000
O O19 0.500000 0.000000 0.320448
#
# Coordination Sequence:
#
# PCOD8272109 Si02
#       7
#    16  16   8  16  16  16   8
#     4  10  20  36  55  76 108 142 172 214 264 314
#     4   9  18  32  50  75 107 139 172 210 255 306
#     4  11  23  35  52  79 106 138 180 215 255 316
#     4  10  22  36  52  76 104 136 172 212 260 308
#     4  11  21  33  52  78 107 136 171 214 257 309
#     4   9  18  33  55  81 106 138 180 222 265 311
#     4  11  21  33  50  75 104 139 174 208 255 312
#
# _framework density 17.602550999999998
#
# number of rings (size 3 to 8) (size 9 to 14) (size 15 to 20)
#    0.000    2.000    2.500    2.000    0.000    3.667 
#    0.000    1.250    0.000    3.000    0.000    0.000 
#    0.000    0.000    0.000    0.000    0.000    0.000 
#
# Total GULP energy -595224.201120 kJ/mol
# GULP energy per Si atom -12400.504190 kJ/mol
# Density = 1.756249 g / cm^3
# Si number density = 17.602551 Si / 1000 Ang^3
#
#
#
# Elastic Constant Matrix: (Units=GPa)
#
#
# Indices 1 2 3 4 5 6 
#
# 1 94.1862 71.0407 49.9233 0.0000 0.0000 0.0000
# 2 71.0407 126.3596 52.5817 0.0000 0.0000 0.0000
# 3 49.9233 52.5817 94.2111 0.0000 0.0000 0.0000
# 4 0.0000 0.0000 0.0000 -228.0901 0.0000 0.0000
# 5 0.0000 0.0000 0.0000 0.0000 26.1040 0.0000
# 6 0.0000 0.0000 0.0000 0.0000 0.0000 31.6699
#
#
#
# Elastic Compliance Matrix: (Units=1/GPa)
#
#
# Indices 1 2 3 4 5 6 
#
# 1 0.020612 -0.009174 -0.005802 0.000000 0.000000 0.000000
# 2 -0.009174 0.014391 -0.003171 0.000000 0.000000 0.000000
# 3 -0.005802 -0.003171 0.015459 0.000000 0.000000 0.000000
# 4 0.000000 0.000000 0.000000 -0.004384 0.000000 0.000000
# 5 0.000000 0.000000 0.000000 0.000000 0.038308 0.000000
# 6 0.000000 0.000000 0.000000 0.000000 0.000000 0.031576
#
#
# Mechanical properties :
#
#
# Convention : Reuss Voigt Hill
#
# Bulk Modulus (GPa) = 70.58089 73.53868 72.05979
# Shear Modulus (GPa) = 31.85144 -24.64916 3.60114
#
# Velocity S-wave (km/s) = 4.25841 -3.74614 1.43187
# Velocity P-wave (km/s) = 8.02264 4.81213 6.61511
#
# Compressibility (1/GPa) = 0.01416814
#
# Stress axis : x y z
#
# Youngs Moduli (GPa) = 48.51464 69.48798 64.68787
#
# Poissons Ratio (x) = 0.63748 0.37535
# Poissons Ratio (y) = 0.44507 0.20510
# Poissons Ratio (z) = 0.28150 0.22032
#
# Static dielectric constant tensor:
#      x y z
#    x 3.357270 0.000000 0.000000 
#    y 0.000000 3.052370 0.000000 
#    z 0.000000 0.000000 3.492090 
# 
# 
# High freq. dielectric constant tensor:
#      x y z
#    x 1.684140 0.000000 0.000000 
#    y 0.000000 1.658860 0.000000 
#    z 0.000000 0.000000 1.688640 
# 
# From -- ./inp_files/67897.got.cif
#   From: 2010.03.12/outbox.cif.g09.slc.cpg/sg65_34_cif.got.tgz:67897.got - 2010.04.10 20:52:16.
