data_PCOD8272532
_publ_section_title
;
Structure prediction by ZEFSAII (Michael W. Deem and Ramdas Pophale) SiO2 
 PCOD8272532
Probable space group: C M M M
;
_chemical_formula_sum "Si O2"
_cell_formula_units_Z 64
_cell_length_a 23.983627
_cell_length_b 16.560636
_cell_length_c 7.935197
_cell_angle_alpha 90.000000
_cell_angle_beta 90.000000
_cell_angle_gamma 90.000000
_cell_volume 3151.734211
_symmetry_space_group_name_H-M "C M M M"
_symmetry_group_IT_number 65
_symmetry_cell_setting 'orthorhombic'
loop_
_space_group_symop_operation_xyz
x,y,z
-x,-y,z
x,-y,-z
-x,y,-z
-x,-y,-z
x,y,-z
-x,y,z
x,-y,z
1/2+x,1/2+y,z
1/2-x,1/2-y,z
1/2+x,1/2-y,-z
1/2-x,1/2+y,-z
1/2-x,1/2-y,-z
1/2+x,1/2+y,-z
1/2-x,1/2+y,z
1/2+x,1/2-y,z
loop_
_atom_site_type_symbol
_atom_site_label
_atom_site_fract_x
_atom_site_fract_y
_atom_site_fract_z
Si Si1 0.858710 0.359197 0.697719
Si Si2 0.740276 0.655485 0.187369
Si Si3 0.934388 0.091742 0.000000
Si Si4 0.062925 0.500000 0.701317
Si Si5 0.624802 0.324634 0.307586
O O1 0.858502 0.363900 0.500000
O O2 0.797286 0.388045 0.756921
O O3 0.905000 0.420644 0.770670
O O4 0.873254 0.268464 0.754506
O O5 0.750000 0.750000 0.197076
O O6 0.686906 0.635869 0.304068
O O7 0.724551 0.626938 0.000000
O O8 0.914331 0.131841 0.826207
O O9 0.000000 0.098472 0.000000
O O10 0.913457 0.000000 0.000000
O O11 0.061851 0.500000 0.500000
O O12 0.000000 0.500000 0.773346
O O13 0.601981 0.332975 0.500000
#
# Coordination Sequence:
#
# PCOD8272532 Si02
#       5
#    16  16   8   8  16
#     4   9  18  32  56  88 120 160 205 245 294 350
#     4   9  16  30  56  85 119 156 192 242 303 351
#     4  11  26  46  63  85 119 151 188 250 317 369
#     4   9  18  34  53  79 123 167 205 250 287 331
#     4  10  20  38  65  92 118 154 201 247 298 364
#
# _framework density 20.306280000000001
#
# number of rings (size 3 to 8) (size 9 to 14) (size 15 to 20)
#    0.000    2.500    1.250    0.750    1.750    5.000 
#    2.250    4.375    0.000    0.750    0.000    0.000 
#    0.000    0.000    0.000    0.000    0.000    0.000 
#
# Total GULP energy -396599.167892 kJ/mol
# GULP energy per Si atom -12393.723997 kJ/mol
# Density = 2.026006 g / cm^3
# Si number density = 20.306280 Si / 1000 Ang^3
#
#
#
# Elastic Constant Matrix: (Units=GPa)
#
#
# Indices 1 2 3 4 5 6 
#
# 1 120.1613 60.1880 28.4688 0.0000 0.0000 0.0000
# 2 60.1880 87.9854 39.9112 0.0000 0.0000 0.0000
# 3 28.4688 39.9112 72.5321 0.0000 0.0000 0.0000
# 4 0.0000 0.0000 0.0000 18.0916 0.0000 0.0000
# 5 0.0000 0.0000 0.0000 0.0000 29.2881 0.0000
# 6 0.0000 0.0000 0.0000 0.0000 0.0000 32.5006
#
#
#
# Elastic Compliance Matrix: (Units=1/GPa)
#
#
# Indices 1 2 3 4 5 6 
#
# 1 0.012664 -0.008540 -0.000271 0.000000 0.000000 0.000000
# 2 -0.008540 0.020905 -0.008151 0.000000 0.000000 0.000000
# 3 -0.000271 -0.008151 0.018379 0.000000 0.000000 0.000000
# 4 0.000000 0.000000 0.000000 0.055274 0.000000 0.000000
# 5 0.000000 0.000000 0.000000 0.000000 0.034144 0.000000
# 6 0.000000 0.000000 0.000000 0.000000 0.000000 0.030769
#
#
# Mechanical properties :
#
#
# Convention : Reuss Voigt Hill
#
# Bulk Modulus (GPa) = 55.48583 59.75722 57.62152
# Shear Modulus (GPa) = 23.57749 26.11678 24.84713
#
# Velocity S-wave (km/s) = 3.41118 3.59017 3.50182
# Velocity P-wave (km/s) = 6.54971 6.83210 6.69239
#
# Compressibility (1/GPa) = 0.01802262
#
# Stress axis : x y z
#
# Youngs Moduli (GPa) = 78.96358 47.83578 54.41069
#
# Poissons Ratio (x) = 0.40851 0.01477
# Poissons Ratio (y) = 0.67434 0.44351
# Poissons Ratio (z) = 0.02144 0.38991
#
# Static dielectric constant tensor:
#      x y z
#    x 3.917400 0.000000 0.000000 
#    y 0.000000 3.894380 0.000000 
#    z 0.000000 0.000000 3.535120 
# 
# 
# High freq. dielectric constant tensor:
#      x y z
#    x 1.794030 0.000000 0.000000 
#    y 0.000000 1.769500 0.000000 
#    z 0.000000 0.000000 1.786600 
# 
# From -- ./inp_files/9110.got.cif
#   From: 2010.03.12/outbox.cif.g09.slc.cpg/sg65_5_cif.got.tgz:9110.got - 2010.04.10 20:52:16.
