data_PCOD8272972
_publ_section_title
;
Structure prediction by ZEFSAII (Michael W. Deem and Ramdas Pophale) SiO2 
 PCOD8272972
Probable space group: C M M M
;
_chemical_formula_sum "Si O2"
_cell_formula_units_Z 88
_cell_length_a 20.750267
_cell_length_b 16.222751
_cell_length_c 14.613006
_cell_angle_alpha 90.000000
_cell_angle_beta 90.000000
_cell_angle_gamma 90.000000
_cell_volume 4919.123818
_symmetry_space_group_name_H-M "C M M M"
_symmetry_group_IT_number 65
_symmetry_cell_setting 'orthorhombic'
loop_
_space_group_symop_operation_xyz
x,y,z
-x,-y,z
x,-y,-z
-x,y,-z
-x,-y,-z
x,y,-z
-x,y,z
x,-y,z
1/2+x,1/2+y,z
1/2-x,1/2-y,z
1/2+x,1/2-y,-z
1/2-x,1/2+y,-z
1/2-x,1/2-y,-z
1/2+x,1/2+y,-z
1/2-x,1/2+y,z
1/2+x,1/2-y,z
loop_
_atom_site_type_symbol
_atom_site_label
_atom_site_fract_x
_atom_site_fract_y
_atom_site_fract_z
Si Si1 0.860646 0.902619 0.896998
Si Si2 0.662935 0.149689 0.608438
Si Si3 0.000000 0.093327 0.155633
Si Si4 0.722048 0.406202 0.731299
Si Si5 0.130984 0.833126 0.401795
Si Si6 0.500000 0.406258 0.628803
Si Si7 0.572065 0.000000 0.607652
O O1 0.932810 0.864647 0.879717
O O2 0.803509 0.869545 0.829176
O O3 0.865368 0.000000 0.878684
O O4 0.838992 0.881123 0.000000
O O5 0.681778 0.139125 0.500000
O O6 0.723137 0.144804 0.678388
O O7 0.634275 0.238686 0.631299
O O8 0.610794 0.081393 0.638459
O O9 0.000000 0.099155 0.263115
O O10 0.000000 0.000000 0.118663
O O11 0.745432 0.500000 0.741215
O O12 0.659702 0.399922 0.667270
O O13 0.166737 0.840030 0.500000
O O14 0.057935 0.856837 0.414880
O O15 0.500000 0.500000 0.594571
O O16 0.500000 0.000000 0.651822
O O17 0.564589 0.000000 0.500000
#
# Coordination Sequence:
#
# PCOD8272972 Si02
#       7
#    16  16   8  16  16   8   8
#     4   9  17  29  49  76 104 136 177 221 264 313
#     4  10  21  36  53  75 102 137 178 219 267 315
#     4   9  15  29  49  72 102 137 177 215 257 303
#     4  11  20  33  52  75 106 139 178 218 259 314
#     4  11  23  34  49  72 106 145 178 213 255 308
#     4  11  21  35  51  77 109 143 181 210 250 310
#     4   9  18  34  56  76  97 126 171 228 271 304
#
# _framework density 17.889364
#
# number of rings (size 3 to 8) (size 9 to 14) (size 15 to 20)
#    0.000    1.909    2.727    2.182    1.273    5.091 
#    0.000    0.000    0.000    2.182    0.000    0.000 
#    0.000    1.455    0.000    0.000    0.000    0.182 
#
# Total GULP energy -545109.399891 kJ/mol
# GULP energy per Si atom -12388.849998 kJ/mol
# Density = 1.784865 g / cm^3
# Si number density = 17.889364 Si / 1000 Ang^3
#
#
#
# Elastic Constant Matrix: (Units=GPa)
#
#
# Indices 1 2 3 4 5 6 
#
# 1 108.9255 30.5240 46.8140 0.0000 0.0000 0.0000
# 2 30.5240 62.4583 25.5979 0.0000 0.0000 0.0000
# 3 46.8140 25.5979 106.0787 0.0000 0.0000 0.0000
# 4 0.0000 0.0000 0.0000 10.9294 0.0000 0.0000
# 5 0.0000 0.0000 0.0000 0.0000 24.1299 0.0000
# 6 0.0000 0.0000 0.0000 0.0000 0.0000 25.6759
#
#
#
# Elastic Compliance Matrix: (Units=1/GPa)
#
#
# Indices 1 2 3 4 5 6 
#
# 1 0.012240 -0.004182 -0.004393 0.000000 0.000000 0.000000
# 2 -0.004182 0.019196 -0.002787 0.000000 0.000000 0.000000
# 3 -0.004393 -0.002787 0.012038 0.000000 0.000000 0.000000
# 4 0.000000 0.000000 0.000000 0.091497 0.000000 0.000000
# 5 0.000000 0.000000 0.000000 0.000000 0.041442 0.000000
# 6 0.000000 0.000000 0.000000 0.000000 0.000000 0.038947
#
#
# Mechanical properties :
#
#
# Convention : Reuss Voigt Hill
#
# Bulk Modulus (GPa) = 48.18749 53.70381 50.94565
# Shear Modulus (GPa) = 20.40809 23.78213 22.09511
#
# Velocity S-wave (km/s) = 3.38123 3.65005 3.51821
# Velocity P-wave (km/s) = 6.49911 6.91729 6.71146
#
# Compressibility (1/GPa) = 0.02075228
#
# Stress axis : x y z
#
# Youngs Moduli (GPa) = 81.69732 52.09287 83.06998
#
# Poissons Ratio (x) = 0.21783 0.36490
# Poissons Ratio (y) = 0.34163 0.23151
# Poissons Ratio (z) = 0.35887 0.14518
#
# Static dielectric constant tensor:
#      x y z
#    x 3.497370 0.000000 0.000000 
#    y 0.000000 3.008670 0.000000 
#    z 0.000000 0.000000 3.268790 
# 
# 
# High freq. dielectric constant tensor:
#      x y z
#    x 1.694850 0.000000 0.000000 
#    y 0.000000 1.658680 0.000000 
#    z 0.000000 0.000000 1.678690 
# 
# From -- ./inp_files/44039.got.cif
#   From: 2010.03.12/outbox.cif.g09.slc.cpg/sg65_23_cif.got.tgz:44039.got - 2010.04.10 20:52:16.
