data_PCOD8272009
_publ_section_title
;
Structure prediction by ZEFSAII (Michael W. Deem and Ramdas Pophale) SiO2 
 PCOD8272009
Probable space group: C M M M
;
_chemical_formula_sum "Si O2"
_cell_formula_units_Z 88
_cell_length_a 9.070541
_cell_length_b 16.050249
_cell_length_c 29.636957
_cell_angle_alpha 90.000000
_cell_angle_beta 90.000000
_cell_angle_gamma 90.000000
_cell_volume 4314.679836
_symmetry_space_group_name_H-M "C M M M"
_symmetry_group_IT_number 65
_symmetry_cell_setting 'orthorhombic'
loop_
_space_group_symop_operation_xyz
x,y,z
-x,-y,z
x,-y,-z
-x,y,-z
-x,-y,-z
x,y,-z
-x,y,z
x,-y,z
1/2+x,1/2+y,z
1/2-x,1/2-y,z
1/2+x,1/2-y,-z
1/2-x,1/2+y,-z
1/2-x,1/2-y,-z
1/2+x,1/2+y,-z
1/2-x,1/2+y,z
1/2+x,1/2-y,z
loop_
_atom_site_type_symbol
_atom_site_label
_atom_site_fract_x
_atom_site_fract_y
_atom_site_fract_z
Si Si1 0.324975 0.000000 0.551447
Si Si2 0.174273 0.334666 0.134792
Si Si3 0.673902 0.164370 0.602903
Si Si4 0.329891 0.097055 0.699145
Si Si5 0.832355 0.902145 0.948963
Si Si6 0.661844 0.595624 0.214755
O O1 0.265108 0.915247 0.574797
O O2 0.500000 0.000000 0.555890
O O3 0.270876 0.000000 0.500000
O O4 0.250000 0.250000 0.150490
O O5 0.219736 0.355887 0.083713
O O6 0.236070 0.400962 0.170334
O O7 0.000000 0.329175 0.137303
O O8 0.500000 0.173889 0.595694
O O9 0.750000 0.250000 0.586332
O O10 0.714632 0.148957 0.655068
O O11 0.500000 0.109022 0.711369
O O12 0.238872 0.135584 0.741243
O O13 0.295890 0.000000 0.689861
O O14 0.000000 0.878267 0.935872
O O15 0.809011 0.000000 0.944149
O O16 0.797961 0.873579 0.000000
O O17 0.500000 0.636750 0.206626
O O18 0.640711 0.500000 0.226075
#
# Coordination Sequence:
#
# PCOD8272009 Si02
#       6
#     8  16  16  16  16  16
#     4   9  18  36  61  85 115 159 205 245 292 357
#     4  12  25  39  56  79 111 149 187 231 281 334
#     4  10  20  35  57  86 117 154 198 247 299 354
#     4   9  17  33  56  79 108 148 195 238 281 340
#     4   9  19  38  63  87 111 141 178 223 276 334
#     4  10  21  37  58  84 114 148 187 231 282 338
#
# _framework density 20.395486999999999
#
# number of rings (size 3 to 8) (size 9 to 14) (size 15 to 20)
#    0.000    2.091    0.909    3.273    0.000    6.182 
#    0.000    3.182    0.000    0.545    0.000    0.000 
#    0.000    0.000    0.000    0.000    0.000    0.000 
#
# Total GULP energy -545551.110920 kJ/mol
# GULP energy per Si atom -12398.888885 kJ/mol
# Density = 2.034907 g / cm^3
# Si number density = 20.395487 Si / 1000 Ang^3
#
#
#
# Elastic Constant Matrix: (Units=GPa)
#
#
# Indices 1 2 3 4 5 6 
#
# 1 120.4393 39.9821 58.5977 0.0000 0.0000 0.0000
# 2 39.9821 84.6849 45.9680 0.0000 0.0000 0.0000
# 3 58.5977 45.9680 126.7034 0.0000 0.0000 0.0000
# 4 0.0000 0.0000 0.0000 16.7200 0.0000 0.0000
# 5 0.0000 0.0000 0.0000 0.0000 23.8639 0.0000
# 6 0.0000 0.0000 0.0000 0.0000 0.0000 28.9688
#
#
#
# Elastic Compliance Matrix: (Units=1/GPa)
#
#
# Indices 1 2 3 4 5 6 
#
# 1 0.011340 -0.003122 -0.004112 0.000000 0.000000 0.000000
# 2 -0.003122 0.015564 -0.004203 0.000000 0.000000 0.000000
# 3 -0.004112 -0.004203 0.011319 0.000000 0.000000 0.000000
# 4 0.000000 0.000000 0.000000 0.059809 0.000000 0.000000
# 5 0.000000 0.000000 0.000000 0.000000 0.041904 0.000000
# 6 0.000000 0.000000 0.000000 0.000000 0.000000 0.034520
#
#
# Mechanical properties :
#
#
# Convention : Reuss Voigt Hill
#
# Bulk Modulus (GPa) = 65.14863 68.99148 67.07005
# Shear Modulus (GPa) = 24.69813 26.39586 25.54699
#
# Velocity S-wave (km/s) = 3.48366 3.60140 3.54302
# Velocity P-wave (km/s) = 6.94213 7.15498 7.04936
#
# Compressibility (1/GPa) = 0.01534952
#
# Stress axis : x y z
#
# Youngs Moduli (GPa) = 88.18459 64.25204 88.34844
#
# Poissons Ratio (x) = 0.20059 0.36327
# Poissons Ratio (y) = 0.27531 0.37130
# Poissons Ratio (z) = 0.36260 0.27003
#
# Static dielectric constant tensor:
#      x y z
#    x 3.656490 0.000000 0.000000 
#    y 0.000000 3.580110 0.000000 
#    z 0.000000 0.000000 3.746980 
# 
# 
# High freq. dielectric constant tensor:
#      x y z
#    x 1.781430 0.000000 0.000000 
#    y 0.000000 1.788060 0.000000 
#    z 0.000000 0.000000 1.802630 
# 
# From -- ./inp_files/76578.got.cif
#   From: 2010.03.12/outbox.cif.g09.slc.cpg/sg65_39_cif.got.tgz:76578.got - 2010.04.10 20:52:16.
