data_PCOD8272241
_publ_section_title
;
Structure prediction by ZEFSAII (Michael W. Deem and Ramdas Pophale) SiO2 
 PCOD8272241
Probable space group: C M M M
;
_chemical_formula_sum "Si O2"
_cell_formula_units_Z 72
_cell_length_a 26.573488
_cell_length_b 15.438388
_cell_length_c 8.870399
_cell_angle_alpha 90.000000
_cell_angle_beta 90.000000
_cell_angle_gamma 90.000000
_cell_volume 3639.097318
_symmetry_space_group_name_H-M "C M M M"
_symmetry_group_IT_number 65
_symmetry_cell_setting 'orthorhombic'
loop_
_space_group_symop_operation_xyz
x,y,z
-x,-y,z
x,-y,-z
-x,y,-z
-x,-y,-z
x,y,-z
-x,y,z
x,-y,z
1/2+x,1/2+y,z
1/2-x,1/2-y,z
1/2+x,1/2-y,-z
1/2-x,1/2+y,-z
1/2-x,1/2-y,-z
1/2+x,1/2+y,-z
1/2-x,1/2+y,z
1/2+x,1/2-y,z
loop_
_atom_site_type_symbol
_atom_site_label
_atom_site_fract_x
_atom_site_fract_y
_atom_site_fract_z
Si Si1 0.557825 0.000000 0.821958
Si Si2 0.778769 0.661352 0.175300
Si Si3 0.114105 0.339873 0.677563
Si Si4 0.899011 0.000000 0.177984
Si Si5 0.057880 0.167450 0.326539
Si Si6 0.786484 0.000000 0.821612
O O1 0.584131 0.084861 0.759096
O O2 0.500000 0.000000 0.770220
O O3 0.563485 0.000000 0.000000
O O4 0.750000 0.750000 0.204317
O O5 0.828149 0.658276 0.275546
O O6 0.742767 0.584943 0.233995
O O7 0.793322 0.649742 0.000000
O O8 0.108966 0.353650 0.500000
O O9 0.090936 0.248345 0.728837
O O10 0.928718 0.084431 0.228931
O O11 0.842626 0.000000 0.247548
O O12 0.896610 0.000000 0.000000
O O13 0.068853 0.145144 0.500000
O O14 0.000000 0.192263 0.300673
O O15 0.790355 0.000000 0.000000
#
# Coordination Sequence:
#
# PCOD8272241 Si02
#       6
#     8  16  16   8  16   8
#     4  11  24  41  62  88 118 153 194 243 298 356
#     4  10  20  36  58  82 113 154 194 235 286 343
#     4  11  23  39  61  88 118 154 196 242 291 347
#     4  11  22  37  60  88 114 145 192 243 284 330
#     4  10  22  40  59  81 115 156 190 226 283 348
#     4   9  19  35  54  78 110 147 184 225 280 338
#
# _framework density 19.785126999999999
#
# number of rings (size 3 to 8) (size 9 to 14) (size 15 to 20)
#    0.000    1.667    0.000    4.333    0.000    8.444 
#    0.000    2.222    0.000    0.000    0.000    0.000 
#    0.000    0.000    0.000    0.000    0.000    0.000 
#
# Total GULP energy -446597.161067 kJ/mol
# GULP energy per Si atom -12405.476696 kJ/mol
# Density = 1.974010 g / cm^3
# Si number density = 19.785127 Si / 1000 Ang^3
#
#
#
# Elastic Constant Matrix: (Units=GPa)
#
#
# Indices 1 2 3 4 5 6 
#
# 1 98.6772 29.8253 27.0180 0.0000 0.0000 0.0000
# 2 29.8253 128.8719 32.3682 0.0000 0.0000 0.0000
# 3 27.0180 32.3682 49.6442 0.0000 0.0000 0.0000
# 4 0.0000 0.0000 0.0000 1893.2625 0.0000 0.0000
# 5 0.0000 0.0000 0.0000 0.0000 69.2047 0.0000
# 6 0.0000 0.0000 0.0000 0.0000 0.0000 33.5549
#
#
#
# Elastic Compliance Matrix: (Units=1/GPa)
#
#
# Indices 1 2 3 4 5 6 
#
# 1 0.012108 -0.001372 -0.005695 0.000000 0.000000 0.000000
# 2 -0.001372 0.009435 -0.005405 0.000000 0.000000 0.000000
# 3 -0.005695 -0.005405 0.026767 0.000000 0.000000 0.000000
# 4 0.000000 0.000000 0.000000 0.000528 0.000000 0.000000
# 5 0.000000 0.000000 0.000000 0.000000 0.014450 0.000000
# 6 0.000000 0.000000 0.000000 0.000000 0.000000 0.029802
#
#
# Mechanical properties :
#
#
# Convention : Reuss Voigt Hill
#
# Bulk Modulus (GPa) = 42.79747 50.62402 46.71075
# Shear Modulus (GPa) = 39.73879 411.73654 225.73767
#
# Velocity S-wave (km/s) = 4.48651 14.44146 10.69310
# Velocity P-wave (km/s) = 6.96538 17.42748 13.27090
#
# Compressibility (1/GPa) = 0.02336587
#
# Stress axis : x y z
#
# Youngs Moduli (GPa) = 82.58982 105.99256 37.35970
#
# Poissons Ratio (x) = 0.14540 0.21277
# Poissons Ratio (y) = 0.11329 0.20192
# Poissons Ratio (z) = 0.47036 0.57287
#
# Static dielectric constant tensor:
#      x y z
#    x 3.746610 0.000000 0.000000 
#    y 0.000000 3.708490 0.000000 
#    z 0.000000 0.000000 3.478900 
# 
# 
# High freq. dielectric constant tensor:
#      x y z
#    x 1.789610 0.000000 0.000000 
#    y 0.000000 1.790530 0.000000 
#    z 0.000000 0.000000 1.758840 
# 
# From -- ./inp_files/15824.got.cif
#   From: 2010.03.12/outbox.cif.g09.slc.cpg/sg65_8_cif.got.tgz:15824.got - 2010.04.10 20:52:16.
