data_PCOD8272974
_publ_section_title
;
Structure prediction by ZEFSAII (Michael W. Deem and Ramdas Pophale) SiO2 
 PCOD8272974
Probable space group: C M M M
;
_chemical_formula_sum "Si O2"
_cell_formula_units_Z 120
_cell_length_a 9.534932
_cell_length_b 26.604710
_cell_length_c 24.117971
_cell_angle_alpha 90.000000
_cell_angle_beta 90.000000
_cell_angle_gamma 90.000000
_cell_volume 6118.104605
_symmetry_space_group_name_H-M "C M M M"
_symmetry_group_IT_number 65
_symmetry_cell_setting 'orthorhombic'
loop_
_space_group_symop_operation_xyz
x,y,z
-x,-y,z
x,-y,-z
-x,y,-z
-x,-y,-z
x,y,-z
-x,y,z
x,-y,z
1/2+x,1/2+y,z
1/2-x,1/2-y,z
1/2+x,1/2-y,-z
1/2-x,1/2+y,-z
1/2-x,1/2-y,-z
1/2+x,1/2+y,-z
1/2-x,1/2+y,z
1/2+x,1/2-y,z
loop_
_atom_site_type_symbol
_atom_site_label
_atom_site_fract_x
_atom_site_fract_y
_atom_site_fract_z
Si Si1 0.159416 0.390293 0.066149
Si Si2 0.334375 0.300782 0.881852
Si Si3 0.660852 0.297716 0.663548
Si Si4 0.837186 0.136491 0.437465
Si Si5 0.334102 0.000000 0.939357
Si Si6 0.841936 0.143562 0.227065
Si Si7 0.336641 0.056172 0.253744
Si Si8 0.842623 0.442613 0.619690
O O1 0.268693 0.347980 0.085693
O O2 0.205852 0.446205 0.089813
O O3 0.000000 0.377330 0.086050
O O4 0.162766 0.392394 0.000000
O O5 0.500000 0.294761 0.897079
O O6 0.250000 0.250000 0.897307
O O7 0.314134 0.311719 0.816506
O O8 0.500000 0.281172 0.662181
O O9 0.750000 0.250000 0.678680
O O10 0.710119 0.319634 0.604408
O O11 0.690310 0.338054 0.711119
O O12 0.803284 0.153986 0.500000
O O13 0.754984 0.086041 0.423429
O O14 0.000000 0.124278 0.429204
O O15 0.500000 0.000000 0.945973
O O16 0.262903 0.000000 0.000000
O O17 0.743191 0.095842 0.214785
O O18 0.000000 0.124125 0.221479
O O19 0.500000 0.067155 0.248560
O O20 0.287156 0.062314 0.317414
O O21 0.302016 0.000000 0.232738
O O22 0.840764 0.500000 0.600707
O O23 0.000000 0.420801 0.615822
#
# Coordination Sequence:
#
# PCOD8272974 Si02
#       8
#    16  16  16  16   8  16  16  16
#     4   9  18  36  63  91 120 158 200 240 285 337
#     4  11  24  40  58  84 118 154 196 243 290 340
#     4  10  21  37  56  77 100 131 174 221 272 326
#     4  10  21  36  53  75 104 136 173 218 265 320
#     4   7  12  28  57  89 117 149 193 237 276 329
#     4  10  21  38  58  81 109 145 185 226 276 332
#     4   9  18  33  55  83 111 140 179 224 269 325
#     4   9  18  33  53  78 107 137 171 212 259 314
#
# _framework density 19.613918000000002
#
# number of rings (size 3 to 8) (size 9 to 14) (size 15 to 20)
#    0.000    2.467    1.333    2.400    0.000    4.000 
#    1.200    3.000    0.000    1.200    0.000    0.000 
#    0.000    0.000    0.000    0.000    0.000    0.000 
#
# Total GULP energy -743713.459581 kJ/mol
# GULP energy per Si atom -12395.224326 kJ/mol
# Density = 1.956928 g / cm^3
# Si number density = 19.613918 Si / 1000 Ang^3
#
#
#
# Elastic Constant Matrix: (Units=GPa)
#
#
# Indices 1 2 3 4 5 6 
#
# 1 78.9515 69.0075 23.6669 0.0000 0.0000 0.0000
# 2 69.0075 126.1383 31.5833 0.0000 0.0000 0.0000
# 3 23.6669 31.5833 30.9866 0.0000 0.0000 0.0000
# 4 0.0000 0.0000 0.0000 17.7132 0.0000 0.0000
# 5 0.0000 0.0000 0.0000 0.0000 26.2521 0.0000
# 6 0.0000 0.0000 0.0000 0.0000 0.0000 39.0221
#
#
#
# Elastic Compliance Matrix: (Units=1/GPa)
#
#
# Indices 1 2 3 4 5 6 
#
# 1 0.025361 -0.012117 -0.007020 0.000000 0.000000 0.000000
# 2 -0.012117 0.016433 -0.007495 0.000000 0.000000 0.000000
# 3 -0.007020 -0.007495 0.045273 0.000000 0.000000 0.000000
# 4 0.000000 0.000000 0.000000 0.056455 0.000000 0.000000
# 5 0.000000 0.000000 0.000000 0.000000 0.038092 0.000000
# 6 0.000000 0.000000 0.000000 0.000000 0.000000 0.025627
#
#
# Mechanical properties :
#
#
# Convention : Reuss Voigt Hill
#
# Bulk Modulus (GPa) = 29.58272 53.84351 41.71311
# Shear Modulus (GPa) = 18.39766 24.05205 21.22485
#
# Velocity S-wave (km/s) = 3.06598 3.50562 3.29315
# Velocity P-wave (km/s) = 5.25823 6.62549 5.98106
#
# Compressibility (1/GPa) = 0.03380352
#
# Stress axis : x y z
#
# Youngs Moduli (GPa) = 39.43064 60.85215 22.08798
#
# Poissons Ratio (x) = 0.73733 0.15506
# Poissons Ratio (y) = 0.47777 0.16556
# Poissons Ratio (z) = 0.27681 0.45610
#
# Static dielectric constant tensor:
#      x y z
#    x 3.514710 0.000000 0.000000 
#    y 0.000000 3.586360 0.000000 
#    z 0.000000 0.000000 3.496330 
# 
# 
# High freq. dielectric constant tensor:
#      x y z
#    x 1.751760 0.000000 0.000000 
#    y 0.000000 1.766250 0.000000 
#    z 0.000000 0.000000 1.754160 
# 
# From -- ./inp_files/73931.got.cif
#   From: 2010.03.12/outbox.cif.g09.slc.cpg/sg65_37_cif.got.tgz:73931.got - 2010.04.10 20:52:16.
