data_PCOD8272176
_publ_section_title
;
Structure prediction by ZEFSAII (Michael W. Deem and Ramdas Pophale) SiO2 
 PCOD8272176
Probable space group: C M M M
;
_chemical_formula_sum "Si O2"
_cell_formula_units_Z 80
_cell_length_a 8.744608
_cell_length_b 26.823459
_cell_length_c 18.437033
_cell_angle_alpha 90.000000
_cell_angle_beta 90.000000
_cell_angle_gamma 90.000000
_cell_volume 4324.602152
_symmetry_space_group_name_H-M "C M M M"
_symmetry_group_IT_number 65
_symmetry_cell_setting 'orthorhombic'
loop_
_space_group_symop_operation_xyz
x,y,z
-x,-y,z
x,-y,-z
-x,y,-z
-x,-y,-z
x,y,-z
-x,y,z
x,-y,z
1/2+x,1/2+y,z
1/2-x,1/2-y,z
1/2+x,1/2-y,-z
1/2-x,1/2+y,-z
1/2-x,1/2-y,-z
1/2+x,1/2+y,-z
1/2-x,1/2+y,z
1/2+x,1/2-y,z
loop_
_atom_site_type_symbol
_atom_site_label
_atom_site_fract_x
_atom_site_fract_y
_atom_site_fract_z
Si Si1 0.325203 0.099831 0.638910
Si Si2 0.178041 0.300916 0.720229
Si Si3 0.679946 0.649217 0.858285
Si Si4 0.822401 0.556872 0.790803
Si Si5 0.819154 0.304702 0.000000
Si Si6 0.678710 0.555429 0.500000
O O1 0.500000 0.090029 0.617577
O O2 0.296870 0.157561 0.658656
O O3 0.277154 0.065484 0.706995
O O4 0.223486 0.086148 0.570793
O O5 0.250000 0.250000 0.689746
O O6 0.264980 0.315483 0.793507
O O7 0.000000 0.294440 0.738522
O O8 0.500000 0.655161 0.868851
O O9 0.721065 0.591622 0.842370
O O10 0.765376 0.664915 0.930523
O O11 0.789832 0.500000 0.812477
O O12 0.000000 0.571550 0.801049
O O13 0.750000 0.250000 0.000000
O O14 0.000000 0.300116 0.000000
O O15 0.754161 0.500000 0.500000
O O16 0.500000 0.549552 0.500000
#
# Coordination Sequence:
#
# PCOD8272176 Si02
#       6
#    16  16  16  16   8   8
#     4   9  19  35  55  78 105 139 179 218 259 316
#     4  10  20  36  57  81 107 139 179 220 265 315
#     4  11  22  36  55  82 113 143 178 219 265 317
#     4   9  18  35  58  82 108 141 181 223 267 315
#     4  12  24  40  59  80 109 142 178 221 269 317
#     4  11  23  35  50  77 110 139 172 219 270 315
#
# _framework density 18.498809999999999
#
# number of rings (size 3 to 8) (size 9 to 14) (size 15 to 20)
#    0.000    1.900    0.000    6.000    0.000    6.000 
#    0.000    1.000    0.000    3.000    0.000    0.000 
#    0.000    0.000    0.000    0.000    0.000    0.000 
#
# Total GULP energy -496134.581922 kJ/mol
# GULP energy per Si atom -12403.364548 kJ/mol
# Density = 1.845671 g / cm^3
# Si number density = 18.498810 Si / 1000 Ang^3
#
#
#
# Elastic Constant Matrix: (Units=GPa)
#
#
# Indices 1 2 3 4 5 6 
#
# 1 119.8867 50.5794 52.9947 0.0000 0.0000 0.0000
# 2 50.5794 119.9848 51.0562 0.0000 0.0000 0.0000
# 3 52.9947 51.0562 113.6882 0.0000 0.0000 0.0000
# 4 0.0000 0.0000 0.0000 15.4152 0.0000 0.0000
# 5 0.0000 0.0000 0.0000 0.0000 26.9260 0.0000
# 6 0.0000 0.0000 0.0000 0.0000 0.0000 33.9578
#
#
#
# Elastic Compliance Matrix: (Units=1/GPa)
#
#
# Indices 1 2 3 4 5 6 
#
# 1 0.011390 -0.003143 -0.003898 0.000000 0.000000 0.000000
# 2 -0.003143 0.011171 -0.003552 0.000000 0.000000 0.000000
# 3 -0.003898 -0.003552 0.012208 0.000000 0.000000 0.000000
# 4 0.000000 0.000000 0.000000 0.064871 0.000000 0.000000
# 5 0.000000 0.000000 0.000000 0.000000 0.037139 0.000000
# 6 0.000000 0.000000 0.000000 0.000000 0.000000 0.029448
#
#
# Mechanical properties :
#
#
# Convention : Reuss Voigt Hill
#
# Bulk Modulus (GPa) = 73.61671 73.64672 73.63171
# Shear Modulus (GPa) = 26.04987 28.52177 27.28582
#
# Velocity S-wave (km/s) = 3.75666 3.93086 3.84474
# Velocity P-wave (km/s) = 7.66149 7.77819 7.72006
#
# Compressibility (1/GPa) = 0.01358387
#
# Stress axis : x y z
#
# Youngs Moduli (GPa) = 87.79446 89.52145 81.91355
#
# Poissons Ratio (x) = 0.28135 0.31930
# Poissons Ratio (y) = 0.27592 0.29092
# Poissons Ratio (z) = 0.34223 0.31794
#
# Static dielectric constant tensor:
#      x y z
#    x 3.421880 0.000000 0.000000 
#    y 0.000000 3.730300 0.000000 
#    z 0.000000 0.000000 3.231360 
# 
# 
# High freq. dielectric constant tensor:
#      x y z
#    x 1.723450 0.000000 0.000000 
#    y 0.000000 1.728530 0.000000 
#    z 0.000000 0.000000 1.704310 
# 
# From -- ./inp_files/49898.got.cif
#   From: 2010.03.12/outbox.cif.g09.slc.cpg/sg65_25_cif.got.tgz:49898.got - 2010.04.10 20:52:16.
