data_PCOD8272266
_publ_section_title
;
Structure prediction by ZEFSAII (Michael W. Deem and Ramdas Pophale) SiO2 
 PCOD8272266
Probable space group: C M M M
;
_chemical_formula_sum "Si O2"
_cell_formula_units_Z 72
_cell_length_a 8.860447
_cell_length_b 15.842088
_cell_length_c 25.878800
_cell_angle_alpha 90.000000
_cell_angle_beta 90.000000
_cell_angle_gamma 90.000000
_cell_volume 3632.554909
_symmetry_space_group_name_H-M "C M M M"
_symmetry_group_IT_number 65
_symmetry_cell_setting 'orthorhombic'
loop_
_space_group_symop_operation_xyz
x,y,z
-x,-y,z
x,-y,-z
-x,y,-z
-x,-y,-z
x,y,-z
-x,y,z
x,-y,z
1/2+x,1/2+y,z
1/2-x,1/2-y,z
1/2+x,1/2-y,-z
1/2-x,1/2+y,-z
1/2-x,1/2-y,-z
1/2+x,1/2+y,-z
1/2-x,1/2+y,z
1/2+x,1/2-y,z
loop_
_atom_site_type_symbol
_atom_site_label
_atom_site_fract_x
_atom_site_fract_y
_atom_site_fract_z
Si Si1 0.825802 0.837268 0.438945
Si Si2 0.821230 0.000000 0.723771
Si Si3 0.322522 0.337958 0.210100
Si Si4 0.177827 0.163157 0.093489
Si Si5 0.160180 0.407293 0.000000
Si Si6 0.679106 0.000000 0.612675
O O1 0.809647 0.846402 0.500000
O O2 0.750000 0.750000 0.419803
O O3 0.742819 0.916335 0.413935
O O4 0.000000 0.836913 0.421517
O O5 0.771544 0.916202 0.754666
O O6 0.727353 0.000000 0.671749
O O7 0.000000 0.000000 0.712810
O O8 0.500000 0.324993 0.212750
O O9 0.250000 0.250000 0.229616
O O10 0.270010 0.359915 0.151731
O O11 0.250000 0.250000 0.075741
O O12 0.239919 0.099306 0.051524
O O13 0.000000 0.167316 0.090396
O O14 0.100320 0.500000 0.000000
O O15 0.000000 0.353534 0.000000
O O16 0.500000 0.000000 0.607320
#
# Coordination Sequence:
#
# PCOD8272266 Si02
#       6
#    16   8  16  16   8   8
#     4  10  21  39  64  93 125 163 205 250 301 355
#     4  10  22  41  61  83 115 155 197 247 300 349
#     4   9  20  38  62  86 111 145 189 239 293 350
#     4  10  20  36  59  82 107 140 180 225 278 341
#     4  11  24  37  50  77 113 145 178 221 276 333
#     4  12  25  39  58  89 125 165 208 249 299 355
#
# _framework density 19.820758999999999
#
# number of rings (size 3 to 8) (size 9 to 14) (size 15 to 20)
#    0.000    1.889    0.000    3.333    1.556    6.222 
#    0.000    2.222    0.000    0.000    0.000    0.000 
#    0.000    0.000    0.000    0.000    0.000    0.000 
#
# Total GULP energy -446254.837911 kJ/mol
# GULP energy per Si atom -12395.967720 kJ/mol
# Density = 1.977565 g / cm^3
# Si number density = 19.820759 Si / 1000 Ang^3
#
#
#
# Elastic Constant Matrix: (Units=GPa)
#
#
# Indices 1 2 3 4 5 6 
#
# 1 118.1122 68.4914 52.7893 0.0000 0.0000 0.0000
# 2 68.4914 165.5410 67.5564 0.0000 0.0000 0.0000
# 3 52.7893 67.5564 80.7396 0.0000 0.0000 0.0000
# 4 0.0000 0.0000 0.0000 -0.0932 0.0000 0.0000
# 5 0.0000 0.0000 0.0000 0.0000 30.6555 0.0000
# 6 0.0000 0.0000 0.0000 0.0000 0.0000 31.2995
#
#
#
# Elastic Compliance Matrix: (Units=1/GPa)
#
#
# Indices 1 2 3 4 5 6 
#
# 1 0.012792 -0.002854 -0.005976 0.000000 0.000000 0.000000
# 2 -0.002854 0.009810 -0.006342 0.000000 0.000000 0.000000
# 3 -0.005976 -0.006342 0.021599 0.000000 0.000000 0.000000
# 4 0.000000 0.000000 0.000000-10.727854 0.000000 0.000000
# 5 0.000000 0.000000 0.000000 0.000000 0.032621 0.000000
# 6 0.000000 0.000000 0.000000 0.000000 0.000000 0.031949
#
#
# Mechanical properties :
#
#
# Convention : Reuss Voigt Hill
#
# Bulk Modulus (GPa) = 72.16351 82.45190 77.30770
# Shear Modulus (GPa) = -0.47241 24.07607 11.80183
#
# Velocity S-wave (km/s) = -0.48873 3.48902 2.44279
# Velocity P-wave (km/s) = 6.01403 7.61052 6.85889
#
# Compressibility (1/GPa) = 0.01385742
#
# Stress axis : x y z
#
# Youngs Moduli (GPa) = 78.17120 101.93922 46.29804
#
# Poissons Ratio (x) = 0.29094 0.27668
# Poissons Ratio (y) = 0.22310 0.29362
# Poissons Ratio (z) = 0.46715 0.64650
#
# Static dielectric constant tensor:
#      x y z
#    x 3.662420 0.000000 0.000000 
#    y 0.000000 3.706080 0.000000 
#    z 0.000000 0.000000 3.675880 
# 
# 
# High freq. dielectric constant tensor:
#      x y z
#    x 1.782580 0.000000 0.000000 
#    y 0.000000 1.778810 0.000000 
#    z 0.000000 0.000000 1.772140 
# 
# From -- ./inp_files/72624.got.cif
#   From: 2010.03.12/outbox.cif.g09.slc.cpg/sg65_37_cif.got.tgz:72624.got - 2010.04.10 20:52:16.
