data_PCOD8272570
_publ_section_title
;
Structure prediction by ZEFSAII (Michael W. Deem and Ramdas Pophale) SiO2 
 PCOD8272570
Probable space group: C M M M
;
_chemical_formula_sum "Si O2"
_cell_formula_units_Z 120
_cell_length_a 28.484723
_cell_length_b 19.615884
_cell_length_c 13.198825
_cell_angle_alpha 90.000000
_cell_angle_beta 90.000000
_cell_angle_gamma 90.000000
_cell_volume 7374.883357
_symmetry_space_group_name_H-M "C M M M"
_symmetry_group_IT_number 65
_symmetry_cell_setting 'orthorhombic'
loop_
_space_group_symop_operation_xyz
x,y,z
-x,-y,z
x,-y,-z
-x,y,-z
-x,-y,-z
x,y,-z
-x,y,z
x,-y,z
1/2+x,1/2+y,z
1/2-x,1/2-y,z
1/2+x,1/2-y,-z
1/2-x,1/2+y,-z
1/2-x,1/2-y,-z
1/2+x,1/2+y,-z
1/2-x,1/2+y,z
1/2+x,1/2-y,z
loop_
_atom_site_type_symbol
_atom_site_label
_atom_site_fract_x
_atom_site_fract_y
_atom_site_fract_z
Si Si1 0.275745 0.680133 0.224540
Si Si2 0.908268 0.922517 0.726045
Si Si3 0.000000 0.918522 0.385558
Si Si4 0.394856 0.075038 0.879484
Si Si5 0.812799 0.077173 0.617398
Si Si6 0.209908 0.575326 0.880541
Si Si7 0.125767 0.818163 0.120535
Si Si8 0.052117 0.295738 0.879670
O O1 0.250000 0.750000 0.255599
O O2 0.283202 0.634214 0.323914
O O3 0.244293 0.635341 0.150355
O O4 0.323464 0.699323 0.166197
O O5 0.867472 0.914964 0.643297
O O6 0.894302 0.887239 0.831479
O O7 0.954622 0.890768 0.674627
O O8 0.917609 0.000000 0.756738
O O9 0.000000 0.889198 0.500000
O O10 0.000000 0.000000 0.390306
O O11 0.342397 0.089392 0.837468
O O12 0.430723 0.131257 0.836224
O O13 0.411942 0.000000 0.844382
O O14 0.393681 0.079146 0.000000
O O15 0.805349 0.091859 0.500000
O O16 0.796152 0.000000 0.645251
O O17 0.227193 0.500000 0.843504
O O18 0.207686 0.575383 0.000000
O O19 0.089689 0.759923 0.155469
O O20 0.129257 0.826465 0.000000
O O21 0.000000 0.280027 0.836159
O O22 0.050048 0.297340 0.000000
#
# Coordination Sequence:
#
# PCOD8272570 Si02
#       8
#    16  16   8  16  16  16  16  16
#     4  11  21  31  47  70  93 120 158 197 235 279
#     4   9  18  31  48  70  91 116 154 196 235 275
#     4   9  16  28  49  73  91 109 143 194 244 284
#     4   8  14  25  41  61  83 107 141 187 230 262
#     4   9  18  34  52  68  91 120 149 188 240 293
#     4   9  17  29  45  65  91 121 152 190 233 273
#     4  10  21  33  44  62  92 129 163 193 225 269
#     4   9  17  28  41  56  79 116 154 182 217 266
#
# _framework density 16.271443000000001
#
# number of rings (size 3 to 8) (size 9 to 14) (size 15 to 20)
#    0.000    2.733    0.000    2.800    0.933    5.067 
#    0.000    1.333    0.000    1.200    0.000    0.000 
#    0.000    0.000    0.000    0.000    0.000    0.667 
#
# Total GULP energy -743677.497811 kJ/mol
# GULP energy per Si atom -12394.624964 kJ/mol
# Density = 1.623441 g / cm^3
# Si number density = 16.271443 Si / 1000 Ang^3
#
#
#
# Elastic Constant Matrix: (Units=GPa)
#
#
# Indices 1 2 3 4 5 6 
#
# 1 102.8498 61.8566 35.7771 0.0000 0.0000 0.0000
# 2 61.8566 106.7001 37.0763 0.0000 0.0000 0.0000
# 3 35.7771 37.0763 64.5330 0.0000 0.0000 0.0000
# 4 0.0000 0.0000 0.0000 12.5999 0.0000 0.0000
# 5 0.0000 0.0000 0.0000 0.0000 13.1295 0.0000
# 6 0.0000 0.0000 0.0000 0.0000 0.0000 27.7755
#
#
#
# Elastic Compliance Matrix: (Units=1/GPa)
#
#
# Indices 1 2 3 4 5 6 
#
# 1 0.015863 -0.007672 -0.004387 0.000000 0.000000 0.000000
# 2 -0.007672 0.015420 -0.004606 0.000000 0.000000 0.000000
# 3 -0.004387 -0.004606 0.020574 0.000000 0.000000 0.000000
# 4 0.000000 0.000000 0.000000 0.079366 0.000000 0.000000
# 5 0.000000 0.000000 0.000000 0.000000 0.076164 0.000000
# 6 0.000000 0.000000 0.000000 0.000000 0.000000 0.036003
#
#
# Mechanical properties :
#
#
# Convention : Reuss Voigt Hill
#
# Bulk Modulus (GPa) = 53.97207 60.38919 57.18063
# Shear Modulus (GPa) = 17.67437 19.99250 18.83344
#
# Velocity S-wave (km/s) = 3.29936 3.50907 3.40583
# Velocity P-wave (km/s) = 6.91059 7.32204 7.11928
#
# Compressibility (1/GPa) = 0.01852810
#
# Stress axis : x y z
#
# Youngs Moduli (GPa) = 63.04019 64.85033 48.60434
#
# Poissons Ratio (x) = 0.49752 0.21321
# Poissons Ratio (y) = 0.48363 0.22388
# Poissons Ratio (z) = 0.27654 0.29871
#
# Static dielectric constant tensor:
#      x y z
#    x 3.320280 0.000000 0.000000 
#    y 0.000000 3.221930 0.000000 
#    z 0.000000 0.000000 2.707720 
# 
# 
# High freq. dielectric constant tensor:
#      x y z
#    x 1.634360 0.000000 0.000000 
#    y 0.000000 1.627380 0.000000 
#    z 0.000000 0.000000 1.580680 
# 
# From -- ./inp_files/32856.got.cif
#   From: 2010.03.12/outbox.cif.g09.slc.cpg/sg65_17_cif.got.tgz:32856.got - 2010.04.10 20:52:16.
