data_PCOD8272196
_publ_section_title
;
Structure prediction by ZEFSAII (Michael W. Deem and Ramdas Pophale) SiO2 
 PCOD8272196
Probable space group: C M M M
;
_chemical_formula_sum "Si O2"
_cell_formula_units_Z 88
_cell_length_a 25.553738
_cell_length_b 9.917538
_cell_length_c 18.633214
_cell_angle_alpha 90.000000
_cell_angle_beta 90.000000
_cell_angle_gamma 90.000000
_cell_volume 4722.218548
_symmetry_space_group_name_H-M "C M M M"
_symmetry_group_IT_number 65
_symmetry_cell_setting 'orthorhombic'
loop_
_space_group_symop_operation_xyz
x,y,z
-x,-y,z
x,-y,-z
-x,y,-z
-x,-y,-z
x,y,-z
-x,y,z
x,-y,z
1/2+x,1/2+y,z
1/2-x,1/2-y,z
1/2+x,1/2-y,-z
1/2-x,1/2+y,-z
1/2-x,1/2-y,-z
1/2+x,1/2+y,-z
1/2-x,1/2+y,z
1/2+x,1/2-y,z
loop_
_atom_site_type_symbol
_atom_site_label
_atom_site_fract_x
_atom_site_fract_y
_atom_site_fract_z
Si Si1 0.289614 0.500000 0.915696
Si Si2 0.797271 0.345401 0.582759
Si Si3 0.500000 0.840610 0.579396
Si Si4 0.060030 0.154563 0.210283
Si Si5 0.174247 0.500000 0.915460
Si Si6 0.371595 0.719870 0.915689
Si Si7 0.401059 0.841875 0.329172
O O1 0.232108 0.500000 0.879145
O O2 0.321216 0.632634 0.892538
O O3 0.281961 0.500000 0.000000
O O4 0.812280 0.318287 0.500000
O O5 0.779865 0.500000 0.593830
O O6 0.750000 0.250000 0.607752
O O7 0.847232 0.310248 0.630676
O O8 0.500000 0.775642 0.500000
O O9 0.551653 0.792033 0.620478
O O10 0.500000 0.000000 0.572728
O O11 0.077878 0.169423 0.127611
O O12 0.096507 0.252113 0.257684
O O13 0.000000 0.201257 0.215856
O O14 0.066533 0.000000 0.235439
O O15 0.141124 0.628679 0.891631
O O16 0.182225 0.500000 0.000000
O O17 0.384219 0.704798 0.000000
O O18 0.406076 0.000000 0.309645
#
# Coordination Sequence:
#
# PCOD8272196 Si02
#       7
#     8  16   8  16   8  16  16
#     4   9  16  32  57  81 109 141 178 223 280 337
#     4   9  18  34  58  88 120 153 188 227 273 329
#     4   9  16  30  57  91 114 135 180 236 278 322
#     4  11  24  40  57  77 108 150 188 234 288 338
#     4   9  18  32  55  85 113 137 170 231 290 331
#     4  10  20  36  57  84 111 144 188 233 281 334
#     4  10  20  36  59  85 112 149 190 231 281 334
#
# _framework density 18.635308999999999
#
# number of rings (size 3 to 8) (size 9 to 14) (size 15 to 20)
#    0.000    2.273    1.818    1.091    1.273    5.455 
#    0.000    2.727    0.000    3.818    0.000    0.000 
#    0.000    0.000    0.000    0.000    0.000    0.000 
#
# Total GULP energy -545608.185936 kJ/mol
# GULP energy per Si atom -12400.186044 kJ/mol
# Density = 1.859289 g / cm^3
# Si number density = 18.635309 Si / 1000 Ang^3
#
#
#
# Elastic Constant Matrix: (Units=GPa)
#
#
# Indices 1 2 3 4 5 6 
#
# 1 122.4785 53.1179 50.6929 0.0000 0.0000 0.0000
# 2 53.1179 100.4715 36.0653 0.0000 0.0000 0.0000
# 3 50.6929 36.0653 80.5236 0.0000 0.0000 0.0000
# 4 0.0000 0.0000 0.0000 23.3451 0.0000 0.0000
# 5 0.0000 0.0000 0.0000 0.0000 26.3050 0.0000
# 6 0.0000 0.0000 0.0000 0.0000 0.0000 31.1466
#
#
#
# Elastic Compliance Matrix: (Units=1/GPa)
#
#
# Indices 1 2 3 4 5 6 
#
# 1 0.012564 -0.004532 -0.005880 0.000000 0.000000 0.000000
# 2 -0.004532 0.013494 -0.003191 0.000000 0.000000 0.000000
# 3 -0.005880 -0.003191 0.017549 0.000000 0.000000 0.000000
# 4 0.000000 0.000000 0.000000 0.042836 0.000000 0.000000
# 5 0.000000 0.000000 0.000000 0.000000 0.038016 0.000000
# 6 0.000000 0.000000 0.000000 0.000000 0.000000 0.032106
#
#
# Mechanical properties :
#
#
# Convention : Reuss Voigt Hill
#
# Bulk Modulus (GPa) = 60.96567 64.80287 62.88427
# Shear Modulus (GPa) = 26.42191 27.06584 26.74387
#
# Velocity S-wave (km/s) = 3.76951 3.81517 3.79241
# Velocity P-wave (km/s) = 7.19248 7.36594 7.27973
#
# Compressibility (1/GPa) = 0.01640267
#
# Stress axis : x y z
#
# Youngs Moduli (GPa) = 79.59535 74.10514 56.98203
#
# Poissons Ratio (x) = 0.33582 0.33503
# Poissons Ratio (y) = 0.36070 0.18183
# Poissons Ratio (z) = 0.46799 0.23647
#
# Static dielectric constant tensor:
#      x y z
#    x 3.426080 0.000000 0.000000 
#    y 0.000000 3.439690 0.000000 
#    z 0.000000 0.000000 3.258520 
# 
# 
# High freq. dielectric constant tensor:
#      x y z
#    x 1.723650 0.000000 0.000000 
#    y 0.000000 1.722010 0.000000 
#    z 0.000000 0.000000 1.704920 
# 
# From -- ./inp_files/65207.got.cif
#   From: 2010.03.12/outbox.cif.g09.slc.cpg/sg65_33_cif.got.tgz:65207.got - 2010.04.10 20:52:16.
