data_PCOD8272267
_publ_section_title
;
Structure prediction by ZEFSAII (Michael W. Deem and Ramdas Pophale) SiO2 
 PCOD8272267
Probable space group: C M M M
;
_chemical_formula_sum "Si O2"
_cell_formula_units_Z 72
_cell_length_a 16.745516
_cell_length_b 16.134489
_cell_length_c 13.758790
_cell_angle_alpha 90.000000
_cell_angle_beta 90.000000
_cell_angle_gamma 90.000000
_cell_volume 3717.354611
_symmetry_space_group_name_H-M "C M M M"
_symmetry_group_IT_number 65
_symmetry_cell_setting 'orthorhombic'
loop_
_space_group_symop_operation_xyz
x,y,z
-x,-y,z
x,-y,-z
-x,y,-z
-x,-y,-z
x,y,-z
-x,y,z
x,-y,z
1/2+x,1/2+y,z
1/2-x,1/2-y,z
1/2+x,1/2-y,-z
1/2-x,1/2+y,-z
1/2-x,1/2-y,-z
1/2+x,1/2+y,-z
1/2-x,1/2+y,z
1/2+x,1/2-y,z
loop_
_atom_site_type_symbol
_atom_site_label
_atom_site_fract_x
_atom_site_fract_y
_atom_site_fract_z
Si Si1 0.282480 0.904409 0.389430
Si Si2 0.173896 0.143730 0.219543
Si Si3 0.675713 0.903521 0.889342
Si Si4 0.592692 0.500000 0.891667
Si Si5 0.591895 0.815175 0.734087
O O1 0.260702 0.882315 0.500000
O O2 0.204034 0.885793 0.325443
O O3 0.357726 0.848629 0.357360
O O4 0.307321 0.000000 0.377484
O O5 0.250852 0.152130 0.149328
O O6 0.113989 0.079938 0.170665
O O7 0.126755 0.228426 0.229824
O O8 0.599119 0.879787 0.824154
O O9 0.698252 0.000000 0.875051
O O10 0.655854 0.881985 0.000000
O O11 0.500000 0.500000 0.909397
O O12 0.634308 0.500000 0.000000
O O13 0.500000 0.806341 0.702877
#
# Coordination Sequence:
#
# PCOD8272267 Si02
#       5
#    16  16  16   8  16
#     4  10  21  40  67  91 111 149 201 247 293 352
#     4  11  20  38  60  84 118 154 195 245 293 346
#     4  10  20  36  59  82 109 153 204 247 289 344
#     4  11  22  36  59  89 122 161 199 239 291 349
#     4  11  24  37  54  86 123 155 190 239 300 357
#
# _framework density 19.368613
#
# number of rings (size 3 to 8) (size 9 to 14) (size 15 to 20)
#    0.000    1.444    2.222    6.000    0.000    7.111 
#    0.000    2.222    0.000    2.667    0.000    0.000 
#    0.000    0.000    0.000    0.000    0.000    0.000 
#
# Total GULP energy -446380.493707 kJ/mol
# GULP energy per Si atom -12399.458159 kJ/mol
# Density = 1.932453 g / cm^3
# Si number density = 19.368613 Si / 1000 Ang^3
#
#
#
# Elastic Constant Matrix: (Units=GPa)
#
#
# Indices 1 2 3 4 5 6 
#
# 1 90.4047 32.6541 36.0632 0.0000 0.0000 0.0000
# 2 32.6541 89.7901 40.7432 0.0000 0.0000 0.0000
# 3 36.0632 40.7432 157.6494 0.0000 0.0000 0.0000
# 4 0.0000 0.0000 0.0000 17.0625 0.0000 0.0000
# 5 0.0000 0.0000 0.0000 0.0000 19.5123 0.0000
# 6 0.0000 0.0000 0.0000 0.0000 0.0000 12.3250
#
#
#
# Elastic Compliance Matrix: (Units=1/GPa)
#
#
# Indices 1 2 3 4 5 6 
#
# 1 0.013283 -0.003910 -0.002028 0.000000 0.000000 0.000000
# 2 -0.003910 0.013768 -0.002664 0.000000 0.000000 0.000000
# 3 -0.002028 -0.002664 0.007495 0.000000 0.000000 0.000000
# 4 0.000000 0.000000 0.000000 0.058608 0.000000 0.000000
# 5 0.000000 0.000000 0.000000 0.000000 0.051250 0.000000
# 6 0.000000 0.000000 0.000000 0.000000 0.000000 0.081136
#
#
# Mechanical properties :
#
#
# Convention : Reuss Voigt Hill
#
# Bulk Modulus (GPa) = 57.66283 61.86279 59.76281
# Shear Modulus (GPa) = 20.11878 25.00555 22.56216
#
# Velocity S-wave (km/s) = 3.22643 3.59700 3.41674
# Velocity P-wave (km/s) = 6.61179 7.01856 6.81821
#
# Compressibility (1/GPa) = 0.01734219
#
# Stress axis : x y z
#
# Youngs Moduli (GPa) = 75.28565 72.63298 133.41369
#
# Poissons Ratio (x) = 0.28402 0.27055
# Poissons Ratio (y) = 0.29440 0.35537
# Poissons Ratio (z) = 0.15267 0.19347
#
# Static dielectric constant tensor:
#      x y z
#    x 3.397740 0.000000 0.000000 
#    y 0.000000 3.728560 0.000000 
#    z 0.000000 0.000000 3.702440 
# 
# 
# High freq. dielectric constant tensor:
#      x y z
#    x 1.735820 0.000000 0.000000 
#    y 0.000000 1.765240 0.000000 
#    z 0.000000 0.000000 1.759560 
# 
# From -- ./inp_files/39776.got.cif
#   From: 2010.03.12/outbox.cif.g09.slc.cpg/sg65_20_cif.got.tgz:39776.got - 2010.04.10 20:52:16.
