data_PCOD8272502
_publ_section_title
;
Structure prediction by ZEFSAII (Michael W. Deem and Ramdas Pophale) SiO2 
 PCOD8272502
Probable space group: C M M M
;
_chemical_formula_sum "Si O2"
_cell_formula_units_Z 104
_cell_length_a 27.554612
_cell_length_b 9.477717
_cell_length_c 21.535387
_cell_angle_alpha 90.000000
_cell_angle_beta 90.000000
_cell_angle_gamma 90.000000
_cell_volume 5624.069999
_symmetry_space_group_name_H-M "C M M M"
_symmetry_group_IT_number 65
_symmetry_cell_setting 'orthorhombic'
loop_
_space_group_symop_operation_xyz
x,y,z
-x,-y,z
x,-y,-z
-x,y,-z
-x,-y,-z
x,y,-z
-x,y,z
x,-y,z
1/2+x,1/2+y,z
1/2-x,1/2-y,z
1/2+x,1/2-y,-z
1/2-x,1/2+y,-z
1/2-x,1/2-y,-z
1/2+x,1/2+y,-z
1/2-x,1/2+y,z
1/2+x,1/2-y,z
loop_
_atom_site_type_symbol
_atom_site_label
_atom_site_fract_x
_atom_site_fract_y
_atom_site_fract_z
Si Si1 0.612240 0.336031 0.153200
Si Si2 0.400572 0.837267 0.610358
Si Si3 0.942791 0.159073 0.500000
Si Si4 0.056232 0.664852 0.255860
Si Si5 0.295449 0.838098 0.571386
Si Si6 0.797805 0.836259 0.929862
Si Si7 0.946837 0.652039 0.072275
O O1 0.605941 0.500000 0.168820
O O2 0.594395 0.246067 0.212024
O O3 0.665761 0.300540 0.126947
O O4 0.579196 0.291235 0.095774
O O5 0.425294 0.737764 0.560896
O O6 0.425718 0.802519 0.675182
O O7 0.342864 0.805271 0.612805
O O8 0.408877 0.000000 0.590913
O O9 0.000000 0.157375 0.500000
O O10 0.921909 0.000000 0.500000
O O11 0.060225 0.500000 0.240409
O O12 0.000000 0.715652 0.248665
O O13 0.307247 0.796731 0.500000
O O14 0.250000 0.750000 0.597531
O O15 0.280169 0.000000 0.576525
O O16 0.750000 0.750000 0.914412
O O17 0.784551 0.000000 0.928402
O O18 0.817357 0.797191 0.000000
O O19 0.921548 0.500000 0.089100
O O20 0.000000 0.649532 0.103122
O O21 0.951531 0.668222 0.000000
#
# Coordination Sequence:
#
# PCOD8272502 Si02
#       7
#    16  16   8  16  16  16  16
#     4  11  22  35  53  78 109 144 179 222 275 329
#     4  10  20  38  60  81 106 144 191 233 274 328
#     4  11  23  35  52  83 116 141 172 225 290 347
#     4  10  22  39  58  79 106 146 194 236 273 322
#     4   9  17  31  53  82 111 138 172 215 265 324
#     4   9  19  36  57  82 110 140 179 226 276 331
#     4   9  18  32  50  74 104 137 176 221 264 312
#
# _framework density 18.491945999999999
#
# number of rings (size 3 to 8) (size 9 to 14) (size 15 to 20)
#    0.000    2.231    0.769    2.538    0.000    7.077 
#    0.000    3.077    0.000    3.692    0.000    0.000 
#    0.000    0.000    0.000    0.000    0.000    0.000 
#
# Total GULP energy -644393.203969 kJ/mol
# GULP energy per Si atom -12392.176999 kJ/mol
# Density = 1.844986 g / cm^3
# Si number density = 18.491946 Si / 1000 Ang^3
#
#
#
# Elastic Constant Matrix: (Units=GPa)
#
#
# Indices 1 2 3 4 5 6 
#
# 1 111.3983 64.7437 69.1232 0.0000 0.0000 0.0000
# 2 64.7437 86.9707 64.8504 0.0000 0.0000 0.0000
# 3 69.1232 64.8504 101.4433 0.0000 0.0000 0.0000
# 4 0.0000 0.0000 0.0000 23.5961 0.0000 0.0000
# 5 0.0000 0.0000 0.0000 0.0000 32.8262 0.0000
# 6 0.0000 0.0000 0.0000 0.0000 0.0000 33.6976
#
#
#
# Elastic Compliance Matrix: (Units=1/GPa)
#
#
# Indices 1 2 3 4 5 6 
#
# 1 0.018177 -0.008209 -0.007138 0.000000 0.000000 0.000000
# 2 -0.008209 0.025679 -0.010822 0.000000 0.000000 0.000000
# 3 -0.007138 -0.010822 0.021640 0.000000 0.000000 0.000000
# 4 0.000000 0.000000 0.000000 0.042380 0.000000 0.000000
# 5 0.000000 0.000000 0.000000 0.000000 0.030463 0.000000
# 6 0.000000 0.000000 0.000000 0.000000 0.000000 0.029676
#
#
# Mechanical properties :
#
#
# Convention : Reuss Voigt Hill
#
# Bulk Modulus (GPa) = 76.00346 77.47188 76.73767
# Shear Modulus (GPa) = 22.24804 24.76365 23.50585
#
# Velocity S-wave (km/s) = 3.47237 3.66342 3.56917
# Velocity P-wave (km/s) = 7.56746 7.73822 7.65332
#
# Compressibility (1/GPa) = 0.01315730
#
# Stress axis : x y z
#
# Youngs Moduli (GPa) = 55.01498 38.94245 46.21094
#
# Poissons Ratio (x) = 0.31968 0.32985
# Poissons Ratio (y) = 0.45162 0.50011
# Poissons Ratio (z) = 0.39269 0.42145
#
# Static dielectric constant tensor:
#      x y z
#    x 3.485740 0.000000 0.000000 
#    y 0.000000 3.478550 0.000000 
#    z 0.000000 0.000000 3.353620 
# 
# 
# High freq. dielectric constant tensor:
#      x y z
#    x 1.716810 0.000000 0.000000 
#    y 0.000000 1.717600 0.000000 
#    z 0.000000 0.000000 1.708160 
# 
# From -- ./inp_files/65944.got.cif
#   From: 2010.03.12/outbox.cif.g09.slc.cpg/sg65_33_cif.got.tgz:65944.got - 2010.04.10 20:52:16.
