data_PCOD8272812
_publ_section_title
;
Structure prediction by ZEFSAII (Michael W. Deem and Ramdas Pophale) SiO2 
 PCOD8272812
Probable space group: C M M M
;
_chemical_formula_sum "Si O2"
_cell_formula_units_Z 88
_cell_length_a 14.624133
_cell_length_b 15.251104
_cell_length_c 20.152632
_cell_angle_alpha 90.000000
_cell_angle_beta 90.000000
_cell_angle_gamma 90.000000
_cell_volume 4494.725618
_symmetry_space_group_name_H-M "C M M M"
_symmetry_group_IT_number 65
_symmetry_cell_setting 'orthorhombic'
loop_
_space_group_symop_operation_xyz
x,y,z
-x,-y,z
x,-y,-z
-x,y,-z
-x,-y,-z
x,y,-z
-x,y,z
x,-y,z
1/2+x,1/2+y,z
1/2-x,1/2-y,z
1/2+x,1/2-y,-z
1/2-x,1/2+y,-z
1/2-x,1/2-y,-z
1/2+x,1/2+y,-z
1/2-x,1/2+y,z
1/2+x,1/2-y,z
loop_
_atom_site_type_symbol
_atom_site_label
_atom_site_fract_x
_atom_site_fract_y
_atom_site_fract_z
Si Si1 0.251389 0.895301 0.324119
Si Si2 0.101075 0.603960 0.427552
Si Si3 0.603965 0.715609 0.107176
Si Si4 0.303166 0.403613 0.000000
Si Si5 0.101899 0.896033 0.572996
Si Si6 0.901321 0.361323 0.000000
Si Si7 0.250000 0.750000 0.215985
O O1 0.336179 0.863318 0.368313
O O2 0.163883 0.863728 0.366423
O O3 0.257691 0.839904 0.257236
O O4 0.251205 0.000000 0.308358
O O5 0.135955 0.636874 0.500000
O O6 0.100707 0.500000 0.428251
O O7 0.000000 0.641186 0.414267
O O8 0.500000 0.682329 0.122349
O O9 0.661442 0.643883 0.066121
O O10 0.599212 0.803570 0.065591
O O11 0.657634 0.738326 0.173983
O O12 0.192523 0.415950 0.000000
O O13 0.346173 0.500000 0.000000
O O14 0.134787 0.862055 0.500000
O O15 0.000000 0.861463 0.587071
O O16 0.104933 0.000000 0.571284
O O17 0.000000 0.414054 0.000000
#
# Coordination Sequence:
#
# PCOD8272812 Si02
#       7
#    16  16  16   8  16   8   8
#     4  10  21  35  53  76 107 146 190 236 286 350
#     4   8  14  28  52  77 100 132 179 238 299 348
#     4  10  21  40  62  83 115 156 198 236 281 340
#     4  11  20  36  67 100 127 146 184 245 293 335
#     4   8  14  28  52  78 103 136 182 240 304 358
#     4   9  17  37  67  91 115 150 186 229 281 326
#     4  12  24  39  55  80 116 160 200 226 286 346
#
# _framework density 19.578502
#
# number of rings (size 3 to 8) (size 9 to 14) (size 15 to 20)
#    0.000    2.545    1.818    3.000    0.000    5.273 
#    0.000    1.818    0.000    2.182    0.000    0.000 
#    0.000    0.000    0.000    0.000    0.000    0.000 
#
# Total GULP energy -545122.580858 kJ/mol
# GULP energy per Si atom -12389.149565 kJ/mol
# Density = 1.953394 g / cm^3
# Si number density = 19.578502 Si / 1000 Ang^3
#
#
#
# Elastic Constant Matrix: (Units=GPa)
#
#
# Indices 1 2 3 4 5 6 
#
# 1 150.7608 28.0828 73.4664 0.0000 0.0000 0.0000
# 2 28.0828 67.3092 42.3731 0.0000 0.0000 0.0000
# 3 73.4664 42.3731 145.7889 0.0000 0.0000 0.0000
# 4 0.0000 0.0000 0.0000 -3.9303 0.0000 0.0000
# 5 0.0000 0.0000 0.0000 0.0000 125.7014 0.0000
# 6 0.0000 0.0000 0.0000 0.0000 0.0000 -1.2672
#
#
#
# Elastic Compliance Matrix: (Units=1/GPa)
#
#
# Indices 1 2 3 4 5 6 
#
# 1 0.008856 -0.001084 -0.004148 0.000000 0.000000 0.000000
# 2 -0.001084 0.018317 -0.004778 0.000000 0.000000 0.000000
# 3 -0.004148 -0.004778 0.010338 0.000000 0.000000 0.000000
# 4 0.000000 0.000000 0.000000 -0.254433 0.000000 0.000000
# 5 0.000000 0.000000 0.000000 0.000000 0.007955 0.000000
# 6 0.000000 0.000000 0.000000 0.000000 0.000000 -0.789167
#
#
# Mechanical properties :
#
#
# Convention : Reuss Voigt Hill
#
# Bulk Modulus (GPa) = 57.16747 72.41151 64.78949
# Shear Modulus (GPa) = -5.14253 38.76322 16.81035
#
# Velocity S-wave (km/s) = -1.62244 4.45442 2.93339
# Velocity P-wave (km/s) = 5.07471 7.97003 6.68109
#
# Compressibility (1/GPa) = 0.01749247
#
# Stress axis : x y z
#
# Youngs Moduli (GPa) = 112.91575 54.59534 96.73064
#
# Poissons Ratio (x) = 0.05917 0.40122
# Poissons Ratio (y) = 0.12238 0.46213
# Poissons Ratio (z) = 0.46835 0.26083
#
# Static dielectric constant tensor:
#      x y z
#    x 4.227800 0.000000 0.000000 
#    y 0.000000 3.148250 0.000000 
#    z 0.000000 0.000000 3.449230 
# 
# 
# High freq. dielectric constant tensor:
#      x y z
#    x 1.779680 0.000000 0.000000 
#    y 0.000000 1.733950 0.000000 
#    z 0.000000 0.000000 1.750270 
# 
# From -- ./inp_files/62512.got.cif
#   From: 2010.03.12/outbox.cif.g09.slc.cpg/sg65_32_cif.got.tgz:62512.got - 2010.04.10 20:52:16.
