data_PCOD8272489
_publ_section_title
;
Structure prediction by ZEFSAII (Michael W. Deem and Ramdas Pophale) SiO2 
 PCOD8272489
Probable space group: C M M M
;
_chemical_formula_sum "Si O2"
_cell_formula_units_Z 104
_cell_length_a 27.440177
_cell_length_b 21.491067
_cell_length_c 8.702991
_cell_angle_alpha 90.000000
_cell_angle_beta 90.000000
_cell_angle_gamma 90.000000
_cell_volume 5132.316385
_symmetry_space_group_name_H-M "C M M M"
_symmetry_group_IT_number 65
_symmetry_cell_setting 'orthorhombic'
loop_
_space_group_symop_operation_xyz
x,y,z
-x,-y,z
x,-y,-z
-x,y,-z
-x,-y,-z
x,y,-z
-x,y,z
x,-y,z
1/2+x,1/2+y,z
1/2-x,1/2-y,z
1/2+x,1/2-y,-z
1/2-x,1/2+y,-z
1/2-x,1/2-y,-z
1/2+x,1/2+y,-z
1/2-x,1/2+y,z
1/2+x,1/2-y,z
loop_
_atom_site_type_symbol
_atom_site_label
_atom_site_fract_x
_atom_site_fract_y
_atom_site_fract_z
Si Si1 0.056241 0.869467 0.321037
Si Si2 0.294311 0.500000 0.681750
Si Si3 0.230265 0.872300 0.819319
Si Si4 0.000000 0.573917 0.326914
Si Si5 0.095849 0.000000 0.318025
Si Si6 0.599751 0.926702 0.822318
Si Si7 0.138315 0.790834 0.820005
Si Si8 0.172299 0.666419 0.680143
O O1 0.070397 0.863452 0.500000
O O2 0.086665 0.820575 0.222221
O O3 0.000000 0.854397 0.292989
O O4 0.067664 0.938918 0.259396
O O5 0.293888 0.500000 0.500000
O O6 0.266240 0.560534 0.740709
O O7 0.349309 0.500000 0.748241
O O8 0.181108 0.837515 0.767395
O O9 0.275804 0.831249 0.765132
O O10 0.232283 0.881532 0.000000
O O11 0.047798 0.598206 0.238909
O O12 0.000000 0.500000 0.328385
O O13 0.000000 0.600600 0.500000
O O14 0.096916 0.000000 0.500000
O O15 0.642844 0.894934 0.727938
O O16 0.604830 0.000000 0.796133
O O17 0.604232 0.908493 0.000000
O O18 0.142033 0.726838 0.728028
O O19 0.141171 0.776608 0.000000
O O20 0.181447 0.665580 0.500000
#
# Coordination Sequence:
#
# PCOD8272489 Si02
#       8
#    16   8  16   8   8  16  16  16
#     4  10  20  37  63  94 128 167 213 264 316 369
#     4  11  21  36  63  95 126 165 211 261 310 369
#     4  11  24  42  64  90 125 164 204 253 312 375
#     4   9  17  33  59  89 121 155 193 238 289 350
#     4   9  17  33  60  93 129 165 208 260 314 367
#     4  10  21  39  63  90 122 158 197 245 304 366
#     4  11  24  43  64  87 122 165 209 254 310 377
#     4  12  26  42  64  92 122 158 206 259 310 370
#
# _framework density 20.263755
#
# number of rings (size 3 to 8) (size 9 to 14) (size 15 to 20)
#    0.000    1.462    1.538    3.923    1.077    6.769 
#    1.385    0.385    0.000    0.923    0.000    0.000 
#    0.000    0.000    0.000    0.000    0.000    0.000 
#
# Total GULP energy -645149.804762 kJ/mol
# GULP energy per Si atom -12406.727015 kJ/mol
# Density = 2.021763 g / cm^3
# Si number density = 20.263755 Si / 1000 Ang^3
#
#
#
# Elastic Constant Matrix: (Units=GPa)
#
#
# Indices 1 2 3 4 5 6 
#
# 1 111.5658 33.4615 31.5730 0.0000 0.0000 0.0000
# 2 33.4615 84.5299 28.5068 0.0000 0.0000 0.0000
# 3 31.5730 28.5068 74.8762 0.0000 0.0000 0.0000
# 4 0.0000 0.0000 0.0000 26.5257 0.0000 0.0000
# 5 0.0000 0.0000 0.0000 0.0000 36.9072 0.0000
# 6 0.0000 0.0000 0.0000 0.0000 0.0000 22.4491
#
#
#
# Elastic Compliance Matrix: (Units=1/GPa)
#
#
# Indices 1 2 3 4 5 6 
#
# 1 0.010868 -0.003163 -0.003379 0.000000 0.000000 0.000000
# 2 -0.003163 0.014493 -0.004184 0.000000 0.000000 0.000000
# 3 -0.003379 -0.004184 0.016373 0.000000 0.000000 0.000000
# 4 0.000000 0.000000 0.000000 0.037699 0.000000 0.000000
# 5 0.000000 0.000000 0.000000 0.000000 0.027095 0.000000
# 6 0.000000 0.000000 0.000000 0.000000 0.000000 0.044545
#
#
# Mechanical properties :
#
#
# Convention : Reuss Voigt Hill
#
# Bulk Modulus (GPa) = 49.30197 50.89494 50.09845
# Shear Modulus (GPa) = 27.88840 29.00510 28.44675
#
# Velocity S-wave (km/s) = 3.71384 3.78746 3.75083
# Velocity P-wave (km/s) = 6.54011 6.65562 6.59812
#
# Compressibility (1/GPa) = 0.02028317
#
# Stress axis : x y z
#
# Youngs Moduli (GPa) = 92.01272 68.99782 61.07606
#
# Poissons Ratio (x) = 0.21822 0.20635
# Poissons Ratio (y) = 0.29102 0.25555
# Poissons Ratio (z) = 0.31087 0.28870
#
# Static dielectric constant tensor:
#      x y z
#    x 3.745820 0.000000 0.000000 
#    y 0.000000 3.593110 0.000000 
#    z 0.000000 0.000000 3.610050 
# 
# 
# High freq. dielectric constant tensor:
#      x y z
#    x 1.799580 0.000000 0.000000 
#    y 0.000000 1.787540 0.000000 
#    z 0.000000 0.000000 1.790200 
# 
# From -- ./inp_files/16546.got.cif
#   From: 2010.03.12/outbox.cif.g09.slc.cpg/sg65_9_cif.got.tgz:16546.got - 2010.04.10 20:52:16.
