data_PCOD8272011
_publ_section_title
;
Structure prediction by ZEFSAII (Michael W. Deem and Ramdas Pophale) SiO2 
 PCOD8272011
Probable space group: C M M M
;
_chemical_formula_sum "Si O2"
_cell_formula_units_Z 88
_cell_length_a 28.252385
_cell_length_b 11.268167
_cell_length_c 14.406413
_cell_angle_alpha 90.000000
_cell_angle_beta 90.000000
_cell_angle_gamma 90.000000
_cell_volume 4586.318925
_symmetry_space_group_name_H-M "C M M M"
_symmetry_group_IT_number 65
_symmetry_cell_setting 'orthorhombic'
loop_
_space_group_symop_operation_xyz
x,y,z
-x,-y,z
x,-y,-z
-x,y,-z
-x,-y,-z
x,y,-z
-x,y,z
x,-y,z
1/2+x,1/2+y,z
1/2-x,1/2-y,z
1/2+x,1/2-y,-z
1/2-x,1/2+y,-z
1/2-x,1/2-y,-z
1/2+x,1/2+y,-z
1/2-x,1/2+y,z
1/2+x,1/2-y,z
loop_
_atom_site_type_symbol
_atom_site_label
_atom_site_fract_x
_atom_site_fract_y
_atom_site_fract_z
Si Si1 0.697272 0.704147 0.399999
Si Si2 0.109256 0.636858 0.394792
Si Si3 0.055886 0.722191 0.223196
Si Si4 0.443903 0.000000 0.896240
Si Si5 0.121927 0.137870 0.898393
Si Si6 0.784519 0.865430 0.793138
O O1 0.684249 0.642367 0.500000
O O2 0.750000 0.750000 0.407863
O O3 0.662323 0.814912 0.382742
O O4 0.694304 0.618297 0.311197
O O5 0.090933 0.653648 0.500000
O O6 0.110166 0.500000 0.365916
O O7 0.072707 0.706426 0.328947
O O8 0.073728 0.613080 0.160550
O O9 0.081016 0.833169 0.175433
O O10 0.000000 0.740701 0.222450
O O11 0.500000 0.000000 0.901889
O O12 0.422080 0.000000 0.000000
O O13 0.173775 0.172976 0.861863
O O14 0.119361 0.000000 0.911866
O O15 0.113951 0.198409 0.000000
O O16 0.750000 0.750000 0.797858
O O17 0.764195 0.000000 0.818140
#
# Coordination Sequence:
#
# PCOD8272011 Si02
#       6
#    16  16  16   8  16  16
#     4   9  18  33  54  82 114 150 189 234 285 339
#     4  10  20  35  57  86 120 157 197 238 288 356
#     4  11  21  36  58  83 115 152 193 245 297 346
#     4   9  18  32  51  79 113 147 184 234 295 345
#     4  10  22  41  62  84 113 150 195 247 298 349
#     4  10  21  38  60  88 121 157 195 239 294 357
#
# _framework density 19.187501000000001
#
# number of rings (size 3 to 8) (size 9 to 14) (size 15 to 20)
#    0.000    2.091    2.727    0.545    0.000    5.455 
#    1.636    5.455    0.000    0.545    0.000    1.273 
#    0.000    0.000    0.000    0.000    0.000    0.000 
#
# Total GULP energy -545077.813473 kJ/mol
# GULP energy per Si atom -12388.132124 kJ/mol
# Density = 1.914383 g / cm^3
# Si number density = 19.187501 Si / 1000 Ang^3
#
#
#
# Elastic Constant Matrix: (Units=GPa)
#
#
# Indices 1 2 3 4 5 6 
#
# 1 100.5891 49.6425 59.3525 0.0000 0.0000 0.0000
# 2 49.6425 55.3146 34.1555 0.0000 0.0000 0.0000
# 3 59.3525 34.1555 130.1258 0.0000 0.0000 0.0000
# 4 0.0000 0.0000 0.0000 25.2480 0.0000 0.0000
# 5 0.0000 0.0000 0.0000 0.0000 -202.1511 0.0000
# 6 0.0000 0.0000 0.0000 0.0000 0.0000 25.5181
#
#
#
# Elastic Compliance Matrix: (Units=1/GPa)
#
#
# Indices 1 2 3 4 5 6 
#
# 1 0.020626 -0.015159 -0.005429 0.000000 0.000000 0.000000
# 2 -0.015159 0.032716 -0.001673 0.000000 0.000000 0.000000
# 3 -0.005429 -0.001673 0.010600 0.000000 0.000000 0.000000
# 4 0.000000 0.000000 0.000000 0.039607 0.000000 0.000000
# 5 0.000000 0.000000 0.000000 0.000000 -0.004947 0.000000
# 6 0.000000 0.000000 0.000000 0.000000 0.000000 0.039188
#
#
# Mechanical properties :
#
#
# Convention : Reuss Voigt Hill
#
# Bulk Modulus (GPa) = 51.49211 63.59230 57.54220
# Shear Modulus (GPa) = 26.48520 -20.75174 2.86673
#
# Velocity S-wave (km/s) = 3.71932 -3.29222 1.22364
# Velocity P-wave (km/s) = 6.73342 4.33162 5.66135
#
# Compressibility (1/GPa) = 0.01942045
#
# Stress axis : x y z
#
# Youngs Moduli (GPa) = 48.48306 30.56637 94.33721
#
# Poissons Ratio (x) = 0.46334 0.51215
# Poissons Ratio (y) = 0.73493 0.15784
# Poissons Ratio (z) = 0.26321 0.05114
#
# Static dielectric constant tensor:
#      x y z
#    x 3.276410 0.000000 0.000000 
#    y 0.000000 3.413850 0.000000 
#    z 0.000000 0.000000 4.422120 
# 
# 
# High freq. dielectric constant tensor:
#      x y z
#    x 1.726950 0.000000 0.000000 
#    y 0.000000 1.729790 0.000000 
#    z 0.000000 0.000000 1.769440 
# 
# From -- ./inp_files/33655.got.cif
#   From: 2010.03.12/outbox.cif.g09.slc.cpg/sg65_17_cif.got.tgz:33655.got - 2010.04.10 20:52:16.
