data_PCOD8272681
_publ_section_title
;
Structure prediction by ZEFSAII (Michael W. Deem and Ramdas Pophale) SiO2 
 PCOD8272681
Probable space group: C M M M
;
_chemical_formula_sum "Si O2"
_cell_formula_units_Z 120
_cell_length_a 23.467039
_cell_length_b 21.047866
_cell_length_c 13.440106
_cell_angle_alpha 90.000000
_cell_angle_beta 90.000000
_cell_angle_gamma 90.000000
_cell_volume 6638.486237
_symmetry_space_group_name_H-M "C M M M"
_symmetry_group_IT_number 65
_symmetry_cell_setting 'orthorhombic'
loop_
_space_group_symop_operation_xyz
x,y,z
-x,-y,z
x,-y,-z
-x,y,-z
-x,-y,-z
x,y,-z
-x,y,z
x,-y,z
1/2+x,1/2+y,z
1/2-x,1/2-y,z
1/2+x,1/2-y,-z
1/2-x,1/2+y,-z
1/2-x,1/2-y,-z
1/2+x,1/2+y,-z
1/2-x,1/2+y,z
1/2+x,1/2-y,z
loop_
_atom_site_type_symbol
_atom_site_label
_atom_site_fract_x
_atom_site_fract_y
_atom_site_fract_z
Si Si1 0.663547 0.924745 0.788949
Si Si2 0.932132 0.000000 0.382140
Si Si3 0.673403 0.294724 0.387857
Si Si4 0.719281 0.425269 0.111144
Si Si5 0.065590 0.796524 0.107289
Si Si6 0.382417 0.614280 0.252917
Si Si7 0.065482 0.342780 0.882026
Si Si8 0.204544 0.655504 0.387113
O O1 0.716592 0.905453 0.859391
O O2 0.605573 0.894011 0.828584
O O3 0.677641 0.900138 0.678370
O O4 0.654948 0.000000 0.784346
O O5 0.906546 0.059197 0.322583
O O6 0.914055 0.000000 0.500000
O O7 0.000000 0.000000 0.373738
O O8 0.651612 0.289555 0.500000
O O9 0.624328 0.324920 0.322755
O O10 0.727065 0.342646 0.381818
O O11 0.685027 0.224343 0.347331
O O12 0.712897 0.500000 0.108927
O O13 0.675450 0.400861 0.194014
O O14 0.706817 0.397858 0.000000
O O15 0.072623 0.859700 0.173296
O O16 0.087698 0.728237 0.149200
O O17 0.000000 0.784563 0.089683
O O18 0.094726 0.810273 0.000000
O O19 0.000000 0.354862 0.847794
O O20 0.070736 0.351481 0.000000
O O21 0.184507 0.643130 0.500000
#
# Coordination Sequence:
#
# PCOD8272681 Si02
#       8
#    16   8  16  16  16  16  16  16
#     4  11  21  34  53  81 113 148 180 223 277 327
#     4  11  26  42  55  79 113 145 185 238 278 312
#     4   9  18  32  54  78 103 139 182 227 269 321
#     4  10  21  35  49  74 112 145 178 218 263 321
#     4   9  19  35  55  79 105 137 183 234 274 317
#     4  12  19  35  57  79 105 146 184 216 276 337
#     4   9  19  37  58  80 108 142 183 229 274 325
#     4   9  18  34  52  77 111 141 177 224 271 323
#
# _framework density 18.076409000000002
#
# number of rings (size 3 to 8) (size 9 to 14) (size 15 to 20)
#    0.000    2.067    2.000    4.000    0.000    1.333 
#    0.000    0.667    0.000    5.200    0.000    4.667 
#    0.000    0.000    0.000    0.000    0.000    0.000 
#
# Total GULP energy -743477.663969 kJ/mol
# GULP energy per Si atom -12391.294399 kJ/mol
# Density = 1.803527 g / cm^3
# Si number density = 18.076409 Si / 1000 Ang^3
#
#
#
# Elastic Constant Matrix: (Units=GPa)
#
#
# Indices 1 2 3 4 5 6 
#
# 1 59.1084 37.3367 37.1590 0.0000 0.0000 0.0000
# 2 37.3367 93.2641 59.9874 0.0000 0.0000 0.0000
# 3 37.1590 59.9874 101.5133 0.0000 0.0000 0.0000
# 4 0.0000 0.0000 0.0000 32.9735 0.0000 0.0000
# 5 0.0000 0.0000 0.0000 0.0000 -147.6253 0.0000
# 6 0.0000 0.0000 0.0000 0.0000 0.0000 27.9112
#
#
#
# Elastic Compliance Matrix: (Units=1/GPa)
#
#
# Indices 1 2 3 4 5 6 
#
# 1 0.024145 -0.006422 -0.005043 0.000000 0.000000 0.000000
# 2 -0.006422 0.019005 -0.008879 0.000000 0.000000 0.000000
# 3 -0.005043 -0.008879 0.016944 0.000000 0.000000 0.000000
# 4 0.000000 0.000000 0.000000 0.030327 0.000000 0.000000
# 5 0.000000 0.000000 0.000000 0.000000 -0.006774 0.000000
# 6 0.000000 0.000000 0.000000 0.000000 0.000000 0.035828
#
#
# Mechanical properties :
#
#
# Convention : Reuss Voigt Hill
#
# Bulk Modulus (GPa) = 51.53600 58.09465 54.81532
# Shear Modulus (GPa) = 30.00594 -9.38794 10.30900
#
# Velocity S-wave (km/s) = 4.07867 -2.28139 2.39069
# Velocity P-wave (km/s) = 7.12409 5.02678 6.16527
#
# Compressibility (1/GPa) = 0.01940391
#
# Stress axis : x y z
#
# Youngs Moduli (GPa) = 41.41584 52.61882 59.01737
#
# Poissons Ratio (x) = 0.33794 0.29764
# Poissons Ratio (y) = 0.26599 0.52404
# Poissons Ratio (z) = 0.20887 0.46723
#
# Static dielectric constant tensor:
#      x y z
#    x 3.164670 0.000000 0.000000 
#    y 0.000000 3.316370 0.000000 
#    z 0.000000 0.000000 3.471200 
# 
# 
# High freq. dielectric constant tensor:
#      x y z
#    x 1.683770 0.000000 0.000000 
#    y 0.000000 1.698730 0.000000 
#    z 0.000000 0.000000 1.706540 
# 
# From -- ./inp_files/31133.got.cif
#   From: 2010.03.12/outbox.cif.g09.slc.cpg/sg65_16_cif.got.tgz:31133.got - 2010.04.10 20:52:16.
