data_PCOD8272270
_publ_section_title
;
Structure prediction by ZEFSAII (Michael W. Deem and Ramdas Pophale) SiO2 
 PCOD8272270
Probable space group: C M M M
;
_chemical_formula_sum "Si O2"
_cell_formula_units_Z 64
_cell_length_a 18.428577
_cell_length_b 20.649034
_cell_length_c 8.797900
_cell_angle_alpha 90.000000
_cell_angle_beta 90.000000
_cell_angle_gamma 90.000000
_cell_volume 3347.885237
_symmetry_space_group_name_H-M "C M M M"
_symmetry_group_IT_number 65
_symmetry_cell_setting 'orthorhombic'
loop_
_space_group_symop_operation_xyz
x,y,z
-x,-y,z
x,-y,-z
-x,y,-z
-x,-y,-z
x,y,-z
-x,y,z
x,-y,z
1/2+x,1/2+y,z
1/2-x,1/2-y,z
1/2+x,1/2-y,-z
1/2-x,1/2+y,-z
1/2-x,1/2-y,-z
1/2+x,1/2+y,-z
1/2-x,1/2+y,z
1/2+x,1/2-y,z
loop_
_atom_site_type_symbol
_atom_site_label
_atom_site_fract_x
_atom_site_fract_y
_atom_site_fract_z
Si Si1 0.329591 0.614455 0.819692
Si Si2 0.914340 0.000000 0.326626
Si Si3 0.672425 0.114561 0.321267
Si Si4 0.585564 0.000000 0.824351
Si Si5 0.335694 0.755985 0.167289
O O1 0.386406 0.563300 0.758189
O O2 0.251268 0.601146 0.747748
O O3 0.362033 0.685342 0.774606
O O4 0.320852 0.608597 0.000000
O O5 0.886753 0.000000 0.500000
O O6 0.000000 0.000000 0.316931
O O7 0.677199 0.106466 0.500000
O O8 0.642738 0.186621 0.281768
O O9 0.616127 0.063761 0.254875
O O10 0.500000 0.000000 0.802672
O O11 0.608527 0.000000 0.000000
O O12 0.250000 0.750000 0.153806
O O13 0.368084 0.771898 0.000000
#
# Coordination Sequence:
#
# PCOD8272270 Si02
#       5
#    16   8  16   8  16
#     4  10  20  36  59  83 109 143 184 224 261 315
#     4  11  24  39  54  77 111 145 180 227 278 323
#     4  11  21  34  57  86 114 141 173 220 274 324
#     4  11  24  41  58  75 103 145 188 227 266 315
#     4   8  16  32  54  81 110 140 177 220 263 312
#
# _framework density 19.116546
#
# number of rings (size 3 to 8) (size 9 to 14) (size 15 to 20)
#    0.000    2.000    0.000    6.000    0.000    7.500 
#    0.000    1.250    0.000    1.500    0.000    0.000 
#    0.000    0.000    0.000    0.000    0.000    0.000 
#
# Total GULP energy -396756.346536 kJ/mol
# GULP energy per Si atom -12398.635829 kJ/mol
# Density = 1.907304 g / cm^3
# Si number density = 19.116546 Si / 1000 Ang^3
#
#
#
# Elastic Constant Matrix: (Units=GPa)
#
#
# Indices 1 2 3 4 5 6 
#
# 1 56.1717 51.1391 47.7165 0.0000 0.0000 0.0000
# 2 51.1391 170.9507 76.8825 0.0000 0.0000 0.0000
# 3 47.7165 76.8825 147.4989 0.0000 0.0000 0.0000
# 4 0.0000 0.0000 0.0000 -99.5924 0.0000 0.0000
# 5 0.0000 0.0000 0.0000 0.0000 24.0186 0.0000
# 6 0.0000 0.0000 0.0000 0.0000 0.0000 -0.2020
#
#
#
# Elastic Compliance Matrix: (Units=1/GPa)
#
#
# Indices 1 2 3 4 5 6 
#
# 1 0.028198 -0.005659 -0.006172 0.000000 0.000000 0.000000
# 2 -0.005659 0.008777 -0.002744 0.000000 0.000000 0.000000
# 3 -0.006172 -0.002744 0.010207 0.000000 0.000000 0.000000
# 4 0.000000 0.000000 0.000000 -0.010041 0.000000 0.000000
# 5 0.000000 0.000000 0.000000 0.000000 0.041634 0.000000
# 6 0.000000 0.000000 0.000000 0.000000 0.000000 -4.950497
#
#
# Mechanical properties :
#
#
# Convention : Reuss Voigt Hill
#
# Bulk Modulus (GPa) = 55.46229 80.67749 68.06989
# Shear Modulus (GPa) = -1.03379 -1.89627 -1.46503
#
# Velocity S-wave (km/s) = -0.73618 -0.99705 -0.87637
# Velocity P-wave (km/s) = 5.32476 6.40071 5.88737
#
# Compressibility (1/GPa) = 0.01803027
#
# Stress axis : x y z
#
# Youngs Moduli (GPa) = 35.46330 113.93847 97.97483
#
# Poissons Ratio (x) = 0.64483 0.60473
# Poissons Ratio (y) = 0.20070 0.26883
# Poissons Ratio (z) = 0.21889 0.31264
#
# Static dielectric constant tensor:
#      x y z
#    x 3.112120 0.000000 0.000000 
#    y 0.000000 4.189600 0.000000 
#    z 0.000000 0.000000 3.635000 
# 
# 
# High freq. dielectric constant tensor:
#      x y z
#    x 1.704460 0.000000 0.000000 
#    y 0.000000 1.767860 0.000000 
#    z 0.000000 0.000000 1.752340 
# 
# From -- ./inp_files/8828.got.cif
#   From: 2010.03.12/outbox.cif.g09.slc.cpg/sg65_5_cif.got.tgz:8828.got - 2010.04.10 20:52:16.
