data_PCOD8272235
_publ_section_title
;
Structure prediction by ZEFSAII (Michael W. Deem and Ramdas Pophale) SiO2 
 PCOD8272235
Probable space group: C M M M
;
_chemical_formula_sum "Si O2"
_cell_formula_units_Z 80
_cell_length_a 8.769574
_cell_length_b 18.713170
_cell_length_c 25.567929
_cell_angle_alpha 90.000000
_cell_angle_beta 90.000000
_cell_angle_gamma 90.000000
_cell_volume 4195.864084
_symmetry_space_group_name_H-M "C M M M"
_symmetry_group_IT_number 65
_symmetry_cell_setting 'orthorhombic'
loop_
_space_group_symop_operation_xyz
x,y,z
-x,-y,z
x,-y,-z
-x,y,-z
-x,-y,-z
x,y,-z
-x,y,z
x,-y,z
1/2+x,1/2+y,z
1/2-x,1/2-y,z
1/2+x,1/2-y,-z
1/2-x,1/2+y,-z
1/2-x,1/2-y,-z
1/2+x,1/2+y,-z
1/2-x,1/2+y,z
1/2+x,1/2-y,z
loop_
_atom_site_type_symbol
_atom_site_label
_atom_site_fract_x
_atom_site_fract_y
_atom_site_fract_z
Si Si1 0.681054 0.173564 0.682951
Si Si2 0.179647 0.916453 0.405505
Si Si3 0.673827 0.584811 0.000000
Si Si4 0.818912 0.328933 0.500000
Si Si5 0.820959 0.323960 0.801656
Si Si6 0.319871 0.919336 0.104604
O O1 0.500000 0.175170 0.673949
O O2 0.750000 0.250000 0.665934
O O3 0.758111 0.110582 0.649985
O O4 0.726534 0.155501 0.742677
O O5 0.265381 0.871917 0.449531
O O6 0.000000 0.902766 0.409989
O O7 0.218366 0.000000 0.411708
O O8 0.750926 0.616889 0.052337
O O9 0.697545 0.500000 0.000000
O O10 0.500000 0.608506 0.000000
O O11 0.750000 0.250000 0.500000
O O12 0.000000 0.322558 0.500000
O O13 0.750000 0.250000 0.819199
O O14 0.759174 0.381827 0.842792
O O15 0.000000 0.316237 0.805253
O O16 0.500000 0.914634 0.100023
O O17 0.261416 0.000000 0.109284
#
# Coordination Sequence:
#
# PCOD8272235 Si02
#       6
#    16  16   8   8  16  16
#     4  10  20  36  58  82 110 145 185 225 267 321
#     4  11  24  41  60  85 118 150 182 226 276 321
#     4   9  17  29  46  71 100 129 165 211 262 313
#     4  12  25  42  65  89 115 149 189 228 269 322
#     4   9  19  34  53  77 105 138 174 216 263 312
#     4   9  17  31  51  73  98 131 171 213 259 312
#
# _framework density 19.066393999999999
#
# number of rings (size 3 to 8) (size 9 to 14) (size 15 to 20)
#    0.000    2.100    0.000    3.300    0.000    6.400 
#    0.000    2.500    0.000    2.400    0.000    0.000 
#    0.000    0.000    0.000    0.000    0.000    0.000 
#
# Total GULP energy -496023.014788 kJ/mol
# GULP energy per Si atom -12400.575370 kJ/mol
# Density = 1.902300 g / cm^3
# Si number density = 19.066394 Si / 1000 Ang^3
#
#
#
# Elastic Constant Matrix: (Units=GPa)
#
#
# Indices 1 2 3 4 5 6 
#
# 1 80.6746 54.6189 50.7438 0.0000 0.0000 0.0000
# 2 54.6189 116.1526 81.1319 0.0000 0.0000 0.0000
# 3 50.7438 81.1319 147.7575 0.0000 0.0000 0.0000
# 4 0.0000 0.0000 0.0000 35.1433 0.0000 0.0000
# 5 0.0000 0.0000 0.0000 0.0000 25.6075 0.0000
# 6 0.0000 0.0000 0.0000 0.0000 0.0000 28.3484
#
#
#
# Elastic Compliance Matrix: (Units=1/GPa)
#
#
# Indices 1 2 3 4 5 6 
#
# 1 0.018779 -0.007017 -0.002596 0.000000 0.000000 0.000000
# 2 -0.007017 0.016588 -0.006698 0.000000 0.000000 0.000000
# 3 -0.002596 -0.006698 0.011337 0.000000 0.000000 0.000000
# 4 0.000000 0.000000 0.000000 0.028455 0.000000 0.000000
# 5 0.000000 0.000000 0.000000 0.000000 0.039051 0.000000
# 6 0.000000 0.000000 0.000000 0.000000 0.000000 0.035275
#
#
# Mechanical properties :
#
#
# Convention : Reuss Voigt Hill
#
# Bulk Modulus (GPa) = 71.01731 79.73044 75.37387
# Shear Modulus (GPa) = 26.76615 28.35918 27.56266
#
# Velocity S-wave (km/s) = 3.75085 3.86085 3.80625
# Velocity P-wave (km/s) = 7.48911 7.86021 7.67690
#
# Compressibility (1/GPa) = 0.01408107
#
# Stress axis : x y z
#
# Youngs Moduli (GPa) = 53.24996 60.28523 88.20363
#
# Poissons Ratio (x) = 0.42304 0.22900
# Poissons Ratio (y) = 0.37367 0.59081
# Poissons Ratio (z) = 0.13825 0.40381
#
# Static dielectric constant tensor:
#      x y z
#    x 3.488790 0.000000 0.000000 
#    y 0.000000 3.451190 0.000000 
#    z 0.000000 0.000000 3.890150 
# 
# 
# High freq. dielectric constant tensor:
#      x y z
#    x 1.745020 0.000000 0.000000 
#    y 0.000000 1.725930 0.000000 
#    z 0.000000 0.000000 1.759930 
# 
# From -- ./inp_files/72885.got.cif
#   From: 2010.03.12/outbox.cif.g09.slc.cpg/sg65_37_cif.got.tgz:72885.got - 2010.04.10 20:52:16.
