data_PCOD8272381
_publ_section_title
;
Structure prediction by ZEFSAII (Michael W. Deem and Ramdas Pophale) SiO2 
 PCOD8272381
Probable space group: C M M M
;
_chemical_formula_sum "Si O2"
_cell_formula_units_Z 88
_cell_length_a 14.082778
_cell_length_b 23.554348
_cell_length_c 13.992155
_cell_angle_alpha 90.000000
_cell_angle_beta 90.000000
_cell_angle_gamma 90.000000
_cell_volume 4641.346883
_symmetry_space_group_name_H-M "C M M M"
_symmetry_group_IT_number 65
_symmetry_cell_setting 'orthorhombic'
loop_
_space_group_symop_operation_xyz
x,y,z
-x,-y,z
x,-y,-z
-x,y,-z
-x,-y,-z
x,y,-z
-x,y,z
x,-y,z
1/2+x,1/2+y,z
1/2-x,1/2-y,z
1/2+x,1/2-y,-z
1/2-x,1/2+y,-z
1/2-x,1/2-y,-z
1/2+x,1/2+y,-z
1/2-x,1/2+y,z
1/2+x,1/2-y,z
loop_
_atom_site_type_symbol
_atom_site_label
_atom_site_fract_x
_atom_site_fract_y
_atom_site_fract_z
Si Si1 0.639654 0.760952 0.889883
Si Si2 0.607241 0.857758 0.263439
Si Si3 0.240466 0.433614 0.172246
Si Si4 0.892872 0.433277 0.000000
Si Si5 0.393923 0.348384 0.226207
Si Si6 0.253929 0.684081 0.395458
O O1 0.750000 0.750000 0.885113
O O2 0.614331 0.817029 0.829737
O O3 0.592201 0.706082 0.841763
O O4 0.604986 0.768716 0.000000
O O5 0.500000 0.877334 0.279588
O O6 0.674649 0.913893 0.259998
O O7 0.647690 0.827396 0.356897
O O8 0.264890 0.500000 0.173638
O O9 0.339058 0.398692 0.169194
O O10 0.170876 0.413774 0.087756
O O11 0.906069 0.500000 0.000000
O O12 0.000000 0.406146 0.000000
O O13 0.500000 0.369735 0.252754
O O14 0.336955 0.334573 0.322946
O O15 0.270588 0.655352 0.500000
O O16 0.250000 0.750000 0.408996
#
# Coordination Sequence:
#
# PCOD8272381 Si02
#       6
#    16  16  16   8  16  16
#     4  11  21  36  56  81 117 155 190 228 275 332
#     4  11  21  35  57  85 114 146 186 230 284 346
#     4  10  22  38  54  79 114 152 194 240 278 322
#     4   9  18  34  55  78 107 147 195 237 276 325
#     4  11  22  38  59  84 114 151 194 235 279 335
#     4  10  20  37  57  83 118 148 178 228 289 345
#
# _framework density 18.960014999999999
#
# number of rings (size 3 to 8) (size 9 to 14) (size 15 to 20)
#    0.000    1.545    5.455    1.091    2.545    3.636 
#    0.000    1.818    0.000   10.364    0.000   10.182 
#    0.000    0.000    0.000    0.000    0.000    0.000 
#
# Total GULP energy -545084.484101 kJ/mol
# GULP energy per Si atom -12388.283730 kJ/mol
# Density = 1.891686 g / cm^3
# Si number density = 18.960015 Si / 1000 Ang^3
#
#
#
# Elastic Constant Matrix: (Units=GPa)
#
#
# Indices 1 2 3 4 5 6 
#
# 1 152.2961 25.7900 35.0621 0.0000 0.0000 0.0000
# 2 25.7900 80.0641 20.6112 0.0000 0.0000 0.0000
# 3 35.0621 20.6112 111.4165 0.0000 0.0000 0.0000
# 4 0.0000 0.0000 0.0000 20.8141 0.0000 0.0000
# 5 0.0000 0.0000 0.0000 0.0000 -282.9963 0.0000
# 6 0.0000 0.0000 0.0000 0.0000 0.0000 20.5961
#
#
#
# Elastic Compliance Matrix: (Units=1/GPa)
#
#
# Indices 1 2 3 4 5 6 
#
# 1 0.007333 -0.001856 -0.001964 0.000000 0.000000 0.000000
# 2 -0.001856 0.013585 -0.001929 0.000000 0.000000 0.000000
# 3 -0.001964 -0.001929 0.009950 0.000000 0.000000 0.000000
# 4 0.000000 0.000000 0.000000 0.048044 0.000000 0.000000
# 5 0.000000 0.000000 0.000000 0.000000 -0.003534 0.000000
# 6 0.000000 0.000000 0.000000 0.000000 0.000000 0.048553
#
#
# Mechanical properties :
#
#
# Convention : Reuss Voigt Hill
#
# Bulk Modulus (GPa) = 51.62947 56.30037 53.96492
# Shear Modulus (GPa) = 35.23957 -30.82965 2.20496
#
# Velocity S-wave (km/s) = 4.31586 -4.03679 1.07957
# Velocity P-wave (km/s) = 7.21979 2.83394 5.48436
#
# Compressibility (1/GPa) = 0.01936878
#
# Stress axis : x y z
#
# Youngs Moduli (GPa) = 136.37529 73.61327 100.49987
#
# Poissons Ratio (x) = 0.13665 0.19740
# Poissons Ratio (y) = 0.25316 0.19385
# Poissons Ratio (z) = 0.26786 0.14199
#
# Static dielectric constant tensor:
#      x y z
#    x 3.584370 0.000000 0.000000 
#    y 0.000000 3.323830 0.000000 
#    z 0.000000 0.000000 3.695040 
# 
# 
# High freq. dielectric constant tensor:
#      x y z
#    x 1.746920 0.000000 0.000000 
#    y 0.000000 1.721940 0.000000 
#    z 0.000000 0.000000 1.722320 
# 
# From -- ./inp_files/40602.got.cif
#   From: 2010.03.12/outbox.cif.g09.slc.cpg/sg65_21_cif.got.tgz:40602.got - 2010.04.10 20:52:16.
