data_PCOD8272003
_publ_section_title
;
Structure prediction by ZEFSAII (Michael W. Deem and Ramdas Pophale) SiO2 
 PCOD8272003
Probable space group: C M M M
;
_chemical_formula_sum "Si O2"
_cell_formula_units_Z 56
_cell_length_a 7.634523
_cell_length_b 18.177891
_cell_length_c 19.487830
_cell_angle_alpha 90.000000
_cell_angle_beta 90.000000
_cell_angle_gamma 90.000000
_cell_volume 2704.511828
_symmetry_space_group_name_H-M "C M M M"
_symmetry_group_IT_number 65
_symmetry_cell_setting 'orthorhombic'
loop_
_space_group_symop_operation_xyz
x,y,z
-x,-y,z
x,-y,-z
-x,y,-z
-x,-y,-z
x,y,-z
-x,y,z
x,-y,z
1/2+x,1/2+y,z
1/2-x,1/2-y,z
1/2+x,1/2-y,-z
1/2-x,1/2+y,-z
1/2-x,1/2-y,-z
1/2+x,1/2+y,-z
1/2-x,1/2+y,z
1/2+x,1/2-y,z
loop_
_atom_site_type_symbol
_atom_site_label
_atom_site_fract_x
_atom_site_fract_y
_atom_site_fract_z
Si Si1 0.000000 0.084729 0.580978
Si Si2 0.792211 0.916009 0.206445
Si Si3 0.705293 0.668023 0.924558
Si Si4 0.697128 0.165592 0.659643
O O1 0.825387 0.122238 0.609247
O O2 0.000000 0.093033 0.500000
O O3 0.000000 0.000000 0.604765
O O4 0.722014 0.888109 0.132508
O O5 0.701499 0.867751 0.264472
O O6 0.000000 0.906485 0.213320
O O7 0.733970 0.000000 0.215113
O O8 0.500000 0.657701 0.930220
O O9 0.750000 0.750000 0.900193
O O10 0.789570 0.652100 0.000000
O O11 0.500000 0.158379 0.630559
O O12 0.750000 0.250000 0.663589
#
# Coordination Sequence:
#
# PCOD8272003 Si02
#       4
#     8  16  16  16
#     4  11  26  48  72 102 140 174 210 263 324 388
#     4  10  20  35  57  85 123 165 208 266 326 384
#     4   9  18  32  51  77 110 155 208 261 318 379
#     4  12  24  43  69 100 131 173 221 268 321 382
#
# _framework density 20.706140000000001
#
# number of rings (size 3 to 8) (size 9 to 14) (size 15 to 20)
#    0.000    1.571    2.857    1.714    0.000    7.429 
#    0.000    4.286    0.000    0.000    0.000    6.000 
#    0.000    0.000    0.000    0.000    0.000    0.000 
#
# Total GULP energy -347221.170547 kJ/mol
# GULP energy per Si atom -12400.756091 kJ/mol
# Density = 2.065901 g / cm^3
# Si number density = 20.706140 Si / 1000 Ang^3
#
#
#
# Elastic Constant Matrix: (Units=GPa)
#
#
# Indices 1 2 3 4 5 6 
#
# 1 113.0980 55.5428 42.6509 0.0000 0.0000 0.0000
# 2 55.5428 172.9357 78.0188 0.0000 0.0000 0.0000
# 3 42.6509 78.0188 111.6395 0.0000 0.0000 0.0000
# 4 0.0000 0.0000 0.0000 43.9216 0.0000 0.0000
# 5 0.0000 0.0000 0.0000 0.0000 5.5785 0.0000
# 6 0.0000 0.0000 0.0000 0.0000 0.0000 29.0014
#
#
#
# Elastic Compliance Matrix: (Units=1/GPa)
#
#
# Indices 1 2 3 4 5 6 
#
# 1 0.010964 -0.002383 -0.002523 0.000000 0.000000 0.000000
# 2 -0.002383 0.008963 -0.005353 0.000000 0.000000 0.000000
# 3 -0.002523 -0.005353 0.013663 0.000000 0.000000 0.000000
# 4 0.000000 0.000000 0.000000 0.022768 0.000000 0.000000
# 5 0.000000 0.000000 0.000000 0.000000 0.179258 0.000000
# 6 0.000000 0.000000 0.000000 0.000000 0.000000 0.034481
#
#
# Mechanical properties :
#
#
# Convention : Reuss Voigt Hill
#
# Bulk Modulus (GPa) = 76.51044 83.34424 79.92734
# Shear Modulus (GPa) = 16.95075 30.46436 23.70755
#
# Velocity S-wave (km/s) = 2.86428 3.83988 3.38739
# Velocity P-wave (km/s) = 6.92601 7.74583 7.34736
#
# Compressibility (1/GPa) = 0.01307011
#
# Stress axis : x y z
#
# Youngs Moduli (GPa) = 91.20990 111.57031 73.19264
#
# Poissons Ratio (x) = 0.26586 0.18469
# Poissons Ratio (y) = 0.21734 0.39183
# Poissons Ratio (z) = 0.23015 0.59728
#
# Static dielectric constant tensor:
#      x y z
#    x 3.684290 0.000000 0.000000 
#    y 0.000000 3.881060 0.000000 
#    z 0.000000 0.000000 3.992540 
# 
# 
# High freq. dielectric constant tensor:
#      x y z
#    x 1.806180 0.000000 0.000000 
#    y 0.000000 1.815830 0.000000 
#    z 0.000000 0.000000 1.814250 
# 
# From -- ./inp_files/58558.got.cif
#   From: 2010.03.12/outbox.cif.g09.slc.cpg/sg65_30_cif.got.tgz:58558.got - 2010.04.10 20:52:16.
