data_PCOD8272853
_publ_section_title
;
Structure prediction by ZEFSAII (Michael W. Deem and Ramdas Pophale) SiO2 
 PCOD8272853
Probable space group: C M M M
;
_chemical_formula_sum "Si O2"
_cell_formula_units_Z 96
_cell_length_a 14.374774
_cell_length_b 14.448198
_cell_length_c 21.138499
_cell_angle_alpha 90.000000
_cell_angle_beta 90.000000
_cell_angle_gamma 90.000000
_cell_volume 4390.245999
_symmetry_space_group_name_H-M "C M M M"
_symmetry_group_IT_number 65
_symmetry_cell_setting 'orthorhombic'
loop_
_space_group_symop_operation_xyz
x,y,z
-x,-y,z
x,-y,-z
-x,y,-z
-x,-y,-z
x,y,-z
-x,y,z
x,-y,z
1/2+x,1/2+y,z
1/2-x,1/2-y,z
1/2+x,1/2-y,-z
1/2-x,1/2+y,-z
1/2-x,1/2-y,-z
1/2+x,1/2+y,-z
1/2-x,1/2+y,z
1/2+x,1/2-y,z
loop_
_atom_site_type_symbol
_atom_site_label
_atom_site_fract_x
_atom_site_fract_y
_atom_site_fract_z
Si Si1 0.893041 0.000000 0.124489
Si Si2 0.392434 0.700811 0.309438
Si Si3 0.288942 0.000000 0.795892
Si Si4 0.804365 0.500000 0.571890
Si Si5 0.821521 0.000000 0.318039
Si Si6 0.111450 0.689821 0.812835
Si Si7 0.109800 0.305870 0.570127
Si Si8 0.891677 0.195928 0.931120
O O1 0.874338 0.911973 0.080887
O O2 0.818540 0.000000 0.180973
O O3 0.000000 0.000000 0.151577
O O4 0.500000 0.724730 0.310894
O O5 0.379952 0.591391 0.301687
O O6 0.350086 0.755291 0.248927
O O7 0.347633 0.738291 0.375501
O O8 0.346739 0.088099 0.817888
O O9 0.276480 0.000000 0.720172
O O10 0.772656 0.500000 0.500000
O O11 0.706832 0.500000 0.608835
O O12 0.865555 0.589404 0.588714
O O13 0.151183 0.742988 0.874575
O O14 0.000000 0.684576 0.812059
O O15 0.149574 0.279433 0.500000
O O16 0.000000 0.296369 0.568208
O O17 0.000000 0.217420 0.933068
O O18 0.847966 0.221490 0.000000
#
# Coordination Sequence:
#
# PCOD8272853 Si02
#       8
#     8  16   8   8   8  16  16  16
#     4  10  21  37  59  88 121 154 192 236 281 336
#     4  10  22  40  61  83 110 148 192 238 288 342
#     4  12  25  39  60  88 118 153 193 238 292 348
#     4  10  21  35  54  83 116 149 185 231 285 337
#     4  12  25  37  54  82 116 150 189 231 282 345
#     4  10  22  41  63  87 115 149 192 243 296 347
#     4   9  18  35  59  84 110 144 188 235 282 334
#     4   9  18  36  62  88 117 155 195 238 288 339
#
# _framework density 21.866657
#
# number of rings (size 3 to 8) (size 9 to 14) (size 15 to 20)
#    0.000    2.000    0.000    3.000    0.000    9.333 
#    0.000    7.917    0.000    4.500    0.000    0.000 
#    0.000    0.000    0.000    0.000    0.000    0.000 
#
# Total GULP energy -595055.339152 kJ/mol
# GULP energy per Si atom -12396.986232 kJ/mol
# Density = 2.181689 g / cm^3
# Si number density = 21.866657 Si / 1000 Ang^3
#
#
#
# Elastic Constant Matrix: (Units=GPa)
#
#
# Indices 1 2 3 4 5 6 
#
# 1 42.2728 20.2698 24.5260 0.0000 0.0000 0.0000
# 2 20.2698 176.9456 93.2990 0.0000 0.0000 0.0000
# 3 24.5260 93.2990 182.3770 0.0000 0.0000 0.0000
# 4 0.0000 0.0000 0.0000 30.4456 0.0000 0.0000
# 5 0.0000 0.0000 0.0000 0.0000 9.5615 0.0000
# 6 0.0000 0.0000 0.0000 0.0000 0.0000 20.5379
#
#
#
# Elastic Compliance Matrix: (Units=1/GPa)
#
#
# Indices 1 2 3 4 5 6 
#
# 1 0.025965 -0.001552 -0.002698 0.000000 0.000000 0.000000
# 2 -0.001552 0.007832 -0.003798 0.000000 0.000000 0.000000
# 3 -0.002698 -0.003798 0.007789 0.000000 0.000000 0.000000
# 4 0.000000 0.000000 0.000000 0.032845 0.000000 0.000000
# 5 0.000000 0.000000 0.000000 0.000000 0.104586 0.000000
# 6 0.000000 0.000000 0.000000 0.000000 0.000000 0.048690
#
#
# Mechanical properties :
#
#
# Convention : Reuss Voigt Hill
#
# Bulk Modulus (GPa) = 39.23006 75.30944 57.26975
# Shear Modulus (GPa) = 19.81771 29.67572 24.74671
#
# Velocity S-wave (km/s) = 3.01374 3.68791 3.36774
# Velocity P-wave (km/s) = 5.48541 7.25598 6.43191
#
# Compressibility (1/GPa) = 0.02549066
#
# Stress axis : x y z
#
# Youngs Moduli (GPa) = 38.51292 127.68612 128.38950
#
# Poissons Ratio (x) = 0.19816 0.34638
# Poissons Ratio (y) = 0.05977 0.48760
# Poissons Ratio (z) = 0.10390 0.48492
#
# Static dielectric constant tensor:
#      x y z
#    x 3.574940 0.000000 0.000000 
#    y 0.000000 3.871380 0.000000 
#    z 0.000000 0.000000 4.562400 
# 
# 
# High freq. dielectric constant tensor:
#      x y z
#    x 1.843020 0.000000 0.000000 
#    y 0.000000 1.860290 0.000000 
#    z 0.000000 0.000000 1.873880 
# 
# From -- ./inp_files/62708.got.cif
#   From: 2010.03.12/outbox.cif.g09.slc.cpg/sg65_32_cif.got.tgz:62708.got - 2010.04.10 20:52:16.
