data_PCOD8272074
_publ_section_title
;
Structure prediction by ZEFSAII (Michael W. Deem and Ramdas Pophale) SiO2 
 PCOD8272074
Probable space group: C M M M
;
_chemical_formula_sum "Si O2"
_cell_formula_units_Z 80
_cell_length_a 21.564804
_cell_length_b 18.712742
_cell_length_c 10.184583
_cell_angle_alpha 90.000000
_cell_angle_beta 90.000000
_cell_angle_gamma 90.000000
_cell_volume 4109.852134
_symmetry_space_group_name_H-M "C M M M"
_symmetry_group_IT_number 65
_symmetry_cell_setting 'orthorhombic'
loop_
_space_group_symop_operation_xyz
x,y,z
-x,-y,z
x,-y,-z
-x,y,-z
-x,-y,-z
x,y,-z
-x,y,z
x,-y,z
1/2+x,1/2+y,z
1/2-x,1/2-y,z
1/2+x,1/2-y,-z
1/2-x,1/2+y,-z
1/2-x,1/2-y,-z
1/2+x,1/2+y,-z
1/2-x,1/2+y,z
1/2+x,1/2-y,z
loop_
_atom_site_type_symbol
_atom_site_label
_atom_site_fract_x
_atom_site_fract_y
_atom_site_fract_z
Si Si1 0.931533 0.915591 0.000000
Si Si2 0.231814 0.419538 0.849955
Si Si3 0.000000 0.578736 0.154847
Si Si4 0.613850 0.174819 0.154192
Si Si5 0.571770 0.289335 0.645472
Si Si6 0.136873 0.917507 0.740286
O O1 0.894620 0.890029 0.873651
O O2 0.000000 0.880652 0.000000
O O3 0.936439 0.000000 0.000000
O O4 0.205530 0.500000 0.830449
O O5 0.179231 0.362429 0.816707
O O6 0.289266 0.406387 0.752567
O O7 0.254838 0.410755 0.000000
O O8 0.060620 0.620732 0.201145
O O9 0.000000 0.500000 0.219870
O O10 0.000000 0.570700 0.000000
O O11 0.608573 0.243952 0.245514
O O12 0.607141 0.195366 0.000000
O O13 0.575861 0.254217 0.500000
O O14 0.500000 0.298857 0.687230
O O15 0.606349 0.366141 0.632115
O O16 0.121509 0.000000 0.706867
#
# Coordination Sequence:
#
# PCOD8272074 Si02
#       6
#     8  16   8  16  16  16
#     4   9  16  28  50  81 110 137 177 234 285 325
#     4   9  17  33  58  90 124 152 183 234 294 347
#     4   9  16  30  55  89 118 141 184 242 286 328
#     4  10  20  35  59  89 117 152 193 234 286 349
#     4  11  25  42  58  79 115 158 195 245 299 343
#     4  10  20  36  57  84 115 149 192 238 289 345
#
# _framework density 19.465420999999999
#
# number of rings (size 3 to 8) (size 9 to 14) (size 15 to 20)
#    0.000    2.200    2.000    1.200    1.400    4.800 
#    0.000    5.000    0.000    4.200    0.000    0.000 
#    0.000    0.000    0.000    0.000    0.000    0.000 
#
# Total GULP energy -495883.383076 kJ/mol
# GULP energy per Si atom -12397.084577 kJ/mol
# Density = 1.942112 g / cm^3
# Si number density = 19.465421 Si / 1000 Ang^3
#
#
#
# Elastic Constant Matrix: (Units=GPa)
#
#
# Indices 1 2 3 4 5 6 
#
# 1 107.9607 51.0126 31.7395 0.0000 0.0000 0.0000
# 2 51.0126 109.7029 40.4748 0.0000 0.0000 0.0000
# 3 31.7395 40.4748 65.6907 0.0000 0.0000 0.0000
# 4 0.0000 0.0000 0.0000 14.8434 0.0000 0.0000
# 5 0.0000 0.0000 0.0000 0.0000 18.2722 0.0000
# 6 0.0000 0.0000 0.0000 0.0000 0.0000 50.5864
#
#
#
# Elastic Compliance Matrix: (Units=1/GPa)
#
#
# Indices 1 2 3 4 5 6 
#
# 1 0.012353 -0.004584 -0.003144 0.000000 0.000000 0.000000
# 2 -0.004584 0.013499 -0.006102 0.000000 0.000000 0.000000
# 3 -0.003144 -0.006102 0.020502 0.000000 0.000000 0.000000
# 4 0.000000 0.000000 0.000000 0.067370 0.000000 0.000000
# 5 0.000000 0.000000 0.000000 0.000000 0.054728 0.000000
# 6 0.000000 0.000000 0.000000 0.000000 0.000000 0.019768
#
#
# Mechanical properties :
#
#
# Convention : Reuss Voigt Hill
#
# Bulk Modulus (GPa) = 53.49709 58.86755 56.18232
# Shear Modulus (GPa) = 22.51125 27.41556 24.96340
#
# Velocity S-wave (km/s) = 3.40439 3.75697 3.58501
# Velocity P-wave (km/s) = 6.55713 7.00910 6.78688
#
# Compressibility (1/GPa) = 0.01869261
#
# Stress axis : x y z
#
# Youngs Moduli (GPa) = 80.95164 74.08172 48.77643
#
# Poissons Ratio (x) = 0.33961 0.15335
# Poissons Ratio (y) = 0.37110 0.29764
# Poissons Ratio (z) = 0.25451 0.45205
#
# Static dielectric constant tensor:
#      x y z
#    x 3.576420 0.000000 0.000000 
#    y 0.000000 3.497340 0.000000 
#    z 0.000000 0.000000 3.233620 
# 
# 
# High freq. dielectric constant tensor:
#      x y z
#    x 1.765340 0.000000 0.000000 
#    y 0.000000 1.754700 0.000000 
#    z 0.000000 0.000000 1.720940 
# 
# From -- ./inp_files/28585.got.cif
#   From: 2010.03.12/outbox.cif.g09.slc.cpg/sg65_15_cif.got.tgz:28585.got - 2010.04.10 20:52:16.
