data_PCOD8272505
_publ_section_title
;
Structure prediction by ZEFSAII (Michael W. Deem and Ramdas Pophale) SiO2 
 PCOD8272505
Probable space group: C M M M
;
_chemical_formula_sum "Si O2"
_cell_formula_units_Z 88
_cell_length_a 19.432222
_cell_length_b 19.114092
_cell_length_c 12.077234
_cell_angle_alpha 90.000000
_cell_angle_beta 90.000000
_cell_angle_gamma 90.000000
_cell_volume 4485.838318
_symmetry_space_group_name_H-M "C M M M"
_symmetry_group_IT_number 65
_symmetry_cell_setting 'orthorhombic'
loop_
_space_group_symop_operation_xyz
x,y,z
-x,-y,z
x,-y,-z
-x,y,-z
-x,-y,-z
x,y,-z
-x,y,z
x,-y,z
1/2+x,1/2+y,z
1/2-x,1/2-y,z
1/2+x,1/2-y,-z
1/2-x,1/2+y,-z
1/2-x,1/2-y,-z
1/2+x,1/2+y,-z
1/2-x,1/2+y,z
1/2+x,1/2-y,z
loop_
_atom_site_type_symbol
_atom_site_label
_atom_site_fract_x
_atom_site_fract_y
_atom_site_fract_z
Si Si1 0.216222 0.920677 0.000000
Si Si2 0.422018 0.682687 0.755263
Si Si3 0.576513 0.356864 0.000000
Si Si4 0.419523 0.922541 0.500000
Si Si5 0.079597 0.340730 0.718073
Si Si6 0.297532 0.081484 0.207049
Si Si7 0.680783 0.418637 0.628540
O O1 0.248533 0.887448 0.889506
O O2 0.133636 0.917037 0.000000
O O3 0.238363 0.000000 0.000000
O O4 0.500000 0.660900 0.726815
O O5 0.405487 0.758703 0.705463
O O6 0.374441 0.625670 0.697250
O O7 0.412476 0.688707 0.888658
O O8 0.500000 0.390732 0.000000
O O9 0.500000 0.934093 0.500000
O O10 0.397739 0.878322 0.394430
O O11 0.383918 0.000000 0.500000
O O12 0.131337 0.375608 0.805809
O O13 0.000000 0.354611 0.751445
O O14 0.256896 0.094950 0.322216
O O15 0.315163 0.000000 0.193045
O O16 0.680873 0.396325 0.500000
O O17 0.660629 0.500000 0.643272
#
# Coordination Sequence:
#
# PCOD8272505 Si02
#       7
#     8  16   8   8  16  16  16
#     4  10  20  38  60  87 117 151 201 254 300 352
#     4  10  22  39  60  87 120 156 198 248 297 350
#     4  10  20  38  61  84 115 159 203 244 293 352
#     4   9  18  34  58  85 113 153 204 247 287 341
#     4  10  22  38  57  86 120 156 196 243 297 352
#     4  10  21  38  60  85 117 154 195 247 300 350
#     4  10  22  39  59  85 119 160 200 241 298 364
#
# _framework density 19.617291000000002
#
# number of rings (size 3 to 8) (size 9 to 14) (size 15 to 20)
#    0.000    2.091    1.818    0.545    2.545    3.455 
#    0.000    5.909    0.000    1.636    0.000    0.000 
#    0.000    0.000    0.000    0.000    0.000    0.000 
#
# Total GULP energy -545373.984579 kJ/mol
# GULP energy per Si atom -12394.863286 kJ/mol
# Density = 1.957264 g / cm^3
# Si number density = 19.617291 Si / 1000 Ang^3
#
#
#
# Elastic Constant Matrix: (Units=GPa)
#
#
# Indices 1 2 3 4 5 6 
#
# 1 133.0007 59.2892 47.4616 0.0000 0.0000 0.0000
# 2 59.2892 92.6823 46.3184 0.0000 0.0000 0.0000
# 3 47.4616 46.3184 117.3911 0.0000 0.0000 0.0000
# 4 0.0000 0.0000 0.0000 13.6981 0.0000 0.0000
# 5 0.0000 0.0000 0.0000 0.0000 24.6879 0.0000
# 6 0.0000 0.0000 0.0000 0.0000 0.0000 33.1443
#
#
#
# Elastic Compliance Matrix: (Units=1/GPa)
#
#
# Indices 1 2 3 4 5 6 
#
# 1 0.010905 -0.005945 -0.002063 0.000000 0.000000 0.000000
# 2 -0.005945 0.016681 -0.004178 0.000000 0.000000 0.000000
# 3 -0.002063 -0.004178 0.011001 0.000000 0.000000 0.000000
# 4 0.000000 0.000000 0.000000 0.073003 0.000000 0.000000
# 5 0.000000 0.000000 0.000000 0.000000 0.040506 0.000000
# 6 0.000000 0.000000 0.000000 0.000000 0.000000 0.030171
#
#
# Mechanical properties :
#
#
# Convention : Reuss Voigt Hill
#
# Bulk Modulus (GPa) = 70.35110 72.13473 71.24292
# Shear Modulus (GPa) = 23.65441 26.97306 25.31373
#
# Velocity S-wave (km/s) = 3.47622 3.71207 3.59608
# Velocity P-wave (km/s) = 7.21469 7.43125 7.32377
#
# Compressibility (1/GPa) = 0.01421442
#
# Stress axis : x y z
#
# Youngs Moduli (GPa) = 91.69938 59.95017 90.89874
#
# Poissons Ratio (x) = 0.35640 0.18756
# Poissons Ratio (y) = 0.54515 0.37977
# Poissons Ratio (z) = 0.18921 0.25047
#
# Static dielectric constant tensor:
#      x y z
#    x 3.573820 0.000000 0.000000 
#    y 0.000000 3.364450 0.000000 
#    z 0.000000 0.000000 3.811410 
# 
# 
# High freq. dielectric constant tensor:
#      x y z
#    x 1.770890 0.000000 0.000000 
#    y 0.000000 1.746890 0.000000 
#    z 0.000000 0.000000 1.767240 
# 
# From -- ./inp_files/26840.got.cif
#   From: 2010.03.12/outbox.cif.g09.slc.cpg/sg65_14_cif.got.tgz:26840.got - 2010.04.10 20:52:16.
