data_PCOD8272855
_publ_section_title
;
Structure prediction by ZEFSAII (Michael W. Deem and Ramdas Pophale) SiO2 
 PCOD8272855
Probable space group: C M M M
;
_chemical_formula_sum "Si O2"
_cell_formula_units_Z 68
_cell_length_a 7.542614
_cell_length_b 23.490607
_cell_length_c 19.623467
_cell_angle_alpha 90.000000
_cell_angle_beta 90.000000
_cell_angle_gamma 90.000000
_cell_volume 3476.897289
_symmetry_space_group_name_H-M "C M M M"
_symmetry_group_IT_number 65
_symmetry_cell_setting 'orthorhombic'
loop_
_space_group_symop_operation_xyz
x,y,z
-x,-y,z
x,-y,-z
-x,y,-z
-x,-y,-z
x,y,-z
-x,y,z
x,-y,z
1/2+x,1/2+y,z
1/2-x,1/2-y,z
1/2+x,1/2-y,-z
1/2-x,1/2+y,-z
1/2-x,1/2-y,-z
1/2+x,1/2+y,-z
1/2-x,1/2+y,z
1/2+x,1/2-y,z
loop_
_atom_site_type_symbol
_atom_site_label
_atom_site_fract_x
_atom_site_fract_y
_atom_site_fract_z
Si Si1 0.790869 0.816104 0.166281
Si Si2 0.298468 0.618757 0.296394
Si Si3 0.000000 0.623846 0.078676
Si Si4 0.293820 0.187278 0.424595
Si Si5 0.500000 0.000000 0.132948
Si Si6 0.212156 0.000000 0.246317
O O1 0.750000 0.750000 0.161337
O O2 0.718701 0.838008 0.240269
O O3 0.679156 0.849836 0.110151
O O4 0.000000 0.827414 0.154360
O O5 0.500000 0.613812 0.276751
O O6 0.278874 0.640384 0.373275
O O7 0.221107 0.555051 0.289238
O O8 0.000000 0.555867 0.086382
O O9 0.000000 0.640312 0.000000
O O10 0.207332 0.179223 0.500000
O O11 0.500000 0.178574 0.429977
O O12 0.250000 0.250000 0.396236
O O13 0.317929 0.000000 0.175840
O O14 0.000000 0.000000 0.232091
#
# Coordination Sequence:
#
# PCOD8272855 Si02
#       6
#    16  16   8  16   4   8
#     4  11  23  41  64  95 128 163 210 258 314 377
#     4  10  21  37  61  87 116 158 203 255 306 361
#     4  12  27  44  66  96 128 167 208 253 317 385
#     4  10  21  35  54  84 121 159 199 246 304 366
#     4  12  23  44  72  90 121 172 202 268 303 378
#     4  10  22  39  62  92 121 153 209 260 311 356
#
# _framework density 19.557666999999999
#
# number of rings (size 3 to 8) (size 9 to 14) (size 15 to 20)
#    0.000    1.412    3.529    1.588    3.294    4.235 
#    0.000    0.588    0.000    5.647    0.000    0.000 
#    0.000    0.000    0.000    0.000    0.000    0.000 
#
# Total GULP energy -421460.292373 kJ/mol
# GULP energy per Si atom -12395.890952 kJ/mol
# Density = 1.951315 g / cm^3
# Si number density = 19.557667 Si / 1000 Ang^3
#
#
#
# Elastic Constant Matrix: (Units=GPa)
#
#
# Indices 1 2 3 4 5 6 
#
# 1 81.4938 31.8926 29.6186 0.0000 0.0000 0.0000
# 2 31.8926 152.4766 63.1267 0.0000 0.0000 0.0000
# 3 29.6186 63.1267 127.7763 0.0000 0.0000 0.0000
# 4 0.0000 0.0000 0.0000 33.2223 0.0000 0.0000
# 5 0.0000 0.0000 0.0000 0.0000 22.8186 0.0000
# 6 0.0000 0.0000 0.0000 0.0000 0.0000 2.1377
#
#
#
# Elastic Compliance Matrix: (Units=1/GPa)
#
#
# Indices 1 2 3 4 5 6 
#
# 1 0.013856 -0.001972 -0.002238 0.000000 0.000000 0.000000
# 2 -0.001972 0.008525 -0.003755 0.000000 0.000000 0.000000
# 3 -0.002238 -0.003755 0.010200 0.000000 0.000000 0.000000
# 4 0.000000 0.000000 0.000000 0.030100 0.000000 0.000000
# 5 0.000000 0.000000 0.000000 0.000000 0.043824 0.000000
# 6 0.000000 0.000000 0.000000 0.000000 0.000000 0.467793
#
#
# Mechanical properties :
#
#
# Convention : Reuss Voigt Hill
#
# Bulk Modulus (GPa) = 60.05065 67.89138 63.97101
# Shear Modulus (GPa) = 8.39239 27.44298 17.91768
#
# Velocity S-wave (km/s) = 2.07374 3.74997 3.03007
# Velocity P-wave (km/s) = 6.04193 7.31700 6.70982
#
# Compressibility (1/GPa) = 0.01665261
#
# Stress axis : x y z
#
# Youngs Moduli (GPa) = 72.17209 117.29765 98.04019
#
# Poissons Ratio (x) = 0.23128 0.21938
# Poissons Ratio (y) = 0.14230 0.36812
# Poissons Ratio (z) = 0.16150 0.44043
#
# Static dielectric constant tensor:
#      x y z
#    x 3.737610 0.000000 0.000000 
#    y 0.000000 3.885570 0.000000 
#    z 0.000000 0.000000 3.835290 
# 
# 
# High freq. dielectric constant tensor:
#      x y z
#    x 1.769840 0.000000 0.000000 
#    y 0.000000 1.771120 0.000000 
#    z 0.000000 0.000000 1.748320 
# 
# From -- ./inp_files/49280.got.cif
#   From: 2010.03.12/outbox.cif.g09.slc.cpg/sg65_25_cif.got.tgz:49280.got - 2010.04.10 20:52:16.
