data_PCOD8272583
_publ_section_title
;
Structure prediction by ZEFSAII (Michael W. Deem and Ramdas Pophale) SiO2 
 PCOD8272583
Probable space group: C M M M
;
_chemical_formula_sum "Si O2"
_cell_formula_units_Z 64
_cell_length_a 7.753221
_cell_length_b 18.028446
_cell_length_c 24.434179
_cell_angle_alpha 90.000000
_cell_angle_beta 90.000000
_cell_angle_gamma 90.000000
_cell_volume 3415.373528
_symmetry_space_group_name_H-M "C M M M"
_symmetry_group_IT_number 65
_symmetry_cell_setting 'orthorhombic'
loop_
_space_group_symop_operation_xyz
x,y,z
-x,-y,z
x,-y,-z
-x,y,-z
-x,-y,-z
x,y,-z
-x,y,z
x,-y,z
1/2+x,1/2+y,z
1/2-x,1/2-y,z
1/2+x,1/2-y,-z
1/2-x,1/2+y,-z
1/2-x,1/2-y,-z
1/2+x,1/2+y,-z
1/2-x,1/2+y,z
1/2+x,1/2-y,z
loop_
_atom_site_type_symbol
_atom_site_label
_atom_site_fract_x
_atom_site_fract_y
_atom_site_fract_z
Si Si1 0.310393 0.911985 0.616243
Si Si2 0.804589 0.088149 0.500000
Si Si3 0.798658 0.664877 0.000000
Si Si4 0.301808 0.087457 0.890823
Si Si5 0.000000 0.912147 0.812068
Si Si6 0.500000 0.588729 0.310482
O O1 0.500000 0.888522 0.637298
O O2 0.284785 0.880133 0.554828
O O3 0.168524 0.880151 0.658118
O O4 0.290704 0.000000 0.614004
O O5 0.000000 0.115445 0.500000
O O6 0.792419 0.000000 0.500000
O O7 0.750000 0.750000 0.000000
O O8 0.726963 0.625977 0.945456
O O9 0.000000 0.652450 0.000000
O O10 0.500000 0.110837 0.877155
O O11 0.175198 0.114382 0.842287
O O12 0.289931 0.000000 0.900076
O O13 0.000000 0.878693 0.750930
O O14 0.000000 0.000000 0.809096
O O15 0.500000 0.500000 0.309530
#
# Coordination Sequence:
#
# PCOD8272583 Si02
#       6
#    16   8   8  16   8   8
#     4   9  15  21  30  43  63  92 126 170 221 264
#     4   9  13  19  29  40  59  89 124 167 219 267
#     4  10  21  33  50  76 100 120 145 185 232 272
#     4   9  18  33  50  68  92 122 153 183 222 276
#     4   9  18  29  45  63  81 114 151 183 221 265
#     4   9  16  25  33  49  71  92 131 179 219 253
#
# _framework density 18.738799
#
# number of rings (size 3 to 8) (size 9 to 14) (size 15 to 20)
#    0.000    2.875    1.250    0.750    1.750    4.000 
#    0.000    6.875    0.000    0.000    0.000    0.000 
#    0.000    0.000    0.000    0.000    0.000    0.000 
#
# Total GULP energy -396609.408340 kJ/mol
# GULP energy per Si atom -12394.044011 kJ/mol
# Density = 1.869615 g / cm^3
# Si number density = 18.738799 Si / 1000 Ang^3
#
#
#
# Elastic Constant Matrix: (Units=GPa)
#
#
# Indices 1 2 3 4 5 6 
#
# 1 147.4115 12.3331 95.8624 0.0000 0.0000 0.0000
# 2 12.3331 17.5291 18.7462 0.0000 0.0000 0.0000
# 3 95.8624 18.7462 187.7637 0.0000 0.0000 0.0000
# 4 0.0000 0.0000 0.0000 0.9158 0.0000 0.0000
# 5 0.0000 0.0000 0.0000 0.0000 24.5533 0.0000
# 6 0.0000 0.0000 0.0000 0.0000 0.0000 9.8548
#
#
#
# Elastic Compliance Matrix: (Units=1/GPa)
#
#
# Indices 1 2 3 4 5 6 
#
# 1 0.010206 -0.001801 -0.005031 0.000000 0.000000 0.000000
# 2 -0.001801 0.064185 -0.005489 0.000000 0.000000 0.000000
# 3 -0.005031 -0.005489 0.008442 0.000000 0.000000 0.000000
# 4 0.000000 0.000000 0.000000 1.091898 0.000000 0.000000
# 5 0.000000 0.000000 0.000000 0.000000 0.040728 0.000000
# 6 0.000000 0.000000 0.000000 0.000000 0.000000 0.101473
#
#
# Mechanical properties :
#
#
# Convention : Reuss Voigt Hill
#
# Bulk Modulus (GPa) = 17.18433 67.39863 42.29148
# Shear Modulus (GPa) = 3.67385 22.11562 12.89474
#
# Velocity S-wave (km/s) = 1.40172 3.43914 2.62607
# Velocity P-wave (km/s) = 3.43658 7.19831 5.64029
#
# Compressibility (1/GPa) = 0.05819256
#
# Stress axis : x y z
#
# Youngs Moduli (GPa) = 97.98179 15.57999 118.45032
#
# Poissons Ratio (x) = 0.02805 0.59591
# Poissons Ratio (y) = 0.17642 0.65016
# Poissons Ratio (z) = 0.49293 0.08552
#
# Static dielectric constant tensor:
#      x y z
#    x 3.679360 0.000000 0.000000 
#    y 0.000000 2.638280 0.000000 
#    z 0.000000 0.000000 3.761470 
# 
# 
# High freq. dielectric constant tensor:
#      x y z
#    x 1.742640 0.000000 0.000000 
#    y 0.000000 1.641200 0.000000 
#    z 0.000000 0.000000 1.732640 
# 
# From -- ./inp_files/58917.got.cif
#   From: 2010.03.12/outbox.cif.g09.slc.cpg/sg65_30_cif.got.tgz:58917.got - 2010.04.10 20:52:16.
