data_PCOD8272302
_publ_section_title
;
Structure prediction by ZEFSAII (Michael W. Deem and Ramdas Pophale) SiO2 
 PCOD8272302
Probable space group: C M M M
;
_chemical_formula_sum "Si O2"
_cell_formula_units_Z 64
_cell_length_a 18.615494
_cell_length_b 7.875579
_cell_length_c 22.239745
_cell_angle_alpha 90.000000
_cell_angle_beta 90.000000
_cell_angle_gamma 90.000000
_cell_volume 3260.519945
_symmetry_space_group_name_H-M "C M M M"
_symmetry_group_IT_number 65
_symmetry_cell_setting 'orthorhombic'
loop_
_space_group_symop_operation_xyz
x,y,z
-x,-y,z
x,-y,-z
-x,y,-z
-x,-y,-z
x,y,-z
-x,y,z
x,-y,z
1/2+x,1/2+y,z
1/2-x,1/2-y,z
1/2+x,1/2-y,-z
1/2-x,1/2+y,-z
1/2-x,1/2-y,-z
1/2+x,1/2+y,-z
1/2-x,1/2+y,z
1/2+x,1/2-y,z
loop_
_atom_site_type_symbol
_atom_site_label
_atom_site_fract_x
_atom_site_fract_y
_atom_site_fract_z
Si Si1 0.914667 0.500000 0.567141
Si Si2 0.582847 0.689458 0.647561
Si Si3 0.084899 0.814922 0.000000
Si Si4 0.668645 0.807010 0.757499
Si Si5 0.081944 0.797411 0.870261
O O1 0.881832 0.500000 0.500000
O O2 0.887454 0.670447 0.600740
O O3 0.000000 0.500000 0.563656
O O4 0.500000 0.727816 0.663039
O O5 0.591587 0.500000 0.619696
O O6 0.626612 0.693510 0.709398
O O7 0.105441 0.724540 0.936651
O O8 0.000000 0.839928 0.000000
O O9 0.121769 0.000000 0.000000
O O10 0.750000 0.750000 0.761447
O O11 0.633922 0.788923 0.822759
O O12 0.663577 0.000000 0.735776
O O13 0.000000 0.745218 0.855552
O O14 0.090067 0.000000 0.868742
#
# Coordination Sequence:
#
# PCOD8272302 Si02
#       5
#     8  16   8  16  16
#     4   9  18  34  58  90 122 149 184 228 271 323
#     4  10  20  36  59  87 117 150 187 228 278 331
#     4   7  12  26  50  77 104 137 175 221 274 332
#     4  12  24  37  53  77 108 146 188 236 283 334
#     4   9  17  32  55  81 108 139 180 226 278 338
#
# _framework density 19.628771
#
# number of rings (size 3 to 8) (size 9 to 14) (size 15 to 20)
#    0.000    2.250    1.250    4.500    0.000    4.000 
#    0.000    3.750    0.000    3.000    0.000    0.000 
#    0.000    0.000    0.000    0.000    0.000    0.000 
#
# Total GULP energy -396619.359809 kJ/mol
# GULP energy per Si atom -12394.354994 kJ/mol
# Density = 1.958409 g / cm^3
# Si number density = 19.628771 Si / 1000 Ang^3
#
#
#
# Elastic Constant Matrix: (Units=GPa)
#
#
# Indices 1 2 3 4 5 6 
#
# 1 76.7325 27.5473 47.7283 0.0000 0.0000 0.0000
# 2 27.5473 105.3279 45.6522 0.0000 0.0000 0.0000
# 3 47.7283 45.6522 150.5610 0.0000 0.0000 0.0000
# 4 0.0000 0.0000 0.0000 21.7439 0.0000 0.0000
# 5 0.0000 0.0000 0.0000 0.0000 -0.2493 0.0000
# 6 0.0000 0.0000 0.0000 0.0000 0.0000 10.9009
#
#
#
# Elastic Compliance Matrix: (Units=1/GPa)
#
#
# Indices 1 2 3 4 5 6 
#
# 1 0.016741 -0.002393 -0.004581 0.000000 0.000000 0.000000
# 2 -0.002393 0.011273 -0.002660 0.000000 0.000000 0.000000
# 3 -0.004581 -0.002660 0.008901 0.000000 0.000000 0.000000
# 4 0.000000 0.000000 0.000000 0.045990 0.000000 0.000000
# 5 0.000000 0.000000 0.000000 0.000000 -4.011282 0.000000
# 6 0.000000 0.000000 0.000000 0.000000 0.000000 0.091735
#
#
# Mechanical properties :
#
#
# Convention : Reuss Voigt Hill
#
# Bulk Modulus (GPa) = 56.66725 63.83076 60.24900
# Shear Modulus (GPa) = -1.31182 20.59202 9.64010
#
# Velocity S-wave (km/s) = -0.81839 3.24245 2.21853
# Velocity P-wave (km/s) = 5.29520 6.82697 6.10928
#
# Compressibility (1/GPa) = 0.01764688
#
# Stress axis : x y z
#
# Youngs Moduli (GPa) = 59.73371 88.71023 112.35239
#
# Poissons Ratio (x) = 0.21225 0.51474
# Poissons Ratio (y) = 0.14292 0.29881
# Poissons Ratio (z) = 0.27367 0.23593
#
# Static dielectric constant tensor:
#      x y z
#    x 3.265750 0.000000 0.000000 
#    y 0.000000 3.554240 0.000000 
#    z 0.000000 0.000000 3.844920 
# 
# 
# High freq. dielectric constant tensor:
#      x y z
#    x 1.724340 0.000000 0.000000 
#    y 0.000000 1.762440 0.000000 
#    z 0.000000 0.000000 1.769950 
# 
# From -- ./inp_files/63264.got.cif
#   From: 2010.03.12/outbox.cif.g09.slc.cpg/sg65_32_cif.got.tgz:63264.got - 2010.04.10 20:52:16.
