data_PCOD8272805
_publ_section_title
;
Structure prediction by ZEFSAII (Michael W. Deem and Ramdas Pophale) SiO2 
 PCOD8272805
Probable space group: C M M M
;
_chemical_formula_sum "Si O2"
_cell_formula_units_Z 104
_cell_length_a 10.736830
_cell_length_b 18.030067
_cell_length_c 27.985413
_cell_angle_alpha 90.000000
_cell_angle_beta 90.000000
_cell_angle_gamma 90.000000
_cell_volume 5417.577564
_symmetry_space_group_name_H-M "C M M M"
_symmetry_group_IT_number 65
_symmetry_cell_setting 'orthorhombic'
loop_
_space_group_symop_operation_xyz
x,y,z
-x,-y,z
x,-y,-z
-x,y,-z
-x,-y,-z
x,y,-z
-x,y,z
x,-y,z
1/2+x,1/2+y,z
1/2-x,1/2-y,z
1/2+x,1/2-y,-z
1/2-x,1/2+y,-z
1/2-x,1/2-y,-z
1/2+x,1/2+y,-z
1/2-x,1/2+y,z
1/2+x,1/2-y,z
loop_
_atom_site_type_symbol
_atom_site_label
_atom_site_fract_x
_atom_site_fract_y
_atom_site_fract_z
Si Si1 0.848190 0.817348 0.500000
Si Si2 0.355484 0.688170 0.946083
Si Si3 0.248818 0.662758 0.218751
Si Si4 0.500000 0.083115 0.330348
Si Si5 0.857915 0.919596 0.864579
Si Si6 0.641844 0.418324 0.412944
Si Si7 0.000000 0.416958 0.782600
Si Si8 0.750847 0.662487 0.329044
O O1 0.750000 0.750000 0.500000
O O2 0.806023 0.865047 0.545917
O O3 0.000000 0.797019 0.500000
O O4 0.500000 0.714173 0.934475
O O5 0.250000 0.750000 0.939967
O O6 0.306109 0.625575 0.909772
O O7 0.352052 0.656804 0.000000
O O8 0.250000 0.750000 0.210816
O O9 0.350783 0.625365 0.185164
O O10 0.277181 0.642911 0.273863
O O11 0.118556 0.629524 0.200316
O O12 0.500000 0.077560 0.273892
O O13 0.381555 0.129727 0.347493
O O14 0.500000 0.000000 0.352424
O O15 0.000000 0.934371 0.875157
O O16 0.789706 0.000000 0.860613
O O17 0.500000 0.432368 0.424974
O O18 0.708064 0.500000 0.412330
O O19 0.649164 0.377855 0.361523
O O20 0.000000 0.500000 0.804637
O O21 0.750000 0.750000 0.337395
#
# Coordination Sequence:
#
# PCOD8272805 Si02
#       8
#     8  16  16   8  16  16   8  16
#     4  10  21  41  65  87 115 148 186 234 283 333
#     4   9  18  35  59  83 108 141 182 228 278 335
#     4  10  21  35  54  78 110 148 188 236 279 326
#     4   9  18  34  54  75 107 149 186 229 284 333
#     4  10  21  35  52  78 111 144 180 226 280 336
#     4  10  21  37  59  85 113 147 185 224 277 341
#     4   9  18  34  54  74 101 145 195 229 272 343
#     4  10  21  35  55  82 112 146 190 234 277 331
#
# _framework density 19.196770999999998
#
# number of rings (size 3 to 8) (size 9 to 14) (size 15 to 20)
#    0.000    2.308    0.000    2.077    2.154    3.692 
#    2.769    3.077    0.000    0.462    0.000    2.154 
#    0.000    0.000    0.000    0.000    0.000    0.000 
#
# Total GULP energy -644365.441155 kJ/mol
# GULP energy per Si atom -12391.643099 kJ/mol
# Density = 1.915308 g / cm^3
# Si number density = 19.196771 Si / 1000 Ang^3
#
#
#
# Elastic Constant Matrix: (Units=GPa)
#
#
# Indices 1 2 3 4 5 6 
#
# 1 54.1706 40.7595 23.7079 0.0000 0.0000 0.0000
# 2 40.7595 157.1824 76.0901 0.0000 0.0000 0.0000
# 3 23.7079 76.0901 119.3662 0.0000 0.0000 0.0000
# 4 0.0000 0.0000 0.0000 -51.1477 0.0000 0.0000
# 5 0.0000 0.0000 0.0000 0.0000 25.2585 0.0000
# 6 0.0000 0.0000 0.0000 0.0000 0.0000 30.8198
#
#
#
# Elastic Compliance Matrix: (Units=1/GPa)
#
#
# Indices 1 2 3 4 5 6 
#
# 1 0.023036 -0.005436 -0.001110 0.000000 0.000000 0.000000
# 2 -0.005436 0.010484 -0.005604 0.000000 0.000000 0.000000
# 3 -0.001110 -0.005604 0.012170 0.000000 0.000000 0.000000
# 4 0.000000 0.000000 0.000000 -0.019551 0.000000 0.000000
# 5 0.000000 0.000000 0.000000 0.000000 0.039591 0.000000
# 6 0.000000 0.000000 0.000000 0.000000 0.000000 0.032447
#
#
# Mechanical properties :
#
#
# Convention : Reuss Voigt Hill
#
# Bulk Modulus (GPa) = 46.74838 67.98159 57.36498
# Shear Modulus (GPa) = 38.57819 13.66356 26.12088
#
# Velocity S-wave (km/s) = 4.48774 2.67078 3.69276
# Velocity P-wave (km/s) = 7.15948 6.70826 6.93754
#
# Compressibility (1/GPa) = 0.02139112
#
# Stress axis : x y z
#
# Youngs Moduli (GPa) = 43.40949 95.38038 82.16921
#
# Poissons Ratio (x) = 0.51852 0.09121
# Poissons Ratio (y) = 0.23599 0.46044
# Poissons Ratio (z) = 0.04818 0.53447
#
# Static dielectric constant tensor:
#      x y z
#    x 3.486590 0.000000 0.000000 
#    y 0.000000 3.949770 0.000000 
#    z 0.000000 0.000000 3.467500 
# 
# 
# High freq. dielectric constant tensor:
#      x y z
#    x 1.731150 0.000000 0.000000 
#    y 0.000000 1.757420 0.000000 
#    z 0.000000 0.000000 1.742010 
# 
# From -- ./inp_files/74416.got.cif
#   From: 2010.03.12/outbox.cif.g09.slc.cpg/sg65_38_cif.got.tgz:74416.got - 2010.04.10 20:52:16.
