data_PCOD8272779
_publ_section_title
;
Structure prediction by ZEFSAII (Michael W. Deem and Ramdas Pophale) SiO2 
 PCOD8272779
Probable space group: C M M M
;
_chemical_formula_sum "Si O2"
_cell_formula_units_Z 88
_cell_length_a 18.733407
_cell_length_b 8.019793
_cell_length_c 29.820225
_cell_angle_alpha 90.000000
_cell_angle_beta 90.000000
_cell_angle_gamma 90.000000
_cell_volume 4480.132345
_symmetry_space_group_name_H-M "C M M M"
_symmetry_group_IT_number 65
_symmetry_cell_setting 'orthorhombic'
loop_
_space_group_symop_operation_xyz
x,y,z
-x,-y,z
x,-y,-z
-x,y,-z
-x,-y,-z
x,y,-z
-x,y,z
x,-y,z
1/2+x,1/2+y,z
1/2-x,1/2-y,z
1/2+x,1/2-y,-z
1/2-x,1/2+y,-z
1/2-x,1/2-y,-z
1/2+x,1/2+y,-z
1/2-x,1/2+y,z
1/2+x,1/2-y,z
loop_
_atom_site_type_symbol
_atom_site_label
_atom_site_fract_x
_atom_site_fract_y
_atom_site_fract_z
Si Si1 0.172633 0.196127 0.949332
Si Si2 0.331285 0.803023 0.212368
Si Si3 0.585223 0.000000 0.449122
Si Si4 0.915243 0.185134 0.606355
Si Si5 0.920934 0.694494 0.870080
Si Si6 0.081850 0.696525 0.702406
O O1 0.250000 0.250000 0.930919
O O2 0.111976 0.275907 0.918869
O O3 0.165385 0.000000 0.947325
O O4 0.162173 0.263418 0.000000
O O5 0.250000 0.750000 0.211779
O O6 0.371308 0.725942 0.168856
O O7 0.369790 0.735076 0.257028
O O8 0.337030 0.000000 0.211328
O O9 0.615741 0.831987 0.425409
O O10 0.500000 0.000000 0.446854
O O11 0.612857 0.000000 0.500000
O O12 0.890319 0.214449 0.657391
O O13 0.000000 0.194571 0.604404
O O14 0.889055 0.000000 0.590797
O O15 0.927607 0.500000 0.861291
O O16 0.000000 0.775500 0.868219
O O17 0.089776 0.500000 0.695189
O O18 0.000000 0.743389 0.713121
#
# Coordination Sequence:
#
# PCOD8272779 Si02
#       6
#    16  16   8  16  16  16
#     4  10  21  37  57  80 106 138 176 219 269 323
#     4  10  21  35  52  75 104 137 170 214 263 316
#     4   9  16  26  40  62  98 140 176 214 264 318
#     4   9  16  26  42  66  95 131 175 218 262 314
#     4  10  21  37  56  79 107 140 180 220 265 322
#     4   9  16  30  51  70  94 133 175 213 258 314
#
# _framework density 19.642275999999999
#
# number of rings (size 3 to 8) (size 9 to 14) (size 15 to 20)
#    0.000    2.455    0.909    1.636    0.000    7.273 
#    0.000    3.636    0.000    3.273    0.000    0.000 
#    0.000    0.727    0.364    0.000    0.000    0.000 
#
# Total GULP energy -545514.529096 kJ/mol
# GULP energy per Si atom -12398.057479 kJ/mol
# Density = 1.959757 g / cm^3
# Si number density = 19.642276 Si / 1000 Ang^3
#
#
#
# Elastic Constant Matrix: (Units=GPa)
#
#
# Indices 1 2 3 4 5 6 
#
# 1 110.9999 23.0086 68.2411 0.0000 0.0000 0.0000
# 2 23.0086 71.0700 49.6246 0.0000 0.0000 0.0000
# 3 68.2411 49.6246 148.4821 0.0000 0.0000 0.0000
# 4 0.0000 0.0000 0.0000 19.1594 0.0000 0.0000
# 5 0.0000 0.0000 0.0000 0.0000 19.0206 0.0000
# 6 0.0000 0.0000 0.0000 0.0000 0.0000 20.0805
#
#
#
# Elastic Compliance Matrix: (Units=1/GPa)
#
#
# Indices 1 2 3 4 5 6 
#
# 1 0.012557 -0.000046 -0.005756 0.000000 0.000000 0.000000
# 2 -0.000046 0.018354 -0.006113 0.000000 0.000000 0.000000
# 3 -0.005756 -0.006113 0.011423 0.000000 0.000000 0.000000
# 4 0.000000 0.000000 0.000000 0.052194 0.000000 0.000000
# 5 0.000000 0.000000 0.000000 0.000000 0.052575 0.000000
# 6 0.000000 0.000000 0.000000 0.000000 0.000000 0.049800
#
#
# Mechanical properties :
#
#
# Convention : Reuss Voigt Hill
#
# Bulk Modulus (GPa) = 54.04128 68.03340 61.03734
# Shear Modulus (GPa) = 22.03617 24.29728 23.16672
#
# Velocity S-wave (km/s) = 3.35307 3.52090 3.43801
# Velocity P-wave (km/s) = 6.52405 7.15824 6.84849
#
# Compressibility (1/GPa) = 0.01850437
#
# Stress axis : x y z
#
# Youngs Moduli (GPa) = 79.63612 54.48435 87.54266
#
# Poissons Ratio (x) = 0.00253 0.50386
# Poissons Ratio (y) = 0.00370 0.53513
# Poissons Ratio (z) = 0.45835 0.33305
#
# Static dielectric constant tensor:
#      x y z
#    x 3.092960 0.000000 0.000000 
#    y 0.000000 3.554940 0.000000 
#    z 0.000000 0.000000 3.788420 
# 
# 
# High freq. dielectric constant tensor:
#      x y z
#    x 1.727720 0.000000 0.000000 
#    y 0.000000 1.760010 0.000000 
#    z 0.000000 0.000000 1.771680 
# 
# From -- ./inp_files/77901.got.cif
#   From: 2010.03.12/outbox.cif.g09.slc.cpg/sg65_39_cif.got.tgz:77901.got - 2010.04.10 20:52:16.
