data_PCOD8272827
_publ_section_title
;
Structure prediction by ZEFSAII (Michael W. Deem and Ramdas Pophale) SiO2 
 PCOD8272827
Probable space group: C M M M
;
_chemical_formula_sum "Si O2"
_cell_formula_units_Z 72
_cell_length_a 18.729235
_cell_length_b 8.781163
_cell_length_c 23.362950
_cell_angle_alpha 90.000000
_cell_angle_beta 90.000000
_cell_angle_gamma 90.000000
_cell_volume 3842.375082
_symmetry_space_group_name_H-M "C M M M"
_symmetry_group_IT_number 65
_symmetry_cell_setting 'orthorhombic'
loop_
_space_group_symop_operation_xyz
x,y,z
-x,-y,z
x,-y,-z
-x,y,-z
-x,-y,-z
x,y,-z
-x,y,z
x,-y,z
1/2+x,1/2+y,z
1/2-x,1/2-y,z
1/2+x,1/2-y,-z
1/2-x,1/2+y,-z
1/2-x,1/2-y,-z
1/2+x,1/2+y,-z
1/2-x,1/2+y,z
1/2+x,1/2-y,z
loop_
_atom_site_type_symbol
_atom_site_label
_atom_site_fract_x
_atom_site_fract_y
_atom_site_fract_z
Si Si1 0.827760 0.180166 0.000000
Si Si2 0.672304 0.178345 0.438012
Si Si3 0.417663 0.677227 0.891490
Si Si4 0.583662 0.825144 0.773274
Si Si5 0.171961 0.179067 0.674503
O O1 0.750000 0.250000 0.000000
O O2 0.870306 0.236396 0.055849
O O3 0.822216 0.000000 0.000000
O O4 0.633859 0.207592 0.500000
O O5 0.750000 0.250000 0.441212
O O6 0.633556 0.257163 0.383743
O O7 0.678433 0.000000 0.425773
O O8 0.500000 0.708011 0.907084
O O9 0.404687 0.500000 0.878497
O O10 0.393329 0.772889 0.836441
O O11 0.500000 0.799935 0.764413
O O12 0.623436 0.720830 0.727903
O O13 0.606015 0.000000 0.764746
O O14 0.250000 0.250000 0.682649
O O15 0.179429 0.000000 0.669854
#
# Coordination Sequence:
#
# PCOD8272827 Si02
#       5
#     8  16  16  16  16
#     4  10  21  35  53  79 109 138 166 206 258 306
#     4   9  16  27  45  70 101 135 171 212 258 308
#     4   9  18  35  57  77  99 133 177 215 249 298
#     4  10  21  37  56  78 105 137 174 216 262 312
#     4  11  21  33  52  77 106 138 174 217 263 311
#
# _framework density 18.738409999999998
#
# number of rings (size 3 to 8) (size 9 to 14) (size 15 to 20)
#    0.000    2.222    0.000    5.000    0.000    5.778 
#    0.000    2.222    0.000    4.000    0.000    4.667 
#    0.000    0.000    0.000    0.000    0.000    0.000 
#
# Total GULP energy -446287.997509 kJ/mol
# GULP energy per Si atom -12396.888820 kJ/mol
# Density = 1.869576 g / cm^3
# Si number density = 18.738410 Si / 1000 Ang^3
#
#
#
# Elastic Constant Matrix: (Units=GPa)
#
#
# Indices 1 2 3 4 5 6 
#
# 1 55.4091 33.0126 62.1891 0.0000 0.0000 0.0000
# 2 33.0126 114.3120 65.0372 0.0000 0.0000 0.0000
# 3 62.1891 65.0372 168.8175 0.0000 0.0000 0.0000
# 4 0.0000 0.0000 0.0000 35.0706 0.0000 0.0000
# 5 0.0000 0.0000 0.0000 0.0000 -6.9160 0.0000
# 6 0.0000 0.0000 0.0000 0.0000 0.0000 25.9075
#
#
#
# Elastic Compliance Matrix: (Units=1/GPa)
#
#
# Indices 1 2 3 4 5 6 
#
# 1 0.031664 -0.003212 -0.010427 0.000000 0.000000 0.000000
# 2 -0.003212 0.011530 -0.003259 0.000000 0.000000 0.000000
# 3 -0.010427 -0.003259 0.011020 0.000000 0.000000 0.000000
# 4 0.000000 0.000000 0.000000 0.028514 0.000000 0.000000
# 5 0.000000 0.000000 0.000000 0.000000 -0.144593 0.000000
# 6 0.000000 0.000000 0.000000 0.000000 0.000000 0.038599
#
#
# Mechanical properties :
#
#
# Convention : Reuss Voigt Hill
#
# Bulk Modulus (GPa) = 48.97499 73.22404 61.09951
# Shear Modulus (GPa) = 288.43728 22.69908 155.56818
#
# Velocity S-wave (km/s) = 12.42025 3.48424 9.12147
# Velocity P-wave (km/s) = 15.22748 7.43965 11.98384
#
# Compressibility (1/GPa) = 0.02041859
#
# Stress axis : x y z
#
# Youngs Moduli (GPa) = 31.58141 86.73387 90.74389
#
# Poissons Ratio (x) = 0.27859 0.94619
# Poissons Ratio (y) = 0.10144 0.29569
# Poissons Ratio (z) = 0.32930 0.28262
#
# Static dielectric constant tensor:
#      x y z
#    x 2.966040 0.000000 0.000000 
#    y 0.000000 3.523060 0.000000 
#    z 0.000000 0.000000 4.102370 
# 
# 
# High freq. dielectric constant tensor:
#      x y z
#    x 1.686080 0.000000 0.000000 
#    y 0.000000 1.736450 0.000000 
#    z 0.000000 0.000000 1.753020 
# 
# From -- ./inp_files/59228.got.cif
#   From: 2010.03.12/outbox.cif.g09.slc.cpg/sg65_30_cif.got.tgz:59228.got - 2010.04.10 20:52:16.
