data_PCOD8272150
_publ_section_title
;
Structure prediction by ZEFSAII (Michael W. Deem and Ramdas Pophale) SiO2 
 PCOD8272150
Probable space group: C M M M
;
_chemical_formula_sum "Si O2"
_cell_formula_units_Z 104
_cell_length_a 23.166873
_cell_length_b 18.681050
_cell_length_c 13.379317
_cell_angle_alpha 90.000000
_cell_angle_beta 90.000000
_cell_angle_gamma 90.000000
_cell_volume 5790.321052
_symmetry_space_group_name_H-M "C M M M"
_symmetry_group_IT_number 65
_symmetry_cell_setting 'orthorhombic'
loop_
_space_group_symop_operation_xyz
x,y,z
-x,-y,z
x,-y,-z
-x,y,-z
-x,-y,-z
x,y,-z
-x,y,z
x,-y,z
1/2+x,1/2+y,z
1/2-x,1/2-y,z
1/2+x,1/2-y,-z
1/2-x,1/2+y,-z
1/2-x,1/2-y,-z
1/2+x,1/2+y,-z
1/2-x,1/2+y,z
1/2+x,1/2-y,z
loop_
_atom_site_type_symbol
_atom_site_label
_atom_site_fract_x
_atom_site_fract_y
_atom_site_fract_z
Si Si1 0.158550 0.578961 0.115450
Si Si2 0.740179 0.579710 0.609610
Si Si3 0.391549 0.339881 0.192897
Si Si4 0.757217 0.833919 0.205389
Si Si5 0.603322 0.580739 0.610319
Si Si6 0.067179 0.307700 0.882567
Si Si7 0.567215 0.422037 0.000000
O O1 0.161399 0.500000 0.167301
O O2 0.217590 0.623795 0.127283
O O3 0.103224 0.623442 0.155323
O O4 0.148977 0.566680 0.000000
O O5 0.765161 0.598131 0.500000
O O6 0.760355 0.500000 0.642355
O O7 0.764091 0.639247 0.685581
O O8 0.671750 0.581786 0.606878
O O9 0.323323 0.353501 0.186894
O O10 0.417722 0.368776 0.298383
O O11 0.409087 0.257384 0.183945
O O12 0.417331 0.380989 0.099924
O O13 0.750000 0.750000 0.193858
O O14 0.580406 0.606398 0.500000
O O15 0.581170 0.500000 0.630891
O O16 0.000000 0.321498 0.860859
O O17 0.077840 0.291292 0.000000
O O18 0.597691 0.500000 0.000000
O O19 0.500000 0.432090 0.000000
#
# Coordination Sequence:
#
# PCOD8272150 Si02
#       7
#    16  16  16  16  16  16   8
#     4  10  22  37  53  76 107 140 175 219 265 317
#     4   8  15  29  48  70 101 140 175 207 248 304
#     4  11  20  33  54  78 110 143 181 214 267 325
#     4  11  21  32  50  79 112 141 168 208 261 323
#     4   8  15  29  49  74 104 140 181 219 258 309
#     4  10  20  36  57  76  98 136 182 227 273 313
#     4  11  24  38  53  78 109 143 185 226 256 304
#
# _framework density 17.961006999999999
#
# number of rings (size 3 to 8) (size 9 to 14) (size 15 to 20)
#    0.000    2.231    2.308    2.308    1.077    2.769 
#    0.000    1.538    0.000    1.846    0.000    5.385 
#    0.000    0.000    0.000    4.615    0.000    0.462 
#
# Total GULP energy -644451.699007 kJ/mol
# GULP energy per Si atom -12393.301904 kJ/mol
# Density = 1.792013 g / cm^3
# Si number density = 17.961007 Si / 1000 Ang^3
#
#
#
# Elastic Constant Matrix: (Units=GPa)
#
#
# Indices 1 2 3 4 5 6 
#
# 1 73.9165 36.2953 18.4135 0.0000 0.0000 0.0000
# 2 36.2953 146.5023 51.2805 0.0000 0.0000 0.0000
# 3 18.4135 51.2805 92.1419 0.0000 0.0000 0.0000
# 4 0.0000 0.0000 0.0000 29.7206 0.0000 0.0000
# 5 0.0000 0.0000 0.0000 0.0000 -2.2504 0.0000
# 6 0.0000 0.0000 0.0000 0.0000 0.0000 23.2353
#
#
#
# Elastic Compliance Matrix: (Units=1/GPa)
#
#
# Indices 1 2 3 4 5 6 
#
# 1 0.015507 -0.003424 -0.001193 0.000000 0.000000 0.000000
# 2 -0.003424 0.009233 -0.004454 0.000000 0.000000 0.000000
# 3 -0.001193 -0.004454 0.013570 0.000000 0.000000 0.000000
# 4 0.000000 0.000000 0.000000 0.033647 0.000000 0.000000
# 5 0.000000 0.000000 0.000000 0.000000 -0.444362 0.000000
# 6 0.000000 0.000000 0.000000 0.000000 0.000000 0.043038
#
#
# Mechanical properties :
#
#
# Convention : Reuss Voigt Hill
#
# Bulk Modulus (GPa) = 49.58523 58.28214 53.93368
# Shear Modulus (GPa) = -16.42034 23.91253 3.74610
#
# Velocity S-wave (km/s) = -3.02689 3.65274 1.44576
# Velocity P-wave (km/s) = 3.93078 7.09293 5.73414
#
# Compressibility (1/GPa) = 0.02016730
#
# Stress axis : x y z
#
# Youngs Moduli (GPa) = 64.48523 108.30309 73.69014
#
# Poissons Ratio (x) = 0.37085 0.08793
# Poissons Ratio (y) = 0.22081 0.32825
# Poissons Ratio (z) = 0.07695 0.48243
#
# Static dielectric constant tensor:
#      x y z
#    x 3.164250 0.000000 0.000000 
#    y 0.000000 3.652790 0.000000 
#    z 0.000000 0.000000 3.674770 
# 
# 
# High freq. dielectric constant tensor:
#      x y z
#    x 1.671270 0.000000 0.000000 
#    y 0.000000 1.698750 0.000000 
#    z 0.000000 0.000000 1.687400 
# 
# From -- ./inp_files/45927.got.cif
#   From: 2010.03.12/outbox.cif.g09.slc.cpg/sg65_23_cif.got.tgz:45927.got - 2010.04.10 20:52:16.
