data_PCOD8272919
_publ_section_title
;
Structure prediction by ZEFSAII (Michael W. Deem and Ramdas Pophale) SiO2 
 PCOD8272919
Probable space group: C M M M
;
_chemical_formula_sum "Si O2"
_cell_formula_units_Z 88
_cell_length_a 9.424069
_cell_length_b 19.467492
_cell_length_c 28.150518
_cell_angle_alpha 90.000000
_cell_angle_beta 90.000000
_cell_angle_gamma 90.000000
_cell_volume 5164.578142
_symmetry_space_group_name_H-M "C M M M"
_symmetry_group_IT_number 65
_symmetry_cell_setting 'orthorhombic'
loop_
_space_group_symop_operation_xyz
x,y,z
-x,-y,z
x,-y,-z
-x,y,-z
-x,-y,-z
x,y,-z
-x,y,z
x,-y,z
1/2+x,1/2+y,z
1/2-x,1/2-y,z
1/2+x,1/2-y,-z
1/2-x,1/2+y,-z
1/2-x,1/2-y,-z
1/2+x,1/2+y,-z
1/2-x,1/2+y,z
1/2+x,1/2-y,z
loop_
_atom_site_type_symbol
_atom_site_label
_atom_site_fract_x
_atom_site_fract_y
_atom_site_fract_z
Si Si1 0.340645 0.582036 0.689673
Si Si2 0.157322 0.581651 0.223768
Si Si3 0.163745 0.419486 0.117295
Si Si4 0.835770 0.817061 0.944288
Si Si5 0.168445 0.424758 0.500000
Si Si6 0.840340 0.417733 0.398135
O O1 0.500000 0.610403 0.689074
O O2 0.337091 0.500000 0.689751
O O3 0.265571 0.611293 0.737112
O O4 0.261703 0.610870 0.642970
O O5 0.154916 0.500000 0.225718
O O6 0.202246 0.604724 0.170856
O O7 0.000000 0.609514 0.235697
O O8 0.190093 0.500000 0.111254
O O9 0.269523 0.382488 0.081514
O O10 0.000000 0.401420 0.105697
O O11 0.750000 0.750000 0.927745
O O12 0.000000 0.808228 0.929961
O O13 0.818265 0.829655 0.000000
O O14 0.239799 0.500000 0.500000
O O15 0.211507 0.387988 0.550014
O O16 0.000000 0.432957 0.500000
O O17 0.836477 0.500000 0.400339
O O18 0.000000 0.393028 0.386557
#
# Coordination Sequence:
#
# PCOD8272919 Si02
#       6
#    16  16  16  16   8  16
#     4   9  15  20  27  42  63  86 114 150 194 242
#     4   8  14  25  39  54  74 101 131 162 200 248
#     4   9  18  32  50  72  96 121 150 186 228 271
#     4  10  21  36  53  72  95 124 156 188 222 263
#     4   7  10  16  25  35  45  63  99 145 188 231
#     4   8  12  18  27  36  48  71 105 145 189 237
#
# _framework density 17.039145000000001
#
# number of rings (size 3 to 8) (size 9 to 14) (size 15 to 20)
#    0.000    3.364    0.000    3.273    0.000    4.727 
#    0.000    4.091    0.000    2.727    0.000    0.000 
#    0.000    0.000    0.000    0.000    0.000    0.000 
#
# Total GULP energy -545193.771740 kJ/mol
# GULP energy per Si atom -12390.767540 kJ/mol
# Density = 1.700036 g / cm^3
# Si number density = 17.039145 Si / 1000 Ang^3
#
#
#
# Elastic Constant Matrix: (Units=GPa)
#
#
# Indices 1 2 3 4 5 6 
#
# 1 126.9397 30.2875 76.1999 0.0000 0.0000 0.0000
# 2 30.2875 24.6536 30.6155 0.0000 0.0000 0.0000
# 3 76.1999 30.6155 107.8231 0.0000 0.0000 0.0000
# 4 0.0000 0.0000 0.0000 0.0939 0.0000 0.0000
# 5 0.0000 0.0000 0.0000 0.0000 21.7601 0.0000
# 6 0.0000 0.0000 0.0000 0.0000 0.0000 15.1222
#
#
#
# Elastic Compliance Matrix: (Units=1/GPa)
#
#
# Indices 1 2 3 4 5 6 
#
# 1 0.014620 -0.007925 -0.008082 0.000000 0.000000 0.000000
# 2 -0.007925 0.066950 -0.013409 0.000000 0.000000 0.000000
# 3 -0.008082 -0.013409 0.018794 0.000000 0.000000 0.000000
# 4 0.000000 0.000000 0.000000 10.654188 0.000000 0.000000
# 5 0.000000 0.000000 0.000000 0.000000 0.045956 0.000000
# 6 0.000000 0.000000 0.000000 0.000000 0.000000 0.066128
#
#
# Mechanical properties :
#
#
# Convention : Reuss Voigt Hill
#
# Bulk Modulus (GPa) = 24.07824 59.29135 41.68480
# Shear Modulus (GPa) = 0.45707 15.54947 8.00327
#
# Velocity S-wave (km/s) = 0.51849 3.02416 2.16961
# Velocity P-wave (km/s) = 3.81054 6.86052 5.54919
#
# Compressibility (1/GPa) = 0.04153127
#
# Stress axis : x y z
#
# Youngs Moduli (GPa) = 68.39911 14.93660 53.20942
#
# Poissons Ratio (x) = 0.11837 0.43004
# Poissons Ratio (y) = 0.54203 0.71351
# Poissons Ratio (z) = 0.55281 0.20029
#
# Static dielectric constant tensor:
#      x y z
#    x 3.248890 0.000000 0.000000 
#    y 0.000000 2.449300 0.000000 
#    z 0.000000 0.000000 3.571160 
# 
# 
# High freq. dielectric constant tensor:
#      x y z
#    x 1.653210 0.000000 0.000000 
#    y 0.000000 1.571860 0.000000 
#    z 0.000000 0.000000 1.677200 
# 
# From -- ./inp_files/76653.got.cif
#   From: 2010.03.12/outbox.cif.g09.slc.cpg/sg65_39_cif.got.tgz:76653.got - 2010.04.10 20:52:16.
