data_PCOD8272710
_publ_section_title
;
Structure prediction by ZEFSAII (Michael W. Deem and Ramdas Pophale) SiO2 
 PCOD8272710
Probable space group: C M M M
;
_chemical_formula_sum "Si O2"
_cell_formula_units_Z 80
_cell_length_a 8.957242
_cell_length_b 18.927354
_cell_length_c 25.315730
_cell_angle_alpha 90.000000
_cell_angle_beta 90.000000
_cell_angle_gamma 90.000000
_cell_volume 4291.950137
_symmetry_space_group_name_H-M "C M M M"
_symmetry_group_IT_number 65
_symmetry_cell_setting 'orthorhombic'
loop_
_space_group_symop_operation_xyz
x,y,z
-x,-y,z
x,-y,-z
-x,y,-z
-x,-y,-z
x,y,-z
-x,y,z
x,-y,z
1/2+x,1/2+y,z
1/2-x,1/2-y,z
1/2+x,1/2-y,-z
1/2-x,1/2+y,-z
1/2-x,1/2-y,-z
1/2+x,1/2+y,-z
1/2-x,1/2+y,z
1/2+x,1/2-y,z
loop_
_atom_site_type_symbol
_atom_site_label
_atom_site_fract_x
_atom_site_fract_y
_atom_site_fract_z
Si Si1 0.826720 0.824110 0.500000
Si Si2 0.675685 0.674084 0.385994
Si Si3 0.174740 0.677188 0.084027
Si Si4 0.326184 0.416943 0.000000
Si Si5 0.173818 0.677558 0.206634
Si Si6 0.824113 0.918876 0.711122
O O1 0.750000 0.750000 0.500000
O O2 0.783818 0.861026 0.443908
O O3 0.000000 0.808761 0.500000
O O4 0.500000 0.685413 0.380519
O O5 0.750000 0.750000 0.377821
O O6 0.733829 0.620590 0.341485
O O7 0.250000 0.750000 0.065442
O O8 0.248878 0.613442 0.052321
O O9 0.206396 0.663004 0.145380
O O10 0.000000 0.681341 0.071286
O O11 0.300002 0.500000 0.000000
O O12 0.500000 0.397061 0.000000
O O13 0.250000 0.750000 0.225750
O O14 0.242107 0.612122 0.237963
O O15 0.000000 0.684349 0.218793
O O16 0.000000 0.909775 0.718991
O O17 0.777792 0.000000 0.705437
#
# Coordination Sequence:
#
# PCOD8272710 Si02
#       6
#     8  16  16   8  16  16
#     4   8  14  26  45  69  95 123 161 210 257 302
#     4   9  17  30  49  72  97 128 168 212 258 307
#     4  10  21  38  60  83 108 138 174 217 261 307
#     4  11  24  39  56  81 113 147 180 213 254 305
#     4  10  21  37  58  82 105 134 174 217 261 309
#     4  10  21  35  50  72 105 141 174 212 260 311
#
# _framework density 18.639544999999998
#
# number of rings (size 3 to 8) (size 9 to 14) (size 15 to 20)
#    0.000    2.300    0.000    2.400    0.000    6.800 
#    0.000    4.500    0.000    3.000    0.000    0.000 
#    0.000    9.600    0.000    0.000    0.000    0.000 
#
# Total GULP energy -495895.271886 kJ/mol
# GULP energy per Si atom -12397.381797 kJ/mol
# Density = 1.859712 g / cm^3
# Si number density = 18.639545 Si / 1000 Ang^3
#
#
#
# Elastic Constant Matrix: (Units=GPa)
#
#
# Indices 1 2 3 4 5 6 
#
# 1 74.9087 55.0583 52.3995 0.0000 0.0000 0.0000
# 2 55.0583 124.1388 76.7752 0.0000 0.0000 0.0000
# 3 52.3995 76.7752 124.8282 0.0000 0.0000 0.0000
# 4 0.0000 0.0000 0.0000 13.9671 0.0000 0.0000
# 5 0.0000 0.0000 0.0000 0.0000 24.2359 0.0000
# 6 0.0000 0.0000 0.0000 0.0000 0.0000 29.0256
#
#
#
# Elastic Compliance Matrix: (Units=1/GPa)
#
#
# Indices 1 2 3 4 5 6 
#
# 1 0.021675 -0.006433 -0.005142 0.000000 0.000000 0.000000
# 2 -0.006433 0.014910 -0.006470 0.000000 0.000000 0.000000
# 3 -0.005142 -0.006470 0.014149 0.000000 0.000000 0.000000
# 4 0.000000 0.000000 0.000000 0.071597 0.000000 0.000000
# 5 0.000000 0.000000 0.000000 0.000000 0.041261 0.000000
# 6 0.000000 0.000000 0.000000 0.000000 0.000000 0.034452
#
#
# Mechanical properties :
#
#
# Convention : Reuss Voigt Hill
#
# Bulk Modulus (GPa) = 68.28846 76.92686 72.60766
# Shear Modulus (GPa) = 20.91920 22.75525 21.83723
#
# Velocity S-wave (km/s) = 3.35371 3.49779 3.42651
# Velocity P-wave (km/s) = 7.19113 7.59428 7.39545
#
# Compressibility (1/GPa) = 0.01464376
#
# Stress axis : x y z
#
# Youngs Moduli (GPa) = 46.13663 67.06795 70.67796
#
# Poissons Ratio (x) = 0.43147 0.36340
# Poissons Ratio (y) = 0.29681 0.45728
# Poissons Ratio (z) = 0.23722 0.43393
#
# Static dielectric constant tensor:
#      x y z
#    x 3.397920 0.000000 0.000000 
#    y 0.000000 3.230070 0.000000 
#    z 0.000000 0.000000 3.885990 
# 
# 
# High freq. dielectric constant tensor:
#      x y z
#    x 1.726430 0.000000 0.000000 
#    y 0.000000 1.701230 0.000000 
#    z 0.000000 0.000000 1.745550 
# 
# From -- ./inp_files/72947.got.cif
#   From: 2010.03.12/outbox.cif.g09.slc.cpg/sg65_37_cif.got.tgz:72947.got - 2010.04.10 20:52:16.
