data_PCOD8272337
_publ_section_title
;
Structure prediction by ZEFSAII (Michael W. Deem and Ramdas Pophale) SiO2 
 PCOD8272337
Probable space group: C M M M
;
_chemical_formula_sum "Si O2"
_cell_formula_units_Z 68
_cell_length_a 11.264679
_cell_length_b 24.893089
_cell_length_c 12.417222
_cell_angle_alpha 90.000000
_cell_angle_beta 90.000000
_cell_angle_gamma 90.000000
_cell_volume 3481.946212
_symmetry_space_group_name_H-M "C M M M"
_symmetry_group_IT_number 65
_symmetry_cell_setting 'orthorhombic'
loop_
_space_group_symop_operation_xyz
x,y,z
-x,-y,z
x,-y,-z
-x,y,-z
-x,-y,-z
x,y,-z
-x,y,z
x,-y,z
1/2+x,1/2+y,z
1/2-x,1/2-y,z
1/2+x,1/2-y,-z
1/2-x,1/2+y,-z
1/2-x,1/2-y,-z
1/2+x,1/2+y,-z
1/2-x,1/2+y,z
1/2+x,1/2-y,z
loop_
_atom_site_type_symbol
_atom_site_label
_atom_site_fract_x
_atom_site_fract_y
_atom_site_fract_z
Si Si1 0.244296 0.139810 0.375701
Si Si2 0.500000 0.778930 0.183793
Si Si3 0.000000 0.651687 0.618751
Si Si4 0.363037 0.439663 0.786502
Si Si5 0.270990 0.063403 0.000000
Si Si6 0.750000 0.250000 0.753708
Si Si7 0.500000 0.134594 0.000000
O O1 0.203358 0.143604 0.500000
O O2 0.379866 0.116920 0.364920
O O3 0.160006 0.098378 0.315031
O O4 0.240548 0.198138 0.321806
O O5 0.500000 0.796494 0.306905
O O6 0.628464 0.748489 0.171312
O O7 0.500000 0.829373 0.105563
O O8 0.000000 0.677154 0.500000
O O9 0.500000 0.438554 0.815294
O O10 0.321621 0.500000 0.756799
O O11 0.298368 0.418403 0.893252
O O12 0.390789 0.095399 0.000000
O O13 0.294401 0.000000 0.000000
#
# Coordination Sequence:
#
# PCOD8272337 Si02
#       7
#    16   8   8  16   8   8   4
#     4  10  20  36  60  87 118 156 199 251 303 354
#     4  10  22  37  58  82 120 154 195 247 308 351
#     4   8  16  34  56  80 111 147 187 239 298 345
#     4  10  22  39  59  87 122 158 199 245 298 357
#     4  10  20  38  65  89 112 152 202 242 289 359
#     4  10  21  39  58  86 118 163 209 252 292 370
#     4  12  23  40  60  88 122 150 183 252 314 358
#
# _framework density 19.529306999999999
#
# number of rings (size 3 to 8) (size 9 to 14) (size 15 to 20)
#    0.000    2.118    0.000    3.706    1.647    3.765 
#    0.000    4.118    0.000    2.118    0.000    0.000 
#    0.000    0.000    0.000    0.000    0.000    0.000 
#
# Total GULP energy -421289.523050 kJ/mol
# GULP energy per Si atom -12390.868325 kJ/mol
# Density = 1.948486 g / cm^3
# Si number density = 19.529307 Si / 1000 Ang^3
#
#
#
# Elastic Constant Matrix: (Units=GPa)
#
#
# Indices 1 2 3 4 5 6 
#
# 1 132.0657 35.6356 40.8389 0.0000 0.0000 0.0000
# 2 35.6356 69.7841 42.2255 0.0000 0.0000 0.0000
# 3 40.8389 42.2255 72.1676 0.0000 0.0000 0.0000
# 4 0.0000 0.0000 0.0000 51.5632 0.0000 0.0000
# 5 0.0000 0.0000 0.0000 0.0000 65.1639 0.0000
# 6 0.0000 0.0000 0.0000 0.0000 0.0000 45.2386
#
#
#
# Elastic Compliance Matrix: (Units=1/GPa)
#
#
# Indices 1 2 3 4 5 6 
#
# 1 0.009443 -0.002459 -0.003905 0.000000 0.000000 0.000000
# 2 -0.002459 0.022824 -0.011963 0.000000 0.000000 0.000000
# 3 -0.003905 -0.011963 0.023066 0.000000 0.000000 0.000000
# 4 0.000000 0.000000 0.000000 0.019394 0.000000 0.000000
# 5 0.000000 0.000000 0.000000 0.000000 0.015346 0.000000
# 6 0.000000 0.000000 0.000000 0.000000 0.000000 0.022105
#
#
# Mechanical properties :
#
#
# Convention : Reuss Voigt Hill
#
# Bulk Modulus (GPa) = 53.53542 56.82415 55.17979
# Shear Modulus (GPa) = 32.24591 42.74763 37.49677
#
# Velocity S-wave (km/s) = 4.06785 4.68364 4.38656
# Velocity P-wave (km/s) = 7.03815 7.64256 7.34657
#
# Compressibility (1/GPa) = 0.01867922
#
# Stress axis : x y z
#
# Youngs Moduli (GPa) = 105.89758 43.81269 43.35427
#
# Poissons Ratio (x) = 0.10776 0.16929
# Poissons Ratio (y) = 0.26045 0.51864
# Poissons Ratio (z) = 0.41350 0.52413
#
# Static dielectric constant tensor:
#      x y z
#    x 4.127000 0.000000 0.000000 
#    y 0.000000 3.324300 0.000000 
#    z 0.000000 0.000000 3.613900 
# 
# 
# High freq. dielectric constant tensor:
#      x y z
#    x 1.782930 0.000000 0.000000 
#    y 0.000000 1.734150 0.000000 
#    z 0.000000 0.000000 1.762570 
# 
# From -- ./inp_files/22592.got.cif
#   From: 2010.03.12/outbox.cif.g09.slc.cpg/sg65_12_cif.got.tgz:22592.got - 2010.04.10 20:52:16.
