data_PCOD8272004
_publ_section_title
;
Structure prediction by ZEFSAII (Michael W. Deem and Ramdas Pophale) SiO2 
 PCOD8272004
Probable space group: C M M M
;
_chemical_formula_sum "Si O2"
_cell_formula_units_Z 72
_cell_length_a 15.860534
_cell_length_b 9.188942
_cell_length_c 24.683267
_cell_angle_alpha 90.000000
_cell_angle_beta 90.000000
_cell_angle_gamma 90.000000
_cell_volume 3597.377024
_symmetry_space_group_name_H-M "C M M M"
_symmetry_group_IT_number 65
_symmetry_cell_setting 'orthorhombic'
loop_
_space_group_symop_operation_xyz
x,y,z
-x,-y,z
x,-y,-z
-x,y,-z
-x,-y,-z
x,y,-z
-x,y,z
x,-y,z
1/2+x,1/2+y,z
1/2-x,1/2-y,z
1/2+x,1/2-y,-z
1/2-x,1/2+y,-z
1/2-x,1/2-y,-z
1/2+x,1/2+y,-z
1/2-x,1/2+y,z
1/2+x,1/2-y,z
loop_
_atom_site_type_symbol
_atom_site_label
_atom_site_fract_x
_atom_site_fract_y
_atom_site_fract_z
Si Si1 0.335260 0.171712 0.624737
Si Si2 0.500000 0.827085 0.561548
Si Si3 0.662371 0.169115 0.060766
Si Si4 0.598688 0.832730 0.740995
Si Si5 0.403380 0.340329 0.157272
O O1 0.250000 0.250000 0.604613
O O2 0.415053 0.231222 0.590408
O O3 0.351097 0.212014 0.687305
O O4 0.324413 0.000000 0.616408
O O5 0.500000 0.771097 0.500000
O O6 0.500000 0.000000 0.565446
O O7 0.750000 0.250000 0.067225
O O8 0.600227 0.242642 0.103396
O O9 0.673965 0.000000 0.074364
O O10 0.626019 0.190003 0.000000
O O11 0.500000 0.803319 0.730742
O O12 0.637482 0.739561 0.790799
O O13 0.613615 0.000000 0.756006
O O14 0.500000 0.361427 0.171301
O O15 0.361118 0.500000 0.148813
#
# Coordination Sequence:
#
# PCOD8272004 Si02
#       5
#    16   8  16  16  16
#     4  10  20  35  57  86 115 150 195 239 287 342
#     4   9  18  36  61  85 115 157 198 235 280 339
#     4  10  21  37  56  76 101 137 180 226 277 333
#     4   9  17  33  55  75 103 144 188 230 276 335
#     4  10  21  35  53  80 111 142 179 224 276 330
#
# _framework density 20.014582999999998
#
# number of rings (size 3 to 8) (size 9 to 14) (size 15 to 20)
#    0.000    2.333    1.111    1.333    0.000    5.333 
#    0.000    5.000    0.000    0.667    0.000    0.000 
#    0.000    0.000    0.000    0.000    0.000    0.000 
#
# Total GULP energy -446313.166807 kJ/mol
# GULP energy per Si atom -12397.587967 kJ/mol
# Density = 1.996903 g / cm^3
# Si number density = 20.014583 Si / 1000 Ang^3
#
#
#
# Elastic Constant Matrix: (Units=GPa)
#
#
# Indices 1 2 3 4 5 6 
#
# 1 90.2807 39.0473 56.2847 0.0000 0.0000 0.0000
# 2 39.0473 106.7273 64.3024 0.0000 0.0000 0.0000
# 3 56.2847 64.3024 137.5922 0.0000 0.0000 0.0000
# 4 0.0000 0.0000 0.0000 19.7976 0.0000 0.0000
# 5 0.0000 0.0000 0.0000 0.0000 17.1100 0.0000
# 6 0.0000 0.0000 0.0000 0.0000 0.0000 29.7261
#
#
#
# Elastic Compliance Matrix: (Units=1/GPa)
#
#
# Indices 1 2 3 4 5 6 
#
# 1 0.015352 -0.002551 -0.005088 0.000000 0.000000 0.000000
# 2 -0.002551 0.013466 -0.005249 0.000000 0.000000 0.000000
# 3 -0.005088 -0.005249 0.011802 0.000000 0.000000 0.000000
# 4 0.000000 0.000000 0.000000 0.050511 0.000000 0.000000
# 5 0.000000 0.000000 0.000000 0.000000 0.058445 0.000000
# 6 0.000000 0.000000 0.000000 0.000000 0.000000 0.033640
#
#
# Mechanical properties :
#
#
# Convention : Reuss Voigt Hill
#
# Bulk Modulus (GPa) = 67.37107 72.65212 70.01160
# Shear Modulus (GPa) = 23.37085 24.99113 24.18099
#
# Velocity S-wave (km/s) = 3.42086 3.53745 3.47964
# Velocity P-wave (km/s) = 7.02404 7.28445 7.15543
#
# Compressibility (1/GPa) = 0.01484317
#
# Stress axis : x y z
#
# Youngs Moduli (GPa) = 65.13855 74.26168 84.72910
#
# Poissons Ratio (x) = 0.18947 0.43107
# Poissons Ratio (y) = 0.16619 0.44478
# Poissons Ratio (z) = 0.33140 0.38983
#
# Static dielectric constant tensor:
#      x y z
#    x 3.407400 0.000000 0.000000 
#    y 0.000000 3.740090 0.000000 
#    z 0.000000 0.000000 3.745470 
# 
# 
# High freq. dielectric constant tensor:
#      x y z
#    x 1.765920 0.000000 0.000000 
#    y 0.000000 1.769570 0.000000 
#    z 0.000000 0.000000 1.785670 
# 
# From -- ./inp_files/72476.got.cif
#   From: 2010.03.12/outbox.cif.g09.slc.cpg/sg65_37_cif.got.tgz:72476.got - 2010.04.10 20:52:16.
