data_PCOD8272515
_publ_section_title
;
Structure prediction by ZEFSAII (Michael W. Deem and Ramdas Pophale) SiO2 
 PCOD8272515
Probable space group: C M M M
;
_chemical_formula_sum "Si O2"
_cell_formula_units_Z 64
_cell_length_a 8.767794
_cell_length_b 15.255610
_cell_length_c 24.022990
_cell_angle_alpha 90.000000
_cell_angle_beta 90.000000
_cell_angle_gamma 90.000000
_cell_volume 3213.268197
_symmetry_space_group_name_H-M "C M M M"
_symmetry_group_IT_number 65
_symmetry_cell_setting 'orthorhombic'
loop_
_space_group_symop_operation_xyz
x,y,z
-x,-y,z
x,-y,-z
-x,y,-z
-x,-y,-z
x,y,-z
-x,y,z
x,-y,z
1/2+x,1/2+y,z
1/2-x,1/2-y,z
1/2+x,1/2-y,-z
1/2-x,1/2+y,-z
1/2-x,1/2-y,-z
1/2+x,1/2+y,-z
1/2-x,1/2+y,z
1/2+x,1/2-y,z
loop_
_atom_site_type_symbol
_atom_site_label
_atom_site_fract_x
_atom_site_fract_y
_atom_site_fract_z
Si Si1 0.320975 0.161931 0.386778
Si Si2 0.319503 0.846873 0.879250
Si Si3 0.178957 0.000000 0.190793
Si Si4 0.819451 0.900011 0.500000
Si Si5 0.677229 0.000000 0.691118
Si Si6 0.823551 0.657234 0.000000
O O1 0.500000 0.171450 0.395242
O O2 0.250000 0.250000 0.360443
O O3 0.244967 0.147572 0.446231
O O4 0.280069 0.084291 0.344992
O O5 0.500000 0.840925 0.869656
O O6 0.250000 0.750000 0.871721
O O7 0.249204 0.912021 0.834680
O O8 0.280065 0.888346 0.941063
O O9 0.215106 0.000000 0.255709
O O10 0.000000 0.000000 0.180387
O O11 0.000000 0.892880 0.500000
O O12 0.762610 0.000000 0.500000
O O13 0.500000 0.000000 0.708959
O O14 0.750000 0.750000 0.000000
O O15 0.000000 0.675440 0.000000
#
# Coordination Sequence:
#
# PCOD8272515 Si02
#       6
#    16  16   8   8   8   8
#     4  11  23  41  65  92 122 157 198 243 296 354
#     4  10  20  38  62  89 122 157 198 247 301 361
#     4  12  26  41  60  87 119 160 206 252 301 358
#     4  11  22  37  62  94 128 162 196 239 291 349
#     4  10  24  45  64  83 115 158 202 254 305 352
#     4   8  16  31  56  87 118 154 192 239 298 357
#
# _framework density 19.917414999999998
#
# number of rings (size 3 to 8) (size 9 to 14) (size 15 to 20)
#    0.000    1.625    1.250    3.375    0.000    5.000 
#    0.000    5.000    0.000    0.000    0.000    0.000 
#    0.000    0.000    0.000    0.000    0.000    0.000 
#
# Total GULP energy -396707.816922 kJ/mol
# GULP energy per Si atom -12397.119279 kJ/mol
# Density = 1.987208 g / cm^3
# Si number density = 19.917415 Si / 1000 Ang^3
#
#
#
# Elastic Constant Matrix: (Units=GPa)
#
#
# Indices 1 2 3 4 5 6 
#
# 1 95.9590 56.4237 53.9777 0.0000 0.0000 0.0000
# 2 56.4237 146.4002 62.2193 0.0000 0.0000 0.0000
# 3 53.9777 62.2193 128.7640 0.0000 0.0000 0.0000
# 4 0.0000 0.0000 0.0000 80.5924 0.0000 0.0000
# 5 0.0000 0.0000 0.0000 0.0000 26.4820 0.0000
# 6 0.0000 0.0000 0.0000 0.0000 0.0000 33.8232
#
#
#
# Elastic Compliance Matrix: (Units=1/GPa)
#
#
# Indices 1 2 3 4 5 6 
#
# 1 0.015286 -0.003987 -0.004482 0.000000 0.000000 0.000000
# 2 -0.003987 0.009636 -0.002985 0.000000 0.000000 0.000000
# 3 -0.004482 -0.002985 0.011087 0.000000 0.000000 0.000000
# 4 0.000000 0.000000 0.000000 0.012408 0.000000 0.000000
# 5 0.000000 0.000000 0.000000 0.000000 0.037762 0.000000
# 6 0.000000 0.000000 0.000000 0.000000 0.000000 0.029566
#
#
# Mechanical properties :
#
#
# Convention : Reuss Voigt Hill
#
# Bulk Modulus (GPa) = 76.31959 79.59608 77.95784
# Shear Modulus (GPa) = 34.96070 41.41302 38.18686
#
# Velocity S-wave (km/s) = 4.19415 4.56481 4.38340
# Velocity P-wave (km/s) = 7.86484 8.23609 8.05261
#
# Compressibility (1/GPa) = 0.01310279
#
# Stress axis : x y z
#
# Youngs Moduli (GPa) = 65.41827 103.78162 90.19546
#
# Poissons Ratio (x) = 0.41376 0.40421
# Poissons Ratio (y) = 0.26081 0.26921
# Poissons Ratio (z) = 0.29317 0.30976
#
# Static dielectric constant tensor:
#      x y z
#    x 3.646920 0.000000 0.000000 
#    y 0.000000 3.783170 0.000000 
#    z 0.000000 0.000000 4.089230 
# 
# 
# High freq. dielectric constant tensor:
#      x y z
#    x 1.785960 0.000000 0.000000 
#    y 0.000000 1.780920 0.000000 
#    z 0.000000 0.000000 1.783270 
# 
# From -- ./inp_files/66904.got.cif
#   From: 2010.03.12/outbox.cif.g09.slc.cpg/sg65_34_cif.got.tgz:66904.got - 2010.04.10 20:52:16.
