data_PCOD8272181
_publ_section_title
;
Structure prediction by ZEFSAII (Michael W. Deem and Ramdas Pophale) SiO2 
 PCOD8272181
Probable space group: C M M M
;
_chemical_formula_sum "Si O2"
_cell_formula_units_Z 80
_cell_length_a 18.851640
_cell_length_b 8.147148
_cell_length_c 26.964753
_cell_angle_alpha 90.000000
_cell_angle_beta 90.000000
_cell_angle_gamma 90.000000
_cell_volume 4141.438246
_symmetry_space_group_name_H-M "C M M M"
_symmetry_group_IT_number 65
_symmetry_cell_setting 'orthorhombic'
loop_
_space_group_symop_operation_xyz
x,y,z
-x,-y,z
x,-y,-z
-x,y,-z
-x,-y,-z
x,y,-z
-x,y,z
x,-y,z
1/2+x,1/2+y,z
1/2-x,1/2-y,z
1/2+x,1/2-y,-z
1/2-x,1/2+y,-z
1/2-x,1/2-y,-z
1/2+x,1/2+y,-z
1/2-x,1/2+y,z
1/2+x,1/2-y,z
loop_
_atom_site_type_symbol
_atom_site_label
_atom_site_fract_x
_atom_site_fract_y
_atom_site_fract_z
Si Si1 0.416216 0.187932 0.381055
Si Si2 0.175051 0.690908 0.288637
Si Si3 0.079040 0.191183 0.908647
Si Si4 0.327207 0.194237 0.821725
Si Si5 0.170173 0.689914 0.000000
Si Si6 0.415704 0.500000 0.444213
O O1 0.500000 0.193764 0.376906
O O2 0.386174 0.237812 0.327318
O O3 0.388769 0.329673 0.418761
O O4 0.392476 0.000000 0.396574
O O5 0.179595 0.500000 0.280884
O O6 0.250000 0.750000 0.310641
O O7 0.160384 0.766123 0.234046
O O8 0.111635 0.229201 0.855146
O O9 0.129358 0.258002 0.951058
O O10 0.000000 0.269649 0.912099
O O11 0.072696 0.000000 0.916319
O O12 0.250000 0.250000 0.841138
O O13 0.333044 0.000000 0.824544
O O14 0.250000 0.750000 0.000000
O O15 0.175168 0.500000 0.000000
O O16 0.500000 0.500000 0.444013
O O17 0.385580 0.500000 0.500000
#
# Coordination Sequence:
#
# PCOD8272181 Si02
#       6
#    16  16  16  16   8   8
#     4   9  18  33  52  78 109 141 182 230 279 330
#     4   9  19  33  53  80 107 144 183 222 273 326
#     4  11  24  41  59  83 115 147 181 227 280 329
#     4  10  20  36  57  81 112 145 185 228 270 329
#     4  12  25  42  65  87 109 143 187 228 275 330
#     4   9  18  32  52  80 108 140 183 228 280 334
#
# _framework density 19.316960999999999
#
# number of rings (size 3 to 8) (size 9 to 14) (size 15 to 20)
#    0.000    2.100    0.000    3.000    1.400    4.800 
#    0.000    4.000    0.000    0.600    0.000    0.000 
#    0.000    0.000    0.000    0.000    0.000    0.000 
#
# Total GULP energy -495832.155276 kJ/mol
# GULP energy per Si atom -12395.803882 kJ/mol
# Density = 1.927300 g / cm^3
# Si number density = 19.316961 Si / 1000 Ang^3
#
#
#
# Elastic Constant Matrix: (Units=GPa)
#
#
# Indices 1 2 3 4 5 6 
#
# 1 102.2950 42.8389 61.2169 0.0000 0.0000 0.0000
# 2 42.8389 93.4552 56.9386 0.0000 0.0000 0.0000
# 3 61.2169 56.9386 129.9390 0.0000 0.0000 0.0000
# 4 0.0000 0.0000 0.0000 29.9824 0.0000 0.0000
# 5 0.0000 0.0000 0.0000 0.0000 30.0000 0.0000
# 6 0.0000 0.0000 0.0000 0.0000 0.0000 23.5268
#
#
#
# Elastic Compliance Matrix: (Units=1/GPa)
#
#
# Indices 1 2 3 4 5 6 
#
# 1 0.014345 -0.003353 -0.005289 0.000000 0.000000 0.000000
# 2 -0.003353 0.015381 -0.005160 0.000000 0.000000 0.000000
# 3 -0.005289 -0.005160 0.012449 0.000000 0.000000 0.000000
# 4 0.000000 0.000000 0.000000 0.033353 0.000000 0.000000
# 5 0.000000 0.000000 0.000000 0.000000 0.033333 0.000000
# 6 0.000000 0.000000 0.000000 0.000000 0.000000 0.042505
#
#
# Mechanical properties :
#
#
# Convention : Reuss Voigt Hill
#
# Bulk Modulus (GPa) = 68.63224 71.96422 70.29823
# Shear Modulus (GPa) = 27.19942 27.68149 27.44046
#
# Velocity S-wave (km/s) = 3.75648 3.78963 3.77309
# Velocity P-wave (km/s) = 7.37710 7.51556 7.44665
#
# Compressibility (1/GPa) = 0.01457041
#
# Stress axis : x y z
#
# Youngs Moduli (GPa) = 69.71104 65.01370 80.32931
#
# Poissons Ratio (x) = 0.21801 0.42484
# Poissons Ratio (y) = 0.23376 0.41452
# Poissons Ratio (z) = 0.36869 0.33549
#
# Static dielectric constant tensor:
#      x y z
#    x 3.374880 0.000000 0.000000 
#    y 0.000000 3.764760 0.000000 
#    z 0.000000 0.000000 3.801430 
# 
# 
# High freq. dielectric constant tensor:
#      x y z
#    x 1.739690 0.000000 0.000000 
#    y 0.000000 1.763170 0.000000 
#    z 0.000000 0.000000 1.752060 
# 
# From -- ./inp_files/75082.got.cif
#   From: 2010.03.12/outbox.cif.g09.slc.cpg/sg65_38_cif.got.tgz:75082.got - 2010.04.10 20:52:16.
