data_PCOD8272197
_publ_section_title
;
Structure prediction by ZEFSAII (Michael W. Deem and Ramdas Pophale) SiO2 
 PCOD8272197
Probable space group: C M M M
;
_chemical_formula_sum "Si O2"
_cell_formula_units_Z 64
_cell_length_a 8.578384
_cell_length_b 15.011314
_cell_length_c 26.138642
_cell_angle_alpha 90.000000
_cell_angle_beta 90.000000
_cell_angle_gamma 90.000000
_cell_volume 3365.946532
_symmetry_space_group_name_H-M "C M M M"
_symmetry_group_IT_number 65
_symmetry_cell_setting 'orthorhombic'
loop_
_space_group_symop_operation_xyz
x,y,z
-x,-y,z
x,-y,-z
-x,y,-z
-x,-y,-z
x,y,-z
-x,y,z
x,-y,z
1/2+x,1/2+y,z
1/2-x,1/2-y,z
1/2+x,1/2-y,-z
1/2-x,1/2+y,-z
1/2-x,1/2-y,-z
1/2+x,1/2+y,-z
1/2-x,1/2+y,z
1/2+x,1/2-y,z
loop_
_atom_site_type_symbol
_atom_site_label
_atom_site_fract_x
_atom_site_fract_y
_atom_site_fract_z
Si Si1 0.814651 0.500000 0.189583
Si Si2 0.313633 0.000000 0.926881
Si Si3 0.686529 0.352229 0.000000
Si Si4 0.184366 0.343705 0.259696
Si Si5 0.815768 0.344550 0.625036
Si Si6 0.316228 0.500000 0.558233
O O1 0.756061 0.500000 0.131513
O O2 0.748173 0.585344 0.219562
O O3 0.000000 0.500000 0.191204
O O4 0.500000 0.000000 0.932946
O O5 0.246552 0.091252 0.951188
O O6 0.750000 0.250000 0.000000
O O7 0.500000 0.348457 0.000000
O O8 0.250000 0.250000 0.241432
O O9 0.240124 0.367778 0.317205
O O10 0.000000 0.340572 0.258033
O O11 0.750000 0.250000 0.607950
O O12 0.748487 0.413637 0.585499
O O13 0.000000 0.344435 0.621655
O O14 0.500000 0.500000 0.561554
O O15 0.257226 0.500000 0.500000
#
# Coordination Sequence:
#
# PCOD8272197 Si02
#       6
#     8   8   8  16  16   8
#     4   9  18  33  54  79 113 147 173 211 263 316
#     4  10  20  36  57  84 114 144 180 223 271 322
#     4  11  22  39  60  80 106 143 186 231 274 320
#     4   9  18  34  54  79 108 141 178 214 258 313
#     4  10  20  36  59  82 108 142 180 221 265 318
#     4  11  24  39  55  78 107 138 177 225 275 326
#
# _framework density 19.013968999999999
#
# number of rings (size 3 to 8) (size 9 to 14) (size 15 to 20)
#    0.000    2.125    0.000    4.125    0.000    5.500 
#    0.000    5.625    0.000    0.000    0.000    0.000 
#    0.000    0.000    0.000    0.000    0.000    0.000 
#
# Total GULP energy -396751.744961 kJ/mol
# GULP energy per Si atom -12398.492030 kJ/mol
# Density = 1.897069 g / cm^3
# Si number density = 19.013969 Si / 1000 Ang^3
#
#
#
# Elastic Constant Matrix: (Units=GPa)
#
#
# Indices 1 2 3 4 5 6 
#
# 1 62.3218 46.9394 42.1406 0.0000 0.0000 0.0000
# 2 46.9394 189.6530 120.1906 0.0000 0.0000 0.0000
# 3 42.1406 120.1906 171.0979 0.0000 0.0000 0.0000
# 4 0.0000 0.0000 0.0000 -9.3362 0.0000 0.0000
# 5 0.0000 0.0000 0.0000 0.0000 22.3956 0.0000
# 6 0.0000 0.0000 0.0000 0.0000 0.0000 36.0386
#
#
#
# Elastic Compliance Matrix: (Units=1/GPa)
#
#
# Indices 1 2 3 4 5 6 
#
# 1 0.020372 -0.003357 -0.002660 0.000000 0.000000 0.000000
# 2 -0.003357 0.010057 -0.006238 0.000000 0.000000 0.000000
# 3 -0.002660 -0.006238 0.010881 0.000000 0.000000 0.000000
# 4 0.000000 0.000000 0.000000 -0.107110 0.000000 0.000000
# 5 0.000000 0.000000 0.000000 0.000000 0.044652 0.000000
# 6 0.000000 0.000000 0.000000 0.000000 0.000000 0.027748
#
#
# Mechanical properties :
#
#
# Convention : Reuss Voigt Hill
#
# Bulk Modulus (GPa) = 59.51554 93.51266 76.51410
# Shear Modulus (GPa) = 136.20594 24.07307 80.13950
#
# Velocity S-wave (km/s) = 8.47291 3.56205 6.49917
# Velocity P-wave (km/s) = 11.27338 8.13667 9.83094
#
# Compressibility (1/GPa) = 0.01680233
#
# Stress axis : x y z
#
# Youngs Moduli (GPa) = 49.08622 99.43650 91.89921
#
# Poissons Ratio (x) = 0.33377 0.24442
# Poissons Ratio (y) = 0.16476 0.57324
# Poissons Ratio (z) = 0.13055 0.62026
#
# Static dielectric constant tensor:
#      x y z
#    x 3.418050 0.000000 0.000000 
#    y 0.000000 4.146710 0.000000 
#    z 0.000000 0.000000 3.749710 
# 
# 
# High freq. dielectric constant tensor:
#      x y z
#    x 1.734450 0.000000 0.000000 
#    y 0.000000 1.751070 0.000000 
#    z 0.000000 0.000000 1.741850 
# 
# From -- ./inp_files/66864.got.cif
#   From: 2010.03.12/outbox.cif.g09.slc.cpg/sg65_34_cif.got.tgz:66864.got - 2010.04.10 20:52:16.
