data_PCOD8272040
_publ_section_title
;
Structure prediction by ZEFSAII (Michael W. Deem and Ramdas Pophale) SiO2 
 PCOD8272040
Probable space group: C M M M
;
_chemical_formula_sum "Si O2"
_cell_formula_units_Z 104
_cell_length_a 27.382481
_cell_length_b 21.723378
_cell_length_c 8.714370
_cell_angle_alpha 90.000000
_cell_angle_beta 90.000000
_cell_angle_gamma 90.000000
_cell_volume 5183.655723
_symmetry_space_group_name_H-M "C M M M"
_symmetry_group_IT_number 65
_symmetry_cell_setting 'orthorhombic'
loop_
_space_group_symop_operation_xyz
x,y,z
-x,-y,z
x,-y,-z
-x,y,-z
-x,-y,-z
x,y,-z
-x,y,z
x,-y,z
1/2+x,1/2+y,z
1/2-x,1/2-y,z
1/2+x,1/2-y,-z
1/2-x,1/2+y,-z
1/2-x,1/2-y,-z
1/2+x,1/2+y,-z
1/2-x,1/2+y,z
1/2+x,1/2-y,z
loop_
_atom_site_type_symbol
_atom_site_label
_atom_site_fract_x
_atom_site_fract_y
_atom_site_fract_z
Si Si1 0.116807 0.830613 0.180503
Si Si2 0.113942 0.397228 0.180293
Si Si3 0.945600 0.928242 0.675495
Si Si4 0.774045 0.185668 0.182513
Si Si5 0.054373 0.280512 0.817981
Si Si6 0.783518 0.570688 0.319515
Si Si7 0.943239 0.500000 0.329095
O O1 0.097337 0.897404 0.226855
O O2 0.170624 0.816602 0.246578
O O3 0.076918 0.782783 0.245978
O O4 0.120413 0.825208 0.000000
O O5 0.094003 0.331024 0.231454
O O6 0.160957 0.415840 0.276247
O O7 0.070619 0.441991 0.226671
O O8 0.126034 0.400718 0.000000
O O9 0.940722 0.907403 0.500000
O O10 0.000000 0.911096 0.736675
O O11 0.936718 0.000000 0.692544
O O12 0.750000 0.250000 0.242950
O O13 0.748764 0.123048 0.239458
O O14 0.771223 0.184760 0.000000
O O15 0.000000 0.290556 0.746854
O O16 0.049519 0.279969 0.000000
O O17 0.776543 0.577098 0.500000
O O18 0.769963 0.500000 0.268263
O O19 0.918607 0.500000 0.500000
O O20 0.000000 0.500000 0.352382
#
# Coordination Sequence:
#
# PCOD8272040 Si02
#       7
#    16  16  16  16  16  16   8
#     4  10  20  35  58  86 113 143 183 238 293 341
#     4  11  21  36  60  85 112 152 200 244 290 344
#     4   9  19  36  56  79 112 153 190 224 270 338
#     4  10  22  41  63  87 116 151 198 250 300 359
#     4   9  18  33  55  85 118 149 186 234 287 344
#     4  11  24  41  61  86 119 156 198 249 306 366
#     4  11  23  37  53  79 119 157 191 239 292 341
#
# _framework density 20.063061999999999
#
# number of rings (size 3 to 8) (size 9 to 14) (size 15 to 20)
#    0.000    1.923    0.769    3.462    0.000    7.385 
#    0.000    6.923    0.000    3.692    0.000    0.000 
#    0.000    0.000    0.000    0.000    0.000    0.000 
#
# Total GULP energy -644565.275125 kJ/mol
# GULP energy per Si atom -12395.486060 kJ/mol
# Density = 2.001740 g / cm^3
# Si number density = 20.063062 Si / 1000 Ang^3
#
#
#
# Elastic Constant Matrix: (Units=GPa)
#
#
# Indices 1 2 3 4 5 6 
#
# 1 119.8049 63.8154 18.3347 0.0000 0.0000 0.0000
# 2 63.8154 128.3699 23.4402 0.0000 0.0000 0.0000
# 3 18.3347 23.4402 18.3983 0.0000 0.0000 0.0000
# 4 0.0000 0.0000 0.0000 21.6798 0.0000 0.0000
# 5 0.0000 0.0000 0.0000 0.0000 24.8892 0.0000
# 6 0.0000 0.0000 0.0000 0.0000 0.0000 34.5892
#
#
#
# Elastic Compliance Matrix: (Units=1/GPa)
#
#
# Indices 1 2 3 4 5 6 
#
# 1 0.011776 -0.004836 -0.005574 0.000000 0.000000 0.000000
# 2 -0.004836 0.012138 -0.010645 0.000000 0.000000 0.000000
# 3 -0.005574 -0.010645 0.073469 0.000000 0.000000 0.000000
# 4 0.000000 0.000000 0.000000 0.046126 0.000000 0.000000
# 5 0.000000 0.000000 0.000000 0.000000 0.040178 0.000000
# 6 0.000000 0.000000 0.000000 0.000000 0.000000 0.028911
#
#
# Mechanical properties :
#
#
# Convention : Reuss Voigt Hill
#
# Bulk Modulus (GPa) = 18.09181 53.08374 35.58777
# Shear Modulus (GPa) = 18.30624 26.96383 22.63504
#
# Velocity S-wave (km/s) = 3.02393 3.66997 3.36250
# Velocity P-wave (km/s) = 4.60752 6.66890 5.73164
#
# Compressibility (1/GPa) = 0.05527362
#
# Stress axis : x y z
#
# Youngs Moduli (GPa) = 84.91829 82.38638 13.61124
#
# Poissons Ratio (x) = 0.39845 0.07586
# Poissons Ratio (y) = 0.41070 0.14489
# Poissons Ratio (z) = 0.47330 0.87696
#
# Static dielectric constant tensor:
#      x y z
#    x 3.815870 0.000000 0.000000 
#    y 0.000000 3.894870 0.000000 
#    z 0.000000 0.000000 3.452920 
# 
# 
# High freq. dielectric constant tensor:
#      x y z
#    x 1.791230 0.000000 0.000000 
#    y 0.000000 1.797340 0.000000 
#    z 0.000000 0.000000 1.758270 
# 
# From -- ./inp_files/16447.got.cif
#   From: 2010.03.12/outbox.cif.g09.slc.cpg/sg65_9_cif.got.tgz:16447.got - 2010.04.10 20:52:16.
