data_PCOD8272164
_publ_section_title
;
Structure prediction by ZEFSAII (Michael W. Deem and Ramdas Pophale) SiO2 
 PCOD8272164
Probable space group: C M M M
;
_chemical_formula_sum "Si O2"
_cell_formula_units_Z 72
_cell_length_a 9.091324
_cell_length_b 16.189211
_cell_length_c 24.526260
_cell_angle_alpha 90.000000
_cell_angle_beta 90.000000
_cell_angle_gamma 90.000000
_cell_volume 3609.808364
_symmetry_space_group_name_H-M "C M M M"
_symmetry_group_IT_number 65
_symmetry_cell_setting 'orthorhombic'
loop_
_space_group_symop_operation_xyz
x,y,z
-x,-y,z
x,-y,-z
-x,y,-z
-x,-y,-z
x,y,-z
-x,y,z
x,-y,z
1/2+x,1/2+y,z
1/2-x,1/2-y,z
1/2+x,1/2-y,-z
1/2-x,1/2+y,-z
1/2-x,1/2-y,-z
1/2+x,1/2+y,-z
1/2-x,1/2+y,z
1/2+x,1/2-y,z
loop_
_atom_site_type_symbol
_atom_site_label
_atom_site_fract_x
_atom_site_fract_y
_atom_site_fract_z
Si Si1 0.174354 0.000000 0.437627
Si Si2 0.173926 0.333109 0.829701
Si Si3 0.673107 0.334597 0.378399
Si Si4 0.174594 0.592640 0.059250
Si Si5 0.334786 0.592968 0.265044
O O1 0.235329 0.915214 0.410372
O O2 0.225910 0.000000 0.500000
O O3 0.000000 0.000000 0.431169
O O4 0.250000 0.250000 0.809930
O O5 0.235747 0.354441 0.890226
O O6 0.222855 0.400769 0.785633
O O7 0.000000 0.324654 0.829604
O O8 0.500000 0.325236 0.388733
O O9 0.750000 0.250000 0.398718
O O10 0.709178 0.346688 0.314387
O O11 0.236846 0.500000 0.064779
O O12 0.000000 0.589812 0.062606
O O13 0.223929 0.629481 0.000000
O O14 0.500000 0.613362 0.244617
O O15 0.327184 0.500000 0.287975
#
# Coordination Sequence:
#
# PCOD8272164 Si02
#       5
#     8  16  16  16  16
#     4   9  18  36  61  85 113 153 196 231 272 332
#     4  11  22  34  50  76 107 139 178 222 269 325
#     4  10  20  36  58  85 115 150 190 232 279 333
#     4   8  15  30  51  72  95 127 169 217 268 322
#     4  10  20  36  57  79 108 144 181 224 277 335
#
# _framework density 19.945658000000002
#
# number of rings (size 3 to 8) (size 9 to 14) (size 15 to 20)
#    0.000    2.333    1.111    2.667    0.000    4.889 
#    0.000    0.556    0.000    2.667    0.000    7.778 
#    0.000    0.000    0.000    0.000    0.000    0.000 
#
# Total GULP energy -446238.005195 kJ/mol
# GULP energy per Si atom -12395.500144 kJ/mol
# Density = 1.990026 g / cm^3
# Si number density = 19.945658 Si / 1000 Ang^3
#
#
#
# Elastic Constant Matrix: (Units=GPa)
#
#
# Indices 1 2 3 4 5 6 
#
# 1 47.9689 31.3567 37.3241 0.0000 0.0000 0.0000
# 2 31.3567 121.8187 53.9037 0.0000 0.0000 0.0000
# 3 37.3241 53.9037 118.9028 0.0000 0.0000 0.0000
# 4 0.0000 0.0000 0.0000 26.6028 0.0000 0.0000
# 5 0.0000 0.0000 0.0000 0.0000 20.1831 0.0000
# 6 0.0000 0.0000 0.0000 0.0000 0.0000 26.2379
#
#
#
# Elastic Compliance Matrix: (Units=1/GPa)
#
#
# Indices 1 2 3 4 5 6 
#
# 1 0.029315 -0.004346 -0.007232 0.000000 0.000000 0.000000
# 2 -0.004346 0.010913 -0.003583 0.000000 0.000000 0.000000
# 3 -0.007232 -0.003583 0.012305 0.000000 0.000000 0.000000
# 4 0.000000 0.000000 0.000000 0.037590 0.000000 0.000000
# 5 0.000000 0.000000 0.000000 0.000000 0.049546 0.000000
# 6 0.000000 0.000000 0.000000 0.000000 0.000000 0.038113
#
#
# Mechanical properties :
#
#
# Convention : Reuss Voigt Hill
#
# Bulk Modulus (GPa) = 45.02300 59.31770 52.17035
# Shear Modulus (GPa) = 23.20110 25.67847 24.43979
#
# Velocity S-wave (km/s) = 3.41429 3.59196 3.50425
# Velocity P-wave (km/s) = 6.17779 6.85617 6.52580
#
# Compressibility (1/GPa) = 0.02221087
#
# Stress axis : x y z
#
# Youngs Moduli (GPa) = 34.11265 91.63323 81.26914
#
# Poissons Ratio (x) = 0.39821 0.58773
# Poissons Ratio (y) = 0.14824 0.29121
# Poissons Ratio (z) = 0.24670 0.32834
#
# Static dielectric constant tensor:
#      x y z
#    x 3.158470 0.000000 0.000000 
#    y 0.000000 3.647280 0.000000 
#    z 0.000000 0.000000 3.748360 
# 
# 
# High freq. dielectric constant tensor:
#      x y z
#    x 1.731500 0.000000 0.000000 
#    y 0.000000 1.781560 0.000000 
#    z 0.000000 0.000000 1.785940 
# 
# From -- ./inp_files/72470.got.cif
#   From: 2010.03.12/outbox.cif.g09.slc.cpg/sg65_37_cif.got.tgz:72470.got - 2010.04.10 20:52:16.
