data_PCOD8272334
_publ_section_title
;
Structure prediction by ZEFSAII (Michael W. Deem and Ramdas Pophale) SiO2 
 PCOD8272334
Probable space group: C M M M
;
_chemical_formula_sum "Si O2"
_cell_formula_units_Z 104
_cell_length_a 30.099786
_cell_length_b 20.686525
_cell_length_c 8.665381
_cell_angle_alpha 90.000000
_cell_angle_beta 90.000000
_cell_angle_gamma 90.000000
_cell_volume 5395.585922
_symmetry_space_group_name_H-M "C M M M"
_symmetry_group_IT_number 65
_symmetry_cell_setting 'orthorhombic'
loop_
_space_group_symop_operation_xyz
x,y,z
-x,-y,z
x,-y,-z
-x,y,-z
-x,-y,-z
x,y,-z
-x,y,z
x,-y,z
1/2+x,1/2+y,z
1/2-x,1/2-y,z
1/2+x,1/2-y,-z
1/2-x,1/2+y,-z
1/2-x,1/2-y,-z
1/2+x,1/2+y,-z
1/2-x,1/2+y,z
1/2+x,1/2-y,z
loop_
_atom_site_type_symbol
_atom_site_label
_atom_site_fract_x
_atom_site_fract_y
_atom_site_fract_z
Si Si1 0.551084 0.866260 0.817655
Si Si2 0.722586 0.186835 0.181307
Si Si3 0.278946 0.425188 0.318716
Si Si4 0.947481 0.500000 0.327759
Si Si5 0.130770 0.713107 0.682840
Si Si6 0.868128 0.857547 0.682388
Si Si7 0.951958 0.072049 0.316653
O O1 0.500000 0.852850 0.762538
O O2 0.584488 0.813299 0.749895
O O3 0.568526 0.936093 0.760990
O O4 0.553573 0.864941 0.000000
O O5 0.750000 0.250000 0.244365
O O6 0.746946 0.120276 0.220917
O O7 0.674610 0.176717 0.259426
O O8 0.716075 0.193741 0.000000
O O9 0.271031 0.413226 0.500000
O O10 0.270912 0.500000 0.274931
O O11 0.328650 0.405377 0.269783
O O12 0.926975 0.500000 0.500000
O O13 0.000000 0.500000 0.335181
O O14 0.127590 0.708442 0.500000
O O15 0.138284 0.785638 0.746320
O O16 0.872359 0.854132 0.500000
O O17 0.913478 0.884461 0.757166
O O18 0.947137 0.069533 0.500000
O O19 0.000000 0.101336 0.270291
O O20 0.947425 0.000000 0.249903
#
# Coordination Sequence:
#
# PCOD8272334 Si02
#       7
#    16  16  16   8  16  16  16
#     4  10  21  38  59  84 118 156 192 233 284 344
#     4  11  23  40  61  83 113 154 194 238 291 354
#     4  10  20  36  60  87 114 145 187 240 294 349
#     4   9  17  33  59  87 113 145 189 237 285 339
#     4  11  22  36  58  85 114 148 189 239 286 338
#     4   9  17  29  48  76 108 144 183 229 282 333
#     4   8  13  22  38  64 102 144 180 215 261 319
#
# _framework density 19.275016000000001
#
# number of rings (size 3 to 8) (size 9 to 14) (size 15 to 20)
#    0.000    2.231    1.538    2.538    0.000    5.231 
#    1.385    1.538    0.000    0.000    0.000    0.000 
#    0.000    0.000    0.000   10.154    0.000    9.846 
#
# Total GULP energy -644606.723412 kJ/mol
# GULP energy per Si atom -12396.283143 kJ/mol
# Density = 1.923114 g / cm^3
# Si number density = 19.275016 Si / 1000 Ang^3
#
#
#
# Elastic Constant Matrix: (Units=GPa)
#
#
# Indices 1 2 3 4 5 6 
#
# 1 124.9531 47.6000 28.7670 0.0000 0.0000 0.0000
# 2 47.6000 108.6837 25.1198 0.0000 0.0000 0.0000
# 3 28.7670 25.1198 56.5672 0.0000 0.0000 0.0000
# 4 0.0000 0.0000 0.0000 20.8692 0.0000 0.0000
# 5 0.0000 0.0000 0.0000 0.0000 22.8147 0.0000
# 6 0.0000 0.0000 0.0000 0.0000 0.0000 36.1662
#
#
#
# Elastic Compliance Matrix: (Units=1/GPa)
#
#
# Indices 1 2 3 4 5 6 
#
# 1 0.010216 -0.003648 -0.003575 0.000000 0.000000 0.000000
# 2 -0.003648 0.011556 -0.003277 0.000000 0.000000 0.000000
# 3 -0.003575 -0.003277 0.020951 0.000000 0.000000 0.000000
# 4 0.000000 0.000000 0.000000 0.047918 0.000000 0.000000
# 5 0.000000 0.000000 0.000000 0.000000 0.043831 0.000000
# 6 0.000000 0.000000 0.000000 0.000000 0.000000 0.027650
#
#
# Mechanical properties :
#
#
# Convention : Reuss Voigt Hill
#
# Bulk Modulus (GPa) = 46.03279 54.79752 50.41516
# Shear Modulus (GPa) = 26.26567 28.55116 27.40842
#
# Velocity S-wave (km/s) = 3.69545 3.85288 3.77499
# Velocity P-wave (km/s) = 6.49172 6.94866 6.72408
#
# Compressibility (1/GPa) = 0.02172364
#
# Stress axis : x y z
#
# Youngs Moduli (GPa) = 97.88832 86.53555 47.72974
#
# Poissons Ratio (x) = 0.31567 0.17065
# Poissons Ratio (y) = 0.35708 0.15639
# Poissons Ratio (z) = 0.34998 0.28354
#
# Static dielectric constant tensor:
#      x y z
#    x 3.689840 0.000000 0.000000 
#    y 0.000000 3.672670 0.000000 
#    z 0.000000 0.000000 3.189430 
# 
# 
# High freq. dielectric constant tensor:
#      x y z
#    x 1.755220 0.000000 0.000000 
#    y 0.000000 1.750840 0.000000 
#    z 0.000000 0.000000 1.720060 
# 
# From -- ./inp_files/18685.got.cif
#   From: 2010.03.12/outbox.cif.g09.slc.cpg/sg65_10_cif.got.tgz:18685.got - 2010.04.10 20:52:16.
