data_PCOD8272524
_publ_section_title
;
Structure prediction by ZEFSAII (Michael W. Deem and Ramdas Pophale) SiO2 
 PCOD8272524
Probable space group: C M M M
;
_chemical_formula_sum "Si O2"
_cell_formula_units_Z 88
_cell_length_a 18.959522
_cell_length_b 21.543085
_cell_length_c 11.363038
_cell_angle_alpha 90.000000
_cell_angle_beta 90.000000
_cell_angle_gamma 90.000000
_cell_volume 4641.194169
_symmetry_space_group_name_H-M "C M M M"
_symmetry_group_IT_number 65
_symmetry_cell_setting 'orthorhombic'
loop_
_space_group_symop_operation_xyz
x,y,z
-x,-y,z
x,-y,-z
-x,y,-z
-x,-y,-z
x,y,-z
-x,y,z
x,-y,z
1/2+x,1/2+y,z
1/2-x,1/2-y,z
1/2+x,1/2-y,-z
1/2-x,1/2+y,-z
1/2-x,1/2-y,-z
1/2+x,1/2+y,-z
1/2-x,1/2+y,z
1/2+x,1/2-y,z
loop_
_atom_site_type_symbol
_atom_site_label
_atom_site_fract_x
_atom_site_fract_y
_atom_site_fract_z
Si Si1 0.169909 0.884006 0.275259
Si Si2 0.918735 0.302961 0.500000
Si Si3 0.581338 0.500000 0.639066
Si Si4 0.580795 0.287285 0.137448
Si Si5 0.695410 0.927722 0.134209
Si Si6 0.810605 0.198820 0.500000
Si Si7 0.417826 0.842704 0.247412
O O1 0.118408 0.939033 0.311849
O O2 0.129058 0.842710 0.181259
O O3 0.238573 0.910901 0.213907
O O4 0.195444 0.844297 0.386215
O O5 0.884134 0.235079 0.500000
O O6 0.899145 0.344076 0.386269
O O7 0.000000 0.284995 0.500000
O O8 0.500000 0.500000 0.679948
O O9 0.587794 0.500000 0.500000
O O10 0.500000 0.302736 0.168850
O O11 0.605197 0.224428 0.200345
O O12 0.592186 0.278234 0.000000
O O13 0.625230 0.894985 0.180735
O O14 0.680009 0.000000 0.143293
O O15 0.710386 0.907460 0.000000
O O16 0.750000 0.250000 0.500000
O O17 0.500000 0.855536 0.223113
#
# Coordination Sequence:
#
# PCOD8272524 Si02
#       7
#    16   8   8  16  16   8  16
#     4  12  23  41  61  88 125 161 209 255 310 370
#     4  10  20  38  63  94 126 159 191 246 317 375
#     4  11  24  42  63  91 124 165 211 256 310 372
#     4  10  21  37  60  90 122 157 199 252 310 366
#     4  11  25  43  63  86 122 171 215 259 309 367
#     4  12  24  37  61  93 124 161 199 250 313 373
#     4  10  21  40  65  95 126 157 204 260 315 375
#
# _framework density 18.960637999999999
#
# number of rings (size 3 to 8) (size 9 to 14) (size 15 to 20)
#    0.000    1.182    3.636    2.727    0.000    2.182 
#    0.000    4.091    0.000    3.818    0.000    0.000 
#    0.000    0.000    0.000    0.000    0.000    0.000 
#
# Total GULP energy -545810.601614 kJ/mol
# GULP energy per Si atom -12404.786400 kJ/mol
# Density = 1.891748 g / cm^3
# Si number density = 18.960638 Si / 1000 Ang^3
#
#
#
# Elastic Constant Matrix: (Units=GPa)
#
#
# Indices 1 2 3 4 5 6 
#
# 1 102.5673 65.2022 47.5919 0.0000 0.0000 0.0000
# 2 65.2022 100.5396 46.2801 0.0000 0.0000 0.0000
# 3 47.5919 46.2801 102.8414 0.0000 0.0000 0.0000
# 4 0.0000 0.0000 0.0000 35.9434 0.0000 0.0000
# 5 0.0000 0.0000 0.0000 0.0000 31.5113 0.0000
# 6 0.0000 0.0000 0.0000 0.0000 0.0000 45.2571
#
#
#
# Elastic Compliance Matrix: (Units=1/GPa)
#
#
# Indices 1 2 3 4 5 6 
#
# 1 0.017701 -0.009723 -0.003816 0.000000 0.000000 0.000000
# 2 -0.009723 0.017886 -0.003549 0.000000 0.000000 0.000000
# 3 -0.003816 -0.003549 0.013087 0.000000 0.000000 0.000000
# 4 0.000000 0.000000 0.000000 0.027822 0.000000 0.000000
# 5 0.000000 0.000000 0.000000 0.000000 0.031735 0.000000
# 6 0.000000 0.000000 0.000000 0.000000 0.000000 0.022096
#
#
# Mechanical properties :
#
#
# Convention : Reuss Voigt Hill
#
# Bulk Modulus (GPa) = 68.97963 69.34407 69.16185
# Shear Modulus (GPa) = 29.52714 32.33397 30.93055
#
# Velocity S-wave (km/s) = 3.95053 4.13403 4.04332
# Velocity P-wave (km/s) = 7.56758 7.70967 7.63896
#
# Compressibility (1/GPa) = 0.01449703
#
# Stress axis : x y z
#
# Youngs Moduli (GPa) = 56.49265 55.91028 76.41217
#
# Poissons Ratio (x) = 0.54362 0.29160
# Poissons Ratio (y) = 0.54929 0.27121
# Poissons Ratio (z) = 0.21558 0.19844
#
# Static dielectric constant tensor:
#      x y z
#    x 3.514180 0.000000 0.000000 
#    y 0.000000 3.482290 0.000000 
#    z 0.000000 0.000000 3.777340 
# 
# 
# High freq. dielectric constant tensor:
#      x y z
#    x 1.745620 0.000000 0.000000 
#    y 0.000000 1.736150 0.000000 
#    z 0.000000 0.000000 1.756330 
# 
# From -- ./inp_files/26862.got.cif
#   From: 2010.03.12/outbox.cif.g09.slc.cpg/sg65_14_cif.got.tgz:26862.got - 2010.04.10 20:52:16.
