data_PCOD8272057
_publ_section_title
;
Structure prediction by ZEFSAII (Michael W. Deem and Ramdas Pophale) SiO2 
 PCOD8272057
Probable space group: C M M M
;
_chemical_formula_sum "Si O2"
_cell_formula_units_Z 104
_cell_length_a 27.122890
_cell_length_b 9.016024
_cell_length_c 22.100233
_cell_angle_alpha 90.000000
_cell_angle_beta 90.000000
_cell_angle_gamma 90.000000
_cell_volume 5404.404839
_symmetry_space_group_name_H-M "C M M M"
_symmetry_group_IT_number 65
_symmetry_cell_setting 'orthorhombic'
loop_
_space_group_symop_operation_xyz
x,y,z
-x,-y,z
x,-y,-z
-x,y,-z
-x,-y,-z
x,y,-z
-x,y,z
x,-y,z
1/2+x,1/2+y,z
1/2-x,1/2-y,z
1/2+x,1/2-y,-z
1/2-x,1/2+y,-z
1/2-x,1/2-y,-z
1/2+x,1/2+y,-z
1/2-x,1/2+y,z
1/2+x,1/2-y,z
loop_
_atom_site_type_symbol
_atom_site_label
_atom_site_fract_x
_atom_site_fract_y
_atom_site_fract_z
Si Si1 0.698836 0.824740 0.431036
Si Si2 0.942402 0.665349 0.000000
Si Si3 0.604308 0.326013 0.888795
Si Si4 0.443502 0.672997 0.760787
Si Si5 0.301433 0.172850 0.929865
Si Si6 0.612113 0.171563 0.343267
Si Si7 0.442684 0.338474 0.565519
O O1 0.683200 0.779956 0.500000
O O2 0.750000 0.750000 0.413346
O O3 0.660183 0.768440 0.379834
O O4 0.704610 0.000000 0.426573
O O5 0.927742 0.756909 0.941590
O O6 0.917533 0.500000 0.000000
O O7 0.000000 0.645102 0.000000
O O8 0.612079 0.500000 0.899718
O O9 0.573853 0.293033 0.828407
O O10 0.657642 0.247446 0.887116
O O11 0.500000 0.733411 0.751510
O O12 0.443313 0.500000 0.746422
O O13 0.401611 0.746880 0.718840
O O14 0.250000 0.250000 0.914669
O O15 0.296801 0.000000 0.914565
O O16 0.316314 0.199058 0.000000
O O17 0.567631 0.204869 0.388909
O O18 0.616826 0.000000 0.328357
O O19 0.418918 0.302495 0.500000
O O20 0.500000 0.350414 0.557951
O O21 0.422807 0.500000 0.588763
#
# Coordination Sequence:
#
# PCOD8272057 Si02
#       7
#    16   8  16  16  16  16  16
#     4   9  19  36  57  83 114 145 182 231 284 339
#     4  11  23  37  56  85 118 149 185 237 299 359
#     4  11  22  38  61  86 114 151 195 242 295 351
#     4  10  23  42  60  80 111 153 199 241 281 336
#     4  10  20  35  58  88 122 153 185 228 282 341
#     4  11  22  35  54  81 111 145 184 231 286 338
#     4   9  18  32  50  74 105 141 181 224 270 325
#
# _framework density 19.243563000000002
#
# number of rings (size 3 to 8) (size 9 to 14) (size 15 to 20)
#    0.000    1.923    0.769    3.462    0.000    7.692 
#    0.000    3.077    0.000    1.846    0.000    0.000 
#    0.000    0.000    0.000    0.000    0.000    0.000 
#
# Total GULP energy -644491.767977 kJ/mol
# GULP energy per Si atom -12394.072461 kJ/mol
# Density = 1.919976 g / cm^3
# Si number density = 19.243563 Si / 1000 Ang^3
#
#
#
# Elastic Constant Matrix: (Units=GPa)
#
#
# Indices 1 2 3 4 5 6 
#
# 1 111.0781 52.3493 56.3841 0.0000 0.0000 0.0000
# 2 52.3493 79.7330 54.0469 0.0000 0.0000 0.0000
# 3 56.3841 54.0469 118.8165 0.0000 0.0000 0.0000
# 4 0.0000 0.0000 0.0000 23.6530 0.0000 0.0000
# 5 0.0000 0.0000 0.0000 0.0000 41.5334 0.0000
# 6 0.0000 0.0000 0.0000 0.0000 0.0000 33.0878
#
#
#
# Elastic Compliance Matrix: (Units=1/GPa)
#
#
# Indices 1 2 3 4 5 6 
#
# 1 0.014007 -0.006782 -0.003562 0.000000 0.000000 0.000000
# 2 -0.006782 0.021417 -0.006524 0.000000 0.000000 0.000000
# 3 -0.003562 -0.006524 0.013074 0.000000 0.000000 0.000000
# 4 0.000000 0.000000 0.000000 0.042278 0.000000 0.000000
# 5 0.000000 0.000000 0.000000 0.000000 0.024077 0.000000
# 6 0.000000 0.000000 0.000000 0.000000 0.000000 0.030223
#
#
# Mechanical properties :
#
#
# Convention : Reuss Voigt Hill
#
# Bulk Modulus (GPa) = 67.73847 70.57646 69.15747
# Shear Modulus (GPa) = 27.21367 29.44466 28.32917
#
# Velocity S-wave (km/s) = 3.76463 3.91590 3.84101
# Velocity P-wave (km/s) = 7.36027 7.56311 7.46238
#
# Compressibility (1/GPa) = 0.01476266
#
# Stress axis : x y z
#
# Youngs Moduli (GPa) = 71.39304 46.69289 76.48684
#
# Poissons Ratio (x) = 0.31666 0.27245
# Poissons Ratio (y) = 0.48418 0.49897
# Poissons Ratio (z) = 0.25431 0.30461
#
# Static dielectric constant tensor:
#      x y z
#    x 3.588140 0.000000 0.000000 
#    y 0.000000 3.637860 0.000000 
#    z 0.000000 0.000000 17.321770 
# 
# 
# High freq. dielectric constant tensor:
#      x y z
#    x 1.751600 0.000000 0.000000 
#    y 0.000000 1.751200 0.000000 
#    z 0.000000 0.000000 1.739370 
# 
# From -- ./inp_files/65892.got.cif
#   From: 2010.03.12/outbox.cif.g09.slc.cpg/sg65_33_cif.got.tgz:65892.got - 2010.04.10 20:52:16.
