data_PCOD8272651
_publ_section_title
;
Structure prediction by ZEFSAII (Michael W. Deem and Ramdas Pophale) SiO2 
 PCOD8272651
Probable space group: C M M M
;
_chemical_formula_sum "Si O2"
_cell_formula_units_Z 88
_cell_length_a 17.394144
_cell_length_b 11.937773
_cell_length_c 22.933610
_cell_angle_alpha 90.000000
_cell_angle_beta 90.000000
_cell_angle_gamma 90.000000
_cell_volume 4762.103173
_symmetry_space_group_name_H-M "C M M M"
_symmetry_group_IT_number 65
_symmetry_cell_setting 'orthorhombic'
loop_
_space_group_symop_operation_xyz
x,y,z
-x,-y,z
x,-y,-z
-x,y,-z
-x,-y,-z
x,y,-z
-x,y,z
x,-y,z
1/2+x,1/2+y,z
1/2-x,1/2-y,z
1/2+x,1/2-y,-z
1/2-x,1/2+y,-z
1/2-x,1/2-y,-z
1/2+x,1/2+y,-z
1/2-x,1/2+y,z
1/2+x,1/2-y,z
loop_
_atom_site_type_symbol
_atom_site_label
_atom_site_fract_x
_atom_site_fract_y
_atom_site_fract_z
Si Si1 0.695428 0.863330 0.000000
Si Si2 0.839533 0.769623 0.795264
Si Si3 0.161281 0.228638 0.660231
Si Si4 0.085365 0.370382 0.892246
Si Si5 0.413504 0.500000 0.340191
Si Si6 0.909450 0.624468 0.437109
Si Si7 0.586588 0.500000 0.202735
O O1 0.750000 0.750000 0.000000
O O2 0.644115 0.842998 0.056477
O O3 0.725552 0.000000 0.000000
O O4 0.750000 0.750000 0.807229
O O5 0.860493 0.750796 0.727620
O O6 0.888643 0.682700 0.831689
O O7 0.864146 0.892850 0.817482
O O8 0.250000 0.250000 0.649403
O O9 0.115964 0.312268 0.620010
O O10 0.135978 0.105829 0.639221
O O11 0.082339 0.500000 0.879365
O O12 0.000000 0.326706 0.909420
O O13 0.500000 0.500000 0.367534
O O14 0.421647 0.500000 0.271416
O O15 0.882279 0.676662 0.500000
O O16 0.875278 0.500000 0.432558
O O17 0.000000 0.620902 0.436335
O O18 0.500000 0.500000 0.175333
#
# Coordination Sequence:
#
# PCOD8272651 Si02
#       7
#     8  16  16  16   8  16   8
#     4  10  21  41  65  87 117 156 196 238 293 347
#     4  10  21  35  54  83 115 147 189 234 279 338
#     4  10  21  34  55  81 111 146 184 233 284 332
#     4  10  21  37  59  86 116 150 191 235 283 339
#     4   9  18  34  53  76 107 146 185 222 275 346
#     4   9  19  36  56  77 104 141 182 225 279 343
#     4   9  18  34  54  74 109 155 187 220 283 345
#
# _framework density 18.479229
#
# number of rings (size 3 to 8) (size 9 to 14) (size 15 to 20)
#    0.000    2.364    0.000    2.455    2.545    4.364 
#    1.636    2.273    0.000    2.182    0.000    0.000 
#    0.000    0.000    0.000    0.000    0.000    0.000 
#
# Total GULP energy -545122.308374 kJ/mol
# GULP energy per Si atom -12389.143372 kJ/mol
# Density = 1.843717 g / cm^3
# Si number density = 18.479229 Si / 1000 Ang^3
#
#
#
# Elastic Constant Matrix: (Units=GPa)
#
#
# Indices 1 2 3 4 5 6 
#
# 1 113.4072 80.2683 41.5624 0.0000 0.0000 0.0000
# 2 80.2683 98.5521 64.6154 0.0000 0.0000 0.0000
# 3 41.5624 64.6154 77.4193 0.0000 0.0000 0.0000
# 4 0.0000 0.0000 0.0000 19.8079 0.0000 0.0000
# 5 0.0000 0.0000 0.0000 0.0000 54.9046 0.0000
# 6 0.0000 0.0000 0.0000 0.0000 0.0000 30.8615
#
#
#
# Elastic Compliance Matrix: (Units=1/GPa)
#
#
# Indices 1 2 3 4 5 6 
#
# 1 0.022453 -0.022934 0.007088 0.000000 0.000000 0.000000
# 2 -0.022934 0.045836 -0.025943 0.000000 0.000000 0.000000
# 3 0.007088 -0.025943 0.030764 0.000000 0.000000 0.000000
# 4 0.000000 0.000000 0.000000 0.050485 0.000000 0.000000
# 5 0.000000 0.000000 0.000000 0.000000 0.018213 0.000000
# 6 0.000000 0.000000 0.000000 0.000000 0.000000 0.032403
#
#
# Mechanical properties :
#
#
# Convention : Reuss Voigt Hill
#
# Bulk Modulus (GPa) = 64.62739 73.58564 69.10651
# Shear Modulus (GPa) = 17.30750 27.97696 22.64223
#
# Velocity S-wave (km/s) = 3.06370 3.89520 3.50420
# Velocity P-wave (km/s) = 6.89666 7.75482 7.33830
#
# Compressibility (1/GPa) = 0.01547331
#
# Stress axis : x y z
#
# Youngs Moduli (GPa) = 44.53771 21.81695 32.50512
#
# Poissons Ratio (x) = 0.50036 -0.23038
# Poissons Ratio (y) = 1.02144 0.84329
# Poissons Ratio (z) = -0.31566 0.56600
#
# Static dielectric constant tensor:
#      x y z
#    x 3.495650 0.000000 0.000000 
#    y 0.000000 3.804850 0.000000 
#    z 0.000000 0.000000 3.548730 
# 
# 
# High freq. dielectric constant tensor:
#      x y z
#    x 1.720010 0.000000 0.000000 
#    y 0.000000 1.720510 0.000000 
#    z 0.000000 0.000000 1.708800 
# 
# From -- ./inp_files/63648.got.cif
#   From: 2010.03.12/outbox.cif.g09.slc.cpg/sg65_32_cif.got.tgz:63648.got - 2010.04.10 20:52:16.
