data_PCOD8272411
_publ_section_title
;
Structure prediction by ZEFSAII (Michael W. Deem and Ramdas Pophale) SiO2 
 PCOD8272411
Probable space group: C M M M
;
_chemical_formula_sum "Si O2"
_cell_formula_units_Z 64
_cell_length_a 10.155445
_cell_length_b 31.972955
_cell_length_c 10.058307
_cell_angle_alpha 90.000000
_cell_angle_beta 90.000000
_cell_angle_gamma 90.000000
_cell_volume 3265.928119
_symmetry_space_group_name_H-M "C M M M"
_symmetry_group_IT_number 65
_symmetry_cell_setting 'orthorhombic'
loop_
_space_group_symop_operation_xyz
x,y,z
-x,-y,z
x,-y,-z
-x,y,-z
-x,-y,-z
x,y,-z
-x,y,z
x,-y,z
1/2+x,1/2+y,z
1/2-x,1/2-y,z
1/2+x,1/2-y,-z
1/2-x,1/2+y,-z
1/2-x,1/2-y,-z
1/2+x,1/2+y,-z
1/2-x,1/2+y,z
1/2+x,1/2-y,z
loop_
_atom_site_type_symbol
_atom_site_label
_atom_site_fract_x
_atom_site_fract_y
_atom_site_fract_z
Si Si1 0.500000 0.805097 0.643369
Si Si2 0.246044 0.336507 0.242153
Si Si3 0.156223 0.000000 0.345882
Si Si4 0.353055 0.213749 0.000000
Si Si5 0.000000 0.787398 0.658471
Si Si6 0.343941 0.425843 0.153052
O O1 0.500000 0.784611 0.500000
O O2 0.369651 0.834190 0.649229
O O3 0.500000 0.759866 0.721482
O O4 0.372705 0.310607 0.284720
O O5 0.281709 0.383254 0.203896
O O6 0.167562 0.315736 0.123589
O O7 0.205338 0.960361 0.259318
O O8 0.210923 0.000000 0.500000
O O9 0.000000 0.000000 0.353508
O O10 0.250000 0.250000 0.000000
O O11 0.500000 0.232235 0.000000
O O12 0.000000 0.792161 0.500000
O O13 0.500000 0.421816 0.157143
O O14 0.300379 0.436151 0.000000
#
# Coordination Sequence:
#
# PCOD8272411 Si02
#       6
#     8  16   8   8   8  16
#     4  11  24  41  57  82 121 169 211 257 318 371
#     4  12  23  39  61  89 122 163 212 260 311 373
#     4   9  19  35  59  90 123 158 201 256 314 372
#     4  12  26  40  62  91 126 169 219 270 313 360
#     4  11  24  41  61  86 121 167 219 265 312 373
#     4  10  20  37  59  89 125 160 202 251 315 385
#
# _framework density 19.596267000000001
#
# number of rings (size 3 to 8) (size 9 to 14) (size 15 to 20)
#    0.000    1.125    3.750    3.375    1.750    5.500 
#    0.000    0.000    0.000    0.750    0.000    4.375 
#    0.000    0.000    0.000    0.000    0.000    0.000 
#
# Total GULP energy -396438.204702 kJ/mol
# GULP energy per Si atom -12388.693897 kJ/mol
# Density = 1.955166 g / cm^3
# Si number density = 19.596267 Si / 1000 Ang^3
#
#
#
# Elastic Constant Matrix: (Units=GPa)
#
#
# Indices 1 2 3 4 5 6 
#
# 1 109.1685 42.4699 41.2179 0.0000 0.0000 0.0000
# 2 42.4699 148.0954 65.5865 0.0000 0.0000 0.0000
# 3 41.2179 65.5865 118.2861 0.0000 0.0000 0.0000
# 4 0.0000 0.0000 0.0000 42.3563 0.0000 0.0000
# 5 0.0000 0.0000 0.0000 0.0000 11.0146 0.0000
# 6 0.0000 0.0000 0.0000 0.0000 0.0000 20.9174
#
#
#
# Elastic Compliance Matrix: (Units=1/GPa)
#
#
# Indices 1 2 3 4 5 6 
#
# 1 0.010945 -0.001922 -0.002749 0.000000 0.000000 0.000000
# 2 -0.001922 0.009288 -0.004480 0.000000 0.000000 0.000000
# 3 -0.002749 -0.004480 0.011896 0.000000 0.000000 0.000000
# 4 0.000000 0.000000 0.000000 0.023609 0.000000 0.000000
# 5 0.000000 0.000000 0.000000 0.000000 0.090788 0.000000
# 6 0.000000 0.000000 0.000000 0.000000 0.000000 0.047807
#
#
# Mechanical properties :
#
#
# Convention : Reuss Voigt Hill
#
# Bulk Modulus (GPa) = 72.31497 74.89986 73.60742
# Shear Modulus (GPa) = 23.01563 29.94272 26.47918
#
# Velocity S-wave (km/s) = 3.43080 3.91318 3.67990
# Velocity P-wave (km/s) = 7.25785 7.66301 7.46318
#
# Compressibility (1/GPa) = 0.01382840
#
# Stress axis : x y z
#
# Youngs Moduli (GPa) = 91.36194 107.67081 84.06231
#
# Poissons Ratio (x) = 0.20690 0.23105
# Poissons Ratio (y) = 0.17556 0.37661
# Poissons Ratio (z) = 0.25111 0.48238
#
# Static dielectric constant tensor:
#      x y z
#    x 3.364110 0.000000 0.000000 
#    y 0.000000 3.600420 0.000000 
#    z 0.000000 0.000000 3.750460 
# 
# 
# High freq. dielectric constant tensor:
#      x y z
#    x 1.745080 0.000000 0.000000 
#    y 0.000000 1.758660 0.000000 
#    z 0.000000 0.000000 1.788250 
# 
# From -- ./inp_files/21052.got.cif
#   From: 2010.03.12/outbox.cif.g09.slc.cpg/sg65_11_cif.got.tgz:21052.got - 2010.04.10 20:52:16.
