data_PCOD8272046
_publ_section_title
;
Structure prediction by ZEFSAII (Michael W. Deem and Ramdas Pophale) SiO2 
 PCOD8272046
Probable space group: C M M M
;
_chemical_formula_sum "Si O2"
_cell_formula_units_Z 72
_cell_length_a 14.758279
_cell_length_b 8.821088
_cell_length_c 28.371457
_cell_angle_alpha 90.000000
_cell_angle_beta 90.000000
_cell_angle_gamma 90.000000
_cell_volume 3693.511965
_symmetry_space_group_name_H-M "C M M M"
_symmetry_group_IT_number 65
_symmetry_cell_setting 'orthorhombic'
loop_
_space_group_symop_operation_xyz
x,y,z
-x,-y,z
x,-y,-z
-x,y,-z
-x,-y,-z
x,y,-z
-x,y,z
x,-y,z
1/2+x,1/2+y,z
1/2-x,1/2-y,z
1/2+x,1/2-y,-z
1/2-x,1/2+y,-z
1/2-x,1/2-y,-z
1/2+x,1/2+y,-z
1/2-x,1/2+y,z
1/2+x,1/2-y,z
loop_
_atom_site_type_symbol
_atom_site_label
_atom_site_fract_x
_atom_site_fract_y
_atom_site_fract_z
Si Si1 0.000000 0.321103 0.447782
Si Si2 0.000000 0.176157 0.688263
Si Si3 0.659569 0.177199 0.854715
Si Si4 0.149323 0.680593 0.374228
Si Si5 0.500000 0.674447 0.799210
Si Si6 0.107129 0.171069 0.947400
O O1 0.908316 0.270802 0.420619
O O2 0.000000 0.500000 0.451760
O O3 0.000000 0.247034 0.500000
O O4 0.907924 0.255023 0.669724
O O5 0.000000 0.197912 0.743769
O O6 0.000000 0.000000 0.673477
O O7 0.750000 0.250000 0.834606
O O8 0.585103 0.246896 0.821708
O O9 0.649702 0.214443 0.910101
O O10 0.660301 0.000000 0.847990
O O11 0.157163 0.500000 0.369332
O O12 0.250000 0.750000 0.376554
O O13 0.500000 0.500000 0.813986
O O14 0.000000 0.179196 0.943240
O O15 0.140044 0.000000 0.936301
O O16 0.137925 0.219464 0.000000
#
# Coordination Sequence:
#
# PCOD8272046 Si02
#       6
#     8   8  16  16   8  16
#     4   8  16  32  53  81 119 162 205 246 290 339
#     4  10  22  40  63  86 111 147 190 240 297 352
#     4  12  25  40  61  88 117 152 189 231 281 340
#     4  10  20  35  58  86 119 157 197 245 293 343
#     4  11  24  44  65  86 115 147 184 238 295 348
#     4   9  18  35  60  86 115 151 187 228 278 332
#
# _framework density 19.493642000000001
#
# number of rings (size 3 to 8) (size 9 to 14) (size 15 to 20)
#    0.000    1.889    1.111    4.667    0.000    4.000 
#    0.000    1.111    0.000   11.333    0.000    0.000 
#    0.000    0.000    0.000    0.000    0.000    0.000 
#
# Total GULP energy -446340.649499 kJ/mol
# GULP energy per Si atom -12398.351375 kJ/mol
# Density = 1.944927 g / cm^3
# Si number density = 19.493642 Si / 1000 Ang^3
#
#
#
# Elastic Constant Matrix: (Units=GPa)
#
#
# Indices 1 2 3 4 5 6 
#
# 1 171.3494 78.1791 65.7874 0.0000 0.0000 0.0000
# 2 78.1791 150.3089 71.9719 0.0000 0.0000 0.0000
# 3 65.7874 71.9719 110.2226 0.0000 0.0000 0.0000
# 4 0.0000 0.0000 0.0000 27.5774 0.0000 0.0000
# 5 0.0000 0.0000 0.0000 0.0000 29.9114 0.0000
# 6 0.0000 0.0000 0.0000 0.0000 0.0000 36.1995
#
#
#
# Elastic Compliance Matrix: (Units=1/GPa)
#
#
# Indices 1 2 3 4 5 6 
#
# 1 0.008328 -0.002839 -0.003117 0.000000 0.000000 0.000000
# 2 -0.002839 0.010647 -0.005258 0.000000 0.000000 0.000000
# 3 -0.003117 -0.005258 0.014366 0.000000 0.000000 0.000000
# 4 0.000000 0.000000 0.000000 0.036262 0.000000 0.000000
# 5 0.000000 0.000000 0.000000 0.000000 0.033432 0.000000
# 6 0.000000 0.000000 0.000000 0.000000 0.000000 0.027625
#
#
# Mechanical properties :
#
#
# Convention : Reuss Voigt Hill
#
# Bulk Modulus (GPa) = 91.62649 95.97306 93.79978
# Shear Modulus (GPa) = 31.90303 33.13383 32.51843
#
# Velocity S-wave (km/s) = 4.04986 4.12724 4.08874
# Velocity P-wave (km/s) = 8.30505 8.48835 8.39720
#
# Compressibility (1/GPa) = 0.01091387
#
# Stress axis : x y z
#
# Youngs Moduli (GPa) = 120.07553 93.92107 69.60918
#
# Poissons Ratio (x) = 0.26666 0.21696
# Poissons Ratio (y) = 0.34092 0.36598
# Poissons Ratio (z) = 0.37425 0.49381
#
# Static dielectric constant tensor:
#      x y z
#    x 3.651870 0.000000 0.000000 
#    y 0.000000 3.586540 0.000000 
#    z 0.000000 0.000000 3.770340 
# 
# 
# High freq. dielectric constant tensor:
#      x y z
#    x 1.769300 0.000000 0.000000 
#    y 0.000000 1.759190 0.000000 
#    z 0.000000 0.000000 1.758220 
# 
# From -- ./inp_files/74646.got.cif
#   From: 2010.03.12/outbox.cif.g09.slc.cpg/sg65_38_cif.got.tgz:74646.got - 2010.04.10 20:52:16.
