data_PCOD8272560
_publ_section_title
;
Structure prediction by ZEFSAII (Michael W. Deem and Ramdas Pophale) SiO2 
 PCOD8272560
Probable space group: C M M M
;
_chemical_formula_sum "Si O2"
_cell_formula_units_Z 104
_cell_length_a 27.875335
_cell_length_b 14.344524
_cell_length_c 12.185866
_cell_angle_alpha 90.000000
_cell_angle_beta 90.000000
_cell_angle_gamma 90.000000
_cell_volume 4872.621027
_symmetry_space_group_name_H-M "C M M M"
_symmetry_group_IT_number 65
_symmetry_cell_setting 'orthorhombic'
loop_
_space_group_symop_operation_xyz
x,y,z
-x,-y,z
x,-y,-z
-x,y,-z
-x,-y,-z
x,y,-z
-x,y,z
x,-y,z
1/2+x,1/2+y,z
1/2-x,1/2-y,z
1/2+x,1/2-y,-z
1/2-x,1/2+y,-z
1/2-x,1/2-y,-z
1/2+x,1/2+y,-z
1/2-x,1/2+y,z
1/2+x,1/2-y,z
loop_
_atom_site_type_symbol
_atom_site_label
_atom_site_fract_x
_atom_site_fract_y
_atom_site_fract_z
Si Si1 0.723263 0.111408 0.624779
Si Si2 0.500000 0.390829 0.119166
Si Si3 0.085203 0.109835 0.277228
Si Si4 0.845585 0.397774 0.000000
Si Si5 0.691471 0.606807 0.229168
Si Si6 0.738490 0.356999 0.000000
Si Si7 0.555356 0.786055 0.622021
Si Si8 0.131671 0.388342 0.238032
O O1 0.722075 0.148923 0.500000
O O2 0.770411 0.153350 0.686278
O O3 0.676797 0.147587 0.690573
O O4 0.724024 0.000000 0.626846
O O5 0.500000 0.500000 0.103810
O O6 0.451312 0.362481 0.180523
O O7 0.500000 0.341499 0.000000
O O8 0.137881 0.146276 0.242347
O O9 0.069611 0.176040 0.377666
O O10 0.082346 0.000000 0.308986
O O11 0.862268 0.348136 0.886733
O O12 0.868832 0.500000 0.000000
O O13 0.788218 0.411912 0.000000
O O14 0.688546 0.500000 0.262381
O O15 0.707304 0.616653 0.104477
O O16 0.750000 0.250000 0.000000
O O17 0.566181 0.824080 0.500000
O O18 0.500000 0.798182 0.652073
O O19 0.583600 0.847071 0.710754
O O20 0.129391 0.500000 0.238178
#
# Coordination Sequence:
#
# PCOD8272560 Si02
#       8
#    16   8  16   8  16   8  16  16
#     4   9  17  32  57  87 117 153 197 242 295 359
#     4   9  18  36  59  85 116 155 207 260 312 368
#     4  10  22  40  62  89 123 164 210 261 313 367
#     4  10  20  40  67  89 122 170 210 248 303 374
#     4  10  21  36  57  85 121 160 202 250 304 363
#     4  12  24  34  54  89 130 169 205 253 301 363
#     4  11  25  44  65  91 123 161 210 264 315 376
#     4  10  21  40  66  94 124 161 202 252 314 378
#
# _framework density 21.343748999999999
#
# number of rings (size 3 to 8) (size 9 to 14) (size 15 to 20)
#    0.000    1.923    2.308    1.154    3.231    2.154 
#    1.385    3.462    0.000    3.692    0.000    0.000 
#    0.000    0.000    0.000    0.000    0.000    0.000 
#
# Total GULP energy -644592.234855 kJ/mol
# GULP energy per Si atom -12396.004516 kJ/mol
# Density = 2.129517 g / cm^3
# Si number density = 21.343749 Si / 1000 Ang^3
#
#
#
# Elastic Constant Matrix: (Units=GPa)
#
#
# Indices 1 2 3 4 5 6 
#
# 1 180.3097 25.2242 96.9131 0.0000 0.0000 0.0000
# 2 25.2242 29.1725 17.5539 0.0000 0.0000 0.0000
# 3 96.9131 17.5539 180.1597 0.0000 0.0000 0.0000
# 4 0.0000 0.0000 0.0000 16.5517 0.0000 0.0000
# 5 0.0000 0.0000 0.0000 0.0000 31.1283 0.0000
# 6 0.0000 0.0000 0.0000 0.0000 0.0000 27.9152
#
#
#
# Elastic Compliance Matrix: (Units=1/GPa)
#
#
# Indices 1 2 3 4 5 6 
#
# 1 0.008396 -0.004825 -0.004046 0.000000 0.000000 0.000000
# 2 -0.004825 0.039186 -0.001223 0.000000 0.000000 0.000000
# 3 -0.004046 -0.001223 0.007846 0.000000 0.000000 0.000000
# 4 0.000000 0.000000 0.000000 0.060417 0.000000 0.000000
# 5 0.000000 0.000000 0.000000 0.000000 0.032125 0.000000
# 6 0.000000 0.000000 0.000000 0.000000 0.000000 0.035823
#
#
# Mechanical properties :
#
#
# Convention : Reuss Voigt Hill
#
# Bulk Modulus (GPa) = 28.37604 74.33602 51.35603
# Shear Modulus (GPa) = 23.17741 31.78242 27.47992
#
# Velocity S-wave (km/s) = 3.29889 3.86304 3.59206
# Velocity P-wave (km/s) = 5.27578 7.40277 6.42787
#
# Compressibility (1/GPa) = 0.03524100
#
# Stress axis : x y z
#
# Youngs Moduli (GPa) = 119.10844 25.51913 127.44797
#
# Poissons Ratio (x) = 0.12312 0.51568
# Poissons Ratio (y) = 0.57466 0.15584
# Poissons Ratio (z) = 0.48194 0.03120
#
# Static dielectric constant tensor:
#      x y z
#    x 3.939360 0.000000 0.000000 
#    y 0.000000 3.563650 0.000000 
#    z 0.000000 0.000000 4.048320 
# 
# 
# High freq. dielectric constant tensor:
#      x y z
#    x 1.841320 0.000000 0.000000 
#    y 0.000000 1.821700 0.000000 
#    z 0.000000 0.000000 1.839850 
# 
# From -- ./inp_files/32608.got.cif
#   From: 2010.03.12/outbox.cif.g09.slc.cpg/sg65_17_cif.got.tgz:32608.got - 2010.04.10 20:52:16.
