data_PCOD8272210
_publ_section_title
;
Structure prediction by ZEFSAII (Michael W. Deem and Ramdas Pophale) SiO2 
 PCOD8272210
Probable space group: C M M M
;
_chemical_formula_sum "Si O2"
_cell_formula_units_Z 104
_cell_length_a 8.964353
_cell_length_b 18.998757
_cell_length_c 32.822666
_cell_angle_alpha 90.000000
_cell_angle_beta 90.000000
_cell_angle_gamma 90.000000
_cell_volume 5590.079591
_symmetry_space_group_name_H-M "C M M M"
_symmetry_group_IT_number 65
_symmetry_cell_setting 'orthorhombic'
loop_
_space_group_symop_operation_xyz
x,y,z
-x,-y,z
x,-y,-z
-x,y,-z
-x,-y,-z
x,y,-z
-x,y,z
x,-y,z
1/2+x,1/2+y,z
1/2-x,1/2-y,z
1/2+x,1/2-y,-z
1/2-x,1/2+y,-z
1/2-x,1/2-y,-z
1/2+x,1/2+y,-z
1/2-x,1/2+y,z
1/2+x,1/2-y,z
loop_
_atom_site_type_symbol
_atom_site_label
_atom_site_fract_x
_atom_site_fract_y
_atom_site_fract_z
Si Si1 0.174415 0.821671 0.840967
Si Si2 0.176267 0.674179 0.387831
Si Si3 0.328267 0.580224 0.452568
Si Si4 0.823296 0.175995 0.933655
Si Si5 0.325634 0.082917 0.000000
Si Si6 0.324640 0.420017 0.230588
Si Si7 0.824128 0.419734 0.312364
O O1 0.250000 0.750000 0.827426
O O2 0.217137 0.842799 0.887020
O O3 0.232336 0.880660 0.809830
O O4 0.000000 0.810290 0.837178
O O5 0.250000 0.750000 0.385551
O O6 0.223963 0.633954 0.428600
O O7 0.231804 0.628403 0.349415
O O8 0.000000 0.683508 0.388112
O O9 0.302473 0.594855 0.500000
O O10 0.500000 0.593587 0.440798
O O11 0.283226 0.500000 0.441894
O O12 0.750000 0.250000 0.946514
O O13 0.000000 0.180465 0.941221
O O14 0.752262 0.114191 0.960055
O O15 0.500000 0.101892 0.000000
O O16 0.298243 0.000000 0.000000
O O17 0.500000 0.411864 0.236336
O O18 0.274794 0.500000 0.224406
O O19 0.247483 0.389049 0.271007
O O20 0.770351 0.500000 0.320304
O O21 0.000000 0.416313 0.307692
#
# Coordination Sequence:
#
# PCOD8272210 Si02
#       7
#    16  16  16  16   8  16  16
#     4   9  19  34  53  78 106 136 171 212 255 304
#     4  11  23  37  54  78 109 143 179 221 267 314
#     4   9  19  37  60  84 109 138 174 216 262 315
#     4  10  20  36  58  80 105 140 179 217 260 313
#     4  11  24  39  54  77 109 139 172 219 268 313
#     4   9  18  33  53  77 104 135 172 213 258 307
#     4   9  19  36  55  75 101 135 176 219 262 311
#
# _framework density 18.604386999999999
#
# number of rings (size 3 to 8) (size 9 to 14) (size 15 to 20)
#    0.000    2.385    0.000    2.308    0.000    5.846 
#    0.000    6.923    0.000    1.846    0.000    0.000 
#    0.000    0.000    0.000    0.000    0.000    0.000 
#
# Total GULP energy -644905.200232 kJ/mol
# GULP energy per Si atom -12402.023081 kJ/mol
# Density = 1.856204 g / cm^3
# Si number density = 18.604387 Si / 1000 Ang^3
#
#
#
# Elastic Constant Matrix: (Units=GPa)
#
#
# Indices 1 2 3 4 5 6 
#
# 1 60.3212 49.9226 46.8023 0.0000 0.0000 0.0000
# 2 49.9226 119.9101 81.0827 0.0000 0.0000 0.0000
# 3 46.8023 81.0827 128.8278 0.0000 0.0000 0.0000
# 4 0.0000 0.0000 0.0000 -34.6538 0.0000 0.0000
# 5 0.0000 0.0000 0.0000 0.0000 32.5386 0.0000
# 6 0.0000 0.0000 0.0000 0.0000 0.0000 25.4769
#
#
#
# Elastic Compliance Matrix: (Units=1/GPa)
#
#
# Indices 1 2 3 4 5 6 
#
# 1 0.026855 -0.007979 -0.004734 0.000000 0.000000 0.000000
# 2 -0.007979 0.016889 -0.007731 0.000000 0.000000 0.000000
# 3 -0.004734 -0.007731 0.014348 0.000000 0.000000 0.000000
# 4 0.000000 0.000000 0.000000 -0.028857 0.000000 0.000000
# 5 0.000000 0.000000 0.000000 0.000000 0.030733 0.000000
# 6 0.000000 0.000000 0.000000 0.000000 0.000000 0.039251
#
#
# Mechanical properties :
#
#
# Convention : Reuss Voigt Hill
#
# Bulk Modulus (GPa) = 58.12897 73.85269 65.99083
# Shear Modulus (GPa) = 34.28338 13.42242 23.85290
#
# Velocity S-wave (km/s) = 4.29739 2.68893 3.58454
# Velocity P-wave (km/s) = 7.47904 7.03015 7.25807
#
# Compressibility (1/GPa) = 0.01720313
#
# Stress axis : x y z
#
# Youngs Moduli (GPa) = 37.23715 59.20846 69.69600
#
# Poissons Ratio (x) = 0.47245 0.32994
# Poissons Ratio (y) = 0.29713 0.53883
# Poissons Ratio (z) = 0.17628 0.45775
#
# Static dielectric constant tensor:
#      x y z
#    x 3.370730 0.000000 0.000000 
#    y 0.000000 3.570270 0.000000 
#    z 0.000000 0.000000 3.622320 
# 
# 
# High freq. dielectric constant tensor:
#      x y z
#    x 1.721140 0.000000 0.000000 
#    y 0.000000 1.717910 0.000000 
#    z 0.000000 0.000000 1.733790 
# 
# From -- ./inp_files/76893.got.cif
#   From: 2010.03.12/outbox.cif.g09.slc.cpg/sg65_39_cif.got.tgz:76893.got - 2010.04.10 20:52:16.
