data_PCOD8272341
_publ_section_title
;
Structure prediction by ZEFSAII (Michael W. Deem and Ramdas Pophale) SiO2 
 PCOD8272341
Probable space group: C M M M
;
_chemical_formula_sum "Si O2"
_cell_formula_units_Z 64
_cell_length_a 33.686027
_cell_length_b 9.227070
_cell_length_c 9.980181
_cell_angle_alpha 90.000000
_cell_angle_beta 90.000000
_cell_angle_gamma 90.000000
_cell_volume 3102.073084
_symmetry_space_group_name_H-M "C M M M"
_symmetry_group_IT_number 65
_symmetry_cell_setting 'orthorhombic'
loop_
_space_group_symop_operation_xyz
x,y,z
-x,-y,z
x,-y,-z
-x,y,-z
-x,-y,-z
x,y,-z
-x,y,z
x,-y,z
1/2+x,1/2+y,z
1/2-x,1/2-y,z
1/2+x,1/2-y,-z
1/2-x,1/2+y,-z
1/2-x,1/2-y,-z
1/2+x,1/2+y,-z
1/2-x,1/2+y,z
1/2+x,1/2-y,z
loop_
_atom_site_type_symbol
_atom_site_label
_atom_site_fract_x
_atom_site_fract_y
_atom_site_fract_z
Si Si1 0.071510 0.330818 0.154978
Si Si2 0.349510 0.669394 0.236001
Si Si3 0.785942 0.658977 0.348958
Si Si4 0.710163 0.335966 0.000000
Si Si5 0.000000 0.671091 0.653808
O O1 0.081424 0.500000 0.175597
O O2 0.108881 0.233598 0.190841
O O3 0.037920 0.278342 0.259616
O O4 0.058418 0.303214 0.000000
O O5 0.355064 0.500000 0.268875
O O6 0.328732 0.757442 0.356334
O O7 0.317005 0.703291 0.124679
O O8 0.772506 0.632417 0.500000
O O9 0.789783 0.500000 0.278613
O O10 0.750000 0.750000 0.277650
O O11 0.750000 0.250000 0.000000
O O12 0.723022 0.500000 0.000000
O O13 0.000000 0.500000 0.643149
O O14 0.000000 0.735167 0.500000
#
# Coordination Sequence:
#
# PCOD8272341 Si02
#       5
#    16  16  16   8   8
#     4  10  20  36  60  88 118 155 198 245 299 365
#     4  11  22  37  56  82 116 153 196 243 294 351
#     4  10  21  37  56  80 112 152 199 247 297 354
#     4  10  22  36  52  77 112 151 191 238 287 336
#     4   9  19  37  62  91 120 150 192 249 308 363
#
# _framework density 20.631363
#
# number of rings (size 3 to 8) (size 9 to 14) (size 15 to 20)
#    0.000    1.875    1.250    2.625    0.000    8.000 
#    0.000    3.125    0.000    2.250    0.000    0.000 
#    0.000    0.000    0.000    0.000    0.000    0.000 
#
# Total GULP energy -396521.935417 kJ/mol
# GULP energy per Si atom -12391.310482 kJ/mol
# Density = 2.058441 g / cm^3
# Si number density = 20.631363 Si / 1000 Ang^3
#
#
#
# Elastic Constant Matrix: (Units=GPa)
#
#
# Indices 1 2 3 4 5 6 
#
# 1 164.6034 80.2121 59.9032 0.0000 0.0000 0.0000
# 2 80.2121 132.5397 38.3029 0.0000 0.0000 0.0000
# 3 59.9032 38.3029 88.5857 0.0000 0.0000 0.0000
# 4 0.0000 0.0000 0.0000 7.2345 0.0000 0.0000
# 5 0.0000 0.0000 0.0000 0.0000 31.5418 0.0000
# 6 0.0000 0.0000 0.0000 0.0000 0.0000 34.8169
#
#
#
# Elastic Compliance Matrix: (Units=1/GPa)
#
#
# Indices 1 2 3 4 5 6 
#
# 1 0.010136 -0.004746 -0.004802 0.000000 0.000000 0.000000
# 2 -0.004746 0.010845 -0.001480 0.000000 0.000000 0.000000
# 3 -0.004802 -0.001480 0.015175 0.000000 0.000000 0.000000
# 4 0.000000 0.000000 0.000000 0.138227 0.000000 0.000000
# 5 0.000000 0.000000 0.000000 0.000000 0.031704 0.000000
# 6 0.000000 0.000000 0.000000 0.000000 0.000000 0.028722
#
#
# Mechanical properties :
#
#
# Convention : Reuss Voigt Hill
#
# Bulk Modulus (GPa) = 70.91901 82.50723 76.71312
# Shear Modulus (GPa) = 19.11580 28.53934 23.82757
#
# Velocity S-wave (km/s) = 3.04722 3.72331 3.40210
# Velocity P-wave (km/s) = 6.84322 7.65258 7.25919
#
# Compressibility (1/GPa) = 0.01410059
#
# Stress axis : x y z
#
# Youngs Moduli (GPa) = 98.66267 92.20872 65.89705
#
# Poissons Ratio (x) = 0.43765 0.31641
# Poissons Ratio (y) = 0.46829 0.09750
# Poissons Ratio (z) = 0.47374 0.13643
#
# Static dielectric constant tensor:
#      x y z
#    x 3.673010 0.000000 0.000000 
#    y 0.000000 3.809250 0.000000 
#    z 0.000000 0.000000 4.244080 
# 
# 
# High freq. dielectric constant tensor:
#      x y z
#    x 1.806320 0.000000 0.000000 
#    y 0.000000 1.798730 0.000000 
#    z 0.000000 0.000000 1.809820 
# 
# From -- ./inp_files/33245.got.cif
#   From: 2010.03.12/outbox.cif.g09.slc.cpg/sg65_17_cif.got.tgz:33245.got - 2010.04.10 20:52:16.
