data_PCOD8272752
_publ_section_title
;
Structure prediction by ZEFSAII (Michael W. Deem and Ramdas Pophale) SiO2 
 PCOD8272752
Probable space group: C M M M
;
_chemical_formula_sum "Si O2"
_cell_formula_units_Z 88
_cell_length_a 19.483836
_cell_length_b 9.472834
_cell_length_c 27.870741
_cell_angle_alpha 90.000000
_cell_angle_beta 90.000000
_cell_angle_gamma 90.000000
_cell_volume 5144.023071
_symmetry_space_group_name_H-M "C M M M"
_symmetry_group_IT_number 65
_symmetry_cell_setting 'orthorhombic'
loop_
_space_group_symop_operation_xyz
x,y,z
-x,-y,z
x,-y,-z
-x,y,-z
-x,-y,-z
x,y,-z
-x,y,z
x,-y,z
1/2+x,1/2+y,z
1/2-x,1/2-y,z
1/2+x,1/2-y,-z
1/2-x,1/2+y,-z
1/2-x,1/2-y,-z
1/2+x,1/2+y,-z
1/2-x,1/2+y,z
1/2+x,1/2-y,z
loop_
_atom_site_type_symbol
_atom_site_label
_atom_site_fract_x
_atom_site_fract_y
_atom_site_fract_z
Si Si1 0.578629 0.664818 0.586497
Si Si2 0.317658 0.165079 0.130521
Si Si3 0.317025 0.836680 0.760637
Si Si4 0.078404 0.663354 0.320380
Si Si5 0.821678 0.166151 0.500000
Si Si6 0.923822 0.332548 0.053037
O O1 0.500000 0.703784 0.571540
O O2 0.583881 0.500000 0.597624
O O3 0.601943 0.747772 0.633734
O O4 0.632037 0.709327 0.545460
O O5 0.250000 0.250000 0.117837
O O6 0.341295 0.194867 0.185067
O O7 0.375067 0.226650 0.094719
O O8 0.303602 0.000000 0.122018
O O9 0.250000 0.750000 0.746562
O O10 0.377885 0.789318 0.725571
O O11 0.298475 0.000000 0.754098
O O12 0.089872 0.500000 0.333006
O O13 0.000000 0.695729 0.307076
O O14 0.750000 0.250000 0.500000
O O15 0.805077 0.000000 0.500000
O O16 0.926506 0.500000 0.056333
O O17 0.000000 0.270958 0.061567
O O18 0.897274 0.286842 0.000000
#
# Coordination Sequence:
#
# PCOD8272752 Si02
#       6
#    16  16  16  16   8  16
#     4   9  18  34  54  72  92 122 157 188 221 265
#     4   9  17  29  45  65  89 118 151 185 223 268
#     4   9  18  31  46  65  91 122 152 184 224 269
#     4   9  18  32  49  70  94 118 149 190 230 266
#     4  10  21  35  51  73  99 124 152 188 226 266
#     4   8  14  25  42  65  90 114 145 187 229 267
#
# _framework density 17.107232
#
# number of rings (size 3 to 8) (size 9 to 14) (size 15 to 20)
#    0.000    3.091    0.000    0.818    0.000    4.364 
#    0.000    7.273    0.000    3.273    0.000    6.364 
#    0.000    0.000    0.000    0.000    0.000    0.000 
#
# Total GULP energy -545481.371270 kJ/mol
# GULP energy per Si atom -12397.303893 kJ/mol
# Density = 1.706830 g / cm^3
# Si number density = 17.107232 Si / 1000 Ang^3
#
#
#
# Elastic Constant Matrix: (Units=GPa)
#
#
# Indices 1 2 3 4 5 6 
#
# 1 125.9825 44.2869 107.3850 0.0000 0.0000 0.0000
# 2 44.2869 35.1361 48.1436 0.0000 0.0000 0.0000
# 3 107.3850 48.1436 154.5496 0.0000 0.0000 0.0000
# 4 0.0000 0.0000 0.0000 19.1769 0.0000 0.0000
# 5 0.0000 0.0000 0.0000 0.0000 34.0329 0.0000
# 6 0.0000 0.0000 0.0000 0.0000 0.0000 26.8409
#
#
#
# Elastic Compliance Matrix: (Units=1/GPa)
#
#
# Indices 1 2 3 4 5 6 
#
# 1 0.021959 -0.011815 -0.011577 0.000000 0.000000 0.000000
# 2 -0.011815 0.056012 -0.009239 0.000000 0.000000 0.000000
# 3 -0.011577 -0.009239 0.017393 0.000000 0.000000 0.000000
# 4 0.000000 0.000000 0.000000 0.052146 0.000000 0.000000
# 5 0.000000 0.000000 0.000000 0.000000 0.029383 0.000000
# 6 0.000000 0.000000 0.000000 0.000000 0.000000 0.037257
#
#
# Mechanical properties :
#
#
# Convention : Reuss Voigt Hill
#
# Bulk Modulus (GPa) = 33.22101 79.47769 56.34935
# Shear Modulus (GPa) = 17.27435 23.73365 20.50400
#
# Velocity S-wave (km/s) = 3.18113 3.72875 3.46577
# Velocity P-wave (km/s) = 5.74058 8.06830 7.00185
#
# Compressibility (1/GPa) = 0.03010143
#
# Stress axis : x y z
#
# Youngs Moduli (GPa) = 45.53875 17.85333 57.49530
#
# Poissons Ratio (x) = 0.21094 0.66565
# Poissons Ratio (y) = 0.53804 0.53119
# Poissons Ratio (z) = 0.52722 0.16495
#
# Static dielectric constant tensor:
#      x y z
#    x 3.303010 0.000000 0.000000 
#    y 0.000000 2.982070 0.000000 
#    z 0.000000 0.000000 3.393700 
# 
# 
# High freq. dielectric constant tensor:
#      x y z
#    x 1.658220 0.000000 0.000000 
#    y 0.000000 1.635870 0.000000 
#    z 0.000000 0.000000 1.669090 
# 
# From -- ./inp_files/61476.got.cif
#   From: 2010.03.12/outbox.cif.g09.slc.cpg/sg65_31_cif.got.tgz:61476.got - 2010.04.10 20:52:16.
