data_PCOD8272257
_publ_section_title
;
Structure prediction by ZEFSAII (Michael W. Deem and Ramdas Pophale) SiO2 
 PCOD8272257
Probable space group: C M M M
;
_chemical_formula_sum "Si O2"
_cell_formula_units_Z 60
_cell_length_a 9.688602
_cell_length_b 16.853008
_cell_length_c 19.556568
_cell_angle_alpha 90.000000
_cell_angle_beta 90.000000
_cell_angle_gamma 90.000000
_cell_volume 3193.237238
_symmetry_space_group_name_H-M "C M M M"
_symmetry_group_IT_number 65
_symmetry_cell_setting 'orthorhombic'
loop_
_space_group_symop_operation_xyz
x,y,z
-x,-y,z
x,-y,-z
-x,y,-z
-x,-y,-z
x,y,-z
-x,y,z
x,-y,z
1/2+x,1/2+y,z
1/2-x,1/2-y,z
1/2+x,1/2-y,-z
1/2-x,1/2+y,-z
1/2-x,1/2-y,-z
1/2+x,1/2+y,-z
1/2-x,1/2+y,z
1/2+x,1/2-y,z
loop_
_atom_site_type_symbol
_atom_site_label
_atom_site_fract_x
_atom_site_fract_y
_atom_site_fract_z
Si Si1 0.230461 0.500000 0.424086
Si Si2 0.000000 0.593232 0.075228
Si Si3 0.500000 0.184924 0.278308
Si Si4 0.000000 0.862561 0.773330
Si Si5 0.000000 0.000000 0.333773
Si Si6 0.292147 0.906363 0.811064
Si Si7 0.000000 0.628425 0.577016
O O1 0.291481 0.500000 0.500000
O O2 0.359960 0.500000 0.375284
O O3 0.136988 0.423022 0.412797
O O4 0.134931 0.618889 0.118032
O O5 0.000000 0.500000 0.065375
O O6 0.000000 0.634091 0.000000
O O7 0.500000 0.272799 0.250156
O O8 0.364025 0.138376 0.252458
O O9 0.500000 0.191913 0.361226
O O10 0.134196 0.880035 0.819134
O O11 0.000000 0.920047 0.709047
O O12 0.306027 0.000000 0.796743
O O13 0.000000 0.666774 0.500000
#
# Coordination Sequence:
#
# PCOD8272257 Si02
#       7
#     8   8   8   8   4  16   8
#     4   9  19  33  53  77 101 138 182 228 280 335
#     4   8  16  33  60  88 113 148 191 225 263 324
#     4  11  22  35  58  82 109 148 191 233 281 331
#     4  12  23  35  52  85 116 144 181 235 286 325
#     4  12  21  34  54  70 113 146 176 222 284 356
#     4  10  20  36  58  84 115 148 184 230 275 331
#     4   9  19  35  55  78 104 139 191 238 272 325
#
# _framework density 18.789709999999999
#
# number of rings (size 3 to 8) (size 9 to 14) (size 15 to 20)
#    0.000    2.000    1.333    4.600    3.733    0.000 
#    0.000    2.000    0.000   22.400    0.000    0.000 
#    0.000    0.000    0.000    0.000    0.000    0.000 
#
# Total GULP energy -371897.759142 kJ/mol
# GULP energy per Si atom -12396.591971 kJ/mol
# Density = 1.874694 g / cm^3
# Si number density = 18.789710 Si / 1000 Ang^3
#
#
#
# Elastic Constant Matrix: (Units=GPa)
#
#
# Indices 1 2 3 4 5 6 
#
# 1 173.3749 35.1612 72.7087 0.0000 0.0000 0.0000
# 2 35.1612 97.6835 39.0600 0.0000 0.0000 0.0000
# 3 72.7087 39.0600 151.4686 0.0000 0.0000 0.0000
# 4 0.0000 0.0000 0.0000 15.3197 0.0000 0.0000
# 5 0.0000 0.0000 0.0000 0.0000 16.9269 0.0000
# 6 0.0000 0.0000 0.0000 0.0000 0.0000 26.4158
#
#
#
# Elastic Compliance Matrix: (Units=1/GPa)
#
#
# Indices 1 2 3 4 5 6 
#
# 1 0.007386 -0.001383 -0.003189 0.000000 0.000000 0.000000
# 2 -0.001383 0.011673 -0.002346 0.000000 0.000000 0.000000
# 3 -0.003189 -0.002346 0.008738 0.000000 0.000000 0.000000
# 4 0.000000 0.000000 0.000000 0.065276 0.000000 0.000000
# 5 0.000000 0.000000 0.000000 0.000000 0.059077 0.000000
# 6 0.000000 0.000000 0.000000 0.000000 0.000000 0.037856
#
#
# Mechanical properties :
#
#
# Convention : Reuss Voigt Hill
#
# Bulk Modulus (GPa) = 71.63219 79.59854 75.61536
# Shear Modulus (GPa) = 23.98136 30.10562 27.04349
#
# Velocity S-wave (km/s) = 3.57641 4.00714 3.79789
# Velocity P-wave (km/s) = 7.43372 7.99152 7.71766
#
# Compressibility (1/GPa) = 0.01396021
#
# Stress axis : x y z
#
# Youngs Moduli (GPa) = 135.39873 85.66587 114.44791
#
# Poissons Ratio (x) = 0.11852 0.36492
# Poissons Ratio (y) = 0.18732 0.26851
# Poissons Ratio (z) = 0.43172 0.20098
#
# Static dielectric constant tensor:
#      x y z
#    x 3.696770 0.000000 0.000000 
#    y 0.000000 3.229720 0.000000 
#    z 0.000000 0.000000 3.649780 
# 
# 
# High freq. dielectric constant tensor:
#      x y z
#    x 1.741360 0.000000 0.000000 
#    y 0.000000 1.706020 0.000000 
#    z 0.000000 0.000000 1.724070 
# 
# From -- ./inp_files/58933.got.cif
#   From: 2010.03.12/outbox.cif.g09.slc.cpg/sg65_30_cif.got.tgz:58933.got - 2010.04.10 20:52:16.
