data_PCOD8272738
_publ_section_title
;
Structure prediction by ZEFSAII (Michael W. Deem and Ramdas Pophale) SiO2 
 PCOD8272738
Probable space group: C M M M
;
_chemical_formula_sum "Si O2"
_cell_formula_units_Z 88
_cell_length_a 19.010056
_cell_length_b 9.056950
_cell_length_c 28.873745
_cell_angle_alpha 90.000000
_cell_angle_beta 90.000000
_cell_angle_gamma 90.000000
_cell_volume 4971.282956
_symmetry_space_group_name_H-M "C M M M"
_symmetry_group_IT_number 65
_symmetry_cell_setting 'orthorhombic'
loop_
_space_group_symop_operation_xyz
x,y,z
-x,-y,z
x,-y,-z
-x,y,-z
-x,-y,-z
x,y,-z
-x,y,z
x,-y,z
1/2+x,1/2+y,z
1/2-x,1/2-y,z
1/2+x,1/2-y,-z
1/2-x,1/2+y,-z
1/2-x,1/2-y,-z
1/2+x,1/2+y,-z
1/2-x,1/2+y,z
1/2+x,1/2-y,z
loop_
_atom_site_type_symbol
_atom_site_label
_atom_site_fract_x
_atom_site_fract_y
_atom_site_fract_z
Si Si1 0.325189 0.672493 0.363706
Si Si2 0.419881 0.673824 0.820933
Si Si3 0.174492 0.325216 0.000000
Si Si4 0.919507 0.673763 0.913994
Si Si5 0.674579 0.827521 0.550358
Si Si6 0.176021 0.171959 0.737989
O O1 0.317797 0.500000 0.374473
O O2 0.250000 0.750000 0.361733
O O3 0.367780 0.750448 0.406578
O O4 0.359262 0.699565 0.312915
O O5 0.500000 0.720912 0.812195
O O6 0.411794 0.500000 0.827072
O O7 0.391092 0.749808 0.867414
O O8 0.376645 0.733246 0.776878
O O9 0.250000 0.250000 0.000000
O O10 0.130382 0.272543 0.044561
O O11 0.184712 0.500000 0.000000
O O12 0.914662 0.500000 0.907101
O O13 0.000000 0.721524 0.924848
O O14 0.637020 0.804083 0.500000
O O15 0.750000 0.750000 0.548106
O O16 0.683636 0.000000 0.560812
O O17 0.250000 0.250000 0.743933
O O18 0.190262 0.000000 0.744975
#
# Coordination Sequence:
#
# PCOD8272738 Si02
#       6
#    16  16   8  16  16  16
#     4   9  15  23  35  51  74 104 138 173 210 256
#     4   9  18  33  51  70  93 120 151 188 227 266
#     4  10  21  35  51  73 101 128 152 186 228 266
#     4   9  18  34  54  72  91 120 157 190 222 263
#     4   9  15  21  30  46  70 101 136 172 211 255
#     4   9  18  30  44  64  89 118 149 181 222 269
#
# _framework density 17.701668000000002
#
# number of rings (size 3 to 8) (size 9 to 14) (size 15 to 20)
#    0.000    2.909    0.000    2.455    0.000    5.091 
#    0.000    3.636    0.000    2.727    0.000    0.000 
#    0.000    0.727    0.000    9.091    0.000    4.909 
#
# Total GULP energy -545143.971049 kJ/mol
# GULP energy per Si atom -12389.635706 kJ/mol
# Density = 1.766138 g / cm^3
# Si number density = 17.701668 Si / 1000 Ang^3
#
#
#
# Elastic Constant Matrix: (Units=GPa)
#
#
# Indices 1 2 3 4 5 6 
#
# 1 55.1902 24.8255 66.3401 0.0000 0.0000 0.0000
# 2 24.8255 65.0994 62.4924 0.0000 0.0000 0.0000
# 3 66.3401 62.4924 212.0152 0.0000 0.0000 0.0000
# 4 0.0000 0.0000 0.0000 33.5098 0.0000 0.0000
# 5 0.0000 0.0000 0.0000 0.0000 7.5000 0.0000
# 6 0.0000 0.0000 0.0000 0.0000 0.0000 17.1645
#
#
#
# Elastic Compliance Matrix: (Units=1/GPa)
#
#
# Indices 1 2 3 4 5 6 
#
# 1 0.029553 -0.003337 -0.008264 0.000000 0.000000 0.000000
# 2 -0.003337 0.021800 -0.005381 0.000000 0.000000 0.000000
# 3 -0.008264 -0.005381 0.008888 0.000000 0.000000 0.000000
# 4 0.000000 0.000000 0.000000 0.029842 0.000000 0.000000
# 5 0.000000 0.000000 0.000000 0.000000 0.133334 0.000000
# 6 0.000000 0.000000 0.000000 0.000000 0.000000 0.058260
#
#
# Mechanical properties :
#
#
# Convention : Reuss Voigt Hill
#
# Bulk Modulus (GPa) = 38.05620 71.06899 54.56260
# Shear Modulus (GPa) = 15.41302 23.54463 19.47883
#
# Velocity S-wave (km/s) = 2.95398 3.65098 3.32082
# Velocity P-wave (km/s) = 5.76021 7.61631 6.75234
#
# Compressibility (1/GPa) = 0.02627693
#
# Stress axis : x y z
#
# Youngs Moduli (GPa) = 33.83695 45.87243 112.50507
#
# Poissons Ratio (x) = 0.15310 0.92970
# Poissons Ratio (y) = 0.11293 0.60541
# Poissons Ratio (z) = 0.27962 0.24685
#
# Static dielectric constant tensor:
#      x y z
#    x 2.843280 0.000000 0.000000 
#    y 0.000000 3.282840 0.000000 
#    z 0.000000 0.000000 4.417990 
# 
# 
# High freq. dielectric constant tensor:
#      x y z
#    x 1.620550 0.000000 0.000000 
#    y 0.000000 1.686010 0.000000 
#    z 0.000000 0.000000 1.716590 
# 
# From -- ./inp_files/77968.got.cif
#   From: 2010.03.12/outbox.cif.g09.slc.cpg/sg65_39_cif.got.tgz:77968.got - 2010.04.10 20:52:16.
