data_PCOD8272810
_publ_section_title
;
Structure prediction by ZEFSAII (Michael W. Deem and Ramdas Pophale) SiO2 
 PCOD8272810
Probable space group: C M M M
;
_chemical_formula_sum "Si O2"
_cell_formula_units_Z 72
_cell_length_a 16.200607
_cell_length_b 18.021225
_cell_length_c 11.817364
_cell_angle_alpha 90.000000
_cell_angle_beta 90.000000
_cell_angle_gamma 90.000000
_cell_volume 3450.135953
_symmetry_space_group_name_H-M "C M M M"
_symmetry_group_IT_number 65
_symmetry_cell_setting 'orthorhombic'
loop_
_space_group_symop_operation_xyz
x,y,z
-x,-y,z
x,-y,-z
-x,y,-z
-x,-y,-z
x,y,-z
-x,y,z
x,-y,z
1/2+x,1/2+y,z
1/2-x,1/2-y,z
1/2+x,1/2-y,-z
1/2-x,1/2+y,-z
1/2-x,1/2-y,-z
1/2+x,1/2+y,-z
1/2-x,1/2+y,z
1/2+x,1/2-y,z
loop_
_atom_site_type_symbol
_atom_site_label
_atom_site_fract_x
_atom_site_fract_y
_atom_site_fract_z
Si Si1 0.902043 0.000000 0.368555
Si Si2 0.644369 0.086275 0.000000
Si Si3 0.401524 0.783256 0.625182
Si Si4 0.901870 0.854915 0.228777
Si Si5 0.697367 0.672556 0.000000
Si Si6 0.405394 0.918350 0.238783
O O1 0.872083 0.071385 0.295861
O O2 0.868243 0.000000 0.500000
O O3 0.000000 0.000000 0.376591
O O4 0.601822 0.117611 0.886630
O O5 0.740239 0.104283 0.000000
O O6 0.628154 0.000000 0.000000
O O7 0.365943 0.774950 0.500000
O O8 0.500000 0.786920 0.626474
O O9 0.371382 0.712988 0.694842
O O10 0.363772 0.859473 0.676527
O O11 0.000000 0.856755 0.209532
O O12 0.859316 0.840381 0.108877
O O13 0.750000 0.750000 0.000000
O O14 0.500000 0.927991 0.270867
O O15 0.362078 0.000000 0.248345
#
# Coordination Sequence:
#
# PCOD8272810 Si02
#       6
#     8   8  16  16   8  16
#     4   9  18  35  63  95 119 146 191 246 300 353
#     4  10  21  35  53  75 104 146 181 226 281 336
#     4   9  17  30  51  80 110 139 175 228 288 336
#     4  10  21  37  60  87 117 149 191 243 292 346
#     4  12  25  38  56  83 114 155 193 235 287 350
#     4   9  17  31  53  80 108 142 188 236 279 332
#
# _framework density 20.868742999999998
#
# number of rings (size 3 to 8) (size 9 to 14) (size 15 to 20)
#    0.000    2.333    0.000    2.667    1.556    4.444 
#    0.000    8.333    0.000   12.000    0.000    0.000 
#    0.000    0.000    0.000    0.000    0.000    0.000 
#
# Total GULP energy -446075.755449 kJ/mol
# GULP energy per Si atom -12390.993207 kJ/mol
# Density = 2.082124 g / cm^3
# Si number density = 20.868743 Si / 1000 Ang^3
#
#
#
# Elastic Constant Matrix: (Units=GPa)
#
#
# Indices 1 2 3 4 5 6 
#
# 1 26.6924 23.8212 23.7006 0.0000 0.0000 0.0000
# 2 23.8212 149.7244 102.7501 0.0000 0.0000 0.0000
# 3 23.7006 102.7501 200.8060 0.0000 0.0000 0.0000
# 4 0.0000 0.0000 0.0000 28.4738 0.0000 0.0000
# 5 0.0000 0.0000 0.0000 0.0000 -6.6988 0.0000
# 6 0.0000 0.0000 0.0000 0.0000 0.0000 19.6112
#
#
#
# Elastic Compliance Matrix: (Units=1/GPa)
#
#
# Indices 1 2 3 4 5 6 
#
# 1 0.044469 -0.005353 -0.002510 0.000000 0.000000 0.000000
# 2 -0.005353 0.010938 -0.004965 0.000000 0.000000 0.000000
# 3 -0.002510 -0.004965 0.007817 0.000000 0.000000 0.000000
# 4 0.000000 0.000000 0.000000 0.035120 0.000000 0.000000
# 5 0.000000 0.000000 0.000000 0.000000 -0.149281 0.000000
# 6 0.000000 0.000000 0.000000 0.000000 0.000000 0.050991
#
#
# Mechanical properties :
#
#
# Convention : Reuss Voigt Hill
#
# Bulk Modulus (GPa) = 26.61775 75.30740 50.96257
# Shear Modulus (GPa) = 130.78144 23.40731 77.09437
#
# Velocity S-wave (km/s) = 7.92494 3.35273 6.08463
# Velocity P-wave (km/s) = 9.82456 7.15208 8.59285
#
# Compressibility (1/GPa) = 0.03756892
#
# Stress axis : x y z
#
# Youngs Moduli (GPa) = 22.48745 91.42557 127.93174
#
# Poissons Ratio (x) = 0.48938 0.32106
# Poissons Ratio (y) = 0.12037 0.63518
# Poissons Ratio (z) = 0.05643 0.45393
#
# Static dielectric constant tensor:
#      x y z
#    x 3.276990 0.000000 0.000000 
#    y 0.000000 4.174220 0.000000 
#    z 0.000000 0.000000 4.153700 
# 
# 
# High freq. dielectric constant tensor:
#      x y z
#    x 1.770720 0.000000 0.000000 
#    y 0.000000 1.830500 0.000000 
#    z 0.000000 0.000000 1.831480 
# 
# From -- ./inp_files/26376.got.cif
#   From: 2010.03.12/outbox.cif.g09.slc.cpg/sg65_14_cif.got.tgz:26376.got - 2010.04.10 20:52:16.
