data_PCOD8272023
_publ_section_title
;
Structure prediction by ZEFSAII (Michael W. Deem and Ramdas Pophale) SiO2 
 PCOD8272023
Probable space group: C M M M
;
_chemical_formula_sum "Si O2"
_cell_formula_units_Z 112
_cell_length_a 14.891440
_cell_length_b 15.816109
_cell_length_c 23.331577
_cell_angle_alpha 90.000000
_cell_angle_beta 90.000000
_cell_angle_gamma 90.000000
_cell_volume 5495.161232
_symmetry_space_group_name_H-M "C M M M"
_symmetry_group_IT_number 65
_symmetry_cell_setting 'orthorhombic'
loop_
_space_group_symop_operation_xyz
x,y,z
-x,-y,z
x,-y,-z
-x,y,-z
-x,-y,-z
x,y,-z
-x,y,z
x,-y,z
1/2+x,1/2+y,z
1/2-x,1/2-y,z
1/2+x,1/2-y,-z
1/2-x,1/2+y,-z
1/2-x,1/2-y,-z
1/2+x,1/2+y,-z
1/2-x,1/2+y,z
1/2+x,1/2-y,z
loop_
_atom_site_type_symbol
_atom_site_label
_atom_site_fract_x
_atom_site_fract_y
_atom_site_fract_z
Si Si1 0.396935 0.595835 0.642567
Si Si2 0.403872 0.863006 0.936174
Si Si3 0.209542 0.907679 0.063243
Si Si4 0.605874 0.742731 0.727874
Si Si5 0.895213 0.596273 0.342795
Si Si6 0.399141 0.292969 0.853771
Si Si7 0.743793 0.150664 0.433825
O O1 0.500000 0.614220 0.625457
O O2 0.386526 0.500000 0.666676
O O3 0.361994 0.663410 0.689431
O O4 0.336286 0.607097 0.586387
O O5 0.500000 0.912554 0.929148
O O6 0.316585 0.920478 0.926850
O O7 0.401583 0.791384 0.889319
O O8 0.400153 0.822785 0.000000
O O9 0.167240 0.856011 0.114537
O O10 0.165651 0.000000 0.064945
O O11 0.191229 0.866815 0.000000
O O12 0.500000 0.745143 0.731257
O O13 0.639306 0.833645 0.703327
O O14 0.643495 0.727570 0.791641
O O15 0.878327 0.500000 0.320061
O O16 0.840935 0.610745 0.401133
O O17 0.000000 0.610295 0.356670
O O18 0.500000 0.331647 0.848747
O O19 0.729884 0.129136 0.500000
O O20 0.750000 0.250000 0.422382
#
# Coordination Sequence:
#
# PCOD8272023 Si02
#       7
#    16  16  16  16  16  16  16
#     4  10  21  39  62  85 115 158 201 244 295 346
#     4   9  18  35  58  80 105 145 195 241 287 337
#     4  10  21  36  54  82 120 154 188 237 295 353
#     4   9  19  38  60  84 116 153 198 247 291 347
#     4  10  21  40  65  89 118 157 197 244 304 361
#     4  10  20  35  58  83 110 148 191 237 289 346
#     4  11  23  39  62  91 123 159 198 244 297 356
#
# _framework density 20.381568000000001
#
# number of rings (size 3 to 8) (size 9 to 14) (size 15 to 20)
#    0.000    2.143    1.429    1.286    0.000    4.857 
#    5.143    7.143    0.000    2.571    0.000    0.000 
#    0.000    0.000    0.000    0.000    0.000    0.000 
#
# Total GULP energy -693956.368481 kJ/mol
# GULP energy per Si atom -12392.078009 kJ/mol
# Density = 2.033518 g / cm^3
# Si number density = 20.381568 Si / 1000 Ang^3
#
#
#
# Elastic Constant Matrix: (Units=GPa)
#
#
# Indices 1 2 3 4 5 6 
#
# 1 92.7354 36.8976 57.0016 0.0000 0.0000 0.0000
# 2 36.8976 129.5969 67.9866 0.0000 0.0000 0.0000
# 3 57.0016 67.9866 147.2627 0.0000 0.0000 0.0000
# 4 0.0000 0.0000 0.0000 25.7218 0.0000 0.0000
# 5 0.0000 0.0000 0.0000 0.0000 18.3885 0.0000
# 6 0.0000 0.0000 0.0000 0.0000 0.0000 -32.9048
#
#
#
# Elastic Compliance Matrix: (Units=1/GPa)
#
#
# Indices 1 2 3 4 5 6 
#
# 1 0.014382 -0.001550 -0.004851 0.000000 0.000000 0.000000
# 2 -0.001550 0.010349 -0.004178 0.000000 0.000000 0.000000
# 3 -0.004851 -0.004178 0.010597 0.000000 0.000000 0.000000
# 4 0.000000 0.000000 0.000000 0.038878 0.000000 0.000000
# 5 0.000000 0.000000 0.000000 0.000000 0.054382 0.000000
# 6 0.000000 0.000000 0.000000 0.000000 0.000000 -0.030391
#
#
# Mechanical properties :
#
#
# Convention : Reuss Voigt Hill
#
# Bulk Modulus (GPa) = 70.57065 77.04074 73.80569
# Shear Modulus (GPa) = 40.29690 16.08839 28.19265
#
# Velocity S-wave (km/s) = 4.45131 2.81260 3.72323
# Velocity P-wave (km/s) = 7.81785 6.95909 7.40094
#
# Compressibility (1/GPa) = 0.01417020
#
# Stress axis : x y z
#
# Youngs Moduli (GPa) = 69.53141 96.62521 94.36291
#
# Poissons Ratio (x) = 0.14973 0.45780
# Poissons Ratio (y) = 0.10775 0.39426
# Poissons Ratio (z) = 0.33733 0.40371
#
# Static dielectric constant tensor:
#      x y z
#    x 3.905610 0.000000 0.000000 
#    y 0.000000 3.763630 0.000000 
#    z 0.000000 0.000000 3.735910 
# 
# 
# High freq. dielectric constant tensor:
#      x y z
#    x 1.803210 0.000000 0.000000 
#    y 0.000000 1.792160 0.000000 
#    z 0.000000 0.000000 1.785170 
# 
# From -- ./inp_files/70013.got.cif
#   From: 2010.03.12/outbox.cif.g09.slc.cpg/sg65_36_cif.got.tgz:70013.got - 2010.04.10 20:52:16.
