data_PCOD8272051
_publ_section_title
;
Structure prediction by ZEFSAII (Michael W. Deem and Ramdas Pophale) SiO2 
 PCOD8272051
Probable space group: C M M M
;
_chemical_formula_sum "Si O2"
_cell_formula_units_Z 64
_cell_length_a 10.913694
_cell_length_b 17.069220
_cell_length_c 16.514533
_cell_angle_alpha 90.000000
_cell_angle_beta 90.000000
_cell_angle_gamma 90.000000
_cell_volume 3076.463351
_symmetry_space_group_name_H-M "C M M M"
_symmetry_group_IT_number 65
_symmetry_cell_setting 'orthorhombic'
loop_
_space_group_symop_operation_xyz
x,y,z
-x,-y,z
x,-y,-z
-x,y,-z
-x,-y,-z
x,y,-z
-x,y,z
x,-y,z
1/2+x,1/2+y,z
1/2-x,1/2-y,z
1/2+x,1/2-y,-z
1/2-x,1/2+y,-z
1/2-x,1/2-y,-z
1/2+x,1/2+y,-z
1/2-x,1/2+y,z
1/2+x,1/2-y,z
loop_
_atom_site_type_symbol
_atom_site_label
_atom_site_fract_x
_atom_site_fract_y
_atom_site_fract_z
Si Si1 0.859960 0.085907 0.500000
Si Si2 0.500000 0.093242 0.906620
Si Si3 0.746971 0.407971 0.826636
Si Si4 0.000000 0.413102 0.595015
Si Si5 0.756325 0.658921 0.652584
Si Si6 0.500000 0.593080 0.908344
O O1 0.834264 0.135444 0.419571
O O2 0.000000 0.066076 0.500000
O O3 0.790102 0.000000 0.500000
O O4 0.623987 0.126174 0.862509
O O5 0.500000 0.000000 0.901921
O O6 0.500000 0.121445 0.000000
O O7 0.749837 0.500000 0.840704
O O8 0.727784 0.389552 0.732762
O O9 0.625600 0.372449 0.869738
O O10 0.889505 0.361361 0.623220
O O11 0.000000 0.500000 0.635331
O O12 0.000000 0.422415 0.500000
O O13 0.750000 0.750000 0.672492
O O14 0.500000 0.500000 0.899287
O O15 0.500000 0.621204 0.000000
#
# Coordination Sequence:
#
# PCOD8272051 Si02
#       6
#     8   8  16   8  16   8
#     4  11  25  43  65  89 121 161 207 259 315 375
#     4   9  17  33  60  91 119 152 205 268 315 358
#     4  10  20  35  58  87 121 160 205 257 312 373
#     4  11  23  42  67  89 117 162 215 263 310 371
#     4  12  26  40  63  91 129 165 209 259 311 373
#     4   9  18  33  57  88 117 151 199 255 311 367
#
# _framework density 20.803108000000002
#
# number of rings (size 3 to 8) (size 9 to 14) (size 15 to 20)
#    0.000    1.500    1.250    4.125    3.500    4.000 
#    0.000    0.000    0.000    4.500    0.000    0.000 
#    0.000    0.000    0.000    0.000    0.000    0.000 
#
# Total GULP energy -396692.229241 kJ/mol
# GULP energy per Si atom -12396.632164 kJ/mol
# Density = 2.075576 g / cm^3
# Si number density = 20.803108 Si / 1000 Ang^3
#
#
#
# Elastic Constant Matrix: (Units=GPa)
#
#
# Indices 1 2 3 4 5 6 
#
# 1 172.4390 20.2092 64.8880 0.0000 0.0000 0.0000
# 2 20.2092 30.3802 -14.8472 0.0000 0.0000 0.0000
# 3 64.8880 -14.8472 147.2826 0.0000 0.0000 0.0000
# 4 0.0000 0.0000 0.0000 6.6457 0.0000 0.0000
# 5 0.0000 0.0000 0.0000 0.0000 68.7779 0.0000
# 6 0.0000 0.0000 0.0000 0.0000 0.0000 18.9055
#
#
#
# Elastic Compliance Matrix: (Units=1/GPa)
#
#
# Indices 1 2 3 4 5 6 
#
# 1 0.008398 -0.007778 -0.004484 0.000000 0.000000 0.000000
# 2 -0.007778 0.041825 0.007643 0.000000 0.000000 0.000000
# 3 -0.004484 0.007643 0.009536 0.000000 0.000000 0.000000
# 4 0.000000 0.000000 0.000000 0.150474 0.000000 0.000000
# 5 0.000000 0.000000 0.000000 0.000000 0.014540 0.000000
# 6 0.000000 0.000000 0.000000 0.000000 0.000000 0.052895
#
#
# Mechanical properties :
#
#
# Convention : Reuss Voigt Hill
#
# Bulk Modulus (GPa) = 19.79360 54.51128 37.15244
# Shear Modulus (GPa) = 16.46117 37.52260 26.99188
#
# Velocity S-wave (km/s) = 2.81603 4.25161 3.60598
# Velocity P-wave (km/s) = 4.48428 7.09661 5.93593
#
# Compressibility (1/GPa) = 0.05052139
#
# Stress axis : x y z
#
# Youngs Moduli (GPa) = 119.07655 23.90897 104.86999
#
# Poissons Ratio (x) = 0.18596 0.47023
# Poissons Ratio (y) = 0.92615 -0.80152
# Poissons Ratio (z) = 0.53393 -0.18274
#
# Static dielectric constant tensor:
#      x y z
#    x 4.111140 0.000000 0.000000 
#    y 0.000000 3.476190 0.000000 
#    z 0.000000 0.000000 15.312970 
# 
# 
# High freq. dielectric constant tensor:
#      x y z
#    x 1.834880 0.000000 0.000000 
#    y 0.000000 1.777850 0.000000 
#    z 0.000000 0.000000 1.825020 
# 
# From -- ./inp_files/37845.got.cif
#   From: 2010.03.12/outbox.cif.g09.slc.cpg/sg65_19_cif.got.tgz:37845.got - 2010.04.10 20:52:16.
