data_PCOD8272479
_publ_section_title
;
Structure prediction by ZEFSAII (Michael W. Deem and Ramdas Pophale) SiO2 
 PCOD8272479
Probable space group: C M M M
;
_chemical_formula_sum "Si O2"
_cell_formula_units_Z 72
_cell_length_a 19.238450
_cell_length_b 23.503431
_cell_length_c 7.658520
_cell_angle_alpha 90.000000
_cell_angle_beta 90.000000
_cell_angle_gamma 90.000000
_cell_volume 3462.949788
_symmetry_space_group_name_H-M "C M M M"
_symmetry_group_IT_number 65
_symmetry_cell_setting 'orthorhombic'
loop_
_space_group_symop_operation_xyz
x,y,z
-x,-y,z
x,-y,-z
-x,y,-z
-x,-y,-z
x,y,-z
-x,y,z
x,-y,z
1/2+x,1/2+y,z
1/2-x,1/2-y,z
1/2+x,1/2-y,-z
1/2-x,1/2+y,-z
1/2-x,1/2-y,-z
1/2+x,1/2+y,-z
1/2-x,1/2+y,z
1/2+x,1/2-y,z
loop_
_atom_site_type_symbol
_atom_site_label
_atom_site_fract_x
_atom_site_fract_y
_atom_site_fract_z
Si Si1 0.832853 0.386892 0.701326
Si Si2 0.575382 0.934157 0.000000
Si Si3 0.815084 0.063848 0.293796
Si Si4 0.421756 0.656708 0.708380
Si Si5 0.325873 0.243378 0.297596
O O1 0.845033 0.404529 0.500000
O O2 0.885244 0.420083 0.822477
O O3 0.754764 0.402742 0.760286
O O4 0.850253 0.320829 0.730684
O O5 0.500000 0.903451 0.000000
O O6 0.563388 0.000000 0.000000
O O7 0.818898 0.059057 0.500000
O O8 0.880633 0.100540 0.225190
O O9 0.816605 0.000000 0.212174
O O10 0.424173 0.658178 0.500000
O O11 0.500000 0.655321 0.784758
O O12 0.382238 0.712865 0.782747
O O13 0.318096 0.259496 0.500000
O O14 0.250000 0.250000 0.208482
#
# Coordination Sequence:
#
# PCOD8272479 Si02
#       5
#    16   8  16  16  16
#     4  10  20  37  63  88 113 148 195 243 289 348
#     4  11  26  44  59  84 121 153 191 246 300 352
#     4   9  16  27  47  75 106 146 192 231 275 338
#     4   9  16  25  41  72 112 149 186 232 285 338
#     4   9  15  28  52  80 111 148 189 236 288 342
#
# _framework density 20.791522000000001
#
# number of rings (size 3 to 8) (size 9 to 14) (size 15 to 20)
#    0.000    2.556    2.222    0.667    0.000    3.111 
#    0.000    6.111    0.000    0.000    0.000    0.778 
#    0.000    2.667    0.000    0.222    0.000    0.000 
#
# Total GULP energy -446210.972905 kJ/mol
# GULP energy per Si atom -12394.749247 kJ/mol
# Density = 2.074420 g / cm^3
# Si number density = 20.791522 Si / 1000 Ang^3
#
#
#
# Elastic Constant Matrix: (Units=GPa)
#
#
# Indices 1 2 3 4 5 6 
#
# 1 193.3664 83.3063 34.6068 0.0000 0.0000 0.0000
# 2 83.3063 149.1236 17.7899 0.0000 0.0000 0.0000
# 3 34.6068 17.7899 46.8913 0.0000 0.0000 0.0000
# 4 0.0000 0.0000 0.0000 7.9989 0.0000 0.0000
# 5 0.0000 0.0000 0.0000 0.0000 -32.2606 0.0000
# 6 0.0000 0.0000 0.0000 0.0000 0.0000 33.9831
#
#
#
# Elastic Compliance Matrix: (Units=1/GPa)
#
#
# Indices 1 2 3 4 5 6 
#
# 1 0.007506 -0.003700 -0.004136 0.000000 0.000000 0.000000
# 2 -0.003700 0.008847 -0.000626 0.000000 0.000000 0.000000
# 3 -0.004136 -0.000626 0.024616 0.000000 0.000000 0.000000
# 4 0.000000 0.000000 0.000000 0.125017 0.000000 0.000000
# 5 0.000000 0.000000 0.000000 0.000000 -0.030998 0.000000
# 6 0.000000 0.000000 0.000000 0.000000 0.000000 0.029426
#
#
# Mechanical properties :
#
#
# Convention : Reuss Voigt Hill
#
# Bulk Modulus (GPa) = 41.58750 73.42080 57.50415
# Shear Modulus (GPa) = 26.40584 18.85618 22.63101
#
# Velocity S-wave (km/s) = 3.56761 3.01477 3.30278
# Velocity P-wave (km/s) = 6.08408 6.89260 6.50092
#
# Compressibility (1/GPa) = 0.02404569
#
# Stress axis : x y z
#
# Youngs Moduli (GPa) = 133.23529 113.02959 40.62443
#
# Poissons Ratio (x) = 0.41815 0.16801
# Poissons Ratio (y) = 0.49290 0.02544
# Poissons Ratio (z) = 0.55102 0.07078
#
# Static dielectric constant tensor:
#      x y z
#    x 3.969280 0.000000 0.000000 
#    y 0.000000 3.978380 0.000000 
#    z 0.000000 0.000000 3.198020 
# 
# 
# High freq. dielectric constant tensor:
#      x y z
#    x 1.812150 0.000000 0.000000 
#    y 0.000000 1.823270 0.000000 
#    z 0.000000 0.000000 1.770030 
# 
# From -- ./inp_files/9254.got.cif
#   From: 2010.03.12/outbox.cif.g09.slc.cpg/sg65_5_cif.got.tgz:9254.got - 2010.04.10 20:52:16.
