data_PCOD8272634
_publ_section_title
;
Structure prediction by ZEFSAII (Michael W. Deem and Ramdas Pophale) SiO2 
 PCOD8272634
Probable space group: C M M M
;
_chemical_formula_sum "Si O2"
_cell_formula_units_Z 72
_cell_length_a 8.858861
_cell_length_b 16.463228
_cell_length_c 24.615368
_cell_angle_alpha 90.000000
_cell_angle_beta 90.000000
_cell_angle_gamma 90.000000
_cell_volume 3590.039385
_symmetry_space_group_name_H-M "C M M M"
_symmetry_group_IT_number 65
_symmetry_cell_setting 'orthorhombic'
loop_
_space_group_symop_operation_xyz
x,y,z
-x,-y,z
x,-y,-z
-x,y,-z
-x,-y,-z
x,y,-z
-x,y,z
x,-y,z
1/2+x,1/2+y,z
1/2-x,1/2-y,z
1/2+x,1/2-y,-z
1/2-x,1/2+y,-z
1/2-x,1/2-y,-z
1/2+x,1/2+y,-z
1/2-x,1/2+y,z
1/2+x,1/2-y,z
loop_
_atom_site_type_symbol
_atom_site_label
_atom_site_fract_x
_atom_site_fract_y
_atom_site_fract_z
Si Si1 0.823932 0.332293 0.737556
Si Si2 0.673392 0.500000 0.435783
Si Si3 0.680007 0.162486 0.613574
Si Si4 0.164373 0.092226 0.832242
Si Si5 0.822064 0.163415 0.058222
O O1 0.750000 0.250000 0.758774
O O2 0.773891 0.352324 0.676167
O O3 0.769778 0.400314 0.779369
O O4 0.000000 0.322825 0.740195
O O5 0.500000 0.500000 0.415042
O O6 0.680356 0.500000 0.500000
O O7 0.754315 0.583604 0.417044
O O8 0.500000 0.166252 0.604489
O O9 0.750000 0.250000 0.593924
O O10 0.245971 0.122344 0.887610
O O11 0.000000 0.134440 0.821932
O O12 0.133866 0.000000 0.842900
O O13 0.750000 0.250000 0.054266
O O14 0.000000 0.170188 0.066059
O O15 0.787049 0.118241 0.000000
#
# Coordination Sequence:
#
# PCOD8272634 Si02
#       5
#    16   8  16  16  16
#     4  10  21  37  58  83 112 146 187 233 284 339
#     4  11  25  43  65  95 129 167 208 251 302 357
#     4  10  22  41  65  93 125 164 209 255 306 362
#     4  10  21  34  50  77 109 143 182 225 280 339
#     4   9  18  33  52  72  97 133 179 228 276 331
#
# _framework density 20.055489999999999
#
# number of rings (size 3 to 8) (size 9 to 14) (size 15 to 20)
#    0.000    2.111    0.000    2.333    1.556    7.556 
#    0.000    2.222    0.000    0.000    0.000    4.667 
#    0.000    0.000    0.000    0.000    0.000    0.000 
#
# Total GULP energy -445974.020324 kJ/mol
# GULP energy per Si atom -12388.167231 kJ/mol
# Density = 2.000984 g / cm^3
# Si number density = 20.055490 Si / 1000 Ang^3
#
#
#
# Elastic Constant Matrix: (Units=GPa)
#
#
# Indices 1 2 3 4 5 6 
#
# 1 64.6849 36.9757 37.8145 0.0000 0.0000 0.0000
# 2 36.9757 106.4148 48.2840 0.0000 0.0000 0.0000
# 3 37.8145 48.2840 108.0716 0.0000 0.0000 0.0000
# 4 0.0000 0.0000 0.0000 35.0987 0.0000 0.0000
# 5 0.0000 0.0000 0.0000 0.0000 345.0711 0.0000
# 6 0.0000 0.0000 0.0000 0.0000 0.0000 27.8268
#
#
#
# Elastic Compliance Matrix: (Units=1/GPa)
#
#
# Indices 1 2 3 4 5 6 
#
# 1 0.021413 -0.005068 -0.005228 0.000000 0.000000 0.000000
# 2 -0.005068 0.012986 -0.004029 0.000000 0.000000 0.000000
# 3 -0.005228 -0.004029 0.012882 0.000000 0.000000 0.000000
# 4 0.000000 0.000000 0.000000 0.028491 0.000000 0.000000
# 5 0.000000 0.000000 0.000000 0.000000 0.002898 0.000000
# 6 0.000000 0.000000 0.000000 0.000000 0.000000 0.035937
#
#
# Mechanical properties :
#
#
# Convention : Reuss Voigt Hill
#
# Bulk Modulus (GPa) = 53.67174 58.36887 56.02031
# Shear Modulus (GPa) = 33.45216 92.00579 62.72897
#
# Velocity S-wave (km/s) = 4.08852 6.78050 5.59871
# Velocity P-wave (km/s) = 7.00769 9.51142 8.35389
#
# Compressibility (1/GPa) = 0.01863178
#
# Stress axis : x y z
#
# Youngs Moduli (GPa) = 46.70061 77.00540 77.62578
#
# Poissons Ratio (x) = 0.39028 0.40584
# Poissons Ratio (y) = 0.23669 0.31272
# Poissons Ratio (z) = 0.24416 0.31022
#
# Static dielectric constant tensor:
#      x y z
#    x 3.643420 0.000000 0.000000 
#    y 0.000000 3.449050 0.000000 
#    z 0.000000 0.000000 4.113410 
# 
# 
# High freq. dielectric constant tensor:
#      x y z
#    x 1.780870 0.000000 0.000000 
#    y 0.000000 1.772450 0.000000 
#    z 0.000000 0.000000 1.797840 
# 
# From -- ./inp_files/72482.got.cif
#   From: 2010.03.12/outbox.cif.g09.slc.cpg/sg65_37_cif.got.tgz:72482.got - 2010.04.10 20:52:16.
