data_PCOD8272929
_publ_section_title
;
Structure prediction by ZEFSAII (Michael W. Deem and Ramdas Pophale) SiO2 
 PCOD8272929
Probable space group: C M M M
;
_chemical_formula_sum "Si O2"
_cell_formula_units_Z 72
_cell_length_a 9.096843
_cell_length_b 15.971931
_cell_length_c 24.677102
_cell_angle_alpha 90.000000
_cell_angle_beta 90.000000
_cell_angle_gamma 90.000000
_cell_volume 3585.438528
_symmetry_space_group_name_H-M "C M M M"
_symmetry_group_IT_number 65
_symmetry_cell_setting 'orthorhombic'
loop_
_space_group_symop_operation_xyz
x,y,z
-x,-y,z
x,-y,-z
-x,y,-z
-x,-y,-z
x,y,-z
-x,y,z
x,-y,z
1/2+x,1/2+y,z
1/2-x,1/2-y,z
1/2+x,1/2-y,-z
1/2-x,1/2+y,-z
1/2-x,1/2-y,-z
1/2+x,1/2+y,-z
1/2-x,1/2+y,z
1/2+x,1/2-y,z
loop_
_atom_site_type_symbol
_atom_site_label
_atom_site_fract_x
_atom_site_fract_y
_atom_site_fract_z
Si Si1 0.671037 0.163331 0.560006
Si Si2 0.672757 0.596874 0.226118
Si Si3 0.341391 0.404020 0.344674
Si Si4 0.325640 0.000000 0.938993
Si Si5 0.675157 0.165154 0.124778
O O1 0.709665 0.127304 0.500000
O O2 0.500000 0.177835 0.565774
O O3 0.750000 0.250000 0.570224
O O4 0.724151 0.102214 0.607097
O O5 0.500000 0.609002 0.213950
O O6 0.718845 0.500000 0.219085
O O7 0.711237 0.632339 0.286681
O O8 0.770406 0.652489 0.186140
O O9 0.500000 0.364299 0.361917
O O10 0.368056 0.500000 0.332109
O O11 0.269754 0.084700 0.909711
O O12 0.500000 0.000000 0.938810
O O13 0.263120 0.000000 0.000000
O O14 0.500000 0.175119 0.123040
O O15 0.750000 0.250000 0.101345
#
# Coordination Sequence:
#
# PCOD8272929 Si02
#       5
#    16  16  16   8  16
#     4  10  21  36  53  73 100 137 180 228 280 333
#     4   9  18  35  58  82 113 149 186 234 288 341
#     4   9  19  35  55  80 108 141 179 222 277 335
#     4   9  20  40  63  87 121 161 198 243 294 341
#     4  11  22  37  60  90 120 157 201 242 291 348
#
# _framework density 20.081223999999999
#
# number of rings (size 3 to 8) (size 9 to 14) (size 15 to 20)
#    0.000    2.333    1.111    2.667    0.000    4.444 
#    0.000    4.444    0.000    4.667    0.000    0.000 
#    0.000    0.000    0.000    0.000    0.000    0.000 
#
# Total GULP energy -446185.410015 kJ/mol
# GULP energy per Si atom -12394.039167 kJ/mol
# Density = 2.003552 g / cm^3
# Si number density = 20.081224 Si / 1000 Ang^3
#
#
#
# Elastic Constant Matrix: (Units=GPa)
#
#
# Indices 1 2 3 4 5 6 
#
# 1 69.3165 35.4705 44.8631 0.0000 0.0000 0.0000
# 2 35.4705 99.5562 52.0098 0.0000 0.0000 0.0000
# 3 44.8631 52.0098 139.8172 0.0000 0.0000 0.0000
# 4 0.0000 0.0000 0.0000 18.7267 0.0000 0.0000
# 5 0.0000 0.0000 0.0000 0.0000 25.4263 0.0000
# 6 0.0000 0.0000 0.0000 0.0000 0.0000 30.4941
#
#
#
# Elastic Compliance Matrix: (Units=1/GPa)
#
#
# Indices 1 2 3 4 5 6 
#
# 1 0.019793 -0.004635 -0.004627 0.000000 0.000000 0.000000
# 2 -0.004635 0.013553 -0.003554 0.000000 0.000000 0.000000
# 3 -0.004627 -0.003554 0.009959 0.000000 0.000000 0.000000
# 4 0.000000 0.000000 0.000000 0.053400 0.000000 0.000000
# 5 0.000000 0.000000 0.000000 0.000000 0.039329 0.000000
# 6 0.000000 0.000000 0.000000 0.000000 0.000000 0.032793
#
#
# Mechanical properties :
#
#
# Convention : Reuss Voigt Hill
#
# Bulk Modulus (GPa) = 56.58429 63.70851 60.14640
# Shear Modulus (GPa) = 24.95640 26.68585 25.82112
#
# Velocity S-wave (km/s) = 3.52912 3.64936 3.58974
# Velocity P-wave (km/s) = 6.69665 7.03927 6.87010
#
# Compressibility (1/GPa) = 0.01767275
#
# Stress axis : x y z
#
# Youngs Moduli (GPa) = 50.52327 73.78620 100.41239
#
# Poissons Ratio (x) = 0.34198 0.46459
# Poissons Ratio (y) = 0.23416 0.35689
# Poissons Ratio (z) = 0.23376 0.26225
#
# Static dielectric constant tensor:
#      x y z
#    x 2.903760 0.000000 0.000000 
#    y 0.000000 3.557000 0.000000 
#    z 0.000000 0.000000 3.804950 
# 
# 
# High freq. dielectric constant tensor:
#      x y z
#    x 1.771690 0.000000 0.000000 
#    y 0.000000 1.771010 0.000000 
#    z 0.000000 0.000000 1.789530 
# 
# From -- ./inp_files/70312.got.cif
#   From: 2010.03.12/outbox.cif.g09.slc.cpg/sg65_36_cif.got.tgz:70312.got - 2010.04.10 20:52:16.
