data_PCOD8272131
_publ_section_title
;
Structure prediction by ZEFSAII (Michael W. Deem and Ramdas Pophale) SiO2 
 PCOD8272131
Probable space group: C M M M
;
_chemical_formula_sum "Si O2"
_cell_formula_units_Z 120
_cell_length_a 9.679364
_cell_length_b 26.133892
_cell_length_c 24.602859
_cell_angle_alpha 90.000000
_cell_angle_beta 90.000000
_cell_angle_gamma 90.000000
_cell_volume 6223.525765
_symmetry_space_group_name_H-M "C M M M"
_symmetry_group_IT_number 65
_symmetry_cell_setting 'orthorhombic'
loop_
_space_group_symop_operation_xyz
x,y,z
-x,-y,z
x,-y,-z
-x,y,-z
-x,-y,-z
x,y,-z
-x,y,z
x,-y,z
1/2+x,1/2+y,z
1/2-x,1/2-y,z
1/2+x,1/2-y,-z
1/2-x,1/2+y,-z
1/2-x,1/2-y,-z
1/2+x,1/2+y,-z
1/2-x,1/2+y,z
1/2+x,1/2-y,z
loop_
_atom_site_type_symbol
_atom_site_label
_atom_site_fract_x
_atom_site_fract_y
_atom_site_fract_z
Si Si1 0.340629 0.403281 0.063825
Si Si2 0.339284 0.299422 0.874314
Si Si3 0.655858 0.296198 0.661435
Si Si4 0.840516 0.138676 0.438836
Si Si5 0.340515 0.000000 0.935392
Si Si6 0.844850 0.142955 0.231025
Si Si7 0.341279 0.057899 0.263018
Si Si8 0.844689 0.441515 0.612675
O O1 0.500000 0.416965 0.078152
O O2 0.296835 0.349608 0.091309
O O3 0.241103 0.449143 0.085061
O O4 0.321900 0.395546 0.000000
O O5 0.500000 0.285762 0.883434
O O6 0.250000 0.250000 0.892121
O O7 0.306293 0.312141 0.811169
O O8 0.500000 0.276049 0.656949
O O9 0.750000 0.250000 0.679443
O O10 0.707575 0.318030 0.603605
O O11 0.670916 0.338799 0.707339
O O12 0.814828 0.158737 0.500000
O O13 0.753837 0.087753 0.428761
O O14 0.000000 0.124883 0.428737
O O15 0.500000 0.000000 0.913621
O O16 0.340377 0.000000 0.000000
O O17 0.746605 0.094080 0.223402
O O18 0.000000 0.124397 0.218567
O O19 0.500000 0.073887 0.257731
O O20 0.292598 0.063988 0.325402
O O21 0.318602 0.000000 0.243224
O O22 0.841346 0.500000 0.594377
O O23 0.000000 0.419721 0.607584
#
# Coordination Sequence:
#
# PCOD8272131 Si02
#       8
#    16  16  16  16   8  16  16  16
#     4   9  18  35  58  82 113 155 194 229 277 334
#     4  10  22  38  56  82 114 147 188 234 277 326
#     4  10  21  36  54  75  97 127 167 210 259 311
#     4  10  21  36  52  73 102 132 166 210 255 304
#     4   9  17  31  55  87 117 147 191 241 282 325
#     4  10  20  36  56  79 106 138 177 218 263 317
#     4   9  18  33  54  80 108 137 172 214 261 316
#     4   9  18  33  53  77 104 133 166 204 247 302
#
# _framework density 19.281673999999999
#
# number of rings (size 3 to 8) (size 9 to 14) (size 15 to 20)
#    0.000    2.467    1.333    1.400    0.000    4.533 
#    1.200    2.667    0.000    0.000    0.000    0.000 
#    0.000    0.000    0.000    0.000    0.000    0.000 
#
# Total GULP energy -743935.166423 kJ/mol
# GULP energy per Si atom -12398.919440 kJ/mol
# Density = 1.923779 g / cm^3
# Si number density = 19.281674 Si / 1000 Ang^3
#
#
#
# Elastic Constant Matrix: (Units=GPa)
#
#
# Indices 1 2 3 4 5 6 
#
# 1 88.6775 71.5825 29.2670 0.0000 0.0000 0.0000
# 2 71.5825 114.8397 35.5957 0.0000 0.0000 0.0000
# 3 29.2670 35.5957 52.2160 0.0000 0.0000 0.0000
# 4 0.0000 0.0000 0.0000 27.2698 0.0000 0.0000
# 5 0.0000 0.0000 0.0000 0.0000 20.3241 0.0000
# 6 0.0000 0.0000 0.0000 0.0000 0.0000 42.3922
#
#
#
# Elastic Compliance Matrix: (Units=1/GPa)
#
#
# Indices 1 2 3 4 5 6 
#
# 1 0.023342 -0.013306 -0.004012 0.000000 0.000000 0.000000
# 2 -0.013306 0.018626 -0.005239 0.000000 0.000000 0.000000
# 3 -0.004012 -0.005239 0.024972 0.000000 0.000000 0.000000
# 4 0.000000 0.000000 0.000000 0.036671 0.000000 0.000000
# 5 0.000000 0.000000 0.000000 0.000000 0.049203 0.000000
# 6 0.000000 0.000000 0.000000 0.000000 0.000000 0.023589
#
#
# Mechanical properties :
#
#
# Convention : Reuss Voigt Hill
#
# Bulk Modulus (GPa) = 45.82064 58.73594 52.27829
# Shear Modulus (GPa) = 21.85394 25.94976 23.90185
#
# Velocity S-wave (km/s) = 3.37026 3.67253 3.52464
# Velocity P-wave (km/s) = 6.24182 6.96502 6.61331
#
# Compressibility (1/GPa) = 0.02182423
#
# Stress axis : x y z
#
# Youngs Moduli (GPa) = 42.84141 53.68947 40.04527
#
# Poissons Ratio (x) = 0.71439 0.16068
# Poissons Ratio (y) = 0.57004 0.20980
# Poissons Ratio (z) = 0.17190 0.28129
#
# Static dielectric constant tensor:
#      x y z
#    x 3.545430 0.000000 0.000000 
#    y 0.000000 3.345750 0.000000 
#    z 0.000000 0.000000 3.447010 
# 
# 
# High freq. dielectric constant tensor:
#      x y z
#    x 1.746950 0.000000 0.000000 
#    y 0.000000 1.742310 0.000000 
#    z 0.000000 0.000000 1.742680 
# 
# From -- ./inp_files/73930.got.cif
#   From: 2010.03.12/outbox.cif.g09.slc.cpg/sg65_37_cif.got.tgz:73930.got - 2010.04.10 20:52:16.
