data_PCOD8272230
_publ_section_title
;
Structure prediction by ZEFSAII (Michael W. Deem and Ramdas Pophale) SiO2 
 PCOD8272230
Probable space group: C M M M
;
_chemical_formula_sum "Si O2"
_cell_formula_units_Z 104
_cell_length_a 8.789914
_cell_length_b 18.479580
_cell_length_c 33.041102
_cell_angle_alpha 90.000000
_cell_angle_beta 90.000000
_cell_angle_gamma 90.000000
_cell_volume 5366.995684
_symmetry_space_group_name_H-M "C M M M"
_symmetry_group_IT_number 65
_symmetry_cell_setting 'orthorhombic'
loop_
_space_group_symop_operation_xyz
x,y,z
-x,-y,z
x,-y,-z
-x,y,-z
-x,-y,-z
x,y,-z
-x,y,z
x,-y,z
1/2+x,1/2+y,z
1/2-x,1/2-y,z
1/2+x,1/2-y,-z
1/2-x,1/2+y,-z
1/2-x,1/2-y,-z
1/2+x,1/2+y,-z
1/2-x,1/2+y,z
1/2+x,1/2-y,z
loop_
_atom_site_type_symbol
_atom_site_label
_atom_site_fract_x
_atom_site_fract_y
_atom_site_fract_z
Si Si1 0.180911 0.581784 0.000000
Si Si2 0.824967 0.084453 0.620690
Si Si3 0.823768 0.083518 0.148310
Si Si4 0.820828 0.326372 0.689421
Si Si5 0.178905 0.174852 0.545001
Si Si6 0.320600 0.170916 0.077154
Si Si7 0.822332 0.825461 0.773858
O O1 0.241337 0.624137 0.039376
O O2 0.247301 0.500000 0.000000
O O3 0.000000 0.578633 0.000000
O O4 0.719437 0.114788 0.655964
O O5 0.771228 0.114469 0.577179
O O6 0.000000 0.105276 0.629575
O O7 0.799763 0.000000 0.619012
O O8 0.722671 0.129446 0.117801
O O9 0.791998 0.112684 0.193225
O O10 0.000000 0.093158 0.136608
O O11 0.773740 0.000000 0.146622
O O12 0.750000 0.250000 0.676219
O O13 0.753732 0.352147 0.732352
O O14 0.000000 0.318044 0.693374
O O15 0.237635 0.152912 0.500000
O O16 0.250000 0.250000 0.559385
O O17 0.000000 0.184838 0.544413
O O18 0.500000 0.179872 0.075129
O O19 0.250000 0.250000 0.075983
O O20 0.750000 0.750000 0.788893
O O21 0.000000 0.812569 0.766368
#
# Coordination Sequence:
#
# PCOD8272230 Si02
#       7
#     8  16  16  16  16  16  16
#     4   9  19  36  57  83 114 147 186 231 278 328
#     4  10  21  36  54  78 110 146 181 221 272 325
#     4  10  22  39  58  83 115 148 183 226 276 329
#     4  11  22  37  58  82 109 142 183 228 271 321
#     4   9  18  33  54  79 105 137 179 223 266 316
#     4  11  22  37  59  84 113 150 190 232 276 325
#     4  10  20  36  58  82 109 143 182 225 274 325
#
# _framework density 19.377693000000001
#
# number of rings (size 3 to 8) (size 9 to 14) (size 15 to 20)
#    0.000    1.923    0.000    4.846    0.000    6.462 
#    0.000    4.231    0.000    2.769    0.000    3.231 
#    0.000    0.000    0.000    0.000    0.000    0.000 
#
# Total GULP energy -644959.947315 kJ/mol
# GULP energy per Si atom -12403.075910 kJ/mol
# Density = 1.933359 g / cm^3
# Si number density = 19.377693 Si / 1000 Ang^3
#
#
#
# Elastic Constant Matrix: (Units=GPa)
#
#
# Indices 1 2 3 4 5 6 
#
# 1 85.4804 47.2936 51.9134 0.0000 0.0000 0.0000
# 2 47.2936 139.0927 79.9098 0.0000 0.0000 0.0000
# 3 51.9134 79.9098 129.4633 0.0000 0.0000 0.0000
# 4 0.0000 0.0000 0.0000 20.6355 0.0000 0.0000
# 5 0.0000 0.0000 0.0000 0.0000 7.4313 0.0000
# 6 0.0000 0.0000 0.0000 0.0000 0.0000 20.6301
#
#
#
# Elastic Compliance Matrix: (Units=1/GPa)
#
#
# Indices 1 2 3 4 5 6 
#
# 1 0.016110 -0.002737 -0.004771 0.000000 0.000000 0.000000
# 2 -0.002737 0.011605 -0.006065 0.000000 0.000000 0.000000
# 3 -0.004771 -0.006065 0.013381 0.000000 0.000000 0.000000
# 4 0.000000 0.000000 0.000000 0.048460 0.000000 0.000000
# 5 0.000000 0.000000 0.000000 0.000000 0.134565 0.000000
# 6 0.000000 0.000000 0.000000 0.000000 0.000000 0.048473
#
#
# Mechanical properties :
#
#
# Convention : Reuss Voigt Hill
#
# Bulk Modulus (GPa) = 71.68531 79.14111 75.41321
# Shear Modulus (GPa) = 16.42631 21.40070 18.91350
#
# Velocity S-wave (km/s) = 2.91467 3.32685 3.12756
# Velocity P-wave (km/s) = 6.95709 7.46239 7.21417
#
# Compressibility (1/GPa) = 0.01394986
#
# Stress axis : x y z
#
# Youngs Moduli (GPa) = 62.07277 86.17248 74.73299
#
# Poissons Ratio (x) = 0.23585 0.35653
# Poissons Ratio (y) = 0.16989 0.45328
# Poissons Ratio (z) = 0.29613 0.52267
#
# Static dielectric constant tensor:
#      x y z
#    x 3.445470 0.000000 0.000000 
#    y 0.000000 3.526450 0.000000 
#    z 0.000000 0.000000 3.751050 
# 
# 
# High freq. dielectric constant tensor:
#      x y z
#    x 1.747750 0.000000 0.000000 
#    y 0.000000 1.755290 0.000000 
#    z 0.000000 0.000000 1.769190 
# 
# From -- ./inp_files/76853.got.cif
#   From: 2010.03.12/outbox.cif.g09.slc.cpg/sg65_39_cif.got.tgz:76853.got - 2010.04.10 20:52:16.
