data_PCOD8272652
_publ_section_title
;
Structure prediction by ZEFSAII (Michael W. Deem and Ramdas Pophale) SiO2 
 PCOD8272652
Probable space group: C M M M
;
_chemical_formula_sum "Si O2"
_cell_formula_units_Z 72
_cell_length_a 18.298053
_cell_length_b 9.236059
_cell_length_c 24.316746
_cell_angle_alpha 90.000000
_cell_angle_beta 90.000000
_cell_angle_gamma 90.000000
_cell_volume 4109.576205
_symmetry_space_group_name_H-M "C M M M"
_symmetry_group_IT_number 65
_symmetry_cell_setting 'orthorhombic'
loop_
_space_group_symop_operation_xyz
x,y,z
-x,-y,z
x,-y,-z
-x,y,-z
-x,-y,-z
x,y,-z
-x,y,z
x,-y,z
1/2+x,1/2+y,z
1/2-x,1/2-y,z
1/2+x,1/2-y,-z
1/2-x,1/2+y,-z
1/2-x,1/2-y,-z
1/2+x,1/2+y,-z
1/2-x,1/2+y,z
1/2+x,1/2-y,z
loop_
_atom_site_type_symbol
_atom_site_label
_atom_site_fract_x
_atom_site_fract_y
_atom_site_fract_z
Si Si1 0.823184 0.831469 0.062651
Si Si2 0.178677 0.839040 0.356539
Si Si3 0.416344 0.169166 0.730212
Si Si4 0.585848 0.500000 0.435743
Si Si5 0.413891 0.839989 0.854500
O O1 0.750000 0.750000 0.079850
O O2 0.886644 0.778764 0.102680
O O3 0.810139 0.000000 0.071211
O O4 0.845576 0.795180 0.000000
O O5 0.250000 0.750000 0.375026
O O6 0.137420 0.758916 0.307793
O O7 0.202364 0.000000 0.335987
O O8 0.123488 0.856886 0.408698
O O9 0.500000 0.219934 0.720990
O O10 0.390859 0.201214 0.792543
O O11 0.409243 0.000000 0.716522
O O12 0.500000 0.500000 0.422727
O O13 0.602000 0.500000 0.500000
O O14 0.500000 0.843118 0.858128
O O15 0.383140 0.000000 0.869469
#
# Coordination Sequence:
#
# PCOD8272652 Si02
#       5
#    16  16  16   8  16
#     4  10  21  36  53  73  99 134 176 222 274 328
#     4  10  21  34  55  83 114 147 187 226 276 327
#     4   9  18  34  56  79 109 145 182 226 273 329
#     4   9  20  38  60  84 113 151 192 232 275 328
#     4   9  19  35  54  78 105 138 177 218 270 324
#
# _framework density 17.520054999999999
#
# number of rings (size 3 to 8) (size 9 to 14) (size 15 to 20)
#    0.667    1.889    0.000    3.333    0.000    4.444 
#    0.000    4.444    0.000    0.000    0.000    4.667 
#    0.000    0.000    0.000    0.000    0.000    0.000 
#
# Total GULP energy -446264.049270 kJ/mol
# GULP energy per Si atom -12396.223591 kJ/mol
# Density = 1.748018 g / cm^3
# Si number density = 17.520055 Si / 1000 Ang^3
#
#
#
# Elastic Constant Matrix: (Units=GPa)
#
#
# Indices 1 2 3 4 5 6 
#
# 1 86.1862 49.4275 60.9960 0.0000 0.0000 0.0000
# 2 49.4275 86.9738 55.6094 0.0000 0.0000 0.0000
# 3 60.9960 55.6094 109.7999 0.0000 0.0000 0.0000
# 4 0.0000 0.0000 0.0000 44.0171 0.0000 0.0000
# 5 0.0000 0.0000 0.0000 0.0000 19.8516 0.0000
# 6 0.0000 0.0000 0.0000 0.0000 0.0000 35.9786
#
#
#
# Elastic Compliance Matrix: (Units=1/GPa)
#
#
# Indices 1 2 3 4 5 6 
#
# 1 0.021524 -0.006784 -0.008521 0.000000 0.000000 0.000000
# 2 -0.006784 0.019142 -0.005926 0.000000 0.000000 0.000000
# 3 -0.008521 -0.005926 0.016843 0.000000 0.000000 0.000000
# 4 0.000000 0.000000 0.000000 0.022718 0.000000 0.000000
# 5 0.000000 0.000000 0.000000 0.000000 0.050374 0.000000
# 6 0.000000 0.000000 0.000000 0.000000 0.000000 0.027794
#
#
# Mechanical properties :
#
#
# Convention : Reuss Voigt Hill
#
# Bulk Modulus (GPa) = 66.46225 68.33617 67.39921
# Shear Modulus (GPa) = 24.28684 27.76461 26.02572
#
# Velocity S-wave (km/s) = 3.72725 3.98519 3.85838
# Velocity P-wave (km/s) = 7.51934 7.76304 7.64217
#
# Compressibility (1/GPa) = 0.01504614
#
# Stress axis : x y z
#
# Youngs Moduli (GPa) = 46.45987 52.24093 59.37341
#
# Poissons Ratio (x) = 0.35439 0.50593
# Poissons Ratio (y) = 0.31518 0.35186
# Poissons Ratio (z) = 0.39589 0.30959
#
# Static dielectric constant tensor:
#      x y z
#    x 3.171160 0.000000 0.000000 
#    y 0.000000 2.748690 0.000000 
#    z 0.000000 0.000000 3.178760 
# 
# 
# High freq. dielectric constant tensor:
#      x y z
#    x 1.676920 0.000000 0.000000 
#    y 0.000000 1.675110 0.000000 
#    z 0.000000 0.000000 1.671860 
# 
# From -- ./inp_files/70753.got.cif
#   From: 2010.03.12/outbox.cif.g09.slc.cpg/sg65_36_cif.got.tgz:70753.got - 2010.04.10 20:52:16.
