data_PCOD8272822
_publ_section_title
;
Structure prediction by ZEFSAII (Michael W. Deem and Ramdas Pophale) SiO2 
 PCOD8272822
Probable space group: C M M M
;
_chemical_formula_sum "Si O2"
_cell_formula_units_Z 104
_cell_length_a 28.855446
_cell_length_b 9.348824
_cell_length_c 20.808041
_cell_angle_alpha 90.000000
_cell_angle_beta 90.000000
_cell_angle_gamma 90.000000
_cell_volume 5613.270487
_symmetry_space_group_name_H-M "C M M M"
_symmetry_group_IT_number 65
_symmetry_cell_setting 'orthorhombic'
loop_
_space_group_symop_operation_xyz
x,y,z
-x,-y,z
x,-y,-z
-x,y,-z
-x,-y,-z
x,y,-z
-x,y,z
x,-y,z
1/2+x,1/2+y,z
1/2-x,1/2-y,z
1/2+x,1/2-y,-z
1/2-x,1/2+y,-z
1/2-x,1/2-y,-z
1/2+x,1/2+y,-z
1/2-x,1/2+y,z
1/2+x,1/2-y,z
loop_
_atom_site_type_symbol
_atom_site_label
_atom_site_fract_x
_atom_site_fract_y
_atom_site_fract_z
Si Si1 0.294027 0.663008 0.780646
Si Si2 0.445011 0.664580 0.875706
Si Si3 0.393346 0.757465 0.630249
Si Si4 0.793044 0.840042 0.372118
Si Si5 0.550220 0.000000 0.572605
Si Si6 0.444890 0.163613 0.000000
Si Si7 0.885693 0.330910 0.221680
Si Si8 0.444989 0.500000 0.574681
O O1 0.295522 0.500000 0.808198
O O2 0.250000 0.750000 0.808293
O O3 0.291049 0.654766 0.704348
O O4 0.338954 0.752568 0.801883
O O5 0.500000 0.665022 0.873528
O O6 0.426826 0.500000 0.875928
O O7 0.426545 0.748791 0.938394
O O8 0.427654 0.752917 0.814292
O O9 0.340996 0.731591 0.605921
O O10 0.416996 0.869140 0.584894
O O11 0.394152 0.809658 0.703235
O O12 0.425716 0.623972 0.618999
O O13 0.750000 0.750000 0.400089
O O14 0.789982 0.000000 0.400351
O O15 0.500000 0.000000 0.610416
O O16 0.535486 0.000000 0.500000
O O17 0.500000 0.159178 0.000000
O O18 0.425543 0.000000 0.000000
O O19 0.883414 0.500000 0.205743
O O20 0.500000 0.500000 0.574948
O O21 0.427418 0.500000 0.500000
#
# Coordination Sequence:
#
# PCOD8272822 Si02
#       8
#    16  16  16  16   8   8  16   8
#     4   9  17  30  51  77 109 143 179 222 270 326
#     4  10  21  35  53  78 111 151 192 233 276 327
#     4  11  22  39  59  84 112 142 180 235 288 337
#     4   9  18  31  54  82 108 137 172 214 272 340
#     4  11  24  42  61  81 105 142 191 235 279 335
#     4   9  17  33  55  77 106 147 192 231 271 325
#     4  11  22  35  52  81 116 147 183 227 280 334
#     4  11  24  42  63  81 101 140 191 235 279 339
#
# _framework density 18.527522999999999
#
# number of rings (size 3 to 8) (size 9 to 14) (size 15 to 20)
#    0.000    1.923    1.538    2.538    3.231    6.154 
#    0.000    0.000    0.000    2.769    0.000    0.538 
#    0.000    0.000    0.000    0.000    0.000    0.000 
#
# Total GULP energy -644478.973226 kJ/mol
# GULP energy per Si atom -12393.826408 kJ/mol
# Density = 1.848535 g / cm^3
# Si number density = 18.527523 Si / 1000 Ang^3
#
#
#
# Elastic Constant Matrix: (Units=GPa)
#
#
# Indices 1 2 3 4 5 6 
#
# 1 104.4000 62.7854 27.0994 0.0000 0.0000 0.0000
# 2 62.7854 185.5035 29.4802 0.0000 0.0000 0.0000
# 3 27.0994 29.4802 38.5852 0.0000 0.0000 0.0000
# 4 0.0000 0.0000 0.0000 52.7526 0.0000 0.0000
# 5 0.0000 0.0000 0.0000 0.0000 1.3209 0.0000
# 6 0.0000 0.0000 0.0000 0.0000 0.0000-1020.9099
#
#
#
# Elastic Compliance Matrix: (Units=1/GPa)
#
#
# Indices 1 2 3 4 5 6 
#
# 1 0.013422 -0.003466 -0.006779 0.000000 0.000000 0.000000
# 2 -0.003466 0.007031 -0.002938 0.000000 0.000000 0.000000
# 3 -0.006779 -0.002938 0.032922 0.000000 0.000000 0.000000
# 4 0.000000 0.000000 0.000000 0.018956 0.000000 0.000000
# 5 0.000000 0.000000 0.000000 0.000000 0.757045 0.000000
# 6 0.000000 0.000000 0.000000 0.000000 0.000000 -0.000980
#
#
# Mechanical properties :
#
#
# Convention : Reuss Voigt Hill
#
# Bulk Modulus (GPa) = 37.02242 63.02429 50.02336
# Shear Modulus (GPa) = 5.78861 -179.42570 -86.81854
#
# Velocity S-wave (km/s) = 1.76949 -9.85155 -6.85281
# Velocity P-wave (km/s) = 4.91941 9.76287 5.96293
#
# Compressibility (1/GPa) = 0.02701066
#
# Stress axis : x y z
#
# Youngs Moduli (GPa) = 74.50227 142.23661 30.37461
#
# Poissons Ratio (x) = 0.49294 0.20591
# Poissons Ratio (y) = 0.25820 0.08923
# Poissons Ratio (z) = 0.50506 0.41783
#
# Static dielectric constant tensor:
#      x y z
#    x 3.488100 0.000000 0.000000 
#    y 0.000000 3.730410 0.000000 
#    z 0.000000 0.000000 3.102120 
# 
# 
# High freq. dielectric constant tensor:
#      x y z
#    x 1.718070 0.000000 0.000000 
#    y 0.000000 1.744590 0.000000 
#    z 0.000000 0.000000 1.677720 
# 
# From -- ./inp_files/66477.got.cif
#   From: 2010.03.12/outbox.cif.g09.slc.cpg/sg65_34_cif.got.tgz:66477.got - 2010.04.10 20:52:16.
