data_PCOD8272924
_publ_section_title
;
Structure prediction by ZEFSAII (Michael W. Deem and Ramdas Pophale) SiO2 
 PCOD8272924
Probable space group: C M M M
;
_chemical_formula_sum "Si O2"
_cell_formula_units_Z 96
_cell_length_a 19.883508
_cell_length_b 9.482668
_cell_length_c 30.142043
_cell_angle_alpha 90.000000
_cell_angle_beta 90.000000
_cell_angle_gamma 90.000000
_cell_volume 5683.243175
_symmetry_space_group_name_H-M "C M M M"
_symmetry_group_IT_number 65
_symmetry_cell_setting 'orthorhombic'
loop_
_space_group_symop_operation_xyz
x,y,z
-x,-y,z
x,-y,-z
-x,y,-z
-x,-y,-z
x,y,-z
-x,y,z
x,-y,z
1/2+x,1/2+y,z
1/2-x,1/2-y,z
1/2+x,1/2-y,-z
1/2-x,1/2+y,-z
1/2-x,1/2-y,-z
1/2+x,1/2+y,-z
1/2-x,1/2+y,z
1/2+x,1/2-y,z
loop_
_atom_site_type_symbol
_atom_site_label
_atom_site_fract_x
_atom_site_fract_y
_atom_site_fract_z
Si Si1 0.419934 0.655988 0.216965
Si Si2 0.425467 0.331914 0.119747
Si Si3 0.578553 0.835513 0.394860
Si Si4 0.079784 0.344598 0.704621
Si Si5 0.315994 0.664210 0.050715
Si Si6 0.314893 0.662743 0.552471
O O1 0.500000 0.650004 0.220440
O O2 0.389437 0.500000 0.222282
O O3 0.400752 0.719820 0.168541
O O4 0.388500 0.747171 0.256979
O O5 0.500000 0.272059 0.109206
O O6 0.428427 0.500000 0.120420
O O7 0.375415 0.277101 0.081827
O O8 0.500000 0.808877 0.403600
O O9 0.598468 0.791156 0.344614
O O10 0.618992 0.734547 0.427536
O O11 0.595857 0.000000 0.403309
O O12 0.109816 0.500000 0.711925
O O13 0.000000 0.349584 0.709088
O O14 0.301536 0.500000 0.059302
O O15 0.250000 0.750000 0.063419
O O16 0.337633 0.691605 0.000000
O O17 0.321890 0.671906 0.500000
O O18 0.308746 0.500000 0.568057
O O19 0.250000 0.750000 0.569061
#
# Coordination Sequence:
#
# PCOD8272924 Si02
#       6
#    16  16  16  16  16  16
#     4   8  13  22  38  60  85 112 142 179 222 263
#     4   8  14  25  42  65  89 111 142 185 224 257
#     4   9  18  32  50  73 100 128 157 192 234 275
#     4   8  14  25  41  63  92 122 150 181 218 263
#     4   9  17  29  45  63  84 113 146 179 218 265
#     4  10  21  36  53  72  95 125 160 196 234 279
#
# _framework density 16.891763999999998
#
# number of rings (size 3 to 8) (size 9 to 14) (size 15 to 20)
#    0.000    3.333    0.000    2.500    0.000    2.667 
#    0.000    5.833    0.000    2.500    0.000    7.000 
#    0.000    0.000    0.000    0.000    0.000    0.000 
#
# Total GULP energy -594895.795542 kJ/mol
# GULP energy per Si atom -12393.662407 kJ/mol
# Density = 1.685332 g / cm^3
# Si number density = 16.891764 Si / 1000 Ang^3
#
#
#
# Elastic Constant Matrix: (Units=GPa)
#
#
# Indices 1 2 3 4 5 6 
#
# 1 67.6839 44.0417 46.8955 0.0000 0.0000 0.0000
# 2 44.0417 77.4942 46.9965 0.0000 0.0000 0.0000
# 3 46.8955 46.9965 74.0085 0.0000 0.0000 0.0000
# 4 0.0000 0.0000 0.0000 25.3756 0.0000 0.0000
# 5 0.0000 0.0000 0.0000 0.0000 4.6847 0.0000
# 6 0.0000 0.0000 0.0000 0.0000 0.0000 21.9503
#
#
#
# Elastic Compliance Matrix: (Units=1/GPa)
#
#
# Indices 1 2 3 4 5 6 
#
# 1 0.029674 -0.008882 -0.013163 0.000000 0.000000 0.000000
# 2 -0.008882 0.023644 -0.009387 0.000000 0.000000 0.000000
# 3 -0.013163 -0.009387 0.027813 0.000000 0.000000 0.000000
# 4 0.000000 0.000000 0.000000 0.039408 0.000000 0.000000
# 5 0.000000 0.000000 0.000000 0.000000 0.213461 0.000000
# 6 0.000000 0.000000 0.000000 0.000000 0.000000 0.045557
#
#
# Mechanical properties :
#
#
# Convention : Reuss Voigt Hill
#
# Bulk Modulus (GPa) = 54.73712 55.00601 54.87156
# Shear Modulus (GPa) = 11.14802 15.81897 13.48350
#
# Velocity S-wave (km/s) = 2.57177 3.06353 2.82836
# Velocity P-wave (km/s) = 6.42601 6.71924 6.57426
#
# Compressibility (1/GPa) = 0.01826914
#
# Stress axis : x y z
#
# Youngs Moduli (GPa) = 33.69970 42.29331 35.95404
#
# Poissons Ratio (x) = 0.37564 0.47326
# Poissons Ratio (y) = 0.29931 0.33749
# Poissons Ratio (z) = 0.44358 0.39699
#
# Static dielectric constant tensor:
#      x y z
#    x 2.902930 0.000000 0.000000 
#    y 0.000000 3.206130 0.000000 
#    z 0.000000 0.000000 3.383450 
# 
# 
# High freq. dielectric constant tensor:
#      x y z
#    x 1.612700 0.000000 0.000000 
#    y 0.000000 1.635360 0.000000 
#    z 0.000000 0.000000 1.660260 
# 
# From -- ./inp_files/75682.got.cif
#   From: 2010.03.12/outbox.cif.g09.slc.cpg/sg65_38_cif.got.tgz:75682.got - 2010.04.10 20:52:16.
