data_PCOD8272492
_publ_section_title
;
Structure prediction by ZEFSAII (Michael W. Deem and Ramdas Pophale) SiO2 
 PCOD8272492
Probable space group: C M M M
;
_chemical_formula_sum "Si O2"
_cell_formula_units_Z 90
_cell_length_a 23.017559
_cell_length_b 17.454785
_cell_length_c 11.347152
_cell_angle_alpha 90.000000
_cell_angle_beta 90.000000
_cell_angle_gamma 90.000000
_cell_volume 4558.906038
_symmetry_space_group_name_H-M "C M M M"
_symmetry_group_IT_number 65
_symmetry_cell_setting 'orthorhombic'
loop_
_space_group_symop_operation_xyz
x,y,z
-x,-y,z
x,-y,-z
-x,y,-z
-x,-y,-z
x,y,-z
-x,y,z
x,-y,z
1/2+x,1/2+y,z
1/2-x,1/2-y,z
1/2+x,1/2-y,-z
1/2-x,1/2+y,-z
1/2-x,1/2-y,-z
1/2+x,1/2+y,-z
1/2-x,1/2+y,z
1/2+x,1/2-y,z
loop_
_atom_site_type_symbol
_atom_site_label
_atom_site_fract_x
_atom_site_fract_y
_atom_site_fract_z
Si Si1 0.564935 0.214337 0.751699
Si Si2 0.785419 0.411525 0.000000
Si Si3 0.914634 0.644453 0.000000
Si Si4 0.252693 0.589261 0.747304
Si Si5 0.368322 0.086881 0.363120
Si Si6 0.133875 0.149288 0.640028
Si Si7 0.435044 0.500000 0.639600
Si Si8 0.500000 0.000000 0.000000
O O1 0.500000 0.241047 0.718998
O O2 0.569181 0.197114 0.889270
O O3 0.577620 0.136302 0.680662
O O4 0.609548 0.278513 0.709670
O O5 0.745716 0.392176 0.113482
O O6 0.802945 0.500000 0.000000
O O7 0.845446 0.366144 0.000000
O O8 0.949115 0.564525 0.000000
O O9 0.264087 0.500000 0.719420
O O10 0.189602 0.614420 0.702161
O O11 0.299440 0.639400 0.677529
O O12 0.357478 0.097458 0.500000
O O13 0.383888 0.000000 0.329228
O O14 0.129225 0.162398 0.500000
O O15 0.098317 0.075199 0.683762
O O16 0.500000 0.500000 0.692899
O O17 0.437319 0.500000 0.500000
#
# Coordination Sequence:
#
# PCOD8272492 Si02
#       8
#    16   8   8  16  16  16   8   2
#     4  12  26  42  62  93 132 169 214 273 327 379
#     4  10  20  37  66  96 125 161 209 273 332 376
#     4  12  24  43  67  97 126 171 225 273 317 382
#     4  10  20  38  65  96 128 163 216 275 326 388
#     4  10  22  38  60  89 126 170 209 259 328 400
#     4  11  23  40  65  94 130 175 217 269 329 390
#     4   9  18  36  63  91 118 165 227 268 307 376
#     4  12  24  40  80  96 118 182 240 268 314 386
#
# _framework density 19.741578000000001
#
# number of rings (size 3 to 8) (size 9 to 14) (size 15 to 20)
#    0.000    1.333    4.000    1.600    1.244    4.622 
#    0.000    3.556    0.000    0.000    0.000    2.489 
#    0.000    0.000    0.000    0.000    0.000    0.000 
#
# Total GULP energy -557620.272993 kJ/mol
# GULP energy per Si atom -12391.561622 kJ/mol
# Density = 1.969664 g / cm^3
# Si number density = 19.741578 Si / 1000 Ang^3
#
#
#
# Elastic Constant Matrix: (Units=GPa)
#
#
# Indices 1 2 3 4 5 6 
#
# 1 70.3427 34.5236 22.6435 0.0000 0.0000 0.0000
# 2 34.5236 91.6307 46.1801 0.0000 0.0000 0.0000
# 3 22.6435 46.1801 88.9994 0.0000 0.0000 0.0000
# 4 0.0000 0.0000 0.0000 24.7410 0.0000 0.0000
# 5 0.0000 0.0000 0.0000 0.0000 16.9424 0.0000
# 6 0.0000 0.0000 0.0000 0.0000 0.0000 25.0399
#
#
#
# Elastic Compliance Matrix: (Units=1/GPa)
#
#
# Indices 1 2 3 4 5 6 
#
# 1 0.017569 -0.005913 -0.001402 0.000000 0.000000 0.000000
# 2 -0.005913 0.016768 -0.007196 0.000000 0.000000 0.000000
# 3 -0.001402 -0.007196 0.015327 0.000000 0.000000 0.000000
# 4 0.000000 0.000000 0.000000 0.040419 0.000000 0.000000
# 5 0.000000 0.000000 0.000000 0.000000 0.059024 0.000000
# 6 0.000000 0.000000 0.000000 0.000000 0.000000 0.039936
#
#
# Mechanical properties :
#
#
# Convention : Reuss Voigt Hill
#
# Bulk Modulus (GPa) = 48.44532 50.85189 49.64860
# Shear Modulus (GPa) = 22.22759 23.18636 22.70698
#
# Velocity S-wave (km/s) = 3.35913 3.43081 3.39516
# Velocity P-wave (km/s) = 6.29587 6.44272 6.36972
#
# Compressibility (1/GPa) = 0.02064183
#
# Stress axis : x y z
#
# Youngs Moduli (GPa) = 56.91683 59.63752 65.24585
#
# Poissons Ratio (x) = 0.35264 0.09147
# Poissons Ratio (y) = 0.33656 0.46952
# Poissons Ratio (z) = 0.07979 0.42916
#
# Static dielectric constant tensor:
#      x y z
#    x 3.646160 0.000000 0.000000 
#    y 0.000000 3.549510 0.000000 
#    z 0.000000 0.000000 3.665530 
# 
# 
# High freq. dielectric constant tensor:
#      x y z
#    x 1.777770 0.000000 0.000000 
#    y 0.000000 1.764820 0.000000 
#    z 0.000000 0.000000 1.764290 
# 
# From -- ./inp_files/28820.got.cif
#   From: 2010.03.12/outbox.cif.g09.slc.cpg/sg65_15_cif.got.tgz:28820.got - 2010.04.10 20:52:16.
