data_PCOD8272365
_publ_section_title
;
Structure prediction by ZEFSAII (Michael W. Deem and Ramdas Pophale) SiO2 
 PCOD8272365
Probable space group: C M M M
;
_chemical_formula_sum "Si O2"
_cell_formula_units_Z 56
_cell_length_a 14.555837
_cell_length_b 12.576651
_cell_length_c 14.052322
_cell_angle_alpha 90.000000
_cell_angle_beta 90.000000
_cell_angle_gamma 90.000000
_cell_volume 2572.469805
_symmetry_space_group_name_H-M "C M M M"
_symmetry_group_IT_number 65
_symmetry_cell_setting 'orthorhombic'
loop_
_space_group_symop_operation_xyz
x,y,z
-x,-y,z
x,-y,-z
-x,y,-z
-x,-y,-z
x,y,-z
-x,y,z
x,-y,z
1/2+x,1/2+y,z
1/2-x,1/2-y,z
1/2+x,1/2-y,-z
1/2-x,1/2+y,-z
1/2-x,1/2-y,-z
1/2+x,1/2+y,-z
1/2-x,1/2+y,z
1/2+x,1/2-y,z
loop_
_atom_site_type_symbol
_atom_site_label
_atom_site_fract_x
_atom_site_fract_y
_atom_site_fract_z
Si Si1 0.853490 0.775844 0.798630
Si Si2 0.896055 0.000000 0.764986
Si Si3 0.895356 0.691933 0.606082
Si Si4 0.500000 0.876775 0.887448
Si Si5 0.740231 0.000000 0.608111
O O1 0.750000 0.750000 0.824901
O O2 0.879195 0.895574 0.831606
O O3 0.874426 0.781200 0.684745
O O4 0.911004 0.683067 0.848058
O O5 0.826213 0.000000 0.677204
O O6 0.000000 0.000000 0.726087
O O7 0.878759 0.739199 0.500000
O O8 0.824485 0.599507 0.629323
O O9 0.000000 0.649625 0.615238
O O10 0.500000 0.000000 0.853539
O O11 0.500000 0.869845 0.000000
O O12 0.775964 0.000000 0.500000
#
# Coordination Sequence:
#
# PCOD8272365 Si02
#       5
#    16   8  16   8   8
#     4  12  25  43  73 102 141 187 228 280 344 410
#     4  12  24  42  61 100 138 187 235 271 337 417
#     4  10  20  36  61  98 139 187 240 287 336 396
#     4  11  28  53  80 108 133 165 225 293 350 416
#     4  10  21  35  58  95 141 186 241 295 335 386
#
# _framework density 21.768962999999999
#
# number of rings (size 3 to 8) (size 9 to 14) (size 15 to 20)
#    0.000    1.000    5.714    0.429    4.000    4.286 
#    0.000    1.429    0.000    0.000    0.000    0.000 
#    0.000    0.000    0.000    0.000    0.000    0.000 
#
# Total GULP energy -347140.757311 kJ/mol
# GULP energy per Si atom -12397.884190 kJ/mol
# Density = 2.171942 g / cm^3
# Si number density = 21.768963 Si / 1000 Ang^3
#
#
#
# Elastic Constant Matrix: (Units=GPa)
#
#
# Indices 1 2 3 4 5 6 
#
# 1 192.3508 64.7956 27.5427 0.0000 0.0000 0.0000
# 2 64.7956 174.3818 43.1866 0.0000 0.0000 0.0000
# 3 27.5427 43.1866 63.6314 0.0000 0.0000 0.0000
# 4 0.0000 0.0000 0.0000 6.4148 0.0000 0.0000
# 5 0.0000 0.0000 0.0000 0.0000 7.1688 0.0000
# 6 0.0000 0.0000 0.0000 0.0000 0.0000 27.1853
#
#
#
# Elastic Compliance Matrix: (Units=1/GPa)
#
#
# Indices 1 2 3 4 5 6 
#
# 1 0.006032 -0.001917 -0.001310 0.000000 0.000000 0.000000
# 2 -0.001917 0.007502 -0.004262 0.000000 0.000000 0.000000
# 3 -0.001310 -0.004262 0.019175 0.000000 0.000000 0.000000
# 4 0.000000 0.000000 0.000000 0.155889 0.000000 0.000000
# 5 0.000000 0.000000 0.000000 0.000000 0.139494 0.000000
# 6 0.000000 0.000000 0.000000 0.000000 0.000000 0.036785
#
#
# Mechanical properties :
#
#
# Convention : Reuss Voigt Hill
#
# Bulk Modulus (GPa) = 56.39624 77.93490 67.16557
# Shear Modulus (GPa) = 12.96121 27.80970 20.38545
#
# Velocity S-wave (km/s) = 2.44273 3.57808 3.06346
# Velocity P-wave (km/s) = 5.82399 7.27660 6.59044
#
# Compressibility (1/GPa) = 0.01773168
#
# Stress axis : x y z
#
# Youngs Moduli (GPa) = 165.77804 133.29116 52.15065
#
# Poissons Ratio (x) = 0.25552 0.06832
# Poissons Ratio (y) = 0.31779 0.22227
# Poissons Ratio (z) = 0.21716 0.56810
#
# Static dielectric constant tensor:
#      x y z
#    x 4.132300 0.000000 0.000000 
#    y 0.000000 4.213460 0.000000 
#    z 0.000000 0.000000 3.709870 
# 
# 
# High freq. dielectric constant tensor:
#      x y z
#    x 1.878740 0.000000 0.000000 
#    y 0.000000 1.865600 0.000000 
#    z 0.000000 0.000000 1.818680 
# 
# From -- ./inp_files/39300.got.cif
#   From: 2010.03.12/outbox.cif.g09.slc.cpg/sg65_20_cif.got.tgz:39300.got - 2010.04.10 20:52:16.
