data_PCOD8272069
_publ_section_title
;
Structure prediction by ZEFSAII (Michael W. Deem and Ramdas Pophale) SiO2 
 PCOD8272069
Probable space group: C M M M
;
_chemical_formula_sum "Si O2"
_cell_formula_units_Z 88
_cell_length_a 28.336375
_cell_length_b 8.764090
_cell_length_c 17.660241
_cell_angle_alpha 90.000000
_cell_angle_beta 90.000000
_cell_angle_gamma 90.000000
_cell_volume 4385.789121
_symmetry_space_group_name_H-M "C M M M"
_symmetry_group_IT_number 65
_symmetry_cell_setting 'orthorhombic'
loop_
_space_group_symop_operation_xyz
x,y,z
-x,-y,z
x,-y,-z
-x,y,-z
-x,-y,-z
x,y,-z
-x,y,z
x,-y,z
1/2+x,1/2+y,z
1/2-x,1/2-y,z
1/2+x,1/2-y,-z
1/2-x,1/2+y,-z
1/2-x,1/2-y,-z
1/2+x,1/2+y,-z
1/2-x,1/2+y,z
1/2+x,1/2-y,z
loop_
_atom_site_type_symbol
_atom_site_label
_atom_site_fract_x
_atom_site_fract_y
_atom_site_fract_z
Si Si1 0.107581 0.324580 0.413374
Si Si2 0.944896 0.176836 0.280991
Si Si3 0.299130 0.677967 0.641787
Si Si4 0.555740 0.324711 0.000000
Si Si5 0.893599 0.320193 0.858807
Si Si6 0.700966 0.322613 0.181340
O O1 0.091521 0.308080 0.500000
O O2 0.107179 0.500000 0.387081
O O3 0.070248 0.229063 0.364412
O O4 0.160008 0.259284 0.404865
O O5 0.916333 0.274636 0.220700
O O6 0.000000 0.205862 0.269845
O O7 0.931661 0.000000 0.269816
O O8 0.298817 0.500000 0.622798
O O9 0.250000 0.750000 0.614924
O O10 0.307789 0.709039 0.730245
O O11 0.574889 0.245034 0.074490
O O12 0.571550 0.500000 0.000000
O O13 0.500000 0.307629 0.000000
O O14 0.891440 0.500000 0.865671
O O15 0.840837 0.255039 0.865827
O O16 0.702160 0.500000 0.162449
O O17 0.750000 0.250000 0.154255
#
# Coordination Sequence:
#
# PCOD8272069 Si02
#       6
#    16  16  16   8  16  16
#     4  11  24  40  59  86 121 159 203 257 313 368
#     4  11  24  42  64  89 118 158 207 255 308 370
#     4  10  20  35  59  87 120 160 203 251 304 364
#     4  11  25  45  68  95 130 169 209 257 309 361
#     4  12  24  40  66  97 130 165 204 252 307 366
#     4  10  20  36  61  93 127 164 207 251 301 362
#
# _framework density 20.064803999999999
#
# number of rings (size 3 to 8) (size 9 to 14) (size 15 to 20)
#    0.000    1.182    1.818    4.636    0.000    8.000 
#    0.000    2.273    0.000    0.000    0.000    0.000 
#    0.000    0.000    0.000    0.000    0.000    0.000 
#
# Total GULP energy -545920.554522 kJ/mol
# GULP energy per Si atom -12407.285330 kJ/mol
# Density = 2.001914 g / cm^3
# Si number density = 20.064804 Si / 1000 Ang^3
#
#
#
# Elastic Constant Matrix: (Units=GPa)
#
#
# Indices 1 2 3 4 5 6 
#
# 1 106.3246 67.0487 33.6841 0.0000 0.0000 0.0000
# 2 67.0487 138.5636 36.9512 0.0000 0.0000 0.0000
# 3 33.6841 36.9512 69.4493 0.0000 0.0000 0.0000
# 4 0.0000 0.0000 0.0000 33.6072 0.0000 0.0000
# 5 0.0000 0.0000 0.0000 0.0000 27.0365 0.0000
# 6 0.0000 0.0000 0.0000 0.0000 0.0000 39.0686
#
#
#
# Elastic Compliance Matrix: (Units=1/GPa)
#
#
# Indices 1 2 3 4 5 6 
#
# 1 0.014349 -0.005929 -0.003805 0.000000 0.000000 0.000000
# 2 -0.005929 0.010860 -0.002903 0.000000 0.000000 0.000000
# 3 -0.003805 -0.002903 0.017789 0.000000 0.000000 0.000000
# 4 0.000000 0.000000 0.000000 0.029756 0.000000 0.000000
# 5 0.000000 0.000000 0.000000 0.000000 0.036987 0.000000
# 6 0.000000 0.000000 0.000000 0.000000 0.000000 0.025596
#
#
# Mechanical properties :
#
#
# Convention : Reuss Voigt Hill
#
# Bulk Modulus (GPa) = 56.41722 65.52282 60.97002
# Shear Modulus (GPa) = 30.02682 31.71935 30.87309
#
# Velocity S-wave (km/s) = 3.87265 3.98030 3.92684
# Velocity P-wave (km/s) = 6.94083 7.33827 7.14231
#
# Compressibility (1/GPa) = 0.01772508
#
# Stress axis : x y z
#
# Youngs Moduli (GPa) = 69.68976 92.08352 56.21479
#
# Poissons Ratio (x) = 0.54593 0.21391
# Poissons Ratio (y) = 0.41317 0.16316
# Poissons Ratio (z) = 0.26519 0.26727
#
# Static dielectric constant tensor:
#      x y z
#    x 3.758590 0.000000 0.000000 
#    y 0.000000 3.817220 0.000000 
#    z 0.000000 0.000000 3.493110 
# 
# 
# High freq. dielectric constant tensor:
#      x y z
#    x 1.796780 0.000000 0.000000 
#    y 0.000000 1.801420 0.000000 
#    z 0.000000 0.000000 1.770240 
# 
# From -- ./inp_files/57970.got.cif
#   From: 2010.03.12/outbox.cif.g09.slc.cpg/sg65_29_cif.got.tgz:57970.got - 2010.04.10 20:52:16.
