data_PCOD8272198
_publ_section_title
;
Structure prediction by ZEFSAII (Michael W. Deem and Ramdas Pophale) SiO2 
 PCOD8272198
Probable space group: C M M M
;
_chemical_formula_sum "Si O2"
_cell_formula_units_Z 72
_cell_length_a 27.152644
_cell_length_b 16.949907
_cell_length_c 7.580112
_cell_angle_alpha 90.000000
_cell_angle_beta 90.000000
_cell_angle_gamma 90.000000
_cell_volume 3488.631259
_symmetry_space_group_name_H-M "C M M M"
_symmetry_group_IT_number 65
_symmetry_cell_setting 'orthorhombic'
loop_
_space_group_symop_operation_xyz
x,y,z
-x,-y,z
x,-y,-z
-x,y,-z
-x,-y,-z
x,y,-z
-x,y,z
x,-y,z
1/2+x,1/2+y,z
1/2-x,1/2-y,z
1/2+x,1/2-y,-z
1/2-x,1/2+y,-z
1/2-x,1/2-y,-z
1/2+x,1/2+y,-z
1/2-x,1/2+y,z
1/2+x,1/2-y,z
loop_
_atom_site_type_symbol
_atom_site_label
_atom_site_fract_x
_atom_site_fract_y
_atom_site_fract_z
Si Si1 0.615393 0.652483 0.798506
Si Si2 0.943992 0.000000 0.707500
Si Si3 0.781462 0.906836 0.203225
Si Si4 0.097092 0.593555 0.500000
Si Si5 0.791840 0.593402 0.500000
Si Si6 0.057066 0.302009 0.204626
O O1 0.581009 0.577090 0.784133
O O2 0.669514 0.635449 0.718991
O O3 0.588497 0.728659 0.715573
O O4 0.623848 0.672428 0.000000
O O5 0.938792 0.000000 0.500000
O O6 0.000000 0.000000 0.771599
O O7 0.736096 0.877344 0.323175
O O8 0.790338 0.000000 0.221730
O O9 0.770090 0.884462 0.000000
O O10 0.094975 0.500000 0.500000
O O11 0.152981 0.626671 0.500000
O O12 0.069937 0.622387 0.677137
O O13 0.793471 0.500000 0.500000
O O14 0.000000 0.279859 0.226288
O O15 0.069230 0.321061 0.000000
#
# Coordination Sequence:
#
# PCOD8272198 Si02
#       6
#    16   8  16   8   8  16
#     4  10  20  36  57  84 121 166 206 239 282 338
#     4  11  23  31  47  85 125 167 215 251 275 319
#     4   9  17  31  54  86 120 159 203 238 275 329
#     4  11  25  45  67  90 111 144 196 252 317 381
#     4   9  20  36  58  84 112 150 191 244 306 353
#     4  10  23  42  64  90 122 158 192 240 305 361
#
# _framework density 20.638466999999999
#
# number of rings (size 3 to 8) (size 9 to 14) (size 15 to 20)
#    0.000    2.111    1.111    1.333    3.111    4.000 
#    0.000    5.556    0.000    4.000    0.000    0.000 
#    0.000    0.000    0.000    0.000    0.000    0.000 
#
# Total GULP energy -446336.139787 kJ/mol
# GULP energy per Si atom -12398.226105 kJ/mol
# Density = 2.059149 g / cm^3
# Si number density = 20.638467 Si / 1000 Ang^3
#
#
#
# Elastic Constant Matrix: (Units=GPa)
#
#
# Indices 1 2 3 4 5 6 
#
# 1 100.6343 27.9503 49.0142 0.0000 0.0000 0.0000
# 2 27.9503 86.5911 31.7542 0.0000 0.0000 0.0000
# 3 49.0142 31.7542 98.0249 0.0000 0.0000 0.0000
# 4 0.0000 0.0000 0.0000 21.8614 0.0000 0.0000
# 5 0.0000 0.0000 0.0000 0.0000 33.3078 0.0000
# 6 0.0000 0.0000 0.0000 0.0000 0.0000 27.5060
#
#
#
# Elastic Compliance Matrix: (Units=1/GPa)
#
#
# Indices 1 2 3 4 5 6 
#
# 1 0.013474 -0.002132 -0.006047 0.000000 0.000000 0.000000
# 2 -0.002132 0.013443 -0.003289 0.000000 0.000000 0.000000
# 3 -0.006047 -0.003289 0.014290 0.000000 0.000000 0.000000
# 4 0.000000 0.000000 0.000000 0.045743 0.000000 0.000000
# 5 0.000000 0.000000 0.000000 0.000000 0.030023 0.000000
# 6 0.000000 0.000000 0.000000 0.000000 0.000000 0.036356
#
#
# Mechanical properties :
#
#
# Convention : Reuss Voigt Hill
#
# Bulk Modulus (GPa) = 54.72662 55.85421 55.29041
# Shear Modulus (GPa) = 27.41924 28.30383 27.86154
#
# Velocity S-wave (km/s) = 3.64888 3.70728 3.67819
# Velocity P-wave (km/s) = 6.65784 6.74145 6.69977
#
# Compressibility (1/GPa) = 0.01827264
#
# Stress axis : x y z
#
# Youngs Moduli (GPa) = 74.21629 74.39010 69.97761
#
# Poissons Ratio (x) = 0.15859 0.42314
# Poissons Ratio (y) = 0.15822 0.23013
# Poissons Ratio (z) = 0.44877 0.24464
#
# Static dielectric constant tensor:
#      x y z
#    x 4.015450 0.000000 0.000000 
#    y 0.000000 3.520130 0.000000 
#    z 0.000000 0.000000 3.754210 
# 
# 
# High freq. dielectric constant tensor:
#      x y z
#    x 1.816200 0.000000 0.000000 
#    y 0.000000 1.783980 0.000000 
#    z 0.000000 0.000000 1.809620 
# 
# From -- ./inp_files/13648.got.cif
#   From: 2010.03.12/outbox.cif.g09.slc.cpg/sg65_7_cif.got.tgz:13648.got - 2010.04.10 20:52:16.
