data_PCOD8272785
_publ_section_title
;
Structure prediction by ZEFSAII (Michael W. Deem and Ramdas Pophale) SiO2 
 PCOD8272785
Probable space group: C M M M
;
_chemical_formula_sum "Si O2"
_cell_formula_units_Z 104
_cell_length_a 19.387705
_cell_length_b 15.674422
_cell_length_c 18.993984
_cell_angle_alpha 90.000000
_cell_angle_beta 90.000000
_cell_angle_gamma 90.000000
_cell_volume 5772.102117
_symmetry_space_group_name_H-M "C M M M"
_symmetry_group_IT_number 65
_symmetry_cell_setting 'orthorhombic'
loop_
_space_group_symop_operation_xyz
x,y,z
-x,-y,z
x,-y,-z
-x,y,-z
-x,-y,-z
x,y,-z
-x,y,z
x,-y,z
1/2+x,1/2+y,z
1/2-x,1/2-y,z
1/2+x,1/2-y,-z
1/2-x,1/2+y,-z
1/2-x,1/2-y,-z
1/2+x,1/2+y,-z
1/2-x,1/2+y,z
1/2+x,1/2-y,z
loop_
_atom_site_type_symbol
_atom_site_label
_atom_site_fract_x
_atom_site_fract_y
_atom_site_fract_z
Si Si1 0.919634 0.500000 0.418795
Si Si2 0.169002 0.249249 0.300497
Si Si3 0.579177 0.347825 0.920239
Si Si4 0.420792 0.149389 0.079737
Si Si5 0.170993 0.594967 0.202675
Si Si6 0.418830 0.184937 0.417363
Si Si7 0.828643 0.094943 0.797788
O O1 0.902346 0.500000 0.500000
O O2 0.891840 0.590863 0.390131
O O3 0.000000 0.500000 0.405473
O O4 0.250000 0.250000 0.318125
O O5 0.145727 0.332525 0.256466
O O6 0.125761 0.247448 0.373074
O O7 0.146491 0.164098 0.259200
O O8 0.500000 0.366101 0.900722
O O9 0.596370 0.248633 0.911544
O O10 0.627092 0.401237 0.868608
O O11 0.594167 0.377353 0.000000
O O12 0.500000 0.131139 0.099069
O O13 0.373201 0.095860 0.131632
O O14 0.405608 0.119894 0.000000
O O15 0.163100 0.500000 0.236521
O O16 0.249775 0.613863 0.181525
O O17 0.404047 0.198327 0.500000
O O18 0.500000 0.196864 0.402155
O O19 0.836739 0.000000 0.765303
#
# Coordination Sequence:
#
# PCOD8272785 Si02
#       7
#     8  16  16  16  16  16  16
#     4   7  12  26  48  78 112 136 156 190 240 295
#     4  10  21  36  53  76 106 139 170 212 256 299
#     4   9  18  33  53  76 100 129 171 222 269 309
#     4   9  18  33  52  74 103 137 172 212 257 307
#     4  10  21  35  52  76 104 136 175 210 250 308
#     4   9  18  33  55  82 110 138 168 204 248 303
#     4  10  21  37  54  73 101 136 175 218 262 306
#
# _framework density 18.017699
#
# number of rings (size 3 to 8) (size 9 to 14) (size 15 to 20)
#    0.000    2.692    1.538    1.846    1.077    3.385 
#    0.000    4.615    0.000    0.462    0.000    1.077 
#    0.000    0.000    0.000    0.000    0.000    0.000 
#
# Total GULP energy -644526.769078 kJ/mol
# GULP energy per Si atom -12394.745559 kJ/mol
# Density = 1.797669 g / cm^3
# Si number density = 18.017699 Si / 1000 Ang^3
#
#
#
# Elastic Constant Matrix: (Units=GPa)
#
#
# Indices 1 2 3 4 5 6 
#
# 1 58.9193 37.1047 51.2930 0.0000 0.0000 0.0000
# 2 37.1047 100.5370 52.4277 0.0000 0.0000 0.0000
# 3 51.2930 52.4277 93.2054 0.0000 0.0000 0.0000
# 4 0.0000 0.0000 0.0000 21.1411 0.0000 0.0000
# 5 0.0000 0.0000 0.0000 0.0000 32.1331 0.0000
# 6 0.0000 0.0000 0.0000 0.0000 0.0000 21.6814
#
#
#
# Elastic Compliance Matrix: (Units=1/GPa)
#
#
# Indices 1 2 3 4 5 6 
#
# 1 0.033633 -0.003907 -0.016311 0.000000 0.000000 0.000000
# 2 -0.003907 0.014529 -0.006023 0.000000 0.000000 0.000000
# 3 -0.016311 -0.006023 0.023093 0.000000 0.000000 0.000000
# 4 0.000000 0.000000 0.000000 0.047301 0.000000 0.000000
# 5 0.000000 0.000000 0.000000 0.000000 0.031121 0.000000
# 6 0.000000 0.000000 0.000000 0.000000 0.000000 0.046122
#
#
# Mechanical properties :
#
#
# Convention : Reuss Voigt Hill
#
# Bulk Modulus (GPa) = 53.26603 59.36805 56.31704
# Shear Modulus (GPa) = 19.64342 22.44689 21.04515
#
# Velocity S-wave (km/s) = 3.30544 3.53345 3.42135
# Velocity P-wave (km/s) = 6.64795 7.04758 6.85068
#
# Compressibility (1/GPa) = 0.01877369
#
# Stress axis : x y z
#
# Youngs Moduli (GPa) = 29.73300 68.82759 43.30275
#
# Poissons Ratio (x) = 0.26888 0.70633
# Poissons Ratio (y) = 0.11616 0.26080
# Poissons Ratio (z) = 0.48499 0.41452
#
# Static dielectric constant tensor:
#      x y z
#    x 3.154300 0.000000 0.000000 
#    y 0.000000 3.423580 0.000000 
#    z 0.000000 0.000000 3.118350 
# 
# 
# High freq. dielectric constant tensor:
#      x y z
#    x 1.685100 0.000000 0.000000 
#    y 0.000000 1.697680 0.000000 
#    z 0.000000 0.000000 1.681700 
# 
# From -- ./inp_files/55845.got.cif
#   From: 2010.03.12/outbox.cif.g09.slc.cpg/sg65_28_cif.got.tgz:55845.got - 2010.04.10 20:52:16.
