data_PCOD8272672
_publ_section_title
;
Structure prediction by ZEFSAII (Michael W. Deem and Ramdas Pophale) SiO2 
 PCOD8272672
Probable space group: C M M M
;
_chemical_formula_sum "Si O2"
_cell_formula_units_Z 88
_cell_length_a 17.491408
_cell_length_b 27.949312
_cell_length_c 9.818339
_cell_angle_alpha 90.000000
_cell_angle_beta 90.000000
_cell_angle_gamma 90.000000
_cell_volume 4799.919070
_symmetry_space_group_name_H-M "C M M M"
_symmetry_group_IT_number 65
_symmetry_cell_setting 'orthorhombic'
loop_
_space_group_symop_operation_xyz
x,y,z
-x,-y,z
x,-y,-z
-x,y,-z
-x,-y,-z
x,y,-z
-x,y,z
x,-y,z
1/2+x,1/2+y,z
1/2-x,1/2-y,z
1/2+x,1/2-y,-z
1/2-x,1/2+y,-z
1/2-x,1/2-y,-z
1/2+x,1/2+y,-z
1/2-x,1/2+y,z
1/2+x,1/2-y,z
loop_
_atom_site_type_symbol
_atom_site_label
_atom_site_fract_x
_atom_site_fract_y
_atom_site_fract_z
Si Si1 0.590753 0.446926 0.846886
Si Si2 0.090877 0.417598 0.152523
Si Si3 0.908595 0.500000 0.346037
Si Si4 0.911116 0.861657 0.342203
Si Si5 0.663859 0.737744 0.658455
Si Si6 0.589889 0.811789 0.149351
O O1 0.500000 0.447269 0.841386
O O2 0.620778 0.500000 0.804534
O O3 0.621372 0.406495 0.743787
O O4 0.618513 0.434636 0.000000
O O5 0.123842 0.453780 0.265679
O O6 0.121730 0.364471 0.188277
O O7 0.000000 0.419308 0.157294
O O8 0.118003 0.432341 0.000000
O O9 0.876232 0.500000 0.500000
O O10 0.000000 0.500000 0.348366
O O11 0.901330 0.874802 0.500000
O O12 0.859316 0.816177 0.301679
O O13 0.000000 0.850351 0.308505
O O14 0.649404 0.746667 0.500000
O O15 0.750000 0.750000 0.701005
O O16 0.610023 0.773731 0.737443
O O17 0.500000 0.815610 0.140634
O O18 0.621858 0.796587 0.000000
#
# Coordination Sequence:
#
# PCOD8272672 Si02
#       6
#    16  16   8  16  16  16
#     4   8  14  25  42  67  98 126 151 185 233 285
#     4   8  14  25  40  59  86 118 147 180 228 279
#     4   9  15  21  33  59  91 117 145 181 222 273
#     4   9  17  29  46  69  96 126 161 198 237 284
#     4  10  21  35  49  68  96 131 166 202 244 289
#     4   9  18  32  50  72  95 121 158 201 243 289
#
# _framework density 18.333642999999999
#
# number of rings (size 3 to 8) (size 9 to 14) (size 15 to 20)
#    0.000    3.182    0.000    2.455    0.000    4.364 
#    0.000    5.455    0.000    0.000    2.364    0.000 
#    0.000    0.000    0.000    0.000    0.000    0.000 
#
# Total GULP energy -545314.896798 kJ/mol
# GULP energy per Si atom -12393.520382 kJ/mol
# Density = 1.829191 g / cm^3
# Si number density = 18.333643 Si / 1000 Ang^3
#
#
#
# Elastic Constant Matrix: (Units=GPa)
#
#
# Indices 1 2 3 4 5 6 
#
# 1 24.9782 31.3369 18.6087 0.0000 0.0000 0.0000
# 2 31.3369 164.4479 93.3246 0.0000 0.0000 0.0000
# 3 18.6087 93.3246 106.3204 0.0000 0.0000 0.0000
# 4 0.0000 0.0000 0.0000 33.6901 0.0000 0.0000
# 5 0.0000 0.0000 0.0000 0.0000 10.0641 0.0000
# 6 0.0000 0.0000 0.0000 0.0000 0.0000 5.8502
#
#
#
# Elastic Compliance Matrix: (Units=1/GPa)
#
#
# Indices 1 2 3 4 5 6 
#
# 1 0.052648 -0.009571 -0.000814 0.000000 0.000000 0.000000
# 2 -0.009571 0.013857 -0.010488 0.000000 0.000000 0.000000
# 3 -0.000814 -0.010488 0.018754 0.000000 0.000000 0.000000
# 4 0.000000 0.000000 0.000000 0.029682 0.000000 0.000000
# 5 0.000000 0.000000 0.000000 0.000000 0.099363 0.000000
# 6 0.000000 0.000000 0.000000 0.000000 0.000000 0.170934
#
#
# Mechanical properties :
#
#
# Convention : Reuss Voigt Hill
#
# Bulk Modulus (GPa) = 22.98109 64.69852 43.83981
# Shear Modulus (GPa) = 11.32536 20.08597 15.70567
#
# Velocity S-wave (km/s) = 2.48813 3.31355 2.93005
# Velocity P-wave (km/s) = 4.56251 7.07146 5.95072
#
# Compressibility (1/GPa) = 0.04351403
#
# Stress axis : x y z
#
# Youngs Moduli (GPa) = 18.99395 72.16828 53.32272
#
# Poissons Ratio (x) = 0.69070 0.04340
# Poissons Ratio (y) = 0.18178 0.55923
# Poissons Ratio (z) = 0.01546 0.75688
#
# Static dielectric constant tensor:
#      x y z
#    x 2.914000 0.000000 0.000000 
#    y 0.000000 3.781650 0.000000 
#    z 0.000000 0.000000 3.502470 
# 
# 
# High freq. dielectric constant tensor:
#      x y z
#    x 1.650830 0.000000 0.000000 
#    y 0.000000 1.722280 0.000000 
#    z 0.000000 0.000000 1.713230 
# 
# From -- ./inp_files/10098.got.cif
#   From: 2010.03.12/outbox.cif.g09.slc.cpg/sg65_6_cif.got.tgz:10098.got - 2010.04.10 20:52:16.
