data_PCOD8272545
_publ_section_title
;
Structure prediction by ZEFSAII (Michael W. Deem and Ramdas Pophale) SiO2 
 PCOD8272545
Probable space group: C M M M
;
_chemical_formula_sum "Si O2"
_cell_formula_units_Z 104
_cell_length_a 21.406637
_cell_length_b 27.450765
_cell_length_c 8.986203
_cell_angle_alpha 90.000000
_cell_angle_beta 90.000000
_cell_angle_gamma 90.000000
_cell_volume 5280.549544
_symmetry_space_group_name_H-M "C M M M"
_symmetry_group_IT_number 65
_symmetry_cell_setting 'orthorhombic'
loop_
_space_group_symop_operation_xyz
x,y,z
-x,-y,z
x,-y,-z
-x,y,-z
-x,-y,-z
x,y,-z
-x,y,z
x,-y,z
1/2+x,1/2+y,z
1/2-x,1/2-y,z
1/2+x,1/2-y,-z
1/2-x,1/2+y,-z
1/2-x,1/2-y,-z
1/2+x,1/2+y,-z
1/2-x,1/2+y,z
1/2+x,1/2-y,z
loop_
_atom_site_type_symbol
_atom_site_label
_atom_site_fract_x
_atom_site_fract_y
_atom_site_fract_z
Si Si1 0.163673 0.168755 0.324594
Si Si2 0.500000 0.094521 0.675189
Si Si3 0.573663 0.597053 0.828213
Si Si4 0.925700 0.000000 0.668024
Si Si5 0.866156 0.265434 0.828974
Si Si6 0.379806 0.055450 0.829478
Si Si7 0.787326 0.360615 0.827749
Si Si8 0.000000 0.697311 0.828590
O O1 0.157144 0.165402 0.500000
O O2 0.104202 0.143404 0.249765
O O3 0.165081 0.224909 0.274594
O O4 0.226545 0.142106 0.274027
O O5 0.500000 0.094608 0.500000
O O6 0.439482 0.065878 0.729579
O O7 0.500000 0.149791 0.728738
O O8 0.500000 0.602405 0.807747
O O9 0.599264 0.547744 0.752369
O O10 0.593026 0.595494 0.000000
O O11 0.899734 0.000000 0.500000
O O12 0.000000 0.000000 0.669728
O O13 0.833871 0.316467 0.791746
O O14 0.939644 0.269904 0.793400
O O15 0.854969 0.250380 0.000000
O O16 0.322166 0.089662 0.783354
O O17 0.357928 0.000000 0.806258
O O18 0.398740 0.066127 0.000000
O O19 0.766908 0.360210 0.000000
O O20 0.000000 0.680044 0.000000
#
# Coordination Sequence:
#
# PCOD8272545 Si02
#       8
#    16   8  16   8  16  16  16   8
#     4  12  26  40  58  88 126 161 196 245 308 369
#     4  12  23  35  58  93 134 168 201 249 311 370
#     4  10  21  39  63  88 115 153 203 248 289 349
#     4   9  17  33  59  89 121 151 181 230 299 356
#     4  10  21  39  65  90 117 155 202 252 300 360
#     4  10  21  40  66  92 120 161 213 263 305 356
#     4  10  21  41  65  87 116 157 207 254 299 360
#     4  10  20  39  65  92 120 158 207 254 307 362
#
# _framework density 19.69492
#
# number of rings (size 3 to 8) (size 9 to 14) (size 15 to 20)
#    0.000    1.615    1.538    3.462    1.077    6.769 
#    1.385    0.000    0.000    0.000    0.000    0.000 
#    0.000    0.000    0.000    0.000    0.000    0.000 
#
# Total GULP energy -645111.529014 kJ/mol
# GULP energy per Si atom -12405.990943 kJ/mol
# Density = 1.965009 g / cm^3
# Si number density = 19.694920 Si / 1000 Ang^3
#
#
#
# Elastic Constant Matrix: (Units=GPa)
#
#
# Indices 1 2 3 4 5 6 
#
# 1 87.6126 48.4326 54.3114 0.0000 0.0000 0.0000
# 2 48.4326 129.4219 63.3637 0.0000 0.0000 0.0000
# 3 54.3114 63.3637 135.2253 0.0000 0.0000 0.0000
# 4 0.0000 0.0000 0.0000 21.1541 0.0000 0.0000
# 5 0.0000 0.0000 0.0000 0.0000 21.7001 0.0000
# 6 0.0000 0.0000 0.0000 0.0000 0.0000 63.3309
#
#
#
# Elastic Compliance Matrix: (Units=1/GPa)
#
#
# Indices 1 2 3 4 5 6 
#
# 1 0.016528 -0.003809 -0.004854 0.000000 0.000000 0.000000
# 2 -0.003809 0.010905 -0.003580 0.000000 0.000000 0.000000
# 3 -0.004854 -0.003580 0.011022 0.000000 0.000000 0.000000
# 4 0.000000 0.000000 0.000000 0.047272 0.000000 0.000000
# 5 0.000000 0.000000 0.000000 0.000000 0.046083 0.000000
# 6 0.000000 0.000000 0.000000 0.000000 0.000000 0.015790
#
#
# Mechanical properties :
#
#
# Convention : Reuss Voigt Hill
#
# Bulk Modulus (GPa) = 71.58182 76.05279 73.81730
# Shear Modulus (GPa) = 28.28992 33.64715 30.96853
#
# Velocity S-wave (km/s) = 3.79411 4.13779 3.96967
# Velocity P-wave (km/s) = 7.45774 7.84395 7.65328
#
# Compressibility (1/GPa) = 0.01397003
#
# Stress axis : x y z
#
# Youngs Moduli (GPa) = 60.50252 91.70294 90.72853
#
# Poissons Ratio (x) = 0.34930 0.44035
# Poissons Ratio (y) = 0.23045 0.32480
# Poissons Ratio (z) = 0.29365 0.32829
#
# Static dielectric constant tensor:
#      x y z
#    x 3.531820 0.000000 0.000000 
#    y 0.000000 3.661150 0.000000 
#    z 0.000000 0.000000 3.542410 
# 
# 
# High freq. dielectric constant tensor:
#      x y z
#    x 1.762660 0.000000 0.000000 
#    y 0.000000 1.777280 0.000000 
#    z 0.000000 0.000000 1.761130 
# 
# From -- ./inp_files/12475.got.cif
#   From: 2010.03.12/outbox.cif.g09.slc.cpg/sg65_7_cif.got.tgz:12475.got - 2010.04.10 20:52:16.
