data_PCOD8272332
_publ_section_title
;
Structure prediction by ZEFSAII (Michael W. Deem and Ramdas Pophale) SiO2 
 PCOD8272332
Probable space group: C M M M
;
_chemical_formula_sum "Si O2"
_cell_formula_units_Z 104
_cell_length_a 19.159644
_cell_length_b 20.776560
_cell_length_c 13.916598
_cell_angle_alpha 90.000000
_cell_angle_beta 90.000000
_cell_angle_gamma 90.000000
_cell_volume 5539.800945
_symmetry_space_group_name_H-M "C M M M"
_symmetry_group_IT_number 65
_symmetry_cell_setting 'orthorhombic'
loop_
_space_group_symop_operation_xyz
x,y,z
-x,-y,z
x,-y,-z
-x,y,-z
-x,-y,-z
x,y,-z
-x,y,z
x,-y,z
1/2+x,1/2+y,z
1/2-x,1/2-y,z
1/2+x,1/2-y,-z
1/2-x,1/2+y,-z
1/2-x,1/2-y,-z
1/2+x,1/2+y,-z
1/2-x,1/2+y,z
1/2+x,1/2-y,z
loop_
_atom_site_type_symbol
_atom_site_label
_atom_site_fract_x
_atom_site_fract_y
_atom_site_fract_z
Si Si1 0.316736 0.207125 0.890320
Si Si2 0.201719 0.071964 0.306527
Si Si3 0.919404 0.271050 0.723356
Si Si4 0.838530 0.377097 0.613630
Si Si5 0.921972 0.500000 0.614356
Si Si6 0.078070 0.142139 0.608787
Si Si7 0.250631 0.072077 0.106106
O O1 0.250000 0.250000 0.857801
O O2 0.383267 0.226502 0.827193
O O3 0.305594 0.130005 0.877995
O O4 0.335200 0.224060 0.000000
O O5 0.261105 0.121406 0.341831
O O6 0.129088 0.085776 0.357943
O O7 0.193014 0.077601 0.190498
O O8 0.224256 0.000000 0.336763
O O9 0.878905 0.314415 0.647082
O O10 0.912832 0.199994 0.682396
O O11 0.000000 0.292643 0.732510
O O12 0.832107 0.376554 0.500000
O O13 0.881746 0.437793 0.652971
O O14 0.924558 0.500000 0.500000
O O15 0.000000 0.500000 0.657130
O O16 0.095456 0.164417 0.500000
O O17 0.000000 0.114174 0.614016
O O18 0.285822 0.000000 0.112236
O O19 0.215774 0.080638 0.000000
#
# Coordination Sequence:
#
# PCOD8272332 Si02
#       7
#    16  16  16  16   8  16  16
#     4  10  20  36  60  86 113 147 191 242 293 344
#     4  11  21  36  60  87 114 145 190 243 289 339
#     4  11  23  38  57  82 113 152 191 231 284 342
#     4  11  21  33  52  80 111 146 189 231 272 326
#     4   9  18  32  48  70 106 148 184 221 268 318
#     4  10  23  41  58  80 114 154 193 235 286 346
#     4   9  18  34  57  84 114 148 187 232 283 340
#
# _framework density 18.773237999999999
#
# number of rings (size 3 to 8) (size 9 to 14) (size 15 to 20)
#    0.000    1.769    2.308    2.308    0.000    3.077 
#    0.000    2.308    0.000    1.385    0.000    4.308 
#    0.000    0.000    0.000    0.000    0.000    0.000 
#
# Total GULP energy -644640.858943 kJ/mol
# GULP energy per Si atom -12396.939595 kJ/mol
# Density = 1.873051 g / cm^3
# Si number density = 18.773238 Si / 1000 Ang^3
#
#
#
# Elastic Constant Matrix: (Units=GPa)
#
#
# Indices 1 2 3 4 5 6 
#
# 1 113.2979 36.4055 58.2197 0.0000 0.0000 0.0000
# 2 36.4055 62.9859 30.4335 0.0000 0.0000 0.0000
# 3 58.2197 30.4335 114.1088 0.0000 0.0000 0.0000
# 4 0.0000 0.0000 0.0000 27.0085 0.0000 0.0000
# 5 0.0000 0.0000 0.0000 0.0000 28.9684 0.0000
# 6 0.0000 0.0000 0.0000 0.0000 0.0000 27.6303
#
#
#
# Elastic Compliance Matrix: (Units=1/GPa)
#
#
# Indices 1 2 3 4 5 6 
#
# 1 0.013219 -0.005030 -0.005403 0.000000 0.000000 0.000000
# 2 -0.005030 0.020139 -0.002805 0.000000 0.000000 0.000000
# 3 -0.005403 -0.002805 0.012268 0.000000 0.000000 0.000000
# 4 0.000000 0.000000 0.000000 0.037025 0.000000 0.000000
# 5 0.000000 0.000000 0.000000 0.000000 0.034520 0.000000
# 6 0.000000 0.000000 0.000000 0.000000 0.000000 0.036192
#
#
# Mechanical properties :
#
#
# Convention : Reuss Voigt Hill
#
# Bulk Modulus (GPa) = 52.21706 60.05667 56.13687
# Shear Modulus (GPa) = 26.84948 27.74369 27.29658
#
# Velocity S-wave (km/s) = 3.78590 3.84843 3.81729
# Velocity P-wave (km/s) = 6.85461 7.19772 7.02826
#
# Compressibility (1/GPa) = 0.01915083
#
# Stress axis : x y z
#
# Youngs Moduli (GPa) = 75.64931 49.65470 81.51083
#
# Poissons Ratio (x) = 0.24976 0.44040
# Poissons Ratio (y) = 0.38050 0.22863
# Poissons Ratio (z) = 0.40873 0.13928
#
# Static dielectric constant tensor:
#      x y z
#    x 3.329190 0.000000 0.000000 
#    y 0.000000 3.538130 0.000000 
#    z 0.000000 0.000000 3.571480 
# 
# 
# High freq. dielectric constant tensor:
#      x y z
#    x 1.702620 0.000000 0.000000 
#    y 0.000000 1.736360 0.000000 
#    z 0.000000 0.000000 1.738670 
# 
# From -- ./inp_files/42840.got.cif
#   From: 2010.03.12/outbox.cif.g09.slc.cpg/sg65_22_cif.got.tgz:42840.got - 2010.04.10 20:52:16.
