data_PCOD8272918
_publ_section_title
;
Structure prediction by ZEFSAII (Michael W. Deem and Ramdas Pophale) SiO2 
 PCOD8272918
Probable space group: C M M M
;
_chemical_formula_sum "Si O2"
_cell_formula_units_Z 88
_cell_length_a 9.556892
_cell_length_b 19.327151
_cell_length_c 27.948513
_cell_angle_alpha 90.000000
_cell_angle_beta 90.000000
_cell_angle_gamma 90.000000
_cell_volume 5162.299819
_symmetry_space_group_name_H-M "C M M M"
_symmetry_group_IT_number 65
_symmetry_cell_setting 'orthorhombic'
loop_
_space_group_symop_operation_xyz
x,y,z
-x,-y,z
x,-y,-z
-x,y,-z
-x,-y,-z
x,y,-z
-x,y,z
x,-y,z
1/2+x,1/2+y,z
1/2-x,1/2-y,z
1/2+x,1/2-y,-z
1/2-x,1/2+y,-z
1/2-x,1/2-y,-z
1/2+x,1/2+y,-z
1/2-x,1/2+y,z
1/2+x,1/2-y,z
loop_
_atom_site_type_symbol
_atom_site_label
_atom_site_fract_x
_atom_site_fract_y
_atom_site_fract_z
Si Si1 0.156345 0.417702 0.307638
Si Si2 0.845253 0.917720 0.776251
Si Si3 0.838622 0.081358 0.883314
Si Si4 0.342560 0.917765 0.413317
Si Si5 0.338113 0.816621 0.943669
Si Si6 0.342129 0.582686 0.500000
O O1 0.159920 0.500000 0.304436
O O2 0.248630 0.384786 0.265149
O O3 0.209644 0.394457 0.360391
O O4 0.000000 0.390182 0.299853
O O5 0.795808 0.896079 0.829365
O O6 0.000000 0.888737 0.766884
O O7 0.845754 0.000000 0.772985
O O8 0.731450 0.117118 0.919246
O O9 0.000000 0.102344 0.893877
O O10 0.820079 0.000000 0.890320
O O11 0.500000 0.890154 0.423034
O O12 0.236872 0.887953 0.453062
O O13 0.344934 0.000000 0.416204
O O14 0.500000 0.808415 0.927857
O O15 0.250000 0.750000 0.927102
O O16 0.326606 0.827880 0.000000
O O17 0.341907 0.500000 0.500000
O O18 0.500000 0.611430 0.500000
#
# Coordination Sequence:
#
# PCOD8272918 Si02
#       6
#    16  16  16  16  16   8
#     4   8  13  20  30  44  61  84 116 152 192 240
#     4   8  14  24  37  54  77 103 129 160 201 247
#     4   9  18  32  49  70  96 124 152 183 223 269
#     4   8  13  20  27  34  48  73 104 140 186 237
#     4  10  21  36  53  72  94 121 153 188 225 266
#     4   9  15  19  23  33  47  65  97 143 190 233
#
# _framework density 17.046666999999999
#
# number of rings (size 3 to 8) (size 9 to 14) (size 15 to 20)
#    0.000    3.364    0.000    3.000    0.000    4.364 
#    0.000    7.273    0.000    0.000    0.000    0.000 
#    0.000    0.000    0.000    0.000    0.000    0.000 
#
# Total GULP energy -545248.517547 kJ/mol
# GULP energy per Si atom -12392.011762 kJ/mol
# Density = 1.700787 g / cm^3
# Si number density = 17.046667 Si / 1000 Ang^3
#
#
#
# Elastic Constant Matrix: (Units=GPa)
#
#
# Indices 1 2 3 4 5 6 
#
# 1 121.6327 30.4012 71.2981 0.0000 0.0000 0.0000
# 2 30.4012 23.0725 27.7031 0.0000 0.0000 0.0000
# 3 71.2981 27.7031 92.4303 0.0000 0.0000 0.0000
# 4 0.0000 0.0000 0.0000 0.2098 0.0000 0.0000
# 5 0.0000 0.0000 0.0000 0.0000 38.5091 0.0000
# 6 0.0000 0.0000 0.0000 0.0000 0.0000 14.9113
#
#
#
# Elastic Compliance Matrix: (Units=1/GPa)
#
#
# Indices 1 2 3 4 5 6 
#
# 1 0.016363 -0.010007 -0.009623 0.000000 0.000000 0.000000
# 2 -0.010007 0.073827 -0.014409 0.000000 0.000000 0.000000
# 3 -0.009623 -0.014409 0.022560 0.000000 0.000000 0.000000
# 4 0.000000 0.000000 0.000000 4.767217 0.000000 0.000000
# 5 0.000000 0.000000 0.000000 0.000000 0.025968 0.000000
# 6 0.000000 0.000000 0.000000 0.000000 0.000000 0.067063
#
#
# Mechanical properties :
#
#
# Convention : Reuss Voigt Hill
#
# Bulk Modulus (GPa) = 22.38421 55.10449 38.74435
# Shear Modulus (GPa) = 0.98893 17.90826 9.44859
#
# Velocity S-wave (km/s) = 0.76249 3.24472 2.35687
# Velocity P-wave (km/s) = 3.73294 6.81421 5.49401
#
# Compressibility (1/GPa) = 0.04467436
#
# Stress axis : x y z
#
# Youngs Moduli (GPa) = 61.11232 13.54519 44.32543
#
# Poissons Ratio (x) = 0.13554 0.42654
# Poissons Ratio (y) = 0.61152 0.63867
# Poissons Ratio (z) = 0.58809 0.19517
#
# Static dielectric constant tensor:
#      x y z
#    x 3.435030 0.000000 0.000000 
#    y 0.000000 2.459070 0.000000 
#    z 0.000000 0.000000 3.502590 
# 
# 
# High freq. dielectric constant tensor:
#      x y z
#    x 1.662410 0.000000 0.000000 
#    y 0.000000 1.575270 0.000000 
#    z 0.000000 0.000000 1.671910 
# 
# From -- ./inp_files/76784.got.cif
#   From: 2010.03.12/outbox.cif.g09.slc.cpg/sg65_39_cif.got.tgz:76784.got - 2010.04.10 20:52:16.
