data_PCOD8272359
_publ_section_title
;
Structure prediction by ZEFSAII (Michael W. Deem and Ramdas Pophale) SiO2 
 PCOD8272359
Probable space group: C M M M
;
_chemical_formula_sum "Si O2"
_cell_formula_units_Z 104
_cell_length_a 27.237451
_cell_length_b 22.310131
_cell_length_c 8.689827
_cell_angle_alpha 90.000000
_cell_angle_beta 90.000000
_cell_angle_gamma 90.000000
_cell_volume 5280.556731
_symmetry_space_group_name_H-M "C M M M"
_symmetry_group_IT_number 65
_symmetry_cell_setting 'orthorhombic'
loop_
_space_group_symop_operation_xyz
x,y,z
-x,-y,z
x,-y,-z
-x,y,-z
-x,-y,-z
x,y,-z
-x,y,z
x,-y,z
1/2+x,1/2+y,z
1/2-x,1/2-y,z
1/2+x,1/2-y,-z
1/2-x,1/2+y,-z
1/2-x,1/2-y,-z
1/2+x,1/2+y,-z
1/2-x,1/2+y,z
1/2+x,1/2-y,z
loop_
_atom_site_type_symbol
_atom_site_label
_atom_site_fract_x
_atom_site_fract_y
_atom_site_fract_z
Si Si1 0.177481 0.109768 0.826586
Si Si2 0.418490 0.343749 0.683139
Si Si3 0.443702 0.789838 0.675946
Si Si4 0.330657 0.000000 0.182423
Si Si5 0.722883 0.500000 0.322341
Si Si6 0.270549 0.191371 0.172503
Si Si7 0.500000 0.429628 0.182561
Si Si8 0.135387 0.627326 0.817361
O O1 0.136175 0.150424 0.748209
O O2 0.228953 0.142480 0.832848
O O3 0.186759 0.053828 0.718462
O O4 0.161399 0.091493 0.000000
O O5 0.420180 0.349137 0.500000
O O6 0.436265 0.277912 0.737890
O O7 0.452025 0.396515 0.751796
O O8 0.426478 0.792755 0.500000
O O9 0.500000 0.807706 0.695939
O O10 0.414501 0.840541 0.768674
O O11 0.359678 0.941149 0.244631
O O12 0.273790 0.000000 0.230615
O O13 0.329823 0.000000 0.000000
O O14 0.736637 0.500000 0.500000
O O15 0.250000 0.250000 0.262036
O O16 0.318885 0.164754 0.254486
O O17 0.286126 0.211134 0.000000
O O18 0.500000 0.500000 0.232201
O O19 0.500000 0.424033 0.000000
O O20 0.138990 0.625856 0.000000
#
# Coordination Sequence:
#
# PCOD8272359 Si02
#       8
#    16  16  16   8   8  16   8  16
#     4  11  22  38  60  86 120 157 197 245 293 350
#     4  11  23  42  64  89 123 162 203 253 311 367
#     4  10  22  42  63  87 122 162 201 251 318 379
#     4  10  20  40  63  87 123 166 206 252 315 376
#     4  12  24  38  58  86 122 164 208 245 293 364
#     4   9  17  31  54  85 118 149 187 238 296 350
#     4  11  25  43  63  89 119 158 209 258 306 364
#     4  10  20  36  61  90 119 158 206 257 310 369
#
# _framework density 19.694893
#
# number of rings (size 3 to 8) (size 9 to 14) (size 15 to 20)
#    0.000    1.615    2.308    2.769    1.077    4.000 
#    0.000    0.385    0.000    5.538    0.000    0.000 
#    0.000    0.000    0.000    0.000    0.000    0.000 
#
# Total GULP energy -644660.322021 kJ/mol
# GULP energy per Si atom -12397.313885 kJ/mol
# Density = 1.965007 g / cm^3
# Si number density = 19.694893 Si / 1000 Ang^3
#
#
#
# Elastic Constant Matrix: (Units=GPa)
#
#
# Indices 1 2 3 4 5 6 
#
# 1 97.2393 46.4671 19.1543 0.0000 0.0000 0.0000
# 2 46.4671 143.0010 30.7092 0.0000 0.0000 0.0000
# 3 19.1543 30.7092 45.1686 0.0000 0.0000 0.0000
# 4 0.0000 0.0000 0.0000 50.5177 0.0000 0.0000
# 5 0.0000 0.0000 0.0000 0.0000 23.6630 0.0000
# 6 0.0000 0.0000 0.0000 0.0000 0.0000 38.9856
#
#
#
# Elastic Compliance Matrix: (Units=1/GPa)
#
#
# Indices 1 2 3 4 5 6 
#
# 1 0.012507 -0.003425 -0.002975 0.000000 0.000000 0.000000
# 2 -0.003425 0.009126 -0.004752 0.000000 0.000000 0.000000
# 3 -0.002975 -0.004752 0.026632 0.000000 0.000000 0.000000
# 4 0.000000 0.000000 0.000000 0.019795 0.000000 0.000000
# 5 0.000000 0.000000 0.000000 0.000000 0.042260 0.000000
# 6 0.000000 0.000000 0.000000 0.000000 0.000000 0.025651
#
#
# Mechanical properties :
#
#
# Convention : Reuss Voigt Hill
#
# Bulk Modulus (GPa) = 38.52067 53.11889 45.81978
# Shear Modulus (GPa) = 29.95284 35.23848 32.59566
#
# Velocity S-wave (km/s) = 3.90403 4.23450 4.07262
# Velocity P-wave (km/s) = 6.31847 7.13705 6.74020
#
# Compressibility (1/GPa) = 0.02596009
#
# Stress axis : x y z
#
# Youngs Moduli (GPa) = 79.95757 109.57114 37.54886
#
# Poissons Ratio (x) = 0.37529 0.11171
# Poissons Ratio (y) = 0.27386 0.17845
# Poissons Ratio (z) = 0.23787 0.52073
#
# Static dielectric constant tensor:
#      x y z
#    x 3.515350 0.000000 0.000000 
#    y 0.000000 3.751270 0.000000 
#    z 0.000000 0.000000 3.422190 
# 
# 
# High freq. dielectric constant tensor:
#      x y z
#    x 1.769190 0.000000 0.000000 
#    y 0.000000 1.779920 0.000000 
#    z 0.000000 0.000000 1.746110 
# 
# From -- ./inp_files/16539.got.cif
#   From: 2010.03.12/outbox.cif.g09.slc.cpg/sg65_9_cif.got.tgz:16539.got - 2010.04.10 20:52:16.
