data_PCOD8272866
_publ_section_title
;
Structure prediction by ZEFSAII (Michael W. Deem and Ramdas Pophale) SiO2 
 PCOD8272866
Probable space group: C M M M
;
_chemical_formula_sum "Si O2"
_cell_formula_units_Z 80
_cell_length_a 26.831907
_cell_length_b 16.753793
_cell_length_c 9.013497
_cell_angle_alpha 90.000000
_cell_angle_beta 90.000000
_cell_angle_gamma 90.000000
_cell_volume 4051.893331
_symmetry_space_group_name_H-M "C M M M"
_symmetry_group_IT_number 65
_symmetry_cell_setting 'orthorhombic'
loop_
_space_group_symop_operation_xyz
x,y,z
-x,-y,z
x,-y,-z
-x,y,-z
-x,-y,-z
x,y,-z
-x,y,z
x,-y,z
1/2+x,1/2+y,z
1/2-x,1/2-y,z
1/2+x,1/2-y,-z
1/2-x,1/2+y,-z
1/2-x,1/2-y,-z
1/2+x,1/2+y,-z
1/2-x,1/2+y,z
1/2+x,1/2-y,z
loop_
_atom_site_type_symbol
_atom_site_label
_atom_site_fract_x
_atom_site_fract_y
_atom_site_fract_z
Si Si1 0.054112 0.500000 0.761568
Si Si2 0.159288 0.500000 0.161307
Si Si3 0.444033 0.175133 0.334622
Si Si4 0.356092 0.261536 0.824648
Si Si5 0.790287 0.359546 0.675432
Si Si6 0.821128 0.908326 0.673557
O O1 0.100242 0.500000 0.874735
O O2 0.058737 0.579216 0.661935
O O3 0.000000 0.500000 0.844487
O O4 0.171908 0.423158 0.257243
O O5 0.186283 0.500000 0.000000
O O6 0.430331 0.204936 0.500000
O O7 0.500000 0.202701 0.291024
O O8 0.406237 0.215184 0.219019
O O9 0.306590 0.224690 0.746295
O O10 0.358717 0.353214 0.768307
O O11 0.349680 0.257381 0.000000
O O12 0.797505 0.354636 0.500000
O O13 0.735007 0.385411 0.718850
O O14 0.830175 0.894051 0.500000
O O15 0.831066 0.000000 0.716835
#
# Coordination Sequence:
#
# PCOD8272866 Si02
#       6
#     8   8  16  16  16  16
#     4  10  21  35  57  87 118 156 200 243 286 336
#     4  12  23  34  54  86 123 161 195 241 299 345
#     4  10  21  38  61  87 116 154 200 244 285 339
#     4  12  25  38  57  89 123 156 190 237 298 349
#     4  11  22  39  61  84 115 159 202 242 285 339
#     4  10  22  42  64  86 111 150 201 245 290 346
#
# _framework density 19.743856999999998
#
# number of rings (size 3 to 8) (size 9 to 14) (size 15 to 20)
#    0.000    1.200    3.000    3.600    0.000    7.000 
#    0.000    2.000    0.000    0.600    0.000    4.200 
#    0.000    0.000    0.000    0.000    0.000    0.000 
#
# Total GULP energy -495902.153122 kJ/mol
# GULP energy per Si atom -12397.553828 kJ/mol
# Density = 1.969892 g / cm^3
# Si number density = 19.743857 Si / 1000 Ang^3
#
#
#
# Elastic Constant Matrix: (Units=GPa)
#
#
# Indices 1 2 3 4 5 6 
#
# 1 76.6189 42.4854 31.5805 0.0000 0.0000 0.0000
# 2 42.4854 125.9387 49.1886 0.0000 0.0000 0.0000
# 3 31.5805 49.1886 114.5068 0.0000 0.0000 0.0000
# 4 0.0000 0.0000 0.0000 -0.4232 0.0000 0.0000
# 5 0.0000 0.0000 0.0000 0.0000 14.9144 0.0000
# 6 0.0000 0.0000 0.0000 0.0000 0.0000 17.1714
#
#
#
# Elastic Compliance Matrix: (Units=1/GPa)
#
#
# Indices 1 2 3 4 5 6 
#
# 1 0.016686 -0.004604 -0.002624 0.000000 0.000000 0.000000
# 2 -0.004604 0.010812 -0.003375 0.000000 0.000000 0.000000
# 3 -0.002624 -0.003375 0.010906 0.000000 0.000000 0.000000
# 4 0.000000 0.000000 0.000000 -2.362935 0.000000 0.000000
# 5 0.000000 0.000000 0.000000 0.000000 0.067049 0.000000
# 6 0.000000 0.000000 0.000000 0.000000 0.000000 0.058236
#
#
# Mechanical properties :
#
#
# Convention : Reuss Voigt Hill
#
# Bulk Modulus (GPa) = 58.14447 62.61928 60.38188
# Shear Modulus (GPa) = -2.30170 19.25316 8.47573
#
# Velocity S-wave (km/s) = -1.08088 3.12612 2.07417
# Velocity P-wave (km/s) = 5.28730 6.69439 6.03202
#
# Compressibility (1/GPa) = 0.01719854
#
# Stress axis : x y z
#
# Youngs Moduli (GPa) = 59.92947 92.49326 91.68891
#
# Poissons Ratio (x) = 0.42585 0.24061
# Poissons Ratio (y) = 0.27593 0.30941
# Poissons Ratio (z) = 0.15727 0.31212
#
# Static dielectric constant tensor:
#      x y z
#    x 3.607860 0.000000 0.000000 
#    y 0.000000 4.152650 0.000000 
#    z 0.000000 0.000000 3.389080 
# 
# 
# High freq. dielectric constant tensor:
#      x y z
#    x 1.759430 0.000000 0.000000 
#    y 0.000000 1.765110 0.000000 
#    z 0.000000 0.000000 1.764690 
# 
# From -- ./inp_files/16120.got.cif
#   From: 2010.03.12/outbox.cif.g09.slc.cpg/sg65_9_cif.got.tgz:16120.got - 2010.04.10 20:52:16.
