data_PCOD8272689
_publ_section_title
;
Structure prediction by ZEFSAII (Michael W. Deem and Ramdas Pophale) SiO2 
 PCOD8272689
Probable space group: C M M M
;
_chemical_formula_sum "Si O2"
_cell_formula_units_Z 96
_cell_length_a 9.355460
_cell_length_b 30.146886
_cell_length_c 19.716041
_cell_angle_alpha 90.000000
_cell_angle_beta 90.000000
_cell_angle_gamma 90.000000
_cell_volume 5560.672497
_symmetry_space_group_name_H-M "C M M M"
_symmetry_group_IT_number 65
_symmetry_cell_setting 'orthorhombic'
loop_
_space_group_symop_operation_xyz
x,y,z
-x,-y,z
x,-y,-z
-x,y,-z
-x,-y,-z
x,y,-z
-x,y,z
x,-y,z
1/2+x,1/2+y,z
1/2-x,1/2-y,z
1/2+x,1/2-y,-z
1/2-x,1/2+y,-z
1/2-x,1/2-y,-z
1/2+x,1/2+y,-z
1/2-x,1/2+y,z
1/2+x,1/2-y,z
loop_
_atom_site_type_symbol
_atom_site_label
_atom_site_fract_x
_atom_site_fract_y
_atom_site_fract_z
Si Si1 0.664834 0.050660 0.686565
Si Si2 0.165123 0.623118 0.422212
Si Si3 0.338275 0.291708 0.419269
Si Si4 0.833273 0.388572 0.920941
Si Si5 0.165842 0.051888 0.181251
Si Si6 0.342263 0.789893 0.919443
O O1 0.500000 0.056173 0.707902
O O2 0.702818 0.079740 0.621054
O O3 0.760385 0.067212 0.749059
O O4 0.700488 0.000000 0.667285
O O5 0.201288 0.611619 0.500000
O O6 0.261028 0.663481 0.394793
O O7 0.000000 0.637150 0.414291
O O8 0.338861 0.289628 0.500000
O O9 0.500000 0.290540 0.390865
O O10 0.250000 0.250000 0.389793
O O11 0.737179 0.423226 0.881276
O O12 0.783227 0.338701 0.900395
O O13 0.000000 0.395125 0.903285
O O14 0.806533 0.397053 0.000000
O O15 0.000000 0.064335 0.185172
O O16 0.190431 0.000000 0.169047
O O17 0.500000 0.784303 0.888971
O O18 0.250000 0.750000 0.887312
O O19 0.347630 0.785686 0.000000
#
# Coordination Sequence:
#
# PCOD8272689 Si02
#       6
#    16  16  16  16  16  16
#     4   9  18  33  52  71  93 126 163 194 231 284
#     4   9  17  29  47  73 101 125 154 196 241 281
#     4   9  16  26  42  65  94 127 160 193 232 280
#     4   9  18  32  50  73  99 126 158 196 237 282
#     4  10  21  35  50  69  94 125 161 200 240 283
#     4   8  14  25  42  66  95 124 153 185 223 270
#
# _framework density 17.264099000000002
#
# number of rings (size 3 to 8) (size 9 to 14) (size 15 to 20)
#    0.000    3.000    0.000    2.000    0.000    5.333 
#    0.000    5.000    0.000    1.000    0.000    9.333 
#    0.000    0.000    0.000    0.000    0.000    0.000 
#
# Total GULP energy -595102.046802 kJ/mol
# GULP energy per Si atom -12397.959308 kJ/mol
# Density = 1.722481 g / cm^3
# Si number density = 17.264099 Si / 1000 Ang^3
#
#
#
# Elastic Constant Matrix: (Units=GPa)
#
#
# Indices 1 2 3 4 5 6 
#
# 1 104.4654 68.0831 49.2166 0.0000 0.0000 0.0000
# 2 68.0831 106.3585 54.3818 0.0000 0.0000 0.0000
# 3 49.2166 54.3818 63.0728 0.0000 0.0000 0.0000
# 4 0.0000 0.0000 0.0000 3.8424 0.0000 0.0000
# 5 0.0000 0.0000 0.0000 0.0000 18.6865 0.0000
# 6 0.0000 0.0000 0.0000 0.0000 0.0000 34.1190
#
#
#
# Elastic Compliance Matrix: (Units=1/GPa)
#
#
# Indices 1 2 3 4 5 6 
#
# 1 0.018182 -0.007842 -0.007427 0.000000 0.000000 0.000000
# 2 -0.007842 0.020197 -0.011295 0.000000 0.000000 0.000000
# 3 -0.007427 -0.011295 0.031389 0.000000 0.000000 0.000000
# 4 0.000000 0.000000 0.000000 0.260257 0.000000 0.000000
# 5 0.000000 0.000000 0.000000 0.000000 0.053514 0.000000
# 6 0.000000 0.000000 0.000000 0.000000 0.000000 0.029309
#
#
# Mechanical properties :
#
#
# Convention : Reuss Voigt Hill
#
# Bulk Modulus (GPa) = 60.09279 68.58442 64.33861
# Shear Modulus (GPa) = 10.60395 18.14392 14.37394
#
# Velocity S-wave (km/s) = 2.48103 3.24537 2.88860
# Velocity P-wave (km/s) = 6.56437 7.33867 6.96229
#
# Compressibility (1/GPa) = 0.01664093
#
# Stress axis : x y z
#
# Youngs Moduli (GPa) = 54.99946 49.51212 31.85865
#
# Poissons Ratio (x) = 0.38825 0.23660
# Poissons Ratio (y) = 0.43128 0.35985
# Poissons Ratio (z) = 0.40846 0.55925
#
# Static dielectric constant tensor:
#      x y z
#    x 3.389920 0.000000 0.000000 
#    y 0.000000 3.336720 0.000000 
#    z 0.000000 0.000000 2.844960 
# 
# 
# High freq. dielectric constant tensor:
#      x y z
#    x 1.669200 0.000000 0.000000 
#    y 0.000000 1.674160 0.000000 
#    z 0.000000 0.000000 1.625430 
# 
# From -- ./inp_files/60165.got.cif
#   From: 2010.03.12/outbox.cif.g09.slc.cpg/sg65_31_cif.got.tgz:60165.got - 2010.04.10 20:52:16.
