data_PCOD8272284
_publ_section_title
;
Structure prediction by ZEFSAII (Michael W. Deem and Ramdas Pophale) SiO2 
 PCOD8272284
Probable space group: C M M M
;
_chemical_formula_sum "Si O2"
_cell_formula_units_Z 88
_cell_length_a 9.055246
_cell_length_b 24.238258
_cell_length_c 21.358625
_cell_angle_alpha 90.000000
_cell_angle_beta 90.000000
_cell_angle_gamma 90.000000
_cell_volume 4687.863395
_symmetry_space_group_name_H-M "C M M M"
_symmetry_group_IT_number 65
_symmetry_cell_setting 'orthorhombic'
loop_
_space_group_symop_operation_xyz
x,y,z
-x,-y,z
x,-y,-z
-x,y,-z
-x,-y,-z
x,y,-z
-x,y,z
x,-y,z
1/2+x,1/2+y,z
1/2-x,1/2-y,z
1/2+x,1/2-y,-z
1/2-x,1/2+y,-z
1/2-x,1/2-y,-z
1/2+x,1/2+y,-z
1/2-x,1/2+y,z
1/2+x,1/2-y,z
loop_
_atom_site_type_symbol
_atom_site_label
_atom_site_fract_x
_atom_site_fract_y
_atom_site_fract_z
Si Si1 0.175413 0.596916 0.640956
Si Si2 0.833853 0.000000 0.426580
Si Si3 0.328254 0.691795 0.570686
Si Si4 0.333775 0.393421 0.106165
Si Si5 0.326833 0.308887 0.000000
Si Si6 0.665618 0.436130 0.236620
Si Si7 0.329802 0.000000 0.070515
O O1 0.243909 0.552909 0.594273
O O2 0.245017 0.654928 0.621627
O O3 0.215882 0.581612 0.711960
O O4 0.000000 0.598466 0.633964
O O5 0.845563 0.000000 0.500000
O O6 0.000000 0.000000 0.397715
O O7 0.312488 0.667742 0.500000
O O8 0.500000 0.697004 0.589017
O O9 0.250000 0.750000 0.574453
O O10 0.500000 0.407059 0.084008
O O11 0.326435 0.388987 0.181735
O O12 0.230124 0.444746 0.098617
O O13 0.278518 0.341662 0.063815
O O14 0.250000 0.250000 0.000000
O O15 0.500000 0.297853 0.000000
O O16 0.500000 0.434370 0.264886
O O17 0.698208 0.500000 0.214327
O O18 0.500000 0.000000 0.083692
O O19 0.281229 0.000000 0.000000
#
# Coordination Sequence:
#
# PCOD8272284 Si02
#       7
#    16   8  16  16   8  16   8
#     4  12  24  37  56  84 120 158 195 240 294 352
#     4  11  23  38  57  82 115 157 201 246 299 355
#     4  10  21  39  63  88 114 147 191 244 296 347
#     4  10  20  37  61  85 111 152 197 238 284 346
#     4  10  22  39  62  87 117 152 192 238 289 344
#     4  10  20  36  59  84 114 155 197 238 290 349
#     4  11  21  30  49  86 121 144 172 227 290 335
#
# _framework density 18.771878000000001
#
# number of rings (size 3 to 8) (size 9 to 14) (size 15 to 20)
#    0.000    1.455    2.727    3.273    0.000    5.818 
#    0.000    0.909    0.000    2.182    0.000    0.000 
#    0.000    0.000    0.000    0.000    0.000    0.000 
#
# Total GULP energy -545269.941358 kJ/mol
# GULP energy per Si atom -12392.498667 kJ/mol
# Density = 1.872915 g / cm^3
# Si number density = 18.771878 Si / 1000 Ang^3
#
#
#
# Elastic Constant Matrix: (Units=GPa)
#
#
# Indices 1 2 3 4 5 6 
#
# 1 140.9298 63.7543 42.8831 0.0000 0.0000 0.0000
# 2 63.7543 115.7482 48.0277 0.0000 0.0000 0.0000
# 3 42.8831 48.0277 96.5995 0.0000 0.0000 0.0000
# 4 0.0000 0.0000 0.0000 33.8339 0.0000 0.0000
# 5 0.0000 0.0000 0.0000 0.0000 23.5229 0.0000
# 6 0.0000 0.0000 0.0000 0.0000 0.0000 74.3801
#
#
#
# Elastic Compliance Matrix: (Units=1/GPa)
#
#
# Indices 1 2 3 4 5 6 
#
# 1 0.009776 -0.004515 -0.002095 0.000000 0.000000 0.000000
# 2 -0.004515 0.012971 -0.004444 0.000000 0.000000 0.000000
# 3 -0.002095 -0.004444 0.013492 0.000000 0.000000 0.000000
# 4 0.000000 0.000000 0.000000 0.029556 0.000000 0.000000
# 5 0.000000 0.000000 0.000000 0.000000 0.042512 0.000000
# 6 0.000000 0.000000 0.000000 0.000000 0.000000 0.013444
#
#
# Mechanical properties :
#
#
# Convention : Reuss Voigt Hill
#
# Bulk Modulus (GPa) = 70.77568 73.62308 72.19938
# Shear Modulus (GPa) = 33.65440 39.58819 36.62129
#
# Velocity S-wave (km/s) = 4.23875 4.59727 4.42165
# Velocity P-wave (km/s) = 7.85754 8.21492 8.03821
#
# Compressibility (1/GPa) = 0.01412915
#
# Stress axis : x y z
#
# Youngs Moduli (GPa) = 102.29327 77.09755 74.12028
#
# Poissons Ratio (x) = 0.34812 0.15527
# Poissons Ratio (y) = 0.46189 0.32941
# Poissons Ratio (z) = 0.21428 0.34264
#
# Static dielectric constant tensor:
#      x y z
#    x 3.496450 0.000000 0.000000 
#    y 0.000000 3.248140 0.000000 
#    z 0.000000 0.000000 3.664150 
# 
# 
# High freq. dielectric constant tensor:
#      x y z
#    x 1.736070 0.000000 0.000000 
#    y 0.000000 1.713350 0.000000 
#    z 0.000000 0.000000 1.734340 
# 
# From -- ./inp_files/59907.got.cif
#   From: 2010.03.12/outbox.cif.g09.slc.cpg/sg65_30_cif.got.tgz:59907.got - 2010.04.10 20:52:16.
