data_PCOD8272819
_publ_section_title
;
Structure prediction by ZEFSAII (Michael W. Deem and Ramdas Pophale) SiO2 
 PCOD8272819
Probable space group: C M M M
;
_chemical_formula_sum "Si O2"
_cell_formula_units_Z 80
_cell_length_a 27.642756
_cell_length_b 14.843772
_cell_length_c 10.318578
_cell_angle_alpha 90.000000
_cell_angle_beta 90.000000
_cell_angle_gamma 90.000000
_cell_volume 4233.947482
_symmetry_space_group_name_H-M "C M M M"
_symmetry_group_IT_number 65
_symmetry_cell_setting 'orthorhombic'
loop_
_space_group_symop_operation_xyz
x,y,z
-x,-y,z
x,-y,-z
-x,y,-z
-x,-y,-z
x,y,-z
-x,y,z
x,-y,z
1/2+x,1/2+y,z
1/2-x,1/2-y,z
1/2+x,1/2-y,-z
1/2-x,1/2+y,-z
1/2-x,1/2-y,-z
1/2+x,1/2+y,-z
1/2-x,1/2+y,z
1/2+x,1/2-y,z
loop_
_atom_site_type_symbol
_atom_site_label
_atom_site_fract_x
_atom_site_fract_y
_atom_site_fract_z
Si Si1 0.947668 0.761744 0.645977
Si Si2 0.923147 0.101440 0.858024
Si Si3 0.679061 0.399381 0.250026
Si Si4 0.284013 0.896177 0.853301
Si Si5 0.156576 0.714245 0.355975
O O1 0.942201 0.800677 0.500000
O O2 0.949221 0.843463 0.746056
O O3 0.900883 0.699031 0.673362
O O4 0.000000 0.710553 0.658981
O O5 0.865013 0.105348 0.850214
O O6 0.941818 0.000000 0.843114
O O7 0.937593 0.139434 0.000000
O O8 0.681426 0.500000 0.315026
O O9 0.727550 0.379372 0.170355
O O10 0.670555 0.320578 0.355485
O O11 0.314657 0.838742 0.752509
O O12 0.297807 0.000000 0.832638
O O13 0.296250 0.865705 0.000000
O O14 0.169415 0.677740 0.500000
#
# Coordination Sequence:
#
# PCOD8272819 Si02
#       5
#    16  16  16  16  16
#     4   9  19  35  51  67  92 128 167 206 252 307
#     4   9  17  29  46  70 100 132 168 208 243 281
#     4   9  18  32  51  76 108 144 175 201 236 291
#     4  10  21  36  54  76 103 137 174 209 250 304
#     4  10  21  35  53  78 104 132 170 215 259 300
#
# _framework density 18.894897
#
# number of rings (size 3 to 8) (size 9 to 14) (size 15 to 20)
#    0.000    2.600    0.000    1.200    0.000   10.800 
#    0.000    8.000    0.000    0.600    0.000    4.200 
#    0.000    0.000    0.000    0.000    0.000    0.000 
#
# Total GULP energy -495594.348936 kJ/mol
# GULP energy per Si atom -12389.858723 kJ/mol
# Density = 1.885189 g / cm^3
# Si number density = 18.894897 Si / 1000 Ang^3
#
#
#
# Elastic Constant Matrix: (Units=GPa)
#
#
# Indices 1 2 3 4 5 6 
#
# 1 121.7671 39.6127 43.4716 0.0000 0.0000 0.0000
# 2 39.6127 48.0586 30.5601 0.0000 0.0000 0.0000
# 3 43.4716 30.5601 100.3826 0.0000 0.0000 0.0000
# 4 0.0000 0.0000 0.0000 20.4629 0.0000 0.0000
# 5 0.0000 0.0000 0.0000 0.0000 15.7553 0.0000
# 6 0.0000 0.0000 0.0000 0.0000 0.0000 14.5964
#
#
#
# Elastic Compliance Matrix: (Units=1/GPa)
#
#
# Indices 1 2 3 4 5 6 
#
# 1 0.011767 -0.008009 -0.002657 0.000000 0.000000 0.000000
# 2 -0.008009 0.031254 -0.006047 0.000000 0.000000 0.000000
# 3 -0.002657 -0.006047 0.012954 0.000000 0.000000 0.000000
# 4 0.000000 0.000000 0.000000 0.048869 0.000000 0.000000
# 5 0.000000 0.000000 0.000000 0.000000 0.063471 0.000000
# 6 0.000000 0.000000 0.000000 0.000000 0.000000 0.068510
#
#
# Mechanical properties :
#
#
# Convention : Reuss Voigt Hill
#
# Bulk Modulus (GPa) = 44.34872 55.27746 49.81309
# Shear Modulus (GPa) = 18.00078 20.60052 19.30065
#
# Velocity S-wave (km/s) = 3.08990 3.30550 3.19952
# Velocity P-wave (km/s) = 6.02098 6.62474 6.33006
#
# Compressibility (1/GPa) = 0.02254857
#
# Stress axis : x y z
#
# Youngs Moduli (GPa) = 84.98697 31.99560 77.19904
#
# Poissons Ratio (x) = 0.25625 0.20515
# Poissons Ratio (y) = 0.68065 0.46679
# Poissons Ratio (z) = 0.22585 0.19347
#
# Static dielectric constant tensor:
#      x y z
#    x 3.732960 0.000000 0.000000 
#    y 0.000000 3.236770 0.000000 
#    z 0.000000 0.000000 3.427400 
# 
# 
# High freq. dielectric constant tensor:
#      x y z
#    x 1.746940 0.000000 0.000000 
#    y 0.000000 1.690610 0.000000 
#    z 0.000000 0.000000 1.736090 
# 
# From -- ./inp_files/32109.got.cif
#   From: 2010.03.12/outbox.cif.g09.slc.cpg/sg65_17_cif.got.tgz:32109.got - 2010.04.10 20:52:16.
