data_PCOD8272017
_publ_section_title
;
Structure prediction by ZEFSAII (Michael W. Deem and Ramdas Pophale) SiO2 
 PCOD8272017
Probable space group: C M M M
;
_chemical_formula_sum "Si O2"
_cell_formula_units_Z 72
_cell_length_a 15.873596
_cell_length_b 8.918551
_cell_length_c 25.931931
_cell_angle_alpha 90.000000
_cell_angle_beta 90.000000
_cell_angle_gamma 90.000000
_cell_volume 3671.169870
_symmetry_space_group_name_H-M "C M M M"
_symmetry_group_IT_number 65
_symmetry_cell_setting 'orthorhombic'
loop_
_space_group_symop_operation_xyz
x,y,z
-x,-y,z
x,-y,-z
-x,y,-z
-x,-y,-z
x,y,-z
-x,y,z
x,-y,z
1/2+x,1/2+y,z
1/2-x,1/2-y,z
1/2+x,1/2-y,-z
1/2-x,1/2+y,-z
1/2-x,1/2-y,-z
1/2+x,1/2+y,-z
1/2-x,1/2+y,z
1/2+x,1/2-y,z
loop_
_atom_site_type_symbol
_atom_site_label
_atom_site_fract_x
_atom_site_fract_y
_atom_site_fract_z
Si Si1 0.838288 0.323174 0.209806
Si Si2 0.000000 0.677886 0.610333
Si Si3 0.092676 0.159363 0.000000
Si Si4 0.163419 0.173204 0.439047
Si Si5 0.663362 0.824012 0.092633
Si Si6 0.000000 0.322947 0.729115
O O1 0.827551 0.500000 0.216693
O O2 0.750000 0.250000 0.227324
O O3 0.861336 0.279698 0.151042
O O4 0.914906 0.258942 0.244463
O O5 0.083668 0.744536 0.585202
O O6 0.000000 0.500000 0.602370
O O7 0.000000 0.724915 0.669875
O O8 0.099720 0.258546 0.051390
O O9 0.000000 0.100719 0.000000
O O10 0.146041 0.000000 0.000000
O O11 0.155195 0.189469 0.500000
O O12 0.250000 0.250000 0.419531
O O13 0.164323 0.000000 0.421916
O O14 0.750000 0.750000 0.076469
O O15 0.669173 0.000000 0.086668
O O16 0.000000 0.500000 0.736625
#
# Coordination Sequence:
#
# PCOD8272017 Si02
#       6
#    16   8   8  16  16   8
#     4   9  19  37  60  82 108 142 184 231 278 330
#     4  11  22  36  57  86 121 159 194 238 291 344
#     4  11  24  37  50  75 111 141 168 215 270 323
#     4  10  21  38  60  86 118 156 198 243 289 341
#     4  10  20  35  58  80 103 136 176 219 266 327
#     4   9  20  38  58  82 113 150 189 232 281 332
#
# _framework density 19.612276000000001
#
# number of rings (size 3 to 8) (size 9 to 14) (size 15 to 20)
#    0.000    2.111    0.000    2.667    1.556    5.333 
#    0.000    5.000    0.000    0.000    0.000    0.000 
#    0.000    0.000    0.000    0.000    0.000    0.000 
#
# Total GULP energy -446239.502447 kJ/mol
# GULP energy per Si atom -12395.541735 kJ/mol
# Density = 1.956764 g / cm^3
# Si number density = 19.612276 Si / 1000 Ang^3
#
#
#
# Elastic Constant Matrix: (Units=GPa)
#
#
# Indices 1 2 3 4 5 6 
#
# 1 163.6056 57.5149 64.8137 0.0000 0.0000 0.0000
# 2 57.5149 92.8515 43.3303 0.0000 0.0000 0.0000
# 3 64.8137 43.3303 77.3383 0.0000 0.0000 0.0000
# 4 0.0000 0.0000 0.0000 23.7642 0.0000 0.0000
# 5 0.0000 0.0000 0.0000 0.0000 -27.3201 0.0000
# 6 0.0000 0.0000 0.0000 0.0000 0.0000 31.2390
#
#
#
# Elastic Compliance Matrix: (Units=1/GPa)
#
#
# Indices 1 2 3 4 5 6 
#
# 1 0.009734 -0.003010 -0.006471 0.000000 0.000000 0.000000
# 2 -0.003010 0.015513 -0.006169 0.000000 0.000000 0.000000
# 3 -0.006471 -0.006169 0.021810 0.000000 0.000000 0.000000
# 4 0.000000 0.000000 0.000000 0.042080 0.000000 0.000000
# 5 0.000000 0.000000 0.000000 0.000000 -0.036603 0.000000
# 6 0.000000 0.000000 0.000000 0.000000 0.000000 0.032011
#
#
# Mechanical properties :
#
#
# Convention : Reuss Voigt Hill
#
# Bulk Modulus (GPa) = 63.46582 73.90149 68.68365
# Shear Modulus (GPa) = 41.28873 16.74571 29.01722
#
# Velocity S-wave (km/s) = 4.59328 2.92522 3.85066
# Velocity P-wave (km/s) = 7.78212 7.01229 7.40722
#
# Compressibility (1/GPa) = 0.01575651
#
# Stress axis : x y z
#
# Youngs Moduli (GPa) = 102.73305 64.46170 45.85015
#
# Poissons Ratio (x) = 0.19400 0.29672
# Poissons Ratio (y) = 0.30918 0.28287
# Poissons Ratio (z) = 0.66483 0.39769
#
# Static dielectric constant tensor:
#      x y z
#    x 3.637780 0.000000 0.000000 
#    y 0.000000 3.568350 0.000000 
#    z 0.000000 0.000000 3.615380 
# 
# 
# High freq. dielectric constant tensor:
#      x y z
#    x 1.770860 0.000000 0.000000 
#    y 0.000000 1.765900 0.000000 
#    z 0.000000 0.000000 1.761390 
# 
# From -- ./inp_files/72611.got.cif
#   From: 2010.03.12/outbox.cif.g09.slc.cpg/sg65_37_cif.got.tgz:72611.got - 2010.04.10 20:52:16.
