data_PCOD8272290
_publ_section_title
;
Structure prediction by ZEFSAII (Michael W. Deem and Ramdas Pophale) SiO2 
 PCOD8272290
Probable space group: C M M M
;
_chemical_formula_sum "Si O2"
_cell_formula_units_Z 64
_cell_length_a 14.708736
_cell_length_b 8.741343
_cell_length_c 26.004005
_cell_angle_alpha 90.000000
_cell_angle_beta 90.000000
_cell_angle_gamma 90.000000
_cell_volume 3343.441708
_symmetry_space_group_name_H-M "C M M M"
_symmetry_group_IT_number 65
_symmetry_cell_setting 'orthorhombic'
loop_
_space_group_symop_operation_xyz
x,y,z
-x,-y,z
x,-y,-z
-x,y,-z
-x,-y,-z
x,y,-z
-x,y,z
x,-y,z
1/2+x,1/2+y,z
1/2-x,1/2-y,z
1/2+x,1/2-y,-z
1/2-x,1/2+y,-z
1/2-x,1/2-y,-z
1/2+x,1/2+y,-z
1/2-x,1/2+y,z
1/2+x,1/2-y,z
loop_
_atom_site_type_symbol
_atom_site_label
_atom_site_fract_x
_atom_site_fract_y
_atom_site_fract_z
Si Si1 0.500000 0.819308 0.557005
Si Si2 0.500000 0.178749 0.181926
Si Si3 0.159363 0.678917 0.893805
Si Si4 0.000000 0.180284 0.708527
Si Si5 0.648779 0.182006 0.362524
Si Si6 0.607076 0.671786 0.000000
O O1 0.500000 0.744873 0.500000
O O2 0.591712 0.767856 0.586736
O O3 0.500000 0.000000 0.552818
O O4 0.415215 0.225333 0.147391
O O5 0.500000 0.285420 0.231391
O O6 0.500000 0.000000 0.197536
O O7 0.167047 0.500000 0.900194
O O8 0.250000 0.750000 0.870290
O O9 0.142368 0.744790 0.949895
O O10 0.092338 0.253371 0.685700
O O11 0.000000 0.000000 0.698042
O O12 0.750000 0.250000 0.365075
O O13 0.655423 0.000000 0.357272
O O14 0.645523 0.500000 0.000000
O O15 0.500000 0.674764 0.000000
#
# Coordination Sequence:
#
# PCOD8272290 Si02
#       6
#     8   8  16   8  16   8
#     4   8  16  32  54  83 120 159 196 238 287 337
#     4  10  23  42  61  82 114 150 185 233 289 343
#     4  11  23  40  61  85 114 148 185 227 277 336
#     4  11  23  39  61  85 113 149 191 242 293 346
#     4  10  20  36  59  85 117 155 197 242 287 342
#     4  11  22  37  60  86 114 148 186 229 273 331
#
# _framework density 19.141950999999999
#
# number of rings (size 3 to 8) (size 9 to 14) (size 15 to 20)
#    0.000    1.750    1.250    4.125    0.000    4.000 
#    0.000    2.500    0.000   12.750    0.000    0.000 
#    0.000    0.000    0.000    0.000    0.000    0.000 
#
# Total GULP energy -396790.642502 kJ/mol
# GULP energy per Si atom -12399.707578 kJ/mol
# Density = 1.909838 g / cm^3
# Si number density = 19.141951 Si / 1000 Ang^3
#
#
#
# Elastic Constant Matrix: (Units=GPa)
#
#
# Indices 1 2 3 4 5 6 
#
# 1 180.5870 69.3471 80.0920 0.0000 0.0000 0.0000
# 2 69.3471 104.2410 59.8122 0.0000 0.0000 0.0000
# 3 80.0920 59.8122 145.6106 0.0000 0.0000 0.0000
# 4 0.0000 0.0000 0.0000 24.5402 0.0000 0.0000
# 5 0.0000 0.0000 0.0000 0.0000 180.3955 0.0000
# 6 0.0000 0.0000 0.0000 0.0000 0.0000 35.5802
#
#
#
# Elastic Compliance Matrix: (Units=1/GPa)
#
#
# Indices 1 2 3 4 5 6 
#
# 1 0.008343 -0.003817 -0.003021 0.000000 0.000000 0.000000
# 2 -0.003817 0.014298 -0.003774 0.000000 0.000000 0.000000
# 3 -0.003021 -0.003774 0.010080 0.000000 0.000000 0.000000
# 4 0.000000 0.000000 0.000000 0.040750 0.000000 0.000000
# 5 0.000000 0.000000 0.000000 0.000000 0.005543 0.000000
# 6 0.000000 0.000000 0.000000 0.000000 0.000000 0.028106
#
#
# Mechanical properties :
#
#
# Convention : Reuss Voigt Hill
#
# Bulk Modulus (GPa) = 86.97966 94.32681 90.65323
# Shear Modulus (GPa) = 37.82888 62.84899 50.33894
#
# Velocity S-wave (km/s) = 4.45030 5.73624 5.13369
# Velocity P-wave (km/s) = 8.48203 9.65697 9.08851
#
# Compressibility (1/GPa) = 0.01149694
#
# Stress axis : x y z
#
# Youngs Moduli (GPa) = 119.85916 69.94223 99.21095
#
# Poissons Ratio (x) = 0.26695 0.29974
# Poissons Ratio (y) = 0.45747 0.37438
# Poissons Ratio (z) = 0.36213 0.26393
#
# Static dielectric constant tensor:
#      x y z
#    x 3.813080 0.000000 0.000000 
#    y 0.000000 3.521170 0.000000 
#    z 0.000000 0.000000 3.617580 
# 
# 
# High freq. dielectric constant tensor:
#      x y z
#    x 1.759310 0.000000 0.000000 
#    y 0.000000 1.745820 0.000000 
#    z 0.000000 0.000000 1.744840 
# 
# From -- ./inp_files/66891.got.cif
#   From: 2010.03.12/outbox.cif.g09.slc.cpg/sg65_34_cif.got.tgz:66891.got - 2010.04.10 20:52:16.
