data_PCOD8272949
_publ_section_title
;
Structure prediction by ZEFSAII (Michael W. Deem and Ramdas Pophale) SiO2 
 PCOD8272949
Probable space group: C M M M
;
_chemical_formula_sum "Si O2"
_cell_formula_units_Z 96
_cell_length_a 20.069361
_cell_length_b 9.152939
_cell_length_c 29.354412
_cell_angle_alpha 90.000000
_cell_angle_beta 90.000000
_cell_angle_gamma 90.000000
_cell_volume 5392.218702
_symmetry_space_group_name_H-M "C M M M"
_symmetry_group_IT_number 65
_symmetry_cell_setting 'orthorhombic'
loop_
_space_group_symop_operation_xyz
x,y,z
-x,-y,z
x,-y,-z
-x,y,-z
-x,-y,-z
x,y,-z
-x,y,z
x,-y,z
1/2+x,1/2+y,z
1/2-x,1/2-y,z
1/2+x,1/2-y,-z
1/2-x,1/2+y,-z
1/2-x,1/2-y,-z
1/2+x,1/2+y,-z
1/2-x,1/2+y,z
1/2+x,1/2-y,z
loop_
_atom_site_type_symbol
_atom_site_label
_atom_site_fract_x
_atom_site_fract_y
_atom_site_fract_z
Si Si1 0.682323 0.828607 0.551933
Si Si2 0.183673 0.829987 0.889560
Si Si3 0.073329 0.673061 0.378530
Si Si4 0.923036 0.332732 0.052568
Si Si5 0.077853 0.331441 0.724209
Si Si6 0.683314 0.670493 0.216211
O O1 0.662200 0.792830 0.500000
O O2 0.750000 0.750000 0.565961
O O3 0.625020 0.763852 0.584625
O O4 0.692627 0.000000 0.559402
O O5 0.250000 0.750000 0.907369
O O6 0.119997 0.774240 0.916727
O O7 0.171523 0.795418 0.836708
O O8 0.193185 0.000000 0.898971
O O9 0.069369 0.500000 0.382759
O O10 0.095699 0.714914 0.327492
O O11 0.000000 0.738777 0.388929
O O12 0.907455 0.500000 0.065670
O O13 0.000000 0.296721 0.062006
O O14 0.905523 0.304592 0.000000
O O15 0.096704 0.500000 0.732912
O O16 0.119225 0.229556 0.757618
O O17 0.000000 0.305668 0.733796
O O18 0.691621 0.500000 0.225941
O O19 0.750000 0.750000 0.233911
#
# Coordination Sequence:
#
# PCOD8272949 Si02
#       6
#    16  16  16  16  16  16
#     4   9  17  29  46  68  94 124 157 195 239 285
#     4  10  21  36  54  76 102 133 168 207 250 294
#     4   8  15  29  48  70  95 122 157 200 239 280
#     4   9  19  36  56  78 105 136 169 205 245 291
#     4   9  18  33  52  73  99 131 164 200 246 298
#     4  10  21  36  53  74 101 131 166 208 249 293
#
# _framework density 17.803431
#
# number of rings (size 3 to 8) (size 9 to 14) (size 15 to 20)
#    0.000    2.833    0.000    2.500    0.000    5.000 
#    0.000    8.333    0.000    1.500    0.000    2.333 
#    0.000    0.000    0.000    0.000    0.000    0.000 
#
# Total GULP energy -595222.496648 kJ/mol
# GULP energy per Si atom -12400.468680 kJ/mol
# Density = 1.776291 g / cm^3
# Si number density = 17.803431 Si / 1000 Ang^3
#
#
#
# Elastic Constant Matrix: (Units=GPa)
#
#
# Indices 1 2 3 4 5 6 
#
# 1 116.5136 57.3198 73.9013 0.0000 0.0000 0.0000
# 2 57.3198 70.4595 49.7205 0.0000 0.0000 0.0000
# 3 73.9013 49.7205 85.7181 0.0000 0.0000 0.0000
# 4 0.0000 0.0000 0.0000 23.7345 0.0000 0.0000
# 5 0.0000 0.0000 0.0000 0.0000 35.4322 0.0000
# 6 0.0000 0.0000 0.0000 0.0000 0.0000 34.8396
#
#
#
# Elastic Compliance Matrix: (Units=1/GPa)
#
#
# Indices 1 2 3 4 5 6 
#
# 1 0.020929 -0.007268 -0.013828 0.000000 0.000000 0.000000
# 2 -0.007268 0.026551 -0.009135 0.000000 0.000000 0.000000
# 3 -0.013828 -0.009135 0.028886 0.000000 0.000000 0.000000
# 4 0.000000 0.000000 0.000000 0.042133 0.000000 0.000000
# 5 0.000000 0.000000 0.000000 0.000000 0.028223 0.000000
# 6 0.000000 0.000000 0.000000 0.000000 0.000000 0.028703
#
#
# Mechanical properties :
#
#
# Convention : Reuss Voigt Hill
#
# Bulk Modulus (GPa) = 62.87345 70.50826 66.69085
# Shear Modulus (GPa) = 20.73063 24.91790 22.82426
#
# Velocity S-wave (km/s) = 3.41606 3.74520 3.58441
# Velocity P-wave (km/s) = 7.13802 7.64145 7.39402
#
# Compressibility (1/GPa) = 0.01590497
#
# Stress axis : x y z
#
# Youngs Moduli (GPa) = 47.78055 37.66269 34.61842
#
# Poissons Ratio (x) = 0.27374 0.47870
# Poissons Ratio (y) = 0.34728 0.31623
# Poissons Ratio (z) = 0.66070 0.34404
#
# Static dielectric constant tensor:
#      x y z
#    x 3.455020 0.000000 0.000000 
#    y 0.000000 3.106540 0.000000 
#    z 0.000000 0.000000 3.327450 
# 
# 
# High freq. dielectric constant tensor:
#      x y z
#    x 1.694790 0.000000 0.000000 
#    y 0.000000 1.672540 0.000000 
#    z 0.000000 0.000000 1.688540 
# 
# From -- ./inp_files/71411.got.cif
#   From: 2010.03.12/outbox.cif.g09.slc.cpg/sg65_36_cif.got.tgz:71411.got - 2010.04.10 20:52:16.
