data_PCOD8272857
_publ_section_title
;
Structure prediction by ZEFSAII (Michael W. Deem and Ramdas Pophale) SiO2 
 PCOD8272857
Probable space group: C M M M
;
_chemical_formula_sum "Si O2"
_cell_formula_units_Z 64
_cell_length_a 18.132985
_cell_length_b 7.798584
_cell_length_c 22.524847
_cell_angle_alpha 90.000000
_cell_angle_beta 90.000000
_cell_angle_gamma 90.000000
_cell_volume 3185.274805
_symmetry_space_group_name_H-M "C M M M"
_symmetry_group_IT_number 65
_symmetry_cell_setting 'orthorhombic'
loop_
_space_group_symop_operation_xyz
x,y,z
-x,-y,z
x,-y,-z
-x,y,-z
-x,-y,-z
x,y,-z
-x,y,z
x,-y,z
1/2+x,1/2+y,z
1/2-x,1/2-y,z
1/2+x,1/2-y,-z
1/2-x,1/2+y,-z
1/2-x,1/2-y,-z
1/2+x,1/2+y,-z
1/2-x,1/2+y,z
1/2+x,1/2-y,z
loop_
_atom_site_type_symbol
_atom_site_label
_atom_site_fract_x
_atom_site_fract_y
_atom_site_fract_z
Si Si1 0.581656 0.199477 0.117148
Si Si2 0.913158 0.302938 0.349145
Si Si3 0.834581 0.298941 0.230071
Si Si4 0.587360 0.500000 0.566122
Si Si5 0.334721 0.700279 0.000000
O O1 0.500000 0.282995 0.111544
O O2 0.625072 0.284733 0.172747
O O3 0.572773 0.000000 0.129344
O O4 0.627265 0.223540 0.057630
O O5 0.891438 0.500000 0.365403
O O6 0.873131 0.234373 0.290089
O O7 0.000000 0.288930 0.337904
O O8 0.886602 0.174516 0.401119
O O9 0.843255 0.500000 0.226388
O O10 0.750000 0.250000 0.229940
O O11 0.500000 0.500000 0.562445
O O12 0.621763 0.500000 0.500000
O O13 0.250000 0.750000 0.000000
O O14 0.345289 0.500000 0.000000
#
# Coordination Sequence:
#
# PCOD8272857 Si02
#       5
#    16  16  16   8   8
#     4  10  21  39  61  83 112 148 187 232 288 343
#     4   9  18  34  55  81 113 148 187 233 284 338
#     4  10  21  35  55  83 110 145 185 231 280 338
#     4   9  18  32  54  86 116 145 186 232 281 337
#     4  12  25  40  57  81 113 149 191 238 281 340
#
# _framework density 20.092458000000001
#
# number of rings (size 3 to 8) (size 9 to 14) (size 15 to 20)
#    0.000    2.125    0.000    3.000    1.750    8.500 
#    0.000    2.500    0.000    0.750    0.000    0.000 
#    0.000    0.000    0.000    0.000    0.000    0.000 
#
# Total GULP energy -396739.568277 kJ/mol
# GULP energy per Si atom -12398.111509 kJ/mol
# Density = 2.004673 g / cm^3
# Si number density = 20.092458 Si / 1000 Ang^3
#
#
#
# Elastic Constant Matrix: (Units=GPa)
#
#
# Indices 1 2 3 4 5 6 
#
# 1 125.2069 22.9965 78.8350 0.0000 0.0000 0.0000
# 2 22.9965 64.8350 50.6503 0.0000 0.0000 0.0000
# 3 78.8350 50.6503 207.6258 0.0000 0.0000 0.0000
# 4 0.0000 0.0000 0.0000 12.0129 0.0000 0.0000
# 5 0.0000 0.0000 0.0000 0.0000 14.3187 0.0000
# 6 0.0000 0.0000 0.0000 0.0000 0.0000 24.0046
#
#
#
# Elastic Compliance Matrix: (Units=1/GPa)
#
#
# Indices 1 2 3 4 5 6 
#
# 1 0.010526 -0.000755 -0.003812 0.000000 0.000000 0.000000
# 2 -0.000755 0.019109 -0.004375 0.000000 0.000000 0.000000
# 3 -0.003812 -0.004375 0.007331 0.000000 0.000000 0.000000
# 4 0.000000 0.000000 0.000000 0.083244 0.000000 0.000000
# 5 0.000000 0.000000 0.000000 0.000000 0.069839 0.000000
# 6 0.000000 0.000000 0.000000 0.000000 0.000000 0.041659
#
#
# Mechanical properties :
#
#
# Convention : Reuss Voigt Hill
#
# Bulk Modulus (GPa) = 52.40705 78.07015 65.23860
# Shear Modulus (GPa) = 19.53479 26.41297 22.97388
#
# Velocity S-wave (km/s) = 3.12147 3.62964 3.38510
# Velocity P-wave (km/s) = 6.25548 7.51701 6.91507
#
# Compressibility (1/GPa) = 0.01908140
#
# Stress axis : x y z
#
# Youngs Moduli (GPa) = 95.00341 52.33009 136.40275
#
# Poissons Ratio (x) = 0.03952 0.52003
# Poissons Ratio (y) = 0.07174 0.59677
# Poissons Ratio (z) = 0.36220 0.22895
#
# Static dielectric constant tensor:
#      x y z
#    x 3.580740 0.000000 0.000000 
#    y 0.000000 3.702150 0.000000 
#    z 0.000000 0.000000 3.928310 
# 
# 
# High freq. dielectric constant tensor:
#      x y z
#    x 1.776730 0.000000 0.000000 
#    y 0.000000 1.779560 0.000000 
#    z 0.000000 0.000000 1.790590 
# 
# From -- ./inp_files/63255.got.cif
#   From: 2010.03.12/outbox.cif.g09.slc.cpg/sg65_32_cif.got.tgz:63255.got - 2010.04.10 20:52:16.
