data_PCOD8272036
_publ_section_title
;
Structure prediction by ZEFSAII (Michael W. Deem and Ramdas Pophale) SiO2 
 PCOD8272036
Probable space group: C M M M
;
_chemical_formula_sum "Si O2"
_cell_formula_units_Z 64
_cell_length_a 8.258023
_cell_length_b 33.851818
_cell_length_c 10.934629
_cell_angle_alpha 90.000000
_cell_angle_beta 90.000000
_cell_angle_gamma 90.000000
_cell_volume 3056.765604
_symmetry_space_group_name_H-M "C M M M"
_symmetry_group_IT_number 65
_symmetry_cell_setting 'orthorhombic'
loop_
_space_group_symop_operation_xyz
x,y,z
-x,-y,z
x,-y,-z
-x,y,-z
-x,-y,-z
x,y,-z
-x,y,z
x,-y,z
1/2+x,1/2+y,z
1/2-x,1/2-y,z
1/2+x,1/2-y,-z
1/2-x,1/2+y,-z
1/2-x,1/2-y,-z
1/2+x,1/2+y,-z
1/2-x,1/2+y,z
1/2+x,1/2-y,z
loop_
_atom_site_type_symbol
_atom_site_label
_atom_site_fract_x
_atom_site_fract_y
_atom_site_fract_z
Si Si1 0.687256 0.577211 0.744938
Si Si2 0.319095 0.500000 0.858558
Si Si3 0.192975 0.835094 0.751928
Si Si4 0.809437 0.294831 0.500000
Si Si5 0.311302 0.046671 0.500000
Si Si6 0.808655 0.205967 0.000000
O O1 0.500000 0.579363 0.782169
O O2 0.771676 0.540633 0.818714
O O3 0.763007 0.620386 0.768869
O O4 0.713863 0.567039 0.606254
O O5 0.500000 0.500000 0.798788
O O6 0.332470 0.500000 0.000000
O O7 0.252334 0.816170 0.624597
O O8 0.258314 0.813077 0.873728
O O9 0.000000 0.834864 0.745920
O O10 0.750000 0.250000 0.500000
O O11 0.000000 0.295056 0.500000
O O12 0.500000 0.058136 0.500000
O O13 0.287114 0.000000 0.500000
O O14 0.750000 0.250000 0.000000
O O15 0.000000 0.202735 0.000000
#
# Coordination Sequence:
#
# PCOD8272036 Si02
#       6
#    16   8  16   8   8   8
#     4  10  20  35  58  85 115 150 193 239 283 335
#     4   9  18  31  53  84 114 149 194 239 280 329
#     4  10  22  39  61  91 124 157 195 244 296 350
#     4  12  25  42  65  90 119 155 197 244 298 358
#     4  11  22  35  52  76 111 151 192 238 287 336
#     4  10  22  40  62  89 121 154 192 237 295 358
#
# _framework density 20.937163999999999
#
# number of rings (size 3 to 8) (size 9 to 14) (size 15 to 20)
#    0.000    1.750    1.250    3.000    1.750    7.500 
#    0.000    0.000    0.000    1.500    0.000    0.000 
#    0.000    0.000    0.000    0.000    0.000    0.000 
#
# Total GULP energy -396448.689186 kJ/mol
# GULP energy per Si atom -12389.021537 kJ/mol
# Density = 2.088951 g / cm^3
# Si number density = 20.937164 Si / 1000 Ang^3
#
#
#
# Elastic Constant Matrix: (Units=GPa)
#
#
# Indices 1 2 3 4 5 6 
#
# 1 30.4720 20.4623 15.0275 0.0000 0.0000 0.0000
# 2 20.4623 230.3322 98.3994 0.0000 0.0000 0.0000
# 3 15.0275 98.3994 170.7344 0.0000 0.0000 0.0000
# 4 0.0000 0.0000 0.0000 65.5753 0.0000 0.0000
# 5 0.0000 0.0000 0.0000 0.0000 10.5385 0.0000
# 6 0.0000 0.0000 0.0000 0.0000 0.0000 11.8996
#
#
#
# Elastic Compliance Matrix: (Units=1/GPa)
#
#
# Indices 1 2 3 4 5 6 
#
# 1 0.035277 -0.002398 -0.001723 0.000000 0.000000 0.000000
# 2 -0.002398 0.005923 -0.003202 0.000000 0.000000 0.000000
# 3 -0.001723 -0.003202 0.007854 0.000000 0.000000 0.000000
# 4 0.000000 0.000000 0.000000 0.015250 0.000000 0.000000
# 5 0.000000 0.000000 0.000000 0.000000 0.094890 0.000000
# 6 0.000000 0.000000 0.000000 0.000000 0.000000 0.084037
#
#
# Mechanical properties :
#
#
# Convention : Reuss Voigt Hill
#
# Bulk Modulus (GPa) = 29.06348 77.70187 53.38268
# Shear Modulus (GPa) = 18.56353 37.44598 28.00476
#
# Velocity S-wave (km/s) = 2.98086 4.23365 3.66124
# Velocity P-wave (km/s) = 5.07532 7.81606 6.58975
#
# Compressibility (1/GPa) = 0.03440744
#
# Stress axis : x y z
#
# Youngs Moduli (GPa) = 28.34717 168.84371 127.31863
#
# Poissons Ratio (x) = 0.40486 0.21937
# Poissons Ratio (y) = 0.06797 0.40772
# Poissons Ratio (z) = 0.04884 0.54070
#
# Static dielectric constant tensor:
#      x y z
#    x 3.536900 0.000000 0.000000 
#    y 0.000000 4.445960 0.000000 
#    z 0.000000 0.000000 4.023960 
# 
# 
# High freq. dielectric constant tensor:
#      x y z
#    x 1.781110 0.000000 0.000000 
#    y 0.000000 1.847990 0.000000 
#    z 0.000000 0.000000 1.832660 
# 
# From -- ./inp_files/21121.got.cif
#   From: 2010.03.12/outbox.cif.g09.slc.cpg/sg65_11_cif.got.tgz:21121.got - 2010.04.10 20:52:16.
