data_PCOD8272709
_publ_section_title
;
Structure prediction by ZEFSAII (Michael W. Deem and Ramdas Pophale) SiO2 
 PCOD8272709
Probable space group: C M M M
;
_chemical_formula_sum "Si O2"
_cell_formula_units_Z 88
_cell_length_a 19.068677
_cell_length_b 9.198059
_cell_length_c 27.613880
_cell_angle_alpha 90.000000
_cell_angle_beta 90.000000
_cell_angle_gamma 90.000000
_cell_volume 4843.331404
_symmetry_space_group_name_H-M "C M M M"
_symmetry_group_IT_number 65
_symmetry_cell_setting 'orthorhombic'
loop_
_space_group_symop_operation_xyz
x,y,z
-x,-y,z
x,-y,-z
-x,y,-z
-x,-y,-z
x,y,-z
-x,y,z
x,-y,z
1/2+x,1/2+y,z
1/2-x,1/2-y,z
1/2+x,1/2-y,-z
1/2-x,1/2+y,-z
1/2-x,1/2-y,-z
1/2+x,1/2+y,-z
1/2-x,1/2+y,z
1/2+x,1/2-y,z
loop_
_atom_site_type_symbol
_atom_site_label
_atom_site_fract_x
_atom_site_fract_y
_atom_site_fract_z
Si Si1 0.319251 0.668168 0.622849
Si Si2 0.679126 0.670144 0.735283
Si Si3 0.917576 0.335493 0.445421
Si Si4 0.823694 0.330193 0.895263
Si Si5 0.678740 0.167056 0.000000
Si Si6 0.081377 0.670402 0.193360
O O1 0.307621 0.500000 0.612596
O O2 0.250000 0.750000 0.605106
O O3 0.334691 0.699511 0.678931
O O4 0.384298 0.723708 0.591940
O O5 0.686494 0.500000 0.747109
O O6 0.750000 0.750000 0.752821
O O7 0.612820 0.737915 0.762509
O O8 0.892156 0.300771 0.500000
O O9 0.896399 0.500000 0.431452
O O10 0.000000 0.314839 0.441752
O O11 0.807693 0.500000 0.889760
O O12 0.750000 0.250000 0.887099
O O13 0.858819 0.295303 0.948587
O O14 0.880160 0.279407 0.855843
O O15 0.750000 0.250000 0.000000
O O16 0.698865 0.000000 0.000000
O O17 0.092204 0.500000 0.203766
O O18 0.000000 0.709936 0.188080
#
# Coordination Sequence:
#
# PCOD8272709 Si02
#       6
#    16  16  16  16   8  16
#     4  10  21  36  55  79 105 133 168 211 256 302
#     4  10  21  37  56  77 101 131 169 211 255 304
#     4   9  19  36  56  78 106 140 175 209 248 297
#     4   9  17  30  49  72  97 127 165 207 250 297
#     4   8  14  26  45  69  95 123 159 204 249 292
#     4  10  21  35  50  72 103 136 170 208 251 301
#
# _framework density 18.169312999999999
#
# number of rings (size 3 to 8) (size 9 to 14) (size 15 to 20)
#    0.000    2.545    0.000    2.182    0.000    6.545 
#    0.000    5.000    0.000    2.727    0.000    0.000 
#    0.000    8.727    0.000    0.000    0.000    0.000 
#
# Total GULP energy -545455.680614 kJ/mol
# GULP energy per Si atom -12396.720014 kJ/mol
# Density = 1.812796 g / cm^3
# Si number density = 18.169313 Si / 1000 Ang^3
#
#
#
# Elastic Constant Matrix: (Units=GPa)
#
#
# Indices 1 2 3 4 5 6 
#
# 1 101.0047 50.4299 63.4963 0.0000 0.0000 0.0000
# 2 50.4299 79.0638 57.8817 0.0000 0.0000 0.0000
# 3 63.4963 57.8817 102.9382 0.0000 0.0000 0.0000
# 4 0.0000 0.0000 0.0000 26.1953 0.0000 0.0000
# 5 0.0000 0.0000 0.0000 0.0000 18.3183 0.0000
# 6 0.0000 0.0000 0.0000 0.0000 0.0000 31.1645
#
#
#
# Elastic Compliance Matrix: (Units=1/GPa)
#
#
# Indices 1 2 3 4 5 6 
#
# 1 0.017490 -0.005537 -0.007675 0.000000 0.000000 0.000000
# 2 -0.005537 0.023250 -0.009658 0.000000 0.000000 0.000000
# 3 -0.007675 -0.009658 0.019880 0.000000 0.000000 0.000000
# 4 0.000000 0.000000 0.000000 0.038175 0.000000 0.000000
# 5 0.000000 0.000000 0.000000 0.000000 0.054590 0.000000
# 6 0.000000 0.000000 0.000000 0.000000 0.000000 0.032088
#
#
# Mechanical properties :
#
#
# Convention : Reuss Voigt Hill
#
# Bulk Modulus (GPa) = 67.20649 69.62473 68.41561
# Shear Modulus (GPa) = 21.17094 22.54888 21.85991
#
# Velocity S-wave (km/s) = 3.41721 3.52666 3.47237
# Velocity P-wave (km/s) = 7.25528 7.41527 7.33571
#
# Compressibility (1/GPa) = 0.01487951
#
# Stress axis : x y z
#
# Youngs Moduli (GPa) = 57.17571 43.01027 50.30274
#
# Poissons Ratio (x) = 0.23814 0.38608
# Poissons Ratio (y) = 0.31657 0.48583
# Poissons Ratio (z) = 0.43883 0.41540
#
# Static dielectric constant tensor:
#      x y z
#    x 3.120960 0.000000 0.000000 
#    y 0.000000 3.328060 0.000000 
#    z 0.000000 0.000000 3.765460 
# 
# 
# High freq. dielectric constant tensor:
#      x y z
#    x 1.683150 0.000000 0.000000 
#    y 0.000000 1.705620 0.000000 
#    z 0.000000 0.000000 1.719410 
# 
# From -- ./inp_files/67464.got.cif
#   From: 2010.03.12/outbox.cif.g09.slc.cpg/sg65_34_cif.got.tgz:67464.got - 2010.04.10 20:52:16.
