data_PCOD8272294
_publ_section_title
;
Structure prediction by ZEFSAII (Michael W. Deem and Ramdas Pophale) SiO2 
 PCOD8272294
Probable space group: C M M M
;
_chemical_formula_sum "Si O2"
_cell_formula_units_Z 88
_cell_length_a 14.965621
_cell_length_b 18.453347
_cell_length_c 16.682551
_cell_angle_alpha 90.000000
_cell_angle_beta 90.000000
_cell_angle_gamma 90.000000
_cell_volume 4607.149999
_symmetry_space_group_name_H-M "C M M M"
_symmetry_group_IT_number 65
_symmetry_cell_setting 'orthorhombic'
loop_
_space_group_symop_operation_xyz
x,y,z
-x,-y,z
x,-y,-z
-x,y,-z
-x,-y,-z
x,y,-z
-x,y,z
x,-y,z
1/2+x,1/2+y,z
1/2-x,1/2-y,z
1/2+x,1/2-y,-z
1/2-x,1/2+y,-z
1/2-x,1/2-y,-z
1/2+x,1/2+y,-z
1/2-x,1/2+y,z
1/2+x,1/2-y,z
loop_
_atom_site_type_symbol
_atom_site_label
_atom_site_fract_x
_atom_site_fract_y
_atom_site_fract_z
Si Si1 0.395177 0.918805 0.500000
Si Si2 0.603378 0.143065 0.668616
Si Si3 0.270314 0.419605 0.749576
Si Si4 0.895765 0.726308 0.912421
Si Si5 0.805584 0.579428 0.911817
Si Si6 0.603424 0.706504 0.250615
O O1 0.500000 0.928739 0.500000
O O2 0.366133 0.872800 0.577598
O O3 0.351768 0.000000 0.500000
O O4 0.500000 0.120307 0.684444
O O5 0.668041 0.095905 0.724425
O O6 0.616582 0.227960 0.687114
O O7 0.297956 0.500000 0.719734
O O8 0.273317 0.415195 0.846339
O O9 0.340396 0.361225 0.715072
O O10 0.879121 0.641344 0.897668
O O11 0.856490 0.771489 0.837324
O O12 0.000000 0.738649 0.912121
O O13 0.856270 0.751006 0.000000
O O14 0.852182 0.500000 0.904244
O O15 0.761507 0.588274 0.000000
O O16 0.500000 0.683899 0.244903
#
# Coordination Sequence:
#
# PCOD8272294 Si02
#       6
#     8  16  16  16  16  16
#     4   9  18  34  57  86 118 144 167 203 260 328
#     4  10  20  36  59  86 112 138 169 212 265 323
#     4  11  22  35  54  78 108 146 184 224 270 318
#     4   9  17  30  49  73 102 141 185 225 268 315
#     4   9  18  30  45  71 106 142 179 220 269 322
#     4  10  21  37  54  76 108 143 186 232 266 309
#
# _framework density 19.100746000000001
#
# number of rings (size 3 to 8) (size 9 to 14) (size 15 to 20)
#    0.000    2.273    1.818    1.091    0.000    2.545 
#    0.000    7.273    0.000    0.000    0.000    5.091 
#    0.000    5.818    0.000    0.000    0.000    0.000 
#
# Total GULP energy -545208.813073 kJ/mol
# GULP energy per Si atom -12391.109388 kJ/mol
# Density = 1.905727 g / cm^3
# Si number density = 19.100746 Si / 1000 Ang^3
#
#
#
# Elastic Constant Matrix: (Units=GPa)
#
#
# Indices 1 2 3 4 5 6 
#
# 1 56.2462 51.8623 29.4731 0.0000 0.0000 0.0000
# 2 51.8623 137.4261 47.4058 0.0000 0.0000 0.0000
# 3 29.4731 47.4058 96.9855 0.0000 0.0000 0.0000
# 4 0.0000 0.0000 0.0000 14.8026 0.0000 0.0000
# 5 0.0000 0.0000 0.0000 0.0000 9.1142 0.0000
# 6 0.0000 0.0000 0.0000 0.0000 0.0000 25.9185
#
#
#
# Elastic Compliance Matrix: (Units=1/GPa)
#
#
# Indices 1 2 3 4 5 6 
#
# 1 0.028563 -0.009364 -0.004103 0.000000 0.000000 0.000000
# 2 -0.009364 0.011822 -0.002933 0.000000 0.000000 0.000000
# 3 -0.004103 -0.002933 0.012991 0.000000 0.000000 0.000000
# 4 0.000000 0.000000 0.000000 0.067556 0.000000 0.000000
# 5 0.000000 0.000000 0.000000 0.000000 0.109718 0.000000
# 6 0.000000 0.000000 0.000000 0.000000 0.000000 0.038582
#
#
# Mechanical properties :
#
#
# Convention : Reuss Voigt Hill
#
# Bulk Modulus (GPa) = 48.59872 60.90448 54.75160
# Shear Modulus (GPa) = 16.18691 20.76152 18.47421
#
# Velocity S-wave (km/s) = 2.91426 3.30047 3.11336
# Velocity P-wave (km/s) = 6.06815 6.81757 6.45375
#
# Compressibility (1/GPa) = 0.02057667
#
# Stress axis : x y z
#
# Youngs Moduli (GPa) = 35.01033 84.58718 76.97439
#
# Poissons Ratio (x) = 0.79206 0.31583
# Poissons Ratio (y) = 0.32783 0.22576
# Poissons Ratio (z) = 0.14365 0.24809
#
# Static dielectric constant tensor:
#      x y z
#    x 3.065340 0.000000 0.000000 
#    y 0.000000 3.508920 0.000000 
#    z 0.000000 0.000000 3.838770 
# 
# 
# High freq. dielectric constant tensor:
#      x y z
#    x 1.702950 0.000000 0.000000 
#    y 0.000000 1.743370 0.000000 
#    z 0.000000 0.000000 1.738640 
# 
# From -- ./inp_files/53033.got.cif
#   From: 2010.03.12/outbox.cif.g09.slc.cpg/sg65_27_cif.got.tgz:53033.got - 2010.04.10 20:52:16.
