data_PCOD8272240
_publ_section_title
;
Structure prediction by ZEFSAII (Michael W. Deem and Ramdas Pophale) SiO2 
 PCOD8272240
Probable space group: C M M M
;
_chemical_formula_sum "Si O2"
_cell_formula_units_Z 88
_cell_length_a 23.664840
_cell_length_b 8.645242
_cell_length_c 22.650666
_cell_angle_alpha 90.000000
_cell_angle_beta 90.000000
_cell_angle_gamma 90.000000
_cell_volume 4634.060542
_symmetry_space_group_name_H-M "C M M M"
_symmetry_group_IT_number 65
_symmetry_cell_setting 'orthorhombic'
loop_
_space_group_symop_operation_xyz
x,y,z
-x,-y,z
x,-y,-z
-x,y,-z
-x,-y,-z
x,y,-z
-x,y,z
x,-y,z
1/2+x,1/2+y,z
1/2-x,1/2-y,z
1/2+x,1/2-y,-z
1/2-x,1/2+y,-z
1/2-x,1/2-y,-z
1/2+x,1/2+y,-z
1/2-x,1/2+y,z
1/2+x,1/2-y,z
loop_
_atom_site_type_symbol
_atom_site_label
_atom_site_fract_x
_atom_site_fract_y
_atom_site_fract_z
Si Si1 0.688089 0.679297 0.723324
Si Si2 0.399293 0.320516 0.373889
Si Si3 0.500000 0.679444 0.813827
Si Si4 0.881679 0.318753 0.831133
Si Si5 0.688826 0.677980 0.066947
Si Si6 0.436167 0.319410 0.500000
Si Si7 0.000000 0.323220 0.308676
O O1 0.694398 0.500000 0.736804
O O2 0.750000 0.750000 0.724946
O O3 0.660521 0.709660 0.658671
O O4 0.647969 0.746663 0.773888
O O5 0.417387 0.500000 0.365717
O O6 0.398301 0.273479 0.443033
O O7 0.444747 0.206025 0.346583
O O8 0.500000 0.500000 0.830052
O O9 0.444708 0.757763 0.840672
O O10 0.500000 0.701480 0.743960
O O11 0.882325 0.500000 0.821181
O O12 0.850806 0.276910 0.891313
O O13 0.690463 0.500000 0.087627
O O14 0.750000 0.750000 0.072694
O O15 0.666347 0.692005 0.000000
O O16 0.446317 0.500000 0.500000
O O17 0.500000 0.244042 0.500000
O O18 0.000000 0.500000 0.285534
#
# Coordination Sequence:
#
# PCOD8272240 Si02
#       7
#    16  16   8  16  16   8   8
#     4  11  23  38  58  82 114 154 196 242 292 345
#     4  10  20  36  58  82 112 150 193 240 289 347
#     4  12  24  40  60  86 120 156 194 233 289 352
#     4  12  24  39  61  90 122 153 192 241 294 346
#     4  10  21  39  63  90 121 159 202 246 291 340
#     4   9  16  30  57  86 108 142 194 240 285 345
#     4  12  22  33  55  85 118 150 185 234 291 345
#
# _framework density 18.989826000000001
#
# number of rings (size 3 to 8) (size 9 to 14) (size 15 to 20)
#    0.000    1.182    2.727    4.909    0.000    1.818 
#    0.000    1.818    0.000    2.727    0.000    0.000 
#    0.000    0.000    0.000    0.000    0.000    0.000 
#
# Total GULP energy -545578.062367 kJ/mol
# GULP energy per Si atom -12399.501417 kJ/mol
# Density = 1.894660 g / cm^3
# Si number density = 18.989826 Si / 1000 Ang^3
#
#
#
# Elastic Constant Matrix: (Units=GPa)
#
#
# Indices 1 2 3 4 5 6 
#
# 1 112.5410 44.1102 50.3523 0.0000 0.0000 0.0000
# 2 44.1102 114.4222 31.0955 0.0000 0.0000 0.0000
# 3 50.3523 31.0955 111.1547 0.0000 0.0000 0.0000
# 4 0.0000 0.0000 0.0000 18.4001 0.0000 0.0000
# 5 0.0000 0.0000 0.0000 0.0000 39.8923 0.0000
# 6 0.0000 0.0000 0.0000 0.0000 0.0000 28.1354
#
#
#
# Elastic Compliance Matrix: (Units=1/GPa)
#
#
# Indices 1 2 3 4 5 6 
#
# 1 0.012314 -0.003497 -0.004600 0.000000 0.000000 0.000000
# 2 -0.003497 0.010452 -0.001340 0.000000 0.000000 0.000000
# 3 -0.004600 -0.001340 0.011455 0.000000 0.000000 0.000000
# 4 0.000000 0.000000 0.000000 0.054348 0.000000 0.000000
# 5 0.000000 0.000000 0.000000 0.000000 0.025068 0.000000
# 6 0.000000 0.000000 0.000000 0.000000 0.000000 0.035542
#
#
# Mechanical properties :
#
#
# Convention : Reuss Voigt Hill
#
# Bulk Modulus (GPa) = 65.15714 65.47044 65.31379
# Shear Modulus (GPa) = 28.87361 31.45622 30.16492
#
# Velocity S-wave (km/s) = 3.90356 4.07440 3.98990
# Velocity P-wave (km/s) = 7.39616 7.52899 7.46287
#
# Compressibility (1/GPa) = 0.01534751
#
# Stress axis : x y z
#
# Youngs Moduli (GPa) = 81.20520 95.67721 87.29787
#
# Poissons Ratio (x) = 0.33460 0.40157
# Poissons Ratio (y) = 0.28399 0.11695
# Poissons Ratio (z) = 0.37355 0.12818
#
# Static dielectric constant tensor:
#      x y z
#    x 3.475920 0.000000 0.000000 
#    y 0.000000 3.511620 0.000000 
#    z 0.000000 0.000000 3.726050 
# 
# 
# High freq. dielectric constant tensor:
#      x y z
#    x 1.732820 0.000000 0.000000 
#    y 0.000000 1.742290 0.000000 
#    z 0.000000 0.000000 1.741160 
# 
# From -- ./inp_files/71072.got.cif
#   From: 2010.03.12/outbox.cif.g09.slc.cpg/sg65_36_cif.got.tgz:71072.got - 2010.04.10 20:52:16.
