data_PCOD8272518
_publ_section_title
;
Structure prediction by ZEFSAII (Michael W. Deem and Ramdas Pophale) SiO2 
 PCOD8272518
Probable space group: C M M M
;
_chemical_formula_sum "Si O2"
_cell_formula_units_Z 64
_cell_length_a 15.234539
_cell_length_b 8.459129
_cell_length_c 24.115499
_cell_angle_alpha 90.000000
_cell_angle_beta 90.000000
_cell_angle_gamma 90.000000
_cell_volume 3107.786799
_symmetry_space_group_name_H-M "C M M M"
_symmetry_group_IT_number 65
_symmetry_cell_setting 'orthorhombic'
loop_
_space_group_symop_operation_xyz
x,y,z
-x,-y,z
x,-y,-z
-x,y,-z
-x,-y,-z
x,y,-z
-x,y,z
x,-y,z
1/2+x,1/2+y,z
1/2-x,1/2-y,z
1/2+x,1/2-y,-z
1/2-x,1/2+y,-z
1/2-x,1/2-y,-z
1/2+x,1/2+y,-z
1/2-x,1/2+y,z
1/2+x,1/2-y,z
loop_
_atom_site_type_symbol
_atom_site_label
_atom_site_fract_x
_atom_site_fract_y
_atom_site_fract_z
Si Si1 0.500000 0.682719 0.307738
Si Si2 0.396153 0.183957 0.000000
Si Si3 0.847689 0.313359 0.619692
Si Si4 0.500000 0.816406 0.187777
Si Si5 0.346343 0.813936 0.500000
Si Si6 0.343397 0.313289 0.116447
O O1 0.500000 0.500000 0.321083
O O2 0.588131 0.755371 0.332783
O O3 0.500000 0.711423 0.242557
O O4 0.355061 0.271057 0.947649
O O5 0.500000 0.204872 0.000000
O O6 0.369164 0.000000 0.000000
O O7 0.842459 0.500000 0.622408
O O8 0.750000 0.250000 0.630334
O O9 0.887653 0.257897 0.559003
O O10 0.584962 0.778008 0.151973
O O11 0.500000 0.000000 0.203967
O O12 0.250000 0.750000 0.500000
O O13 0.344759 0.000000 0.500000
O O14 0.352044 0.500000 0.125578
O O15 0.250000 0.250000 0.137531
#
# Coordination Sequence:
#
# PCOD8272518 Si02
#       6
#     8   8  16   8   8  16
#     4  12  26  43  62  89 121 162 211 258 308 368
#     4  11  22  39  66  98 135 173 209 253 308 366
#     4  10  20  38  62  91 124 162 203 253 309 368
#     4  12  26  47  68  91 122 160 209 264 315 368
#     4   8  16  31  56  87 122 158 198 245 304 367
#     4  12  25  43  68  98 131 168 209 255 310 370
#
# _framework density 20.593433999999998
#
# number of rings (size 3 to 8) (size 9 to 14) (size 15 to 20)
#    0.000    1.125    1.250    6.000    0.000    3.000 
#    0.000    7.500    0.000    0.000    0.000    0.000 
#    0.000    0.000    0.000    0.000    0.000    0.000 
#
# Total GULP energy -396724.147999 kJ/mol
# GULP energy per Si atom -12397.629625 kJ/mol
# Density = 2.054656 g / cm^3
# Si number density = 20.593434 Si / 1000 Ang^3
#
#
#
# Elastic Constant Matrix: (Units=GPa)
#
#
# Indices 1 2 3 4 5 6 
#
# 1 130.3060 24.8549 47.1228 0.0000 0.0000 0.0000
# 2 24.8549 77.6756 0.8017 0.0000 0.0000 0.0000
# 3 47.1228 0.8017 118.7826 0.0000 0.0000 0.0000
# 4 0.0000 0.0000 0.0000 30.6524 0.0000 0.0000
# 5 0.0000 0.0000 0.0000 0.0000 73.2433 0.0000
# 6 0.0000 0.0000 0.0000 0.0000 0.0000 32.5476
#
#
#
# Elastic Compliance Matrix: (Units=1/GPa)
#
#
# Indices 1 2 3 4 5 6 
#
# 1 0.009628 -0.003042 -0.003799 0.000000 0.000000 0.000000
# 2 -0.003042 0.013836 0.001113 0.000000 0.000000 0.000000
# 3 -0.003799 0.001113 0.009918 0.000000 0.000000 0.000000
# 4 0.000000 0.000000 0.000000 0.032624 0.000000 0.000000
# 5 0.000000 0.000000 0.000000 0.000000 0.013653 0.000000
# 6 0.000000 0.000000 0.000000 0.000000 0.000000 0.030724
#
#
# Mechanical properties :
#
#
# Convention : Reuss Voigt Hill
#
# Bulk Modulus (GPa) = 45.60489 52.48033 49.04261
# Shear Modulus (GPa) = 38.71525 44.22098 41.46812
#
# Velocity S-wave (km/s) = 4.34058 4.63896 4.49225
# Velocity P-wave (km/s) = 6.87854 7.36428 7.12555
#
# Compressibility (1/GPa) = 0.02192747
#
# Stress axis : x y z
#
# Youngs Moduli (GPa) = 103.86029 72.27599 100.82263
#
# Poissons Ratio (x) = 0.21984 0.38304
# Poissons Ratio (y) = 0.31591 -0.11225
# Poissons Ratio (z) = 0.39458 -0.08046
#
# Static dielectric constant tensor:
#      x y z
#    x 3.763870 0.000000 0.000000 
#    y 0.000000 3.862640 0.000000 
#    z 0.000000 0.000000 4.103560 
# 
# 
# High freq. dielectric constant tensor:
#      x y z
#    x 1.808220 0.000000 0.000000 
#    y 0.000000 1.817850 0.000000 
#    z 0.000000 0.000000 1.815180 
# 
# From -- ./inp_files/69576.got.cif
#   From: 2010.03.12/outbox.cif.g09.slc.cpg/sg65_35_cif.got.tgz:69576.got - 2010.04.10 20:52:16.
