data_PCOD8272336
_publ_section_title
;
Structure prediction by ZEFSAII (Michael W. Deem and Ramdas Pophale) SiO2 
 PCOD8272336
Probable space group: C M M M
;
_chemical_formula_sum "Si O2"
_cell_formula_units_Z 64
_cell_length_a 30.085727
_cell_length_b 8.740335
_cell_length_c 12.445653
_cell_angle_alpha 90.000000
_cell_angle_beta 90.000000
_cell_angle_gamma 90.000000
_cell_volume 3272.700608
_symmetry_space_group_name_H-M "C M M M"
_symmetry_group_IT_number 65
_symmetry_cell_setting 'orthorhombic'
loop_
_space_group_symop_operation_xyz
x,y,z
-x,-y,z
x,-y,-z
-x,y,-z
-x,-y,-z
x,y,-z
-x,y,z
x,-y,z
1/2+x,1/2+y,z
1/2-x,1/2-y,z
1/2+x,1/2-y,-z
1/2-x,1/2+y,-z
1/2-x,1/2-y,-z
1/2+x,1/2+y,-z
1/2-x,1/2+y,z
1/2+x,1/2-y,z
loop_
_atom_site_type_symbol
_atom_site_label
_atom_site_fract_x
_atom_site_fract_y
_atom_site_fract_z
Si Si1 0.947772 0.818511 0.500000
Si Si2 0.618069 0.180061 0.329965
Si Si3 0.707995 0.667129 0.621762
Si Si4 0.409441 0.680433 0.122139
Si Si5 0.500000 0.169391 0.874116
O O1 0.923220 0.755427 0.606437
O O2 0.000000 0.769429 0.500000
O O3 0.943110 0.000000 0.500000
O O4 0.664670 0.226935 0.380643
O O5 0.622602 0.236405 0.206283
O O6 0.611603 0.000000 0.335748
O O7 0.722102 0.637233 0.500000
O O8 0.699001 0.500000 0.676193
O O9 0.750000 0.750000 0.680355
O O10 0.405198 0.500000 0.131995
O O11 0.458015 0.731965 0.161051
O O12 0.398824 0.733907 0.000000
O O13 0.500000 0.000000 0.819497
O O14 0.500000 0.146336 0.000000
#
# Coordination Sequence:
#
# PCOD8272336 Si02
#       5
#     8  16  16  16   8
#     4  11  25  43  60  81 116 161 203 241 288 348
#     4  12  24  38  60  87 120 155 194 241 291 348
#     4  10  20  36  60  87 118 150 188 237 289 344
#     4  10  21  37  57  80 110 151 197 242 288 340
#     4   9  17  31  51  76 105 138 185 241 288 329
#
# _framework density 19.555714999999999
#
# number of rings (size 3 to 8) (size 9 to 14) (size 15 to 20)
#    0.000    1.500    1.250    4.500    1.750    5.000 
#    0.000    0.000    0.000    0.750    0.000    0.000 
#    0.000    0.000    0.000    0.000    0.000    0.000 
#
# Total GULP energy -396640.673471 kJ/mol
# GULP energy per Si atom -12395.021046 kJ/mol
# Density = 1.951121 g / cm^3
# Si number density = 19.555715 Si / 1000 Ang^3
#
#
#
# Elastic Constant Matrix: (Units=GPa)
#
#
# Indices 1 2 3 4 5 6 
#
# 1 113.8037 47.9847 29.3946 0.0000 0.0000 0.0000
# 2 47.9847 135.7508 40.8712 0.0000 0.0000 0.0000
# 3 29.3946 40.8712 86.1629 0.0000 0.0000 0.0000
# 4 0.0000 0.0000 0.0000 28.1671 0.0000 0.0000
# 5 0.0000 0.0000 0.0000 0.0000 12.3976 0.0000
# 6 0.0000 0.0000 0.0000 0.0000 0.0000 33.4665
#
#
#
# Elastic Compliance Matrix: (Units=1/GPa)
#
#
# Indices 1 2 3 4 5 6 
#
# 1 0.010659 -0.003118 -0.002157 0.000000 0.000000 0.000000
# 2 -0.003118 0.009506 -0.003445 0.000000 0.000000 0.000000
# 3 -0.002157 -0.003445 0.013976 0.000000 0.000000 0.000000
# 4 0.000000 0.000000 0.000000 0.035502 0.000000 0.000000
# 5 0.000000 0.000000 0.000000 0.000000 0.080661 0.000000
# 6 0.000000 0.000000 0.000000 0.000000 0.000000 0.029881
#
#
# Mechanical properties :
#
#
# Convention : Reuss Voigt Hill
#
# Bulk Modulus (GPa) = 59.88181 63.57982 61.73082
# Shear Modulus (GPa) = 24.60715 29.30404 26.95560
#
# Velocity S-wave (km/s) = 3.55111 3.87523 3.71671
# Velocity P-wave (km/s) = 6.89213 7.25300 7.07487
#
# Compressibility (1/GPa) = 0.01669956
#
# Stress axis : x y z
#
# Youngs Moduli (GPa) = 93.81710 105.19708 71.55046
#
# Poissons Ratio (x) = 0.32803 0.15435
# Poissons Ratio (y) = 0.29254 0.24652
# Poissons Ratio (z) = 0.20238 0.36244
#
# Static dielectric constant tensor:
#      x y z
#    x -7.268040 0.000000 0.000000 
#    y 0.000000 3.841080 0.000000 
#    z 0.000000 0.000000 3.489290 
# 
# 
# High freq. dielectric constant tensor:
#      x y z
#    x 1.749220 0.000000 0.000000 
#    y 0.000000 1.782240 0.000000 
#    z 0.000000 0.000000 1.737670 
# 
# From -- ./inp_files/20980.got.cif
#   From: 2010.03.12/outbox.cif.g09.slc.cpg/sg65_11_cif.got.tgz:20980.got - 2010.04.10 20:52:16.
