data_PCOD8272850
_publ_section_title
;
Structure prediction by ZEFSAII (Michael W. Deem and Ramdas Pophale) SiO2 
 PCOD8272850
Probable space group: C M M M
;
_chemical_formula_sum "Si O2"
_cell_formula_units_Z 120
_cell_length_a 14.305023
_cell_length_b 20.371057
_cell_length_c 20.341723
_cell_angle_alpha 90.000000
_cell_angle_beta 90.000000
_cell_angle_gamma 90.000000
_cell_volume 5927.749744
_symmetry_space_group_name_H-M "C M M M"
_symmetry_group_IT_number 65
_symmetry_cell_setting 'orthorhombic'
loop_
_space_group_symop_operation_xyz
x,y,z
-x,-y,z
x,-y,-z
-x,y,-z
-x,-y,-z
x,y,-z
-x,y,z
x,-y,z
1/2+x,1/2+y,z
1/2-x,1/2-y,z
1/2+x,1/2-y,-z
1/2-x,1/2+y,-z
1/2-x,1/2-y,-z
1/2+x,1/2+y,-z
1/2-x,1/2+y,z
1/2+x,1/2-y,z
loop_
_atom_site_type_symbol
_atom_site_label
_atom_site_fract_x
_atom_site_fract_y
_atom_site_fract_z
Si Si1 0.889589 0.824168 0.927718
Si Si2 0.279115 0.352294 0.426072
Si Si3 0.110715 0.680985 0.892996
Si Si4 0.893548 0.336741 0.745089
Si Si5 0.107268 0.729495 0.385091
Si Si6 0.890013 0.924354 0.819102
Si Si7 0.265669 0.425030 0.300192
Si Si8 0.111485 0.576470 0.000000
O O1 0.849110 0.750408 0.919192
O O2 0.848551 0.876503 0.875684
O O3 0.000000 0.821569 0.918854
O O4 0.861565 0.849792 0.000000
O O5 0.293218 0.378402 0.500000
O O6 0.174229 0.323945 0.419299
O O7 0.358739 0.299739 0.409044
O O8 0.296417 0.410877 0.374927
O O9 0.144762 0.678229 0.817672
O O10 0.000000 0.681866 0.898093
O O11 0.147109 0.618363 0.935947
O O12 0.883930 0.274792 0.694923
O O13 0.834434 0.394715 0.714427
O O14 0.000000 0.361082 0.749014
O O15 0.000000 0.717336 0.407208
O O16 0.844681 0.900751 0.750684
O O17 0.000000 0.915223 0.810921
O O18 0.865420 0.000000 0.836878
O O19 0.249371 0.500000 0.290135
O O20 0.149075 0.500000 0.000000
O O21 0.000000 0.573575 0.000000
#
# Coordination Sequence:
#
# PCOD8272850 Si02
#       8
#    16  16  16  16  16  16  16   8
#     4   9  16  28  51  80 109 140 177 231 287 333
#     4  10  21  35  54  83 112 142 184 223 267 334
#     4   9  16  28  46  74 107 137 177 223 270 326
#     4   9  19  34  56  83 108 139 180 226 276 331
#     4   9  18  34  56  83 113 142 174 223 280 328
#     4   9  19  35  55  79 106 143 190 234 281 333
#     4  10  22  39  56  77 109 145 184 230 273 323
#     4   9  16  26  42  66 100 143 186 224 266 324
#
# _framework density 20.243770999999999
#
# number of rings (size 3 to 8) (size 9 to 14) (size 15 to 20)
#    0.000    2.733    0.667    0.800    1.867    2.933 
#    0.000    2.667    1.467    0.800    0.000    6.533 
#    0.000    0.000    0.000    0.000    0.000    0.000 
#
# Total GULP energy -743549.065991 kJ/mol
# GULP energy per Si atom -12392.484433 kJ/mol
# Density = 2.019769 g / cm^3
# Si number density = 20.243771 Si / 1000 Ang^3
#
#
#
# Elastic Constant Matrix: (Units=GPa)
#
#
# Indices 1 2 3 4 5 6 
#
# 1 53.5917 27.6047 31.8293 0.0000 0.0000 0.0000
# 2 27.6047 80.0979 61.9422 0.0000 0.0000 0.0000
# 3 31.8293 61.9422 185.8257 0.0000 0.0000 0.0000
# 4 0.0000 0.0000 0.0000 28.7645 0.0000 0.0000
# 5 0.0000 0.0000 0.0000 0.0000 21.7302 0.0000
# 6 0.0000 0.0000 0.0000 0.0000 0.0000 2.6913
#
#
#
# Elastic Compliance Matrix: (Units=1/GPa)
#
#
# Indices 1 2 3 4 5 6 
#
# 1 0.023105 -0.006605 -0.001756 0.000000 0.000000 0.000000
# 2 -0.006605 0.018709 -0.005105 0.000000 0.000000 0.000000
# 3 -0.001756 -0.005105 0.007384 0.000000 0.000000 0.000000
# 4 0.000000 0.000000 0.000000 0.034765 0.000000 0.000000
# 5 0.000000 0.000000 0.000000 0.000000 0.046019 0.000000
# 6 0.000000 0.000000 0.000000 0.000000 0.000000 0.371571
#
#
# Mechanical properties :
#
#
# Convention : Reuss Voigt Hill
#
# Bulk Modulus (GPa) = 44.91184 62.47419 53.69302
# Shear Modulus (GPa) = 9.33001 23.84647 16.58824
#
# Velocity S-wave (km/s) = 2.14915 3.43587 2.86566
# Velocity P-wave (km/s) = 5.32843 6.83142 6.12619
#
# Compressibility (1/GPa) = 0.02226584
#
# Stress axis : x y z
#
# Youngs Moduli (GPa) = 43.28150 53.45067 135.43135
#
# Poissons Ratio (x) = 0.35303 0.23780
# Poissons Ratio (y) = 0.28587 0.69138
# Poissons Ratio (z) = 0.07600 0.27287
#
# Static dielectric constant tensor:
#      x y z
#    x 3.516500 0.000000 0.000000 
#    y 0.000000 3.618890 0.000000 
#    z 0.000000 0.000000 4.065810 
# 
# 
# High freq. dielectric constant tensor:
#      x y z
#    x 1.780920 0.000000 0.000000 
#    y 0.000000 1.768490 0.000000 
#    z 0.000000 0.000000 1.799920 
# 
# From -- ./inp_files/63040.got.cif
#   From: 2010.03.12/outbox.cif.g09.slc.cpg/sg65_32_cif.got.tgz:63040.got - 2010.04.10 20:52:16.
