data_PCOD8272721
_publ_section_title
;
Structure prediction by ZEFSAII (Michael W. Deem and Ramdas Pophale) SiO2 
 PCOD8272721
Probable space group: C M M M
;
_chemical_formula_sum "Si O2"
_cell_formula_units_Z 80
_cell_length_a 18.221842
_cell_length_b 9.300712
_cell_length_c 26.211191
_cell_angle_alpha 90.000000
_cell_angle_beta 90.000000
_cell_angle_gamma 90.000000
_cell_volume 4442.170546
_symmetry_space_group_name_H-M "C M M M"
_symmetry_group_IT_number 65
_symmetry_cell_setting 'orthorhombic'
loop_
_space_group_symop_operation_xyz
x,y,z
-x,-y,z
x,-y,-z
-x,y,-z
-x,-y,-z
x,y,-z
-x,y,z
x,-y,z
1/2+x,1/2+y,z
1/2-x,1/2-y,z
1/2+x,1/2-y,-z
1/2-x,1/2+y,-z
1/2-x,1/2-y,-z
1/2+x,1/2+y,-z
1/2-x,1/2+y,z
1/2+x,1/2-y,z
loop_
_atom_site_type_symbol
_atom_site_label
_atom_site_fract_x
_atom_site_fract_y
_atom_site_fract_z
Si Si1 0.414867 0.166610 0.900523
Si Si2 0.080376 0.829373 0.500000
Si Si3 0.087576 0.337712 0.705343
Si Si4 0.674173 0.831296 0.000000
Si Si5 0.412105 0.661890 0.609394
Si Si6 0.087401 0.837451 0.197792
O O1 0.500000 0.197988 0.911040
O O2 0.384473 0.259342 0.853286
O O3 0.402168 0.000000 0.887290
O O4 0.371389 0.215575 0.950473
O O5 0.119745 0.785874 0.553703
O O6 0.000000 0.756969 0.500000
O O7 0.071553 0.000000 0.500000
O O8 0.117369 0.500000 0.708959
O O9 0.118004 0.266893 0.653275
O O10 0.118381 0.247725 0.753254
O O11 0.000000 0.335424 0.705597
O O12 0.750000 0.750000 0.000000
O O13 0.689220 0.000000 0.000000
O O14 0.500000 0.665111 0.606945
O O15 0.385762 0.500000 0.622078
O O16 0.000000 0.836111 0.199075
O O17 0.117739 0.000000 0.198864
#
# Coordination Sequence:
#
# PCOD8272721 Si02
#       6
#    16   8  16   8  16  16
#     4   9  17  31  50  69  89 115 147 180 214 254
#     4   7  10  16  25  35  47  69 105 147 190 235
#     4   9  15  21  29  43  64  89 116 150 196 246
#     4  10  21  35  51  71  95 122 148 176 212 254
#     4   8  12  18  27  37  51  75 109 149 192 238
#     4   9  16  25  38  57  78  99 126 163 207 251
#
# _framework density 18.009214
#
# number of rings (size 3 to 8) (size 9 to 14) (size 15 to 20)
#    0.000    3.300    0.000    2.700    0.000    6.800 
#    0.000    0.500    0.000    6.000    0.000    0.000 
#    0.000    0.000    0.000    0.000    0.000    0.000 
#
# Total GULP energy -495687.577591 kJ/mol
# GULP energy per Si atom -12392.189440 kJ/mol
# Density = 1.796822 g / cm^3
# Si number density = 18.009214 Si / 1000 Ang^3
#
#
#
# Elastic Constant Matrix: (Units=GPa)
#
#
# Indices 1 2 3 4 5 6 
#
# 1 20.5571 18.5144 28.1202 0.0000 0.0000 0.0000
# 2 18.5144 120.4002 100.2017 0.0000 0.0000 0.0000
# 3 28.1202 100.2017 214.7488 0.0000 0.0000 0.0000
# 4 0.0000 0.0000 0.0000 35.2005 0.0000 0.0000
# 5 0.0000 0.0000 0.0000 0.0000 -0.1428 0.0000
# 6 0.0000 0.0000 0.0000 0.0000 0.0000 10.8915
#
#
#
# Elastic Compliance Matrix: (Units=1/GPa)
#
#
# Indices 1 2 3 4 5 6 
#
# 1 0.060680 -0.004444 -0.005872 0.000000 0.000000 0.000000
# 2 -0.004444 0.013904 -0.005906 0.000000 0.000000 0.000000
# 3 -0.005872 -0.005906 0.008181 0.000000 0.000000 0.000000
# 4 0.000000 0.000000 0.000000 0.028409 0.000000 0.000000
# 5 0.000000 0.000000 0.000000 0.000000 -7.002023 0.000000
# 6 0.000000 0.000000 0.000000 0.000000 0.000000 0.091815
#
#
# Mechanical properties :
#
#
# Convention : Reuss Voigt Hill
#
# Bulk Modulus (GPa) = 19.87224 72.15317 46.01271
# Shear Modulus (GPa) = -0.74076 23.11449 11.18686
#
# Velocity S-wave (km/s) = -0.64204 3.58646 2.49504
# Velocity P-wave (km/s) = 3.24173 7.56980 5.82283
#
# Compressibility (1/GPa) = 0.05032146
#
# Stress axis : x y z
#
# Youngs Moduli (GPa) = 16.47991 71.92230 122.23296
#
# Poissons Ratio (x) = 0.31962 0.71777
# Poissons Ratio (y) = 0.07324 0.72186
# Poissons Ratio (z) = 0.09677 0.42475
#
# Static dielectric constant tensor:
#      x y z
#    x 2.507390 0.000000 0.000000 
#    y 0.000000 3.340710 0.000000 
#    z 0.000000 0.000000 3.798980 
# 
# 
# High freq. dielectric constant tensor:
#      x y z
#    x 1.604210 0.000000 0.000000 
#    y 0.000000 1.690520 0.000000 
#    z 0.000000 0.000000 1.724630 
# 
# From -- ./inp_files/75293.got.cif
#   From: 2010.03.12/outbox.cif.g09.slc.cpg/sg65_38_cif.got.tgz:75293.got - 2010.04.10 20:52:16.
