data_PCOD8272396
_publ_section_title
;
Structure prediction by ZEFSAII (Michael W. Deem and Ramdas Pophale) SiO2 
 PCOD8272396
Probable space group: C M M M
;
_chemical_formula_sum "Si O2"
_cell_formula_units_Z 72
_cell_length_a 8.681889
_cell_length_b 14.389559
_cell_length_c 30.798329
_cell_angle_alpha 90.000000
_cell_angle_beta 90.000000
_cell_angle_gamma 90.000000
_cell_volume 3847.590707
_symmetry_space_group_name_H-M "C M M M"
_symmetry_group_IT_number 65
_symmetry_cell_setting 'orthorhombic'
loop_
_space_group_symop_operation_xyz
x,y,z
-x,-y,z
x,-y,-z
-x,y,-z
-x,-y,-z
x,y,-z
-x,y,z
x,-y,z
1/2+x,1/2+y,z
1/2-x,1/2-y,z
1/2+x,1/2-y,-z
1/2-x,1/2+y,-z
1/2-x,1/2-y,-z
1/2+x,1/2+y,-z
1/2-x,1/2+y,z
1/2+x,1/2-y,z
loop_
_atom_site_type_symbol
_atom_site_label
_atom_site_fract_x
_atom_site_fract_y
_atom_site_fract_z
Si Si1 0.682516 0.147725 0.774907
Si Si2 0.681150 0.500000 0.062588
Si Si3 0.181991 0.500000 0.294169
Si Si4 0.681561 0.000000 0.390958
Si Si5 0.322110 0.649825 0.548502
Si Si6 0.180157 0.000000 0.163837
Si Si7 0.816243 0.353355 0.000000
O O1 0.500000 0.152798 0.778631
O O2 0.750000 0.250000 0.772728
O O3 0.735769 0.092097 0.731688
O O4 0.745731 0.093329 0.816670
O O5 0.500000 0.500000 0.052441
O O6 0.716736 0.500000 0.113220
O O7 0.756762 0.592501 0.042533
O O8 0.253882 0.500000 0.342471
O O9 0.000000 0.500000 0.297475
O O10 0.735684 0.909732 0.416042
O O11 0.500000 0.000000 0.388612
O O12 0.300738 0.607853 0.500000
O O13 0.500000 0.654415 0.561079
O O14 0.250000 0.750000 0.550493
O O15 0.000000 0.000000 0.173969
O O16 0.750000 0.250000 0.000000
O O17 0.000000 0.350210 0.000000
#
# Coordination Sequence:
#
# PCOD8272396 Si02
#       7
#    16   8   8   8  16   8   8
#     4  10  20  37  59  81 109 143 179 221 270 322
#     4  10  21  38  58  82 114 146 183 232 278 322
#     4   8  19  37  54  77 108 141 177 219 264 316
#     4  11  21  35  56  81 109 139 175 217 265 320
#     4  10  21  37  55  77 106 139 177 219 263 313
#     4  10  21  37  58  85 113 143 182 227 274 324
#     4  11  22  37  58  82 112 151 192 229 272 324
#
# _framework density 18.713009
#
# number of rings (size 3 to 8) (size 9 to 14) (size 15 to 20)
#    0.000    2.000    0.000    5.000    0.000    6.222 
#    0.000    8.889    0.000    0.000    0.000    0.000 
#    0.000    0.000    0.000    0.000    0.000    0.000 
#
# Total GULP energy -446410.461792 kJ/mol
# GULP energy per Si atom -12400.290605 kJ/mol
# Density = 1.867042 g / cm^3
# Si number density = 18.713009 Si / 1000 Ang^3
#
#
#
# Elastic Constant Matrix: (Units=GPa)
#
#
# Indices 1 2 3 4 5 6 
#
# 1 116.9609 60.6942 66.1407 0.0000 0.0000 0.0000
# 2 60.6942 162.9726 79.8145 0.0000 0.0000 0.0000
# 3 66.1407 79.8145 161.9701 0.0000 0.0000 0.0000
# 4 0.0000 0.0000 0.0000 20.9094 0.0000 0.0000
# 5 0.0000 0.0000 0.0000 0.0000 27.1826 0.0000
# 6 0.0000 0.0000 0.0000 0.0000 0.0000 38.1310
#
#
#
# Elastic Compliance Matrix: (Units=1/GPa)
#
#
# Indices 1 2 3 4 5 6 
#
# 1 0.011967 -0.002720 -0.003546 0.000000 0.000000 0.000000
# 2 -0.002720 0.008706 -0.003179 0.000000 0.000000 0.000000
# 3 -0.003546 -0.003179 0.009189 0.000000 0.000000 0.000000
# 4 0.000000 0.000000 0.000000 0.047825 0.000000 0.000000
# 5 0.000000 0.000000 0.000000 0.000000 0.036788 0.000000
# 6 0.000000 0.000000 0.000000 0.000000 0.000000 0.026225
#
#
# Mechanical properties :
#
#
# Convention : Reuss Voigt Hill
#
# Bulk Modulus (GPa) = 91.15488 95.02247 93.08868
# Shear Modulus (GPa) = 30.62811 32.92821 31.77816
#
# Velocity S-wave (km/s) = 4.05004 4.19936 4.12538
# Velocity P-wave (km/s) = 8.40763 8.62565 8.51734
#
# Compressibility (1/GPa) = 0.01097034
#
# Stress axis : x y z
#
# Youngs Moduli (GPa) = 83.56515 114.86293 108.82718
#
# Poissons Ratio (x) = 0.31241 0.38594
# Poissons Ratio (y) = 0.22728 0.34601
# Poissons Ratio (z) = 0.29635 0.36520
#
# Static dielectric constant tensor:
#      x y z
#    x 3.517530 0.000000 0.000000 
#    y 0.000000 3.508610 0.000000 
#    z 0.000000 0.000000 3.684900 
# 
# 
# High freq. dielectric constant tensor:
#      x y z
#    x 1.735990 0.000000 0.000000 
#    y 0.000000 1.733580 0.000000 
#    z 0.000000 0.000000 1.730790 
# 
# From -- ./inp_files/76392.got.cif
#   From: 2010.03.12/outbox.cif.g09.slc.cpg/sg65_39_cif.got.tgz:76392.got - 2010.04.10 20:52:16.
