data_PCOD8272559
_publ_section_title
;
Structure prediction by ZEFSAII (Michael W. Deem and Ramdas Pophale) SiO2 
 PCOD8272559
Probable space group: C M M M
;
_chemical_formula_sum "Si O2"
_cell_formula_units_Z 68
_cell_length_a 7.344839
_cell_length_b 25.103676
_cell_length_c 17.615945
_cell_angle_alpha 90.000000
_cell_angle_beta 90.000000
_cell_angle_gamma 90.000000
_cell_volume 3248.071248
_symmetry_space_group_name_H-M "C M M M"
_symmetry_group_IT_number 65
_symmetry_cell_setting 'orthorhombic'
loop_
_space_group_symop_operation_xyz
x,y,z
-x,-y,z
x,-y,-z
-x,y,-z
-x,-y,-z
x,y,-z
-x,y,z
x,-y,z
1/2+x,1/2+y,z
1/2-x,1/2-y,z
1/2+x,1/2-y,-z
1/2-x,1/2+y,-z
1/2-x,1/2-y,-z
1/2+x,1/2+y,-z
1/2-x,1/2+y,z
1/2+x,1/2-y,z
loop_
_atom_site_type_symbol
_atom_site_label
_atom_site_fract_x
_atom_site_fract_y
_atom_site_fract_z
Si Si1 0.786778 0.809763 0.149409
Si Si2 0.283816 0.596459 0.415662
Si Si3 0.000000 0.609886 0.087354
Si Si4 0.710910 0.307848 0.320247
Si Si5 0.500000 0.000000 0.180811
Si Si6 0.214795 0.000000 0.310811
O O1 0.750000 0.750000 0.117403
O O2 0.679043 0.854573 0.103183
O O3 0.707794 0.812339 0.235486
O O4 0.000000 0.823244 0.143589
O O5 0.200727 0.589105 0.500000
O O6 0.500000 0.598031 0.422089
O O7 0.201767 0.650050 0.378300
O O8 0.221206 0.549820 0.360417
O O9 0.000000 0.554116 0.132159
O O10 0.000000 0.593676 0.000000
O O11 0.500000 0.319991 0.313367
O O12 0.750000 0.250000 0.355015
O O13 0.682372 0.000000 0.231115
O O14 0.000000 0.000000 0.293386
#
# Coordination Sequence:
#
# PCOD8272559 Si02
#       6
#    16  16   8  16   4   8
#     4  10  20  40  66  97 128 164 212 262 308 368
#     4   9  17  32  55  83 116 154 199 252 307 357
#     4  12  27  44  66  95 131 167 201 254 326 391
#     4   9  18  31  52  80 114 156 201 241 291 358
#     4  12  27  46  67  92 126 166 216 262 307 384
#     4  10  21  41  67  89 111 159 211 263 308 359
#
# _framework density 20.935500999999999
#
# number of rings (size 3 to 8) (size 9 to 14) (size 15 to 20)
#    0.000    2.118    1.176    1.941    1.647    5.647 
#    2.118    1.176    0.000    2.118    0.000    0.000 
#    0.000    0.000    0.000    0.000    0.000    0.000 
#
# Total GULP energy -421500.493941 kJ/mol
# GULP energy per Si atom -12397.073351 kJ/mol
# Density = 2.088785 g / cm^3
# Si number density = 20.935501 Si / 1000 Ang^3
#
#
#
# Elastic Constant Matrix: (Units=GPa)
#
#
# Indices 1 2 3 4 5 6 
#
# 1 87.5113 35.6265 35.7302 0.0000 0.0000 0.0000
# 2 35.6265 191.6407 93.4992 0.0000 0.0000 0.0000
# 3 35.7302 93.4992 146.0561 0.0000 0.0000 0.0000
# 4 0.0000 0.0000 0.0000 24.2479 0.0000 0.0000
# 5 0.0000 0.0000 0.0000 0.0000 11.5295 0.0000
# 6 0.0000 0.0000 0.0000 0.0000 0.0000 23.5949
#
#
#
# Elastic Compliance Matrix: (Units=1/GPa)
#
#
# Indices 1 2 3 4 5 6 
#
# 1 0.012897 -0.001248 -0.002356 0.000000 0.000000 0.000000
# 2 -0.001248 0.007709 -0.004630 0.000000 0.000000 0.000000
# 3 -0.002356 -0.004630 0.010387 0.000000 0.000000 0.000000
# 4 0.000000 0.000000 0.000000 0.041241 0.000000 0.000000
# 5 0.000000 0.000000 0.000000 0.000000 0.086734 0.000000
# 6 0.000000 0.000000 0.000000 0.000000 0.000000 0.042382
#
#
# Mechanical properties :
#
#
# Convention : Reuss Voigt Hill
#
# Bulk Modulus (GPa) = 68.84578 83.88000 76.36289
# Shear Modulus (GPa) = 22.45591 29.23128 25.84360
#
# Velocity S-wave (km/s) = 3.27865 3.74070 3.51727
# Velocity P-wave (km/s) = 6.87668 7.66877 7.28350
#
# Compressibility (1/GPa) = 0.01452522
#
# Stress axis : x y z
#
# Youngs Moduli (GPa) = 77.53632 129.72144 96.27680
#
# Poissons Ratio (x) = 0.16191 0.22684
# Poissons Ratio (y) = 0.09677 0.44572
# Poissons Ratio (z) = 0.18268 0.60055
#
# Static dielectric constant tensor:
#      x y z
#    x 3.569510 0.000000 0.000000 
#    y 0.000000 3.962150 0.000000 
#    z 0.000000 0.000000 3.826150 
# 
# 
# High freq. dielectric constant tensor:
#      x y z
#    x 1.814470 0.000000 0.000000 
#    y 0.000000 1.828290 0.000000 
#    z 0.000000 0.000000 1.806270 
# 
# From -- ./inp_files/49279.got.cif
#   From: 2010.03.12/outbox.cif.g09.slc.cpg/sg65_25_cif.got.tgz:49279.got - 2010.04.10 20:52:16.
