data_PCOD8272905
_publ_section_title
;
Structure prediction by ZEFSAII (Michael W. Deem and Ramdas Pophale) SiO2 
 PCOD8272905
Probable space group: C M M M
;
_chemical_formula_sum "Si O2"
_cell_formula_units_Z 88
_cell_length_a 19.160735
_cell_length_b 17.476298
_cell_length_c 14.568779
_cell_angle_alpha 90.000000
_cell_angle_beta 90.000000
_cell_angle_gamma 90.000000
_cell_volume 4878.482612
_symmetry_space_group_name_H-M "C M M M"
_symmetry_group_IT_number 65
_symmetry_cell_setting 'orthorhombic'
loop_
_space_group_symop_operation_xyz
x,y,z
-x,-y,z
x,-y,-z
-x,y,-z
-x,-y,-z
x,y,-z
-x,y,z
x,-y,z
1/2+x,1/2+y,z
1/2-x,1/2-y,z
1/2+x,1/2-y,-z
1/2-x,1/2+y,-z
1/2-x,1/2-y,-z
1/2+x,1/2+y,-z
1/2-x,1/2+y,z
1/2+x,1/2-y,z
loop_
_atom_site_type_symbol
_atom_site_label
_atom_site_fract_x
_atom_site_fract_y
_atom_site_fract_z
Si Si1 0.358729 0.843199 0.401543
Si Si2 0.500000 0.086697 0.156060
Si Si3 0.857769 0.832371 0.390623
Si Si4 0.349074 0.090347 0.103315
Si Si5 0.500000 0.086939 0.372266
Si Si6 0.000000 0.914166 0.391933
Si Si7 0.758970 0.412619 0.269537
O O1 0.319643 0.846347 0.500000
O O2 0.356049 0.756584 0.365413
O O3 0.437184 0.867512 0.416432
O O4 0.326176 0.905445 0.334053
O O5 0.427217 0.125727 0.120786
O O6 0.500000 0.092357 0.263926
O O7 0.500000 0.000000 0.119263
O O8 0.842789 0.847637 0.500000
O O9 0.931550 0.868194 0.360369
O O10 0.801598 0.866273 0.320050
O O11 0.287089 0.120681 0.171217
O O12 0.354657 0.000000 0.121454
O O13 0.325673 0.110380 0.000000
O O14 0.500000 0.000000 0.406470
O O15 0.000000 0.921291 0.500000
O O16 0.000000 0.000000 0.348964
O O17 0.734480 0.500000 0.260430
#
# Coordination Sequence:
#
# PCOD8272905 Si02
#       7
#    16   8  16  16   8   8  16
#     4  11  22  34  48  69 105 147 176 202 247 309
#     4   9  15  28  48  72 101 133 169 209 250 296
#     4  10  21  36  52  72 101 138 176 214 260 311
#     4   9  17  30  50  76 104 133 168 214 264 310
#     4  11  20  32  50  77 107 138 176 211 249 300
#     4   9  17  32  54  75  93 120 169 226 265 295
#     4  11  21  33  51  76 103 132 174 219 257 302
#
# _framework density 18.038395000000001
#
# number of rings (size 3 to 8) (size 9 to 14) (size 15 to 20)
#    0.000    1.909    1.818    3.273    0.000    7.636 
#    0.000    0.000    0.000    2.182    0.000    0.636 
#    0.000    3.636    0.000    0.000    0.000    0.000 
#
# Total GULP energy -545102.588509 kJ/mol
# GULP energy per Si atom -12388.695193 kJ/mol
# Density = 1.799734 g / cm^3
# Si number density = 18.038395 Si / 1000 Ang^3
#
#
#
# Elastic Constant Matrix: (Units=GPa)
#
#
# Indices 1 2 3 4 5 6 
#
# 1 110.7749 23.4629 50.4957 0.0000 0.0000 0.0000
# 2 23.4629 60.3546 28.3631 0.0000 0.0000 0.0000
# 3 50.4957 28.3631 108.4939 0.0000 0.0000 0.0000
# 4 0.0000 0.0000 0.0000 12.1760 0.0000 0.0000
# 5 0.0000 0.0000 0.0000 0.0000 23.0842 0.0000
# 6 0.0000 0.0000 0.0000 0.0000 0.0000 23.1176
#
#
#
# Elastic Compliance Matrix: (Units=1/GPa)
#
#
# Indices 1 2 3 4 5 6 
#
# 1 0.011726 -0.002273 -0.004863 0.000000 0.000000 0.000000
# 2 -0.002273 0.019330 -0.003995 0.000000 0.000000 0.000000
# 3 -0.004863 -0.003995 0.012525 0.000000 0.000000 0.000000
# 4 0.000000 0.000000 0.000000 0.082128 0.000000 0.000000
# 5 0.000000 0.000000 0.000000 0.000000 0.043320 0.000000
# 6 0.000000 0.000000 0.000000 0.000000 0.000000 0.043257
#
#
# Mechanical properties :
#
#
# Convention : Reuss Voigt Hill
#
# Bulk Modulus (GPa) = 46.90987 53.80743 50.35865
# Shear Modulus (GPa) = 20.69066 23.49567 22.09317
#
# Velocity S-wave (km/s) = 3.39046 3.61298 3.50349
# Velocity P-wave (km/s) = 6.43343 6.87743 6.65913
#
# Compressibility (1/GPa) = 0.02131748
#
# Stress axis : x y z
#
# Youngs Moduli (GPa) = 85.28368 51.73309 79.83988
#
# Poissons Ratio (x) = 0.11759 0.38827
# Poissons Ratio (y) = 0.19384 0.31900
# Poissons Ratio (z) = 0.41475 0.20670
#
# Static dielectric constant tensor:
#      x y z
#    x 3.640640 0.000000 0.000000 
#    y 0.000000 3.133650 0.000000 
#    z 0.000000 0.000000 3.271820 
# 
# 
# High freq. dielectric constant tensor:
#      x y z
#    x 1.704270 0.000000 0.000000 
#    y 0.000000 1.668430 0.000000 
#    z 0.000000 0.000000 1.684140 
# 
# From -- ./inp_files/42580.got.cif
#   From: 2010.03.12/outbox.cif.g09.slc.cpg/sg65_22_cif.got.tgz:42580.got - 2010.04.10 20:52:16.
