data_PCOD8272999
_publ_section_title
;
Structure prediction by ZEFSAII (Michael W. Deem and Ramdas Pophale) SiO2 
 PCOD8272999
Probable space group: C M M M
;
_chemical_formula_sum "Si O2"
_cell_formula_units_Z 104
_cell_length_a 31.850442
_cell_length_b 9.444944
_cell_length_c 17.722095
_cell_angle_alpha 90.000000
_cell_angle_beta 90.000000
_cell_angle_gamma 90.000000
_cell_volume 5331.260589
_symmetry_space_group_name_H-M "C M M M"
_symmetry_group_IT_number 65
_symmetry_cell_setting 'orthorhombic'
loop_
_space_group_symop_operation_xyz
x,y,z
-x,-y,z
x,-y,-z
-x,y,-z
-x,-y,-z
x,y,-z
-x,y,z
x,-y,z
1/2+x,1/2+y,z
1/2-x,1/2-y,z
1/2+x,1/2-y,-z
1/2-x,1/2+y,-z
1/2-x,1/2-y,-z
1/2+x,1/2+y,-z
1/2-x,1/2+y,z
1/2+x,1/2-y,z
loop_
_atom_site_type_symbol
_atom_site_label
_atom_site_fract_x
_atom_site_fract_y
_atom_site_fract_z
Si Si1 0.208243 0.333089 0.828121
Si Si2 0.123902 0.662757 0.088227
Si Si3 0.000000 0.657443 0.588462
Si Si4 0.213694 0.344618 0.342563
Si Si5 0.048086 0.165101 0.842256
Si Si6 0.567916 0.665401 0.330385
Si Si7 0.627809 0.158956 0.414479
O O1 0.215145 0.500000 0.842661
O O2 0.250000 0.250000 0.857034
O O3 0.166265 0.280120 0.871683
O O4 0.199497 0.293692 0.740893
O O5 0.115950 0.500000 0.111146
O O6 0.081996 0.748401 0.110257
O O7 0.131215 0.680870 0.000000
O O8 0.959881 0.745235 0.612546
O O9 0.000000 0.500000 0.624914
O O10 0.000000 0.642629 0.500000
O O11 0.232805 0.500000 0.332761
O O12 0.250000 0.250000 0.377270
O O13 0.177374 0.343828 0.403983
O O14 0.055126 0.198642 0.754570
O O15 0.000000 0.208330 0.863546
O O16 0.055180 0.000000 0.858922
O O17 0.564224 0.500000 0.348252
O O18 0.613344 0.726706 0.351719
O O19 0.617161 0.205950 0.500000
O O20 0.609495 0.000000 0.399454
#
# Coordination Sequence:
#
# PCOD8272999 Si02
#       7
#    16  16   8  16  16  16  16
#     4   9  18  34  56  82 114 149 187 231 279 333
#     4  10  22  39  59  87 120 151 188 234 281 336
#     4  11  23  37  55  81 112 145 180 221 273 332
#     4   9  18  33  53  76 105 143 187 233 279 328
#     4  10  22  41  61  83 113 148 191 239 287 342
#     4  11  22  38  58  81 110 143 184 233 279 329
#     4  10  21  36  53  77 111 149 189 233 283 340
#
# _framework density 19.507580999999998
#
# number of rings (size 3 to 8) (size 9 to 14) (size 15 to 20)
#    0.000    2.077    0.769    2.077    0.000    8.000 
#    0.000    4.615    0.000    0.000    0.000    0.000 
#    0.000    0.000    0.000    0.000    0.000    0.000 
#
# Total GULP energy -644602.905861 kJ/mol
# GULP energy per Si atom -12396.209728 kJ/mol
# Density = 1.946318 g / cm^3
# Si number density = 19.507581 Si / 1000 Ang^3
#
#
#
# Elastic Constant Matrix: (Units=GPa)
#
#
# Indices 1 2 3 4 5 6 
#
# 1 107.4754 41.0472 25.0720 0.0000 0.0000 0.0000
# 2 41.0472 71.6053 26.6646 0.0000 0.0000 0.0000
# 3 25.0720 26.6646 46.3714 0.0000 0.0000 0.0000
# 4 0.0000 0.0000 0.0000 27.4614 0.0000 0.0000
# 5 0.0000 0.0000 0.0000 0.0000 22.4527 0.0000
# 6 0.0000 0.0000 0.0000 0.0000 0.0000 33.4281
#
#
#
# Elastic Compliance Matrix: (Units=1/GPa)
#
#
# Indices 1 2 3 4 5 6 
#
# 1 0.012298 -0.005820 -0.003303 0.000000 0.000000 0.000000
# 2 -0.005820 0.020525 -0.008656 0.000000 0.000000 0.000000
# 3 -0.003303 -0.008656 0.028328 0.000000 0.000000 0.000000
# 4 0.000000 0.000000 0.000000 0.036415 0.000000 0.000000
# 5 0.000000 0.000000 0.000000 0.000000 0.044538 0.000000
# 6 0.000000 0.000000 0.000000 0.000000 0.000000 0.029915
#
#
# Mechanical properties :
#
#
# Convention : Reuss Voigt Hill
#
# Bulk Modulus (GPa) = 39.07107 45.66886 42.36997
# Shear Modulus (GPa) = 23.13688 25.51298 24.32493
#
# Velocity S-wave (km/s) = 3.44764 3.62034 3.53505
# Velocity P-wave (km/s) = 5.99336 6.39824 6.19911
#
# Compressibility (1/GPa) = 0.02559438
#
# Stress axis : x y z
#
# Youngs Moduli (GPa) = 81.31713 48.72163 35.30095
#
# Poissons Ratio (x) = 0.28354 0.11658
# Poissons Ratio (y) = 0.47324 0.30555
# Poissons Ratio (z) = 0.26855 0.42172
#
# Static dielectric constant tensor:
#      x y z
#    x 3.826510 0.000000 0.000000 
#    y 0.000000 3.635310 0.000000 
#    z 0.000000 0.000000 3.409740 
# 
# 
# High freq. dielectric constant tensor:
#      x y z
#    x 1.767910 0.000000 0.000000 
#    y 0.000000 1.756420 0.000000 
#    z 0.000000 0.000000 1.751900 
# 
# From -- ./inp_files/66410.got.cif
#   From: 2010.03.12/outbox.cif.g09.slc.cpg/sg65_34_cif.got.tgz:66410.got - 2010.04.10 20:52:16.
