data_PCOD8272375
_publ_section_title
;
Structure prediction by ZEFSAII (Michael W. Deem and Ramdas Pophale) SiO2 
 PCOD8272375
Probable space group: C M M M
;
_chemical_formula_sum "Si O2"
_cell_formula_units_Z 88
_cell_length_a 27.405820
_cell_length_b 18.781340
_cell_length_c 9.566275
_cell_angle_alpha 90.000000
_cell_angle_beta 90.000000
_cell_angle_gamma 90.000000
_cell_volume 4923.934159
_symmetry_space_group_name_H-M "C M M M"
_symmetry_group_IT_number 65
_symmetry_cell_setting 'orthorhombic'
loop_
_space_group_symop_operation_xyz
x,y,z
-x,-y,z
x,-y,-z
-x,y,-z
-x,-y,-z
x,y,-z
-x,y,z
x,-y,z
1/2+x,1/2+y,z
1/2-x,1/2-y,z
1/2+x,1/2-y,-z
1/2-x,1/2+y,-z
1/2-x,1/2-y,-z
1/2+x,1/2+y,-z
1/2-x,1/2+y,z
1/2+x,1/2-y,z
loop_
_atom_site_type_symbol
_atom_site_label
_atom_site_fract_x
_atom_site_fract_y
_atom_site_fract_z
Si Si1 0.000000 0.084235 0.161711
Si Si2 0.725569 0.915314 0.155013
Si Si3 0.382681 0.081545 0.835278
Si Si4 0.085062 0.847018 0.337960
Si Si5 0.686003 0.417952 0.661491
Si Si6 0.443547 0.189103 0.659627
O O1 0.952340 0.113398 0.237848
O O2 0.000000 0.000000 0.173693
O O3 0.000000 0.108926 0.000000
O O4 0.671755 0.891898 0.207169
O O5 0.767600 0.885825 0.256389
O O6 0.726357 0.000000 0.151334
O O7 0.735639 0.885035 0.000000
O O8 0.422507 0.128295 0.757598
O O9 0.390692 0.000000 0.789521
O O10 0.390151 0.089899 0.000000
O O11 0.072549 0.865016 0.500000
O O12 0.138719 0.873187 0.296436
O O13 0.083941 0.762941 0.311328
O O14 0.698764 0.409690 0.500000
O O15 0.676164 0.500000 0.701464
O O16 0.436506 0.164879 0.500000
O O17 0.500000 0.200705 0.696089
#
# Coordination Sequence:
#
# PCOD8272375 Si02
#       6
#     8  16  16  16  16  16
#     4  11  23  35  51  79 108 135 178 229 265 300
#     4   8  15  30  51  74 103 136 167 207 260 311
#     4   9  19  36  57  80 104 134 173 212 259 323
#     4  10  20  37  55  73 104 145 181 214 259 315
#     4   9  17  29  50  79 104 132 175 218 255 301
#     4  10  21  37  55  76 103 137 176 218 265 314
#
# _framework density 17.871888999999999
#
# number of rings (size 3 to 8) (size 9 to 14) (size 15 to 20)
#    0.000    2.636    0.909    1.909    0.000    4.727 
#    0.000    6.364    0.000    5.455    0.000    0.000 
#    0.000    0.000    0.000    0.000    0.000    0.000 
#
# Total GULP energy -545584.063509 kJ/mol
# GULP energy per Si atom -12399.637807 kJ/mol
# Density = 1.783121 g / cm^3
# Si number density = 17.871889 Si / 1000 Ang^3
#
#
#
# Elastic Constant Matrix: (Units=GPa)
#
#
# Indices 1 2 3 4 5 6 
#
# 1 90.0590 44.0425 41.5763 0.0000 0.0000 0.0000
# 2 44.0425 70.8793 38.2404 0.0000 0.0000 0.0000
# 3 41.5763 38.2404 65.3034 0.0000 0.0000 0.0000
# 4 0.0000 0.0000 0.0000 23.5874 0.0000 0.0000
# 5 0.0000 0.0000 0.0000 0.0000 30.4476 0.0000
# 6 0.0000 0.0000 0.0000 0.0000 0.0000 -27.3631
#
#
#
# Elastic Compliance Matrix: (Units=1/GPa)
#
#
# Indices 1 2 3 4 5 6 
#
# 1 0.017990 -0.007308 -0.007174 0.000000 0.000000 0.000000
# 2 -0.007308 0.023593 -0.009163 0.000000 0.000000 0.000000
# 3 -0.007174 -0.009163 0.025246 0.000000 0.000000 0.000000
# 4 0.000000 0.000000 0.000000 0.042396 0.000000 0.000000
# 5 0.000000 0.000000 0.000000 0.000000 0.032843 0.000000
# 6 0.000000 0.000000 0.000000 0.000000 0.000000 -0.036546
#
#
# Mechanical properties :
#
#
# Convention : Reuss Voigt Hill
#
# Bulk Modulus (GPa) = 51.17911 52.66221 51.92066
# Shear Modulus (GPa) = 31.38250 12.15986 21.77118
#
# Velocity S-wave (km/s) = 4.19498 2.61126 3.49403
# Velocity P-wave (km/s) = 7.22237 6.21466 6.73738
#
# Compressibility (1/GPa) = 0.01953922
#
# Stress axis : x y z
#
# Youngs Moduli (GPa) = 55.58788 42.38571 39.60987
#
# Poissons Ratio (x) = 0.30974 0.28416
# Poissons Ratio (y) = 0.40622 0.36294
# Poissons Ratio (z) = 0.39879 0.38838
#
# Static dielectric constant tensor:
#      x y z
#    x 3.512270 0.000000 0.000000 
#    y 0.000000 3.085260 0.000000 
#    z 0.000000 0.000000 3.360090 
# 
# 
# High freq. dielectric constant tensor:
#      x y z
#    x 1.700980 0.000000 0.000000 
#    y 0.000000 1.670590 0.000000 
#    z 0.000000 0.000000 1.689540 
# 
# From -- ./inp_files/12638.got.cif
#   From: 2010.03.12/outbox.cif.g09.slc.cpg/sg65_7_cif.got.tgz:12638.got - 2010.04.10 20:52:16.
