data_PCOD8272438
_publ_section_title
;
Structure prediction by ZEFSAII (Michael W. Deem and Ramdas Pophale) SiO2 
 PCOD8272438
Probable space group: C M M M
;
_chemical_formula_sum "Si O2"
_cell_formula_units_Z 88
_cell_length_a 12.331602
_cell_length_b 16.918740
_cell_length_c 20.576967
_cell_angle_alpha 90.000000
_cell_angle_beta 90.000000
_cell_angle_gamma 90.000000
_cell_volume 4293.078967
_symmetry_space_group_name_H-M "C M M M"
_symmetry_group_IT_number 65
_symmetry_cell_setting 'orthorhombic'
loop_
_space_group_symop_operation_xyz
x,y,z
-x,-y,z
x,-y,-z
-x,y,-z
-x,-y,-z
x,y,-z
-x,y,z
x,-y,z
1/2+x,1/2+y,z
1/2-x,1/2-y,z
1/2+x,1/2-y,-z
1/2-x,1/2+y,-z
1/2-x,1/2-y,-z
1/2+x,1/2+y,-z
1/2-x,1/2+y,z
1/2+x,1/2-y,z
loop_
_atom_site_type_symbol
_atom_site_label
_atom_site_fract_x
_atom_site_fract_y
_atom_site_fract_z
Si Si1 0.000000 0.912649 0.074973
Si Si2 0.782004 0.407135 0.795510
Si Si3 0.265258 0.840883 0.427151
Si Si4 0.724525 0.658449 0.926641
Si Si5 0.878178 0.093030 0.687370
Si Si6 0.500000 0.912084 0.255381
Si Si7 0.000000 0.588960 0.593065
O O1 0.898883 0.858606 0.093310
O O2 0.000000 0.000000 0.110496
O O3 0.000000 0.932002 0.000000
O O4 0.782783 0.500000 0.784323
O O5 0.789164 0.388768 0.872159
O O6 0.680756 0.373203 0.753146
O O7 0.891469 0.367273 0.767478
O O8 0.219545 0.855809 0.500000
O O9 0.250000 0.750000 0.407440
O O10 0.194042 0.890340 0.376249
O O11 0.392159 0.864411 0.428104
O O12 0.750000 0.750000 0.921194
O O13 0.751669 0.628035 0.000000
O O14 0.000000 0.130262 0.682489
O O15 0.889434 0.000000 0.693224
O O16 0.500000 0.918028 0.331148
O O17 0.500000 0.000000 0.224409
O O18 0.000000 0.500000 0.563049
#
# Coordination Sequence:
#
# PCOD8272438 Si02
#       7
#     8  16  16  16  16   8   8
#     4   9  18  35  60  86 112 154 208 252 298 361
#     4  10  20  37  61  87 117 156 205 257 311 370
#     4  11  25  41  61  92 130 164 201 256 314 363
#     4  10  22  38  56  85 123 158 199 256 314 366
#     4  10  22  40  63  91 122 160 205 253 309 374
#     4   9  18  36  60  86 116 149 196 260 309 350
#     4  11  21  42  70  92 119 164 224 267 295 360
#
# _framework density 20.498107999999998
#
# number of rings (size 3 to 8) (size 9 to 14) (size 15 to 20)
#    0.000    1.909    1.818    1.364    2.545    4.727 
#    0.000    2.273    0.000    1.636    0.000    0.000 
#    0.000    0.000    0.000    0.000    0.000    0.000 
#
# Total GULP energy -545152.066192 kJ/mol
# GULP energy per Si atom -12389.819686 kJ/mol
# Density = 2.045145 g / cm^3
# Si number density = 20.498108 Si / 1000 Ang^3
#
#
#
# Elastic Constant Matrix: (Units=GPa)
#
#
# Indices 1 2 3 4 5 6 
#
# 1 146.8058 43.6793 56.6089 0.0000 0.0000 0.0000
# 2 43.6793 64.6091 9.1992 0.0000 0.0000 0.0000
# 3 56.6089 9.1992 131.6935 0.0000 0.0000 0.0000
# 4 0.0000 0.0000 0.0000 26.5699 0.0000 0.0000
# 5 0.0000 0.0000 0.0000 0.0000 46.8371 0.0000
# 6 0.0000 0.0000 0.0000 0.0000 0.0000 36.1933
#
#
#
# Elastic Compliance Matrix: (Units=1/GPa)
#
#
# Indices 1 2 3 4 5 6 
#
# 1 0.010225 -0.006350 -0.003952 0.000000 0.000000 0.000000
# 2 -0.006350 0.019577 0.001362 0.000000 0.000000 0.000000
# 3 -0.003952 0.001362 0.009197 0.000000 0.000000 0.000000
# 4 0.000000 0.000000 0.000000 0.037637 0.000000 0.000000
# 5 0.000000 0.000000 0.000000 0.000000 0.021351 0.000000
# 6 0.000000 0.000000 0.000000 0.000000 0.000000 0.027629
#
#
# Mechanical properties :
#
#
# Convention : Reuss Voigt Hill
#
# Bulk Modulus (GPa) = 47.34988 62.45367 54.90177
# Shear Modulus (GPa) = 33.21522 37.49480 35.35501
#
# Velocity S-wave (km/s) = 4.02979 4.28154 4.15757
# Velocity P-wave (km/s) = 6.69343 7.41460 7.06322
#
# Compressibility (1/GPa) = 0.02111938
#
# Stress axis : x y z
#
# Youngs Moduli (GPa) = 97.80200 51.08137 108.73294
#
# Poissons Ratio (x) = 0.32436 0.42967
# Poissons Ratio (y) = 0.62103 -0.14810
# Poissons Ratio (z) = 0.38647 -0.06957
#
# Static dielectric constant tensor:
#      x y z
#    x 4.213550 0.000000 0.000000 
#    y 0.000000 3.503990 0.000000 
#    z 0.000000 0.000000 3.818660 
# 
# 
# High freq. dielectric constant tensor:
#      x y z
#    x 1.807940 0.000000 0.000000 
#    y 0.000000 1.774820 0.000000 
#    z 0.000000 0.000000 1.813110 
# 
# From -- ./inp_files/61521.got.cif
#   From: 2010.03.12/outbox.cif.g09.slc.cpg/sg65_31_cif.got.tgz:61521.got - 2010.04.10 20:52:16.
