data_PCOD8272508
_publ_section_title
;
Structure prediction by ZEFSAII (Michael W. Deem and Ramdas Pophale) SiO2 
 PCOD8272508
Probable space group: C M M M
;
_chemical_formula_sum "Si O2"
_cell_formula_units_Z 96
_cell_length_a 22.736742
_cell_length_b 24.256492
_cell_length_c 8.773125
_cell_angle_alpha 90.000000
_cell_angle_beta 90.000000
_cell_angle_gamma 90.000000
_cell_volume 4838.497756
_symmetry_space_group_name_H-M "C M M M"
_symmetry_group_IT_number 65
_symmetry_cell_setting 'orthorhombic'
loop_
_space_group_symop_operation_xyz
x,y,z
-x,-y,z
x,-y,-z
-x,y,-z
-x,-y,-z
x,y,-z
-x,y,z
x,-y,z
1/2+x,1/2+y,z
1/2-x,1/2-y,z
1/2+x,1/2-y,-z
1/2-x,1/2+y,-z
1/2-x,1/2-y,-z
1/2+x,1/2+y,-z
1/2-x,1/2+y,z
1/2+x,1/2-y,z
loop_
_atom_site_type_symbol
_atom_site_label
_atom_site_fract_x
_atom_site_fract_y
_atom_site_fract_z
Si Si1 0.500000 0.390202 0.178651
Si Si2 0.695526 0.683540 0.821349
Si Si3 0.190737 0.500000 0.172634
Si Si4 0.500000 0.271543 0.321466
Si Si5 0.873599 0.278955 0.320694
Si Si6 0.685083 0.122847 0.182263
Si Si7 0.301779 0.500000 0.336593
Si Si8 0.885478 0.101557 0.329073
O O1 0.500000 0.326112 0.221562
O O2 0.555122 0.420676 0.254401
O O3 0.500000 0.399235 0.000000
O O4 0.681404 0.743004 0.746360
O O5 0.752765 0.649842 0.760057
O O6 0.637380 0.649795 0.779397
O O7 0.701162 0.693521 0.000000
O O8 0.172786 0.559763 0.245522
O O9 0.261187 0.500000 0.188311
O O10 0.169968 0.500000 0.000000
O O11 0.500000 0.286094 0.500000
O O12 0.559966 0.239179 0.277725
O O13 0.864771 0.281284 0.500000
O O14 0.867168 0.339989 0.249010
O O15 0.684626 0.121360 0.000000
O O16 0.267020 0.500000 0.500000
O O17 0.340676 0.552995 0.330805
O O18 0.895959 0.125257 0.500000
#
# Coordination Sequence:
#
# PCOD8272508 Si02
#       8
#     8  16   8   8  16  16   8  16
#     4  12  24  37  57  82 108 151 200 241 287 340
#     4  11  21  35  57  86 118 151 190 234 284 341
#     4  10  20  38  61  84 115 154 186 231 290 341
#     4  10  22  40  59  82 113 150 186 235 292 340
#     4  11  23  38  59  85 117 152 190 234 288 346
#     4  10  22  38  58  86 120 152 188 234 285 341
#     4  10  22  37  57  82 110 151 198 241 285 337
#     4  11  22  37  56  80 113 151 194 244 289 334
#
# _framework density 19.840869000000001
#
# number of rings (size 3 to 8) (size 9 to 14) (size 15 to 20)
#    0.000    1.333    3.333    2.750    0.000    5.667 
#    0.000    1.667    0.000    0.500    0.000    3.500 
#    0.000    0.000    0.000    0.000    0.000    0.000 
#
# Total GULP energy -594739.629805 kJ/mol
# GULP energy per Si atom -12390.408954 kJ/mol
# Density = 1.979571 g / cm^3
# Si number density = 19.840869 Si / 1000 Ang^3
#
#
#
# Elastic Constant Matrix: (Units=GPa)
#
#
# Indices 1 2 3 4 5 6 
#
# 1 41.6036 10.0579 13.7744 0.0000 0.0000 0.0000
# 2 10.0579 113.1154 24.6635 0.0000 0.0000 0.0000
# 3 13.7744 24.6635 45.4380 0.0000 0.0000 0.0000
# 4 0.0000 0.0000 0.0000 25.8420 0.0000 0.0000
# 5 0.0000 0.0000 0.0000 0.0000 29.1296 0.0000
# 6 0.0000 0.0000 0.0000 0.0000 0.0000 -4.3609
#
#
#
# Elastic Compliance Matrix: (Units=1/GPa)
#
#
# Indices 1 2 3 4 5 6 
#
# 1 0.026766 -0.000693 -0.007738 0.000000 0.000000 0.000000
# 2 -0.000693 0.010045 -0.005242 0.000000 0.000000 0.000000
# 3 -0.007738 -0.005242 0.027199 0.000000 0.000000 0.000000
# 4 0.000000 0.000000 0.000000 0.038697 0.000000 0.000000
# 5 0.000000 0.000000 0.000000 0.000000 0.034329 0.000000
# 6 0.000000 0.000000 0.000000 0.000000 0.000000 -0.229313
#
#
# Mechanical properties :
#
#
# Convention : Reuss Voigt Hill
#
# Bulk Modulus (GPa) = 27.27474 33.01650 30.14562
# Shear Modulus (GPa) = -94.86020 20.23291 -37.31364
#
# Velocity S-wave (km/s) = -6.92202 3.19683 -4.34135
# Velocity P-wave (km/s) = 7.07878 5.50482 3.14691
#
# Compressibility (1/GPa) = 0.03666396
#
# Stress axis : x y z
#
# Youngs Moduli (GPa) = 37.36114 99.55017 36.76562
#
# Poissons Ratio (x) = 0.06897 0.28449
# Poissons Ratio (y) = 0.02588 0.19274
# Poissons Ratio (z) = 0.28910 0.52189
#
# Static dielectric constant tensor:
#      x y z
#    x 3.628070 0.000000 0.000000 
#    y 0.000000 3.682790 0.000000 
#    z 0.000000 0.000000 3.693380 
# 
# 
# High freq. dielectric constant tensor:
#      x y z
#    x 1.753830 0.000000 0.000000 
#    y 0.000000 1.780720 0.000000 
#    z 0.000000 0.000000 1.768990 
# 
# From -- ./inp_files/14456.got.cif
#   From: 2010.03.12/outbox.cif.g09.slc.cpg/sg65_8_cif.got.tgz:14456.got - 2010.04.10 20:52:16.
