data_PCOD8272256
_publ_section_title
;
Structure prediction by ZEFSAII (Michael W. Deem and Ramdas Pophale) SiO2 
 PCOD8272256
Probable space group: C M M M
;
_chemical_formula_sum "Si O2"
_cell_formula_units_Z 104
_cell_length_a 28.431949
_cell_length_b 9.348983
_cell_length_c 19.976313
_cell_angle_alpha 90.000000
_cell_angle_beta 90.000000
_cell_angle_gamma 90.000000
_cell_volume 5309.899920
_symmetry_space_group_name_H-M "C M M M"
_symmetry_group_IT_number 65
_symmetry_cell_setting 'orthorhombic'
loop_
_space_group_symop_operation_xyz
x,y,z
-x,-y,z
x,-y,-z
-x,y,-z
-x,-y,-z
x,y,-z
-x,y,z
x,-y,z
1/2+x,1/2+y,z
1/2-x,1/2-y,z
1/2+x,1/2-y,-z
1/2-x,1/2+y,-z
1/2-x,1/2-y,-z
1/2+x,1/2+y,-z
1/2-x,1/2+y,z
1/2+x,1/2-y,z
loop_
_atom_site_type_symbol
_atom_site_label
_atom_site_fract_x
_atom_site_fract_y
_atom_site_fract_z
Si Si1 0.054436 0.162376 0.077899
Si Si2 0.703476 0.334371 0.622184
Si Si3 0.611608 0.828440 0.816810
Si Si4 0.948320 0.655138 0.304702
Si Si5 0.606986 0.773056 0.576693
Si Si6 0.797092 0.833613 0.779622
Si Si7 0.051475 0.000000 0.579096
O O1 0.084627 0.280267 0.116769
O O2 0.000000 0.189582 0.094320
O O3 0.068226 0.000000 0.098744
O O4 0.064592 0.185519 0.000000
O O5 0.706616 0.500000 0.598855
O O6 0.750000 0.250000 0.600550
O O7 0.662419 0.250468 0.583274
O O8 0.694307 0.322799 0.700530
O O9 0.582393 0.767027 0.752618
O O10 0.661419 0.748237 0.817357
O O11 0.619378 0.000000 0.815725
O O12 0.958987 0.500000 0.274362
O O13 0.916867 0.619470 0.371375
O O14 0.000000 0.728616 0.318455
O O15 0.595173 0.815510 0.500000
O O16 0.580660 0.633083 0.604268
O O17 0.750000 0.750000 0.799930
O O18 0.793925 0.000000 0.801739
O O19 0.048246 0.000000 0.500000
O O20 0.000000 0.000000 0.611715
#
# Coordination Sequence:
#
# PCOD8272256 Si02
#       7
#    16  16  16  16  16  16   8
#     4   9  19  37  60  88 125 165 201 237 278 329
#     4  10  21  37  57  80 108 142 185 239 298 357
#     4  11  21  35  59  88 120 155 193 238 289 342
#     4  10  22  38  54  77 111 147 186 236 289 341
#     4  11  21  36  55  75 104 142 187 236 291 351
#     4  10  20  36  58  84 114 148 191 239 292 349
#     4   9  18  32  52  74  98 132 175 225 282 342
#
# _framework density 19.586055000000002
#
# number of rings (size 3 to 8) (size 9 to 14) (size 15 to 20)
#    0.000    1.923    2.308    2.308    0.000    4.000 
#    1.385    1.538    0.000    0.462    0.000    0.000 
#    0.000    0.000    0.000    0.000    0.000    0.000 
#
# Total GULP energy -644385.494996 kJ/mol
# GULP energy per Si atom -12392.028750 kJ/mol
# Density = 1.954148 g / cm^3
# Si number density = 19.586055 Si / 1000 Ang^3
#
#
#
# Elastic Constant Matrix: (Units=GPa)
#
#
# Indices 1 2 3 4 5 6 
#
# 1 148.5900 48.8329 48.5870 0.0000 0.0000 0.0000
# 2 48.8329 98.9636 28.9233 0.0000 0.0000 0.0000
# 3 48.5870 28.9233 77.7931 0.0000 0.0000 0.0000
# 4 0.0000 0.0000 0.0000 27.4887 0.0000 0.0000
# 5 0.0000 0.0000 0.0000 0.0000 30.6823 0.0000
# 6 0.0000 0.0000 0.0000 0.0000 0.0000 28.8268
#
#
#
# Elastic Compliance Matrix: (Units=1/GPa)
#
#
# Indices 1 2 3 4 5 6 
#
# 1 0.009301 -0.003244 -0.004603 0.000000 0.000000 0.000000
# 2 -0.003244 0.012468 -0.002609 0.000000 0.000000 0.000000
# 3 -0.004603 -0.002609 0.016700 0.000000 0.000000 0.000000
# 4 0.000000 0.000000 0.000000 0.036379 0.000000 0.000000
# 5 0.000000 0.000000 0.000000 0.000000 0.032592 0.000000
# 6 0.000000 0.000000 0.000000 0.000000 0.000000 0.034690
#
#
# Mechanical properties :
#
#
# Convention : Reuss Voigt Hill
#
# Bulk Modulus (GPa) = 56.96147 64.22589 60.59368
# Shear Modulus (GPa) = 29.60415 30.66645 30.13530
#
# Velocity S-wave (km/s) = 3.89201 3.96122 3.92677
# Velocity P-wave (km/s) = 7.02444 7.33379 7.18078
#
# Compressibility (1/GPa) = 0.01755573
#
# Stress axis : x y z
#
# Youngs Moduli (GPa) = 107.51191 80.20368 59.88148
#
# Poissons Ratio (x) = 0.26021 0.27564
# Poissons Ratio (y) = 0.34881 0.15625
# Poissons Ratio (z) = 0.49488 0.20928
#
# Static dielectric constant tensor:
#      x y z
#    x 3.719320 0.000000 0.000000 
#    y 0.000000 3.558500 0.000000 
#    z 0.000000 0.000000 3.207240 
# 
# 
# High freq. dielectric constant tensor:
#      x y z
#    x 1.773570 0.000000 0.000000 
#    y 0.000000 1.763850 0.000000 
#    z 0.000000 0.000000 1.734560 
# 
# From -- ./inp_files/66306.got.cif
#   From: 2010.03.12/outbox.cif.g09.slc.cpg/sg65_34_cif.got.tgz:66306.got - 2010.04.10 20:52:16.
