data_PCOD8272519
_publ_section_title
;
Structure prediction by ZEFSAII (Michael W. Deem and Ramdas Pophale) SiO2 
 PCOD8272519
Probable space group: C M M M
;
_chemical_formula_sum "Si O2"
_cell_formula_units_Z 104
_cell_length_a 9.274183
_cell_length_b 27.358522
_cell_length_c 21.287714
_cell_angle_alpha 90.000000
_cell_angle_beta 90.000000
_cell_angle_gamma 90.000000
_cell_volume 5401.287813
_symmetry_space_group_name_H-M "C M M M"
_symmetry_group_IT_number 65
_symmetry_cell_setting 'orthorhombic'
loop_
_space_group_symop_operation_xyz
x,y,z
-x,-y,z
x,-y,-z
-x,y,-z
-x,-y,-z
x,y,-z
-x,y,z
x,-y,z
1/2+x,1/2+y,z
1/2-x,1/2-y,z
1/2+x,1/2-y,-z
1/2-x,1/2+y,-z
1/2-x,1/2-y,-z
1/2+x,1/2+y,-z
1/2-x,1/2+y,z
1/2+x,1/2-y,z
loop_
_atom_site_type_symbol
_atom_site_label
_atom_site_fract_x
_atom_site_fract_y
_atom_site_fract_z
Si Si1 0.333868 0.942139 0.500000
Si Si2 0.000000 0.445940 0.927394
Si Si3 0.662777 0.942991 0.278146
Si Si4 0.332928 0.799362 0.202204
Si Si5 0.500000 0.558330 0.926719
Si Si6 0.826394 0.892959 0.614237
Si Si7 0.831483 0.299673 0.348877
Si Si8 0.762473 0.599706 0.853785
O O1 0.500000 0.922521 0.500000
O O2 0.245032 0.925020 0.439812
O O3 0.336725 0.000000 0.500000
O O4 0.869066 0.412050 0.909531
O O5 0.000000 0.500000 0.894566
O O6 0.000000 0.455725 0.000000
O O7 0.500000 0.923927 0.294466
O O8 0.783810 0.916635 0.319457
O O9 0.695865 0.932481 0.206173
O O10 0.672339 0.000000 0.291652
O O11 0.500000 0.793183 0.184270
O O12 0.250000 0.750000 0.184476
O O13 0.316176 0.812334 0.275434
O O14 0.261179 0.842942 0.162794
O O15 0.500000 0.500000 0.922986
O O16 0.619934 0.582223 0.885094
O O17 0.500000 0.574668 0.000000
O O18 0.754381 0.839600 0.610490
O O19 0.000000 0.890261 0.607592
O O20 0.750000 0.250000 0.365078
O O21 0.000000 0.296719 0.368406
#
# Coordination Sequence:
#
# PCOD8272519 Si02
#       8
#     8   8  16  16   8  16  16  16
#     4  11  25  47  70  91 124 177 225 261 313 377
#     4  11  22  38  63  91 121 164 215 262 312 383
#     4  11  22  37  59  90 126 163 206 264 324 378
#     4  10  21  37  62  93 125 161 208 264 324 384
#     4  11  26  44  61  89 131 174 211 256 322 395
#     4  12  25  40  63  94 131 170 213 262 315 380
#     4  10  20  38  62  92 130 167 210 263 321 380
#     4  12  22  39  63  91 125 164 213 265 322 384
#
# _framework density 19.254667999999999
#
# number of rings (size 3 to 8) (size 9 to 14) (size 15 to 20)
#    0.000    1.000    3.077    4.385    2.154    4.615 
#    0.000    0.385    0.000    2.769    0.000    0.000 
#    0.000    0.000    0.000    0.000    0.000    0.000 
#
# Total GULP energy -644583.758686 kJ/mol
# GULP energy per Si atom -12395.841513 kJ/mol
# Density = 1.921084 g / cm^3
# Si number density = 19.254668 Si / 1000 Ang^3
#
#
#
# Elastic Constant Matrix: (Units=GPa)
#
#
# Indices 1 2 3 4 5 6 
#
# 1 173.6049 62.3991 39.2668 0.0000 0.0000 0.0000
# 2 62.3991 114.8751 36.4366 0.0000 0.0000 0.0000
# 3 39.2668 36.4366 60.9392 0.0000 0.0000 0.0000
# 4 0.0000 0.0000 0.0000 36.1202 0.0000 0.0000
# 5 0.0000 0.0000 0.0000 0.0000 46.0435 0.0000
# 6 0.0000 0.0000 0.0000 0.0000 0.0000 22.3707
#
#
#
# Elastic Compliance Matrix: (Units=1/GPa)
#
#
# Indices 1 2 3 4 5 6 
#
# 1 0.007574 -0.003167 -0.002987 0.000000 0.000000 0.000000
# 2 -0.003167 0.012066 -0.005174 0.000000 0.000000 0.000000
# 3 -0.002987 -0.005174 0.021428 0.000000 0.000000 0.000000
# 4 0.000000 0.000000 0.000000 0.027685 0.000000 0.000000
# 5 0.000000 0.000000 0.000000 0.000000 0.021719 0.000000
# 6 0.000000 0.000000 0.000000 0.000000 0.000000 0.044701
#
#
# Mechanical properties :
#
#
# Convention : Reuss Voigt Hill
#
# Bulk Modulus (GPa) = 54.30978 69.51380 61.91179
# Shear Modulus (GPa) = 30.49386 34.99466 32.74426
#
# Velocity S-wave (km/s) = 3.98391 4.26780 4.12829
# Velocity P-wave (km/s) = 7.03060 7.77600 7.41267
#
# Compressibility (1/GPa) = 0.01841289
#
# Stress axis : x y z
#
# Youngs Moduli (GPa) = 132.03003 82.87465 46.66737
#
# Poissons Ratio (x) = 0.26244 0.13939
# Poissons Ratio (y) = 0.41810 0.24147
# Poissons Ratio (z) = 0.39437 0.42881
#
# Static dielectric constant tensor:
#      x y z
#    x 3.631770 0.000000 0.000000 
#    y 0.000000 3.591700 0.000000 
#    z 0.000000 0.000000 3.476790 
# 
# 
# High freq. dielectric constant tensor:
#      x y z
#    x 1.765150 0.000000 0.000000 
#    y 0.000000 1.760170 0.000000 
#    z 0.000000 0.000000 1.736610 
# 
# From -- ./inp_files/60485.got.cif
#   From: 2010.03.12/outbox.cif.g09.slc.cpg/sg65_31_cif.got.tgz:60485.got - 2010.04.10 20:52:16.
