data_PCOD8272676
_publ_section_title
;
Structure prediction by ZEFSAII (Michael W. Deem and Ramdas Pophale) SiO2 
 PCOD8272676
Probable space group: C M M M
;
_chemical_formula_sum "Si O2"
_cell_formula_units_Z 72
_cell_length_a 26.296345
_cell_length_b 9.897538
_cell_length_c 14.634453
_cell_angle_alpha 90.000000
_cell_angle_beta 90.000000
_cell_angle_gamma 90.000000
_cell_volume 3808.895529
_symmetry_space_group_name_H-M "C M M M"
_symmetry_group_IT_number 65
_symmetry_cell_setting 'orthorhombic'
loop_
_space_group_symop_operation_xyz
x,y,z
-x,-y,z
x,-y,-z
-x,y,-z
-x,-y,-z
x,y,-z
-x,y,z
x,-y,z
1/2+x,1/2+y,z
1/2-x,1/2-y,z
1/2+x,1/2-y,-z
1/2-x,1/2+y,-z
1/2-x,1/2-y,-z
1/2+x,1/2+y,-z
1/2-x,1/2+y,z
1/2+x,1/2-y,z
loop_
_atom_site_type_symbol
_atom_site_label
_atom_site_fract_x
_atom_site_fract_y
_atom_site_fract_z
Si Si1 0.643180 0.653806 0.396670
Si Si2 0.609157 0.661115 0.897501
Si Si3 0.296718 0.655908 0.223777
Si Si4 0.943954 0.651027 0.608559
Si Si5 0.500000 0.648422 0.108751
O O1 0.658578 0.696041 0.500000
O O2 0.623676 0.500000 0.393474
O O3 0.692133 0.672104 0.331938
O O4 0.597639 0.743719 0.355407
O O5 0.604676 0.500000 0.896263
O O6 0.654149 0.709159 0.831330
O O7 0.553787 0.721298 0.863877
O O8 0.621798 0.711894 0.000000
O O9 0.283992 0.500000 0.199564
O O10 0.250000 0.750000 0.195583
O O11 0.945662 0.658016 0.500000
O O12 0.928826 0.500000 0.640339
O O13 0.000000 0.689181 0.647174
O O14 0.500000 0.500000 0.153902
O O15 0.500000 0.634307 0.000000
#
# Coordination Sequence:
#
# PCOD8272676 Si02
#       5
#    16  16  16  16   8
#     4   9  18  32  47  65  93 127 163 203 244 284
#     4   8  14  27  48  73  99 124 153 193 241 289
#     4  10  21  35  49  70  97 127 164 206 244 287
#     4   8  14  26  45  68  93 122 157 195 236 287
#     4   7  10  20  42  70  96 120 146 183 231 279
#
# _framework density 18.903117000000002
#
# number of rings (size 3 to 8) (size 9 to 14) (size 15 to 20)
#    0.000    3.444    0.000    2.000    0.000    2.222 
#    2.000    2.222    0.000    0.000    0.000    0.000 
#    0.000    2.667    0.000    0.000    0.000    0.000 
#
# Total GULP energy -445993.771916 kJ/mol
# GULP energy per Si atom -12388.715887 kJ/mol
# Density = 1.886009 g / cm^3
# Si number density = 18.903117 Si / 1000 Ang^3
#
#
#
# Elastic Constant Matrix: (Units=GPa)
#
#
# Indices 1 2 3 4 5 6 
#
# 1 155.9198 51.1545 49.6835 0.0000 0.0000 0.0000
# 2 51.1545 50.8397 12.7831 0.0000 0.0000 0.0000
# 3 49.6835 12.7831 60.6377 0.0000 0.0000 0.0000
# 4 0.0000 0.0000 0.0000 6.4742 0.0000 0.0000
# 5 0.0000 0.0000 0.0000 0.0000 25.8797 0.0000
# 6 0.0000 0.0000 0.0000 0.0000 0.0000 32.8028
#
#
#
# Elastic Compliance Matrix: (Units=1/GPa)
#
#
# Indices 1 2 3 4 5 6 
#
# 1 0.012370 -0.010453 -0.007932 0.000000 0.000000 0.000000
# 2 -0.010453 0.029603 0.002324 0.000000 0.000000 0.000000
# 3 -0.007932 0.002324 0.022501 0.000000 0.000000 0.000000
# 4 0.000000 0.000000 0.000000 0.154458 0.000000 0.000000
# 5 0.000000 0.000000 0.000000 0.000000 0.038640 0.000000
# 6 0.000000 0.000000 0.000000 0.000000 0.000000 0.030485
#
#
# Mechanical properties :
#
#
# Convention : Reuss Voigt Hill
#
# Bulk Modulus (GPa) = 30.91018 54.95996 42.93507
# Shear Modulus (GPa) = 15.10739 23.28309 19.19524
#
# Velocity S-wave (km/s) = 2.83008 3.51337 3.19008
# Velocity P-wave (km/s) = 5.20255 6.75249 6.02755
#
# Compressibility (1/GPa) = 0.03235180
#
# Stress axis : x y z
#
# Youngs Moduli (GPa) = 80.83794 33.78076 44.44289
#
# Poissons Ratio (x) = 0.35310 0.35253
# Poissons Ratio (y) = 0.84496 -0.10327
# Poissons Ratio (z) = 0.64122 -0.07850
#
# Static dielectric constant tensor:
#      x y z
#    x 3.668460 0.000000 0.000000 
#    y 0.000000 3.148410 0.000000 
#    z 0.000000 0.000000 3.329130 
# 
# 
# High freq. dielectric constant tensor:
#      x y z
#    x 1.733610 0.000000 0.000000 
#    y 0.000000 1.688610 0.000000 
#    z 0.000000 0.000000 1.718140 
# 
# From -- ./inp_files/45243.got.cif
#   From: 2010.03.12/outbox.cif.g09.slc.cpg/sg65_23_cif.got.tgz:45243.got - 2010.04.10 20:52:16.
