data_PCOD8272984
_publ_section_title
;
Structure prediction by ZEFSAII (Michael W. Deem and Ramdas Pophale) SiO2 
 PCOD8272984
Probable space group: C M M M
;
_chemical_formula_sum "Si O2"
_cell_formula_units_Z 104
_cell_length_a 18.638264
_cell_length_b 8.914488
_cell_length_c 33.988864
_cell_angle_alpha 90.000000
_cell_angle_beta 90.000000
_cell_angle_gamma 90.000000
_cell_volume 5647.269493
_symmetry_space_group_name_H-M "C M M M"
_symmetry_group_IT_number 65
_symmetry_cell_setting 'orthorhombic'
loop_
_space_group_symop_operation_xyz
x,y,z
-x,-y,z
x,-y,-z
-x,y,-z
-x,-y,-z
x,y,-z
-x,y,z
x,-y,z
1/2+x,1/2+y,z
1/2-x,1/2-y,z
1/2+x,1/2-y,-z
1/2-x,1/2+y,-z
1/2-x,1/2-y,-z
1/2+x,1/2+y,-z
1/2-x,1/2+y,z
1/2+x,1/2-y,z
loop_
_atom_site_type_symbol
_atom_site_label
_atom_site_fract_x
_atom_site_fract_y
_atom_site_fract_z
Si Si1 0.175603 0.322520 0.804267
Si Si2 0.417065 0.824504 0.356685
Si Si3 0.176001 0.674529 0.716457
Si Si4 0.581256 0.677863 0.500000
Si Si5 0.828298 0.178029 0.425116
Si Si6 0.079959 0.320302 0.125467
Si Si7 0.414567 0.830996 0.041647
O O1 0.181456 0.500000 0.807147
O O2 0.250000 0.250000 0.815420
O O3 0.152016 0.272877 0.760182
O O4 0.121803 0.257228 0.836856
O O5 0.500000 0.775554 0.359293
O O6 0.388495 0.785714 0.313094
O O7 0.369948 0.728179 0.386395
O O8 0.407772 0.000000 0.366314
O O9 0.192751 0.500000 0.716270
O O10 0.250000 0.750000 0.702659
O O11 0.576703 0.500000 0.500000
O O12 0.500000 0.744566 0.500000
O O13 0.624424 0.734979 0.538073
O O14 0.750000 0.250000 0.427287
O O15 0.819247 0.000000 0.425046
O O16 0.080907 0.500000 0.124491
O O17 0.112776 0.259573 0.083274
O O18 0.000000 0.258917 0.130848
O O19 0.500000 0.832589 0.044435
O O20 0.385578 0.000000 0.039218
O O21 0.390984 0.749644 0.000000
#
# Coordination Sequence:
#
# PCOD8272984 Si02
#       7
#    16  16  16   8  16  16  16
#     4   9  17  29  45  64  87 117 151 185 224 272
#     4  10  21  36  53  76 105 132 161 201 248 294
#     4   9  18  32  49  68  91 122 157 192 231 276
#     4   9  19  36  57  81 108 137 170 209 250 290
#     4  11  22  37  58  81 107 139 174 208 243 287
#     4   8  13  21  36  59  82 105 140 184 223 262
#     4   7   9  14  26  47  76 105 131 167 218 266
#
# _framework density 18.415980000000001
#
# number of rings (size 3 to 8) (size 9 to 14) (size 15 to 20)
#    0.000    3.000    0.000    3.000    0.000    3.385 
#    0.000    4.231    0.000    3.692    0.000    4.308 
#    0.000    0.000    0.000    3.846    0.000    3.077 
#
# Total GULP energy -644190.487816 kJ/mol
# GULP energy per Si atom -12388.278612 kJ/mol
# Density = 1.837406 g / cm^3
# Si number density = 18.415980 Si / 1000 Ang^3
#
#
#
# Elastic Constant Matrix: (Units=GPa)
#
#
# Indices 1 2 3 4 5 6 
#
# 1 124.1743 26.9068 85.4414 0.0000 0.0000 0.0000
# 2 26.9068 24.0807 28.3924 0.0000 0.0000 0.0000
# 3 85.4414 28.3924 162.5421 0.0000 0.0000 0.0000
# 4 0.0000 0.0000 0.0000 9.3364 0.0000 0.0000
# 5 0.0000 0.0000 0.0000 0.0000 28.9457 0.0000
# 6 0.0000 0.0000 0.0000 0.0000 0.0000 17.2849
#
#
#
# Elastic Compliance Matrix: (Units=1/GPa)
#
#
# Indices 1 2 3 4 5 6 
#
# 1 0.013937 -0.008733 -0.005800 0.000000 0.000000 0.000000
# 2 -0.008733 0.057771 -0.005500 0.000000 0.000000 0.000000
# 3 -0.005800 -0.005500 0.010162 0.000000 0.000000 0.000000
# 4 0.000000 0.000000 0.000000 0.107108 0.000000 0.000000
# 5 0.000000 0.000000 0.000000 0.000000 0.034547 0.000000
# 6 0.000000 0.000000 0.000000 0.000000 0.000000 0.057854
#
#
# Mechanical properties :
#
#
# Convention : Reuss Voigt Hill
#
# Bulk Modulus (GPa) = 23.92288 65.80870 44.86579
# Shear Modulus (GPa) = 14.90844 22.45051 18.67947
#
# Velocity S-wave (km/s) = 2.84833 3.49532 3.18828
# Velocity P-wave (km/s) = 4.88219 7.21816 6.16188
#
# Compressibility (1/GPa) = 0.04180099
#
# Stress axis : x y z
#
# Youngs Moduli (GPa) = 71.75281 17.30984 98.40493
#
# Poissons Ratio (x) = 0.15117 0.57079
# Poissons Ratio (y) = 0.62664 0.54127
# Poissons Ratio (z) = 0.41620 0.09521
#
# Static dielectric constant tensor:
#      x y z
#    x 3.275190 0.000000 0.000000 
#    y 0.000000 2.958840 0.000000 
#    z 0.000000 0.000000 4.042010 
# 
# 
# High freq. dielectric constant tensor:
#      x y z
#    x 1.694120 0.000000 0.000000 
#    y 0.000000 1.666210 0.000000 
#    z 0.000000 0.000000 1.744170 
# 
# From -- ./inp_files/78223.got.cif
#   From: 2010.03.12/outbox.cif.g09.slc.cpg/sg65_40_cif.got.tgz:78223.got - 2010.04.10 20:52:16.
