data_PCOD8272860
_publ_section_title
;
Structure prediction by ZEFSAII (Michael W. Deem and Ramdas Pophale) SiO2 
 PCOD8272860
Probable space group: C M M M
;
_chemical_formula_sum "Si O2"
_cell_formula_units_Z 88
_cell_length_a 11.091363
_cell_length_b 24.650806
_cell_length_c 15.507046
_cell_angle_alpha 90.000000
_cell_angle_beta 90.000000
_cell_angle_gamma 90.000000
_cell_volume 4239.797537
_symmetry_space_group_name_H-M "C M M M"
_symmetry_group_IT_number 65
_symmetry_cell_setting 'orthorhombic'
loop_
_space_group_symop_operation_xyz
x,y,z
-x,-y,z
x,-y,-z
-x,y,-z
-x,-y,-z
x,y,-z
-x,y,z
x,-y,z
1/2+x,1/2+y,z
1/2-x,1/2-y,z
1/2+x,1/2-y,-z
1/2-x,1/2+y,-z
1/2-x,1/2-y,-z
1/2+x,1/2+y,-z
1/2-x,1/2+y,z
1/2+x,1/2-y,z
loop_
_atom_site_type_symbol
_atom_site_label
_atom_site_fract_x
_atom_site_fract_y
_atom_site_fract_z
Si Si1 0.245049 0.607640 0.667557
Si Si2 0.639103 0.060516 0.500000
Si Si3 0.135194 0.603164 0.152790
Si Si4 0.362299 0.289039 0.398866
Si Si5 0.628594 0.500000 0.723928
Si Si6 0.866391 0.279055 0.902262
Si Si7 0.284982 0.500000 0.902694
O O1 0.168555 0.597778 0.581852
O O2 0.161961 0.621309 0.749005
O O3 0.342638 0.654912 0.652193
O O4 0.307250 0.552147 0.689763
O O5 0.500000 0.049020 0.500000
O O6 0.701998 0.000000 0.500000
O O7 0.156021 0.656691 0.096246
O O8 0.210016 0.554601 0.111876
O O9 0.000000 0.581898 0.148619
O O10 0.354343 0.300528 0.500000
O O11 0.500000 0.267499 0.376703
O O12 0.250000 0.250000 0.371445
O O13 0.500000 0.500000 0.680203
O O14 0.614139 0.500000 0.828383
O O15 0.750000 0.250000 0.856002
O O16 0.000000 0.265974 0.859637
O O17 0.871657 0.257848 0.000000
O O18 0.338555 0.500000 0.000000
#
# Coordination Sequence:
#
# PCOD8272860 Si02
#       7
#    16   8  16  16   8  16   8
#     4  11  21  39  58  86 117 155 198 243 302 355
#     4  11  22  36  57  86 121 158 198 246 301 360
#     4  10  21  35  56  86 119 152 190 237 290 352
#     4  10  22  40  61  85 115 153 204 253 303 363
#     4  10  22  39  60  85 115 149 193 245 300 354
#     4   9  18  35  58  84 113 146 189 238 287 343
#     4  10  21  37  59  85 117 153 192 235 292 358
#
# _framework density 20.755707000000001
#
# number of rings (size 3 to 8) (size 9 to 14) (size 15 to 20)
#    0.000    1.909    1.818    1.909    0.000    3.818 
#    0.000    6.818    0.000    4.364    0.000    0.000 
#    0.000    0.000    0.000    0.000    0.000    0.182 
#
# Total GULP energy -545079.242393 kJ/mol
# GULP energy per Si atom -12388.164600 kJ/mol
# Density = 2.070847 g / cm^3
# Si number density = 20.755707 Si / 1000 Ang^3
#
#
#
# Elastic Constant Matrix: (Units=GPa)
#
#
# Indices 1 2 3 4 5 6 
#
# 1 126.4805 58.0738 8.3335 0.0000 0.0000 0.0000
# 2 58.0738 96.1494 11.4833 0.0000 0.0000 0.0000
# 3 8.3335 11.4833 81.8809 0.0000 0.0000 0.0000
# 4 0.0000 0.0000 0.0000 17.5683 0.0000 0.0000
# 5 0.0000 0.0000 0.0000 0.0000 10.9480 0.0000
# 6 0.0000 0.0000 0.0000 0.0000 0.0000 41.4084
#
#
#
# Elastic Compliance Matrix: (Units=1/GPa)
#
#
# Indices 1 2 3 4 5 6 
#
# 1 0.010943 -0.006587 -0.000190 0.000000 0.000000 0.000000
# 2 -0.006587 0.014543 -0.001369 0.000000 0.000000 0.000000
# 3 -0.000190 -0.001369 0.012424 0.000000 0.000000 0.000000
# 4 0.000000 0.000000 0.000000 0.056921 0.000000 0.000000
# 5 0.000000 0.000000 0.000000 0.000000 0.091341 0.000000
# 6 0.000000 0.000000 0.000000 0.000000 0.000000 0.024150
#
#
# Mechanical properties :
#
#
# Convention : Reuss Voigt Hill
#
# Bulk Modulus (GPa) = 46.25807 51.14354 48.70081
# Shear Modulus (GPa) = 21.38403 29.09297 25.23850
#
# Velocity S-wave (km/s) = 3.21327 3.74797 3.49087
# Velocity P-wave (km/s) = 6.00850 6.58968 6.30579
#
# Compressibility (1/GPa) = 0.02161785
#
# Stress axis : x y z
#
# Youngs Moduli (GPa) = 91.37998 68.76385 80.48809
#
# Poissons Ratio (x) = 0.45295 0.01529
# Poissons Ratio (y) = 0.60192 0.11020
# Poissons Ratio (z) = 0.01736 0.09414
#
# Static dielectric constant tensor:
#      x y z
#    x 3.960340 0.000000 0.000000 
#    y 0.000000 3.366670 0.000000 
#    z 0.000000 0.000000 3.873030 
# 
# 
# High freq. dielectric constant tensor:
#      x y z
#    x 1.809790 0.000000 0.000000 
#    y 0.000000 1.813430 0.000000 
#    z 0.000000 0.000000 1.808330 
# 
# From -- ./inp_files/38445.got.cif
#   From: 2010.03.12/outbox.cif.g09.slc.cpg/sg65_20_cif.got.tgz:38445.got - 2010.04.10 20:52:16.
