data_PCOD8272636
_publ_section_title
;
Structure prediction by ZEFSAII (Michael W. Deem and Ramdas Pophale) SiO2 
 PCOD8272636
Probable space group: C M M M
;
_chemical_formula_sum "Si O2"
_cell_formula_units_Z 88
_cell_length_a 19.159198
_cell_length_b 17.716977
_cell_length_c 13.957797
_cell_angle_alpha 90.000000
_cell_angle_beta 90.000000
_cell_angle_gamma 90.000000
_cell_volume 4737.877468
_symmetry_space_group_name_H-M "C M M M"
_symmetry_group_IT_number 65
_symmetry_cell_setting 'orthorhombic'
loop_
_space_group_symop_operation_xyz
x,y,z
-x,-y,z
x,-y,-z
-x,y,-z
-x,-y,-z
x,y,-z
-x,y,z
x,-y,z
1/2+x,1/2+y,z
1/2-x,1/2-y,z
1/2+x,1/2-y,-z
1/2-x,1/2+y,-z
1/2-x,1/2-y,-z
1/2+x,1/2+y,-z
1/2-x,1/2+y,z
1/2+x,1/2-y,z
loop_
_atom_site_type_symbol
_atom_site_label
_atom_site_fract_x
_atom_site_fract_y
_atom_site_fract_z
Si Si1 0.205061 0.912786 0.769824
Si Si2 0.334529 0.912326 0.110100
Si Si3 0.806602 0.589181 0.393988
Si Si4 0.917921 0.085042 0.500000
Si Si5 0.579788 0.840419 0.274103
Si Si6 0.920527 0.163964 0.696750
O O1 0.253271 0.898054 0.862861
O O2 0.247422 0.880662 0.677925
O O3 0.131486 0.869130 0.777757
O O4 0.186874 0.000000 0.757564
O O5 0.385273 0.859386 0.171808
O O6 0.352885 0.000000 0.130903
O O7 0.345582 0.890853 0.000000
O O8 0.790997 0.620856 0.500000
O O9 0.807183 0.500000 0.392732
O O10 0.882660 0.615393 0.359571
O O11 0.894765 0.131124 0.594241
O O12 0.000000 0.076730 0.500000
O O13 0.884292 0.000000 0.500000
O O14 0.500000 0.866851 0.269865
O O15 0.585993 0.753116 0.300298
O O16 0.000000 0.138494 0.719108
#
# Coordination Sequence:
#
# PCOD8272636 Si02
#       6
#    16  16  16   8  16  16
#     4   9  18  34  55  77 104 136 175 223 270 316
#     4   9  19  37  60  83 104 133 179 228 272 322
#     4   9  19  33  49  72 101 138 181 217 258 317
#     4   9  18  32  50  73 101 141 190 225 253 295
#     4  10  21  35  51  75 111 142 172 219 272 321
#     4  10  21  34  50  77 111 143 179 221 265 314
#
# _framework density 18.573719000000001
#
# number of rings (size 3 to 8) (size 9 to 14) (size 15 to 20)
#    0.000    2.636    0.000    2.182    2.545    6.182 
#    0.000    4.545    0.000    1.636    0.000    2.545 
#    0.000    0.000    0.000    0.000    0.000    0.000 
#
# Total GULP energy -545472.259507 kJ/mol
# GULP energy per Si atom -12397.096807 kJ/mol
# Density = 1.853144 g / cm^3
# Si number density = 18.573719 Si / 1000 Ang^3
#
#
#
# Elastic Constant Matrix: (Units=GPa)
#
#
# Indices 1 2 3 4 5 6 
#
# 1 95.7955 28.8736 18.6513 0.0000 0.0000 0.0000
# 2 28.8736 39.6583 39.2512 0.0000 0.0000 0.0000
# 3 18.6513 39.2512 81.9777 0.0000 0.0000 0.0000
# 4 0.0000 0.0000 0.0000 23.8499 0.0000 0.0000
# 5 0.0000 0.0000 0.0000 0.0000 20.1324 0.0000
# 6 0.0000 0.0000 0.0000 0.0000 0.0000 31.2241
#
#
#
# Elastic Compliance Matrix: (Units=1/GPa)
#
#
# Indices 1 2 3 4 5 6 
#
# 1 0.013795 -0.013186 0.003175 0.000000 0.000000 0.000000
# 2 -0.013186 0.060531 -0.025983 0.000000 0.000000 0.000000
# 3 0.003175 -0.025983 0.023917 0.000000 0.000000 0.000000
# 4 0.000000 0.000000 0.000000 0.041929 0.000000 0.000000
# 5 0.000000 0.000000 0.000000 0.000000 0.049671 0.000000
# 6 0.000000 0.000000 0.000000 0.000000 0.000000 0.032027
#
#
# Mechanical properties :
#
#
# Convention : Reuss Voigt Hill
#
# Bulk Modulus (GPa) = 38.08679 43.44264 40.76471
# Shear Modulus (GPa) = 16.52296 23.75163 20.13729
#
# Velocity S-wave (km/s) = 2.98583 3.57988 3.29626
# Velocity P-wave (km/s) = 5.69536 6.36612 6.04006
#
# Compressibility (1/GPa) = 0.02625582
#
# Stress axis : x y z
#
# Youngs Moduli (GPa) = 72.48938 16.52033 41.81187
#
# Poissons Ratio (x) = 0.21784 -0.13275
# Poissons Ratio (y) = 0.95584 1.08638
# Poissons Ratio (z) = -0.23014 0.42924
#
# Static dielectric constant tensor:
#      x y z
#    x 3.522160 0.000000 0.000000 
#    y 0.000000 3.287370 0.000000 
#    z 0.000000 0.000000 3.442410 
# 
# 
# High freq. dielectric constant tensor:
#      x y z
#    x 1.725170 0.000000 0.000000 
#    y 0.000000 1.712120 0.000000 
#    z 0.000000 0.000000 1.702790 
# 
# From -- ./inp_files/40214.got.cif
#   From: 2010.03.12/outbox.cif.g09.slc.cpg/sg65_21_cif.got.tgz:40214.got - 2010.04.10 20:52:16.
