data_PCOD8272656
_publ_section_title
;
Structure prediction by ZEFSAII (Michael W. Deem and Ramdas Pophale) SiO2 
 PCOD8272656
Probable space group: C M M M
;
_chemical_formula_sum "Si O2"
_cell_formula_units_Z 104
_cell_length_a 32.674402
_cell_length_b 24.983937
_cell_length_c 8.953427
_cell_angle_alpha 90.000000
_cell_angle_beta 90.000000
_cell_angle_gamma 90.000000
_cell_volume 7308.997630
_symmetry_space_group_name_H-M "C M M M"
_symmetry_group_IT_number 65
_symmetry_cell_setting 'orthorhombic'
loop_
_space_group_symop_operation_xyz
x,y,z
-x,-y,z
x,-y,-z
-x,y,-z
-x,-y,-z
x,y,-z
-x,y,z
x,-y,z
1/2+x,1/2+y,z
1/2-x,1/2-y,z
1/2+x,1/2-y,-z
1/2-x,1/2+y,-z
1/2-x,1/2-y,-z
1/2+x,1/2+y,-z
1/2-x,1/2+y,z
1/2+x,1/2-y,z
loop_
_atom_site_type_symbol
_atom_site_label
_atom_site_fract_x
_atom_site_fract_y
_atom_site_fract_z
Si Si1 0.314107 0.725545 0.176950
Si Si2 0.617688 0.339863 0.325484
Si Si3 0.452702 0.391442 0.824904
Si Si4 0.769067 0.671582 0.822956
Si Si5 0.755750 0.442510 0.176471
Si Si6 0.328949 0.440944 0.669158
Si Si7 0.048474 0.000000 0.667190
O O1 0.355524 0.708489 0.259402
O O2 0.276090 0.689166 0.233453
O O3 0.304021 0.786748 0.228065
O O4 0.320672 0.721088 0.000000
O O5 0.611546 0.330112 0.500000
O O6 0.573431 0.342569 0.245696
O O7 0.638587 0.396327 0.286500
O O8 0.500000 0.379974 0.787553
O O9 0.437188 0.447016 0.753336
O O10 0.444917 0.394825 0.000000
O O11 0.779316 0.611006 0.764468
O O12 0.766852 0.673360 0.000000
O O13 0.772990 0.500000 0.239852
O O14 0.708671 0.436211 0.218854
O O15 0.758789 0.443773 0.000000
O O16 0.313013 0.432063 0.500000
O O17 0.349447 0.500000 0.684981
O O18 0.067586 0.000000 0.500000
O O19 0.000000 0.000000 0.657909
#
# Coordination Sequence:
#
# PCOD8272656 Si02
#       7
#    16  16  16  16  16  16   8
#     4   9  16  28  43  56  76 105 134 163 197 241
#     4  11  21  30  43  61  79  99 130 168 209 248
#     4  10  21  35  48  61  77 100 132 166 200 246
#     4   8  14  25  41  58  77 104 133 162 200 238
#     4   9  15  24  40  59  76  97 131 169 199 233
#     4   9  18  29  37  50  75 102 125 155 199 245
#     4   9  17  31  49  65  81 101 125 159 207 253
#
# _framework density 14.229037
#
# number of rings (size 3 to 8) (size 9 to 14) (size 15 to 20)
#    0.000    2.692    1.538    2.077    1.077    2.462 
#    0.000    2.308    0.000    0.000    0.000    0.000 
#    0.000    0.000    0.000    0.000    0.000    0.769 
#
# Total GULP energy -644327.448224 kJ/mol
# GULP energy per Si atom -12390.912466 kJ/mol
# Density = 1.419665 g / cm^3
# Si number density = 14.229037 Si / 1000 Ang^3
#
#
#
# Elastic Constant Matrix: (Units=GPa)
#
#
# Indices 1 2 3 4 5 6 
#
# 1 60.7318 42.8889 29.2929 0.0000 0.0000 0.0000
# 2 42.8889 113.6205 29.0237 0.0000 0.0000 0.0000
# 3 29.2929 29.0237 45.9506 0.0000 0.0000 0.0000
# 4 0.0000 0.0000 0.0000 14.0291 0.0000 0.0000
# 5 0.0000 0.0000 0.0000 0.0000 15.1244 0.0000
# 6 0.0000 0.0000 0.0000 0.0000 0.0000 24.2283
#
#
#
# Elastic Compliance Matrix: (Units=1/GPa)
#
#
# Indices 1 2 3 4 5 6 
#
# 1 0.027920 -0.007145 -0.013285 0.000000 0.000000 0.000000
# 2 -0.007145 0.012323 -0.003229 0.000000 0.000000 0.000000
# 3 -0.013285 -0.003229 0.032271 0.000000 0.000000 0.000000
# 4 0.000000 0.000000 0.000000 0.071281 0.000000 0.000000
# 5 0.000000 0.000000 0.000000 0.000000 0.066118 0.000000
# 6 0.000000 0.000000 0.000000 0.000000 0.000000 0.041274
#
#
# Mechanical properties :
#
#
# Convention : Reuss Voigt Hill
#
# Bulk Modulus (GPa) = 39.68968 46.96820 43.32894
# Shear Modulus (GPa) = 16.29174 18.61617 17.45396
#
# Velocity S-wave (km/s) = 3.38740 3.62100 3.50615
# Velocity P-wave (km/s) = 6.57673 7.11073 6.84894
#
# Compressibility (1/GPa) = 0.02519547
#
# Stress axis : x y z
#
# Youngs Moduli (GPa) = 35.81682 81.14803 30.98762
#
# Poissons Ratio (x) = 0.57984 0.41168
# Poissons Ratio (y) = 0.25593 0.10005
# Poissons Ratio (z) = 0.47584 0.26199
#
# Static dielectric constant tensor:
#      x y z
#    x 2.537600 0.000000 0.000000 
#    y 0.000000 3.179980 0.000000 
#    z 0.000000 0.000000 2.703050 
# 
# 
# High freq. dielectric constant tensor:
#      x y z
#    x 1.500830 0.000000 0.000000 
#    y 0.000000 1.531880 0.000000 
#    z 0.000000 0.000000 1.539390 
# 
# From -- ./inp_files/16968.got.cif
#   From: 2010.03.12/outbox.cif.g09.slc.cpg/sg65_9_cif.got.tgz:16968.got - 2010.04.10 20:52:16.
