data_PCOD8272521
_publ_section_title
;
Structure prediction by ZEFSAII (Michael W. Deem and Ramdas Pophale) SiO2 
 PCOD8272521
Probable space group: C M M M
;
_chemical_formula_sum "Si O2"
_cell_formula_units_Z 64
_cell_length_a 23.773594
_cell_length_b 15.426749
_cell_length_c 8.967927
_cell_angle_alpha 90.000000
_cell_angle_beta 90.000000
_cell_angle_gamma 90.000000
_cell_volume 3288.980658
_symmetry_space_group_name_H-M "C M M M"
_symmetry_group_IT_number 65
_symmetry_cell_setting 'orthorhombic'
loop_
_space_group_symop_operation_xyz
x,y,z
-x,-y,z
x,-y,-z
-x,y,-z
-x,-y,-z
x,y,-z
-x,y,z
x,-y,z
1/2+x,1/2+y,z
1/2-x,1/2-y,z
1/2+x,1/2-y,-z
1/2-x,1/2+y,-z
1/2-x,1/2-y,-z
1/2+x,1/2+y,-z
1/2-x,1/2+y,z
1/2+x,1/2-y,z
loop_
_atom_site_type_symbol
_atom_site_label
_atom_site_fract_x
_atom_site_fract_y
_atom_site_fract_z
Si Si1 0.311199 0.500000 0.323814
Si Si2 0.388767 0.844460 0.828081
Si Si3 0.500000 0.403725 0.823558
Si Si4 0.691913 0.000000 0.825388
Si Si5 0.000000 0.401559 0.323845
Si Si6 0.120575 0.150896 0.826991
O O1 0.313844 0.500000 0.500000
O O2 0.247389 0.500000 0.271650
O O3 0.340470 0.587042 0.265837
O O4 0.343346 0.915437 0.779360
O O5 0.444991 0.852511 0.732804
O O6 0.360595 0.750219 0.801716
O O7 0.406032 0.856737 0.000000
O O8 0.500000 0.500000 0.755060
O O9 0.443842 0.355303 0.769075
O O10 0.500000 0.407616 0.000000
O O11 0.707321 0.000000 0.000000
O O12 0.000000 0.500000 0.262970
O O13 0.000000 0.399519 0.500000
O O14 0.125380 0.123716 0.000000
#
# Coordination Sequence:
#
# PCOD8272521 Si02
#       6
#     8  16   8   8   8  16
#     4  12  26  41  58  83 117 158 196 240 301 364
#     4  10  21  38  64  91 116 153 202 252 294 338
#     4   9  15  28  56  87 112 144 180 224 285 343
#     4  10  22  41  62  85 113 150 202 256 297 340
#     4  11  22  35  57  90 130 168 192 227 293 360
#     4  10  20  38  63  89 117 151 195 245 294 347
#
# _framework density 19.458915999999999
#
# number of rings (size 3 to 8) (size 9 to 14) (size 15 to 20)
#    0.000    1.750    2.500    2.250    0.000    5.500 
#    0.000    6.250    0.000    0.000    0.000    0.000 
#    0.000    0.000    0.000    0.000    0.000    0.000 
#
# Total GULP energy -396866.505635 kJ/mol
# GULP energy per Si atom -12402.078301 kJ/mol
# Density = 1.941463 g / cm^3
# Si number density = 19.458916 Si / 1000 Ang^3
#
#
#
# Elastic Constant Matrix: (Units=GPa)
#
#
# Indices 1 2 3 4 5 6 
#
# 1 141.2805 74.6316 61.7871 0.0000 0.0000 0.0000
# 2 74.6316 156.3476 50.7981 0.0000 0.0000 0.0000
# 3 61.7871 50.7981 84.0614 0.0000 0.0000 0.0000
# 4 0.0000 0.0000 0.0000 18.8569 0.0000 0.0000
# 5 0.0000 0.0000 0.0000 0.0000 10.7968 0.0000
# 6 0.0000 0.0000 0.0000 0.0000 0.0000 4.0809
#
#
#
# Elastic Compliance Matrix: (Units=1/GPa)
#
#
# Indices 1 2 3 4 5 6 
#
# 1 0.011793 -0.003500 -0.006553 0.000000 0.000000 0.000000
# 2 -0.003500 0.008997 -0.002864 0.000000 0.000000 0.000000
# 3 -0.006553 -0.002864 0.018444 0.000000 0.000000 0.000000
# 4 0.000000 0.000000 0.000000 0.053031 0.000000 0.000000
# 5 0.000000 0.000000 0.000000 0.000000 0.092620 0.000000
# 6 0.000000 0.000000 0.000000 0.000000 0.000000 0.245045
#
#
# Mechanical properties :
#
#
# Convention : Reuss Voigt Hill
#
# Bulk Modulus (GPa) = 74.63298 84.01366 79.32332
# Shear Modulus (GPa) = 10.86408 19.71176 15.28792
#
# Velocity S-wave (km/s) = 2.36542 3.18621 2.80599
# Velocity P-wave (km/s) = 6.77478 7.53688 7.16597
#
# Compressibility (1/GPa) = 0.01339890
#
# Stress axis : x y z
#
# Youngs Moduli (GPa) = 84.79646 111.14231 54.21941
#
# Poissons Ratio (x) = 0.38902 0.35530
# Poissons Ratio (y) = 0.29681 0.15531
# Poissons Ratio (z) = 0.55566 0.31836
#
# Static dielectric constant tensor:
#      x y z
#    x 3.528840 0.000000 0.000000 
#    y 0.000000 3.788160 0.000000 
#    z 0.000000 0.000000 3.269650 
# 
# 
# High freq. dielectric constant tensor:
#      x y z
#    x 1.755000 0.000000 0.000000 
#    y 0.000000 1.776430 0.000000 
#    z 0.000000 0.000000 1.729730 
# 
# From -- ./inp_files/13396.got.cif
#   From: 2010.03.12/outbox.cif.g09.slc.cpg/sg65_7_cif.got.tgz:13396.got - 2010.04.10 20:52:16.
