data_PCOD8272484
_publ_section_title
;
Structure prediction by ZEFSAII (Michael W. Deem and Ramdas Pophale) SiO2 
 PCOD8272484
Probable space group: C M M M
;
_chemical_formula_sum "Si O2"
_cell_formula_units_Z 56
_cell_length_a 18.675144
_cell_length_b 20.965584
_cell_length_c 7.426813
_cell_angle_alpha 90.000000
_cell_angle_beta 90.000000
_cell_angle_gamma 90.000000
_cell_volume 2907.859458
_symmetry_space_group_name_H-M "C M M M"
_symmetry_group_IT_number 65
_symmetry_cell_setting 'orthorhombic'
loop_
_space_group_symop_operation_xyz
x,y,z
-x,-y,z
x,-y,-z
-x,y,-z
-x,-y,-z
x,y,-z
-x,y,z
x,-y,z
1/2+x,1/2+y,z
1/2-x,1/2-y,z
1/2+x,1/2-y,-z
1/2-x,1/2+y,-z
1/2-x,1/2-y,-z
1/2+x,1/2+y,-z
1/2-x,1/2+y,z
1/2+x,1/2-y,z
loop_
_atom_site_type_symbol
_atom_site_label
_atom_site_fract_x
_atom_site_fract_y
_atom_site_fract_z
Si Si1 0.080345 0.500000 0.713509
Si Si2 0.834967 0.073621 0.292079
Si Si3 0.915521 0.151236 0.000000
Si Si4 0.170983 0.277955 0.000000
Si Si5 0.324932 0.882581 0.710565
O O1 0.080420 0.500000 0.500000
O O2 0.121028 0.563035 0.780619
O O3 0.000000 0.500000 0.792236
O O4 0.852352 0.086057 0.500000
O O5 0.889670 0.115213 0.178163
O O6 0.754526 0.093757 0.245398
O O7 0.845036 0.000000 0.241096
O O8 0.887484 0.222998 0.000000
O O9 0.000000 0.152953 0.000000
O O10 0.250000 0.250000 0.000000
O O11 0.158627 0.318759 0.819851
O O12 0.335225 0.867651 0.500000
#
# Coordination Sequence:
#
# PCOD8272484 Si02
#       5
#     8  16   8   8  16
#     4   9  18  35  61  95 128 152 184 242 306 351
#     4  10  20  38  66  93 115 149 197 244 295 355
#     4  12  27  43  57  84 124 157 194 251 300 337
#     4  12  24  39  59  86 114 160 207 239 280 348
#     4  10  20  37  63  91 119 154 197 242 288 347
#
# _framework density 19.258151999999999
#
# number of rings (size 3 to 8) (size 9 to 14) (size 15 to 20)
#    0.000    1.571    4.286    0.429    0.000    5.143 
#    0.000    2.143    0.000    0.000    0.000    0.000 
#    0.000    0.000    0.000    0.000    0.000    0.000 
#
# Total GULP energy -347308.271728 kJ/mol
# GULP energy per Si atom -12403.866847 kJ/mol
# Density = 1.921432 g / cm^3
# Si number density = 19.258152 Si / 1000 Ang^3
#
#
#
# Elastic Constant Matrix: (Units=GPa)
#
#
# Indices 1 2 3 4 5 6 
#
# 1 166.0895 89.0034 57.6143 0.0000 0.0000 0.0000
# 2 89.0034 176.3661 77.4888 0.0000 0.0000 0.0000
# 3 57.6143 77.4888 99.9760 0.0000 0.0000 0.0000
# 4 0.0000 0.0000 0.0000 52.0308 0.0000 0.0000
# 5 0.0000 0.0000 0.0000 0.0000 18.8455 0.0000
# 6 0.0000 0.0000 0.0000 0.0000 0.0000 32.5727
#
#
#
# Elastic Compliance Matrix: (Units=1/GPa)
#
#
# Indices 1 2 3 4 5 6 
#
# 1 0.008622 -0.003288 -0.002421 0.000000 0.000000 0.000000
# 2 -0.003288 0.009852 -0.005741 0.000000 0.000000 0.000000
# 3 -0.002421 -0.005741 0.015847 0.000000 0.000000 0.000000
# 4 0.000000 0.000000 0.000000 0.019219 0.000000 0.000000
# 5 0.000000 0.000000 0.000000 0.000000 0.053063 0.000000
# 6 0.000000 0.000000 0.000000 0.000000 0.000000 0.030701
#
#
# Mechanical properties :
#
#
# Convention : Reuss Voigt Hill
#
# Bulk Modulus (GPa) = 87.54904 98.96052 93.25478
# Shear Modulus (GPa) = 30.48590 35.24482 32.86536
#
# Velocity S-wave (km/s) = 3.98303 4.28264 4.13555
# Velocity P-wave (km/s) = 8.16775 8.71507 8.44585
#
# Compressibility (1/GPa) = 0.01142217
#
# Stress axis : x y z
#
# Youngs Moduli (GPa) = 115.97746 101.50643 63.10289
#
# Poissons Ratio (x) = 0.33373 0.15275
# Poissons Ratio (y) = 0.38130 0.36228
# Poissons Ratio (z) = 0.28074 0.58275
#
# Static dielectric constant tensor:
#      x y z
#    x 3.504960 0.000000 0.000000 
#    y 0.000000 3.409020 0.000000 
#    z 0.000000 0.000000 3.838730 
# 
# 
# High freq. dielectric constant tensor:
#      x y z
#    x 1.741070 0.000000 0.000000 
#    y 0.000000 1.756930 0.000000 
#    z 0.000000 0.000000 1.758380 
# 
# From -- ./inp_files/8530.got.cif
#   From: 2010.03.12/outbox.cif.g09.slc.cpg/sg65_5_cif.got.tgz:8530.got - 2010.04.10 20:52:16.
