data_PCOD8272852
_publ_section_title
;
Structure prediction by ZEFSAII (Michael W. Deem and Ramdas Pophale) SiO2 
 PCOD8272852
Probable space group: C M M M
;
_chemical_formula_sum "Si O2"
_cell_formula_units_Z 72
_cell_length_a 7.786774
_cell_length_b 18.457590
_cell_length_c 24.816632
_cell_angle_alpha 90.000000
_cell_angle_beta 90.000000
_cell_angle_gamma 90.000000
_cell_volume 3566.772467
_symmetry_space_group_name_H-M "C M M M"
_symmetry_group_IT_number 65
_symmetry_cell_setting 'orthorhombic'
loop_
_space_group_symop_operation_xyz
x,y,z
-x,-y,z
x,-y,-z
-x,y,-z
-x,-y,-z
x,y,-z
-x,y,z
x,-y,z
1/2+x,1/2+y,z
1/2-x,1/2-y,z
1/2+x,1/2-y,-z
1/2-x,1/2+y,-z
1/2-x,1/2-y,-z
1/2+x,1/2+y,-z
1/2-x,1/2+y,z
1/2+x,1/2-y,z
loop_
_atom_site_type_symbol
_atom_site_label
_atom_site_fract_x
_atom_site_fract_y
_atom_site_fract_z
Si Si1 0.794961 0.834188 0.375594
Si Si2 0.195916 0.080495 0.727306
Si Si3 0.300054 0.667706 0.940288
Si Si4 0.500000 0.083461 0.563688
Si Si5 0.805104 0.579196 0.840167
O O1 0.750000 0.750000 0.378596
O O2 0.732171 0.863957 0.317116
O O3 0.676454 0.877313 0.417843
O O4 0.000000 0.846076 0.386944
O O5 0.215019 0.114402 0.787577
O O6 0.000000 0.069880 0.713131
O O7 0.284465 0.000000 0.724801
O O8 0.500000 0.656709 0.931882
O O9 0.250000 0.750000 0.933252
O O10 0.203863 0.624508 0.894429
O O11 0.243870 0.640533 0.000000
O O12 0.500000 0.086972 0.500000
O O13 0.500000 0.000000 0.584019
O O14 0.723301 0.500000 0.851519
O O15 0.000000 0.571888 0.823198
#
# Coordination Sequence:
#
# PCOD8272852 Si02
#       5
#    16  16  16   8  16
#     4  11  23  42  66  99 134 173 217 267 325 380
#     4   9  19  36  59  85 118 159 201 249 303 365
#     4  10  21  37  56  76 103 142 188 240 298 357
#     4  11  26  46  70 100 133 175 222 268 321 382
#     4  10  21  35  54  83 115 151 192 237 294 354
#
# _framework density 20.186316000000001
#
# number of rings (size 3 to 8) (size 9 to 14) (size 15 to 20)
#    0.000    1.889    1.111    2.000    1.556    6.222 
#    0.000    5.556    0.000    0.000    0.000    0.000 
#    0.000    0.000    0.000    0.000    0.000    0.000 
#
# Total GULP energy -446110.649271 kJ/mol
# GULP energy per Si atom -12391.962480 kJ/mol
# Density = 2.014037 g / cm^3
# Si number density = 20.186316 Si / 1000 Ang^3
#
#
#
# Elastic Constant Matrix: (Units=GPa)
#
#
# Indices 1 2 3 4 5 6 
#
# 1 82.5664 39.1039 36.3817 0.0000 0.0000 0.0000
# 2 39.1039 92.7954 55.1162 0.0000 0.0000 0.0000
# 3 36.3817 55.1162 125.2676 0.0000 0.0000 0.0000
# 4 0.0000 0.0000 0.0000 18.1980 0.0000 0.0000
# 5 0.0000 0.0000 0.0000 0.0000 29.6095 0.0000
# 6 0.0000 0.0000 0.0000 0.0000 0.0000 17.4901
#
#
#
# Elastic Compliance Matrix: (Units=1/GPa)
#
#
# Indices 1 2 3 4 5 6 
#
# 1 0.015572 -0.005247 -0.002214 0.000000 0.000000 0.000000
# 2 -0.005247 0.016357 -0.005673 0.000000 0.000000 0.000000
# 3 -0.002214 -0.005673 0.011122 0.000000 0.000000 0.000000
# 4 0.000000 0.000000 0.000000 0.054951 0.000000 0.000000
# 5 0.000000 0.000000 0.000000 0.000000 0.033773 0.000000
# 6 0.000000 0.000000 0.000000 0.000000 0.000000 0.057175
#
#
# Mechanical properties :
#
#
# Convention : Reuss Voigt Hill
#
# Bulk Modulus (GPa) = 59.58407 62.42588 61.00497
# Shear Modulus (GPa) = 22.64363 24.39468 23.51915
#
# Velocity S-wave (km/s) = 3.35286 3.48009 3.41706
# Velocity P-wave (km/s) = 6.67608 6.86586 6.77163
#
# Compressibility (1/GPa) = 0.01678301
#
# Stress axis : x y z
#
# Youngs Moduli (GPa) = 64.21761 61.13603 89.91227
#
# Poissons Ratio (x) = 0.32078 0.19906
# Poissons Ratio (y) = 0.33695 0.51007
# Poissons Ratio (z) = 0.14218 0.34682
#
# Static dielectric constant tensor:
#      x y z
#    x 3.775670 0.000000 0.000000 
#    y 0.000000 3.784520 0.000000 
#    z 0.000000 0.000000 3.714370 
# 
# 
# High freq. dielectric constant tensor:
#      x y z
#    x 1.793490 0.000000 0.000000 
#    y 0.000000 1.779500 0.000000 
#    z 0.000000 0.000000 1.794860 
# 
# From -- ./inp_files/67006.got.cif
#   From: 2010.03.12/outbox.cif.g09.slc.cpg/sg65_34_cif.got.tgz:67006.got - 2010.04.10 20:52:16.
