data_PCOD8272520
_publ_section_title
;
Structure prediction by ZEFSAII (Michael W. Deem and Ramdas Pophale) SiO2 
 PCOD8272520
Probable space group: C M M M
;
_chemical_formula_sum "Si O2"
_cell_formula_units_Z 104
_cell_length_a 29.132858
_cell_length_b 20.439637
_cell_length_c 9.338748
_cell_angle_alpha 90.000000
_cell_angle_beta 90.000000
_cell_angle_gamma 90.000000
_cell_volume 5560.897973
_symmetry_space_group_name_H-M "C M M M"
_symmetry_group_IT_number 65
_symmetry_cell_setting 'orthorhombic'
loop_
_space_group_symop_operation_xyz
x,y,z
-x,-y,z
x,-y,-z
-x,y,-z
-x,-y,-z
x,y,-z
-x,y,z
x,-y,z
1/2+x,1/2+y,z
1/2-x,1/2-y,z
1/2+x,1/2-y,-z
1/2-x,1/2+y,-z
1/2-x,1/2-y,-z
1/2+x,1/2+y,-z
1/2-x,1/2+y,z
1/2+x,1/2-y,z
loop_
_atom_site_type_symbol
_atom_site_label
_atom_site_fract_x
_atom_site_fract_y
_atom_site_fract_z
Si Si1 0.053043 0.925018 0.837521
Si Si2 0.950052 0.500000 0.831285
Si Si3 0.131367 0.286904 0.665958
Si Si4 0.289916 0.574321 0.163721
Si Si5 0.054401 0.357404 0.832786
Si Si6 0.870698 0.865174 0.336042
Si Si7 0.279609 0.187159 0.167108
O O1 0.079671 0.878017 0.730679
O O2 0.000000 0.910925 0.812052
O O3 0.065107 0.000000 0.803614
O O4 0.066911 0.908271 0.000000
O O5 0.926492 0.569313 0.789649
O O6 0.000000 0.500000 0.757944
O O7 0.956929 0.500000 0.000000
O O8 0.129869 0.307471 0.500000
O O9 0.083102 0.306320 0.738695
O O10 0.140570 0.210406 0.684752
O O11 0.173795 0.321539 0.744133
O O12 0.273835 0.500000 0.191207
O O13 0.333536 0.589860 0.259554
O O14 0.248086 0.621548 0.203026
O O15 0.305036 0.585305 0.000000
O O16 0.000000 0.350683 0.799280
O O17 0.063391 0.343214 0.000000
O O18 0.871700 0.886040 0.500000
O O19 0.250000 0.250000 0.217171
O O20 0.292061 0.193567 0.000000
#
# Coordination Sequence:
#
# PCOD8272520 Si02
#       7
#    16   8  16  16  16  16  16
#     4   9  19  36  56  78 106 141 182 229 277 322
#     4   7  12  28  55  83 107 135 177 229 279 321
#     4  11  24  38  54  80 116 153 184 222 273 328
#     4  10  21  38  61  87 111 137 178 233 283 326
#     4   9  18  35  60  86 111 143 186 233 277 326
#     4  11  23  36  53  79 111 148 186 223 270 329
#     4  10  20  38  63  85 107 143 188 230 273 329
#
# _framework density 18.702016
#
# number of rings (size 3 to 8) (size 9 to 14) (size 15 to 20)
#    0.000    2.231    1.538    2.769    0.000    6.462 
#    1.385    4.231    0.000    1.385    0.000    0.000 
#    0.000    0.000    0.000    0.000    0.000    0.000 
#
# Total GULP energy -644713.703359 kJ/mol
# GULP energy per Si atom -12398.340449 kJ/mol
# Density = 1.865945 g / cm^3
# Si number density = 18.702016 Si / 1000 Ang^3
#
#
#
# Elastic Constant Matrix: (Units=GPa)
#
#
# Indices 1 2 3 4 5 6 
#
# 1 104.2933 44.9450 64.5815 0.0000 0.0000 0.0000
# 2 44.9450 86.9366 47.3937 0.0000 0.0000 0.0000
# 3 64.5815 47.3937 96.8408 0.0000 0.0000 0.0000
# 4 0.0000 0.0000 0.0000 23.1812 0.0000 0.0000
# 5 0.0000 0.0000 0.0000 0.0000 4.6030 0.0000
# 6 0.0000 0.0000 0.0000 0.0000 0.0000 31.8254
#
#
#
# Elastic Compliance Matrix: (Units=1/GPa)
#
#
# Indices 1 2 3 4 5 6 
#
# 1 0.017113 -0.003581 -0.009660 0.000000 0.000000 0.000000
# 2 -0.003581 0.016438 -0.005656 0.000000 0.000000 0.000000
# 3 -0.009660 -0.005656 0.019536 0.000000 0.000000 0.000000
# 4 0.000000 0.000000 0.000000 0.043138 0.000000 0.000000
# 5 0.000000 0.000000 0.000000 0.000000 0.217252 0.000000
# 6 0.000000 0.000000 0.000000 0.000000 0.000000 0.031421
#
#
# Mechanical properties :
#
#
# Convention : Reuss Voigt Hill
#
# Bulk Modulus (GPa) = 65.39150 66.87901 66.13525
# Shear Modulus (GPa) = 12.89353 20.66529 16.77941
#
# Velocity S-wave (km/s) = 2.62853 3.32773 2.99858
# Velocity P-wave (km/s) = 6.65230 7.11358 6.88680
#
# Compressibility (1/GPa) = 0.01529251
#
# Stress axis : x y z
#
# Youngs Moduli (GPa) = 58.43369 60.83612 51.18626
#
# Poissons Ratio (x) = 0.21787 0.49446
# Poissons Ratio (y) = 0.20926 0.28952
# Poissons Ratio (z) = 0.56447 0.34411
#
# Static dielectric constant tensor:
#      x y z
#    x 3.287700 0.000000 0.000000 
#    y 0.000000 3.546410 0.000000 
#    z 0.000000 0.000000 3.336660 
# 
# 
# High freq. dielectric constant tensor:
#      x y z
#    x 1.719980 0.000000 0.000000 
#    y 0.000000 1.730690 0.000000 
#    z 0.000000 0.000000 1.713900 
# 
# From -- ./inp_files/18646.got.cif
#   From: 2010.03.12/outbox.cif.g09.slc.cpg/sg65_10_cif.got.tgz:18646.got - 2010.04.10 20:52:16.
