data_PCOD8272136
_publ_section_title
;
Structure prediction by ZEFSAII (Michael W. Deem and Ramdas Pophale) SiO2 
 PCOD8272136
Probable space group: C M M M
;
_chemical_formula_sum "Si O2"
_cell_formula_units_Z 72
_cell_length_a 8.583598
_cell_length_b 27.344948
_cell_length_c 16.227967
_cell_angle_alpha 90.000000
_cell_angle_beta 90.000000
_cell_angle_gamma 90.000000
_cell_volume 3808.996623
_symmetry_space_group_name_H-M "C M M M"
_symmetry_group_IT_number 65
_symmetry_cell_setting 'orthorhombic'
loop_
_space_group_symop_operation_xyz
x,y,z
-x,-y,z
x,-y,-z
-x,y,-z
-x,-y,-z
x,y,-z
-x,y,z
x,-y,z
1/2+x,1/2+y,z
1/2-x,1/2-y,z
1/2+x,1/2-y,-z
1/2-x,1/2+y,-z
1/2-x,1/2-y,-z
1/2+x,1/2+y,-z
1/2-x,1/2+y,z
1/2+x,1/2-y,z
loop_
_atom_site_type_symbol
_atom_site_label
_atom_site_fract_x
_atom_site_fract_y
_atom_site_fract_z
Si Si1 0.183998 0.946462 0.250592
Si Si2 0.817732 0.304162 0.000000
Si Si3 0.682660 0.198976 0.681033
Si Si4 0.818833 0.111190 0.592680
Si Si5 0.184101 0.850573 0.161720
O O1 0.231739 0.931235 0.343669
O O2 0.242313 0.905451 0.185850
O O3 0.000000 0.949972 0.244305
O O4 0.257692 0.000000 0.231069
O O5 0.750000 0.250000 0.000000
O O6 0.766870 0.335030 0.921373
O O7 0.000000 0.298000 0.000000
O O8 0.500000 0.202222 0.697673
O O9 0.750000 0.250000 0.648485
O O10 0.718667 0.159481 0.610471
O O11 0.769700 0.186252 0.765923
O O12 0.785334 0.092833 0.500000
O O13 0.000000 0.124532 0.605673
O O14 0.000000 0.848605 0.148803
#
# Coordination Sequence:
#
# PCOD8272136 Si02
#       5
#    16   8  16  16  16
#     4   8  15  30  54  81 106 135 173 217 261 303
#     4  12  24  38  57  82 111 141 174 211 255 306
#     4  11  21  34  52  73 101 138 177 216 262 316
#     4   9  18  32  50  75 106 137 174 220 264 309
#     4  10  20  36  56  80 109 138 173 215 257 305
#
# _framework density 18.902615999999998
#
# number of rings (size 3 to 8) (size 9 to 14) (size 15 to 20)
#    0.000    2.222    0.000    5.667    0.000    1.333 
#    0.000    2.778    0.000   20.000    0.000    6.222 
#    0.000    0.000    0.000    0.000    0.000    0.000 
#
# Total GULP energy -446343.057562 kJ/mol
# GULP energy per Si atom -12398.418266 kJ/mol
# Density = 1.885959 g / cm^3
# Si number density = 18.902616 Si / 1000 Ang^3
#
#
#
# Elastic Constant Matrix: (Units=GPa)
#
#
# Indices 1 2 3 4 5 6 
#
# 1 82.1773 35.0906 30.5440 0.0000 0.0000 0.0000
# 2 35.0906 150.6903 56.2485 0.0000 0.0000 0.0000
# 3 30.5440 56.2485 123.3624 0.0000 0.0000 0.0000
# 4 0.0000 0.0000 0.0000 17.2908 0.0000 0.0000
# 5 0.0000 0.0000 0.0000 0.0000 26.3184 0.0000
# 6 0.0000 0.0000 0.0000 0.0000 0.0000 20.0103
#
#
#
# Elastic Compliance Matrix: (Units=1/GPa)
#
#
# Indices 1 2 3 4 5 6 
#
# 1 0.014078 -0.002383 -0.002399 0.000000 0.000000 0.000000
# 2 -0.002383 0.008401 -0.003240 0.000000 0.000000 0.000000
# 3 -0.002399 -0.003240 0.010178 0.000000 0.000000 0.000000
# 4 0.000000 0.000000 0.000000 0.057834 0.000000 0.000000
# 5 0.000000 0.000000 0.000000 0.000000 0.037996 0.000000
# 6 0.000000 0.000000 0.000000 0.000000 0.000000 0.049974
#
#
# Mechanical properties :
#
#
# Convention : Reuss Voigt Hill
#
# Bulk Modulus (GPa) = 60.19878 66.66624 63.43251
# Shear Modulus (GPa) = 24.99465 28.34703 26.67084
#
# Velocity S-wave (km/s) = 3.64027 3.87671 3.76035
# Velocity P-wave (km/s) = 7.04164 7.44200 7.24459
#
# Compressibility (1/GPa) = 0.01661163
#
# Stress axis : x y z
#
# Youngs Moduli (GPa) = 71.03276 119.04020 98.25389
#
# Poissons Ratio (x) = 0.28364 0.23573
# Poissons Ratio (y) = 0.16925 0.31838
# Poissons Ratio (z) = 0.17042 0.38573
#
# Static dielectric constant tensor:
#      x y z
#    x 3.327800 0.000000 0.000000 
#    y 0.000000 3.834710 0.000000 
#    z 0.000000 0.000000 3.467380 
# 
# 
# High freq. dielectric constant tensor:
#      x y z
#    x 1.718960 0.000000 0.000000 
#    y 0.000000 1.737420 0.000000 
#    z 0.000000 0.000000 1.728370 
# 
# From -- ./inp_files/36572.got.cif
#   From: 2010.03.12/outbox.cif.g09.slc.cpg/sg65_19_cif.got.tgz:36572.got - 2010.04.10 20:52:16.
