data_PCOD8272384
_publ_section_title
;
Structure prediction by ZEFSAII (Michael W. Deem and Ramdas Pophale) SiO2 
 PCOD8272384
Probable space group: C M M M
;
_chemical_formula_sum "Si O2"
_cell_formula_units_Z 64
_cell_length_a 24.090679
_cell_length_b 15.600640
_cell_length_c 8.944326
_cell_angle_alpha 90.000000
_cell_angle_beta 90.000000
_cell_angle_gamma 90.000000
_cell_volume 3361.546134
_symmetry_space_group_name_H-M "C M M M"
_symmetry_group_IT_number 65
_symmetry_cell_setting 'orthorhombic'
loop_
_space_group_symop_operation_xyz
x,y,z
-x,-y,z
x,-y,-z
-x,y,-z
-x,-y,-z
x,y,-z
-x,y,z
x,-y,z
1/2+x,1/2+y,z
1/2-x,1/2-y,z
1/2+x,1/2-y,-z
1/2-x,1/2+y,-z
1/2-x,1/2-y,-z
1/2+x,1/2+y,-z
1/2-x,1/2+y,z
1/2+x,1/2-y,z
loop_
_atom_site_type_symbol
_atom_site_label
_atom_site_fract_x
_atom_site_fract_y
_atom_site_fract_z
Si Si1 0.776360 0.662784 0.322280
Si Si2 0.000000 0.860653 0.323143
Si Si3 0.710022 0.500000 0.321069
Si Si4 0.894522 0.400055 0.328346
Si Si5 0.086085 0.000000 0.677141
Si Si6 0.500000 0.176578 0.823981
O O1 0.772567 0.662238 0.500000
O O2 0.750000 0.750000 0.256392
O O3 0.740987 0.583663 0.257874
O O4 0.840664 0.653506 0.274372
O O5 0.000000 0.771022 0.241598
O O6 0.000000 0.844759 0.500000
O O7 0.945881 0.914153 0.271382
O O8 0.709799 0.500000 0.500000
O O9 0.647712 0.500000 0.255360
O O10 0.909195 0.378200 0.500000
O O11 0.880540 0.500000 0.310502
O O12 0.946076 0.375240 0.226771
O O13 0.087764 0.000000 0.500000
O O14 0.500000 0.182570 0.000000
#
# Coordination Sequence:
#
# PCOD8272384 Si02
#       6
#    16   8   8  16   8   8
#     4   9  17  28  48  82 117 142 168 213 273 326
#     4   9  18  35  55  83 112 142 181 224 269 318
#     4   9  15  26  45  79 117 142 168 211 268 330
#     4  10  20  37  58  81 108 140 180 226 272 322
#     4   8  16  29  52  84 117 143 173 219 272 319
#     4  12  26  38  53  78 106 143 188 229 276 327
#
# _framework density 19.038857
#
# number of rings (size 3 to 8) (size 9 to 14) (size 15 to 20)
#    0.000    2.500    1.250    2.250    3.500    2.000 
#    0.000    1.250    0.000    0.750    0.000    0.000 
#    0.000    0.000    0.000    0.000    0.000    0.000 
#
# Total GULP energy -396761.442154 kJ/mol
# GULP energy per Si atom -12398.795067 kJ/mol
# Density = 1.899552 g / cm^3
# Si number density = 19.038857 Si / 1000 Ang^3
#
#
#
# Elastic Constant Matrix: (Units=GPa)
#
#
# Indices 1 2 3 4 5 6 
#
# 1 160.3542 66.1117 29.4574 0.0000 0.0000 0.0000
# 2 66.1117 129.3912 25.1363 0.0000 0.0000 0.0000
# 3 29.4574 25.1363 46.3175 0.0000 0.0000 0.0000
# 4 0.0000 0.0000 0.0000 1.5423 0.0000 0.0000
# 5 0.0000 0.0000 0.0000 0.0000 0.0194 0.0000
# 6 0.0000 0.0000 0.0000 0.0000 0.0000 24.6366
#
#
#
# Elastic Compliance Matrix: (Units=1/GPa)
#
#
# Indices 1 2 3 4 5 6 
#
# 1 0.008339 -0.003611 -0.003344 0.000000 0.000000 0.000000
# 2 -0.003611 0.010203 -0.003240 0.000000 0.000000 0.000000
# 3 -0.003344 -0.003240 0.025475 0.000000 0.000000 0.000000
# 4 0.000000 0.000000 0.000000 0.648397 0.000000 0.000000
# 5 0.000000 0.000000 0.000000 0.000000 51.614612 0.000000
# 6 0.000000 0.000000 0.000000 0.000000 0.000000 0.040590
#
#
# Mechanical properties :
#
#
# Convention : Reuss Voigt Hill
#
# Bulk Modulus (GPa) = 42.32528 64.16376 53.24452
# Shear Modulus (GPa) = 0.09546 19.59681 9.84614
#
# Velocity S-wave (km/s) = 0.22417 3.21176 2.27658
# Velocity P-wave (km/s) = 4.72718 6.89409 5.91079
#
# Compressibility (1/GPa) = 0.02362654
#
# Stress axis : x y z
#
# Youngs Moduli (GPa) = 119.91302 98.00832 39.25364
#
# Poissons Ratio (x) = 0.35394 0.13126
# Poissons Ratio (y) = 0.43305 0.12720
# Poissons Ratio (z) = 0.40097 0.31759
#
# Static dielectric constant tensor:
#      x y z
#    x 3.832820 0.000000 0.000000 
#    y 0.000000 3.684160 0.000000 
#    z 0.000000 0.000000 2.853280 
# 
# 
# High freq. dielectric constant tensor:
#      x y z
#    x 1.758230 0.000000 0.000000 
#    y 0.000000 1.753600 0.000000 
#    z 0.000000 0.000000 1.668100 
# 
# From -- ./inp_files/13427.got.cif
#   From: 2010.03.12/outbox.cif.g09.slc.cpg/sg65_7_cif.got.tgz:13427.got - 2010.04.10 20:52:16.
