data_PCOD8272217
_publ_section_title
;
Structure prediction by ZEFSAII (Michael W. Deem and Ramdas Pophale) SiO2 
 PCOD8272217
Probable space group: C M M M
;
_chemical_formula_sum "Si O2"
_cell_formula_units_Z 72
_cell_length_a 9.060245
_cell_length_b 15.716856
_cell_length_c 26.117237
_cell_angle_alpha 90.000000
_cell_angle_beta 90.000000
_cell_angle_gamma 90.000000
_cell_volume 3719.057096
_symmetry_space_group_name_H-M "C M M M"
_symmetry_group_IT_number 65
_symmetry_cell_setting 'orthorhombic'
loop_
_space_group_symop_operation_xyz
x,y,z
-x,-y,z
x,-y,-z
-x,y,-z
-x,-y,-z
x,y,-z
-x,y,z
x,-y,z
1/2+x,1/2+y,z
1/2-x,1/2-y,z
1/2+x,1/2-y,-z
1/2-x,1/2+y,-z
1/2-x,1/2-y,-z
1/2+x,1/2+y,-z
1/2-x,1/2+y,z
1/2+x,1/2-y,z
loop_
_atom_site_type_symbol
_atom_site_label
_atom_site_fract_x
_atom_site_fract_y
_atom_site_fract_z
Si Si1 0.174988 0.665086 0.796267
Si Si2 0.824768 0.500000 0.735081
Si Si3 0.824150 0.500000 0.619453
Si Si4 0.827635 0.160904 0.000000
Si Si5 0.669716 0.402666 0.890853
Si Si6 0.326841 0.835761 0.559078
O O1 0.250000 0.750000 0.773278
O O2 0.232785 0.584797 0.763349
O O3 0.226581 0.654242 0.854936
O O4 0.000000 0.674564 0.794112
O O5 0.763582 0.500000 0.677298
O O6 0.000000 0.500000 0.735518
O O7 0.764613 0.415689 0.591063
O O8 0.000000 0.500000 0.617627
O O9 0.750000 0.250000 0.000000
O O10 0.780504 0.108678 0.050346
O O11 0.000000 0.177503 0.000000
O O12 0.500000 0.374479 0.882976
O O13 0.692757 0.500000 0.875383
O O14 0.287132 0.852547 0.500000
O O15 0.500000 0.824467 0.567293
O O16 0.250000 0.750000 0.579339
#
# Coordination Sequence:
#
# PCOD8272217 Si02
#       6
#    16   8   8   8  16  16
#     4  11  22  38  58  81 107 140 181 225 272 323
#     4   9  20  37  55  77 107 140 179 228 273 316
#     4   9  17  32  54  76 103 143 184 220 265 318
#     4  10  21  35  51  77 109 140 173 213 259 319
#     4  10  20  36  58  81 107 139 176 218 267 320
#     4   9  17  30  51  79 109 141 179 220 263 316
#
# _framework density 19.359746000000001
#
# number of rings (size 3 to 8) (size 9 to 14) (size 15 to 20)
#    0.000    2.222    1.111    2.000    0.000    6.222 
#    0.000    0.556    0.000    8.667    0.000    0.000 
#    0.000    0.000    0.000    0.000    0.000    0.000 
#
# Total GULP energy -446454.803935 kJ/mol
# GULP energy per Si atom -12401.522332 kJ/mol
# Density = 1.931568 g / cm^3
# Si number density = 19.359746 Si / 1000 Ang^3
#
#
#
# Elastic Constant Matrix: (Units=GPa)
#
#
# Indices 1 2 3 4 5 6 
#
# 1 42.1287 44.1349 30.5807 0.0000 0.0000 0.0000
# 2 44.1349 171.0771 76.4839 0.0000 0.0000 0.0000
# 3 30.5807 76.4839 121.0108 0.0000 0.0000 0.0000
# 4 0.0000 0.0000 0.0000 22.3110 0.0000 0.0000
# 5 0.0000 0.0000 0.0000 0.0000 17.1151 0.0000
# 6 0.0000 0.0000 0.0000 0.0000 0.0000 33.9249
#
#
#
# Elastic Compliance Matrix: (Units=1/GPa)
#
#
# Indices 1 2 3 4 5 6 
#
# 1 0.034029 -0.006878 -0.004252 0.000000 0.000000 0.000000
# 2 -0.006878 0.009538 -0.004290 0.000000 0.000000 0.000000
# 3 -0.004252 -0.004290 0.012050 0.000000 0.000000 0.000000
# 4 0.000000 0.000000 0.000000 0.044821 0.000000 0.000000
# 5 0.000000 0.000000 0.000000 0.000000 0.058428 0.000000
# 6 0.000000 0.000000 0.000000 0.000000 0.000000 0.029477
#
#
# Mechanical properties :
#
#
# Convention : Reuss Voigt Hill
#
# Bulk Modulus (GPa) = 40.36195 70.73507 55.54851
# Shear Modulus (GPa) = 21.98372 26.87135 24.42753
#
# Velocity S-wave (km/s) = 3.37343 3.72963 3.55599
# Velocity P-wave (km/s) = 6.00558 7.42720 6.75390
#
# Compressibility (1/GPa) = 0.02477581
#
# Stress axis : x y z
#
# Youngs Moduli (GPa) = 29.38690 104.84774 82.98825
#
# Poissons Ratio (x) = 0.72111 0.35290
# Poissons Ratio (y) = 0.20211 0.35603
# Poissons Ratio (z) = 0.12497 0.44981
#
# Static dielectric constant tensor:
#      x y z
#    x 3.214990 0.000000 0.000000 
#    y 0.000000 3.684920 0.000000 
#    z 0.000000 0.000000 3.671910 
# 
# 
# High freq. dielectric constant tensor:
#      x y z
#    x 1.722230 0.000000 0.000000 
#    y 0.000000 1.769350 0.000000 
#    z 0.000000 0.000000 1.750650 
# 
# From -- ./inp_files/72630.got.cif
#   From: 2010.03.12/outbox.cif.g09.slc.cpg/sg65_37_cif.got.tgz:72630.got - 2010.04.10 20:52:16.
