data_PCOD8272869
_publ_section_title
;
Structure prediction by ZEFSAII (Michael W. Deem and Ramdas Pophale) SiO2 
 PCOD8272869
Probable space group: C M M M
;
_chemical_formula_sum "Si O2"
_cell_formula_units_Z 72
_cell_length_a 9.196324
_cell_length_b 17.790810
_cell_length_c 24.331910
_cell_angle_alpha 90.000000
_cell_angle_beta 90.000000
_cell_angle_gamma 90.000000
_cell_volume 3980.945084
_symmetry_space_group_name_H-M "C M M M"
_symmetry_group_IT_number 65
_symmetry_cell_setting 'orthorhombic'
loop_
_space_group_symop_operation_xyz
x,y,z
-x,-y,z
x,-y,-z
-x,y,-z
-x,-y,-z
x,y,-z
-x,y,z
x,-y,z
1/2+x,1/2+y,z
1/2-x,1/2-y,z
1/2+x,1/2-y,-z
1/2-x,1/2+y,-z
1/2-x,1/2-y,-z
1/2+x,1/2+y,-z
1/2-x,1/2+y,z
1/2+x,1/2-y,z
loop_
_atom_site_type_symbol
_atom_site_label
_atom_site_fract_x
_atom_site_fract_y
_atom_site_fract_z
Si Si1 0.332048 0.085757 0.736562
Si Si2 0.833049 0.913925 0.063545
Si Si3 0.831334 0.674057 0.846010
Si Si4 0.839043 0.177233 0.353787
Si Si5 0.500000 0.588712 0.436880
O O1 0.500000 0.093121 0.719816
O O2 0.305314 0.113817 0.798154
O O3 0.239116 0.134858 0.695223
O O4 0.278629 0.000000 0.733355
O O5 0.730506 0.859114 0.097669
O O6 0.000000 0.901174 0.080930
O O7 0.787779 0.000000 0.074475
O O8 0.810925 0.893507 0.000000
O O9 0.750000 0.750000 0.829322
O O10 0.000000 0.692300 0.854620
O O11 0.750000 0.250000 0.372332
O O12 0.000000 0.201867 0.332893
O O13 0.856102 0.122589 0.406972
O O14 0.500000 0.500000 0.430197
O O15 0.500000 0.613753 0.500000
#
# Coordination Sequence:
#
# PCOD8272869 Si02
#       5
#    16  16  16  16   8
#     4  10  21  37  58  83 115 149 187 236 288 344
#     4   9  19  37  59  81 106 138 179 227 280 339
#     4  11  23  37  54  79 110 145 185 230 283 337
#     4  10  21  35  58  86 117 152 194 235 285 340
#     4   9  20  38  60  86 119 157 198 242 285 338
#
# _framework density 18.086157
#
# number of rings (size 3 to 8) (size 9 to 14) (size 15 to 20)
#    0.667    1.444    0.000    4.000    0.000    6.222 
#    0.000    1.111    0.000    0.000    0.000    4.667 
#    0.000    0.000    0.000    0.000    0.000    0.000 
#
# Total GULP energy -446404.879351 kJ/mol
# GULP energy per Si atom -12400.135538 kJ/mol
# Density = 1.804499 g / cm^3
# Si number density = 18.086157 Si / 1000 Ang^3
#
#
#
# Elastic Constant Matrix: (Units=GPa)
#
#
# Indices 1 2 3 4 5 6 
#
# 1 95.9284 51.9878 48.4463 0.0000 0.0000 0.0000
# 2 51.9878 101.4056 38.5905 0.0000 0.0000 0.0000
# 3 48.4463 38.5905 90.7396 0.0000 0.0000 0.0000
# 4 0.0000 0.0000 0.0000 21.4364 0.0000 0.0000
# 5 0.0000 0.0000 0.0000 0.0000 12.2755 0.0000
# 6 0.0000 0.0000 0.0000 0.0000 0.0000 31.6726
#
#
#
# Elastic Compliance Matrix: (Units=1/GPa)
#
#
# Indices 1 2 3 4 5 6 
#
# 1 0.017102 -0.006315 -0.006445 0.000000 0.000000 0.000000
# 2 -0.006315 0.014097 -0.002624 0.000000 0.000000 0.000000
# 3 -0.006445 -0.002624 0.015577 0.000000 0.000000 0.000000
# 4 0.000000 0.000000 0.000000 0.046650 0.000000 0.000000
# 5 0.000000 0.000000 0.000000 0.000000 0.081463 0.000000
# 6 0.000000 0.000000 0.000000 0.000000 0.000000 0.031573
#
#
# Mechanical properties :
#
#
# Convention : Reuss Voigt Hill
#
# Bulk Modulus (GPa) = 62.46508 62.90253 62.68380
# Shear Modulus (GPa) = 20.61295 23.01350 21.81322
#
# Velocity S-wave (km/s) = 3.37962 3.57099 3.47662
# Velocity P-wave (km/s) = 7.05986 7.20122 7.13089
#
# Compressibility (1/GPa) = 0.01600894
#
# Stress axis : x y z
#
# Youngs Moduli (GPa) = 58.47394 70.93513 64.19524
#
# Poissons Ratio (x) = 0.44794 0.41374
# Poissons Ratio (y) = 0.36925 0.16844
# Poissons Ratio (z) = 0.37686 0.18613
#
# Static dielectric constant tensor:
#      x y z
#    x 3.347820 0.000000 0.000000 
#    y 0.000000 3.426390 0.000000 
#    z 0.000000 0.000000 3.210380 
# 
# 
# High freq. dielectric constant tensor:
#      x y z
#    x 1.697810 0.000000 0.000000 
#    y 0.000000 1.711730 0.000000 
#    z 0.000000 0.000000 1.695880 
# 
# From -- ./inp_files/72695.got.cif
#   From: 2010.03.12/outbox.cif.g09.slc.cpg/sg65_37_cif.got.tgz:72695.got - 2010.04.10 20:52:16.
