data_PCOD8272661
_publ_section_title
;
Structure prediction by ZEFSAII (Michael W. Deem and Ramdas Pophale) SiO2 
 PCOD8272661
Probable space group: C M M M
;
_chemical_formula_sum "Si O2"
_cell_formula_units_Z 64
_cell_length_a 8.043220
_cell_length_b 18.580847
_cell_length_c 22.560672
_cell_angle_alpha 90.000000
_cell_angle_beta 90.000000
_cell_angle_gamma 90.000000
_cell_volume 3371.688825
_symmetry_space_group_name_H-M "C M M M"
_symmetry_group_IT_number 65
_symmetry_cell_setting 'orthorhombic'
loop_
_space_group_symop_operation_xyz
x,y,z
-x,-y,z
x,-y,-z
-x,y,-z
-x,-y,-z
x,y,-z
-x,y,z
x,-y,z
1/2+x,1/2+y,z
1/2-x,1/2-y,z
1/2+x,1/2-y,-z
1/2-x,1/2+y,-z
1/2-x,1/2-y,-z
1/2+x,1/2+y,-z
1/2-x,1/2+y,z
1/2+x,1/2-y,z
loop_
_atom_site_type_symbol
_atom_site_label
_atom_site_fract_x
_atom_site_fract_y
_atom_site_fract_z
Si Si1 0.183932 0.414315 0.640126
Si Si2 0.000000 0.914142 0.567146
Si Si3 0.196231 0.580875 0.888633
Si Si4 0.696621 0.831666 0.000000
Si Si5 0.688659 0.585072 0.763507
O O1 0.195513 0.500000 0.639915
O O2 0.332187 0.383942 0.598577
O O3 0.207406 0.385382 0.707400
O O4 0.000000 0.389567 0.617684
O O5 0.000000 0.885775 0.500000
O O6 0.000000 0.000000 0.569565
O O7 0.269805 0.500000 0.894748
O O8 0.270244 0.629288 0.941627
O O9 0.247313 0.617075 0.825884
O O10 0.000000 0.577762 0.892691
O O11 0.750000 0.750000 0.000000
O O12 0.500000 0.837764 0.000000
O O13 0.500000 0.608210 0.752824
O O14 0.710183 0.500000 0.766965
#
# Coordination Sequence:
#
# PCOD8272661 Si02
#       5
#    16   8  16   8  16
#     4   9  15  23  35  50  72 104 140 182 230 273
#     4   9  16  24  32  46  72 105 145 187 221 268
#     4   9  17  30  48  68  87 112 151 197 240 280
#     4  10  21  35  49  65  91 124 154 188 230 292
#     4   9  15  24  39  60  83 104 133 183 237 277
#
# _framework density 18.981584000000002
#
# number of rings (size 3 to 8) (size 9 to 14) (size 15 to 20)
#    0.000    2.875    1.250    1.125    0.000    6.000 
#    0.000    2.500    0.000    3.750    0.000    0.000 
#    0.000    0.000    0.000    0.000    0.000    1.250 
#
# Total GULP energy -396562.691933 kJ/mol
# GULP energy per Si atom -12392.584123 kJ/mol
# Density = 1.893838 g / cm^3
# Si number density = 18.981584 Si / 1000 Ang^3
#
#
#
# Elastic Constant Matrix: (Units=GPa)
#
#
# Indices 1 2 3 4 5 6 
#
# 1 104.2144 9.1621 72.1282 0.0000 0.0000 0.0000
# 2 9.1621 30.3027 29.3041 0.0000 0.0000 0.0000
# 3 72.1282 29.3041 178.0882 0.0000 0.0000 0.0000
# 4 0.0000 0.0000 0.0000 1.9836 0.0000 0.0000
# 5 0.0000 0.0000 0.0000 0.0000 31.8477 0.0000
# 6 0.0000 0.0000 0.0000 0.0000 0.0000 9.7834
#
#
#
# Elastic Compliance Matrix: (Units=1/GPa)
#
#
# Indices 1 2 3 4 5 6 
#
# 1 0.013384 0.001422 -0.005655 0.000000 0.000000 0.000000
# 2 0.001422 0.039396 -0.007058 0.000000 0.000000 0.000000
# 3 -0.005655 -0.007058 0.009067 0.000000 0.000000 0.000000
# 4 0.000000 0.000000 0.000000 0.504141 0.000000 0.000000
# 5 0.000000 0.000000 0.000000 0.000000 0.031399 0.000000
# 6 0.000000 0.000000 0.000000 0.000000 0.000000 0.102214
#
#
# Mechanical properties :
#
#
# Convention : Reuss Voigt Hill
#
# Bulk Modulus (GPa) = 25.46824 59.31046 42.38935
# Shear Modulus (GPa) = 6.80018 22.19031 14.49524
#
# Velocity S-wave (km/s) = 1.89481 3.42284 2.76642
# Velocity P-wave (km/s) = 4.27007 6.85093 5.70827
#
# Compressibility (1/GPa) = 0.03926459
#
# Stress axis : x y z
#
# Youngs Moduli (GPa) = 74.71392 25.38304 110.29102
#
# Poissons Ratio (x) = -0.03609 0.62367
# Poissons Ratio (y) = -0.10622 0.77848
# Poissons Ratio (z) = 0.42249 0.17916
#
# Static dielectric constant tensor:
#      x y z
#    x 3.551540 0.000000 0.000000 
#    y 0.000000 2.559210 0.000000 
#    z 0.000000 0.000000 3.838900 
# 
# 
# High freq. dielectric constant tensor:
#      x y z
#    x 1.742230 0.000000 0.000000 
#    y 0.000000 1.642820 0.000000 
#    z 0.000000 0.000000 1.752320 
# 
# From -- ./inp_files/59113.got.cif
#   From: 2010.03.12/outbox.cif.g09.slc.cpg/sg65_30_cif.got.tgz:59113.got - 2010.04.10 20:52:16.
