data_PCOD8272897
_publ_section_title
;
Structure prediction by ZEFSAII (Michael W. Deem and Ramdas Pophale) SiO2 
 PCOD8272897
Probable space group: C M M M
;
_chemical_formula_sum "Si O2"
_cell_formula_units_Z 96
_cell_length_a 8.958179
_cell_length_b 29.199597
_cell_length_c 20.718211
_cell_angle_alpha 90.000000
_cell_angle_beta 90.000000
_cell_angle_gamma 90.000000
_cell_volume 5419.370531
_symmetry_space_group_name_H-M "C M M M"
_symmetry_group_IT_number 65
_symmetry_cell_setting 'orthorhombic'
loop_
_space_group_symop_operation_xyz
x,y,z
-x,-y,z
x,-y,-z
-x,y,-z
-x,-y,-z
x,y,-z
-x,y,z
x,-y,z
1/2+x,1/2+y,z
1/2-x,1/2-y,z
1/2+x,1/2-y,-z
1/2-x,1/2+y,-z
1/2-x,1/2-y,-z
1/2+x,1/2+y,-z
1/2-x,1/2+y,z
1/2+x,1/2-y,z
loop_
_atom_site_type_symbol
_atom_site_label
_atom_site_fract_x
_atom_site_fract_y
_atom_site_fract_z
Si Si1 0.176989 0.299468 0.184993
Si Si2 0.829969 0.050481 0.871002
Si Si3 0.323315 0.049740 0.737558
Si Si4 0.824149 0.297852 0.572266
Si Si5 0.327668 0.645339 0.072806
Si Si6 0.322615 0.144208 0.690714
O O1 0.250000 0.250000 0.185717
O O2 0.224140 0.326399 0.120888
O O3 0.235408 0.326793 0.248012
O O4 0.000000 0.294107 0.185180
O O5 0.723087 0.058571 0.810691
O O6 0.797190 0.090684 0.921972
O O7 0.000000 0.053376 0.846120
O O8 0.799844 0.000000 0.902089
O O9 0.500000 0.049789 0.735626
O O10 0.261804 0.091843 0.694355
O O11 0.262550 0.000000 0.712938
O O12 0.780122 0.314054 0.500000
O O13 0.750000 0.250000 0.589662
O O14 0.762752 0.334759 0.623603
O O15 0.000000 0.291235 0.578770
O O16 0.500000 0.656431 0.088567
O O17 0.287486 0.660078 0.000000
O O18 0.500000 0.144522 0.691595
#
# Coordination Sequence:
#
# PCOD8272897 Si02
#       6
#    16  16  16  16  16  16
#     4  11  22  36  53  72  95 123 160 205 246 289
#     4   9  17  30  49  73  99 124 154 195 241 287
#     4   9  16  28  48  71  96 126 158 193 235 284
#     4   9  17  30  48  70  99 131 161 195 236 283
#     4  10  21  36  52  71  97 128 161 197 241 293
#     4   9  17  30  49  74  99 125 159 196 238 281
#
# _framework density 17.714234999999999
#
# number of rings (size 3 to 8) (size 9 to 14) (size 15 to 20)
#    0.000    2.500    1.667    1.000    0.000    1.000 
#    0.000    3.333    0.000    0.500    0.000    7.000 
#    0.000    0.000    0.000    8.333    0.000    8.667 
#
# Total GULP energy -594922.830579 kJ/mol
# GULP energy per Si atom -12394.225637 kJ/mol
# Density = 1.767392 g / cm^3
# Si number density = 17.714235 Si / 1000 Ang^3
#
#
#
# Elastic Constant Matrix: (Units=GPa)
#
#
# Indices 1 2 3 4 5 6 
#
# 1 25.3331 31.3614 21.4184 0.0000 0.0000 0.0000
# 2 31.3614 145.0529 74.1402 0.0000 0.0000 0.0000
# 3 21.4184 74.1402 114.1631 0.0000 0.0000 0.0000
# 4 0.0000 0.0000 0.0000 29.9935 0.0000 0.0000
# 5 0.0000 0.0000 0.0000 0.0000 17.2442 0.0000
# 6 0.0000 0.0000 0.0000 0.0000 0.0000 15.0206
#
#
#
# Elastic Compliance Matrix: (Units=1/GPa)
#
#
# Indices 1 2 3 4 5 6 
#
# 1 0.055030 -0.009911 -0.003888 0.000000 0.000000 0.000000
# 2 -0.009911 0.012104 -0.006001 0.000000 0.000000 0.000000
# 3 -0.003888 -0.006001 0.013386 0.000000 0.000000 0.000000
# 4 0.000000 0.000000 0.000000 0.033341 0.000000 0.000000
# 5 0.000000 0.000000 0.000000 0.000000 0.057991 0.000000
# 6 0.000000 0.000000 0.000000 0.000000 0.000000 0.066575
#
#
# Mechanical properties :
#
#
# Convention : Reuss Voigt Hill
#
# Bulk Modulus (GPa) = 24.43766 59.82103 42.12934
# Shear Modulus (GPa) = 17.14279 22.96027 20.05153
#
# Velocity S-wave (km/s) = 3.11423 3.60411 3.36809
# Velocity P-wave (km/s) = 5.17268 7.15282 6.24177
#
# Compressibility (1/GPa) = 0.04092045
#
# Stress axis : x y z
#
# Youngs Moduli (GPa) = 18.17181 82.61564 74.70298
#
# Poissons Ratio (x) = 0.81877 0.29046
# Poissons Ratio (y) = 0.18009 0.44832
# Poissons Ratio (z) = 0.07066 0.49581
#
# Static dielectric constant tensor:
#      x y z
#    x 3.118060 0.000000 0.000000 
#    y 0.000000 3.801460 0.000000 
#    z 0.000000 0.000000 3.297240 
# 
# 
# High freq. dielectric constant tensor:
#      x y z
#    x 1.665460 0.000000 0.000000 
#    y 0.000000 1.698560 0.000000 
#    z 0.000000 0.000000 1.665610 
# 
# From -- ./inp_files/60154.got.cif
#   From: 2010.03.12/outbox.cif.g09.slc.cpg/sg65_31_cif.got.tgz:60154.got - 2010.04.10 20:52:16.
