data_PCOD8272623
_publ_section_title
;
Structure prediction by ZEFSAII (Michael W. Deem and Ramdas Pophale) SiO2 
 PCOD8272623
Probable space group: C M M M
;
_chemical_formula_sum "Si O2"
_cell_formula_units_Z 104
_cell_length_a 29.131155
_cell_length_b 7.795778
_cell_length_c 22.097972
_cell_angle_alpha 90.000000
_cell_angle_beta 90.000000
_cell_angle_gamma 90.000000
_cell_volume 5018.449823
_symmetry_space_group_name_H-M "C M M M"
_symmetry_group_IT_number 65
_symmetry_cell_setting 'orthorhombic'
loop_
_space_group_symop_operation_xyz
x,y,z
-x,-y,z
x,-y,-z
-x,y,-z
-x,-y,-z
x,y,-z
-x,y,z
x,-y,z
1/2+x,1/2+y,z
1/2-x,1/2-y,z
1/2+x,1/2-y,-z
1/2-x,1/2+y,-z
1/2-x,1/2-y,-z
1/2+x,1/2+y,-z
1/2-x,1/2+y,z
1/2+x,1/2-y,z
loop_
_atom_site_type_symbol
_atom_site_label
_atom_site_fract_x
_atom_site_fract_y
_atom_site_fract_z
Si Si1 0.446842 0.000000 0.571500
Si Si2 0.105692 0.202261 0.361661
Si Si3 0.449083 0.806405 0.887047
Si Si4 0.551427 0.695777 0.757388
Si Si5 0.300359 0.297786 0.174370
Si Si6 0.141758 0.805107 0.934527
Si Si7 0.199693 0.799347 0.691037
O O1 0.420409 0.173327 0.591877
O O2 0.500000 0.000000 0.594592
O O3 0.445953 0.000000 0.500000
O O4 0.085999 0.242205 0.295677
O O5 0.159777 0.254429 0.356603
O O6 0.098782 0.000000 0.379685
O O7 0.500000 0.727007 0.896219
O O8 0.436526 0.807669 0.815785
O O9 0.413023 0.698329 0.925483
O O10 0.447476 0.000000 0.910721
O O11 0.500000 0.732429 0.733571
O O12 0.557540 0.500000 0.777671
O O13 0.308529 0.500000 0.177444
O O14 0.250000 0.250000 0.151939
O O15 0.333693 0.214298 0.123127
O O16 0.308369 0.217503 0.241772
O O17 0.158392 0.000000 0.937319
O O18 0.153832 0.718939 0.000000
O O19 0.250000 0.750000 0.665112
O O20 0.197093 0.000000 0.699468
#
# Coordination Sequence:
#
# PCOD8272623 Si02
#       7
#     8  16  16  16  16  16  16
#     4  11  26  44  64  94 130 170 213 255 296 344
#     4  10  21  38  62  92 124 166 206 251 301 356
#     4  10  21  34  49  73 103 134 171 228 292 346
#     4   9  17  31  53  80 110 141 178 227 288 352
#     4   9  18  34  53  78 111 138 174 226 285 348
#     4  10  21  36  52  68  93 138 189 232 275 338
#     4   9  18  32  55  88 120 153 191 242 307 366
#
# _framework density 20.723531999999999
#
# number of rings (size 3 to 8) (size 9 to 14) (size 15 to 20)
#    0.000    2.385    0.000    1.846    2.154    6.154 
#    0.000    2.308    0.000    0.462    0.000    0.000 
#    0.000    0.000    0.000    0.000    0.000    0.000 
#
# Total GULP energy -644364.547569 kJ/mol
# GULP energy per Si atom -12391.625915 kJ/mol
# Density = 2.067636 g / cm^3
# Si number density = 20.723532 Si / 1000 Ang^3
#
#
#
# Elastic Constant Matrix: (Units=GPa)
#
#
# Indices 1 2 3 4 5 6 
#
# 1 136.5599 29.0666 53.1928 0.0000 0.0000 0.0000
# 2 29.0666 48.3455 24.5590 0.0000 0.0000 0.0000
# 3 53.1928 24.5590 66.1630 0.0000 0.0000 0.0000
# 4 0.0000 0.0000 0.0000 16.1261 0.0000 0.0000
# 5 0.0000 0.0000 0.0000 0.0000 28.7614 0.0000
# 6 0.0000 0.0000 0.0000 0.0000 0.0000 27.3963
#
#
#
# Elastic Compliance Matrix: (Units=1/GPa)
#
#
# Indices 1 2 3 4 5 6 
#
# 1 0.010919 -0.002595 -0.007816 0.000000 0.000000 0.000000
# 2 -0.002595 0.026108 -0.007605 0.000000 0.000000 0.000000
# 3 -0.007816 -0.007605 0.024221 0.000000 0.000000 0.000000
# 4 0.000000 0.000000 0.000000 0.062011 0.000000 0.000000
# 5 0.000000 0.000000 0.000000 0.000000 0.034769 0.000000
# 6 0.000000 0.000000 0.000000 0.000000 0.000000 0.036501
#
#
# Mechanical properties :
#
#
# Convention : Reuss Voigt Hill
#
# Bulk Modulus (GPa) = 39.65559 51.63392 45.64475
# Shear Modulus (GPa) = 20.92352 24.07341 22.49847
#
# Velocity S-wave (km/s) = 3.18095 3.41199 3.29849
# Velocity P-wave (km/s) = 5.71562 6.36333 6.04815
#
# Compressibility (1/GPa) = 0.02521713
#
# Stress axis : x y z
#
# Youngs Moduli (GPa) = 91.57949 38.30296 41.28716
#
# Poissons Ratio (x) = 0.09939 0.32269
# Poissons Ratio (y) = 0.23763 0.31398
# Poissons Ratio (z) = 0.71576 0.29129
#
# Static dielectric constant tensor:
#      x y z
#    x 3.774290 0.000000 0.000000 
#    y 0.000000 3.531260 0.000000 
#    z 0.000000 0.000000 3.589190 
# 
# 
# High freq. dielectric constant tensor:
#      x y z
#    x 1.820550 0.000000 0.000000 
#    y 0.000000 1.792310 0.000000 
#    z 0.000000 0.000000 1.776890 
# 
# From -- ./inp_files/71793.got.cif
#   From: 2010.03.12/outbox.cif.g09.slc.cpg/sg65_36_cif.got.tgz:71793.got - 2010.04.10 20:52:16.
