data_PCOD8272490
_publ_section_title
;
Structure prediction by ZEFSAII (Michael W. Deem and Ramdas Pophale) SiO2 
 PCOD8272490
Probable space group: C M M M
;
_chemical_formula_sum "Si O2"
_cell_formula_units_Z 80
_cell_length_a 14.334421
_cell_length_b 22.622803
_cell_length_c 11.758254
_cell_angle_alpha 90.000000
_cell_angle_beta 90.000000
_cell_angle_gamma 90.000000
_cell_volume 3813.022840
_symmetry_space_group_name_H-M "C M M M"
_symmetry_group_IT_number 65
_symmetry_cell_setting 'orthorhombic'
loop_
_space_group_symop_operation_xyz
x,y,z
-x,-y,z
x,-y,-z
-x,y,-z
-x,-y,-z
x,y,-z
-x,y,z
x,-y,z
1/2+x,1/2+y,z
1/2-x,1/2-y,z
1/2+x,1/2-y,-z
1/2-x,1/2+y,-z
1/2-x,1/2-y,-z
1/2+x,1/2+y,-z
1/2-x,1/2+y,z
1/2+x,1/2-y,z
loop_
_atom_site_type_symbol
_atom_site_label
_atom_site_fract_x
_atom_site_fract_y
_atom_site_fract_z
Si Si1 0.607713 0.069546 0.236988
Si Si2 0.396618 0.500000 0.366951
Si Si3 0.140556 0.750481 0.000000
Si Si4 0.610575 0.566542 0.000000
Si Si5 0.394941 0.657824 0.186692
Si Si6 0.276088 0.613104 0.367236
Si Si7 0.604043 0.885465 0.000000
O O1 0.500000 0.090259 0.250589
O O2 0.668476 0.102004 0.333934
O O3 0.650922 0.088700 0.114421
O O4 0.616511 0.000000 0.253645
O O5 0.500000 0.500000 0.308234
O O6 0.410857 0.500000 0.500000
O O7 0.338431 0.556989 0.330696
O O8 0.250000 0.750000 0.000000
O O9 0.103784 0.782554 0.887117
O O10 0.101737 0.684818 0.000000
O O11 0.643264 0.602979 0.889257
O O12 0.652872 0.500000 0.000000
O O13 0.500000 0.564348 0.000000
O O14 0.500000 0.646495 0.231386
O O15 0.324098 0.665564 0.293692
O O16 0.281059 0.628657 0.500000
O O17 0.500000 0.911277 0.000000
#
# Coordination Sequence:
#
# PCOD8272490 Si02
#       7
#    16   8   8   8  16  16   8
#     4  10  21  38  60  89 122 154 193 245 305 365
#     4   9  18  32  49  72 107 148 191 236 275 323
#     4  11  21  38  61  88 118 150 195 246 304 363
#     4   8  16  30  48  75 110 148 188 230 286 348
#     4  10  21  36  56  83 117 155 195 245 296 350
#     4  11  22  36  54  83 117 157 205 240 284 348
#     4  10  20  37  64  89 111 144 187 242 304 367
#
# _framework density 20.980729
#
# number of rings (size 3 to 8) (size 9 to 14) (size 15 to 20)
#    0.000    2.000    1.000    3.600    1.400    3.600 
#    0.000    1.000    0.000    5.400    0.000    5.600 
#    0.000    0.000    0.000    0.000    0.000    0.000 
#
# Total GULP energy -495919.754282 kJ/mol
# GULP energy per Si atom -12397.993857 kJ/mol
# Density = 2.093298 g / cm^3
# Si number density = 20.980729 Si / 1000 Ang^3
#
#
#
# Elastic Constant Matrix: (Units=GPa)
#
#
# Indices 1 2 3 4 5 6 
#
# 1 114.7296 10.2035 48.9981 0.0000 0.0000 0.0000
# 2 10.2035 39.3208 19.1807 0.0000 0.0000 0.0000
# 3 48.9981 19.1807 142.9443 0.0000 0.0000 0.0000
# 4 0.0000 0.0000 0.0000 14.5396 0.0000 0.0000
# 5 0.0000 0.0000 0.0000 0.0000 33.4189 0.0000
# 6 0.0000 0.0000 0.0000 0.0000 0.0000 89.5988
#
#
#
# Elastic Compliance Matrix: (Units=1/GPa)
#
#
# Indices 1 2 3 4 5 6 
#
# 1 0.010248 -0.001012 -0.003377 0.000000 0.000000 0.000000
# 2 -0.001012 0.027313 -0.003318 0.000000 0.000000 0.000000
# 3 -0.003377 -0.003318 0.008599 0.000000 0.000000 0.000000
# 4 0.000000 0.000000 0.000000 0.068778 0.000000 0.000000
# 5 0.000000 0.000000 0.000000 0.000000 0.029923 0.000000
# 6 0.000000 0.000000 0.000000 0.000000 0.000000 0.011161
#
#
# Mechanical properties :
#
#
# Convention : Reuss Voigt Hill
#
# Bulk Modulus (GPa) = 32.52503 50.41771 41.47137
# Shear Modulus (GPa) = 27.52019 42.08561 34.80290
#
# Velocity S-wave (km/s) = 3.62565 4.48361 4.07726
# Velocity P-wave (km/s) = 5.75006 7.13346 6.47879
#
# Compressibility (1/GPa) = 0.03074556
#
# Stress axis : x y z
#
# Youngs Moduli (GPa) = 97.57579 36.61267 116.29851
#
# Poissons Ratio (x) = 0.03705 0.39276
# Poissons Ratio (y) = 0.09875 0.38588
# Poissons Ratio (z) = 0.32953 0.12148
#
# Static dielectric constant tensor:
#      x y z
#    x 3.846550 0.000000 0.000000 
#    y 0.000000 23.057080 0.000000 
#    z 0.000000 0.000000 3.717050 
# 
# 
# High freq. dielectric constant tensor:
#      x y z
#    x 1.832940 0.000000 0.000000 
#    y 0.000000 1.791980 0.000000 
#    z 0.000000 0.000000 1.813070 
# 
# From -- ./inp_files/24725.got.cif
#   From: 2010.03.12/outbox.cif.g09.slc.cpg/sg65_13_cif.got.tgz:24725.got - 2010.04.10 20:52:16.
