data_PCOD8272494
_publ_section_title
;
Structure prediction by ZEFSAII (Michael W. Deem and Ramdas Pophale) SiO2 
 PCOD8272494
Probable space group: C M M M
;
_chemical_formula_sum "Si O2"
_cell_formula_units_Z 72
_cell_length_a 17.158258
_cell_length_b 17.619843
_cell_length_c 12.149009
_cell_angle_alpha 90.000000
_cell_angle_beta 90.000000
_cell_angle_gamma 90.000000
_cell_volume 3672.959012
_symmetry_space_group_name_H-M "C M M M"
_symmetry_group_IT_number 65
_symmetry_cell_setting 'orthorhombic'
loop_
_space_group_symop_operation_xyz
x,y,z
-x,-y,z
x,-y,-z
-x,y,-z
-x,-y,-z
x,y,-z
-x,y,z
x,-y,z
1/2+x,1/2+y,z
1/2-x,1/2-y,z
1/2+x,1/2-y,-z
1/2-x,1/2+y,-z
1/2-x,1/2-y,-z
1/2+x,1/2+y,-z
1/2-x,1/2+y,z
1/2+x,1/2-y,z
loop_
_atom_site_type_symbol
_atom_site_label
_atom_site_fract_x
_atom_site_fract_y
_atom_site_fract_z
Si Si1 0.410954 0.913677 0.870526
Si Si2 0.837019 0.715765 0.735465
Si Si3 0.831262 0.087689 0.500000
Si Si4 0.190699 0.318854 0.500000
Si Si5 0.092671 0.000000 0.877027
Si Si6 0.910239 0.133254 0.722367
O O1 0.500000 0.896142 0.834353
O O2 0.350364 0.855851 0.814459
O O3 0.389098 0.000000 0.836722
O O4 0.402302 0.903315 0.000000
O O5 0.750000 0.750000 0.745989
O O6 0.858954 0.687051 0.611929
O O7 0.896806 0.782422 0.769313
O O8 0.738613 0.101812 0.500000
O O9 0.865551 0.127132 0.607678
O O10 0.852674 0.000000 0.500000
O O11 0.250000 0.250000 0.500000
O O12 0.122888 0.926158 0.811648
O O13 0.000000 0.000000 0.885492
O O14 0.128903 0.000000 0.000000
O O15 0.000000 0.116373 0.699919
#
# Coordination Sequence:
#
# PCOD8272494 Si02
#       6
#    16  16   8   8   8  16
#     4   9  20  41  66  89 115 152 200 250 295 342
#     4  11  21  38  61  84 123 153 193 238 294 356
#     4  12  21  35  58  82 112 150 199 238 276 341
#     4  10  20  38  54  78 119 155 181 229 293 349
#     4   9  20  37  53  77 117 152 182 229 286 341
#     4  11  21  34  57  86 112 152 197 239 286 341
#
# _framework density 19.602723000000001
#
# number of rings (size 3 to 8) (size 9 to 14) (size 15 to 20)
#    0.000    1.667    5.556    1.667    0.000    2.667 
#    2.000    3.889    0.000    1.333    0.000    0.000 
#    0.000    0.000    0.000    0.000    0.000    0.000 
#
# Total GULP energy -446325.265399 kJ/mol
# GULP energy per Si atom -12397.924039 kJ/mol
# Density = 1.955811 g / cm^3
# Si number density = 19.602723 Si / 1000 Ang^3
#
#
#
# Elastic Constant Matrix: (Units=GPa)
#
#
# Indices 1 2 3 4 5 6 
#
# 1 48.0084 38.4330 30.4230 0.0000 0.0000 0.0000
# 2 38.4330 139.4141 65.1290 0.0000 0.0000 0.0000
# 3 30.4230 65.1290 121.0105 0.0000 0.0000 0.0000
# 4 0.0000 0.0000 0.0000 30.7287 0.0000 0.0000
# 5 0.0000 0.0000 0.0000 0.0000 -7.5594 0.0000
# 6 0.0000 0.0000 0.0000 0.0000 0.0000 34.7178
#
#
#
# Elastic Compliance Matrix: (Units=1/GPa)
#
#
# Indices 1 2 3 4 5 6 
#
# 1 0.028014 -0.005921 -0.003856 0.000000 0.000000 0.000000
# 2 -0.005921 0.010834 -0.004342 0.000000 0.000000 0.000000
# 3 -0.003856 -0.004342 0.011570 0.000000 0.000000 0.000000
# 4 0.000000 0.000000 0.000000 0.032543 0.000000 0.000000
# 5 0.000000 0.000000 0.000000 0.000000 -0.132285 0.000000
# 6 0.000000 0.000000 0.000000 0.000000 0.000000 0.028804
#
#
# Mechanical properties :
#
#
# Convention : Reuss Voigt Hill
#
# Bulk Modulus (GPa) = 45.08845 64.04479 54.56662
# Shear Modulus (GPa) = 330.89036 23.20725 177.04880
#
# Velocity S-wave (km/s) = 13.00633 3.44449 9.51391
# Velocity P-wave (km/s) = 15.76718 6.96862 12.18945
#
# Compressibility (1/GPa) = 0.02217863
#
# Stress axis : x y z
#
# Youngs Moduli (GPa) = 35.69707 92.30441 86.42934
#
# Poissons Ratio (x) = 0.54656 0.33327
# Poissons Ratio (y) = 0.21137 0.37529
# Poissons Ratio (z) = 0.13765 0.40080
#
# Static dielectric constant tensor:
#      x y z
#    x 3.385990 0.000000 0.000000 
#    y 0.000000 3.788680 0.000000 
#    z 0.000000 0.000000 3.764410 
# 
# 
# High freq. dielectric constant tensor:
#      x y z
#    x 1.734200 0.000000 0.000000 
#    y 0.000000 1.775690 0.000000 
#    z 0.000000 0.000000 1.763890 
# 
# From -- ./inp_files/26387.got.cif
#   From: 2010.03.12/outbox.cif.g09.slc.cpg/sg65_14_cif.got.tgz:26387.got - 2010.04.10 20:52:16.
