data_PCOD8272666
_publ_section_title
;
Structure prediction by ZEFSAII (Michael W. Deem and Ramdas Pophale) SiO2 
 PCOD8272666
Probable space group: C M M M
;
_chemical_formula_sum "Si O2"
_cell_formula_units_Z 64
_cell_length_a 18.008960
_cell_length_b 9.713823
_cell_length_c 20.657143
_cell_angle_alpha 90.000000
_cell_angle_beta 90.000000
_cell_angle_gamma 90.000000
_cell_volume 3613.674866
_symmetry_space_group_name_H-M "C M M M"
_symmetry_group_IT_number 65
_symmetry_cell_setting 'orthorhombic'
loop_
_space_group_symop_operation_xyz
x,y,z
-x,-y,z
x,-y,-z
-x,y,-z
-x,-y,-z
x,y,-z
-x,y,z
x,-y,z
1/2+x,1/2+y,z
1/2-x,1/2-y,z
1/2+x,1/2-y,-z
1/2-x,1/2+y,-z
1/2-x,1/2-y,-z
1/2+x,1/2+y,-z
1/2-x,1/2+y,z
1/2+x,1/2-y,z
loop_
_atom_site_type_symbol
_atom_site_label
_atom_site_fract_x
_atom_site_fract_y
_atom_site_fract_z
Si Si1 0.911828 0.154324 0.241591
Si Si2 0.413983 0.158870 0.873177
Si Si3 0.588714 0.844025 0.500000
Si Si4 0.823195 0.660760 0.000000
Si Si5 0.588369 0.345239 0.614860
O O1 0.879774 0.256407 0.187141
O O2 0.883166 0.196768 0.313277
O O3 0.000000 0.162555 0.241455
O O4 0.885212 0.000000 0.225004
O O5 0.500000 0.194462 0.885092
O O6 0.370854 0.201307 0.937521
O O7 0.403040 0.000000 0.855948
O O8 0.500000 0.844494 0.500000
O O9 0.619808 0.764368 0.436792
O O10 0.619482 0.000000 0.500000
O O11 0.750000 0.750000 0.000000
O O12 0.802567 0.500000 0.000000
O O13 0.500000 0.343410 0.613313
O O14 0.615655 0.500000 0.597483
#
# Coordination Sequence:
#
# PCOD8272666 Si02
#       5
#    16  16   8   8  16
#     4   8  14  24  38  57  79 103 136 177 216 255
#     4   9  17  30  48  67  87 113 145 181 220 262
#     4   9  15  19  25  41  65  95 134 175 208 243
#     4  10  21  35  49  67  91 118 146 176 216 264
#     4   8  13  21  31  43  65  99 134 167 206 251
#
# _framework density 17.710502999999999
#
# number of rings (size 3 to 8) (size 9 to 14) (size 15 to 20)
#    0.000    3.375    0.000    2.250    0.000    5.000 
#    0.000    5.000    0.000    3.750    0.000    0.000 
#    0.000    0.000    0.000    1.125    0.000   16.000 
#
# Total GULP energy -396604.907072 kJ/mol
# GULP energy per Si atom -12393.903346 kJ/mol
# Density = 1.767019 g / cm^3
# Si number density = 17.710503 Si / 1000 Ang^3
#
#
#
# Elastic Constant Matrix: (Units=GPa)
#
#
# Indices 1 2 3 4 5 6 
#
# 1 26.0545 27.5636 31.1674 0.0000 0.0000 0.0000
# 2 27.5636 121.2800 111.4241 0.0000 0.0000 0.0000
# 3 31.1674 111.4241 191.1328 0.0000 0.0000 0.0000
# 4 0.0000 0.0000 0.0000 40.5295 0.0000 0.0000
# 5 0.0000 0.0000 0.0000 0.0000 -0.3893 0.0000
# 6 0.0000 0.0000 0.0000 0.0000 0.0000 14.1011
#
#
#
# Elastic Compliance Matrix: (Units=1/GPa)
#
#
# Indices 1 2 3 4 5 6 
#
# 1 0.051532 -0.008595 -0.003393 0.000000 0.000000 0.000000
# 2 -0.008595 0.019188 -0.009785 0.000000 0.000000 0.000000
# 3 -0.003393 -0.009785 0.011489 0.000000 0.000000 0.000000
# 4 0.000000 0.000000 0.000000 0.024673 0.000000 0.000000
# 5 0.000000 0.000000 0.000000 0.000000 -2.568945 0.000000
# 6 0.000000 0.000000 0.000000 0.000000 0.000000 0.070916
#
#
# Mechanical properties :
#
#
# Convention : Reuss Voigt Hill
#
# Bulk Modulus (GPa) = 25.86289 75.41971 50.64130
# Shear Modulus (GPa) = -2.14159 22.06909 9.96375
#
# Velocity S-wave (km/s) = -1.10084 3.53385 2.37447
# Velocity P-wave (km/s) = 3.60819 7.70246 6.01444
#
# Compressibility (1/GPa) = 0.03866545
#
# Stress axis : x y z
#
# Youngs Moduli (GPa) = 19.40536 52.11553 87.03798
#
# Poissons Ratio (x) = 0.44793 0.29529
# Poissons Ratio (y) = 0.16679 0.85162
# Poissons Ratio (z) = 0.06584 0.50992
#
# Static dielectric constant tensor:
#      x y z
#    x 2.589090 0.000000 0.000000 
#    y 0.000000 3.441560 0.000000 
#    z 0.000000 0.000000 3.738900 
# 
# 
# High freq. dielectric constant tensor:
#      x y z
#    x 1.607390 0.000000 0.000000 
#    y 0.000000 1.686010 0.000000 
#    z 0.000000 0.000000 1.703290 
# 
# From -- ./inp_files/64240.got.cif
#   From: 2010.03.12/outbox.cif.g09.slc.cpg/sg65_33_cif.got.tgz:64240.got - 2010.04.10 20:52:16.
