data_PCOD8272436
_publ_section_title
;
Structure prediction by ZEFSAII (Michael W. Deem and Ramdas Pophale) SiO2 
 PCOD8272436
Probable space group: C M M M
;
_chemical_formula_sum "Si O2"
_cell_formula_units_Z 80
_cell_length_a 8.848121
_cell_length_b 23.855169
_cell_length_c 20.037623
_cell_angle_alpha 90.000000
_cell_angle_beta 90.000000
_cell_angle_gamma 90.000000
_cell_volume 4229.409651
_symmetry_space_group_name_H-M "C M M M"
_symmetry_group_IT_number 65
_symmetry_cell_setting 'orthorhombic'
loop_
_space_group_symop_operation_xyz
x,y,z
-x,-y,z
x,-y,-z
-x,y,-z
-x,-y,-z
x,y,-z
-x,y,z
x,-y,z
1/2+x,1/2+y,z
1/2-x,1/2-y,z
1/2+x,1/2-y,-z
1/2-x,1/2+y,-z
1/2-x,1/2-y,-z
1/2+x,1/2+y,-z
1/2-x,1/2+y,z
1/2+x,1/2-y,z
loop_
_atom_site_type_symbol
_atom_site_label
_atom_site_fract_x
_atom_site_fract_y
_atom_site_fract_z
Si Si1 0.177247 0.381196 0.315718
Si Si2 0.678233 0.189617 0.185270
Si Si3 0.173162 0.886306 0.924085
Si Si4 0.819703 0.500000 0.116563
Si Si5 0.322807 0.307562 0.576258
Si Si6 0.678925 0.000000 0.267227
O O1 0.220115 0.346644 0.249960
O O2 0.264530 0.358753 0.379860
O O3 0.234510 0.444847 0.306004
O O4 0.000000 0.378113 0.330185
O O5 0.500000 0.195142 0.175676
O O6 0.750000 0.250000 0.195234
O O7 0.746054 0.160252 0.120455
O O8 0.000000 0.893524 0.900991
O O9 0.257747 0.945401 0.919961
O O10 0.182166 0.864894 0.000000
O O11 0.757704 0.500000 0.192210
O O12 0.000000 0.500000 0.112906
O O13 0.274866 0.319265 0.500000
O O14 0.500000 0.301386 0.584339
O O15 0.250000 0.250000 0.602562
O O16 0.500000 0.000000 0.261757
#
# Coordination Sequence:
#
# PCOD8272436 Si02
#       6
#    16  16  16   8  16   8
#     4  10  20  37  61  87 116 149 189 236 282 336
#     4  11  23  39  60  85 114 150 192 240 293 350
#     4  11  24  40  58  84 117 151 192 241 290 346
#     4  11  20  38  63  87 115 149 191 239 290 344
#     4  10  21  37  58  86 119 154 193 235 280 333
#     4   9  18  36  59  86 116 146 185 233 280 333
#
# _framework density 18.91517
#
# number of rings (size 3 to 8) (size 9 to 14) (size 15 to 20)
#    0.000    1.600    2.000    3.000    0.000    7.600 
#    0.000    1.000    0.000    3.000    0.000    0.000 
#    0.000    0.000    0.000    0.000    0.000    0.000 
#
# Total GULP energy -496186.742660 kJ/mol
# GULP energy per Si atom -12404.668567 kJ/mol
# Density = 1.887212 g / cm^3
# Si number density = 18.915170 Si / 1000 Ang^3
#
#
#
# Elastic Constant Matrix: (Units=GPa)
#
#
# Indices 1 2 3 4 5 6 
#
# 1 86.2336 54.2960 48.0770 0.0000 0.0000 0.0000
# 2 54.2960 156.4626 63.0365 0.0000 0.0000 0.0000
# 3 48.0770 63.0365 106.6304 0.0000 0.0000 0.0000
# 4 0.0000 0.0000 0.0000 35.4432 0.0000 0.0000
# 5 0.0000 0.0000 0.0000 0.0000 32.5697 0.0000
# 6 0.0000 0.0000 0.0000 0.0000 0.0000 24.7997
#
#
#
# Elastic Compliance Matrix: (Units=1/GPa)
#
#
# Indices 1 2 3 4 5 6 
#
# 1 0.016966 -0.003683 -0.005472 0.000000 0.000000 0.000000
# 2 -0.003683 0.009189 -0.003772 0.000000 0.000000 0.000000
# 3 -0.005472 -0.003772 0.014075 0.000000 0.000000 0.000000
# 4 0.000000 0.000000 0.000000 0.028214 0.000000 0.000000
# 5 0.000000 0.000000 0.000000 0.000000 0.030703 0.000000
# 6 0.000000 0.000000 0.000000 0.000000 0.000000 0.040323
#
#
# Mechanical properties :
#
#
# Convention : Reuss Voigt Hill
#
# Bulk Modulus (GPa) = 69.55832 75.57173 72.56502
# Shear Modulus (GPa) = 29.39150 30.82367 30.10759
#
# Velocity S-wave (km/s) = 3.94618 4.04118 3.99396
# Velocity P-wave (km/s) = 7.59057 7.86222 7.72759
#
# Compressibility (1/GPa) = 0.01437642
#
# Stress axis : x y z
#
# Youngs Moduli (GPa) = 58.94027 108.82693 71.04661
#
# Poissons Ratio (x) = 0.40080 0.38880
# Poissons Ratio (y) = 0.21707 0.26796
# Poissons Ratio (z) = 0.32255 0.41046
#
# Static dielectric constant tensor:
#      x y z
#    x 3.464080 0.000000 0.000000 
#    y 0.000000 3.565830 0.000000 
#    z 0.000000 0.000000 3.498260 
# 
# 
# High freq. dielectric constant tensor:
#      x y z
#    x 1.736730 0.000000 0.000000 
#    y 0.000000 1.740110 0.000000 
#    z 0.000000 0.000000 1.737860 
# 
# From -- ./inp_files/59684.got.cif
#   From: 2010.03.12/outbox.cif.g09.slc.cpg/sg65_30_cif.got.tgz:59684.got - 2010.04.10 20:52:16.
