data_PCOD8272474
_publ_section_title
;
Structure prediction by ZEFSAII (Michael W. Deem and Ramdas Pophale) SiO2 
 PCOD8272474
Probable space group: C M M M
;
_chemical_formula_sum "Si O2"
_cell_formula_units_Z 80
_cell_length_a 17.954187
_cell_length_b 7.792787
_cell_length_c 27.503663
_cell_angle_alpha 90.000000
_cell_angle_beta 90.000000
_cell_angle_gamma 90.000000
_cell_volume 3848.124266
_symmetry_space_group_name_H-M "C M M M"
_symmetry_group_IT_number 65
_symmetry_cell_setting 'orthorhombic'
loop_
_space_group_symop_operation_xyz
x,y,z
-x,-y,z
x,-y,-z
-x,y,-z
-x,-y,-z
x,y,-z
-x,y,z
x,-y,z
1/2+x,1/2+y,z
1/2-x,1/2-y,z
1/2+x,1/2-y,-z
1/2-x,1/2+y,-z
1/2-x,1/2-y,-z
1/2+x,1/2+y,-z
1/2-x,1/2+y,z
1/2+x,1/2-y,z
loop_
_atom_site_type_symbol
_atom_site_label
_atom_site_fract_x
_atom_site_fract_y
_atom_site_fract_z
Si Si1 0.916267 0.201063 0.000000
Si Si2 0.585617 0.000000 0.557398
Si Si3 0.335064 0.695309 0.387833
Si Si4 0.916790 0.699775 0.102406
Si Si5 0.334851 0.798475 0.195549
Si Si6 0.086343 0.702247 0.292436
O O1 0.877445 0.265951 0.950112
O O2 0.000000 0.277354 0.000000
O O3 0.915317 0.000000 0.000000
O O4 0.623050 0.173835 0.576589
O O5 0.500000 0.000000 0.574742
O O6 0.593344 0.000000 0.500000
O O7 0.341381 0.500000 0.408065
O O8 0.250000 0.750000 0.383692
O O9 0.370965 0.698719 0.334674
O O10 0.922992 0.500000 0.111914
O O11 0.867730 0.783450 0.145656
O O12 0.000000 0.782269 0.103192
O O13 0.250000 0.750000 0.202082
O O14 0.381347 0.729057 0.241397
O O15 0.343793 0.000000 0.193205
O O16 0.099592 0.500000 0.299451
O O17 0.000000 0.750147 0.294442
#
# Coordination Sequence:
#
# PCOD8272474 Si02
#       6
#     8   8  16  16  16  16
#     4   9  17  29  48  75 102 131 167 223 290 347
#     4  11  26  48  72 102 141 181 225 280 335 387
#     4  12  24  43  69 102 136 179 225 274 330 395
#     4   9  17  32  53  75 100 134 183 230 280 347
#     4  10  21  35  53  79 111 151 191 238 294 357
#     4  10  20  37  62  90 125 164 205 256 315 376
#
# _framework density 20.789349999999999
#
# number of rings (size 3 to 8) (size 9 to 14) (size 15 to 20)
#    0.000    1.800    2.000    2.100    0.000    9.200 
#    0.000    1.500    0.000    3.600    0.000    0.000 
#    0.000    0.000    0.000    0.000    0.000    0.000 
#
# Total GULP energy -495938.280471 kJ/mol
# GULP energy per Si atom -12398.457012 kJ/mol
# Density = 2.074203 g / cm^3
# Si number density = 20.789350 Si / 1000 Ang^3
#
#
#
# Elastic Constant Matrix: (Units=GPa)
#
#
# Indices 1 2 3 4 5 6 
#
# 1 144.9153 40.4335 68.8566 0.0000 0.0000 0.0000
# 2 40.4335 87.9084 39.0958 0.0000 0.0000 0.0000
# 3 68.8566 39.0958 136.6118 0.0000 0.0000 0.0000
# 4 0.0000 0.0000 0.0000 5.9286 0.0000 0.0000
# 5 0.0000 0.0000 0.0000 0.0000 -21.7871 0.0000
# 6 0.0000 0.0000 0.0000 0.0000 0.0000 26.9869
#
#
#
# Elastic Compliance Matrix: (Units=1/GPa)
#
#
# Indices 1 2 3 4 5 6 
#
# 1 0.009559 -0.002583 -0.004079 0.000000 0.000000 0.000000
# 2 -0.002583 0.013732 -0.002628 0.000000 0.000000 0.000000
# 3 -0.004079 -0.002628 0.010128 0.000000 0.000000 0.000000
# 4 0.000000 0.000000 0.000000 0.168673 0.000000 0.000000
# 5 0.000000 0.000000 0.000000 0.000000 -0.045899 0.000000
# 6 0.000000 0.000000 0.000000 0.000000 0.000000 0.037055
#
#
# Mechanical properties :
#
#
# Convention : Reuss Voigt Hill
#
# Bulk Modulus (GPa) = 67.38632 74.02304 70.70468
# Shear Modulus (GPa) = 23.06534 16.96234 20.01384
#
# Velocity S-wave (km/s) = 3.33450 2.85952 3.10610
# Velocity P-wave (km/s) = 6.87818 6.82539 6.85184
#
# Compressibility (1/GPa) = 0.01483981
#
# Stress axis : x y z
#
# Youngs Moduli (GPa) = 104.60918 72.82142 98.73492
#
# Poissons Ratio (x) = 0.18808 0.40275
# Poissons Ratio (y) = 0.27018 0.25949
# Poissons Ratio (z) = 0.42671 0.19138
#
# Static dielectric constant tensor:
#      x y z
#    x 3.747550 0.000000 0.000000 
#    y 0.000000 3.632950 0.000000 
#    z 0.000000 0.000000 4.096990 
# 
# 
# High freq. dielectric constant tensor:
#      x y z
#    x 1.802760 0.000000 0.000000 
#    y 0.000000 1.803420 0.000000 
#    z 0.000000 0.000000 1.827820 
# 
# From -- ./inp_files/75050.got.cif
#   From: 2010.03.12/outbox.cif.g09.slc.cpg/sg65_38_cif.got.tgz:75050.got - 2010.04.10 20:52:16.
