data_PCOD8272497
_publ_section_title
;
Structure prediction by ZEFSAII (Michael W. Deem and Ramdas Pophale) SiO2 
 PCOD8272497
Probable space group: C M M M
;
_chemical_formula_sum "Si O2"
_cell_formula_units_Z 64
_cell_length_a 12.645756
_cell_length_b 32.689231
_cell_length_c 8.613006
_cell_angle_alpha 90.000000
_cell_angle_beta 90.000000
_cell_angle_gamma 90.000000
_cell_volume 3560.444757
_symmetry_space_group_name_H-M "C M M M"
_symmetry_group_IT_number 65
_symmetry_cell_setting 'orthorhombic'
loop_
_space_group_symop_operation_xyz
x,y,z
-x,-y,z
x,-y,-z
-x,y,-z
-x,-y,-z
x,y,-z
-x,y,z
x,-y,z
1/2+x,1/2+y,z
1/2-x,1/2-y,z
1/2+x,1/2-y,-z
1/2-x,1/2+y,-z
1/2-x,1/2-y,-z
1/2+x,1/2+y,-z
1/2-x,1/2+y,z
1/2+x,1/2-y,z
loop_
_atom_site_type_symbol
_atom_site_label
_atom_site_fract_x
_atom_site_fract_y
_atom_site_fract_z
Si Si1 0.309135 0.625786 0.820592
Si Si2 0.500000 0.237773 0.182232
Si Si3 0.376823 0.546012 0.319883
Si Si4 0.117056 0.669623 0.675663
Si Si5 0.000000 0.173995 0.679766
O O1 0.309326 0.577486 0.782818
O O2 0.194136 0.643248 0.781970
O O3 0.396469 0.647873 0.716386
O O4 0.335149 0.633133 0.000000
O O5 0.395283 0.215807 0.255039
O O6 0.500000 0.285329 0.218654
O O7 0.500000 0.230969 0.000000
O O8 0.353636 0.554312 0.500000
O O9 0.500000 0.552434 0.283783
O O10 0.342474 0.500000 0.274654
O O11 0.160821 0.672194 0.500000
O O12 0.000000 0.648785 0.679312
O O13 0.000000 0.185983 0.500000
#
# Coordination Sequence:
#
# PCOD8272497 Si02
#       5
#    16   8  16  16   8
#     4  12  23  35  56  86 116 145 183 232 282 324
#     4  10  20  38  58  83 112 139 184 238 284 321
#     4   9  18  34  56  81 112 149 184 219 269 334
#     4   9  20  39  60  80 106 148 192 225 271 333
#     4  12  24  38  55  79 114 151 189 227 274 336
#
# _framework density 17.975282
#
# number of rings (size 3 to 8) (size 9 to 14) (size 15 to 20)
#    0.750    1.000    1.250    5.625    0.000    1.500 
#    0.000    6.250    0.000    0.750    0.000    5.250 
#    0.000    0.000    0.000    0.000    0.000    0.000 
#
# Total GULP energy -396747.945299 kJ/mol
# GULP energy per Si atom -12398.373291 kJ/mol
# Density = 1.793437 g / cm^3
# Si number density = 17.975282 Si / 1000 Ang^3
#
#
#
# Elastic Constant Matrix: (Units=GPa)
#
#
# Indices 1 2 3 4 5 6 
#
# 1 64.9640 34.6730 16.6787 0.0000 0.0000 0.0000
# 2 34.6730 113.4360 26.0257 0.0000 0.0000 0.0000
# 3 16.6787 26.0257 89.6803 0.0000 0.0000 0.0000
# 4 0.0000 0.0000 0.0000 29.6999 0.0000 0.0000
# 5 0.0000 0.0000 0.0000 0.0000 19.3571 0.0000
# 6 0.0000 0.0000 0.0000 0.0000 0.0000 -3.7680
#
#
#
# Elastic Compliance Matrix: (Units=1/GPa)
#
#
# Indices 1 2 3 4 5 6 
#
# 1 0.018707 -0.005271 -0.001949 0.000000 0.000000 0.000000
# 2 -0.005271 0.010929 -0.002192 0.000000 0.000000 0.000000
# 3 -0.001949 -0.002192 0.012149 0.000000 0.000000 0.000000
# 4 0.000000 0.000000 0.000000 0.033670 0.000000 0.000000
# 5 0.000000 0.000000 0.000000 0.000000 0.051661 0.000000
# 6 0.000000 0.000000 0.000000 0.000000 0.000000 -0.265390
#
#
# Mechanical properties :
#
#
# Convention : Reuss Voigt Hill
#
# Bulk Modulus (GPa) = 43.55014 46.98167 45.26591
# Shear Modulus (GPa) = -44.72409 21.77133 -11.47638
#
# Velocity S-wave (km/s) = -4.99349 3.48398 -2.52950
# Velocity P-wave (km/s) = 2.99435 6.50982 4.08727
#
# Compressibility (1/GPa) = 0.02296204
#
# Stress axis : x y z
#
# Youngs Moduli (GPa) = 53.45673 91.49649 82.30939
#
# Poissons Ratio (x) = 0.48225 0.16046
# Poissons Ratio (y) = 0.28175 0.18038
# Poissons Ratio (z) = 0.10421 0.20052
#
# Static dielectric constant tensor:
#      x y z
#    x 3.091750 0.000000 0.000000 
#    y 0.000000 3.324530 0.000000 
#    z 0.000000 0.000000 3.292180 
# 
# 
# High freq. dielectric constant tensor:
#      x y z
#    x 1.668610 0.000000 0.000000 
#    y 0.000000 1.693130 0.000000 
#    z 0.000000 0.000000 1.707750 
# 
# From -- ./inp_files/7571.got.cif
#   From: 2010.03.12/outbox.cif.g09.slc.cpg/sg65_4_cif.got.tgz:7571.got - 2010.04.10 20:52:16.
