data_PCOD8272456
_publ_section_title
;
Structure prediction by ZEFSAII (Michael W. Deem and Ramdas Pophale) SiO2 
 PCOD8272456
Probable space group: C M M M
;
_chemical_formula_sum "Si O2"
_cell_formula_units_Z 104
_cell_length_a 8.719207
_cell_length_b 23.112298
_cell_length_c 28.617582
_cell_angle_alpha 90.000000
_cell_angle_beta 90.000000
_cell_angle_gamma 90.000000
_cell_volume 5767.041181
_symmetry_space_group_name_H-M "C M M M"
_symmetry_group_IT_number 65
_symmetry_cell_setting 'orthorhombic'
loop_
_space_group_symop_operation_xyz
x,y,z
-x,-y,z
x,-y,-z
-x,y,-z
-x,-y,-z
x,y,-z
-x,y,z
x,-y,z
1/2+x,1/2+y,z
1/2-x,1/2-y,z
1/2+x,1/2-y,-z
1/2-x,1/2+y,-z
1/2-x,1/2-y,-z
1/2+x,1/2+y,-z
1/2-x,1/2+y,z
1/2+x,1/2-y,z
loop_
_atom_site_type_symbol
_atom_site_label
_atom_site_fract_x
_atom_site_fract_y
_atom_site_fract_z
Si Si1 0.319463 0.187176 0.450718
Si Si2 0.181429 0.382133 0.739669
Si Si3 0.180277 0.188495 0.822357
Si Si4 0.180233 0.000000 0.774412
Si Si5 0.180914 0.313274 0.650315
Si Si6 0.819326 0.313434 0.000000
Si Si7 0.177601 0.375827 0.093768
Si Si8 0.326887 0.000000 0.874174
O O1 0.270517 0.154609 0.500000
O O2 0.500000 0.193630 0.450077
O O3 0.250000 0.250000 0.452368
O O4 0.268461 0.159840 0.400728
O O5 0.238322 0.335205 0.776517
O O6 0.254773 0.444144 0.748455
O O7 0.235812 0.359197 0.688999
O O8 0.000000 0.388229 0.743748
O O9 0.250000 0.250000 0.835359
O O10 0.213825 0.146822 0.865480
O O11 0.000000 0.192689 0.813552
O O12 0.218099 0.000000 0.829241
O O13 0.000000 0.000000 0.768940
O O14 0.250000 0.250000 0.659515
O O15 0.000000 0.305222 0.653600
O O16 0.750000 0.250000 0.000000
O O17 0.763926 0.348962 0.954785
O O18 0.000000 0.307118 0.000000
O O19 0.200605 0.444901 0.092561
O O20 0.000000 0.359350 0.103566
O O21 0.500000 0.000000 0.854126
#
# Coordination Sequence:
#
# PCOD8272456 Si02
#       8
#    16  16  16   8  16   8  16   8
#     4   8  13  23  40  64  96 133 171 210 254 306
#     4  11  22  37  55  76 105 140 177 219 270 320
#     4  12  24  37  55  80 109 142 181 220 264 320
#     4  12  24  38  57  81 106 136 179 223 267 318
#     4   9  18  30  47  73 105 140 175 214 261 315
#     4  10  22  39  59  85 115 146 183 221 264 319
#     4  10  21  38  60  85 112 144 180 220 267 317
#     4  10  20  37  62  84 110 142 176 218 267 313
#
# _framework density 18.033511000000001
#
# number of rings (size 3 to 8) (size 9 to 14) (size 15 to 20)
#    0.000    1.846    1.538    3.462    0.000    4.615 
#    0.000    1.538    0.000    0.000    0.000    2.692 
#    0.000    4.308    0.000    0.000    0.000    0.000 
#
# Total GULP energy -644446.117277 kJ/mol
# GULP energy per Si atom -12393.194563 kJ/mol
# Density = 1.799247 g / cm^3
# Si number density = 18.033511 Si / 1000 Ang^3
#
#
#
# Elastic Constant Matrix: (Units=GPa)
#
#
# Indices 1 2 3 4 5 6 
#
# 1 60.8988 28.4004 35.1254 0.0000 0.0000 0.0000
# 2 28.4004 106.5449 54.0791 0.0000 0.0000 0.0000
# 3 35.1254 54.0791 162.8218 0.0000 0.0000 0.0000
# 4 0.0000 0.0000 0.0000 -145.8254 0.0000 0.0000
# 5 0.0000 0.0000 0.0000 0.0000 2.8413 0.0000
# 6 0.0000 0.0000 0.0000 0.0000 0.0000 25.2559
#
#
#
# Elastic Compliance Matrix: (Units=1/GPa)
#
#
# Indices 1 2 3 4 5 6 
#
# 1 0.019936 -0.003766 -0.003050 0.000000 0.000000 0.000000
# 2 -0.003766 0.012000 -0.003173 0.000000 0.000000 0.000000
# 3 -0.003050 -0.003173 0.007854 0.000000 0.000000 0.000000
# 4 0.000000 0.000000 0.000000 -0.006858 0.000000 0.000000
# 5 0.000000 0.000000 0.000000 0.000000 0.351957 0.000000
# 6 0.000000 0.000000 0.000000 0.000000 0.000000 0.039595
#
#
# Mechanical properties :
#
#
# Convention : Reuss Voigt Hill
#
# Bulk Modulus (GPa) = 50.47595 62.83061 56.65328
# Shear Modulus (GPa) = 11.08483 -9.36829 0.85827
#
# Velocity S-wave (km/s) = 2.48196 -2.28171 0.69063
# Velocity P-wave (km/s) = 6.02199 5.28914 5.66743
#
# Compressibility (1/GPa) = 0.01981141
#
# Stress axis : x y z
#
# Youngs Moduli (GPa) = 50.16003 83.33156 127.32997
#
# Poissons Ratio (x) = 0.31383 0.38835
# Poissons Ratio (y) = 0.18891 0.40405
# Poissons Ratio (z) = 0.15299 0.26443
#
# Static dielectric constant tensor:
#      x y z
#    x 3.338950 0.000000 0.000000 
#    y 0.000000 3.228880 0.000000 
#    z 0.000000 0.000000 4.045140 
# 
# 
# High freq. dielectric constant tensor:
#      x y z
#    x 1.697950 0.000000 0.000000 
#    y 0.000000 1.675700 0.000000 
#    z 0.000000 0.000000 1.714410 
# 
# From -- ./inp_files/76954.got.cif
#   From: 2010.03.12/outbox.cif.g09.slc.cpg/sg65_39_cif.got.tgz:76954.got - 2010.04.10 20:52:16.
