data_PCOD8272985
_publ_section_title
;
Structure prediction by ZEFSAII (Michael W. Deem and Ramdas Pophale) SiO2 
 PCOD8272985
Probable space group: C M M M
;
_chemical_formula_sum "Si O2"
_cell_formula_units_Z 112
_cell_length_a 17.891394
_cell_length_b 18.669033
_cell_length_c 18.952719
_cell_angle_alpha 90.000000
_cell_angle_beta 90.000000
_cell_angle_gamma 90.000000
_cell_volume 6330.492911
_symmetry_space_group_name_H-M "C M M M"
_symmetry_group_IT_number 65
_symmetry_cell_setting 'orthorhombic'
loop_
_space_group_symop_operation_xyz
x,y,z
-x,-y,z
x,-y,-z
-x,y,-z
-x,-y,-z
x,y,-z
-x,y,z
x,-y,z
1/2+x,1/2+y,z
1/2-x,1/2-y,z
1/2+x,1/2-y,-z
1/2-x,1/2+y,-z
1/2-x,1/2-y,-z
1/2+x,1/2+y,-z
1/2-x,1/2+y,z
1/2+x,1/2-y,z
loop_
_atom_site_type_symbol
_atom_site_label
_atom_site_fract_x
_atom_site_fract_y
_atom_site_fract_z
Si Si1 0.412843 0.176565 0.576176
Si Si2 0.915690 0.418110 0.698975
Si Si3 0.775586 0.831522 0.082100
Si Si4 0.345609 0.418234 0.288345
Si Si5 0.414611 0.583423 0.143431
Si Si6 0.708999 0.082391 0.802065
Si Si7 0.586360 0.657910 0.419779
O O1 0.376403 0.157961 0.500000
O O2 0.500000 0.158239 0.572299
O O3 0.376575 0.128121 0.637210
O O4 0.400419 0.258834 0.593935
O O5 0.910521 0.500000 0.674557
O O6 0.873605 0.405320 0.772363
O O7 0.000000 0.393234 0.713377
O O8 0.750000 0.750000 0.098441
O O9 0.858660 0.858615 0.106715
O O10 0.714271 0.877791 0.123557
O O11 0.768473 0.847839 0.000000
O O12 0.335212 0.500000 0.309679
O O13 0.409175 0.408066 0.228367
O O14 0.268661 0.387501 0.254994
O O15 0.363581 0.380184 0.361671
O O16 0.500000 0.600991 0.120712
O O17 0.394715 0.500000 0.123160
O O18 0.728035 0.000000 0.816437
O O19 0.610557 0.637377 0.500000
O O20 0.500000 0.636940 0.408892
#
# Coordination Sequence:
#
# PCOD8272985 Si02
#       7
#    16  16  16  16  16  16  16
#     4   8  15  28  44  64  91 120 152 193 241 289
#     4   9  17  30  50  73  92 114 153 204 247 283
#     4  10  21  36  53  76 106 136 165 198 241 299
#     4   9  17  30  47  67  95 128 161 200 245 293
#     4   9  18  33  55  82 107 133 170 216 262 305
#     4   9  19  35  52  71  96 126 160 198 244 300
#     4   9  17  28  42  62  91 128 165 196 229 279
#
# _framework density 17.692145
#
# number of rings (size 3 to 8) (size 9 to 14) (size 15 to 20)
#    0.000    3.000    0.000    2.571    0.000    5.143 
#    0.000    5.714    0.000    5.571    0.000    2.000 
#    0.000    0.000    0.000    0.000    0.000    0.000 
#
# Total GULP energy -693827.865388 kJ/mol
# GULP energy per Si atom -12389.783310 kJ/mol
# Density = 1.765188 g / cm^3
# Si number density = 17.692145 Si / 1000 Ang^3
#
#
#
# Elastic Constant Matrix: (Units=GPa)
#
#
# Indices 1 2 3 4 5 6 
#
# 1 70.9765 43.5130 43.0283 0.0000 0.0000 0.0000
# 2 43.5130 71.2357 62.1688 0.0000 0.0000 0.0000
# 3 43.0283 62.1688 124.3004 0.0000 0.0000 0.0000
# 4 0.0000 0.0000 0.0000 38.7891 0.0000 0.0000
# 5 0.0000 0.0000 0.0000 0.0000 18.3720 0.0000
# 6 0.0000 0.0000 0.0000 0.0000 0.0000 23.5515
#
#
#
# Elastic Compliance Matrix: (Units=1/GPa)
#
#
# Indices 1 2 3 4 5 6 
#
# 1 0.022710 -0.012442 -0.001639 0.000000 0.000000 0.000000
# 2 -0.012442 0.031728 -0.011562 0.000000 0.000000 0.000000
# 3 -0.001639 -0.011562 0.014395 0.000000 0.000000 0.000000
# 4 0.000000 0.000000 0.000000 0.025780 0.000000 0.000000
# 5 0.000000 0.000000 0.000000 0.000000 0.054431 0.000000
# 6 0.000000 0.000000 0.000000 0.000000 0.000000 0.042460
#
#
# Mechanical properties :
#
#
# Convention : Reuss Voigt Hill
#
# Bulk Modulus (GPa) = 56.98555 62.65922 59.82238
# Shear Modulus (GPa) = 20.10945 23.99601 22.05273
#
# Velocity S-wave (km/s) = 3.37505 3.68680 3.53437
# Velocity P-wave (km/s) = 6.88966 7.32234 7.10929
#
# Compressibility (1/GPa) = 0.01754831
#
# Stress axis : x y z
#
# Youngs Moduli (GPa) = 44.03272 31.51766 69.46927
#
# Poissons Ratio (x) = 0.39215 0.11383
# Poissons Ratio (y) = 0.54787 0.80319
# Poissons Ratio (z) = 0.07215 0.36440
#
# Static dielectric constant tensor:
#      x y z
#    x 3.184570 0.000000 0.000000 
#    y 0.000000 3.286060 0.000000 
#    z 0.000000 0.000000 3.756210 
# 
# 
# High freq. dielectric constant tensor:
#      x y z
#    x 1.664880 0.000000 0.000000 
#    y 0.000000 1.676450 0.000000 
#    z 0.000000 0.000000 1.682380 
# 
# From -- ./inp_files/56055.got.cif
#   From: 2010.03.12/outbox.cif.g09.slc.cpg/sg65_29_cif.got.tgz:56055.got - 2010.04.10 20:52:16.
