data_PCOD8272403
_publ_section_title
;
Structure prediction by ZEFSAII (Michael W. Deem and Ramdas Pophale) SiO2 
 PCOD8272403
Probable space group: C M M M
;
_chemical_formula_sum "Si O2"
_cell_formula_units_Z 88
_cell_length_a 25.851189
_cell_length_b 7.797881
_cell_length_c 22.354720
_cell_angle_alpha 90.000000
_cell_angle_beta 90.000000
_cell_angle_gamma 90.000000
_cell_volume 4506.364954
_symmetry_space_group_name_H-M "C M M M"
_symmetry_group_IT_number 65
_symmetry_cell_setting 'orthorhombic'
loop_
_space_group_symop_operation_xyz
x,y,z
-x,-y,z
x,-y,-z
-x,y,-z
-x,-y,-z
x,y,-z
-x,y,z
x,-y,z
1/2+x,1/2+y,z
1/2-x,1/2-y,z
1/2+x,1/2-y,-z
1/2-x,1/2+y,-z
1/2-x,1/2-y,-z
1/2+x,1/2+y,-z
1/2-x,1/2+y,z
1/2+x,1/2-y,z
loop_
_atom_site_type_symbol
_atom_site_label
_atom_site_fract_x
_atom_site_fract_y
_atom_site_fract_z
Si Si1 0.694098 0.297734 0.355092
Si Si2 0.500000 0.807037 0.628361
Si Si3 0.694330 0.299375 0.221866
Si Si4 0.897582 0.198010 0.433979
Si Si5 0.560903 0.000000 0.931001
Si Si6 0.406156 0.297906 0.152471
Si Si7 0.000000 0.803608 0.240142
O O1 0.686886 0.500000 0.351689
O O2 0.750000 0.250000 0.382331
O O3 0.689023 0.217009 0.288262
O O4 0.649660 0.215564 0.397100
O O5 0.550078 0.713547 0.603095
O O6 0.500000 0.808112 0.700140
O O7 0.500000 0.000000 0.604811
O O8 0.688944 0.500000 0.228224
O O9 0.750000 0.250000 0.193711
O O10 0.648757 0.235382 0.178797
O O11 0.902226 0.283749 0.500000
O O12 0.884887 0.000000 0.442308
O O13 0.583725 0.823918 0.903960
O O14 0.500000 0.000000 0.920916
O O15 0.576485 0.000000 0.000000
O O16 0.406933 0.500000 0.133562
O O17 0.449280 0.260116 0.202175
O O18 0.000000 0.000000 0.260542
#
# Coordination Sequence:
#
# PCOD8272403 Si02
#       7
#    16   8  16  16   8  16   8
#     4   9  18  34  53  78 109 136 179 231 287 343
#     4  12  25  35  52  81 109 139 177 238 293 340
#     4   9  18  32  53  83 113 148 186 237 295 348
#     4  10  21  38  56  71  98 148 195 228 276 347
#     4  11  24  40  62  92 126 160 196 241 281 333
#     4  10  21  38  60  88 121 157 197 238 285 346
#     4  10  20  37  59  83 114 146 181 228 288 344
#
# _framework density 19.527934999999999
#
# number of rings (size 3 to 8) (size 9 to 14) (size 15 to 20)
#    0.000    2.091    0.909    2.182    2.545    5.818 
#    0.000    0.909    0.000    0.545    0.000    0.000 
#    0.000    0.000    0.000    0.000    0.000    0.000 
#
# Total GULP energy -545535.367936 kJ/mol
# GULP energy per Si atom -12398.531089 kJ/mol
# Density = 1.948349 g / cm^3
# Si number density = 19.527935 Si / 1000 Ang^3
#
#
#
# Elastic Constant Matrix: (Units=GPa)
#
#
# Indices 1 2 3 4 5 6 
#
# 1 179.2478 21.6984 82.5202 0.0000 0.0000 0.0000
# 2 21.6984 49.9969 37.9548 0.0000 0.0000 0.0000
# 3 82.5202 37.9548 131.8609 0.0000 0.0000 0.0000
# 4 0.0000 0.0000 0.0000 17.5748 0.0000 0.0000
# 5 0.0000 0.0000 0.0000 0.0000 -9.1824 0.0000
# 6 0.0000 0.0000 0.0000 0.0000 0.0000 26.8254
#
#
#
# Elastic Compliance Matrix: (Units=1/GPa)
#
#
# Indices 1 2 3 4 5 6 
#
# 1 0.007843 0.000412 -0.005027 0.000000 0.000000 0.000000
# 2 0.000412 0.025615 -0.007631 0.000000 0.000000 0.000000
# 3 -0.005027 -0.007631 0.012926 0.000000 0.000000 0.000000
# 4 0.000000 0.000000 0.000000 0.056899 0.000000 0.000000
# 5 0.000000 0.000000 0.000000 0.000000 -0.108904 0.000000
# 6 0.000000 0.000000 0.000000 0.000000 0.000000 0.037278
#
#
# Mechanical properties :
#
#
# Convention : Reuss Voigt Hill
#
# Bulk Modulus (GPa) = 45.67637 71.71692 58.69664
# Shear Modulus (GPa) = 78.80421 21.63905 50.22163
#
# Velocity S-wave (km/s) = 6.35942 3.33244 5.07678
# Velocity P-wave (km/s) = 8.79568 7.18414 8.03044
#
# Compressibility (1/GPa) = 0.02189316
#
# Stress axis : x y z
#
# Youngs Moduli (GPa) = 127.49767 39.03895 77.36143
#
# Poissons Ratio (x) = -0.01610 0.38890
# Poissons Ratio (y) = -0.05257 0.59036
# Poissons Ratio (z) = 0.64095 0.29791
#
# Static dielectric constant tensor:
#      x y z
#    x 3.580370 0.000000 0.000000 
#    y 0.000000 3.377770 0.000000 
#    z 0.000000 0.000000 3.553270 
# 
# 
# High freq. dielectric constant tensor:
#      x y z
#    x 1.772670 0.000000 0.000000 
#    y 0.000000 1.751370 0.000000 
#    z 0.000000 0.000000 1.737930 
# 
# From -- ./inp_files/65226.got.cif
#   From: 2010.03.12/outbox.cif.g09.slc.cpg/sg65_33_cif.got.tgz:65226.got - 2010.04.10 20:52:16.
