data_PCOD8272775
_publ_section_title
;
Structure prediction by ZEFSAII (Michael W. Deem and Ramdas Pophale) SiO2 
 PCOD8272775
Probable space group: C M M M
;
_chemical_formula_sum "Si O2"
_cell_formula_units_Z 104
_cell_length_a 8.661743
_cell_length_b 28.298740
_cell_length_c 22.927945
_cell_angle_alpha 90.000000
_cell_angle_beta 90.000000
_cell_angle_gamma 90.000000
_cell_volume 5620.015638
_symmetry_space_group_name_H-M "C M M M"
_symmetry_group_IT_number 65
_symmetry_cell_setting 'orthorhombic'
loop_
_space_group_symop_operation_xyz
x,y,z
-x,-y,z
x,-y,-z
-x,y,-z
-x,-y,-z
x,y,-z
-x,y,z
x,-y,z
1/2+x,1/2+y,z
1/2-x,1/2-y,z
1/2+x,1/2-y,-z
1/2-x,1/2+y,-z
1/2-x,1/2-y,-z
1/2+x,1/2+y,-z
1/2-x,1/2+y,z
1/2+x,1/2-y,z
loop_
_atom_site_type_symbol
_atom_site_label
_atom_site_fract_x
_atom_site_fract_y
_atom_site_fract_z
Si Si1 0.182175 0.799578 0.156765
Si Si2 0.822107 0.445896 0.433017
Si Si3 0.681501 0.200847 0.717198
Si Si4 0.818895 0.391293 0.886987
Si Si5 0.178595 0.944985 0.780912
Si Si6 0.816469 0.553052 0.000000
Si Si7 0.321396 0.387927 0.666654
O O1 0.250000 0.750000 0.134135
O O2 0.244222 0.812459 0.220779
O O3 0.233043 0.840921 0.113070
O O4 0.000000 0.795644 0.159449
O O5 0.795955 0.431594 0.500000
O O6 0.772037 0.500000 0.422925
O O7 0.715499 0.412356 0.394487
O O8 0.000000 0.438979 0.415309
O O9 0.500000 0.206063 0.725323
O O10 0.750000 0.250000 0.693403
O O11 0.722008 0.159872 0.671541
O O12 0.784315 0.421296 0.829504
O O13 0.756267 0.419893 0.942782
O O14 0.000000 0.381817 0.891177
O O15 0.223111 0.923636 0.718428
O O16 0.000000 0.935280 0.796175
O O17 0.217226 0.000000 0.778526
O O18 0.747624 0.500000 0.000000
O O19 0.000000 0.550702 0.000000
O O20 0.500000 0.374061 0.668771
#
# Coordination Sequence:
#
# PCOD8272775 Si02
#       7
#    16  16  16  16  16   8  16
#     4  11  21  36  57  83 113 144 180 225 277 334
#     4   9  19  36  56  79 111 152 196 238 278 326
#     4  11  21  35  56  83 113 147 184 225 276 334
#     4  11  21  36  58  82 108 145 187 229 278 334
#     4  10  21  35  51  76 112 147 180 227 280 327
#     4   9  20  38  58  81 110 145 188 233 274 327
#     4  11  21  34  54  82 115 149 185 229 279 332
#
# _framework density 18.505288
#
# number of rings (size 3 to 8) (size 9 to 14) (size 15 to 20)
#    0.000    1.615    1.538    6.000    0.000    2.769 
#    0.000    2.692    0.000    3.231    0.000    0.000 
#    0.000    0.000    0.000    0.000    0.000    0.000 
#
# Total GULP energy -645056.312443 kJ/mol
# GULP energy per Si atom -12404.929085 kJ/mol
# Density = 1.846317 g / cm^3
# Si number density = 18.505288 Si / 1000 Ang^3
#
#
#
# Elastic Constant Matrix: (Units=GPa)
#
#
# Indices 1 2 3 4 5 6 
#
# 1 105.6555 48.9101 33.1652 0.0000 0.0000 0.0000
# 2 48.9101 143.1039 57.2281 0.0000 0.0000 0.0000
# 3 33.1652 57.2281 91.6375 0.0000 0.0000 0.0000
# 4 0.0000 0.0000 0.0000 31.2011 0.0000 0.0000
# 5 0.0000 0.0000 0.0000 0.0000 20.3229 0.0000
# 6 0.0000 0.0000 0.0000 0.0000 0.0000 33.1544
#
#
#
# Elastic Compliance Matrix: (Units=1/GPa)
#
#
# Indices 1 2 3 4 5 6 
#
# 1 0.011595 -0.003045 -0.002295 0.000000 0.000000 0.000000
# 2 -0.003045 0.010114 -0.005214 0.000000 0.000000 0.000000
# 3 -0.002295 -0.005214 0.014999 0.000000 0.000000 0.000000
# 4 0.000000 0.000000 0.000000 0.032050 0.000000 0.000000
# 5 0.000000 0.000000 0.000000 0.000000 0.049206 0.000000
# 6 0.000000 0.000000 0.000000 0.000000 0.000000 0.030162
#
#
# Mechanical properties :
#
#
# Convention : Reuss Voigt Hill
#
# Bulk Modulus (GPa) = 64.10216 68.77819 66.44017
# Shear Modulus (GPa) = 28.66431 30.34192 29.50312
#
# Velocity S-wave (km/s) = 3.93998 4.05363 3.99721
# Velocity P-wave (km/s) = 7.44399 7.69134 7.56868
#
# Compressibility (1/GPa) = 0.01560010
#
# Stress axis : x y z
#
# Youngs Moduli (GPa) = 86.24641 98.87429 66.67023
#
# Poissons Ratio (x) = 0.30110 0.15298
# Poissons Ratio (y) = 0.26264 0.34762
# Poissons Ratio (z) = 0.19790 0.51553
#
# Static dielectric constant tensor:
#      x y z
#    x 3.337800 0.000000 0.000000 
#    y 0.000000 3.576640 0.000000 
#    z 0.000000 0.000000 3.240030 
# 
# 
# High freq. dielectric constant tensor:
#      x y z
#    x 1.720210 0.000000 0.000000 
#    y 0.000000 1.730760 0.000000 
#    z 0.000000 0.000000 1.695960 
# 
# From -- ./inp_files/60454.got.cif
#   From: 2010.03.12/outbox.cif.g09.slc.cpg/sg65_31_cif.got.tgz:60454.got - 2010.04.10 20:52:16.
