data_PCOD8272367
_publ_section_title
;
Structure prediction by ZEFSAII (Michael W. Deem and Ramdas Pophale) SiO2 
 PCOD8272367
Probable space group: C M M M
;
_chemical_formula_sum "Si O2"
_cell_formula_units_Z 82
_cell_length_a 20.353987
_cell_length_b 17.550166
_cell_length_c 11.826018
_cell_angle_alpha 90.000000
_cell_angle_beta 90.000000
_cell_angle_gamma 90.000000
_cell_volume 4224.441079
_symmetry_space_group_name_H-M "C M M M"
_symmetry_group_IT_number 65
_symmetry_cell_setting 'orthorhombic'
loop_
_space_group_symop_operation_xyz
x,y,z
-x,-y,z
x,-y,-z
-x,y,-z
-x,-y,-z
x,y,-z
-x,y,z
x,-y,z
1/2+x,1/2+y,z
1/2-x,1/2-y,z
1/2+x,1/2-y,-z
1/2-x,1/2+y,-z
1/2-x,1/2-y,-z
1/2+x,1/2+y,-z
1/2-x,1/2+y,z
1/2+x,1/2-y,z
loop_
_atom_site_type_symbol
_atom_site_label
_atom_site_fract_x
_atom_site_fract_y
_atom_site_fract_z
Si Si1 0.500000 0.193937 0.628381
Si Si2 0.874094 0.331705 0.772315
Si Si3 0.648611 0.909458 0.000000
Si Si4 0.251869 0.840303 0.625649
Si Si5 0.203284 0.089018 0.000000
Si Si6 0.500000 0.500000 0.500000
Si Si7 0.500000 0.631746 0.317414
Si Si8 0.863261 0.154716 0.782925
O O1 0.500000 0.163581 0.500000
O O2 0.563342 0.160805 0.691434
O O3 0.500000 0.285463 0.623782
O O4 0.811815 0.367043 0.705320
O O5 0.860792 0.244633 0.804969
O O6 0.887062 0.378148 0.887486
O O7 0.723114 0.876790 0.000000
O O8 0.643808 0.000000 0.000000
O O9 0.259623 0.875852 0.500000
O O10 0.250000 0.750000 0.616324
O O11 0.182838 0.868879 0.676970
O O12 0.163219 0.114199 0.107631
O O13 0.211034 0.000000 0.000000
O O14 0.500000 0.564985 0.405923
O O15 0.563936 0.624288 0.238755
#
# Coordination Sequence:
#
# PCOD8272367 Si02
#       8
#     8  16   8  16   8   2   8  16
#     4  10  20  39  63  92 123 149 196 244 293 346
#     4  10  20  36  62  88 115 155 192 247 300 352
#     4  11  23  40  61  88 120 149 193 250 318 377
#     4   9  17  30  54  85 112 143 193 248 294 342
#     4  11  23  38  57  80 120 160 196 252 302 346
#     4  12  24  40  60  78 140 180 194 234 294 364
#     4  10  24  37  57  89 121 169 199 240 288 344
#     4  10  21  37  58  85 116 155 211 247 285 347
#
# _framework density 19.410851000000001
#
# number of rings (size 3 to 8) (size 9 to 14) (size 15 to 20)
#    0.000    1.951    2.439    1.171    2.732    3.902 
#    0.000    4.390    0.000    4.098    0.000    0.000 
#    0.000    0.000    0.000    0.000    0.000    0.000 
#
# Total GULP energy -507940.055560 kJ/mol
# GULP energy per Si atom -12388.781843 kJ/mol
# Density = 1.936667 g / cm^3
# Si number density = 19.410851 Si / 1000 Ang^3
#
#
#
# Elastic Constant Matrix: (Units=GPa)
#
#
# Indices 1 2 3 4 5 6 
#
# 1 134.0499 32.0995 59.3554 0.0000 0.0000 0.0000
# 2 32.0995 56.1978 46.9976 0.0000 0.0000 0.0000
# 3 59.3554 46.9976 169.4652 0.0000 0.0000 0.0000
# 4 0.0000 0.0000 0.0000 82.0521 0.0000 0.0000
# 5 0.0000 0.0000 0.0000 0.0000 50.6556 0.0000
# 6 0.0000 0.0000 0.0000 0.0000 0.0000 12.4709
#
#
#
# Elastic Compliance Matrix: (Units=1/GPa)
#
#
# Indices 1 2 3 4 5 6 
#
# 1 0.009294 -0.003367 -0.002321 0.000000 0.000000 0.000000
# 2 -0.003367 0.024387 -0.005584 0.000000 0.000000 0.000000
# 3 -0.002321 -0.005584 0.008263 0.000000 0.000000 0.000000
# 4 0.000000 0.000000 0.000000 0.012187 0.000000 0.000000
# 5 0.000000 0.000000 0.000000 0.000000 0.019741 0.000000
# 6 0.000000 0.000000 0.000000 0.000000 0.000000 0.080186
#
#
# Mechanical properties :
#
#
# Convention : Reuss Voigt Hill
#
# Bulk Modulus (GPa) = 51.54958 70.73534 61.14246
# Shear Modulus (GPa) = 27.31184 43.78641 35.54913
#
# Velocity S-wave (km/s) = 3.75512 4.75465 4.28413
# Velocity P-wave (km/s) = 6.73914 8.16471 7.48594
#
# Compressibility (1/GPa) = 0.01939880
#
# Stress axis : x y z
#
# Youngs Moduli (GPa) = 107.59464 41.00470 121.02742
#
# Poissons Ratio (x) = 0.13808 0.28096
# Poissons Ratio (y) = 0.36231 0.67581
# Poissons Ratio (z) = 0.24977 0.22897
#
# Static dielectric constant tensor:
#      x y z
#    x 3.660040 0.000000 0.000000 
#    y 0.000000 3.264100 0.000000 
#    z 0.000000 0.000000 3.618900 
# 
# 
# High freq. dielectric constant tensor:
#      x y z
#    x 1.756200 0.000000 0.000000 
#    y 0.000000 1.723430 0.000000 
#    z 0.000000 0.000000 1.772010 
# 
# From -- ./inp_files/28677.got.cif
#   From: 2010.03.12/outbox.cif.g09.slc.cpg/sg65_15_cif.got.tgz:28677.got - 2010.04.10 20:52:16.
