data_PCOD8272231
_publ_section_title
;
Structure prediction by ZEFSAII (Michael W. Deem and Ramdas Pophale) SiO2 
 PCOD8272231
Probable space group: C M M M
;
_chemical_formula_sum "Si O2"
_cell_formula_units_Z 104
_cell_length_a 21.193572
_cell_length_b 9.034832
_cell_length_c 26.769996
_cell_angle_alpha 90.000000
_cell_angle_beta 90.000000
_cell_angle_gamma 90.000000
_cell_volume 5125.928538
_symmetry_space_group_name_H-M "C M M M"
_symmetry_group_IT_number 65
_symmetry_cell_setting 'orthorhombic'
loop_
_space_group_symop_operation_xyz
x,y,z
-x,-y,z
x,-y,-z
-x,y,-z
-x,-y,-z
x,y,-z
-x,y,z
x,-y,z
1/2+x,1/2+y,z
1/2-x,1/2-y,z
1/2+x,1/2-y,-z
1/2-x,1/2+y,-z
1/2-x,1/2-y,-z
1/2+x,1/2+y,-z
1/2-x,1/2+y,z
1/2+x,1/2-y,z
loop_
_atom_site_type_symbol
_atom_site_label
_atom_site_fract_x
_atom_site_fract_y
_atom_site_fract_z
Si Si1 0.379132 0.329823 0.662562
Si Si2 0.808339 0.834329 0.760615
Si Si3 0.623207 0.327189 0.143767
Si Si4 0.815319 0.677281 0.423513
Si Si5 0.315336 0.827283 0.056794
Si Si6 0.500000 0.824361 0.310676
Si Si7 0.574585 0.173761 0.500000
Si Si8 0.500000 0.670992 0.795348
O O1 0.386121 0.500000 0.644707
O O2 0.365481 0.323901 0.721774
O O3 0.324530 0.247463 0.631332
O O4 0.442594 0.237369 0.656552
O O5 0.750000 0.750000 0.736996
O O6 0.826470 0.771506 0.814999
O O7 0.785927 0.000000 0.767841
O O8 0.630374 0.500000 0.131393
O O9 0.630468 0.235188 0.092876
O O10 0.557084 0.291083 0.168507
O O11 0.806463 0.500000 0.422456
O O12 0.750000 0.750000 0.445408
O O13 0.880104 0.721171 0.453366
O O14 0.250000 0.750000 0.070981
O O15 0.306576 0.000000 0.065475
O O16 0.335227 0.790999 0.000000
O O17 0.500000 0.771645 0.253564
O O18 0.500000 0.000000 0.311909
O O19 0.500000 0.238136 0.500000
O O20 0.566122 0.000000 0.500000
O O21 0.500000 0.500000 0.777404
#
# Coordination Sequence:
#
# PCOD8272231 Si02
#       8
#    16  16  16  16  16   8   8   8
#     4  11  23  41  62  87 125 166 206 255 308 363
#     4  10  21  35  54  80 114 152 189 236 292 349
#     4  10  20  36  58  82 109 149 192 236 288 347
#     4  11  23  41  67  97 130 171 216 264 322 382
#     4  10  21  37  57  82 112 145 184 235 292 349
#     4  12  24  38  60  90 122 164 210 253 304 368
#     4   9  21  42  67  95 130 169 215 273 324 372
#     4  10  20  40  61  81 115 156 196 240 289 346
#
# _framework density 20.289006000000001
#
# number of rings (size 3 to 8) (size 9 to 14) (size 15 to 20)
#    0.000    1.615    1.538    3.231    1.077    5.846 
#    0.000    1.538    0.000    4.154    0.000    0.000 
#    0.000    0.000    0.000    0.000    0.000    0.000 
#
# Total GULP energy -644456.113749 kJ/mol
# GULP energy per Si atom -12393.386803 kJ/mol
# Density = 2.024283 g / cm^3
# Si number density = 20.289006 Si / 1000 Ang^3
#
#
#
# Elastic Constant Matrix: (Units=GPa)
#
#
# Indices 1 2 3 4 5 6 
#
# 1 127.0028 52.4390 32.7283 0.0000 0.0000 0.0000
# 2 52.4390 104.5967 43.9112 0.0000 0.0000 0.0000
# 3 32.7283 43.9112 92.8706 0.0000 0.0000 0.0000
# 4 0.0000 0.0000 0.0000 26.1481 0.0000 0.0000
# 5 0.0000 0.0000 0.0000 0.0000 30.0881 0.0000
# 6 0.0000 0.0000 0.0000 0.0000 0.0000 33.9284
#
#
#
# Elastic Compliance Matrix: (Units=1/GPa)
#
#
# Indices 1 2 3 4 5 6 
#
# 1 0.010084 -0.004446 -0.001451 0.000000 0.000000 0.000000
# 2 -0.004446 0.013889 -0.005000 0.000000 0.000000 0.000000
# 3 -0.001451 -0.005000 0.013643 0.000000 0.000000 0.000000
# 4 0.000000 0.000000 0.000000 0.038244 0.000000 0.000000
# 5 0.000000 0.000000 0.000000 0.000000 0.033236 0.000000
# 6 0.000000 0.000000 0.000000 0.000000 0.000000 0.029474
#
#
# Mechanical properties :
#
#
# Convention : Reuss Voigt Hill
#
# Bulk Modulus (GPa) = 63.20857 64.73633 63.97245
# Shear Modulus (GPa) = 30.18645 31.05901 30.62273
#
# Velocity S-wave (km/s) = 3.86142 3.91683 3.88922
# Velocity P-wave (km/s) = 7.14860 7.24098 7.19493
#
# Compressibility (1/GPa) = 0.01582064
#
# Stress axis : x y z
#
# Youngs Moduli (GPa) = 99.17079 72.00133 73.29630
#
# Poissons Ratio (x) = 0.32012 0.10638
# Poissons Ratio (y) = 0.44092 0.36648
# Poissons Ratio (z) = 0.14393 0.36001
#
# Static dielectric constant tensor:
#      x y z
#    x 3.779400 0.000000 0.000000 
#    y 0.000000 3.561640 0.000000 
#    z 0.000000 0.000000 3.667390 
# 
# 
# High freq. dielectric constant tensor:
#      x y z
#    x 1.796280 0.000000 0.000000 
#    y 0.000000 1.784530 0.000000 
#    z 0.000000 0.000000 1.794870 
# 
# From -- ./inp_files/75538.got.cif
#   From: 2010.03.12/outbox.cif.g09.slc.cpg/sg65_38_cif.got.tgz:75538.got - 2010.04.10 20:52:16.
