data_PCOD8272772
_publ_section_title
;
Structure prediction by ZEFSAII (Michael W. Deem and Ramdas Pophale) SiO2 
 PCOD8272772
Probable space group: C M M M
;
_chemical_formula_sum "Si O2"
_cell_formula_units_Z 88
_cell_length_a 13.868404
_cell_length_b 17.041500
_cell_length_c 19.657194
_cell_angle_alpha 90.000000
_cell_angle_beta 90.000000
_cell_angle_gamma 90.000000
_cell_volume 4645.749911
_symmetry_space_group_name_H-M "C M M M"
_symmetry_group_IT_number 65
_symmetry_cell_setting 'orthorhombic'
loop_
_space_group_symop_operation_xyz
x,y,z
-x,-y,z
x,-y,-z
-x,y,-z
-x,-y,-z
x,y,-z
-x,y,z
x,-y,z
1/2+x,1/2+y,z
1/2-x,1/2-y,z
1/2+x,1/2-y,-z
1/2-x,1/2+y,-z
1/2-x,1/2-y,-z
1/2+x,1/2+y,-z
1/2-x,1/2+y,z
1/2+x,1/2-y,z
loop_
_atom_site_type_symbol
_atom_site_label
_atom_site_fract_x
_atom_site_fract_y
_atom_site_fract_z
Si Si1 0.000000 0.590981 0.920975
Si Si2 0.891359 0.591444 0.688461
Si Si3 0.291423 0.162091 0.076361
Si Si4 0.764445 0.341764 0.423506
Si Si5 0.606065 0.406925 0.330072
Si Si6 0.731459 0.408645 0.209217
O O1 0.903806 0.643040 0.902503
O O2 0.000000 0.500000 0.888563
O O3 0.000000 0.576661 0.000000
O O4 0.877497 0.500000 0.672315
O O5 0.856969 0.637624 0.621873
O O6 0.832852 0.615099 0.756014
O O7 0.000000 0.614982 0.704467
O O8 0.250000 0.250000 0.077334
O O9 0.223637 0.121737 0.132397
O O10 0.274589 0.128151 0.000000
O O11 0.781577 0.372624 0.500000
O O12 0.750000 0.250000 0.422587
O O13 0.669214 0.382464 0.394280
O O14 0.500000 0.371115 0.339428
O O15 0.604101 0.500000 0.327128
O O16 0.648743 0.373496 0.258754
O O17 0.718017 0.500000 0.204716
#
# Coordination Sequence:
#
# PCOD8272772 Si02
#       6
#     8  16  16  16  16  16
#     4   9  18  34  58  84 107 143 194 236 277 336
#     4   9  19  35  55  79 105 137 177 220 269 324
#     4  10  21  36  53  81 118 150 184 234 291 338
#     4  10  21  35  51  76 110 142 175 217 264 318
#     4   9  19  37  58  78 102 136 179 225 268 315
#     4   9  18  33  55  80 105 137 180 226 274 331
#
# _framework density 18.942043999999999
#
# number of rings (size 3 to 8) (size 9 to 14) (size 15 to 20)
#    0.000    2.636    0.000    2.182    1.273    6.909 
#    1.636    3.636    0.000    0.000    0.000    2.545 
#    0.000    0.000    0.000    0.000    0.000    0.000 
#
# Total GULP energy -545078.984055 kJ/mol
# GULP energy per Si atom -12388.158729 kJ/mol
# Density = 1.889893 g / cm^3
# Si number density = 18.942044 Si / 1000 Ang^3
#
#
#
# Elastic Constant Matrix: (Units=GPa)
#
#
# Indices 1 2 3 4 5 6 
#
# 1 79.7052 31.6175 6.0926 0.0000 0.0000 0.0000
# 2 31.6175 39.3480 24.8509 0.0000 0.0000 0.0000
# 3 6.0926 24.8509 110.8395 0.0000 0.0000 0.0000
# 4 0.0000 0.0000 0.0000 30.5862 0.0000 0.0000
# 5 0.0000 0.0000 0.0000 0.0000 11.2743 0.0000
# 6 0.0000 0.0000 0.0000 0.0000 0.0000 20.0100
#
#
#
# Elastic Compliance Matrix: (Units=1/GPa)
#
#
# Indices 1 2 3 4 5 6 
#
# 1 0.019129 -0.017133 0.002790 0.000000 0.000000 0.000000
# 2 -0.017133 0.044952 -0.009137 0.000000 0.000000 0.000000
# 3 0.002790 -0.009137 0.010917 0.000000 0.000000 0.000000
# 4 0.000000 0.000000 0.000000 0.032695 0.000000 0.000000
# 5 0.000000 0.000000 0.000000 0.000000 0.088697 0.000000
# 6 0.000000 0.000000 0.000000 0.000000 0.000000 0.049975
#
#
# Mechanical properties :
#
#
# Convention : Reuss Voigt Hill
#
# Bulk Modulus (GPa) = 35.66535 39.44609 37.55572
# Shear Modulus (GPa) = 16.51961 23.52954 20.02458
#
# Velocity S-wave (km/s) = 2.95636 3.52829 3.25491
# Velocity P-wave (km/s) = 5.52476 6.12113 5.83058
#
# Compressibility (1/GPa) = 0.02803842
#
# Stress axis : x y z
#
# Youngs Moduli (GPa) = 52.27578 22.24614 91.59857
#
# Poissons Ratio (x) = 0.38114 -0.25554
# Poissons Ratio (y) = 0.89564 0.83690
# Poissons Ratio (z) = -0.14584 0.20326
#
# Static dielectric constant tensor:
#      x y z
#    x 3.643860 0.000000 0.000000 
#    y 0.000000 3.354650 0.000000 
#    z 0.000000 0.000000 3.795740 
# 
# 
# High freq. dielectric constant tensor:
#      x y z
#    x 1.729900 0.000000 0.000000 
#    y 0.000000 1.720560 0.000000 
#    z 0.000000 0.000000 1.743550 
# 
# From -- ./inp_files/53044.got.cif
#   From: 2010.03.12/outbox.cif.g09.slc.cpg/sg65_27_cif.got.tgz:53044.got - 2010.04.10 20:52:16.
