data_PCOD8272678
_publ_section_title
;
Structure prediction by ZEFSAII (Michael W. Deem and Ramdas Pophale) SiO2 
 PCOD8272678
Probable space group: C M M M
;
_chemical_formula_sum "Si O2"
_cell_formula_units_Z 64
_cell_length_a 7.565890
_cell_length_b 18.262884
_cell_length_c 22.435900
_cell_angle_alpha 90.000000
_cell_angle_beta 90.000000
_cell_angle_gamma 90.000000
_cell_volume 3100.079841
_symmetry_space_group_name_H-M "C M M M"
_symmetry_group_IT_number 65
_symmetry_cell_setting 'orthorhombic'
loop_
_space_group_symop_operation_xyz
x,y,z
-x,-y,z
x,-y,-z
-x,y,-z
-x,-y,-z
x,y,-z
-x,y,z
x,-y,z
1/2+x,1/2+y,z
1/2-x,1/2-y,z
1/2+x,1/2-y,-z
1/2-x,1/2+y,-z
1/2-x,1/2-y,-z
1/2+x,1/2+y,-z
1/2-x,1/2+y,z
1/2+x,1/2-y,z
loop_
_atom_site_type_symbol
_atom_site_label
_atom_site_fract_x
_atom_site_fract_y
_atom_site_fract_z
Si Si1 0.791798 0.664837 0.642682
Si Si2 0.706806 0.418560 0.112565
Si Si3 0.293820 0.918555 0.241522
Si Si4 0.000000 0.915657 0.570373
Si Si5 0.792833 0.165909 0.000000
O O1 0.750000 0.750000 0.639887
O O2 0.723803 0.634635 0.706652
O O3 0.678877 0.623115 0.592892
O O4 0.000000 0.650234 0.631491
O O5 0.500000 0.423104 0.102656
O O6 0.790801 0.500000 0.109899
O O7 0.747982 0.383271 0.177185
O O8 0.791560 0.370270 0.059510
O O9 0.500000 0.926394 0.249061
O O10 0.206825 0.000000 0.246865
O O11 0.000000 0.908622 0.500000
O O12 0.000000 0.000000 0.591186
O O13 0.750000 0.250000 0.000000
O O14 0.000000 0.152826 0.000000
#
# Coordination Sequence:
#
# PCOD8272678 Si02
#       5
#    16  16  16   8   8
#     4  11  23  42  65  97 134 172 212 262 320 377
#     4   9  18  33  54  77 102 143 192 241 293 353
#     4   9  19  35  57  85 117 152 196 249 304 363
#     4  11  26  46  70 100 131 170 220 264 310 378
#     4  10  21  35  49  71 105 140 186 236 296 356
#
# _framework density 20.644628999999998
#
# number of rings (size 3 to 8) (size 9 to 14) (size 15 to 20)
#    0.000    2.125    1.250    1.125    1.750    6.000 
#    0.000    6.250    0.000    3.750    0.000    0.000 
#    0.000    0.000    0.000    0.000    0.000    0.000 
#
# Total GULP energy -396706.009537 kJ/mol
# GULP energy per Si atom -12397.062798 kJ/mol
# Density = 2.059764 g / cm^3
# Si number density = 20.644629 Si / 1000 Ang^3
#
#
#
# Elastic Constant Matrix: (Units=GPa)
#
#
# Indices 1 2 3 4 5 6 
#
# 1 73.4205 30.9098 35.6916 0.0000 0.0000 0.0000
# 2 30.9098 142.4443 83.9990 0.0000 0.0000 0.0000
# 3 35.6916 83.9990 153.3668 0.0000 0.0000 0.0000
# 4 0.0000 0.0000 0.0000 16.6652 0.0000 0.0000
# 5 0.0000 0.0000 0.0000 0.0000 21.0528 0.0000
# 6 0.0000 0.0000 0.0000 0.0000 0.0000 15.5838
#
#
#
# Elastic Compliance Matrix: (Units=1/GPa)
#
#
# Indices 1 2 3 4 5 6 
#
# 1 0.015680 -0.001847 -0.002637 0.000000 0.000000 0.000000
# 2 -0.001847 0.010587 -0.005369 0.000000 0.000000 0.000000
# 3 -0.002637 -0.005369 0.010074 0.000000 0.000000 0.000000
# 4 0.000000 0.000000 0.000000 0.060005 0.000000 0.000000
# 5 0.000000 0.000000 0.000000 0.000000 0.047500 0.000000
# 6 0.000000 0.000000 0.000000 0.000000 0.000000 0.064169
#
#
# Mechanical properties :
#
#
# Convention : Reuss Voigt Hill
#
# Bulk Modulus (GPa) = 60.11405 74.49248 67.30326
# Shear Modulus (GPa) = 21.43466 25.23577 23.33521
#
# Velocity S-wave (km/s) = 3.22571 3.50006 3.36568
# Velocity P-wave (km/s) = 6.56166 7.24537 6.91197
#
# Compressibility (1/GPa) = 0.01663505
#
# Stress axis : x y z
#
# Youngs Moduli (GPa) = 63.77579 94.45567 99.26117
#
# Poissons Ratio (x) = 0.17449 0.26178
# Poissons Ratio (y) = 0.11781 0.53289
# Poissons Ratio (z) = 0.16819 0.50709
#
# Static dielectric constant tensor:
#      x y z
#    x 3.659570 0.000000 0.000000 
#    y 0.000000 3.857580 0.000000 
#    z 0.000000 0.000000 3.985690 
# 
# 
# High freq. dielectric constant tensor:
#      x y z
#    x 1.801730 0.000000 0.000000 
#    y 0.000000 1.799830 0.000000 
#    z 0.000000 0.000000 1.815380 
# 
# From -- ./inp_files/58819.got.cif
#   From: 2010.03.12/outbox.cif.g09.slc.cpg/sg65_30_cif.got.tgz:58819.got - 2010.04.10 20:52:16.
