data_PCOD8272140
_publ_section_title
;
Structure prediction by ZEFSAII (Michael W. Deem and Ramdas Pophale) SiO2 
 PCOD8272140
Probable space group: C M M M
;
_chemical_formula_sum "Si O2"
_cell_formula_units_Z 88
_cell_length_a 13.908885
_cell_length_b 19.030988
_cell_length_c 17.680651
_cell_angle_alpha 90.000000
_cell_angle_beta 90.000000
_cell_angle_gamma 90.000000
_cell_volume 4680.065200
_symmetry_space_group_name_H-M "C M M M"
_symmetry_group_IT_number 65
_symmetry_cell_setting 'orthorhombic'
loop_
_space_group_symop_operation_xyz
x,y,z
-x,-y,z
x,-y,-z
-x,y,-z
-x,-y,-z
x,y,-z
-x,y,z
x,-y,z
1/2+x,1/2+y,z
1/2-x,1/2-y,z
1/2+x,1/2-y,-z
1/2-x,1/2+y,-z
1/2-x,1/2-y,-z
1/2+x,1/2+y,-z
1/2-x,1/2+y,z
1/2+x,1/2-y,z
loop_
_atom_site_type_symbol
_atom_site_label
_atom_site_fract_x
_atom_site_fract_y
_atom_site_fract_z
Si Si1 0.795228 0.639475 0.857940
Si Si2 0.894901 0.579871 0.000000
Si Si3 0.886094 0.312285 0.584939
Si Si4 0.718574 0.917441 0.307878
Si Si5 0.107485 0.176169 0.331299
Si Si6 0.107040 0.785225 0.160836
O O1 0.807699 0.598545 0.779063
O O2 0.861285 0.707961 0.862135
O O3 0.682746 0.658140 0.871415
O O4 0.830622 0.592716 0.926403
O O5 0.921428 0.500000 0.000000
O O6 0.000000 0.619531 0.000000
O O7 0.848403 0.325397 0.500000
O O8 0.853489 0.375840 0.638042
O O9 0.849559 0.235144 0.612025
O O10 0.000000 0.310799 0.588776
O O11 0.826246 0.892749 0.329489
O O12 0.709331 0.000000 0.323469
O O13 0.107932 0.214101 0.250901
O O14 0.000000 0.151776 0.354110
O O15 0.000000 0.801931 0.129115
#
# Coordination Sequence:
#
# PCOD8272140 Si02
#       6
#    16   8  16  16  16  16
#     4  10  20  36  56  80 111 145 183 229 276 329
#     4  11  24  39  55  77 109 149 187 226 276 335
#     4  10  21  37  58  82 108 143 187 231 275 328
#     4  11  22  35  55  83 114 149 183 223 281 336
#     4   9  18  35  57  81 109 143 186 230 270 322
#     4   9  17  32  58  85 108 138 180 230 277 323
#
# _framework density 18.803155
#
# number of rings (size 3 to 8) (size 9 to 14) (size 15 to 20)
#    0.000    2.091    1.818    1.636    0.000    4.727 
#    0.000    2.273    0.000    2.182    0.000    3.818 
#    0.000    0.000    0.000    0.000    0.000    0.000 
#
# Total GULP energy -545457.155844 kJ/mol
# GULP energy per Si atom -12396.753542 kJ/mol
# Density = 1.876036 g / cm^3
# Si number density = 18.803155 Si / 1000 Ang^3
#
#
#
# Elastic Constant Matrix: (Units=GPa)
#
#
# Indices 1 2 3 4 5 6 
#
# 1 103.1424 24.8141 45.8061 0.0000 0.0000 0.0000
# 2 24.8141 90.3367 47.8574 0.0000 0.0000 0.0000
# 3 45.8061 47.8574 108.4016 0.0000 0.0000 0.0000
# 4 0.0000 0.0000 0.0000 13.2580 0.0000 0.0000
# 5 0.0000 0.0000 0.0000 0.0000 72.2221 0.0000
# 6 0.0000 0.0000 0.0000 0.0000 0.0000 21.4360
#
#
#
# Elastic Compliance Matrix: (Units=1/GPa)
#
#
# Indices 1 2 3 4 5 6 
#
# 1 0.011979 -0.000795 -0.004711 0.000000 0.000000 0.000000
# 2 -0.000795 0.014502 -0.006066 0.000000 0.000000 0.000000
# 3 -0.004711 -0.006066 0.013894 0.000000 0.000000 0.000000
# 4 0.000000 0.000000 0.000000 0.075426 0.000000 0.000000
# 5 0.000000 0.000000 0.000000 0.000000 0.013846 0.000000
# 6 0.000000 0.000000 0.000000 0.000000 0.000000 0.046650
#
#
# Mechanical properties :
#
#
# Convention : Reuss Voigt Hill
#
# Bulk Modulus (GPa) = 58.03760 59.87067 58.95413
# Shear Modulus (GPa) = 24.36832 33.61010 28.98921
#
# Velocity S-wave (km/s) = 3.60386 4.23244 3.93073
# Velocity P-wave (km/s) = 6.94622 7.46958 7.21265
#
# Compressibility (1/GPa) = 0.01723021
#
# Stress axis : x y z
#
# Youngs Moduli (GPa) = 83.48202 68.95686 71.97447
#
# Poissons Ratio (x) = 0.05480 0.33906
# Poissons Ratio (y) = 0.06634 0.43663
# Poissons Ratio (z) = 0.39327 0.41833
#
# Static dielectric constant tensor:
#      x y z
#    x 3.833340 0.000000 0.000000 
#    y 0.000000 3.170850 0.000000 
#    z 0.000000 0.000000 3.432750 
# 
# 
# High freq. dielectric constant tensor:
#      x y z
#    x 1.745620 0.000000 0.000000 
#    y 0.000000 1.707730 0.000000 
#    z 0.000000 0.000000 1.723620 
# 
# From -- ./inp_files/52965.got.cif
#   From: 2010.03.12/outbox.cif.g09.slc.cpg/sg65_27_cif.got.tgz:52965.got - 2010.04.10 20:52:16.
