data_PCOD8272187
_publ_section_title
;
Structure prediction by ZEFSAII (Michael W. Deem and Ramdas Pophale) SiO2 
 PCOD8272187
Probable space group: C M M M
;
_chemical_formula_sum "Si O2"
_cell_formula_units_Z 72
_cell_length_a 27.203898
_cell_length_b 8.636597
_cell_length_c 16.089754
_cell_angle_alpha 90.000000
_cell_angle_beta 90.000000
_cell_angle_gamma 90.000000
_cell_volume 3780.273284
_symmetry_space_group_name_H-M "C M M M"
_symmetry_group_IT_number 65
_symmetry_cell_setting 'orthorhombic'
loop_
_space_group_symop_operation_xyz
x,y,z
-x,-y,z
x,-y,-z
-x,y,-z
-x,-y,-z
x,y,-z
-x,y,z
x,-y,z
1/2+x,1/2+y,z
1/2-x,1/2-y,z
1/2+x,1/2-y,-z
1/2-x,1/2+y,-z
1/2-x,1/2-y,-z
1/2+x,1/2+y,-z
1/2-x,1/2+y,z
1/2+x,1/2-y,z
loop_
_atom_site_type_symbol
_atom_site_label
_atom_site_fract_x
_atom_site_fract_y
_atom_site_fract_z
Si Si1 0.895333 0.682250 0.837922
Si Si2 0.446655 0.817851 0.670269
Si Si3 0.652233 0.182796 0.593815
Si Si4 0.697943 0.317092 0.247444
Si Si5 0.444249 0.317094 0.000000
O O1 0.890976 0.500000 0.850938
O O2 0.932974 0.725844 0.764528
O O3 0.841895 0.747424 0.815310
O O4 0.915037 0.759567 0.920449
O O5 0.500000 0.742566 0.648689
O O6 0.403906 0.758333 0.608502
O O7 0.450968 0.000000 0.660550
O O8 0.667962 0.223549 0.500000
O O9 0.688245 0.269394 0.656807
O O10 0.655719 0.000000 0.612045
O O11 0.697987 0.500000 0.240097
O O12 0.750000 0.250000 0.218996
O O13 0.445185 0.500000 0.000000
O O14 0.500000 0.250845 0.000000
#
# Coordination Sequence:
#
# PCOD8272187 Si02
#       5
#    16  16  16  16   8
#     4  10  20  36  57  82 111 144 185 227 269 321
#     4   8  14  26  47  75 105 138 177 220 264 311
#     4   9  18  32  50  76 109 142 181 228 273 322
#     4  11  22  38  59  80 105 139 179 225 280 335
#     4  11  23  37  56  87 124 155 183 219 265 313
#
# _framework density 19.046240999999998
#
# number of rings (size 3 to 8) (size 9 to 14) (size 15 to 20)
#    0.000    2.333    0.000    5.000    0.000    3.111 
#    0.000    2.778    0.000    6.000    0.000    6.222 
#    0.000    0.000    0.000    0.000    0.000    0.000 
#
# Total GULP energy -446325.265036 kJ/mol
# GULP energy per Si atom -12397.924029 kJ/mol
# Density = 1.900289 g / cm^3
# Si number density = 19.046241 Si / 1000 Ang^3
#
#
#
# Elastic Constant Matrix: (Units=GPa)
#
#
# Indices 1 2 3 4 5 6 
#
# 1 126.5629 28.9915 32.8471 0.0000 0.0000 0.0000
# 2 28.9915 62.6938 28.5109 0.0000 0.0000 0.0000
# 3 32.8471 28.5109 94.5675 0.0000 0.0000 0.0000
# 4 0.0000 0.0000 0.0000 26.7235 0.0000 0.0000
# 5 0.0000 0.0000 0.0000 0.0000 18.3016 0.0000
# 6 0.0000 0.0000 0.0000 0.0000 0.0000 22.7179
#
#
#
# Elastic Compliance Matrix: (Units=1/GPa)
#
#
# Indices 1 2 3 4 5 6 
#
# 1 0.009224 -0.003255 -0.002223 0.000000 0.000000 0.000000
# 2 -0.003255 0.019633 -0.004789 0.000000 0.000000 0.000000
# 3 -0.002223 -0.004789 0.012790 0.000000 0.000000 0.000000
# 4 0.000000 0.000000 0.000000 0.037420 0.000000 0.000000
# 5 0.000000 0.000000 0.000000 0.000000 0.054640 0.000000
# 6 0.000000 0.000000 0.000000 0.000000 0.000000 0.044018
#
#
# Mechanical properties :
#
#
# Convention : Reuss Voigt Hill
#
# Bulk Modulus (GPa) = 47.35878 51.61369 49.48624
# Shear Modulus (GPa) = 24.35514 26.44691 25.40103
#
# Velocity S-wave (km/s) = 3.57982 3.73039 3.65588
# Velocity P-wave (km/s) = 6.48120 6.76109 6.62263
#
# Compressibility (1/GPa) = 0.02111541
#
# Stress axis : x y z
#
# Youngs Moduli (GPa) = 108.41839 50.93393 78.18505
#
# Poissons Ratio (x) = 0.16577 0.17377
# Poissons Ratio (y) = 0.35285 0.37441
# Poissons Ratio (z) = 0.24096 0.24391
#
# Static dielectric constant tensor:
#      x y z
#    x 3.811840 0.000000 0.000000 
#    y 0.000000 3.304440 0.000000 
#    z 0.000000 0.000000 3.410210 
# 
# 
# High freq. dielectric constant tensor:
#      x y z
#    x 1.751560 0.000000 0.000000 
#    y 0.000000 1.722890 0.000000 
#    z 0.000000 0.000000 1.731910 
# 
# From -- ./inp_files/36561.got.cif
#   From: 2010.03.12/outbox.cif.g09.slc.cpg/sg65_19_cif.got.tgz:36561.got - 2010.04.10 20:52:16.
