data_PCOD8272330
_publ_section_title
;
Structure prediction by ZEFSAII (Michael W. Deem and Ramdas Pophale) SiO2 
 PCOD8272330
Probable space group: C M M M
;
_chemical_formula_sum "Si O2"
_cell_formula_units_Z 88
_cell_length_a 15.058259
_cell_length_b 20.599238
_cell_length_c 14.997550
_cell_angle_alpha 90.000000
_cell_angle_beta 90.000000
_cell_angle_gamma 90.000000
_cell_volume 4652.069953
_symmetry_space_group_name_H-M "C M M M"
_symmetry_group_IT_number 65
_symmetry_cell_setting 'orthorhombic'
loop_
_space_group_symop_operation_xyz
x,y,z
-x,-y,z
x,-y,-z
-x,y,-z
-x,-y,-z
x,y,-z
-x,y,z
x,-y,z
1/2+x,1/2+y,z
1/2-x,1/2-y,z
1/2+x,1/2-y,-z
1/2-x,1/2+y,-z
1/2-x,1/2-y,-z
1/2+x,1/2+y,-z
1/2-x,1/2+y,z
1/2+x,1/2-y,z
loop_
_atom_site_type_symbol
_atom_site_label
_atom_site_fract_x
_atom_site_fract_y
_atom_site_fract_z
Si Si1 0.148739 0.232071 0.100220
Si Si2 0.658278 0.879846 0.597292
Si Si3 0.343041 0.571975 0.400862
Si Si4 0.598227 0.676647 0.268347
Si Si5 0.250000 0.750000 0.644123
Si Si6 0.000000 0.337832 0.897502
Si Si7 0.000000 0.421019 0.276750
O O1 0.250000 0.250000 0.120557
O O2 0.116409 0.171527 0.161983
O O3 0.088057 0.295155 0.118787
O O4 0.136374 0.207014 0.000000
O O5 0.613359 0.890739 0.500000
O O6 0.736930 0.931259 0.614190
O O7 0.711167 0.810879 0.590161
O O8 0.585798 0.890375 0.673982
O O9 0.364600 0.601270 0.500000
O O10 0.381721 0.500000 0.395151
O O11 0.390158 0.610237 0.321423
O O12 0.500000 0.703150 0.287043
O O13 0.666103 0.731553 0.297081
O O14 0.000000 0.397315 0.826239
O O15 0.000000 0.364876 0.000000
O O16 0.000000 0.500000 0.280871
#
# Coordination Sequence:
#
# PCOD8272330 Si02
#       7
#    16  16  16  16   8   8   8
#     4  10  20  36  60  86 112 144 183 233 292 352
#     4  10  21  37  57  82 115 156 196 241 292 343
#     4   9  20  39  58  77 109 154 199 238 278 331
#     4  11  21  33  56  86 115 145 184 233 288 339
#     4  10  21  36  57  82 116 152 191 244 289 342
#     4  10  22  40  61  86 117 152 190 234 289 350
#     4  12  25  37  56  87 121 159 203 241 285 352
#
# _framework density 18.916311
#
# number of rings (size 3 to 8) (size 9 to 14) (size 15 to 20)
#    0.000    1.818    1.818    2.182    3.818    3.091 
#    0.000    0.909    0.000    0.545    0.000    1.273 
#    0.000    0.000    0.000    0.000    0.000    0.000 
#
# Total GULP energy -545082.242905 kJ/mol
# GULP energy per Si atom -12388.232793 kJ/mol
# Density = 1.887326 g / cm^3
# Si number density = 18.916311 Si / 1000 Ang^3
#
#
#
# Elastic Constant Matrix: (Units=GPa)
#
#
# Indices 1 2 3 4 5 6 
#
# 1 128.0171 34.0240 55.4345 0.0000 0.0000 0.0000
# 2 34.0240 88.2663 57.3977 0.0000 0.0000 0.0000
# 3 55.4345 57.3977 152.0195 0.0000 0.0000 0.0000
# 4 0.0000 0.0000 0.0000 26.4470 0.0000 0.0000
# 5 0.0000 0.0000 0.0000 0.0000 1.6844 0.0000
# 6 0.0000 0.0000 0.0000 0.0000 0.0000 16.4061
#
#
#
# Elastic Compliance Matrix: (Units=1/GPa)
#
#
# Indices 1 2 3 4 5 6 
#
# 1 0.009503 -0.001868 -0.002760 0.000000 0.000000 0.000000
# 2 -0.001868 0.015384 -0.005127 0.000000 0.000000 0.000000
# 3 -0.002760 -0.005127 0.009520 0.000000 0.000000 0.000000
# 4 0.000000 0.000000 0.000000 0.037811 0.000000 0.000000
# 5 0.000000 0.000000 0.000000 0.000000 0.593670 0.000000
# 6 0.000000 0.000000 0.000000 0.000000 0.000000 0.060953
#
#
# Mechanical properties :
#
#
# Convention : Reuss Voigt Hill
#
# Bulk Modulus (GPa) = 67.13080 73.55725 70.34402
# Shear Modulus (GPa) = 6.65497 23.67061 15.16279
#
# Velocity S-wave (km/s) = 1.87770 3.54126 2.83428
# Velocity P-wave (km/s) = 6.34558 7.46262 6.92665
#
# Compressibility (1/GPa) = 0.01489629
#
# Stress axis : x y z
#
# Youngs Moduli (GPa) = 105.22820 65.00445 105.03878
#
# Poissons Ratio (x) = 0.12146 0.28989
# Poissons Ratio (y) = 0.19662 0.53853
# Poissons Ratio (z) = 0.29042 0.33328
#
# Static dielectric constant tensor:
#      x y z
#    x 3.592290 0.000000 0.000000 
#    y 0.000000 3.239330 0.000000 
#    z 0.000000 0.000000 3.690020 
# 
# 
# High freq. dielectric constant tensor:
#      x y z
#    x 1.750230 0.000000 0.000000 
#    y 0.000000 1.701580 0.000000 
#    z 0.000000 0.000000 1.743780 
# 
# From -- ./inp_files/40270.got.cif
#   From: 2010.03.12/outbox.cif.g09.slc.cpg/sg65_21_cif.got.tgz:40270.got - 2010.04.10 20:52:16.
