data_PCOD8272927
_publ_section_title
;
Structure prediction by ZEFSAII (Michael W. Deem and Ramdas Pophale) SiO2 
 PCOD8272927
Probable space group: C M M M
;
_chemical_formula_sum "Si O2"
_cell_formula_units_Z 88
_cell_length_a 9.153071
_cell_length_b 18.550648
_cell_length_c 28.107723
_cell_angle_alpha 90.000000
_cell_angle_beta 90.000000
_cell_angle_gamma 90.000000
_cell_volume 4772.562020
_symmetry_space_group_name_H-M "C M M M"
_symmetry_group_IT_number 65
_symmetry_cell_setting 'orthorhombic'
loop_
_space_group_symop_operation_xyz
x,y,z
-x,-y,z
x,-y,-z
-x,y,-z
-x,-y,-z
x,y,-z
-x,y,z
x,-y,z
1/2+x,1/2+y,z
1/2-x,1/2-y,z
1/2+x,1/2-y,-z
1/2-x,1/2+y,-z
1/2-x,1/2-y,-z
1/2+x,1/2+y,-z
1/2-x,1/2+y,z
1/2+x,1/2-y,z
loop_
_atom_site_type_symbol
_atom_site_label
_atom_site_fract_x
_atom_site_fract_y
_atom_site_fract_z
Si Si1 0.829953 0.916539 0.091870
Si Si2 0.828658 0.826137 0.000000
Si Si3 0.830303 0.677925 0.724814
Si Si4 0.334627 0.585784 0.347534
Si Si5 0.326570 0.580660 0.449670
Si Si6 0.670851 0.823159 0.834763
O O1 0.780674 0.871703 0.045848
O O2 0.735454 0.890360 0.136556
O O3 0.000000 0.904700 0.103408
O O4 0.795470 0.000000 0.082214
O O5 0.750000 0.750000 0.000000
O O6 0.000000 0.811764 0.000000
O O7 0.750000 0.750000 0.708023
O O8 0.771748 0.612085 0.693768
O O9 0.796857 0.660726 0.779698
O O10 0.000000 0.688564 0.715463
O O11 0.500000 0.611960 0.336948
O O12 0.328721 0.500000 0.348923
O O13 0.277756 0.616684 0.399346
O O14 0.277879 0.619777 0.500000
O O15 0.500000 0.576767 0.447594
O O16 0.262711 0.500000 0.451571
O O17 0.500000 0.814500 0.845324
O O18 0.750000 0.750000 0.851515
#
# Coordination Sequence:
#
# PCOD8272927 Si02
#       6
#    16   8  16  16  16  16
#     4  10  21  37  57  81 110 142 173 209 254 300
#     4  10  21  37  57  81 109 142 179 214 250 296
#     4  10  21  36  53  72  98 133 170 210 255 302
#     4   9  17  29  48  75 103 130 163 204 249 300
#     4   7  10  19  38  65  95 125 158 197 241 290
#     4  10  21  37  56  77 101 132 172 214 255 303
#
# _framework density 18.438734
#
# number of rings (size 3 to 8) (size 9 to 14) (size 15 to 20)
#    0.000    2.727    0.000    3.545    0.000    6.909 
#    0.000    3.636    0.000    2.727    0.000    2.545 
#    0.000    0.000    0.000    0.000    0.000    0.000 
#
# Total GULP energy -545286.295904 kJ/mol
# GULP energy per Si atom -12392.870361 kJ/mol
# Density = 1.839677 g / cm^3
# Si number density = 18.438734 Si / 1000 Ang^3
#
#
#
# Elastic Constant Matrix: (Units=GPa)
#
#
# Indices 1 2 3 4 5 6 
#
# 1 69.5369 40.2049 55.9713 0.0000 0.0000 0.0000
# 2 40.2049 84.4280 57.8887 0.0000 0.0000 0.0000
# 3 55.9713 57.8887 121.7523 0.0000 0.0000 0.0000
# 4 0.0000 0.0000 0.0000 17.0346 0.0000 0.0000
# 5 0.0000 0.0000 0.0000 0.0000 17.9867 0.0000
# 6 0.0000 0.0000 0.0000 0.0000 0.0000 30.1216
#
#
#
# Elastic Compliance Matrix: (Units=1/GPa)
#
#
# Indices 1 2 3 4 5 6 
#
# 1 0.024655 -0.005889 -0.008534 0.000000 0.000000 0.000000
# 2 -0.005889 0.018980 -0.006317 0.000000 0.000000 0.000000
# 3 -0.008534 -0.006317 0.015140 0.000000 0.000000 0.000000
# 4 0.000000 0.000000 0.000000 0.058704 0.000000 0.000000
# 5 0.000000 0.000000 0.000000 0.000000 0.055597 0.000000
# 6 0.000000 0.000000 0.000000 0.000000 0.000000 0.033199
#
#
# Mechanical properties :
#
#
# Convention : Reuss Voigt Hill
#
# Bulk Modulus (GPa) = 57.82154 64.87188 61.34671
# Shear Modulus (GPa) = 19.72221 21.13873 20.43047
#
# Velocity S-wave (km/s) = 3.27403 3.38957 3.33230
# Velocity P-wave (km/s) = 6.76160 7.11180 6.93891
#
# Compressibility (1/GPa) = 0.01729459
#
# Stress axis : x y z
#
# Youngs Moduli (GPa) = 40.55925 52.68640 66.04939
#
# Poissons Ratio (x) = 0.31029 0.56368
# Poissons Ratio (y) = 0.23887 0.41723
# Poissons Ratio (z) = 0.34614 0.33282
#
# Static dielectric constant tensor:
#      x y z
#    x 3.215970 0.000000 0.000000 
#    y 0.000000 3.106700 0.000000 
#    z 0.000000 0.000000 3.808210 
# 
# 
# High freq. dielectric constant tensor:
#      x y z
#    x 1.694640 0.000000 0.000000 
#    y 0.000000 1.686680 0.000000 
#    z 0.000000 0.000000 1.737350 
# 
# From -- ./inp_files/70957.got.cif
#   From: 2010.03.12/outbox.cif.g09.slc.cpg/sg65_36_cif.got.tgz:70957.got - 2010.04.10 20:52:16.
