data_PCOD8272937
_publ_section_title
;
Structure prediction by ZEFSAII (Michael W. Deem and Ramdas Pophale) SiO2 
 PCOD8272937
Probable space group: C M M M
;
_chemical_formula_sum "Si O2"
_cell_formula_units_Z 88
_cell_length_a 18.300294
_cell_length_b 9.361051
_cell_length_c 28.183433
_cell_angle_alpha 90.000000
_cell_angle_beta 90.000000
_cell_angle_gamma 90.000000
_cell_volume 4828.103497
_symmetry_space_group_name_H-M "C M M M"
_symmetry_group_IT_number 65
_symmetry_cell_setting 'orthorhombic'
loop_
_space_group_symop_operation_xyz
x,y,z
-x,-y,z
x,-y,-z
-x,y,-z
-x,-y,-z
x,y,-z
-x,y,z
x,-y,z
1/2+x,1/2+y,z
1/2-x,1/2-y,z
1/2+x,1/2-y,-z
1/2-x,1/2+y,-z
1/2-x,1/2-y,-z
1/2+x,1/2+y,-z
1/2-x,1/2+y,z
1/2+x,1/2-y,z
loop_
_atom_site_type_symbol
_atom_site_label
_atom_site_fract_x
_atom_site_fract_y
_atom_site_fract_z
Si Si1 0.674962 0.667271 0.718312
Si Si2 0.087362 0.339644 0.898487
Si Si3 0.419771 0.169906 0.000000
Si Si4 0.083652 0.832204 0.808847
Si Si5 0.677637 0.834535 0.444591
Si Si6 0.584743 0.663874 0.625205
O O1 0.691477 0.500000 0.721215
O O2 0.750000 0.750000 0.714501
O O3 0.631017 0.720406 0.764400
O O4 0.626925 0.705829 0.672769
O O5 0.114264 0.500000 0.887437
O O6 0.119433 0.286093 0.950047
O O7 0.116282 0.239282 0.856374
O O8 0.000000 0.334821 0.901688
O O9 0.500000 0.240753 0.000000
O O10 0.427821 0.000000 0.000000
O O11 0.000000 0.784765 0.799975
O O12 0.089206 0.000000 0.815785
O O13 0.661899 0.815411 0.500000
O O14 0.750000 0.750000 0.428819
O O15 0.609329 0.767137 0.417245
O O16 0.687586 0.000000 0.430789
O O17 0.500000 0.690022 0.635095
O O18 0.600031 0.500000 0.610550
#
# Coordination Sequence:
#
# PCOD8272937 Si02
#       6
#    16  16   8  16  16  16
#     4  10  21  36  53  73  98 129 165 204 247 296
#     4   8  13  22  38  61  89 121 156 192 231 279
#     4   7  10  18  33  55  86 121 152 185 229 279
#     4   9  17  30  47  67  94 126 157 193 241 292
#     4  10  21  37  57  81 110 143 177 213 253 297
#     4  10  21  37  57  80 106 137 172 210 254 304
#
# _framework density 18.226617999999998
#
# number of rings (size 3 to 8) (size 9 to 14) (size 15 to 20)
#    0.000    2.818    0.000    2.727    0.000    6.909 
#    0.000    2.273    0.000    6.000    0.000    0.636 
#    0.000    0.000    0.000    0.000    0.000    0.000 
#
# Total GULP energy -545420.443391 kJ/mol
# GULP energy per Si atom -12395.919168 kJ/mol
# Density = 1.818513 g / cm^3
# Si number density = 18.226618 Si / 1000 Ang^3
#
#
#
# Elastic Constant Matrix: (Units=GPa)
#
#
# Indices 1 2 3 4 5 6 
#
# 1 88.9904 46.0078 61.1301 0.0000 0.0000 0.0000
# 2 46.0078 69.1460 61.8134 0.0000 0.0000 0.0000
# 3 61.1301 61.8134 132.0254 0.0000 0.0000 0.0000
# 4 0.0000 0.0000 0.0000 32.7994 0.0000 0.0000
# 5 0.0000 0.0000 0.0000 0.0000 9.0551 0.0000
# 6 0.0000 0.0000 0.0000 0.0000 0.0000 24.9634
#
#
#
# Elastic Compliance Matrix: (Units=1/GPa)
#
#
# Indices 1 2 3 4 5 6 
#
# 1 0.018809 -0.008134 -0.004900 0.000000 0.000000 0.000000
# 2 -0.008134 0.028390 -0.009526 0.000000 0.000000 0.000000
# 3 -0.004900 -0.009526 0.014303 0.000000 0.000000 0.000000
# 4 0.000000 0.000000 0.000000 0.030488 0.000000 0.000000
# 5 0.000000 0.000000 0.000000 0.000000 0.110435 0.000000
# 6 0.000000 0.000000 0.000000 0.000000 0.000000 0.040059
#
#
# Mechanical properties :
#
#
# Convention : Reuss Voigt Hill
#
# Bulk Modulus (GPa) = 61.04511 69.78494 65.41502
# Shear Modulus (GPa) = 17.06109 21.44430 19.25270
#
# Velocity S-wave (km/s) = 3.06282 3.43379 3.25360
# Velocity P-wave (km/s) = 6.78769 7.35471 7.07688
#
# Compressibility (1/GPa) = 0.01638133
#
# Stress axis : x y z
#
# Youngs Moduli (GPa) = 53.16698 35.22382 69.91434
#
# Poissons Ratio (x) = 0.28651 0.34261
# Poissons Ratio (y) = 0.43246 0.66599
# Poissons Ratio (z) = 0.26054 0.33553
#
# Static dielectric constant tensor:
#      x y z
#    x 3.049490 0.000000 0.000000 
#    y 0.000000 3.273190 0.000000 
#    z 0.000000 0.000000 3.730980 
# 
# 
# High freq. dielectric constant tensor:
#      x y z
#    x 1.670650 0.000000 0.000000 
#    y 0.000000 1.692350 0.000000 
#    z 0.000000 0.000000 1.726960 
# 
# From -- ./inp_files/77796.got.cif
#   From: 2010.03.12/outbox.cif.g09.slc.cpg/sg65_39_cif.got.tgz:77796.got - 2010.04.10 20:52:16.
