data_PCOD8272806
_publ_section_title
;
Structure prediction by ZEFSAII (Michael W. Deem and Ramdas Pophale) SiO2 
 PCOD8272806
Probable space group: C M M M
;
_chemical_formula_sum "Si O2"
_cell_formula_units_Z 96
_cell_length_a 25.123261
_cell_length_b 23.392342
_cell_length_c 8.727242
_cell_angle_alpha 90.000000
_cell_angle_beta 90.000000
_cell_angle_gamma 90.000000
_cell_volume 5128.929550
_symmetry_space_group_name_H-M "C M M M"
_symmetry_group_IT_number 65
_symmetry_cell_setting 'orthorhombic'
loop_
_space_group_symop_operation_xyz
x,y,z
-x,-y,z
x,-y,-z
-x,y,-z
-x,-y,-z
x,y,-z
-x,y,z
x,-y,z
1/2+x,1/2+y,z
1/2-x,1/2-y,z
1/2+x,1/2-y,-z
1/2-x,1/2+y,-z
1/2-x,1/2-y,-z
1/2+x,1/2+y,-z
1/2-x,1/2+y,z
1/2+x,1/2-y,z
loop_
_atom_site_type_symbol
_atom_site_label
_atom_site_fract_x
_atom_site_fract_y
_atom_site_fract_z
Si Si1 0.651945 0.108336 0.675425
Si Si2 0.941232 0.804451 0.182258
Si Si3 0.438343 0.175950 0.824021
Si Si4 0.299283 0.000000 0.178066
Si Si5 0.816594 0.000000 0.680649
Si Si6 0.747885 0.684809 0.676318
Si Si7 0.346517 0.616915 0.819406
O O1 0.651066 0.087627 0.500000
O O2 0.594337 0.131736 0.721382
O O3 0.693936 0.159012 0.700609
O O4 0.666190 0.055248 0.782270
O O5 0.928132 0.740230 0.238321
O O6 0.897153 0.848111 0.246255
O O7 0.000000 0.822999 0.241512
O O8 0.941088 0.804033 0.000000
O O9 0.500000 0.159711 0.807495
O O10 0.419801 0.170803 0.000000
O O11 0.244767 0.000000 0.271679
O O12 0.284660 0.000000 0.000000
O O13 0.847306 0.055185 0.742070
O O14 0.818647 0.000000 0.500000
O O15 0.729212 0.680204 0.500000
O O16 0.750000 0.750000 0.732258
O O17 0.707196 0.650407 0.781279
O O18 0.350297 0.608639 0.000000
#
# Coordination Sequence:
#
# PCOD8272806 Si02
#       7
#    16  16  16   8   8  16  16
#     4  11  22  36  56  82 115 151 185 226 279 336
#     4   8  16  33  57  85 116 148 185 233 284 328
#     4   9  18  35  59  85 115 151 188 230 279 328
#     4  12  24  40  61  82 107 144 192 237 276 333
#     4  12  24  40  57  76 111 153 186 229 288 344
#     4  10  21  35  52  78 115 152 180 220 282 342
#     4  11  21  34  57  85 109 143 192 238 278 330
#
# _framework density 18.717355999999999
#
# number of rings (size 3 to 8) (size 9 to 14) (size 15 to 20)
#    0.000    1.833    1.667    4.500    0.000    1.333 
#    0.000    1.667    0.000    9.000    0.000    0.000 
#    0.000    0.000    0.000    0.000    0.000    0.000 
#
# Total GULP energy -595358.559930 kJ/mol
# GULP energy per Si atom -12403.303332 kJ/mol
# Density = 1.867475 g / cm^3
# Si number density = 18.717356 Si / 1000 Ang^3
#
#
#
# Elastic Constant Matrix: (Units=GPa)
#
#
# Indices 1 2 3 4 5 6 
#
# 1 82.7718 27.3088 17.5285 0.0000 0.0000 0.0000
# 2 27.3088 98.8308 21.2188 0.0000 0.0000 0.0000
# 3 17.5285 21.2188 66.1339 0.0000 0.0000 0.0000
# 4 0.0000 0.0000 0.0000 22.0145 0.0000 0.0000
# 5 0.0000 0.0000 0.0000 0.0000 20.0309 0.0000
# 6 0.0000 0.0000 0.0000 0.0000 0.0000 27.7777
#
#
#
# Elastic Compliance Matrix: (Units=1/GPa)
#
#
# Indices 1 2 3 4 5 6 
#
# 1 0.013696 -0.003227 -0.002595 0.000000 0.000000 0.000000
# 2 -0.003227 0.011627 -0.002875 0.000000 0.000000 0.000000
# 3 -0.002595 -0.002875 0.016731 0.000000 0.000000 0.000000
# 4 0.000000 0.000000 0.000000 0.045425 0.000000 0.000000
# 5 0.000000 0.000000 0.000000 0.000000 0.049923 0.000000
# 6 0.000000 0.000000 0.000000 0.000000 0.000000 0.036000
#
#
# Mechanical properties :
#
#
# Convention : Reuss Voigt Hill
#
# Bulk Modulus (GPa) = 40.55160 42.20542 41.37851
# Shear Modulus (GPa) = 25.12364 26.07664 25.60014
#
# Velocity S-wave (km/s) = 3.66767 3.73658 3.70228
# Velocity P-wave (km/s) = 6.29666 6.41980 6.35853
#
# Compressibility (1/GPa) = 0.02465994
#
# Stress axis : x y z
#
# Youngs Moduli (GPa) = 73.01593 86.00394 59.76932
#
# Poissons Ratio (x) = 0.27756 0.15507
# Poissons Ratio (y) = 0.23565 0.17185
# Poissons Ratio (z) = 0.18944 0.24728
#
# Static dielectric constant tensor:
#      x y z
#    x 3.512280 0.000000 0.000000 
#    y 0.000000 3.599210 0.000000 
#    z 0.000000 0.000000 3.289240 
# 
# 
# High freq. dielectric constant tensor:
#      x y z
#    x 1.725140 0.000000 0.000000 
#    y 0.000000 1.731210 0.000000 
#    z 0.000000 0.000000 1.715810 
# 
# From -- ./inp_files/14353.got.cif
#   From: 2010.03.12/outbox.cif.g09.slc.cpg/sg65_8_cif.got.tgz:14353.got - 2010.04.10 20:52:16.
