data_PCOD8272626
_publ_section_title
;
Structure prediction by ZEFSAII (Michael W. Deem and Ramdas Pophale) SiO2 
 PCOD8272626
Probable space group: C M M M
;
_chemical_formula_sum "Si O2"
_cell_formula_units_Z 96
_cell_length_a 18.702247
_cell_length_b 15.100989
_cell_length_c 18.168774
_cell_angle_alpha 90.000000
_cell_angle_beta 90.000000
_cell_angle_gamma 90.000000
_cell_volume 5131.269235
_symmetry_space_group_name_H-M "C M M M"
_symmetry_group_IT_number 65
_symmetry_cell_setting 'orthorhombic'
loop_
_space_group_symop_operation_xyz
x,y,z
-x,-y,z
x,-y,-z
-x,y,-z
-x,-y,-z
x,y,-z
-x,y,z
x,-y,z
1/2+x,1/2+y,z
1/2-x,1/2-y,z
1/2+x,1/2-y,-z
1/2-x,1/2+y,-z
1/2-x,1/2-y,-z
1/2+x,1/2+y,-z
1/2-x,1/2+y,z
1/2+x,1/2-y,z
loop_
_atom_site_type_symbol
_atom_site_label
_atom_site_fract_x
_atom_site_fract_y
_atom_site_fract_z
Si Si1 0.919773 0.397186 0.687584
Si Si2 0.779510 0.152875 0.080778
Si Si3 0.420035 0.397368 0.154451
Si Si4 0.852271 0.896464 0.694179
Si Si5 0.213511 0.599976 0.226256
Si Si6 0.582568 0.262263 0.583584
O O1 0.908576 0.500000 0.664678
O O2 0.864880 0.363559 0.751378
O O3 0.905781 0.335782 0.616888
O O4 0.000000 0.382863 0.718604
O O5 0.750000 0.250000 0.074603
O O6 0.861874 0.156667 0.107482
O O7 0.728500 0.103894 0.139152
O O8 0.775036 0.107092 0.000000
O O9 0.500000 0.366895 0.132233
O O10 0.407150 0.500000 0.135382
O O11 0.410981 0.383015 0.241800
O O12 0.777688 0.856377 0.726648
O O13 0.872312 0.838051 0.624146
O O14 0.847686 0.000000 0.671206
O O15 0.214908 0.500000 0.251525
O O16 0.609888 0.258350 0.500000
O O17 0.500000 0.289956 0.587947
#
# Coordination Sequence:
#
# PCOD8272626 Si02
#       6
#    16  16  16  16  16  16
#     4   9  19  36  56  77 100 130 177 231 268 300
#     4  10  21  34  49  76 111 142 171 208 262 321
#     4   9  18  33  55  80 103 137 184 225 263 308
#     4   9  18  33  52  77 110 141 172 211 255 313
#     4   9  19  35  56  78  98 133 179 215 257 310
#     4  10  21  34  51  78 106 138 176 208 258 322
#
# _framework density 18.708821
#
# number of rings (size 3 to 8) (size 9 to 14) (size 15 to 20)
#    0.000    2.667    0.000    2.000    4.667    3.333 
#    0.000    5.000    0.000    4.500    0.000    2.333 
#    0.000    0.000    0.000    0.000    0.000    0.000 
#
# Total GULP energy -594829.242645 kJ/mol
# GULP energy per Si atom -12392.275888 kJ/mol
# Density = 1.866624 g / cm^3
# Si number density = 18.708821 Si / 1000 Ang^3
#
#
#
# Elastic Constant Matrix: (Units=GPa)
#
#
# Indices 1 2 3 4 5 6 
#
# 1 130.1870 45.2468 82.9432 0.0000 0.0000 0.0000
# 2 45.2468 58.2350 40.7447 0.0000 0.0000 0.0000
# 3 82.9432 40.7447 147.3904 0.0000 0.0000 0.0000
# 4 0.0000 0.0000 0.0000 13.8474 0.0000 0.0000
# 5 0.0000 0.0000 0.0000 0.0000 20.0896 0.0000
# 6 0.0000 0.0000 0.0000 0.0000 0.0000 25.4206
#
#
#
# Elastic Compliance Matrix: (Units=1/GPa)
#
#
# Indices 1 2 3 4 5 6 
#
# 1 0.013716 -0.006517 -0.005917 0.000000 0.000000 0.000000
# 2 -0.006517 0.024386 -0.003074 0.000000 0.000000 0.000000
# 3 -0.005917 -0.003074 0.010964 0.000000 0.000000 0.000000
# 4 0.000000 0.000000 0.000000 0.072216 0.000000 0.000000
# 5 0.000000 0.000000 0.000000 0.000000 0.049777 0.000000
# 6 0.000000 0.000000 0.000000 0.000000 0.000000 0.039338
#
#
# Mechanical properties :
#
#
# Convention : Reuss Voigt Hill
#
# Bulk Modulus (GPa) = 55.40048 74.85355 65.12701
# Shear Modulus (GPa) = 20.20773 22.99669 21.60221
#
# Velocity S-wave (km/s) = 3.29008 3.50978 3.40171
# Velocity P-wave (km/s) = 6.64147 7.51807 7.09332
#
# Compressibility (1/GPa) = 0.01805039
#
# Stress axis : x y z
#
# Youngs Moduli (GPa) = 72.90702 41.00714 91.20540
#
# Poissons Ratio (x) = 0.26724 0.53967
# Poissons Ratio (y) = 0.47514 0.28035
# Poissons Ratio (z) = 0.43140 0.12605
#
# Static dielectric constant tensor:
#      x y z
#    x 3.847650 0.000000 0.000000 
#    y 0.000000 3.337160 0.000000 
#    z 0.000000 0.000000 3.550180 
# 
# 
# High freq. dielectric constant tensor:
#      x y z
#    x 1.730470 0.000000 0.000000 
#    y 0.000000 1.719270 0.000000 
#    z 0.000000 0.000000 1.708310 
# 
# From -- ./inp_files/44110.got.cif
#   From: 2010.03.12/outbox.cif.g09.slc.cpg/sg65_23_cif.got.tgz:44110.got - 2010.04.10 20:52:16.
