data_PCOD8272842
_publ_section_title
;
Structure prediction by ZEFSAII (Michael W. Deem and Ramdas Pophale) SiO2 
 PCOD8272842
Probable space group: C M M M
;
_chemical_formula_sum "Si O2"
_cell_formula_units_Z 88
_cell_length_a 13.981040
_cell_length_b 27.036793
_cell_length_c 11.928035
_cell_angle_alpha 90.000000
_cell_angle_beta 90.000000
_cell_angle_gamma 90.000000
_cell_volume 4508.826864
_symmetry_space_group_name_H-M "C M M M"
_symmetry_group_IT_number 65
_symmetry_cell_setting 'orthorhombic'
loop_
_space_group_symop_operation_xyz
x,y,z
-x,-y,z
x,-y,-z
-x,y,-z
-x,-y,-z
x,y,-z
-x,y,z
x,-y,z
1/2+x,1/2+y,z
1/2-x,1/2-y,z
1/2+x,1/2-y,-z
1/2-x,1/2+y,-z
1/2-x,1/2-y,-z
1/2+x,1/2+y,-z
1/2-x,1/2+y,z
1/2+x,1/2-y,z
loop_
_atom_site_type_symbol
_atom_site_label
_atom_site_fract_x
_atom_site_fract_y
_atom_site_fract_z
Si Si1 0.694659 0.589431 0.727183
Si Si2 0.388314 0.215971 0.121842
Si Si3 0.610695 0.945600 0.000000
Si Si4 0.612629 0.500000 0.866881
Si Si5 0.390283 0.113386 0.778212
Si Si6 0.612108 0.555333 0.500000
Si Si7 0.610690 0.675087 0.131004
O O1 0.662924 0.547031 0.812534
O O2 0.809198 0.590363 0.697000
O O3 0.642351 0.585314 0.609327
O O4 0.671674 0.640492 0.788564
O O5 0.500000 0.224623 0.104353
O O6 0.372188 0.172270 0.210857
O O7 0.348408 0.269756 0.159004
O O8 0.344597 0.200963 0.000000
O O9 0.637055 0.912947 0.106103
O O10 0.500000 0.956570 0.000000
O O11 0.662825 0.000000 0.000000
O O12 0.500000 0.500000 0.837206
O O13 0.628374 0.500000 0.000000
O O14 0.500000 0.102236 0.739247
O O15 0.657603 0.500000 0.500000
O O16 0.500000 0.550522 0.500000
O O17 0.500000 0.668538 0.163107
O O18 0.626011 0.662265 0.000000
#
# Coordination Sequence:
#
# PCOD8272842 Si02
#       7
#    16  16   8   8  16   8  16
#     4  12  24  37  61  86 113 152 200 240 294 349
#     4   8  14  29  52  79 119 167 200 230 284 356
#     4   9  18  30  48  73 112 162 200 234 273 328
#     4  11  24  39  58  88 123 147 173 231 309 372
#     4  10  21  35  53  82 122 161 198 236 284 345
#     4  11  24  46  69  84 107 149 202 250 289 355
#     4   9  18  32  54  87 123 153 191 246 304 359
#
# _framework density 19.517272999999999
#
# number of rings (size 3 to 8) (size 9 to 14) (size 15 to 20)
#    0.000    2.091    1.818    3.273    3.818    2.182 
#    0.000    2.273    0.000    2.727    0.000    3.818 
#    0.000    0.000    0.000    0.000    0.000    0.000 
#
# Total GULP energy -545188.547435 kJ/mol
# GULP energy per Si atom -12390.648805 kJ/mol
# Density = 1.947285 g / cm^3
# Si number density = 19.517273 Si / 1000 Ang^3
#
#
#
# Elastic Constant Matrix: (Units=GPa)
#
#
# Indices 1 2 3 4 5 6 
#
# 1 108.7554 36.4414 31.8962 0.0000 0.0000 0.0000
# 2 36.4414 112.6250 31.7901 0.0000 0.0000 0.0000
# 3 31.8962 31.7901 72.6813 0.0000 0.0000 0.0000
# 4 0.0000 0.0000 0.0000 27.1330 0.0000 0.0000
# 5 0.0000 0.0000 0.0000 0.0000 -8.2793 0.0000
# 6 0.0000 0.0000 0.0000 0.0000 0.0000 19.9609
#
#
#
# Elastic Compliance Matrix: (Units=1/GPa)
#
#
# Indices 1 2 3 4 5 6 
#
# 1 0.011156 -0.002542 -0.003784 0.000000 0.000000 0.000000
# 2 -0.002542 0.010709 -0.003568 0.000000 0.000000 0.000000
# 3 -0.003784 -0.003568 0.016980 0.000000 0.000000 0.000000
# 4 0.000000 0.000000 0.000000 0.036855 0.000000 0.000000
# 5 0.000000 0.000000 0.000000 0.000000 -0.120784 0.000000
# 6 0.000000 0.000000 0.000000 0.000000 0.000000 0.050098
#
#
# Mechanical properties :
#
#
# Convention : Reuss Voigt Hill
#
# Bulk Modulus (GPa) = 52.47548 54.92411 53.69979
# Shear Modulus (GPa) = 160.48342 20.69188 90.58765
#
# Velocity S-wave (km/s) = 9.07771 3.25958 6.82018
# Velocity P-wave (km/s) = 11.69693 6.50913 9.46539
#
# Compressibility (1/GPa) = 0.01905652
#
# Stress axis : x y z
#
# Youngs Moduli (GPa) = 89.63401 93.38232 58.89195
#
# Poissons Ratio (x) = 0.23735 0.22287
# Poissons Ratio (y) = 0.22782 0.21015
# Poissons Ratio (z) = 0.33920 0.33323
#
# Static dielectric constant tensor:
#      x y z
#    x 3.759920 0.000000 0.000000 
#    y 0.000000 3.879900 0.000000 
#    z 0.000000 0.000000 4.043350 
# 
# 
# High freq. dielectric constant tensor:
#      x y z
#    x 1.777650 0.000000 0.000000 
#    y 0.000000 1.775480 0.000000 
#    z 0.000000 0.000000 1.694270 
# 
# From -- ./inp_files/25171.got.cif
#   From: 2010.03.12/outbox.cif.g09.slc.cpg/sg65_13_cif.got.tgz:25171.got - 2010.04.10 20:52:16.
