data_PCOD8272902
_publ_section_title
;
Structure prediction by ZEFSAII (Michael W. Deem and Ramdas Pophale) SiO2 
 PCOD8272902
Probable space group: C M M M
;
_chemical_formula_sum "Si O2"
_cell_formula_units_Z 72
_cell_length_a 9.176845
_cell_length_b 19.602015
_cell_length_c 22.365151
_cell_angle_alpha 90.000000
_cell_angle_beta 90.000000
_cell_angle_gamma 90.000000
_cell_volume 4023.147435
_symmetry_space_group_name_H-M "C M M M"
_symmetry_group_IT_number 65
_symmetry_cell_setting 'orthorhombic'
loop_
_space_group_symop_operation_xyz
x,y,z
-x,-y,z
x,-y,-z
-x,y,-z
-x,-y,-z
x,y,-z
-x,y,z
x,-y,z
1/2+x,1/2+y,z
1/2-x,1/2-y,z
1/2+x,1/2-y,-z
1/2-x,1/2+y,-z
1/2-x,1/2-y,-z
1/2+x,1/2+y,-z
1/2-x,1/2+y,z
1/2+x,1/2-y,z
loop_
_atom_site_type_symbol
_atom_site_label
_atom_site_fract_x
_atom_site_fract_y
_atom_site_fract_z
Si Si1 0.330603 0.682241 0.148750
Si Si2 0.170107 0.818387 0.287210
Si Si3 0.166075 0.579514 0.931756
Si Si4 0.828120 0.574290 0.500000
Si Si5 0.332161 0.918836 0.370575
O O1 0.500000 0.692868 0.136982
O O2 0.250000 0.750000 0.126172
O O3 0.295971 0.667969 0.217912
O O4 0.275765 0.618241 0.111339
O O5 0.250000 0.750000 0.309544
O O6 0.229384 0.883512 0.322475
O O7 0.000000 0.809558 0.299733
O O8 0.196743 0.500000 0.923363
O O9 0.000000 0.596945 0.914139
O O10 0.195912 0.601356 0.000000
O O11 0.753073 0.500000 0.500000
O O12 0.786154 0.610295 0.563030
O O13 0.000000 0.563689 0.500000
O O14 0.500000 0.900777 0.356479
O O15 0.308151 0.000000 0.367648
#
# Coordination Sequence:
#
# PCOD8272902 Si02
#       5
#    16  16  16   8  16
#     4  10  21  36  54  75 100 133 171 210 251 296
#     4  10  21  36  52  72 101 134 169 210 253 297
#     4   9  19  36  56  78 105 135 166 203 247 294
#     4   7  12  26  48  73 100 129 163 203 244 291
#     4   9  17  31  53  78 102 131 167 205 248 299
#
# _framework density 17.896436000000001
#
# number of rings (size 3 to 8) (size 9 to 14) (size 15 to 20)
#    0.000    2.778    0.000    3.333    0.000    5.333 
#    0.000    6.667    0.000    2.000    0.000    0.000 
#    0.000    0.000    0.000    0.000    0.000    0.000 
#
# Total GULP energy -446265.727222 kJ/mol
# GULP energy per Si atom -12396.270201 kJ/mol
# Density = 1.785570 g / cm^3
# Si number density = 17.896436 Si / 1000 Ang^3
#
#
#
# Elastic Constant Matrix: (Units=GPa)
#
#
# Indices 1 2 3 4 5 6 
#
# 1 90.2241 48.6191 57.3104 0.0000 0.0000 0.0000
# 2 48.6191 71.5027 53.4054 0.0000 0.0000 0.0000
# 3 57.3104 53.4054 88.7153 0.0000 0.0000 0.0000
# 4 0.0000 0.0000 0.0000 9.2608 0.0000 0.0000
# 5 0.0000 0.0000 0.0000 0.0000 28.6518 0.0000
# 6 0.0000 0.0000 0.0000 0.0000 0.0000 35.6343
#
#
#
# Elastic Compliance Matrix: (Units=1/GPa)
#
#
# Indices 1 2 3 4 5 6 
#
# 1 0.020775 -0.007453 -0.008934 0.000000 0.000000 0.000000
# 2 -0.007453 0.028085 -0.012092 0.000000 0.000000 0.000000
# 3 -0.008934 -0.012092 0.024322 0.000000 0.000000 0.000000
# 4 0.000000 0.000000 0.000000 0.107983 0.000000 0.000000
# 5 0.000000 0.000000 0.000000 0.000000 0.034902 0.000000
# 6 0.000000 0.000000 0.000000 0.000000 0.000000 0.028063
#
#
# Mechanical properties :
#
#
# Convention : Reuss Voigt Hill
#
# Bulk Modulus (GPa) = 61.63666 63.23465 62.43566
# Shear Modulus (GPa) = 16.31351 20.78319 18.54835
#
# Velocity S-wave (km/s) = 3.02247 3.41149 3.22285
# Velocity P-wave (km/s) = 6.83344 7.13639 6.98656
#
# Compressibility (1/GPa) = 0.01622411
#
# Stress axis : x y z
#
# Youngs Moduli (GPa) = 48.13580 35.60638 41.11463
#
# Poissons Ratio (x) = 0.26539 0.36730
# Poissons Ratio (y) = 0.35877 0.49715
# Poissons Ratio (z) = 0.43003 0.43054
#
# Static dielectric constant tensor:
#      x y z
#    x 3.195070 0.000000 0.000000 
#    y 0.000000 3.105210 0.000000 
#    z 0.000000 0.000000 3.469860 
# 
# 
# High freq. dielectric constant tensor:
#      x y z
#    x 1.685410 0.000000 0.000000 
#    y 0.000000 1.678070 0.000000 
#    z 0.000000 0.000000 1.699970 
# 
# From -- ./inp_files/59216.got.cif
#   From: 2010.03.12/outbox.cif.g09.slc.cpg/sg65_30_cif.got.tgz:59216.got - 2010.04.10 20:52:16.
