data_PCOD8272021
_publ_section_title
;
Structure prediction by ZEFSAII (Michael W. Deem and Ramdas Pophale) SiO2 
 PCOD8272021
Probable space group: C M M M
;
_chemical_formula_sum "Si O2"
_cell_formula_units_Z 96
_cell_length_a 18.909890
_cell_length_b 8.835730
_cell_length_c 30.524765
_cell_angle_alpha 90.000000
_cell_angle_beta 90.000000
_cell_angle_gamma 90.000000
_cell_volume 5100.159615
_symmetry_space_group_name_H-M "C M M M"
_symmetry_group_IT_number 65
_symmetry_cell_setting 'orthorhombic'
loop_
_space_group_symop_operation_xyz
x,y,z
-x,-y,z
x,-y,-z
-x,y,-z
-x,-y,-z
x,y,-z
-x,y,z
x,-y,z
1/2+x,1/2+y,z
1/2-x,1/2-y,z
1/2+x,1/2-y,-z
1/2-x,1/2+y,-z
1/2-x,1/2-y,-z
1/2+x,1/2+y,-z
1/2-x,1/2+y,z
1/2+x,1/2-y,z
loop_
_atom_site_type_symbol
_atom_site_label
_atom_site_fract_x
_atom_site_fract_y
_atom_site_fract_z
Si Si1 0.174144 0.175463 0.706821
Si Si2 0.917866 0.172936 0.550136
Si Si3 0.326862 0.177382 0.621943
Si Si4 0.417678 0.822723 0.878690
Si Si5 0.673130 0.676594 0.803769
Si Si6 0.676726 0.677408 0.050632
O O1 0.250000 0.250000 0.709440
O O2 0.134440 0.257167 0.666132
O O3 0.139971 0.199719 0.754874
O O4 0.180909 0.000000 0.695367
O O5 0.896388 0.203705 0.500000
O O6 0.873969 0.286151 0.580040
O O7 0.000000 0.207093 0.557232
O O8 0.900472 0.000000 0.562826
O O9 0.250000 0.250000 0.615790
O O10 0.318377 0.000000 0.626679
O O11 0.500000 0.784302 0.876390
O O12 0.381555 0.753764 0.836069
O O13 0.387660 0.747796 0.922629
O O14 0.402786 0.000000 0.880271
O O15 0.680803 0.500000 0.815006
O O16 0.750000 0.750000 0.808934
O O17 0.680967 0.500000 0.059323
O O18 0.750000 0.750000 0.067148
O O19 0.663208 0.716398 0.000000
#
# Coordination Sequence:
#
# PCOD8272021 Si02
#       6
#    16  16  16  16  16  16
#     4   9  17  31  52  78 106 137 174 217 265 314
#     4   9  19  37  58  77 101 136 176 218 265 317
#     4  11  21  33  53  80 110 141 174 217 265 314
#     4  11  24  39  55  78 111 148 182 221 269 317
#     4  10  20  35  58  83 107 139 179 222 265 314
#     4  10  21  38  61  86 111 141 179 223 267 315
#
# _framework density 18.822939999999999
#
# number of rings (size 3 to 8) (size 9 to 14) (size 15 to 20)
#    0.000    2.000    0.000    5.500    0.000    5.667 
#    0.000    3.333    0.000    1.000    0.000    0.000 
#    0.000    0.000    0.000    0.000    0.000    0.000 
#
# Total GULP energy -595129.040544 kJ/mol
# GULP energy per Si atom -12398.521678 kJ/mol
# Density = 1.878010 g / cm^3
# Si number density = 18.822940 Si / 1000 Ang^3
#
#
#
# Elastic Constant Matrix: (Units=GPa)
#
#
# Indices 1 2 3 4 5 6 
#
# 1 82.6350 58.0973 64.3050 0.0000 0.0000 0.0000
# 2 58.0973 140.2316 70.5406 0.0000 0.0000 0.0000
# 3 64.3050 70.5406 133.9807 0.0000 0.0000 0.0000
# 4 0.0000 0.0000 0.0000 34.8174 0.0000 0.0000
# 5 0.0000 0.0000 0.0000 0.0000 1.7318 0.0000
# 6 0.0000 0.0000 0.0000 0.0000 0.0000 28.4152
#
#
#
# Elastic Compliance Matrix: (Units=1/GPa)
#
#
# Indices 1 2 3 4 5 6 
#
# 1 0.021705 -0.005104 -0.007731 0.000000 0.000000 0.000000
# 2 -0.005104 0.010900 -0.003289 0.000000 0.000000 0.000000
# 3 -0.007731 -0.003289 0.012906 0.000000 0.000000 0.000000
# 4 0.000000 0.000000 0.000000 0.028721 0.000000 0.000000
# 5 0.000000 0.000000 0.000000 0.000000 0.577428 0.000000
# 6 0.000000 0.000000 0.000000 0.000000 0.000000 0.035192
#
#
# Mechanical properties :
#
#
# Convention : Reuss Voigt Hill
#
# Bulk Modulus (GPa) = 75.39079 82.52590 78.95834
# Shear Modulus (GPa) = 6.91064 23.91984 15.41524
#
# Velocity S-wave (km/s) = 1.91817 3.56867 2.86485
# Velocity P-wave (km/s) = 6.71159 7.80506 7.27889
#
# Compressibility (1/GPa) = 0.01326422
#
# Stress axis : x y z
#
# Youngs Moduli (GPa) = 46.07134 91.74176 77.48379
#
# Poissons Ratio (x) = 0.46823 0.59899
# Poissons Ratio (y) = 0.23514 0.25487
# Poissons Ratio (z) = 0.35616 0.30177
#
# Static dielectric constant tensor:
#      x y z
#    x 3.150330 0.000000 0.000000 
#    y 0.000000 3.579830 0.000000 
#    z 0.000000 0.000000 4.033650 
# 
# 
# High freq. dielectric constant tensor:
#      x y z
#    x 1.699180 0.000000 0.000000 
#    y 0.000000 1.746840 0.000000 
#    z 0.000000 0.000000 1.753160 
# 
# From -- ./inp_files/75318.got.cif
#   From: 2010.03.12/outbox.cif.g09.slc.cpg/sg65_38_cif.got.tgz:75318.got - 2010.04.10 20:52:16.
