data_PCOD8272415
_publ_section_title
;
Structure prediction by ZEFSAII (Michael W. Deem and Ramdas Pophale) SiO2 
 PCOD8272415
Probable space group: C M M M
;
_chemical_formula_sum "Si O2"
_cell_formula_units_Z 88
_cell_length_a 17.863049
_cell_length_b 28.226367
_cell_length_c 9.153054
_cell_angle_alpha 90.000000
_cell_angle_beta 90.000000
_cell_angle_gamma 90.000000
_cell_volume 4615.051992
_symmetry_space_group_name_H-M "C M M M"
_symmetry_group_IT_number 65
_symmetry_cell_setting 'orthorhombic'
loop_
_space_group_symop_operation_xyz
x,y,z
-x,-y,z
x,-y,-z
-x,y,-z
-x,-y,-z
x,y,-z
-x,y,z
x,-y,z
1/2+x,1/2+y,z
1/2-x,1/2-y,z
1/2+x,1/2-y,-z
1/2-x,1/2+y,-z
1/2-x,1/2-y,-z
1/2+x,1/2+y,-z
1/2-x,1/2+y,z
1/2+x,1/2-y,z
loop_
_atom_site_type_symbol
_atom_site_label
_atom_site_fract_x
_atom_site_fract_y
_atom_site_fract_z
Si Si1 0.087594 0.213886 0.336024
Si Si2 0.819170 0.284053 0.830794
Si Si3 0.297917 0.882215 0.330366
Si Si4 0.085036 0.555525 0.166431
Si Si5 0.000000 0.944674 0.828540
Si Si6 0.629703 0.389496 0.330371
O O1 0.116310 0.224671 0.500000
O O2 0.108238 0.257771 0.233034
O O3 0.123474 0.164986 0.278140
O O4 0.000000 0.206625 0.332232
O O5 0.750000 0.250000 0.798960
O O6 0.806375 0.333447 0.753710
O O7 0.832472 0.293905 0.000000
O O8 0.310739 0.871797 0.500000
O O9 0.359542 0.918991 0.276804
O O10 0.215695 0.904887 0.303520
O O11 0.093152 0.500000 0.192332
O O12 0.000000 0.571693 0.199600
O O13 0.106060 0.568688 0.000000
O O14 0.924716 0.922596 0.762338
O O15 0.000000 0.000000 0.791856
O O16 0.000000 0.934628 0.000000
O O17 0.606438 0.393783 0.500000
#
# Coordination Sequence:
#
# PCOD8272415 Si02
#       6
#    16  16  16  16   8  16
#     4  10  20  37  60  83 111 151 199 242 288 346
#     4  11  23  37  56  85 119 155 195 238 290 345
#     4  11  23  38  62  92 123 157 198 248 297 351
#     4   9  20  41  66  89 118 157 196 241 301 361
#     4  11  25  41  59  87 121 157 201 253 302 351
#     4  10  21  39  61  85 114 155 200 243 297 356
#
# _framework density 19.068041999999998
#
# number of rings (size 3 to 8) (size 9 to 14) (size 15 to 20)
#    0.000    1.727    2.727    1.909    0.000    6.182 
#    0.000    4.545    0.000    0.000    0.000    0.000 
#    0.000    0.000    0.000    0.000    0.000    0.000 
#
# Total GULP energy -545729.555312 kJ/mol
# GULP energy per Si atom -12402.944439 kJ/mol
# Density = 1.902464 g / cm^3
# Si number density = 19.068042 Si / 1000 Ang^3
#
#
#
# Elastic Constant Matrix: (Units=GPa)
#
#
# Indices 1 2 3 4 5 6 
#
# 1 107.1040 52.0702 57.2778 0.0000 0.0000 0.0000
# 2 52.0702 84.7718 53.2375 0.0000 0.0000 0.0000
# 3 57.2778 53.2375 88.1686 0.0000 0.0000 0.0000
# 4 0.0000 0.0000 0.0000 39.7179 0.0000 0.0000
# 5 0.0000 0.0000 0.0000 0.0000 16.7822 0.0000
# 6 0.0000 0.0000 0.0000 0.0000 0.0000 31.6085
#
#
#
# Elastic Compliance Matrix: (Units=1/GPa)
#
#
# Indices 1 2 3 4 5 6 
#
# 1 0.015604 -0.005185 -0.007007 0.000000 0.000000 0.000000
# 2 -0.005185 0.020724 -0.009146 0.000000 0.000000 0.000000
# 3 -0.007007 -0.009146 0.021416 0.000000 0.000000 0.000000
# 4 0.000000 0.000000 0.000000 0.025178 0.000000 0.000000
# 5 0.000000 0.000000 0.000000 0.000000 0.059587 0.000000
# 6 0.000000 0.000000 0.000000 0.000000 0.000000 0.031637
#
#
# Mechanical properties :
#
#
# Convention : Reuss Voigt Hill
#
# Bulk Modulus (GPa) = 66.35239 67.24615 66.79927
# Shear Modulus (GPa) = 22.53837 25.45232 23.99535
#
# Velocity S-wave (km/s) = 3.44175 3.65748 3.55125
# Velocity P-wave (km/s) = 7.11810 7.29240 7.20578
#
# Compressibility (1/GPa) = 0.01507105
#
# Stress axis : x y z
#
# Youngs Moduli (GPa) = 64.08481 48.25210 46.69402
#
# Poissons Ratio (x) = 0.25016 0.32717
# Poissons Ratio (y) = 0.33225 0.42705
# Poissons Ratio (z) = 0.44902 0.44130
#
# Static dielectric constant tensor:
#      x y z
#    x 3.669700 0.000000 0.000000 
#    y 0.000000 3.605530 0.000000 
#    z 0.000000 0.000000 3.536430 
# 
# 
# High freq. dielectric constant tensor:
#      x y z
#    x 1.750860 0.000000 0.000000 
#    y 0.000000 1.738420 0.000000 
#    z 0.000000 0.000000 1.743430 
# 
# From -- ./inp_files/10127.got.cif
#   From: 2010.03.12/outbox.cif.g09.slc.cpg/sg65_6_cif.got.tgz:10127.got - 2010.04.10 20:52:16.
