data_PCOD8272550
_publ_section_title
;
Structure prediction by ZEFSAII (Michael W. Deem and Ramdas Pophale) SiO2 
 PCOD8272550
Probable space group: C M M M
;
_chemical_formula_sum "Si O2"
_cell_formula_units_Z 80
_cell_length_a 18.484028
_cell_length_b 7.717617
_cell_length_c 27.299505
_cell_angle_alpha 90.000000
_cell_angle_beta 90.000000
_cell_angle_gamma 90.000000
_cell_volume 3894.346697
_symmetry_space_group_name_H-M "C M M M"
_symmetry_group_IT_number 65
_symmetry_cell_setting 'orthorhombic'
loop_
_space_group_symop_operation_xyz
x,y,z
-x,-y,z
x,-y,-z
-x,y,-z
-x,-y,-z
x,y,-z
-x,y,z
x,-y,z
1/2+x,1/2+y,z
1/2-x,1/2-y,z
1/2+x,1/2-y,-z
1/2-x,1/2+y,-z
1/2-x,1/2-y,-z
1/2+x,1/2+y,-z
1/2-x,1/2+y,z
1/2+x,1/2-y,z
loop_
_atom_site_type_symbol
_atom_site_label
_atom_site_fract_x
_atom_site_fract_y
_atom_site_fract_z
Si Si1 0.084096 0.500000 0.942786
Si Si2 0.581126 0.203403 0.500000
Si Si3 0.829836 0.202672 0.221879
Si Si4 0.918597 0.207478 0.687670
Si Si5 0.332576 0.698718 0.403893
Si Si6 0.831678 0.205877 0.888562
O O1 0.116230 0.678669 0.921692
O O2 0.000000 0.500000 0.930376
O O3 0.100136 0.500000 0.000000
O O4 0.500000 0.283155 0.500000
O O5 0.623647 0.264531 0.452715
O O6 0.576684 0.000000 0.500000
O O7 0.750000 0.250000 0.240085
O O8 0.885972 0.280609 0.261303
O O9 0.844763 0.272116 0.167200
O O10 0.838693 0.000000 0.220052
O O11 0.871551 0.288059 0.642787
O O12 0.000000 0.277748 0.682328
O O13 0.917565 0.000000 0.687511
O O14 0.334937 0.500000 0.391905
O O15 0.250000 0.750000 0.410885
O O16 0.750000 0.250000 0.904046
O O17 0.847377 0.000000 0.895611
#
# Coordination Sequence:
#
# PCOD8272550 Si02
#       6
#     8   8  16  16  16  16
#     4  11  26  44  62  92 133 169 209 268 327 379
#     4  11  24  41  60  81 109 143 178 231 292 345
#     4   9  18  32  57  85 115 151 190 239 292 351
#     4   9  18  33  53  81 114 148 188 234 286 345
#     4  11  22  37  59  83 110 146 190 235 282 341
#     4  10  20  39  66  95 125 166 217 264 315 377
#
# _framework density 20.542597000000001
#
# number of rings (size 3 to 8) (size 9 to 14) (size 15 to 20)
#    0.000    2.000    1.000    2.400    1.400    3.600 
#    0.000    4.000    0.000    2.400    0.000    0.000 
#    0.000    0.000    0.000    0.000    0.000    0.000 
#
# Total GULP energy -495869.685064 kJ/mol
# GULP energy per Si atom -12396.742127 kJ/mol
# Density = 2.049584 g / cm^3
# Si number density = 20.542597 Si / 1000 Ang^3
#
#
#
# Elastic Constant Matrix: (Units=GPa)
#
#
# Indices 1 2 3 4 5 6 
#
# 1 184.8072 31.6436 100.8253 0.0000 0.0000 0.0000
# 2 31.6436 64.6233 31.0384 0.0000 0.0000 0.0000
# 3 100.8253 31.0384 138.6521 0.0000 0.0000 0.0000
# 4 0.0000 0.0000 0.0000 -23.1628 0.0000 0.0000
# 5 0.0000 0.0000 0.0000 0.0000 70.5028 0.0000
# 6 0.0000 0.0000 0.0000 0.0000 0.0000 19.8130
#
#
#
# Elastic Compliance Matrix: (Units=1/GPa)
#
#
# Indices 1 2 3 4 5 6 
#
# 1 0.009086 -0.001429 -0.006287 0.000000 0.000000 0.000000
# 2 -0.001429 0.017563 -0.002892 0.000000 0.000000 0.000000
# 3 -0.006287 -0.002892 0.012432 0.000000 0.000000 0.000000
# 4 0.000000 0.000000 0.000000 -0.043173 0.000000 0.000000
# 5 0.000000 0.000000 0.000000 0.000000 0.014184 0.000000
# 6 0.000000 0.000000 0.000000 0.000000 0.000000 0.050472
#
#
# Mechanical properties :
#
#
# Convention : Reuss Voigt Hill
#
# Bulk Modulus (GPa) = 55.98052 79.45523 67.71788
# Shear Modulus (GPa) = 56.98936 28.40230 42.69583
#
# Velocity S-wave (km/s) = 5.27279 3.72237 4.56390
# Velocity P-wave (km/s) = 8.02370 7.56551 7.79797
#
# Compressibility (1/GPa) = 0.01786336
#
# Stress axis : x y z
#
# Youngs Moduli (GPa) = 110.06157 56.93671 80.44008
#
# Poissons Ratio (x) = 0.08138 0.50573
# Poissons Ratio (y) = 0.15731 0.23266
# Poissons Ratio (z) = 0.69197 0.16468
#
# Static dielectric constant tensor:
#      x y z
#    x 3.803890 0.000000 0.000000 
#    y 0.000000 3.603310 0.000000 
#    z 0.000000 0.000000 3.978620 
# 
# 
# High freq. dielectric constant tensor:
#      x y z
#    x 1.807550 0.000000 0.000000 
#    y 0.000000 1.793010 0.000000 
#    z 0.000000 0.000000 1.812720 
# 
# From -- ./inp_files/75119.got.cif
#   From: 2010.03.12/outbox.cif.g09.slc.cpg/sg65_38_cif.got.tgz:75119.got - 2010.04.10 20:52:16.
