data_PCOD8272449
_publ_section_title
;
Structure prediction by ZEFSAII (Michael W. Deem and Ramdas Pophale) SiO2 
 PCOD8272449
Probable space group: C M M M
;
_chemical_formula_sum "Si O2"
_cell_formula_units_Z 80
_cell_length_a 18.510896
_cell_length_b 18.662392
_cell_length_c 12.216433
_cell_angle_alpha 90.000000
_cell_angle_beta 90.000000
_cell_angle_gamma 90.000000
_cell_volume 4220.259593
_symmetry_space_group_name_H-M "C M M M"
_symmetry_group_IT_number 65
_symmetry_cell_setting 'orthorhombic'
loop_
_space_group_symop_operation_xyz
x,y,z
-x,-y,z
x,-y,-z
-x,y,-z
-x,-y,-z
x,y,-z
-x,y,z
x,-y,z
1/2+x,1/2+y,z
1/2-x,1/2-y,z
1/2+x,1/2-y,-z
1/2-x,1/2+y,-z
1/2-x,1/2-y,-z
1/2+x,1/2+y,-z
1/2-x,1/2+y,z
1/2+x,1/2-y,z
loop_
_atom_site_type_symbol
_atom_site_label
_atom_site_fract_x
_atom_site_fract_y
_atom_site_fract_z
Si Si1 0.826699 0.084694 0.298422
Si Si2 0.080461 0.159320 0.125375
Si Si3 0.414063 0.918558 0.000000
Si Si4 0.296770 0.820747 0.372023
Si Si5 0.919892 0.914749 0.500000
Si Si6 0.583240 0.180748 0.195740
O O1 0.857729 0.114985 0.186011
O O2 0.746601 0.111702 0.324109
O O3 0.878810 0.114403 0.393968
O O4 0.824806 0.000000 0.293197
O O5 0.093050 0.243599 0.136494
O O6 0.000000 0.138701 0.168747
O O7 0.087758 0.137345 0.000000
O O8 0.386804 0.878696 0.110161
O O9 0.500000 0.916050 0.000000
O O10 0.384510 0.000000 0.000000
O O11 0.313688 0.830655 0.500000
O O12 0.250000 0.750000 0.349141
O O13 0.372322 0.818982 0.308383
O O14 0.000000 0.881926 0.500000
O O15 0.921950 0.000000 0.500000
O O16 0.500000 0.165720 0.226583
#
# Coordination Sequence:
#
# PCOD8272449 Si02
#       6
#    16  16   8  16   8  16
#     4  11  22  38  58  85 121 160 199 243 295 353
#     4  10  20  37  61  88 122 161 196 238 296 359
#     4   9  18  36  63  92 119 151 199 254 297 341
#     4  11  23  40  60  85 120 160 198 244 301 357
#     4   9  18  34  57  84 115 155 201 244 287 341
#     4  10  20  38  64  90 119 155 197 245 299 358
#
# _framework density 18.95618
#
# number of rings (size 3 to 8) (size 9 to 14) (size 15 to 20)
#    0.000    1.800    4.000    0.600    0.000    2.800 
#    1.800    2.500    0.000    0.000    0.000    4.200 
#    0.000    0.000    0.000    0.000    0.000    0.000 
#
# Total GULP energy -496078.937967 kJ/mol
# GULP energy per Si atom -12401.973449 kJ/mol
# Density = 1.891303 g / cm^3
# Si number density = 18.956180 Si / 1000 Ang^3
#
#
#
# Elastic Constant Matrix: (Units=GPa)
#
#
# Indices 1 2 3 4 5 6 
#
# 1 88.3182 28.5370 58.6178 0.0000 0.0000 0.0000
# 2 28.5370 90.7616 45.1947 0.0000 0.0000 0.0000
# 3 58.6178 45.1947 126.0369 0.0000 0.0000 0.0000
# 4 0.0000 0.0000 0.0000 25.5225 0.0000 0.0000
# 5 0.0000 0.0000 0.0000 0.0000 37.2289 0.0000
# 6 0.0000 0.0000 0.0000 0.0000 0.0000 26.0677
#
#
#
# Elastic Compliance Matrix: (Units=1/GPa)
#
#
# Indices 1 2 3 4 5 6 
#
# 1 0.016584 -0.001672 -0.007113 0.000000 0.000000 0.000000
# 2 -0.001672 0.013581 -0.004092 0.000000 0.000000 0.000000
# 3 -0.007113 -0.004092 0.012710 0.000000 0.000000 0.000000
# 4 0.000000 0.000000 0.000000 0.039181 0.000000 0.000000
# 5 0.000000 0.000000 0.000000 0.000000 0.026861 0.000000
# 6 0.000000 0.000000 0.000000 0.000000 0.000000 0.038362
#
#
# Mechanical properties :
#
#
# Convention : Reuss Voigt Hill
#
# Bulk Modulus (GPa) = 58.41247 63.31286 60.86267
# Shear Modulus (GPa) = 27.97329 29.28163 28.62746
#
# Velocity S-wave (km/s) = 3.84563 3.93453 3.89033
# Velocity P-wave (km/s) = 7.11336 7.35614 7.23577
#
# Compressibility (1/GPa) = 0.01711963
#
# Stress axis : x y z
#
# Youngs Moduli (GPa) = 60.29796 73.62993 78.67828
#
# Poissons Ratio (x) = 0.12313 0.55968
# Poissons Ratio (y) = 0.10083 0.32198
# Poissons Ratio (z) = 0.42893 0.30132
#
# Static dielectric constant tensor:
#      x y z
#    x 3.471420 0.000000 0.000000 
#    y 0.000000 3.416790 0.000000 
#    z 0.000000 0.000000 3.517890 
# 
# 
# High freq. dielectric constant tensor:
#      x y z
#    x 1.724240 0.000000 0.000000 
#    y 0.000000 1.730500 0.000000 
#    z 0.000000 0.000000 1.742540 
# 
# From -- ./inp_files/28557.got.cif
#   From: 2010.03.12/outbox.cif.g09.slc.cpg/sg65_15_cif.got.tgz:28557.got - 2010.04.10 20:52:16.
