data_PCOD8272392
_publ_section_title
;
Structure prediction by ZEFSAII (Michael W. Deem and Ramdas Pophale) SiO2 
 PCOD8272392
Probable space group: C M M M
;
_chemical_formula_sum "Si O2"
_cell_formula_units_Z 104
_cell_length_a 8.973290
_cell_length_b 28.518578
_cell_length_c 22.833534
_cell_angle_alpha 90.000000
_cell_angle_beta 90.000000
_cell_angle_gamma 90.000000
_cell_volume 5843.226268
_symmetry_space_group_name_H-M "C M M M"
_symmetry_group_IT_number 65
_symmetry_cell_setting 'orthorhombic'
loop_
_space_group_symop_operation_xyz
x,y,z
-x,-y,z
x,-y,-z
-x,y,-z
-x,-y,-z
x,y,-z
-x,y,z
x,-y,z
1/2+x,1/2+y,z
1/2-x,1/2-y,z
1/2+x,1/2-y,-z
1/2-x,1/2+y,-z
1/2-x,1/2-y,-z
1/2+x,1/2+y,-z
1/2-x,1/2+y,z
1/2+x,1/2-y,z
loop_
_atom_site_type_symbol
_atom_site_label
_atom_site_fract_x
_atom_site_fract_y
_atom_site_fract_z
Si Si1 0.327676 0.053149 0.714556
Si Si2 0.824092 0.800540 0.000000
Si Si3 0.176790 0.551002 0.846722
Si Si4 0.172435 0.700234 0.773331
Si Si5 0.674926 0.359664 0.672834
Si Si6 0.327698 0.852347 0.895096
Si Si7 0.174172 0.202451 0.434392
O O1 0.500000 0.068463 0.711689
O O2 0.264855 0.058312 0.780657
O O3 0.231179 0.086819 0.673131
O O4 0.307308 0.000000 0.692220
O O5 0.750000 0.750000 0.000000
O O6 0.776460 0.828809 0.942817
O O7 0.000000 0.793703 0.000000
O O8 0.232417 0.500000 0.870883
O O9 0.228439 0.593648 0.888226
O O10 0.000000 0.551004 0.842926
O O11 0.250000 0.750000 0.777652
O O12 0.243604 0.669567 0.722683
O O13 0.194813 0.673829 0.834244
O O14 0.000000 0.707876 0.758752
O O15 0.500000 0.357373 0.684530
O O16 0.717999 0.339320 0.609284
O O17 0.500000 0.850211 0.915396
O O18 0.228718 0.189159 0.500000
O O19 0.250000 0.250000 0.411973
O O20 0.000000 0.212044 0.433408
#
# Coordination Sequence:
#
# PCOD8272392 Si02
#       7
#    16   8  16  16  16  16  16
#     4   9  17  32  54  79 108 141 176 215 262 316
#     4  12  26  42  59  78 103 139 180 223 265 314
#     4   8  14  29  55  83 107 134 171 211 253 305
#     4  11  22  35  52  77 108 140 173 217 268 318
#     4  11  21  32  51  79 109 139 174 219 269 322
#     4  10  20  37  59  81 105 138 177 217 259 310
#     4   9  19  35  52  72 101 140 183 223 263 312
#
# _framework density 17.798387000000002
#
# number of rings (size 3 to 8) (size 9 to 14) (size 15 to 20)
#    0.000    2.154    1.538    3.462    0.000    5.231 
#    0.000    0.385    0.000    3.231    0.000    3.231 
#    0.000    0.000    0.000    0.000    0.000    0.000 
#
# Total GULP energy -644738.638667 kJ/mol
# GULP energy per Si atom -12398.819974 kJ/mol
# Density = 1.775788 g / cm^3
# Si number density = 17.798387 Si / 1000 Ang^3
#
#
#
# Elastic Constant Matrix: (Units=GPa)
#
#
# Indices 1 2 3 4 5 6 
#
# 1 82.1048 56.5679 50.5838 0.0000 0.0000 0.0000
# 2 56.5679 155.1066 63.6044 0.0000 0.0000 0.0000
# 3 50.5838 63.6044 87.2351 0.0000 0.0000 0.0000
# 4 0.0000 0.0000 0.0000 17.9158 0.0000 0.0000
# 5 0.0000 0.0000 0.0000 0.0000 12.3702 0.0000
# 6 0.0000 0.0000 0.0000 0.0000 0.0000 30.7610
#
#
#
# Elastic Compliance Matrix: (Units=1/GPa)
#
#
# Indices 1 2 3 4 5 6 
#
# 1 0.020321 -0.003679 -0.009101 0.000000 0.000000 0.000000
# 2 -0.003679 0.009863 -0.005058 0.000000 0.000000 0.000000
# 3 -0.009101 -0.005058 0.020428 0.000000 0.000000 0.000000
# 4 0.000000 0.000000 0.000000 0.055817 0.000000 0.000000
# 5 0.000000 0.000000 0.000000 0.000000 0.080840 0.000000
# 6 0.000000 0.000000 0.000000 0.000000 0.000000 0.032509
#
#
# Mechanical properties :
#
#
# Convention : Reuss Voigt Hill
#
# Bulk Modulus (GPa) = 66.94925 73.99539 70.47232
# Shear Modulus (GPa) = 19.19881 22.45543 20.82712
#
# Velocity S-wave (km/s) = 3.28789 3.55583 3.42448
# Velocity P-wave (km/s) = 7.21877 7.65004 7.43753
#
# Compressibility (1/GPa) = 0.01493669
#
# Stress axis : x y z
#
# Youngs Moduli (GPa) = 49.20911 101.38796 48.95181
#
# Poissons Ratio (x) = 0.37304 0.44550
# Poissons Ratio (y) = 0.18106 0.24759
# Poissons Ratio (z) = 0.44785 0.51281
#
# Static dielectric constant tensor:
#      x y z
#    x 3.208400 0.000000 0.000000 
#    y 0.000000 3.093360 0.000000 
#    z 0.000000 0.000000 3.251020 
# 
# 
# High freq. dielectric constant tensor:
#      x y z
#    x 1.675500 0.000000 0.000000 
#    y 0.000000 1.702390 0.000000 
#    z 0.000000 0.000000 1.672050 
# 
# From -- ./inp_files/60830.got.cif
#   From: 2010.03.12/outbox.cif.g09.slc.cpg/sg65_31_cif.got.tgz:60830.got - 2010.04.10 20:52:16.
