data_PCOD8272923
_publ_section_title
;
Structure prediction by ZEFSAII (Michael W. Deem and Ramdas Pophale) SiO2 
 PCOD8272923
Probable space group: C M M M
;
_chemical_formula_sum "Si O2"
_cell_formula_units_Z 72
_cell_length_a 19.656399
_cell_length_b 9.263804
_cell_length_c 22.767970
_cell_angle_alpha 90.000000
_cell_angle_beta 90.000000
_cell_angle_gamma 90.000000
_cell_volume 4145.888591
_symmetry_space_group_name_H-M "C M M M"
_symmetry_group_IT_number 65
_symmetry_cell_setting 'orthorhombic'
loop_
_space_group_symop_operation_xyz
x,y,z
-x,-y,z
x,-y,-z
-x,y,-z
-x,-y,-z
x,y,-z
-x,y,z
x,-y,z
1/2+x,1/2+y,z
1/2-x,1/2-y,z
1/2+x,1/2-y,-z
1/2-x,1/2+y,-z
1/2-x,1/2-y,-z
1/2+x,1/2+y,-z
1/2-x,1/2+y,z
1/2+x,1/2-y,z
loop_
_atom_site_type_symbol
_atom_site_label
_atom_site_fract_x
_atom_site_fract_y
_atom_site_fract_z
Si Si1 0.419130 0.660132 0.778433
Si Si2 0.079356 0.832503 0.647041
Si Si3 0.317400 0.167527 0.568545
Si Si4 0.581088 0.336893 0.000000
Si Si5 0.581189 0.162252 0.887783
O O1 0.500000 0.655758 0.780892
O O2 0.391009 0.500000 0.792490
O O3 0.396621 0.708024 0.713160
O O4 0.390268 0.769915 0.827188
O O5 0.118101 0.730780 0.602030
O O6 0.000000 0.800427 0.638931
O O7 0.095177 0.000000 0.633940
O O8 0.330438 0.193058 0.500000
O O9 0.250000 0.250000 0.589776
O O10 0.308616 0.000000 0.583843
O O11 0.608871 0.255006 0.942474
O O12 0.609303 0.500000 0.000000
O O13 0.500000 0.337467 0.000000
O O14 0.500000 0.162512 0.887736
O O15 0.609367 0.000000 0.893253
#
# Coordination Sequence:
#
# PCOD8272923 Si02
#       5
#    16  16  16   8  16
#     4   8  14  25  39  55  78 109 143 177 217 267
#     4   9  18  32  50  72  97 125 157 193 233 279
#     4  10  21  36  53  72  95 124 157 193 234 281
#     4   9  15  21  29  41  61  95 138 179 218 263
#     4   9  15  21  30  46  69  98 135 179 222 262
#
# _framework density 17.366602
#
# number of rings (size 3 to 8) (size 9 to 14) (size 15 to 20)
#    0.000    3.000    0.000    3.000    0.000    7.111 
#    0.000    4.444    0.000    0.000    0.000    0.000 
#    0.000    0.000    0.000    1.000    0.000   14.444 
#
# Total GULP energy -446300.126821 kJ/mol
# GULP energy per Si atom -12397.225745 kJ/mol
# Density = 1.732707 g / cm^3
# Si number density = 17.366602 Si / 1000 Ang^3
#
#
#
# Elastic Constant Matrix: (Units=GPa)
#
#
# Indices 1 2 3 4 5 6 
#
# 1 34.2926 37.9841 37.0917 0.0000 0.0000 0.0000
# 2 37.9841 147.1567 81.0119 0.0000 0.0000 0.0000
# 3 37.0917 81.0119 108.1097 0.0000 0.0000 0.0000
# 4 0.0000 0.0000 0.0000 35.9405 0.0000 0.0000
# 5 0.0000 0.0000 0.0000 0.0000 0.0468 0.0000
# 6 0.0000 0.0000 0.0000 0.0000 0.0000 19.0049
#
#
#
# Elastic Compliance Matrix: (Units=1/GPa)
#
#
# Indices 1 2 3 4 5 6 
#
# 1 0.049102 -0.005787 -0.012510 0.000000 0.000000 0.000000
# 2 -0.005787 0.012249 -0.007193 0.000000 0.000000 0.000000
# 3 -0.012510 -0.007193 0.018932 0.000000 0.000000 0.000000
# 4 0.000000 0.000000 0.000000 0.027824 0.000000 0.000000
# 5 0.000000 0.000000 0.000000 0.000000 21.378958 0.000000
# 6 0.000000 0.000000 0.000000 0.000000 0.000000 0.052618
#
#
# Mechanical properties :
#
#
# Convention : Reuss Voigt Hill
#
# Bulk Modulus (GPa) = 34.12682 66.85938 50.49310
# Shear Modulus (GPa) = 0.23148 19.89653 10.06400
#
# Velocity S-wave (km/s) = 0.36548 3.38846 2.40990
# Velocity P-wave (km/s) = 4.45776 7.34107 6.07301
#
# Compressibility (1/GPa) = 0.02930247
#
# Stress axis : x y z
#
# Youngs Moduli (GPa) = 20.36574 81.63638 52.81970
#
# Poissons Ratio (x) = 0.47246 0.66076
# Poissons Ratio (y) = 0.11786 0.37996
# Poissons Ratio (z) = 0.25477 0.58725
#
# Static dielectric constant tensor:
#      x y z
#    x 2.585470 0.000000 0.000000 
#    y 0.000000 3.417480 0.000000 
#    z 0.000000 0.000000 3.435360 
# 
# 
# High freq. dielectric constant tensor:
#      x y z
#    x 1.596440 0.000000 0.000000 
#    y 0.000000 1.681490 0.000000 
#    z 0.000000 0.000000 1.683560 
# 
# From -- ./inp_files/59539.got.cif
#   From: 2010.03.12/outbox.cif.g09.slc.cpg/sg65_30_cif.got.tgz:59539.got - 2010.04.10 20:52:16.
