data_PCOD8272335
_publ_section_title
;
Structure prediction by ZEFSAII (Michael W. Deem and Ramdas Pophale) SiO2 
 PCOD8272335
Probable space group: C M M M
;
_chemical_formula_sum "Si O2"
_cell_formula_units_Z 88
_cell_length_a 8.579894
_cell_length_b 24.095015
_cell_length_c 22.394107
_cell_angle_alpha 90.000000
_cell_angle_beta 90.000000
_cell_angle_gamma 90.000000
_cell_volume 4629.593636
_symmetry_space_group_name_H-M "C M M M"
_symmetry_group_IT_number 65
_symmetry_cell_setting 'orthorhombic'
loop_
_space_group_symop_operation_xyz
x,y,z
-x,-y,z
x,-y,-z
-x,y,-z
-x,-y,-z
x,y,-z
-x,y,z
x,-y,z
1/2+x,1/2+y,z
1/2-x,1/2-y,z
1/2+x,1/2-y,-z
1/2-x,1/2+y,-z
1/2-x,1/2-y,-z
1/2+x,1/2+y,-z
1/2-x,1/2+y,z
1/2+x,1/2-y,z
loop_
_atom_site_type_symbol
_atom_site_label
_atom_site_fract_x
_atom_site_fract_y
_atom_site_fract_z
Si Si1 0.315764 0.935499 0.500000
Si Si2 0.684893 0.880504 0.170972
Si Si3 0.185244 0.311618 0.285404
Si Si4 0.181302 0.809385 0.931332
Si Si5 0.816356 0.893515 0.621625
Si Si6 0.827962 0.500000 0.675699
Si Si7 0.330297 0.000000 0.185772
O O1 0.500000 0.934442 0.500000
O O2 0.253037 0.901315 0.443930
O O3 0.256205 0.000000 0.500000
O O4 0.500000 0.884913 0.177021
O O5 0.748463 0.845863 0.227764
O O6 0.731238 0.853815 0.108607
O O7 0.759138 0.942849 0.169107
O O8 0.250000 0.250000 0.280225
O O9 0.245821 0.339224 0.346534
O O10 0.000000 0.310216 0.286573
O O11 0.250000 0.750000 0.915016
O O12 0.000000 0.809069 0.916034
O O13 0.213661 0.824756 0.000000
O O14 0.000000 0.886690 0.617305
O O15 0.771882 0.946663 0.660085
O O16 0.859604 0.500000 0.744523
O O17 0.000000 0.500000 0.643180
O O18 0.500000 0.000000 0.153835
#
# Coordination Sequence:
#
# PCOD8272335 Si02
#       7
#     8  16  16  16  16   8   8
#     4  11  23  39  62  87 117 158 196 235 291 347
#     4  10  20  36  60  87 116 151 192 237 284 339
#     4  11  23  40  61  86 118 155 194 240 292 347
#     4  10  21  37  57  82 113 150 193 241 291 342
#     4  12  24  38  59  90 122 152 194 243 290 345
#     4  11  19  36  60  84 118 157 192 236 292 345
#     4   9  18  35  57  85 117 152 189 230 281 340
#
# _framework density 19.008147000000001
#
# number of rings (size 3 to 8) (size 9 to 14) (size 15 to 20)
#    0.000    1.364    2.727    3.818    0.000    4.364 
#    0.000    1.364    0.000    2.727    0.000    0.000 
#    0.000    0.000    0.000    0.000    0.000    0.000 
#
# Total GULP energy -545559.078437 kJ/mol
# GULP energy per Si atom -12399.069964 kJ/mol
# Density = 1.896488 g / cm^3
# Si number density = 19.008147 Si / 1000 Ang^3
#
#
#
# Elastic Constant Matrix: (Units=GPa)
#
#
# Indices 1 2 3 4 5 6 
#
# 1 67.7487 38.2722 29.2380 0.0000 0.0000 0.0000
# 2 38.2722 168.5399 75.5770 0.0000 0.0000 0.0000
# 3 29.2380 75.5770 108.2489 0.0000 0.0000 0.0000
# 4 0.0000 0.0000 0.0000 39.6044 0.0000 0.0000
# 5 0.0000 0.0000 0.0000 0.0000 28.7067 0.0000
# 6 0.0000 0.0000 0.0000 0.0000 0.0000 32.3484
#
#
#
# Elastic Compliance Matrix: (Units=1/GPa)
#
#
# Indices 1 2 3 4 5 6 
#
# 1 0.017514 -0.002702 -0.002844 0.000000 0.000000 0.000000
# 2 -0.002702 0.009054 -0.005592 0.000000 0.000000 0.000000
# 3 -0.002844 -0.005592 0.013910 0.000000 0.000000 0.000000
# 4 0.000000 0.000000 0.000000 0.025250 0.000000 0.000000
# 5 0.000000 0.000000 0.000000 0.000000 0.034835 0.000000
# 6 0.000000 0.000000 0.000000 0.000000 0.000000 0.030913
#
#
# Mechanical properties :
#
#
# Convention : Reuss Voigt Hill
#
# Bulk Modulus (GPa) = 54.93546 70.07908 62.50727
# Shear Modulus (GPa) = 31.28514 33.56192 32.42353
#
# Velocity S-wave (km/s) = 4.06135 4.20653 4.13458
# Velocity P-wave (km/s) = 7.13838 7.78082 7.46651
#
# Compressibility (1/GPa) = 0.01820318
#
# Stress axis : x y z
#
# Youngs Moduli (GPa) = 57.09666 110.44487 71.88926
#
# Poissons Ratio (x) = 0.29839 0.20448
# Poissons Ratio (y) = 0.15426 0.40199
# Poissons Ratio (z) = 0.16240 0.61758
#
# Static dielectric constant tensor:
#      x y z
#    x 3.445190 0.000000 0.000000 
#    y 0.000000 3.675130 0.000000 
#    z 0.000000 0.000000 3.209310 
# 
# 
# High freq. dielectric constant tensor:
#      x y z
#    x 1.735810 0.000000 0.000000 
#    y 0.000000 1.742590 0.000000 
#    z 0.000000 0.000000 1.739180 
# 
# From -- ./inp_files/59864.got.cif
#   From: 2010.03.12/outbox.cif.g09.slc.cpg/sg65_30_cif.got.tgz:59864.got - 2010.04.10 20:52:16.
