data_PCOD8272281
_publ_section_title
;
Structure prediction by ZEFSAII (Michael W. Deem and Ramdas Pophale) SiO2 
 PCOD8272281
Probable space group: C M M M
;
_chemical_formula_sum "Si O2"
_cell_formula_units_Z 88
_cell_length_a 24.125485
_cell_length_b 8.692844
_cell_length_c 22.405580
_cell_angle_alpha 90.000000
_cell_angle_beta 90.000000
_cell_angle_gamma 90.000000
_cell_volume 4698.877569
_symmetry_space_group_name_H-M "C M M M"
_symmetry_group_IT_number 65
_symmetry_cell_setting 'orthorhombic'
loop_
_space_group_symop_operation_xyz
x,y,z
-x,-y,z
x,-y,-z
-x,y,-z
-x,-y,-z
x,y,-z
-x,y,z
x,-y,z
1/2+x,1/2+y,z
1/2-x,1/2-y,z
1/2+x,1/2-y,-z
1/2-x,1/2+y,-z
1/2-x,1/2-y,-z
1/2+x,1/2+y,-z
1/2-x,1/2+y,z
1/2+x,1/2-y,z
loop_
_atom_site_type_symbol
_atom_site_label
_atom_site_fract_x
_atom_site_fract_y
_atom_site_fract_z
Si Si1 0.688997 0.817632 0.716291
Si Si2 0.392621 0.318565 0.374284
Si Si3 0.500000 0.167529 0.814427
Si Si4 0.880430 0.683238 0.830626
Si Si5 0.691360 0.678884 0.068835
Si Si6 0.436809 0.317846 0.500000
Si Si7 0.000000 0.330196 0.324132
O O1 0.750000 0.750000 0.721184
O O2 0.660792 0.762880 0.654591
O O3 0.653821 0.756167 0.773203
O O4 0.692511 0.000000 0.716025
O O5 0.383975 0.500000 0.370053
O O6 0.401705 0.263132 0.442568
O O7 0.446902 0.270151 0.339002
O O8 0.442867 0.254822 0.831542
O O9 0.500000 0.139478 0.744853
O O10 0.500000 0.000000 0.846205
O O11 0.883179 0.500000 0.827175
O O12 0.854282 0.736835 0.892245
O O13 0.692933 0.500000 0.084324
O O14 0.750000 0.750000 0.086135
O O15 0.676720 0.709583 0.000000
O O16 0.442762 0.500000 0.500000
O O17 0.500000 0.249200 0.500000
O O18 0.000000 0.500000 0.355633
#
# Coordination Sequence:
#
# PCOD8272281 Si02
#       7
#    16  16   8  16  16   8   8
#     4  11  23  39  58  83 114 147 185 234 284 334
#     4  11  21  36  58  84 113 148 189 230 279 336
#     4   9  18  35  55  81 115 149 178 218 273 326
#     4  10  20  36  59  84 113 147 183 225 274 328
#     4  10  21  37  57  82 112 146 187 234 278 322
#     4   9  18  34  55  82 115 146 181 229 278 328
#     4  11  19  34  56  82 117 150 182 230 282 329
#
# _framework density 18.727876999999999
#
# number of rings (size 3 to 8) (size 9 to 14) (size 15 to 20)
#    0.000    1.727    2.727    2.455    0.000    4.000 
#    0.000    3.636    0.000    2.727    0.000    0.000 
#    0.000    0.000    0.000    0.000    0.000    0.000 
#
# Total GULP energy -545482.489082 kJ/mol
# GULP energy per Si atom -12397.329297 kJ/mol
# Density = 1.868525 g / cm^3
# Si number density = 18.727877 Si / 1000 Ang^3
#
#
#
# Elastic Constant Matrix: (Units=GPa)
#
#
# Indices 1 2 3 4 5 6 
#
# 1 175.6521 35.1742 75.6076 0.0000 0.0000 0.0000
# 2 35.1742 42.0871 24.6743 0.0000 0.0000 0.0000
# 3 75.6076 24.6743 103.4064 0.0000 0.0000 0.0000
# 4 0.0000 0.0000 0.0000 26.0508 0.0000 0.0000
# 5 0.0000 0.0000 0.0000 0.0000 33.0484 0.0000
# 6 0.0000 0.0000 0.0000 0.0000 0.0000 28.8054
#
#
#
# Elastic Compliance Matrix: (Units=1/GPa)
#
#
# Indices 1 2 3 4 5 6 
#
# 1 0.008908 -0.004216 -0.005507 0.000000 0.000000 0.000000
# 2 -0.004216 0.029620 -0.003985 0.000000 0.000000 0.000000
# 3 -0.005507 -0.003985 0.014648 0.000000 0.000000 0.000000
# 4 0.000000 0.000000 0.000000 0.038387 0.000000 0.000000
# 5 0.000000 0.000000 0.000000 0.000000 0.030259 0.000000
# 6 0.000000 0.000000 0.000000 0.000000 0.000000 0.034716
#
#
# Mechanical properties :
#
#
# Convention : Reuss Voigt Hill
#
# Bulk Modulus (GPa) = 38.82066 65.78417 52.30241
# Shear Modulus (GPa) = 25.96861 29.96022 27.96441
#
# Velocity S-wave (km/s) = 3.72779 4.00405 3.86838
# Velocity P-wave (km/s) = 6.26916 7.52191 6.92392
#
# Compressibility (1/GPa) = 0.02575948
#
# Stress axis : x y z
#
# Youngs Moduli (GPa) = 112.26110 33.76078 68.26818
#
# Poissons Ratio (x) = 0.14234 0.37596
# Poissons Ratio (y) = 0.47330 0.27206
# Poissons Ratio (z) = 0.61823 0.13454
#
# Static dielectric constant tensor:
#      x y z
#    x 3.585580 0.000000 0.000000 
#    y 0.000000 3.347370 0.000000 
#    z 0.000000 0.000000 3.514430 
# 
# 
# High freq. dielectric constant tensor:
#      x y z
#    x 1.730660 0.000000 0.000000 
#    y 0.000000 1.716910 0.000000 
#    z 0.000000 0.000000 1.724980 
# 
# From -- ./inp_files/71069.got.cif
#   From: 2010.03.12/outbox.cif.g09.slc.cpg/sg65_36_cif.got.tgz:71069.got - 2010.04.10 20:52:16.
