data_PCOD8272085
_publ_section_title
;
Structure prediction by ZEFSAII (Michael W. Deem and Ramdas Pophale) SiO2 
 PCOD8272085
Probable space group: C M M M
;
_chemical_formula_sum "Si O2"
_cell_formula_units_Z 96
_cell_length_a 17.901243
_cell_length_b 23.808760
_cell_length_c 12.482535
_cell_angle_alpha 90.000000
_cell_angle_beta 90.000000
_cell_angle_gamma 90.000000
_cell_volume 5320.136284
_symmetry_space_group_name_H-M "C M M M"
_symmetry_group_IT_number 65
_symmetry_cell_setting 'orthorhombic'
loop_
_space_group_symop_operation_xyz
x,y,z
-x,-y,z
x,-y,-z
-x,y,-z
-x,-y,-z
x,y,-z
-x,y,z
x,-y,z
1/2+x,1/2+y,z
1/2-x,1/2-y,z
1/2+x,1/2-y,-z
1/2-x,1/2+y,-z
1/2-x,1/2-y,-z
1/2+x,1/2+y,-z
1/2-x,1/2+y,z
1/2+x,1/2-y,z
loop_
_atom_site_type_symbol
_atom_site_label
_atom_site_fract_x
_atom_site_fract_y
_atom_site_fract_z
Si Si1 0.866625 0.248450 0.000000
Si Si2 0.585307 0.000000 0.126807
Si Si3 0.802218 0.093633 0.623155
Si Si4 0.083335 0.709116 0.218533
Si Si5 0.754750 0.154461 0.000000
Si Si6 0.083242 0.000000 0.373777
Si Si7 0.673008 0.723624 0.622450
Si Si8 0.185128 0.602222 0.800072
O O1 0.915530 0.258575 0.894621
O O2 0.835924 0.184218 0.000000
O O3 0.802523 0.294678 0.000000
O O4 0.626402 0.055139 0.167821
O O5 0.500000 0.000000 0.169191
O O6 0.586307 0.000000 0.000000
O O7 0.780181 0.080098 0.500000
O O8 0.870988 0.055135 0.662369
O O9 0.827445 0.157293 0.636568
O O10 0.730312 0.081166 0.696364
O O11 0.103937 0.753359 0.310418
O O12 0.139485 0.657640 0.227926
O O13 0.000000 0.686851 0.238676
O O14 0.743512 0.115326 0.895785
O O15 0.073749 0.000000 0.500000
O O16 0.000000 0.000000 0.321177
O O17 0.662257 0.742291 0.500000
O O18 0.750000 0.750000 0.668109
#
# Coordination Sequence:
#
# PCOD8272085 Si02
#       8
#     8   8  16  16   8   8  16  16
#     4   9  19  32  50  74 108 138 178 224 277 332
#     4  11  23  38  55  79 113 146 181 234 292 337
#     4  10  20  35  60  85 111 150 188 233 285 333
#     4  11  22  34  53  81 114 149 185 230 285 338
#     4   9  18  31  53  78  97 139 181 229 271 319
#     4   9  19  36  56  83 113 140 184 241 288 329
#     4  10  20  36  56  81 114 150 188 231 280 338
#     4  11  20  36  56  80 111 143 191 234 274 338
#
# _framework density 18.044651000000002
#
# number of rings (size 3 to 8) (size 9 to 14) (size 15 to 20)
#    0.000    1.833    2.500    2.250    2.333    1.000 
#    0.000    1.667    0.000    2.000    0.000    0.583 
#    0.000    0.000    0.000    0.000    0.000    0.000 
#
# Total GULP energy -595241.424267 kJ/mol
# GULP energy per Si atom -12400.863006 kJ/mol
# Density = 1.800358 g / cm^3
# Si number density = 18.044651 Si / 1000 Ang^3
#
#
#
# Elastic Constant Matrix: (Units=GPa)
#
#
# Indices 1 2 3 4 5 6 
#
# 1 119.3927 48.8403 51.5386 0.0000 0.0000 0.0000
# 2 48.8403 101.7429 33.6473 0.0000 0.0000 0.0000
# 3 51.5386 33.6473 87.0560 0.0000 0.0000 0.0000
# 4 0.0000 0.0000 0.0000 11.4298 0.0000 0.0000
# 5 0.0000 0.0000 0.0000 0.0000 14.7234 0.0000
# 6 0.0000 0.0000 0.0000 0.0000 0.0000 22.4906
#
#
#
# Elastic Compliance Matrix: (Units=1/GPa)
#
#
# Indices 1 2 3 4 5 6 
#
# 1 0.012586 -0.004102 -0.005866 0.000000 0.000000 0.000000
# 2 -0.004102 0.012606 -0.002444 0.000000 0.000000 0.000000
# 3 -0.005866 -0.002444 0.015904 0.000000 0.000000 0.000000
# 4 0.000000 0.000000 0.000000 0.087491 0.000000 0.000000
# 5 0.000000 0.000000 0.000000 0.000000 0.067919 0.000000
# 6 0.000000 0.000000 0.000000 0.000000 0.000000 0.044463
#
#
# Mechanical properties :
#
#
# Convention : Reuss Voigt Hill
#
# Bulk Modulus (GPa) = 61.45133 64.02710 62.73921
# Shear Modulus (GPa) = 18.43557 21.33980 19.88768
#
# Velocity S-wave (km/s) = 3.19982 3.44264 3.32345
# Velocity P-wave (km/s) = 6.91237 7.16673 7.04070
#
# Compressibility (1/GPa) = 0.01627304
#
# Stress axis : x y z
#
# Youngs Moduli (GPa) = 79.45556 79.32782 62.87748
#
# Poissons Ratio (x) = 0.32538 0.36881
# Poissons Ratio (y) = 0.32591 0.15367
# Poissons Ratio (z) = 0.46605 0.19387
#
# Static dielectric constant tensor:
#      x y z
#    x 3.291650 0.000000 0.000000 
#    y 0.000000 3.432590 0.000000 
#    z 0.000000 0.000000 3.411180 
# 
# 
# High freq. dielectric constant tensor:
#      x y z
#    x 1.686210 0.000000 0.000000 
#    y 0.000000 1.700790 0.000000 
#    z 0.000000 0.000000 1.695410 
# 
# From -- ./inp_files/29129.got.cif
#   From: 2010.03.12/outbox.cif.g09.slc.cpg/sg65_15_cif.got.tgz:29129.got - 2010.04.10 20:52:16.
