data_PCOD8272800
_publ_section_title
;
Structure prediction by ZEFSAII (Michael W. Deem and Ramdas Pophale) SiO2 
 PCOD8272800
Probable space group: C M M M
;
_chemical_formula_sum "Si O2"
_cell_formula_units_Z 104
_cell_length_a 21.109625
_cell_length_b 27.550500
_cell_length_c 9.083557
_cell_angle_alpha 90.000000
_cell_angle_beta 90.000000
_cell_angle_gamma 90.000000
_cell_volume 5282.821653
_symmetry_space_group_name_H-M "C M M M"
_symmetry_group_IT_number 65
_symmetry_cell_setting 'orthorhombic'
loop_
_space_group_symop_operation_xyz
x,y,z
-x,-y,z
x,-y,-z
-x,y,-z
-x,-y,-z
x,y,-z
-x,y,z
x,-y,z
1/2+x,1/2+y,z
1/2-x,1/2-y,z
1/2+x,1/2-y,-z
1/2-x,1/2+y,-z
1/2-x,1/2-y,-z
1/2+x,1/2+y,-z
1/2-x,1/2+y,z
1/2+x,1/2-y,z
loop_
_atom_site_type_symbol
_atom_site_label
_atom_site_fract_x
_atom_site_fract_y
_atom_site_fract_z
Si Si1 0.178043 0.944467 0.834666
Si Si2 0.740465 0.130723 0.328371
Si Si3 0.570908 0.601573 0.668607
Si Si4 0.500000 0.057487 0.174683
Si Si5 0.094088 0.371667 0.674468
Si Si6 0.930396 0.725025 0.168452
Si Si7 0.149450 0.801787 0.332434
O O1 0.232919 0.915876 0.752940
O O2 0.109756 0.937866 0.760097
O O3 0.198241 0.000000 0.829327
O O4 0.173148 0.924769 0.000000
O O5 0.750854 0.121242 0.500000
O O6 0.667686 0.134281 0.284281
O O7 0.780023 0.179652 0.285738
O O8 0.571959 0.585023 0.500000
O O9 0.500000 0.603224 0.731324
O O10 0.601003 0.654316 0.687126
O O11 0.562798 0.081522 0.246987
O O12 0.500000 0.000000 0.209181
O O13 0.500000 0.067172 0.000000
O O14 0.083069 0.376136 0.500000
O O15 0.062042 0.323498 0.736187
O O16 0.873958 0.758545 0.229001
O O17 0.000000 0.750561 0.178578
O O18 0.913906 0.711981 0.000000
O O19 0.149864 0.782360 0.500000
#
# Coordination Sequence:
#
# PCOD8272800 Si02
#       7
#    16  16  16   8  16  16  16
#     4  10  21  35  52  77 109 146 187 233 290 352
#     4   9  21  40  60  84 113 148 193 245 292 343
#     4   9  18  33  53  77 107 147 195 243 288 337
#     4  11  25  45  67  93 127 159 189 237 302 365
#     4  11  23  41  66  91 116 150 194 240 288 343
#     4  11  23  37  56  85 123 159 194 237 288 344
#     4   9  18  35  57  81 113 152 195 238 285 339
#
# _framework density 19.686450000000001
#
# number of rings (size 3 to 8) (size 9 to 14) (size 15 to 20)
#    0.000    2.077    0.769    3.000    0.000    8.923 
#    0.000    7.692    0.000    0.000    0.000    0.000 
#    0.000    0.000    0.000    0.000    0.000    0.000 
#
# Total GULP energy -644746.577443 kJ/mol
# GULP energy per Si atom -12398.972643 kJ/mol
# Density = 1.964164 g / cm^3
# Si number density = 19.686450 Si / 1000 Ang^3
#
#
#
# Elastic Constant Matrix: (Units=GPa)
#
#
# Indices 1 2 3 4 5 6 
#
# 1 149.2908 46.6810 56.6011 0.0000 0.0000 0.0000
# 2 46.6810 94.4055 50.9744 0.0000 0.0000 0.0000
# 3 56.6011 50.9744 92.5435 0.0000 0.0000 0.0000
# 4 0.0000 0.0000 0.0000 49.8897 0.0000 0.0000
# 5 0.0000 0.0000 0.0000 0.0000 14.7902 0.0000
# 6 0.0000 0.0000 0.0000 0.0000 0.0000 23.1461
#
#
#
# Elastic Compliance Matrix: (Units=1/GPa)
#
#
# Indices 1 2 3 4 5 6 
#
# 1 0.009005 -0.002105 -0.004348 0.000000 0.000000 0.000000
# 2 -0.002105 0.015569 -0.007288 0.000000 0.000000 0.000000
# 3 -0.004348 -0.007288 0.017480 0.000000 0.000000 0.000000
# 4 0.000000 0.000000 0.000000 0.020044 0.000000 0.000000
# 5 0.000000 0.000000 0.000000 0.000000 0.067612 0.000000
# 6 0.000000 0.000000 0.000000 0.000000 0.000000 0.043204
#
#
# Mechanical properties :
#
#
# Convention : Reuss Voigt Hill
#
# Bulk Modulus (GPa) = 68.63014 71.63921 70.13468
# Shear Modulus (GPa) = 24.36021 29.69743 27.02882
#
# Velocity S-wave (km/s) = 3.52150 3.88818 3.70937
# Velocity P-wave (km/s) = 7.17439 7.52505 7.35181
#
# Compressibility (1/GPa) = 0.01457086
#
# Stress axis : x y z
#
# Youngs Moduli (GPa) = 111.04851 64.23171 57.20981
#
# Poissons Ratio (x) = 0.13520 0.24876
# Poissons Ratio (y) = 0.23375 0.41695
# Poissons Ratio (z) = 0.48286 0.46812
#
# Static dielectric constant tensor:
#      x y z
#    x 3.809260 0.000000 0.000000 
#    y 0.000000 3.386550 0.000000 
#    z 0.000000 0.000000 3.629160 
# 
# 
# High freq. dielectric constant tensor:
#      x y z
#    x 1.777900 0.000000 0.000000 
#    y 0.000000 1.755070 0.000000 
#    z 0.000000 0.000000 1.769540 
# 
# From -- ./inp_files/12404.got.cif
#   From: 2010.03.12/outbox.cif.g09.slc.cpg/sg65_7_cif.got.tgz:12404.got - 2010.04.10 20:52:16.
