data_PCOD8272565
_publ_section_title
;
Structure prediction by ZEFSAII (Michael W. Deem and Ramdas Pophale) SiO2 
 PCOD8272565
Probable space group: C M M M
;
_chemical_formula_sum "Si O2"
_cell_formula_units_Z 92
_cell_length_a 12.017525
_cell_length_b 27.051716
_cell_length_c 16.708961
_cell_angle_alpha 90.000000
_cell_angle_beta 90.000000
_cell_angle_gamma 90.000000
_cell_volume 5431.994218
_symmetry_space_group_name_H-M "C M M M"
_symmetry_group_IT_number 65
_symmetry_cell_setting 'orthorhombic'
loop_
_space_group_symop_operation_xyz
x,y,z
-x,-y,z
x,-y,-z
-x,y,-z
-x,-y,-z
x,y,-z
-x,y,z
x,-y,z
1/2+x,1/2+y,z
1/2-x,1/2-y,z
1/2+x,1/2-y,-z
1/2-x,1/2+y,-z
1/2-x,1/2-y,-z
1/2+x,1/2+y,-z
1/2-x,1/2+y,z
1/2+x,1/2-y,z
loop_
_atom_site_type_symbol
_atom_site_label
_atom_site_fract_x
_atom_site_fract_y
_atom_site_fract_z
Si Si1 0.810661 0.557779 0.587546
Si Si2 0.000000 0.642974 0.847752
Si Si3 0.000000 0.559636 0.290630
Si Si4 0.626501 0.444140 0.702703
Si Si5 0.000000 0.577546 0.000000
Si Si6 0.783489 0.306141 0.094255
Si Si7 0.252500 0.053457 0.000000
Si Si8 0.129914 0.889076 0.135451
O O1 0.828051 0.583349 0.500000
O O2 0.822428 0.500000 0.573964
O O3 0.896517 0.574335 0.654703
O O4 0.691017 0.572652 0.623093
O O5 0.000000 0.600016 0.780058
O O6 0.889260 0.677720 0.850577
O O7 0.000000 0.612436 0.926179
O O8 0.000000 0.500000 0.264737
O O9 0.500000 0.441895 0.676810
O O10 0.661034 0.500000 0.728854
O O11 0.652006 0.407439 0.775141
O O12 0.113838 0.546290 0.000000
O O13 0.750000 0.250000 0.108244
O O14 0.672020 0.333373 0.125330
O O15 0.807471 0.317393 0.000000
O O16 0.210151 0.079677 0.920843
O O17 0.196823 0.000000 0.000000
O O18 0.000000 0.893637 0.111344
#
# Coordination Sequence:
#
# PCOD8272565 Si02
#       8
#    16   8   8  16   4  16   8  16
#     4   9  17  30  48  73 106 143 180 212 250 310
#     4  12  20  41  57  77 110 140 185 223 272 326
#     4  10  21  32  53  80 111 149 176 213 265 314
#     4   9  18  31  48  72 105 143 175 213 259 305
#     4  12  23  40  50  76 106 142 184 232 255 314
#     4  11  23  38  56  76  99 136 180 231 278 320
#     4  12  24  36  51  73 105 145 187 227 263 310
#     4  11  21  36  53  76 103 138 183 225 267 322
#
# _framework density 16.936689999999999
#
# number of rings (size 3 to 8) (size 9 to 14) (size 15 to 20)
#    0.000    1.565    3.478    2.217    1.217    3.478 
#    0.000    1.739    0.000    0.000    0.000    0.000 
#    0.000   17.391    0.000    0.000    0.000    0.000 
#
# Total GULP energy -569929.566954 kJ/mol
# GULP energy per Si atom -12389.773195 kJ/mol
# Density = 1.689814 g / cm^3
# Si number density = 16.936690 Si / 1000 Ang^3
#
#
#
# Elastic Constant Matrix: (Units=GPa)
#
#
# Indices 1 2 3 4 5 6 
#
# 1 106.0315 41.6935 51.5597 0.0000 0.0000 0.0000
# 2 41.6935 87.2878 46.5064 0.0000 0.0000 0.0000
# 3 51.5597 46.5064 111.6094 0.0000 0.0000 0.0000
# 4 0.0000 0.0000 0.0000 26.3752 0.0000 0.0000
# 5 0.0000 0.0000 0.0000 0.0000 -18.5153 0.0000
# 6 0.0000 0.0000 0.0000 0.0000 0.0000 -16.3644
#
#
#
# Elastic Compliance Matrix: (Units=1/GPa)
#
#
# Indices 1 2 3 4 5 6 
#
# 1 0.013124 -0.003905 -0.004435 0.000000 0.000000 0.000000
# 2 -0.003905 0.015888 -0.004816 0.000000 0.000000 0.000000
# 3 -0.004435 -0.004816 0.013016 0.000000 0.000000 0.000000
# 4 0.000000 0.000000 0.000000 0.037914 0.000000 0.000000
# 5 0.000000 0.000000 0.000000 0.000000 -0.054009 0.000000
# 6 0.000000 0.000000 0.000000 0.000000 0.000000 -0.061108
#
#
# Mechanical properties :
#
#
# Convention : Reuss Voigt Hill
#
# Bulk Modulus (GPa) = 63.64031 64.93865 64.28948
# Shear Modulus (GPa) = -1379.30427 9.31039 -684.99694
#
# Velocity S-wave (km/s) = -28.56845 2.34715 -20.13265
# Velocity P-wave (km/s) = 32.41221 6.76541 22.41407
#
# Compressibility (1/GPa) = 0.01571331
#
# Stress axis : x y z
#
# Youngs Moduli (GPa) = 76.19864 62.94139 76.83107
#
# Poissons Ratio (x) = 0.24582 0.34077
# Poissons Ratio (y) = 0.29759 0.37002
# Poissons Ratio (z) = 0.33796 0.30313
#
# Static dielectric constant tensor:
#      x y z
#    x 3.751440 0.000000 0.000000 
#    y 0.000000 3.039880 0.000000 
#    z 0.000000 0.000000 3.316010 
# 
# 
# High freq. dielectric constant tensor:
#      x y z
#    x 1.674060 0.000000 0.000000 
#    y 0.000000 1.620250 0.000000 
#    z 0.000000 0.000000 1.643440 
# 
# From -- ./inp_files/51923.got.cif
#   From: 2010.03.12/outbox.cif.g09.slc.cpg/sg65_26_cif.got.tgz:51923.got - 2010.04.10 20:52:16.
