data_PCOD8272128
_publ_section_title
;
Structure prediction by ZEFSAII (Michael W. Deem and Ramdas Pophale) SiO2 
 PCOD8272128
Probable space group: C M M M
;
_chemical_formula_sum "Si O2"
_cell_formula_units_Z 56
_cell_length_a 7.597013
_cell_length_b 26.420463
_cell_length_c 15.487909
_cell_angle_alpha 90.000000
_cell_angle_beta 90.000000
_cell_angle_gamma 90.000000
_cell_volume 3108.680449
_symmetry_space_group_name_H-M "C M M M"
_symmetry_group_IT_number 65
_symmetry_cell_setting 'orthorhombic'
loop_
_space_group_symop_operation_xyz
x,y,z
-x,-y,z
x,-y,-z
-x,y,-z
-x,-y,-z
x,y,-z
-x,y,z
x,-y,z
1/2+x,1/2+y,z
1/2-x,1/2-y,z
1/2+x,1/2-y,-z
1/2-x,1/2+y,-z
1/2-x,1/2-y,-z
1/2+x,1/2+y,-z
1/2-x,1/2+y,z
1/2+x,1/2-y,z
loop_
_atom_site_type_symbol
_atom_site_label
_atom_site_fract_x
_atom_site_fract_y
_atom_site_fract_z
Si Si1 0.500000 0.444148 0.296476
Si Si2 0.197695 0.595848 0.816760
Si Si3 0.000000 0.155429 0.398460
Si Si4 0.701732 0.805209 0.281181
Si Si5 0.708042 0.442179 0.000000
O O1 0.500000 0.500000 0.338104
O O2 0.328852 0.439685 0.236109
O O3 0.500000 0.403762 0.373342
O O4 0.238371 0.654699 0.795362
O O5 0.000000 0.581710 0.788077
O O6 0.218725 0.587723 0.918148
O O7 0.824996 0.182358 0.362751
O O8 0.000000 0.160962 0.500000
O O9 0.500000 0.807314 0.312863
O O10 0.750000 0.750000 0.244087
O O11 0.777426 0.500000 0.000000
O O12 0.500000 0.441124 0.000000
#
# Coordination Sequence:
#
# PCOD8272128 Si02
#       5
#     8  16   8  16   8
#     4  10  20  36  56  78 107 145 184 220 265 321
#     4  10  21  35  54  79 110 143 182 223 266 317
#     4  10  22  37  55  83 112 138 175 224 272 321
#     4  10  20  37  58  80 107 143 178 218 270 324
#     4  11  21  33  52  80 110 141 181 228 266 301
#
# _framework density 18.014074999999998
#
# number of rings (size 3 to 8) (size 9 to 14) (size 15 to 20)
#    0.000    1.857    2.857    1.286    0.000    4.286 
#    0.000    0.714    0.000    0.000    0.000    8.000 
#    0.000    0.000    0.000    0.000    0.000    0.000 
#
# Total GULP energy -347237.971916 kJ/mol
# GULP energy per Si atom -12401.356140 kJ/mol
# Density = 1.797307 g / cm^3
# Si number density = 18.014075 Si / 1000 Ang^3
#
#
#
# Elastic Constant Matrix: (Units=GPa)
#
#
# Indices 1 2 3 4 5 6 
#
# 1 128.4105 47.0045 38.7056 0.0000 0.0000 0.0000
# 2 47.0045 142.0327 53.3604 0.0000 0.0000 0.0000
# 3 38.7056 53.3604 109.4016 0.0000 0.0000 0.0000
# 4 0.0000 0.0000 0.0000 14.1903 0.0000 0.0000
# 5 0.0000 0.0000 0.0000 0.0000 19.3814 0.0000
# 6 0.0000 0.0000 0.0000 0.0000 0.0000 17.8343
#
#
#
# Elastic Compliance Matrix: (Units=1/GPa)
#
#
# Indices 1 2 3 4 5 6 
#
# 1 0.009268 -0.002247 -0.002183 0.000000 0.000000 0.000000
# 2 -0.002247 0.009165 -0.003675 0.000000 0.000000 0.000000
# 3 -0.002183 -0.003675 0.011706 0.000000 0.000000 0.000000
# 4 0.000000 0.000000 0.000000 0.070470 0.000000 0.000000
# 5 0.000000 0.000000 0.000000 0.000000 0.051596 0.000000
# 6 0.000000 0.000000 0.000000 0.000000 0.000000 0.056072
#
#
# Mechanical properties :
#
#
# Convention : Reuss Voigt Hill
#
# Bulk Modulus (GPa) = 71.79732 73.10952 72.45342
# Shear Modulus (GPa) = 21.82168 26.33283 24.07726
#
# Velocity S-wave (km/s) = 3.48425 3.82749 3.65989
# Velocity P-wave (km/s) = 7.49196 7.75923 7.62676
#
# Compressibility (1/GPa) = 0.01392810
#
# Stress axis : x y z
#
# Youngs Moduli (GPa) = 107.89754 109.11049 85.42960
#
# Poissons Ratio (x) = 0.24518 0.18649
# Poissons Ratio (y) = 0.24245 0.31397
# Poissons Ratio (z) = 0.23554 0.40101
#
# Static dielectric constant tensor:
#      x y z
#    x 3.692490 0.000000 0.000000 
#    y 0.000000 3.483430 0.000000 
#    z 0.000000 0.000000 3.054760 
# 
# 
# High freq. dielectric constant tensor:
#      x y z
#    x 1.722120 0.000000 0.000000 
#    y 0.000000 1.705580 0.000000 
#    z 0.000000 0.000000 1.666070 
# 
# From -- ./inp_files/35820.got.cif
#   From: 2010.03.12/outbox.cif.g09.slc.cpg/sg65_18_cif.got.tgz:35820.got - 2010.04.10 20:52:16.
