data_PCOD8272871
_publ_section_title
;
Structure prediction by ZEFSAII (Michael W. Deem and Ramdas Pophale) SiO2 
 PCOD8272871
Probable space group: C M M M
;
_chemical_formula_sum "Si O2"
_cell_formula_units_Z 64
_cell_length_a 21.797236
_cell_length_b 18.016265
_cell_length_c 8.183743
_cell_angle_alpha 90.000000
_cell_angle_beta 90.000000
_cell_angle_gamma 90.000000
_cell_volume 3213.794995
_symmetry_space_group_name_H-M "C M M M"
_symmetry_group_IT_number 65
_symmetry_cell_setting 'orthorhombic'
loop_
_space_group_symop_operation_xyz
x,y,z
-x,-y,z
x,-y,-z
-x,y,-z
-x,-y,-z
x,y,-z
-x,y,z
x,-y,z
1/2+x,1/2+y,z
1/2-x,1/2-y,z
1/2+x,1/2-y,-z
1/2-x,1/2+y,-z
1/2-x,1/2-y,-z
1/2+x,1/2+y,-z
1/2-x,1/2+y,z
1/2+x,1/2-y,z
loop_
_atom_site_type_symbol
_atom_site_label
_atom_site_fract_x
_atom_site_fract_y
_atom_site_fract_z
Si Si1 0.873833 0.840514 0.815993
Si Si2 0.118647 0.334570 0.186221
Si Si3 0.571957 0.582192 0.500000
Si Si4 0.500000 0.082168 0.310315
Si Si5 0.747891 0.837950 0.319558
O O1 0.884771 0.753421 0.790802
O O2 0.910026 0.878454 0.669118
O O3 0.802038 0.863345 0.802097
O O4 0.895730 0.864114 0.000000
O O5 0.181437 0.366651 0.263032
O O6 0.060130 0.371679 0.266944
O O7 0.118953 0.358168 0.000000
O O8 0.600971 0.500000 0.500000
O O9 0.500000 0.578147 0.500000
O O10 0.500000 0.069943 0.500000
O O11 0.500000 0.000000 0.226364
O O12 0.761450 0.870366 0.500000
O O13 0.750000 0.750000 0.324771
#
# Coordination Sequence:
#
# PCOD8272871 Si02
#       5
#    16  16   8   8  16
#     4  10  21  38  64  95 122 154 205 256 299 358
#     4  10  21  35  59  91 121 159 203 249 303 354
#     4  11  26  44  61  86 122 161 194 243 315 373
#     4  11  25  41  57  83 123 168 207 248 300 360
#     4   9  16  31  58  91 122 154 194 249 305 348
#
# _framework density 19.914151
#
# number of rings (size 3 to 8) (size 9 to 14) (size 15 to 20)
#    0.000    2.000    1.250    1.875    5.250    5.000 
#    0.000    2.500    0.000    3.000    0.000    0.000 
#    0.000    0.000    0.000    0.000    0.000    0.000 
#
# Total GULP energy -396583.585629 kJ/mol
# GULP energy per Si atom -12393.237051 kJ/mol
# Density = 1.986883 g / cm^3
# Si number density = 19.914151 Si / 1000 Ang^3
#
#
#
# Elastic Constant Matrix: (Units=GPa)
#
#
# Indices 1 2 3 4 5 6 
#
# 1 134.3648 41.2085 40.4714 0.0000 0.0000 0.0000
# 2 41.2085 54.4952 44.0249 0.0000 0.0000 0.0000
# 3 40.4714 44.0249 149.6271 0.0000 0.0000 0.0000
# 4 0.0000 0.0000 0.0000 10.1021 0.0000 0.0000
# 5 0.0000 0.0000 0.0000 0.0000 28.7034 0.0000
# 6 0.0000 0.0000 0.0000 0.0000 0.0000 -3.2120
#
#
#
# Elastic Compliance Matrix: (Units=1/GPa)
#
#
# Indices 1 2 3 4 5 6 
#
# 1 0.009732 -0.006864 -0.000613 0.000000 0.000000 0.000000
# 2 -0.006864 0.028914 -0.006651 0.000000 0.000000 0.000000
# 3 -0.000613 -0.006651 0.008806 0.000000 0.000000 0.000000
# 4 0.000000 0.000000 0.000000 0.098989 0.000000 0.000000
# 5 0.000000 0.000000 0.000000 0.000000 0.034839 0.000000
# 6 0.000000 0.000000 0.000000 0.000000 0.000000 -0.311335
#
#
# Mechanical properties :
#
#
# Convention : Reuss Voigt Hill
#
# Bulk Modulus (GPa) = 52.09298 65.54407 58.81852
# Shear Modulus (GPa) = -52.41080 21.30419 -15.55331
#
# Velocity S-wave (km/s) = -5.13571 3.27433 -2.79770
# Velocity P-wave (km/s) = 2.99195 6.87603 4.37767
#
# Compressibility (1/GPa) = 0.01919644
#
# Stress axis : x y z
#
# Youngs Moduli (GPa) = 102.75145 34.58545 113.56118
#
# Poissons Ratio (x) = 0.23741 0.06957
# Poissons Ratio (y) = 0.70533 0.75526
# Poissons Ratio (z) = 0.06295 0.23002
#
# Static dielectric constant tensor:
#      x y z
#    x 3.797210 0.000000 0.000000 
#    y 0.000000 3.594270 0.000000 
#    z 0.000000 0.000000 3.845850 
# 
# 
# High freq. dielectric constant tensor:
#      x y z
#    x 1.788290 0.000000 0.000000 
#    y 0.000000 1.738290 0.000000 
#    z 0.000000 0.000000 1.794570 
# 
# From -- ./inp_files/10869.got.cif
#   From: 2010.03.12/outbox.cif.g09.slc.cpg/sg65_6_cif.got.tgz:10869.got - 2010.04.10 20:52:16.
