data_PCOD8272970
_publ_section_title
;
Structure prediction by ZEFSAII (Michael W. Deem and Ramdas Pophale) SiO2 
 PCOD8272970
Probable space group: C M M M
;
_chemical_formula_sum "Si O2"
_cell_formula_units_Z 104
_cell_length_a 20.416533
_cell_length_b 9.053224
_cell_length_c 29.609266
_cell_angle_alpha 90.000000
_cell_angle_beta 90.000000
_cell_angle_gamma 90.000000
_cell_volume 5472.841903
_symmetry_space_group_name_H-M "C M M M"
_symmetry_group_IT_number 65
_symmetry_cell_setting 'orthorhombic'
loop_
_space_group_symop_operation_xyz
x,y,z
-x,-y,z
x,-y,-z
-x,y,-z
-x,-y,-z
x,y,-z
-x,y,z
x,-y,z
1/2+x,1/2+y,z
1/2-x,1/2-y,z
1/2+x,1/2-y,-z
1/2-x,1/2+y,-z
1/2-x,1/2-y,-z
1/2+x,1/2+y,-z
1/2-x,1/2+y,z
1/2+x,1/2-y,z
loop_
_atom_site_type_symbol
_atom_site_label
_atom_site_fract_x
_atom_site_fract_y
_atom_site_fract_z
Si Si1 0.424594 0.674766 0.889156
Si Si2 0.500000 0.164346 0.447015
Si Si3 0.077614 0.837440 0.210843
Si Si4 0.631039 0.325954 0.552229
Si Si5 0.315933 0.171057 0.946991
Si Si6 0.426133 0.173501 0.701239
Si Si7 0.813464 0.675339 0.366353
O O1 0.500000 0.720893 0.897759
O O2 0.416333 0.500000 0.895496
O O3 0.401390 0.721787 0.838568
O O4 0.379813 0.760132 0.924322
O O5 0.500000 0.142447 0.500000
O O6 0.437651 0.257193 0.431868
O O7 0.500000 0.000000 0.423971
O O8 0.101940 0.733015 0.251210
O O9 0.000000 0.847637 0.210985
O O10 0.107581 0.000000 0.219188
O O11 0.646643 0.290304 0.500000
O O12 0.630025 0.500000 0.561111
O O13 0.684121 0.245021 0.583327
O O14 0.250000 0.250000 0.929297
O O15 0.310696 0.000000 0.934204
O O16 0.324284 0.196433 0.000000
O O17 0.500000 0.232271 0.690796
O O18 0.377714 0.224084 0.661475
O O19 0.426712 0.000000 0.705770
O O20 0.805457 0.500000 0.369214
O O21 0.750000 0.750000 0.342884
#
# Coordination Sequence:
#
# PCOD8272970 Si02
#       7
#    16   8  16  16  16  16  16
#     4   9  18  33  54  81 112 144 180 224 274 327
#     4   9  17  31  53  81 111 141 173 213 261 307
#     4   8  15  30  53  81 110 139 173 216 266 321
#     4  10  21  37  57  82 111 142 180 224 268 318
#     4  10  21  36  53  74 104 144 189 234 279 329
#     4   9  19  36  58  83 108 138 178 222 268 321
#     4  11  24  40  58  80 111 146 181 223 272 326
#
# _framework density 19.002925000000001
#
# number of rings (size 3 to 8) (size 9 to 14) (size 15 to 20)
#    0.000    2.538    0.000    2.538    1.077    5.538 
#    0.000    3.846    0.000    1.846    0.000    0.000 
#    0.000    0.000    0.000    0.000    0.000    0.000 
#
# Total GULP energy -644645.179616 kJ/mol
# GULP energy per Si atom -12397.022685 kJ/mol
# Density = 1.895967 g / cm^3
# Si number density = 19.002925 Si / 1000 Ang^3
#
#
#
# Elastic Constant Matrix: (Units=GPa)
#
#
# Indices 1 2 3 4 5 6 
#
# 1 107.5560 55.2853 55.9870 0.0000 0.0000 0.0000
# 2 55.2853 84.3525 50.6801 0.0000 0.0000 0.0000
# 3 55.9870 50.6801 85.1372 0.0000 0.0000 0.0000
# 4 0.0000 0.0000 0.0000 33.4048 0.0000 0.0000
# 5 0.0000 0.0000 0.0000 0.0000 11.3948 0.0000
# 6 0.0000 0.0000 0.0000 0.0000 0.0000 32.6157
#
#
#
# Elastic Compliance Matrix: (Units=1/GPa)
#
#
# Indices 1 2 3 4 5 6 
#
# 1 0.016171 -0.006553 -0.006733 0.000000 0.000000 0.000000
# 2 -0.006553 0.021111 -0.008258 0.000000 0.000000 0.000000
# 3 -0.006733 -0.008258 0.021089 0.000000 0.000000 0.000000
# 4 0.000000 0.000000 0.000000 0.029936 0.000000 0.000000
# 5 0.000000 0.000000 0.000000 0.000000 0.087759 0.000000
# 6 0.000000 0.000000 0.000000 0.000000 0.000000 0.030660
#
#
# Mechanical properties :
#
#
# Convention : Reuss Voigt Hill
#
# Bulk Modulus (GPa) = 65.43064 66.77227 66.10146
# Shear Modulus (GPa) = 19.61490 23.15596 21.38543
#
# Velocity S-wave (km/s) = 3.21628 3.49456 3.35830
# Velocity P-wave (km/s) = 6.94976 7.17612 7.06385
#
# Compressibility (1/GPa) = 0.01528336
#
# Stress axis : x y z
#
# Youngs Moduli (GPa) = 61.84027 47.36821 47.41789
#
# Poissons Ratio (x) = 0.31041 0.31927
# Poissons Ratio (y) = 0.40524 0.39156
# Poissons Ratio (z) = 0.41638 0.39115
#
# Static dielectric constant tensor:
#      x y z
#    x 3.540530 0.000000 0.000000 
#    y 0.000000 3.530940 0.000000 
#    z 0.000000 0.000000 3.573980 
# 
# 
# High freq. dielectric constant tensor:
#      x y z
#    x 1.724820 0.000000 0.000000 
#    y 0.000000 1.740230 0.000000 
#    z 0.000000 0.000000 1.734600 
# 
# From -- ./inp_files/75500.got.cif
#   From: 2010.03.12/outbox.cif.g09.slc.cpg/sg65_38_cif.got.tgz:75500.got - 2010.04.10 20:52:16.
