data_PCOD8272206
_publ_section_title
;
Structure prediction by ZEFSAII (Michael W. Deem and Ramdas Pophale) SiO2 
 PCOD8272206
Probable space group: C M M M
;
_chemical_formula_sum "Si O2"
_cell_formula_units_Z 88
_cell_length_a 19.524141
_cell_length_b 8.948687
_cell_length_c 27.738730
_cell_angle_alpha 90.000000
_cell_angle_beta 90.000000
_cell_angle_gamma 90.000000
_cell_volume 4846.384050
_symmetry_space_group_name_H-M "C M M M"
_symmetry_group_IT_number 65
_symmetry_cell_setting 'orthorhombic'
loop_
_space_group_symop_operation_xyz
x,y,z
-x,-y,z
x,-y,-z
-x,y,-z
-x,-y,-z
x,y,-z
-x,y,z
x,-y,z
1/2+x,1/2+y,z
1/2-x,1/2-y,z
1/2+x,1/2-y,-z
1/2-x,1/2+y,-z
1/2-x,1/2-y,-z
1/2+x,1/2+y,-z
1/2-x,1/2+y,z
1/2+x,1/2-y,z
loop_
_atom_site_type_symbol
_atom_site_label
_atom_site_fract_x
_atom_site_fract_y
_atom_site_fract_z
Si Si1 0.922157 0.823901 0.136090
Si Si2 0.179557 0.176088 0.054329
Si Si3 0.322045 0.822724 0.575755
Si Si4 0.077631 0.323744 0.766798
Si Si5 0.919282 0.823006 0.500000
Si Si6 0.680460 0.174647 0.313860
O O1 0.879420 0.766860 0.090168
O O2 0.892506 0.749653 0.184618
O O3 0.000000 0.772115 0.127302
O O4 0.916421 0.000000 0.142237
O O5 0.250000 0.250000 0.071001
O O6 0.188871 0.000000 0.057577
O O7 0.159769 0.225503 0.000000
O O8 0.250000 0.750000 0.559254
O O9 0.384566 0.750165 0.546822
O O10 0.337320 0.782790 0.631265
O O11 0.318721 0.000000 0.566254
O O12 0.082670 0.500000 0.772751
O O13 0.120105 0.266978 0.720664
O O14 0.000000 0.270362 0.758176
O O15 0.000000 0.784603 0.500000
O O16 0.906889 0.000000 0.500000
O O17 0.750000 0.250000 0.296379
O O18 0.691109 0.000000 0.308515
#
# Coordination Sequence:
#
# PCOD8272206 Si02
#       6
#    16  16  16  16   8  16
#     4   9  18  32  49  70  95 124 161 201 240 286
#     4   9  18  32  49  69  94 124 157 196 242 289
#     4  10  20  36  58  80 104 136 173 211 252 300
#     4   9  18  33  51  71  98 131 164 199 242 289
#     4  11  24  39  54  77 109 139 170 211 256 301
#     4   9  19  34  53  77 102 130 165 205 245 289
#
# _framework density 18.157865999999999
#
# number of rings (size 3 to 8) (size 9 to 14) (size 15 to 20)
#    0.000    2.636    0.000    1.091    0.000    4.727 
#    0.000    7.273    0.000    2.182    0.000    5.091 
#    0.000    0.000    0.000    0.000    0.000    0.000 
#
# Total GULP energy -545630.699077 kJ/mol
# GULP energy per Si atom -12400.697706 kJ/mol
# Density = 1.811654 g / cm^3
# Si number density = 18.157866 Si / 1000 Ang^3
#
#
#
# Elastic Constant Matrix: (Units=GPa)
#
#
# Indices 1 2 3 4 5 6 
#
# 1 127.0629 43.7595 91.5532 0.0000 0.0000 0.0000
# 2 43.7595 43.6292 38.8443 0.0000 0.0000 0.0000
# 3 91.5532 38.8443 138.8330 0.0000 0.0000 0.0000
# 4 0.0000 0.0000 0.0000 29.8767 0.0000 0.0000
# 5 0.0000 0.0000 0.0000 0.0000 38.5758 0.0000
# 6 0.0000 0.0000 0.0000 0.0000 0.0000 29.2735
#
#
#
# Elastic Compliance Matrix: (Units=1/GPa)
#
#
# Indices 1 2 3 4 5 6 
#
# 1 0.017655 -0.009778 -0.008907 0.000000 0.000000 0.000000
# 2 -0.009778 0.035939 -0.003607 0.000000 0.000000 0.000000
# 3 -0.008907 -0.003607 0.014086 0.000000 0.000000 0.000000
# 4 0.000000 0.000000 0.000000 0.033471 0.000000 0.000000
# 5 0.000000 0.000000 0.000000 0.000000 0.025923 0.000000
# 6 0.000000 0.000000 0.000000 0.000000 0.000000 0.034161
#
#
# Mechanical properties :
#
#
# Convention : Reuss Voigt Hill
#
# Bulk Modulus (GPa) = 43.29786 73.09323 58.19554
# Shear Modulus (GPa) = 23.41715 28.56975 25.99345
#
# Velocity S-wave (km/s) = 3.59505 3.97092 3.78765
# Velocity P-wave (km/s) = 6.41323 7.83365 7.15876
#
# Compressibility (1/GPa) = 0.02309583
#
# Stress axis : x y z
#
# Youngs Moduli (GPa) = 56.63986 27.82465 70.99253
#
# Poissons Ratio (x) = 0.27207 0.63233
# Poissons Ratio (y) = 0.55382 0.25610
# Poissons Ratio (z) = 0.50449 0.10038
#
# Static dielectric constant tensor:
#      x y z
#    x 3.474580 0.000000 0.000000 
#    y 0.000000 3.275800 0.000000 
#    z 0.000000 0.000000 3.617430 
# 
# 
# High freq. dielectric constant tensor:
#      x y z
#    x 1.699280 0.000000 0.000000 
#    y 0.000000 1.698950 0.000000 
#    z 0.000000 0.000000 1.713210 
# 
# From -- ./inp_files/77791.got.cif
#   From: 2010.03.12/outbox.cif.g09.slc.cpg/sg65_39_cif.got.tgz:77791.got - 2010.04.10 20:52:16.
