data_PCOD8272571
_publ_section_title
;
Structure prediction by ZEFSAII (Michael W. Deem and Ramdas Pophale) SiO2 
 PCOD8272571
Probable space group: C M M M
;
_chemical_formula_sum "Si O2"
_cell_formula_units_Z 120
_cell_length_a 10.252579
_cell_length_b 25.248581
_cell_length_c 25.925155
_cell_angle_alpha 90.000000
_cell_angle_beta 90.000000
_cell_angle_gamma 90.000000
_cell_volume 6711.065248
_symmetry_space_group_name_H-M "C M M M"
_symmetry_group_IT_number 65
_symmetry_cell_setting 'orthorhombic'
loop_
_space_group_symop_operation_xyz
x,y,z
-x,-y,z
x,-y,-z
-x,y,-z
-x,-y,-z
x,y,-z
-x,y,z
x,-y,z
1/2+x,1/2+y,z
1/2-x,1/2-y,z
1/2+x,1/2-y,-z
1/2-x,1/2+y,-z
1/2-x,1/2-y,-z
1/2+x,1/2+y,-z
1/2-x,1/2+y,z
1/2+x,1/2-y,z
loop_
_atom_site_type_symbol
_atom_site_label
_atom_site_fract_x
_atom_site_fract_y
_atom_site_fract_z
Si Si1 0.783493 0.123317 0.862807
Si Si2 0.857251 0.438142 0.055381
Si Si3 0.355259 0.205274 0.799934
Si Si4 0.149030 0.368739 0.293023
Si Si5 0.855658 0.705744 0.500000
Si Si6 0.650638 0.200589 0.387629
Si Si7 0.357521 0.708305 0.058521
Si Si8 0.354632 0.561396 0.236125
O O1 0.732042 0.075801 0.897026
O O2 0.664293 0.157125 0.839561
O O3 0.867124 0.159979 0.901238
O O4 0.862155 0.095879 0.816421
O O5 0.872118 0.500000 0.054790
O O6 0.000000 0.412104 0.062435
O O7 0.799042 0.418829 0.000000
O O8 0.500000 0.229285 0.807793
O O9 0.250000 0.250000 0.810994
O O10 0.337478 0.183132 0.742525
O O11 0.187006 0.347808 0.349788
O O12 0.248463 0.414945 0.275927
O O13 0.000000 0.390768 0.290694
O O14 0.750000 0.750000 0.500000
O O15 0.837458 0.674876 0.554429
O O16 0.000000 0.731674 0.500000
O O17 0.500000 0.219262 0.377182
O O18 0.750000 0.250000 0.380184
O O19 0.500000 0.735791 0.058901
O O20 0.250000 0.750000 0.078013
O O21 0.323409 0.689174 0.000000
O O22 0.500000 0.564979 0.260537
O O23 0.318008 0.500000 0.224877
#
# Coordination Sequence:
#
# PCOD8272571 Si02
#       8
#    16  16  16  16   8  16  16  16
#     4  11  20  33  53  72  94 122 154 190 236 287
#     4   9  18  32  50  73  98 122 151 189 234 285
#     4  10  21  33  46  67  95 125 158 193 228 270
#     4   9  19  34  51  72  97 129 168 204 241 287
#     4   8  14  24  40  66 103 142 175 209 246 283
#     4   9  16  27  45  72 106 142 177 210 245 288
#     4  10  22  38  54  73  97 125 156 188 224 272
#     4  10  22  38  54  74  98 123 156 201 253 304
#
# _framework density 17.880917
#
# number of rings (size 3 to 8) (size 9 to 14) (size 15 to 20)
#    0.000    2.400    0.000    2.800    0.000    6.133 
#    0.000    1.333    0.000    0.000    0.000    6.067 
#    0.000    3.733    0.000    0.000    0.000    0.000 
#
# Total GULP energy -743282.943102 kJ/mol
# GULP energy per Si atom -12388.049052 kJ/mol
# Density = 1.784022 g / cm^3
# Si number density = 17.880917 Si / 1000 Ang^3
#
#
#
# Elastic Constant Matrix: (Units=GPa)
#
#
# Indices 1 2 3 4 5 6 
#
# 1 109.7207 48.5712 41.4690 0.0000 0.0000 0.0000
# 2 48.5712 79.7737 41.0597 0.0000 0.0000 0.0000
# 3 41.4690 41.0597 115.1597 0.0000 0.0000 0.0000
# 4 0.0000 0.0000 0.0000 24.4388 0.0000 0.0000
# 5 0.0000 0.0000 0.0000 0.0000 23.5609 0.0000
# 6 0.0000 0.0000 0.0000 0.0000 0.0000 24.4230
#
#
#
# Elastic Compliance Matrix: (Units=1/GPa)
#
#
# Indices 1 2 3 4 5 6 
#
# 1 0.012943 -0.006714 -0.002267 0.000000 0.000000 0.000000
# 2 -0.006714 0.018835 -0.004298 0.000000 0.000000 0.000000
# 3 -0.002267 -0.004298 0.011032 0.000000 0.000000 0.000000
# 4 0.000000 0.000000 0.000000 0.040919 0.000000 0.000000
# 5 0.000000 0.000000 0.000000 0.000000 0.042443 0.000000
# 6 0.000000 0.000000 0.000000 0.000000 0.000000 0.040945
#
#
# Mechanical properties :
#
#
# Convention : Reuss Voigt Hill
#
# Bulk Modulus (GPa) = 61.52630 62.98376 62.25503
# Shear Modulus (GPa) = 25.11394 26.05481 25.58437
#
# Velocity S-wave (km/s) = 3.75175 3.82138 3.78672
# Velocity P-wave (km/s) = 7.29733 7.40075 7.34922
#
# Compressibility (1/GPa) = 0.01625321
#
# Stress axis : x y z
#
# Youngs Moduli (GPa) = 77.26281 53.09164 90.64197
#
# Poissons Ratio (x) = 0.35643 0.20549
# Poissons Ratio (y) = 0.51871 0.38959
# Poissons Ratio (z) = 0.17516 0.22819
#
# Static dielectric constant tensor:
#      x y z
#    x 3.418810 0.000000 0.000000 
#    y 0.000000 3.004970 0.000000 
#    z 0.000000 0.000000 3.726450 
# 
# 
# High freq. dielectric constant tensor:
#      x y z
#    x 1.698420 0.000000 0.000000 
#    y 0.000000 1.656920 0.000000 
#    z 0.000000 0.000000 1.696110 
# 
# From -- ./inp_files/73928.got.cif
#   From: 2010.03.12/outbox.cif.g09.slc.cpg/sg65_37_cif.got.tgz:73928.got - 2010.04.10 20:52:16.
