data_PCOD8272506
_publ_section_title
;
Structure prediction by ZEFSAII (Michael W. Deem and Ramdas Pophale) SiO2 
 PCOD8272506
Probable space group: C M M M
;
_chemical_formula_sum "Si O2"
_cell_formula_units_Z 96
_cell_length_a 26.168124
_cell_length_b 20.585085
_cell_length_c 9.138441
_cell_angle_alpha 90.000000
_cell_angle_beta 90.000000
_cell_angle_gamma 90.000000
_cell_volume 4922.631948
_symmetry_space_group_name_H-M "C M M M"
_symmetry_group_IT_number 65
_symmetry_cell_setting 'orthorhombic'
loop_
_space_group_symop_operation_xyz
x,y,z
-x,-y,z
x,-y,-z
-x,y,-z
-x,-y,-z
x,y,-z
-x,y,z
x,-y,z
1/2+x,1/2+y,z
1/2-x,1/2-y,z
1/2+x,1/2-y,-z
1/2-x,1/2+y,-z
1/2-x,1/2-y,-z
1/2+x,1/2+y,-z
1/2-x,1/2+y,z
1/2+x,1/2-y,z
loop_
_atom_site_type_symbol
_atom_site_label
_atom_site_fract_x
_atom_site_fract_y
_atom_site_fract_z
Si Si1 0.439941 0.875831 0.163320
Si Si2 0.878489 0.722281 0.672801
Si Si3 0.000000 0.926415 0.673848
Si Si4 0.938959 0.500000 0.334926
Si Si5 0.200888 0.073624 0.168815
Si Si6 0.720944 0.816922 0.168886
Si Si7 0.392870 0.629708 0.327173
O O1 0.500000 0.882257 0.152337
O O2 0.427332 0.810655 0.252132
O O3 0.417191 0.937346 0.250444
O O4 0.416140 0.874100 0.000000
O O5 0.882400 0.714571 0.500000
O O6 0.828999 0.684588 0.731279
O O7 0.879113 0.797237 0.720659
O O8 0.949382 0.889206 0.730902
O O9 0.000000 0.926918 0.500000
O O10 0.000000 0.000000 0.734698
O O11 0.917442 0.500000 0.500000
O O12 0.000000 0.500000 0.336920
O O13 0.244262 0.123325 0.225158
O O14 0.148434 0.082118 0.256537
O O15 0.220526 0.000000 0.191751
O O16 0.188998 0.088703 0.000000
O O17 0.750000 0.750000 0.193549
O O18 0.705197 0.826289 0.000000
O O19 0.389880 0.620764 0.500000
#
# Coordination Sequence:
#
# PCOD8272506 Si02
#       7
#    16  16   8   8  16  16  16
#     4  10  21  37  58  83 113 152 196 236 284 349
#     4  11  23  36  56  85 116 150 192 243 293 341
#     4   9  18  34  55  81 115 152 189 228 277 341
#     4   9  17  33  57  83 111 145 185 233 287 336
#     4  10  21  38  61  87 113 145 188 238 294 355
#     4  10  20  38  61  81 109 148 188 233 290 355
#     4  10  21  36  58  85 114 153 195 237 286 345
#
# _framework density 19.501761999999999
#
# number of rings (size 3 to 8) (size 9 to 14) (size 15 to 20)
#    0.000    2.000    1.667    1.750    1.167    4.667 
#    1.500    0.417    0.000    1.500    0.000    0.000 
#    0.000    0.000    0.000    0.000    0.000    0.000 
#
# Total GULP energy -595305.972532 kJ/mol
# GULP energy per Si atom -12402.207761 kJ/mol
# Density = 1.945737 g / cm^3
# Si number density = 19.501762 Si / 1000 Ang^3
#
#
#
# Elastic Constant Matrix: (Units=GPa)
#
#
# Indices 1 2 3 4 5 6 
#
# 1 88.6802 50.5957 26.2314 0.0000 0.0000 0.0000
# 2 50.5957 128.8790 44.1262 0.0000 0.0000 0.0000
# 3 26.2314 44.1262 76.9578 0.0000 0.0000 0.0000
# 4 0.0000 0.0000 0.0000 27.5787 0.0000 0.0000
# 5 0.0000 0.0000 0.0000 0.0000 32.0997 0.0000
# 6 0.0000 0.0000 0.0000 0.0000 0.0000 34.8418
#
#
#
# Elastic Compliance Matrix: (Units=1/GPa)
#
#
# Indices 1 2 3 4 5 6 
#
# 1 0.014807 -0.005083 -0.002133 0.000000 0.000000 0.000000
# 2 -0.005083 0.011399 -0.004804 0.000000 0.000000 0.000000
# 3 -0.002133 -0.004804 0.016475 0.000000 0.000000 0.000000
# 4 0.000000 0.000000 0.000000 0.036260 0.000000 0.000000
# 5 0.000000 0.000000 0.000000 0.000000 0.031153 0.000000
# 6 0.000000 0.000000 0.000000 0.000000 0.000000 0.028701
#
#
# Mechanical properties :
#
#
# Convention : Reuss Voigt Hill
#
# Bulk Modulus (GPa) = 53.63776 59.60262 56.62019
# Shear Modulus (GPa) = 29.57722 30.47497 30.02609
#
# Velocity S-wave (km/s) = 3.89864 3.95736 3.92811
# Velocity P-wave (km/s) = 6.91589 7.17704 7.04768
#
# Compressibility (1/GPa) = 0.01864358
#
# Stress axis : x y z
#
# Youngs Moduli (GPa) = 67.53419 87.72417 60.69657
#
# Poissons Ratio (x) = 0.44589 0.12945
# Poissons Ratio (y) = 0.34327 0.29157
# Poissons Ratio (z) = 0.14403 0.42140
#
# Static dielectric constant tensor:
#      x y z
#    x 3.450900 0.000000 0.000000 
#    y 0.000000 3.730440 0.000000 
#    z 0.000000 0.000000 3.510820 
# 
# 
# High freq. dielectric constant tensor:
#      x y z
#    x 1.748290 0.000000 0.000000 
#    y 0.000000 1.770710 0.000000 
#    z 0.000000 0.000000 1.750860 
# 
# From -- ./inp_files/14377.got.cif
#   From: 2010.03.12/outbox.cif.g09.slc.cpg/sg65_8_cif.got.tgz:14377.got - 2010.04.10 20:52:16.
