data_PCOD8272606
_publ_section_title
;
Structure prediction by ZEFSAII (Michael W. Deem and Ramdas Pophale) SiO2 
 PCOD8272606
Probable space group: C M M M
;
_chemical_formula_sum "Si O2"
_cell_formula_units_Z 88
_cell_length_a 19.301590
_cell_length_b 27.067617
_cell_length_c 9.192234
_cell_angle_alpha 90.000000
_cell_angle_beta 90.000000
_cell_angle_gamma 90.000000
_cell_volume 4802.464688
_symmetry_space_group_name_H-M "C M M M"
_symmetry_group_IT_number 65
_symmetry_cell_setting 'orthorhombic'
loop_
_space_group_symop_operation_xyz
x,y,z
-x,-y,z
x,-y,-z
-x,y,-z
-x,-y,-z
x,y,-z
-x,y,z
x,-y,z
1/2+x,1/2+y,z
1/2-x,1/2-y,z
1/2+x,1/2-y,-z
1/2-x,1/2+y,-z
1/2-x,1/2-y,-z
1/2+x,1/2+y,-z
1/2-x,1/2+y,z
1/2+x,1/2-y,z
loop_
_atom_site_type_symbol
_atom_site_label
_atom_site_fract_x
_atom_site_fract_y
_atom_site_fract_z
Si Si1 0.680945 0.305523 0.837301
Si Si2 0.500000 0.441731 0.334274
Si Si3 0.421068 0.765262 0.668736
Si Si4 0.263288 0.946399 0.331932
Si Si5 0.691419 0.159503 0.667420
Si Si6 0.634216 0.582903 0.162440
O O1 0.622131 0.275204 0.755014
O O2 0.755443 0.305641 0.756861
O O3 0.655757 0.360914 0.843802
O O4 0.690766 0.284126 0.000000
O O5 0.500000 0.500000 0.322134
O O6 0.500000 0.423475 0.500000
O O7 0.434220 0.419590 0.255894
O O8 0.419995 0.750305 0.500000
O O9 0.500000 0.767931 0.727087
O O10 0.385620 0.819073 0.692145
O O11 0.242235 0.940702 0.500000
O O12 0.309125 0.898593 0.284293
O O13 0.193510 0.948994 0.238999
O O14 0.301462 0.000000 0.307398
O O15 0.714268 0.164002 0.500000
O O16 0.621824 0.561958 0.000000
#
# Coordination Sequence:
#
# PCOD8272606 Si02
#       6
#    16   8  16  16  16  16
#     4  10  21  35  52  75 102 131 167 210 253 298
#     4  11  23  35  47  65  93 131 171 209 248 293
#     4  10  21  35  52  75 102 135 172 207 249 301
#     4   9  17  31  52  75  97 125 164 206 248 296
#     4   9  18  34  54  75 102 134 168 207 249 298
#     4  10  21  34  48  69  98 129 163 206 253 298
#
# _framework density 18.323924000000002
#
# number of rings (size 3 to 8) (size 9 to 14) (size 15 to 20)
#    0.000    2.273    0.000    2.455    1.273    8.727 
#    0.000    0.000    0.000    0.545    0.000    3.818 
#    0.000    0.000    0.000   10.727    0.000   11.273 
#
# Total GULP energy -545401.354943 kJ/mol
# GULP energy per Si atom -12395.485340 kJ/mol
# Density = 1.828222 g / cm^3
# Si number density = 18.323924 Si / 1000 Ang^3
#
#
#
# Elastic Constant Matrix: (Units=GPa)
#
#
# Indices 1 2 3 4 5 6 
#
# 1 104.0273 44.6330 37.3276 0.0000 0.0000 0.0000
# 2 44.6330 73.6970 19.9490 0.0000 0.0000 0.0000
# 3 37.3276 19.9490 78.8966 0.0000 0.0000 0.0000
# 4 0.0000 0.0000 0.0000 16.4061 0.0000 0.0000
# 5 0.0000 0.0000 0.0000 0.0000 4.2787 0.0000
# 6 0.0000 0.0000 0.0000 0.0000 0.0000 8.0808
#
#
#
# Elastic Compliance Matrix: (Units=1/GPa)
#
#
# Indices 1 2 3 4 5 6 
#
# 1 0.014636 -0.007503 -0.005027 0.000000 0.000000 0.000000
# 2 -0.007503 0.018412 -0.001106 0.000000 0.000000 0.000000
# 3 -0.005027 -0.001106 0.015333 0.000000 0.000000 0.000000
# 4 0.000000 0.000000 0.000000 0.060953 0.000000 0.000000
# 5 0.000000 0.000000 0.000000 0.000000 0.233717 0.000000
# 6 0.000000 0.000000 0.000000 0.000000 0.000000 0.123750
#
#
# Mechanical properties :
#
#
# Convention : Reuss Voigt Hill
#
# Bulk Modulus (GPa) = 47.37329 51.16001 49.26665
# Shear Modulus (GPa) = 9.97783 16.06721 13.02252
#
# Velocity S-wave (km/s) = 2.33604 2.96437 2.66876
# Velocity P-wave (km/s) = 5.76068 6.30056 6.03666
#
# Compressibility (1/GPa) = 0.02110894
#
# Stress axis : x y z
#
# Youngs Moduli (GPa) = 68.32442 54.31099 65.21893
#
# Poissons Ratio (x) = 0.40750 0.32788
# Poissons Ratio (y) = 0.51265 0.07211
# Poissons Ratio (z) = 0.34350 0.06005
#
# Static dielectric constant tensor:
#      x y z
#    x 3.333210 0.000000 0.000000 
#    y 0.000000 3.574730 0.000000 
#    z 0.000000 0.000000 3.702200 
# 
# 
# High freq. dielectric constant tensor:
#      x y z
#    x 1.682240 0.000000 0.000000 
#    y 0.000000 1.722330 0.000000 
#    z 0.000000 0.000000 1.715960 
# 
# From -- ./inp_files/10005.got.cif
#   From: 2010.03.12/outbox.cif.g09.slc.cpg/sg65_6_cif.got.tgz:10005.got - 2010.04.10 20:52:16.
