data_PCOD8272353
_publ_section_title
;
Structure prediction by ZEFSAII (Michael W. Deem and Ramdas Pophale) SiO2 
 PCOD8272353
Probable space group: C M M M
;
_chemical_formula_sum "Si O2"
_cell_formula_units_Z 84
_cell_length_a 11.168221
_cell_length_b 17.929493
_cell_length_c 21.642976
_cell_angle_alpha 90.000000
_cell_angle_beta 90.000000
_cell_angle_gamma 90.000000
_cell_volume 4333.801207
_symmetry_space_group_name_H-M "C M M M"
_symmetry_group_IT_number 65
_symmetry_cell_setting 'orthorhombic'
loop_
_space_group_symop_operation_xyz
x,y,z
-x,-y,z
x,-y,-z
-x,y,-z
-x,-y,-z
x,y,-z
-x,y,z
x,-y,z
1/2+x,1/2+y,z
1/2-x,1/2-y,z
1/2+x,1/2-y,-z
1/2-x,1/2+y,-z
1/2-x,1/2-y,-z
1/2+x,1/2+y,-z
1/2-x,1/2+y,z
1/2+x,1/2-y,z
loop_
_atom_site_type_symbol
_atom_site_label
_atom_site_fract_x
_atom_site_fract_y
_atom_site_fract_z
Si Si1 0.000000 0.105752 0.500000
Si Si2 0.251080 0.164422 0.500000
Si Si3 0.000000 0.916797 0.639915
Si Si4 0.861968 0.418394 0.613146
Si Si5 0.136945 0.197241 0.928569
Si Si6 0.277600 0.337922 0.295449
Si Si7 0.362424 0.415505 0.823306
O O1 0.112140 0.156543 0.500000
O O2 0.000000 0.063372 0.433600
O O3 0.250000 0.250000 0.500000
O O4 0.311336 0.132457 0.439926
O O5 0.113784 0.866822 0.660855
O O6 0.000000 0.000000 0.671929
O O7 0.799168 0.500000 0.610903
O O8 0.839888 0.379488 0.679006
O O9 0.000000 0.428760 0.602042
O O10 0.250000 0.250000 0.910096
O O11 0.152834 0.120896 0.890636
O O12 0.000000 0.230260 0.915847
O O13 0.148222 0.175629 0.000000
O O14 0.250000 0.250000 0.298578
O O15 0.293400 0.363153 0.225022
O O16 0.500000 0.416780 0.802389
O O17 0.311076 0.500000 0.825035
#
# Coordination Sequence:
#
# PCOD8272353 Si02
#       7
#     4   8   8  16  16  16  16
#     4  12  27  38  68  96 113 148 204 256 303 366
#     4  12  26  40  62  87 119 147 191 249 302 363
#     4  12  25  44  66  90 121 156 201 258 319 370
#     4  11  25  43  63  83 115 157 195 237 302 377
#     4   9  18  34  58  90 128 169 213 263 315 370
#     4  12  25  39  64  88 121 156 201 255 309 372
#     4  10  20  36  60  90 124 163 208 257 313 371
#
# _framework density 19.382522999999999
#
# number of rings (size 3 to 8) (size 9 to 14) (size 15 to 20)
#    0.000    1.143    2.857    3.571    2.667    1.905 
#    0.000    2.857    0.000    1.714    0.000    2.667 
#    0.000    0.000    0.000    0.000    0.000    0.000 
#
# Total GULP energy -520329.827737 kJ/mol
# GULP energy per Si atom -12388.805422 kJ/mol
# Density = 1.933841 g / cm^3
# Si number density = 19.382523 Si / 1000 Ang^3
#
#
#
# Elastic Constant Matrix: (Units=GPa)
#
#
# Indices 1 2 3 4 5 6 
#
# 1 93.4969 58.8698 33.4681 0.0000 0.0000 0.0000
# 2 58.8698 192.9476 62.1138 0.0000 0.0000 0.0000
# 3 33.4681 62.1138 103.4286 0.0000 0.0000 0.0000
# 4 0.0000 0.0000 0.0000 29.3384 0.0000 0.0000
# 5 0.0000 0.0000 0.0000 0.0000 -356.0238 0.0000
# 6 0.0000 0.0000 0.0000 0.0000 0.0000 48.6231
#
#
#
# Elastic Compliance Matrix: (Units=1/GPa)
#
#
# Indices 1 2 3 4 5 6 
#
# 1 0.013697 -0.003412 -0.002383 0.000000 0.000000 0.000000
# 2 -0.003412 0.007275 -0.003265 0.000000 0.000000 0.000000
# 3 -0.002383 -0.003265 0.012400 0.000000 0.000000 0.000000
# 4 0.000000 0.000000 0.000000 0.034085 0.000000 0.000000
# 5 0.000000 0.000000 0.000000 0.000000 -0.002809 0.000000
# 6 0.000000 0.000000 0.000000 0.000000 0.000000 0.020566
#
#
# Mechanical properties :
#
#
# Convention : Reuss Voigt Hill
#
# Bulk Modulus (GPa) = 65.56367 77.64183 71.60275
# Shear Modulus (GPa) = 46.11770 -39.91771 3.10000
#
# Velocity S-wave (km/s) = 4.88314 -4.54306 1.26604
# Velocity P-wave (km/s) = 8.10513 3.55323 6.25773
#
# Compressibility (1/GPa) = 0.01525235
#
# Stress axis : x y z
#
# Youngs Moduli (GPa) = 73.00944 137.46206 80.64301
#
# Poissons Ratio (x) = 0.46900 0.19219
# Poissons Ratio (y) = 0.24910 0.26328
# Poissons Ratio (z) = 0.17399 0.44879
#
# Static dielectric constant tensor:
#      x y z
#    x 3.810820 0.000000 0.000000 
#    y 0.000000 3.664600 0.000000 
#    z 0.000000 0.000000 3.611280 
# 
# 
# High freq. dielectric constant tensor:
#      x y z
#    x 1.755170 0.000000 0.000000 
#    y 0.000000 1.757970 0.000000 
#    z 0.000000 0.000000 1.760700 
# 
# From -- ./inp_files/68949.got.cif
#   From: 2010.03.12/outbox.cif.g09.slc.cpg/sg65_35_cif.got.tgz:68949.got - 2010.04.10 20:52:16.
