data_PCOD8272092
_publ_section_title
;
Structure prediction by ZEFSAII (Michael W. Deem and Ramdas Pophale) SiO2 
 PCOD8272092
Probable space group: C M M M
;
_chemical_formula_sum "Si O2"
_cell_formula_units_Z 88
_cell_length_a 20.214487
_cell_length_b 24.066560
_cell_length_c 9.135062
_cell_angle_alpha 90.000000
_cell_angle_beta 90.000000
_cell_angle_gamma 90.000000
_cell_volume 4444.145218
_symmetry_space_group_name_H-M "C M M M"
_symmetry_group_IT_number 65
_symmetry_cell_setting 'orthorhombic'
loop_
_space_group_symop_operation_xyz
x,y,z
-x,-y,z
x,-y,-z
-x,y,-z
-x,-y,-z
x,y,-z
-x,y,z
x,-y,z
1/2+x,1/2+y,z
1/2-x,1/2-y,z
1/2+x,1/2-y,-z
1/2-x,1/2+y,-z
1/2-x,1/2-y,-z
1/2+x,1/2+y,-z
1/2-x,1/2+y,z
1/2+x,1/2-y,z
loop_
_atom_site_type_symbol
_atom_site_label
_atom_site_fract_x
_atom_site_fract_y
_atom_site_fract_z
Si Si1 0.000000 0.434730 0.825773
Si Si2 0.572714 0.335812 0.668035
Si Si3 0.879624 0.626896 0.672284
Si Si4 0.325392 0.244776 0.674026
Si Si5 0.751386 0.935969 0.337194
Si Si6 0.881736 0.937300 0.172055
O O1 0.062902 0.402116 0.763500
O O2 0.000000 0.500000 0.777344
O O3 0.000000 0.430362 0.000000
O O4 0.588207 0.349244 0.500000
O O5 0.500000 0.307703 0.684243
O O6 0.629917 0.295851 0.732310
O O7 0.568903 0.393875 0.754517
O O8 0.897000 0.623610 0.500000
O O9 0.864840 0.689772 0.724567
O O10 0.813412 0.595065 0.713812
O O11 0.321667 0.244825 0.500000
O O12 0.250000 0.250000 0.736648
O O13 0.773508 0.916221 0.500000
O O14 0.808174 0.921383 0.222727
O O15 0.733289 0.000000 0.337511
O O16 0.899966 0.000000 0.222659
O O17 0.886752 0.931721 0.000000
#
# Coordination Sequence:
#
# PCOD8272092 Si02
#       6
#     8  16  16  16  16  16
#     4  11  25  41  55  79 121 167 204 243 296 355
#     4  10  21  36  56  81 111 146 185 230 281 337
#     4  10  20  35  61  88 112 147 194 244 291 343
#     4   9  18  34  59  89 116 143 182 235 292 345
#     4   9  17  31  54  84 113 141 181 234 286 335
#     4  10  21  36  55  80 110 146 186 228 279 338
#
# _framework density 19.801334000000001
#
# number of rings (size 3 to 8) (size 9 to 14) (size 15 to 20)
#    0.000    2.273    0.000    2.455    1.273    6.909 
#    0.000    4.545    0.000    2.182    0.000    0.000 
#    0.000    0.000    0.000    0.000    0.000    0.000 
#
# Total GULP energy -545437.278918 kJ/mol
# GULP energy per Si atom -12396.301794 kJ/mol
# Density = 1.975626 g / cm^3
# Si number density = 19.801334 Si / 1000 Ang^3
#
#
#
# Elastic Constant Matrix: (Units=GPa)
#
#
# Indices 1 2 3 4 5 6 
#
# 1 107.7994 90.2481 36.5968 0.0000 0.0000 0.0000
# 2 90.2481 109.2255 33.6533 0.0000 0.0000 0.0000
# 3 36.5968 33.6533 45.5066 0.0000 0.0000 0.0000
# 4 0.0000 0.0000 0.0000 19.9241 0.0000 0.0000
# 5 0.0000 0.0000 0.0000 0.0000 12.2891 0.0000
# 6 0.0000 0.0000 0.0000 0.0000 0.0000 35.3746
#
#
#
# Elastic Compliance Matrix: (Units=1/GPa)
#
#
# Indices 1 2 3 4 5 6 
#
# 1 0.032224 -0.024142 -0.008062 0.000000 0.000000 0.000000
# 2 -0.024142 0.029943 -0.002729 0.000000 0.000000 0.000000
# 3 -0.008062 -0.002729 0.030476 0.000000 0.000000 0.000000
# 4 0.000000 0.000000 0.000000 0.050191 0.000000 0.000000
# 5 0.000000 0.000000 0.000000 0.000000 0.081373 0.000000
# 6 0.000000 0.000000 0.000000 0.000000 0.000000 0.028269
#
#
# Mechanical properties :
#
#
# Convention : Reuss Voigt Hill
#
# Bulk Modulus (GPa) = 43.89947 64.83643 54.36795
# Shear Modulus (GPa) = 15.15453 20.31977 17.73715
#
# Velocity S-wave (km/s) = 2.76946 3.20688 2.99616
# Velocity P-wave (km/s) = 5.69602 6.82105 6.28376
#
# Compressibility (1/GPa) = 0.02277932
#
# Stress axis : x y z
#
# Youngs Moduli (GPa) = 31.03234 33.39631 32.81236
#
# Poissons Ratio (x) = 0.80624 0.26452
# Poissons Ratio (y) = 0.74917 0.08954
# Poissons Ratio (z) = 0.25017 0.09114
#
# Static dielectric constant tensor:
#      x y z
#    x 3.199290 0.000000 0.000000 
#    y 0.000000 3.891930 0.000000 
#    z 0.000000 0.000000 3.299790 
# 
# 
# High freq. dielectric constant tensor:
#      x y z
#    x 1.781830 0.000000 0.000000 
#    y 0.000000 1.783900 0.000000 
#    z 0.000000 0.000000 1.735050 
# 
# From -- ./inp_files/11775.got.cif
#   From: 2010.03.12/outbox.cif.g09.slc.cpg/sg65_6_cif.got.tgz:11775.got - 2010.04.10 20:52:16.
