data_PCOD8272182
_publ_section_title
;
Structure prediction by ZEFSAII (Michael W. Deem and Ramdas Pophale) SiO2 
 PCOD8272182
Probable space group: C M M M
;
_chemical_formula_sum "Si O2"
_cell_formula_units_Z 104
_cell_length_a 8.957631
_cell_length_b 27.846668
_cell_length_c 21.346243
_cell_angle_alpha 90.000000
_cell_angle_beta 90.000000
_cell_angle_gamma 90.000000
_cell_volume 5324.610622
_symmetry_space_group_name_H-M "C M M M"
_symmetry_group_IT_number 65
_symmetry_cell_setting 'orthorhombic'
loop_
_space_group_symop_operation_xyz
x,y,z
-x,-y,z
x,-y,-z
-x,y,-z
-x,-y,-z
x,y,-z
-x,y,z
x,-y,z
1/2+x,1/2+y,z
1/2-x,1/2-y,z
1/2+x,1/2-y,-z
1/2-x,1/2+y,-z
1/2-x,1/2-y,-z
1/2+x,1/2+y,-z
1/2-x,1/2+y,z
1/2+x,1/2-y,z
loop_
_atom_site_type_symbol
_atom_site_label
_atom_site_fract_x
_atom_site_fract_y
_atom_site_fract_z
Si Si1 0.824914 0.611981 0.255015
Si Si2 0.173634 0.139081 0.069840
Si Si3 0.675657 0.601334 0.619116
Si Si4 0.322518 0.698399 0.188750
Si Si5 0.826995 0.796337 0.570354
Si Si6 0.168476 0.556589 0.500000
Si Si7 0.826015 0.446101 0.131772
O O1 0.757351 0.586808 0.316798
O O2 0.740863 0.662004 0.240783
O O3 0.792035 0.573795 0.200777
O O4 0.000000 0.622237 0.263338
O O5 0.226340 0.179067 0.119900
O O6 0.251468 0.087918 0.080262
O O7 0.000000 0.129573 0.078304
O O8 0.212941 0.157759 0.000000
O O9 0.500000 0.590189 0.622425
O O10 0.709651 0.657625 0.611522
O O11 0.743486 0.572562 0.561479
O O12 0.500000 0.702210 0.196184
O O13 0.250000 0.750000 0.199259
O O14 0.764741 0.805090 0.500000
O O15 0.750000 0.750000 0.601595
O O16 0.000000 0.785574 0.567926
O O17 0.161976 0.500000 0.500000
O O18 0.000000 0.577849 0.500000
O O19 0.760625 0.500000 0.126491
O O20 0.000000 0.446225 0.117652
#
# Coordination Sequence:
#
# PCOD8272182 Si02
#       7
#    16  16  16  16  16   8  16
#     4  10  21  37  57  82 111 146 188 232 279 332
#     4   9  19  35  54  80 114 148 184 228 277 331
#     4  11  22  39  60  84 115 147 183 229 283 340
#     4  10  20  36  57  81 112 151 192 234 279 329
#     4   9  18  33  52  77 106 137 170 208 255 313
#     4  11  25  43  62  85 112 145 188 235 284 341
#     4   9  19  36  56  78 107 143 183 230 280 330
#
# _framework density 19.531943999999999
#
# number of rings (size 3 to 8) (size 9 to 14) (size 15 to 20)
#    0.000    2.231    0.769    1.615    0.000    5.538 
#    0.000    4.615    0.000    0.000    0.000    0.000 
#    0.000    0.000    0.000    0.000    0.000    0.000 
#
# Total GULP energy -644851.645444 kJ/mol
# GULP energy per Si atom -12400.993182 kJ/mol
# Density = 1.948749 g / cm^3
# Si number density = 19.531944 Si / 1000 Ang^3
#
#
#
# Elastic Constant Matrix: (Units=GPa)
#
#
# Indices 1 2 3 4 5 6 
#
# 1 72.6791 28.5854 31.6904 0.0000 0.0000 0.0000
# 2 28.5854 73.8391 9.9951 0.0000 0.0000 0.0000
# 3 31.6904 9.9951 98.1371 0.0000 0.0000 0.0000
# 4 0.0000 0.0000 0.0000 10.6888 0.0000 0.0000
# 5 0.0000 0.0000 0.0000 0.0000 32.3810 0.0000
# 6 0.0000 0.0000 0.0000 0.0000 0.0000 31.7000
#
#
#
# Elastic Compliance Matrix: (Units=1/GPa)
#
#
# Indices 1 2 3 4 5 6 
#
# 1 0.018651 -0.006495 -0.005361 0.000000 0.000000 0.000000
# 2 -0.006495 0.015994 0.000468 0.000000 0.000000 0.000000
# 3 -0.005361 0.000468 0.011873 0.000000 0.000000 0.000000
# 4 0.000000 0.000000 0.000000 0.093556 0.000000 0.000000
# 5 0.000000 0.000000 0.000000 0.000000 0.030882 0.000000
# 6 0.000000 0.000000 0.000000 0.000000 0.000000 0.031546
#
#
# Mechanical properties :
#
#
# Convention : Reuss Voigt Hill
#
# Bulk Modulus (GPa) = 42.11770 42.79967 42.45869
# Shear Modulus (GPa) = 21.44147 26.57957 24.01052
#
# Velocity S-wave (km/s) = 3.31685 3.69294 3.50993
# Velocity P-wave (km/s) = 6.02320 6.33593 6.18154
#
# Compressibility (1/GPa) = 0.02374299
#
# Stress axis : x y z
#
# Youngs Moduli (GPa) = 53.61556 62.52391 84.22171
#
# Poissons Ratio (x) = 0.40608 0.45155
# Poissons Ratio (y) = 0.34822 -0.03944
# Poissons Ratio (z) = 0.28745 -0.02928
#
# Static dielectric constant tensor:
#      x y z
#    x 3.603450 0.000000 0.000000 
#    y 0.000000 3.564280 0.000000 
#    z 0.000000 0.000000 3.630740 
# 
# 
# High freq. dielectric constant tensor:
#      x y z
#    x 1.764150 0.000000 0.000000 
#    y 0.000000 1.755770 0.000000 
#    z 0.000000 0.000000 1.762410 
# 
# From -- ./inp_files/60448.got.cif
#   From: 2010.03.12/outbox.cif.g09.slc.cpg/sg65_31_cif.got.tgz:60448.got - 2010.04.10 20:52:16.
