data_PCOD8272091
_publ_section_title
;
Structure prediction by ZEFSAII (Michael W. Deem and Ramdas Pophale) SiO2 
 PCOD8272091
Probable space group: C M M M
;
_chemical_formula_sum "Si O2"
_cell_formula_units_Z 56
_cell_length_a 14.245634
_cell_length_b 9.855926
_cell_length_c 20.534441
_cell_angle_alpha 90.000000
_cell_angle_beta 90.000000
_cell_angle_gamma 90.000000
_cell_volume 2883.115899
_symmetry_space_group_name_H-M "C M M M"
_symmetry_group_IT_number 65
_symmetry_cell_setting 'orthorhombic'
loop_
_space_group_symop_operation_xyz
x,y,z
-x,-y,z
x,-y,-z
-x,y,-z
-x,-y,-z
x,y,-z
-x,y,z
x,-y,z
1/2+x,1/2+y,z
1/2-x,1/2-y,z
1/2+x,1/2-y,-z
1/2-x,1/2+y,-z
1/2-x,1/2-y,-z
1/2+x,1/2+y,-z
1/2-x,1/2+y,z
1/2+x,1/2-y,z
loop_
_atom_site_type_symbol
_atom_site_label
_atom_site_fract_x
_atom_site_fract_y
_atom_site_fract_z
Si Si1 0.852930 0.726648 0.325764
Si Si2 0.600819 0.500000 0.388814
Si Si3 0.500000 0.657307 0.897121
Si Si4 0.000000 0.352384 0.223488
Si Si5 0.691310 0.000000 0.573286
Si Si6 0.842734 0.158393 0.000000
O O1 0.750000 0.750000 0.296847
O O2 0.900870 0.868234 0.343112
O O3 0.846599 0.633121 0.390364
O O4 0.909043 0.654764 0.268817
O O5 0.500000 0.500000 0.427558
O O6 0.694566 0.500000 0.432516
O O7 0.500000 0.500000 0.879122
O O8 0.500000 0.738118 0.830513
O O9 0.594104 0.693105 0.937096
O O10 0.000000 0.500000 0.189380
O O11 0.651201 0.000000 0.500000
O O12 0.750000 0.250000 0.000000
O O13 0.813791 0.000000 0.000000
#
# Coordination Sequence:
#
# PCOD8272091 Si02
#       6
#    16   8   8   8   8   8
#     4  10  22  39  59  84 117 153 193 252 309 362
#     4  10  20  35  61  85 112 142 193 250 311 358
#     4   9  22  40  62  94 128 168 201 245 294 345
#     4  12  23  39  61  88 121 160 209 244 293 359
#     4  10  22  42  60  78 115 157 192 248 320 377
#     4   9  19  41  66  94 136 165 201 245 290 342
#
# _framework density 19.423428000000001
#
# number of rings (size 3 to 8) (size 9 to 14) (size 15 to 20)
#    0.000    2.000    2.857    0.857    2.000    7.714 
#    0.000    5.714    0.000    0.000    0.000    0.000 
#    0.000    0.000    0.000    0.000    0.000    0.000 
#
# Total GULP energy -347102.372478 kJ/mol
# GULP energy per Si atom -12396.513303 kJ/mol
# Density = 1.937922 g / cm^3
# Si number density = 19.423428 Si / 1000 Ang^3
#
#
#
# Elastic Constant Matrix: (Units=GPa)
#
#
# Indices 1 2 3 4 5 6 
#
# 1 141.7774 58.1799 61.3241 0.0000 0.0000 0.0000
# 2 58.1799 129.2623 52.7524 0.0000 0.0000 0.0000
# 3 61.3241 52.7524 125.6520 0.0000 0.0000 0.0000
# 4 0.0000 0.0000 0.0000 30.1441 0.0000 0.0000
# 5 0.0000 0.0000 0.0000 0.0000 14.2137 0.0000
# 6 0.0000 0.0000 0.0000 0.0000 0.0000 -20.4164
#
#
#
# Elastic Compliance Matrix: (Units=1/GPa)
#
#
# Indices 1 2 3 4 5 6 
#
# 1 0.009801 -0.002968 -0.003538 0.000000 0.000000 0.000000
# 2 -0.002968 0.010234 -0.002848 0.000000 0.000000 0.000000
# 3 -0.003538 -0.002848 0.010881 0.000000 0.000000 0.000000
# 4 0.000000 0.000000 0.000000 0.033174 0.000000 0.000000
# 5 0.000000 0.000000 0.000000 0.000000 0.070355 0.000000
# 6 0.000000 0.000000 0.000000 0.000000 0.000000 -0.048980
#
#
# Mechanical properties :
#
#
# Convention : Reuss Voigt Hill
#
# Bulk Modulus (GPa) = 81.90519 82.35607 82.13063
# Shear Modulus (GPa) = 46.19286 19.75062 32.97174
#
# Velocity S-wave (km/s) = 4.88197 3.19226 4.12457
# Velocity P-wave (km/s) = 8.60453 7.48864 8.06591
#
# Compressibility (1/GPa) = 0.01220924
#
# Stress axis : x y z
#
# Youngs Moduli (GPa) = 102.02724 97.70984 91.90543
#
# Poissons Ratio (x) = 0.28998 0.32512
# Poissons Ratio (y) = 0.30280 0.26177
# Poissons Ratio (z) = 0.36092 0.27830
#
# Static dielectric constant tensor:
#      x y z
#    x 3.712110 0.000000 0.000000 
#    y 0.000000 3.661900 0.000000 
#    z 0.000000 0.000000 3.180830 
# 
# 
# High freq. dielectric constant tensor:
#      x y z
#    x 1.768890 0.000000 0.000000 
#    y 0.000000 1.772820 0.000000 
#    z 0.000000 0.000000 1.727000 
# 
# From -- ./inp_files/62254.got.cif
#   From: 2010.03.12/outbox.cif.g09.slc.cpg/sg65_32_cif.got.tgz:62254.got - 2010.04.10 20:52:16.
