data_PCOD8272847
_publ_section_title
;
Structure prediction by ZEFSAII (Michael W. Deem and Ramdas Pophale) SiO2 
 PCOD8272847
Probable space group: C M M M
;
_chemical_formula_sum "Si O2"
_cell_formula_units_Z 72
_cell_length_a 17.330892
_cell_length_b 17.157395
_cell_length_c 12.410016
_cell_angle_alpha 90.000000
_cell_angle_beta 90.000000
_cell_angle_gamma 90.000000
_cell_volume 3690.154988
_symmetry_space_group_name_H-M "C M M M"
_symmetry_group_IT_number 65
_symmetry_cell_setting 'orthorhombic'
loop_
_space_group_symop_operation_xyz
x,y,z
-x,-y,z
x,-y,-z
-x,y,-z
-x,-y,-z
x,y,-z
-x,y,z
x,-y,z
1/2+x,1/2+y,z
1/2-x,1/2-y,z
1/2+x,1/2-y,-z
1/2-x,1/2+y,-z
1/2-x,1/2-y,-z
1/2+x,1/2+y,-z
1/2-x,1/2+y,z
1/2+x,1/2-y,z
loop_
_atom_site_type_symbol
_atom_site_label
_atom_site_fract_x
_atom_site_fract_y
_atom_site_fract_z
Si Si1 0.299005 0.820571 0.255815
Si Si2 0.584021 0.915302 0.374081
Si Si3 0.586901 0.591428 0.500000
Si Si4 0.587316 0.277013 0.876599
Si Si5 0.150364 0.091282 0.732922
O O1 0.250000 0.750000 0.305723
O O2 0.357561 0.847592 0.346358
O O3 0.349756 0.789606 0.154763
O O4 0.238842 0.890287 0.230729
O O5 0.577220 0.919903 0.500000
O O6 0.500000 0.895716 0.324670
O O7 0.611669 0.000000 0.329683
O O8 0.576581 0.500000 0.500000
O O9 0.500000 0.628834 0.500000
O O10 0.634420 0.615154 0.607765
O O11 0.500000 0.245128 0.861068
O O12 0.595225 0.355955 0.806894
O O13 0.603272 0.298984 0.000000
O O14 0.133216 0.000000 0.753086
#
# Coordination Sequence:
#
# PCOD8272847 Si02
#       5
#    16  16   8  16  16
#     4  10  21  35  54  80 113 147 182 224 279 339
#     4   9  18  33  54  78 106 143 184 227 271 319
#     4   9  18  34  55  80 117 155 185 223 274 337
#     4  10  22  41  61  80 108 150 195 238 284 336
#     4  10  21  36  58  88 115 148 187 233 289 337
#
# _framework density 19.511375000000001
#
# number of rings (size 3 to 8) (size 9 to 14) (size 15 to 20)
#    0.000    2.333    0.000    2.667    1.556    6.222 
#    6.000    1.111    0.000    2.000    0.000    7.778 
#    0.000    0.000    0.000    0.000    0.000    0.000 
#
# Total GULP energy -446025.995295 kJ/mol
# GULP energy per Si atom -12389.610980 kJ/mol
# Density = 1.946697 g / cm^3
# Si number density = 19.511375 Si / 1000 Ang^3
#
#
#
# Elastic Constant Matrix: (Units=GPa)
#
#
# Indices 1 2 3 4 5 6 
#
# 1 130.6340 55.7829 55.6474 0.0000 0.0000 0.0000
# 2 55.7829 65.7963 43.3589 0.0000 0.0000 0.0000
# 3 55.6474 43.3589 105.3791 0.0000 0.0000 0.0000
# 4 0.0000 0.0000 0.0000 20.4255 0.0000 0.0000
# 5 0.0000 0.0000 0.0000 0.0000 17.3417 0.0000
# 6 0.0000 0.0000 0.0000 0.0000 0.0000 18.8201
#
#
#
# Elastic Compliance Matrix: (Units=1/GPa)
#
#
# Indices 1 2 3 4 5 6 
#
# 1 0.012707 -0.008714 -0.003125 0.000000 0.000000 0.000000
# 2 -0.008714 0.026828 -0.006437 0.000000 0.000000 0.000000
# 3 -0.003125 -0.006437 0.013788 0.000000 0.000000 0.000000
# 4 0.000000 0.000000 0.000000 0.048959 0.000000 0.000000
# 5 0.000000 0.000000 0.000000 0.000000 0.057665 0.000000
# 6 0.000000 0.000000 0.000000 0.000000 0.000000 0.053135
#
#
# Mechanical properties :
#
#
# Convention : Reuss Voigt Hill
#
# Bulk Modulus (GPa) = 59.62381 67.93199 63.77790
# Shear Modulus (GPa) = 19.59066 21.11879 20.35473
#
# Velocity S-wave (km/s) = 3.17213 3.29353 3.23340
# Velocity P-wave (km/s) = 6.63637 7.02533 6.83362
#
# Compressibility (1/GPa) = 0.01677182
#
# Stress axis : x y z
#
# Youngs Moduli (GPa) = 78.69607 37.27419 72.52585
#
# Poissons Ratio (x) = 0.32481 0.22663
# Poissons Ratio (y) = 0.68576 0.46685
# Poissons Ratio (z) = 0.24591 0.23993
#
# Static dielectric constant tensor:
#      x y z
#    x 3.928790 0.000000 0.000000 
#    y 0.000000 3.646280 0.000000 
#    z 0.000000 0.000000 3.348270 
# 
# 
# High freq. dielectric constant tensor:
#      x y z
#    x 1.781360 0.000000 0.000000 
#    y 0.000000 1.751540 0.000000 
#    z 0.000000 0.000000 1.731780 
# 
# From -- ./inp_files/26331.got.cif
#   From: 2010.03.12/outbox.cif.g09.slc.cpg/sg65_14_cif.got.tgz:26331.got - 2010.04.10 20:52:16.
