data_PCOD8272138
_publ_section_title
;
Structure prediction by ZEFSAII (Michael W. Deem and Ramdas Pophale) SiO2 
 PCOD8272138
Probable space group: C M M M
;
_chemical_formula_sum "Si O2"
_cell_formula_units_Z 64
_cell_length_a 15.005133
_cell_length_b 8.437651
_cell_length_c 25.942781
_cell_angle_alpha 90.000000
_cell_angle_beta 90.000000
_cell_angle_gamma 90.000000
_cell_volume 3284.565575
_symmetry_space_group_name_H-M "C M M M"
_symmetry_group_IT_number 65
_symmetry_cell_setting 'orthorhombic'
loop_
_space_group_symop_operation_xyz
x,y,z
-x,-y,z
x,-y,-z
-x,y,-z
-x,-y,-z
x,y,-z
-x,y,z
x,-y,z
1/2+x,1/2+y,z
1/2-x,1/2-y,z
1/2+x,1/2-y,-z
1/2-x,1/2+y,-z
1/2-x,1/2-y,-z
1/2+x,1/2+y,-z
1/2-x,1/2+y,z
1/2+x,1/2-y,z
loop_
_atom_site_type_symbol
_atom_site_label
_atom_site_fract_x
_atom_site_fract_y
_atom_site_fract_z
Si Si1 0.000000 0.315429 0.572894
Si Si2 0.844292 0.313168 0.870903
Si Si3 0.000000 0.310632 0.057908
Si Si4 0.346303 0.811867 0.754116
Si Si5 0.852066 0.187245 0.500000
Si Si6 0.000000 0.816629 0.315546
O O1 0.908720 0.242260 0.549825
O O2 0.000000 0.288827 0.633548
O O3 0.000000 0.500000 0.559964
O O4 0.843370 0.500000 0.872553
O O5 0.750000 0.250000 0.889572
O O6 0.915010 0.244083 0.911323
O O7 0.867191 0.258406 0.812802
O O8 0.000000 0.500000 0.057063
O O9 0.000000 0.242026 0.000000
O O10 0.250000 0.750000 0.737572
O O11 0.413724 0.723182 0.717365
O O12 0.354171 0.000000 0.747289
O O13 0.750000 0.250000 0.500000
O O14 0.845785 0.000000 0.500000
O O15 0.000000 0.000000 0.331127
#
# Coordination Sequence:
#
# PCOD8272138 Si02
#       6
#     8  16   8  16   8   8
#     4  11  23  41  62  89 120 154 194 236 282 332
#     4   9  18  33  53  75 101 135 176 220 267 322
#     4   9  17  30  49  73 101 136 175 214 264 327
#     4  10  20  36  56  80 109 144 185 228 276 333
#     4  11  22  41  66  92 120 155 196 239 282 328
#     4  12  24  38  57  85 118 151 185 229 281 332
#
# _framework density 19.485073
#
# number of rings (size 3 to 8) (size 9 to 14) (size 15 to 20)
#    0.000    1.875    0.000    5.625    0.000    4.500 
#    0.000    5.625    0.000    0.750    0.000    0.000 
#    0.000    0.000    0.000    0.000    0.000    0.000 
#
# Total GULP energy -396801.185152 kJ/mol
# GULP energy per Si atom -12400.037036 kJ/mol
# Density = 1.944072 g / cm^3
# Si number density = 19.485073 Si / 1000 Ang^3
#
#
#
# Elastic Constant Matrix: (Units=GPa)
#
#
# Indices 1 2 3 4 5 6 
#
# 1 170.8330 35.3029 90.0120 0.0000 0.0000 0.0000
# 2 35.3029 78.9707 19.6446 0.0000 0.0000 0.0000
# 3 90.0120 19.6446 132.1333 0.0000 0.0000 0.0000
# 4 0.0000 0.0000 0.0000 21.0768 0.0000 0.0000
# 5 0.0000 0.0000 0.0000 0.0000 2806.4165 0.0000
# 6 0.0000 0.0000 0.0000 0.0000 0.0000 33.8395
#
#
#
# Elastic Compliance Matrix: (Units=1/GPa)
#
#
# Indices 1 2 3 4 5 6 
#
# 1 0.009690 -0.002793 -0.006186 0.000000 0.000000 0.000000
# 2 -0.002793 0.013954 -0.000172 0.000000 0.000000 0.000000
# 3 -0.006186 -0.000172 0.011808 0.000000 0.000000 0.000000
# 4 0.000000 0.000000 0.000000 0.047446 0.000000 0.000000
# 5 0.000000 0.000000 0.000000 0.000000 0.000356 0.000000
# 6 0.000000 0.000000 0.000000 0.000000 0.000000 0.029551
#
#
# Mechanical properties :
#
#
# Convention : Reuss Voigt Hill
#
# Bulk Modulus (GPa) = 58.30790 74.65067 66.47929
# Shear Modulus (GPa) = 36.54328 588.06505 312.30416
#
# Velocity S-wave (km/s) = 4.33534 17.39132 12.67386
# Velocity P-wave (km/s) = 7.41954 21.01600 15.75947
#
# Compressibility (1/GPa) = 0.01715033
#
# Stress axis : x y z
#
# Youngs Moduli (GPa) = 103.19657 71.66242 84.69074
#
# Poissons Ratio (x) = 0.20016 0.52389
# Poissons Ratio (y) = 0.28824 0.01456
# Poissons Ratio (z) = 0.63837 0.01232
#
# Static dielectric constant tensor:
#      x y z
#    x 3.678940 0.000000 0.000000 
#    y 0.000000 3.466830 0.000000 
#    z 0.000000 0.000000 3.690260 
# 
# 
# High freq. dielectric constant tensor:
#      x y z
#    x 1.770910 0.000000 0.000000 
#    y 0.000000 1.754080 0.000000 
#    z 0.000000 0.000000 1.759920 
# 
# From -- ./inp_files/66867.got.cif
#   From: 2010.03.12/outbox.cif.g09.slc.cpg/sg65_34_cif.got.tgz:66867.got - 2010.04.10 20:52:16.
