data_PCOD8272874
_publ_section_title
;
Structure prediction by ZEFSAII (Michael W. Deem and Ramdas Pophale) SiO2 
 PCOD8272874
Probable space group: C M M M
;
_chemical_formula_sum "Si O2"
_cell_formula_units_Z 88
_cell_length_a 19.888245
_cell_length_b 29.994198
_cell_length_c 8.769228
_cell_angle_alpha 90.000000
_cell_angle_beta 90.000000
_cell_angle_gamma 90.000000
_cell_volume 5231.124753
_symmetry_space_group_name_H-M "C M M M"
_symmetry_group_IT_number 65
_symmetry_cell_setting 'orthorhombic'
loop_
_space_group_symop_operation_xyz
x,y,z
-x,-y,z
x,-y,-z
-x,y,-z
-x,-y,-z
x,y,-z
-x,y,z
x,-y,z
1/2+x,1/2+y,z
1/2-x,1/2-y,z
1/2+x,1/2-y,-z
1/2-x,1/2+y,-z
1/2-x,1/2-y,-z
1/2+x,1/2+y,-z
1/2-x,1/2+y,z
1/2+x,1/2-y,z
loop_
_atom_site_type_symbol
_atom_site_label
_atom_site_fract_x
_atom_site_fract_y
_atom_site_fract_z
Si Si1 0.500000 0.947042 0.827306
Si Si2 0.789220 0.205215 0.320666
Si Si3 0.074427 0.772983 0.821884
Si Si4 0.571835 0.171770 0.179770
Si Si5 0.795064 0.371698 0.181264
Si Si6 0.860957 0.448669 0.679392
O O1 0.431569 0.930067 0.747414
O O2 0.500000 0.000000 0.821462
O O3 0.500000 0.928609 0.000000
O O4 0.779977 0.201508 0.500000
O O5 0.750000 0.250000 0.260515
O O6 0.867725 0.204098 0.277377
O O7 0.762811 0.160011 0.243788
O O8 0.072025 0.722409 0.764328
O O9 0.000000 0.794378 0.792653
O O10 0.093247 0.776603 0.000000
O O11 0.500000 0.149211 0.227108
O O12 0.635191 0.147276 0.251274
O O13 0.579728 0.171374 0.000000
O O14 0.796878 0.421885 0.249210
O O15 0.789909 0.373402 0.000000
O O16 0.863116 0.442164 0.500000
O O17 0.849976 0.500000 0.725049
#
# Coordination Sequence:
#
# PCOD8272874 Si02
#       6
#     8  16  16  16  16  16
#     4   9  17  31  51  71  91 123 169 213 251 295
#     4  11  22  34  48  70 104 137 166 203 247 300
#     4   9  17  32  53  72  93 126 168 209 247 291
#     4   8  15  27  43  66  93 122 161 207 249 287
#     4  11  21  32  52  73  94 128 170 214 252 297
#     4  10  21  36  50  67  96 129 162 207 262 309
#
# _framework density 16.822386000000002
#
# number of rings (size 3 to 8) (size 9 to 14) (size 15 to 20)
#    0.000    2.273    1.818    3.000    1.273    3.273 
#    0.000    0.000    0.000    0.000    0.000    0.000 
#    0.000    0.727    0.000    7.636    0.000    3.273 
#
# Total GULP energy -545288.397175 kJ/mol
# GULP energy per Si atom -12392.918118 kJ/mol
# Density = 1.678410 g / cm^3
# Si number density = 16.822386 Si / 1000 Ang^3
#
#
#
# Elastic Constant Matrix: (Units=GPa)
#
#
# Indices 1 2 3 4 5 6 
#
# 1 86.9673 34.4628 28.0014 0.0000 0.0000 0.0000
# 2 34.4628 60.6013 30.1010 0.0000 0.0000 0.0000
# 3 28.0014 30.1010 68.6309 0.0000 0.0000 0.0000
# 4 0.0000 0.0000 0.0000 21.6692 0.0000 0.0000
# 5 0.0000 0.0000 0.0000 0.0000 25.0085 0.0000
# 6 0.0000 0.0000 0.0000 0.0000 0.0000 20.3278
#
#
#
# Elastic Compliance Matrix: (Units=1/GPa)
#
#
# Indices 1 2 3 4 5 6 
#
# 1 0.015346 -0.007182 -0.003111 0.000000 0.000000 0.000000
# 2 -0.007182 0.024458 -0.007797 0.000000 0.000000 0.000000
# 3 -0.003111 -0.007797 0.019260 0.000000 0.000000 0.000000
# 4 0.000000 0.000000 0.000000 0.046148 0.000000 0.000000
# 5 0.000000 0.000000 0.000000 0.000000 0.039986 0.000000
# 6 0.000000 0.000000 0.000000 0.000000 0.000000 0.049194
#
#
# Mechanical properties :
#
#
# Convention : Reuss Voigt Hill
#
# Bulk Modulus (GPa) = 43.69859 44.59220 44.14540
# Shear Modulus (GPa) = 20.99065 21.64340 21.31702
#
# Velocity S-wave (km/s) = 3.53623 3.59079 3.56361
# Velocity P-wave (km/s) = 6.53499 6.61490 6.57506
#
# Compressibility (1/GPa) = 0.02288403
#
# Stress axis : x y z
#
# Youngs Moduli (GPa) = 65.16233 40.88600 51.92131
#
# Poissons Ratio (x) = 0.29363 0.16155
# Poissons Ratio (y) = 0.46797 0.40483
# Poissons Ratio (z) = 0.20275 0.31879
#
# Static dielectric constant tensor:
#      x y z
#    x 3.164790 0.000000 0.000000 
#    y 0.000000 3.139730 0.000000 
#    z 0.000000 0.000000 2.977620 
# 
# 
# High freq. dielectric constant tensor:
#      x y z
#    x 1.627290 0.000000 0.000000 
#    y 0.000000 1.632420 0.000000 
#    z 0.000000 0.000000 1.641330 
# 
# From -- ./inp_files/10151.got.cif
#   From: 2010.03.12/outbox.cif.g09.slc.cpg/sg65_6_cif.got.tgz:10151.got - 2010.04.10 20:52:16.
