data_PCOD8272892
_publ_section_title
;
Structure prediction by ZEFSAII (Michael W. Deem and Ramdas Pophale) SiO2 
 PCOD8272892
Probable space group: C M M M
;
_chemical_formula_sum "Si O2"
_cell_formula_units_Z 88
_cell_length_a 8.760975
_cell_length_b 18.496082
_cell_length_c 28.633079
_cell_angle_alpha 90.000000
_cell_angle_beta 90.000000
_cell_angle_gamma 90.000000
_cell_volume 4639.810407
_symmetry_space_group_name_H-M "C M M M"
_symmetry_group_IT_number 65
_symmetry_cell_setting 'orthorhombic'
loop_
_space_group_symop_operation_xyz
x,y,z
-x,-y,z
x,-y,-z
-x,y,-z
-x,-y,-z
x,y,-z
-x,y,z
x,-y,z
1/2+x,1/2+y,z
1/2-x,1/2-y,z
1/2+x,1/2-y,-z
1/2-x,1/2+y,-z
1/2-x,1/2-y,-z
1/2+x,1/2+y,-z
1/2-x,1/2+y,z
1/2+x,1/2-y,z
loop_
_atom_site_type_symbol
_atom_site_label
_atom_site_fract_x
_atom_site_fract_y
_atom_site_fract_z
Si Si1 0.167787 0.414525 0.730200
Si Si2 0.321325 0.675718 0.447790
Si Si3 0.825630 0.585086 0.370209
Si Si4 0.678669 0.914710 0.000000
Si Si5 0.181229 0.170706 0.914902
Si Si6 0.317688 0.916431 0.168425
O O1 0.150409 0.500000 0.729810
O O2 0.245225 0.390452 0.680823
O O3 0.246079 0.393784 0.779660
O O4 0.000000 0.379547 0.730260
O O5 0.260976 0.656635 0.500000
O O6 0.500000 0.684843 0.448392
O O7 0.250000 0.750000 0.429693
O O8 0.276284 0.613807 0.412013
O O9 0.820062 0.500000 0.374509
O O10 0.000000 0.612562 0.374893
O O11 0.755781 0.881571 0.045410
O O12 0.500000 0.896201 0.000000
O O13 0.707610 0.000000 0.000000
O O14 0.250000 0.250000 0.921405
O O15 0.230780 0.137193 0.865767
O O16 0.000000 0.175693 0.918175
O O17 0.500000 0.905599 0.164897
O O18 0.276991 0.000000 0.157001
#
# Coordination Sequence:
#
# PCOD8272892 Si02
#       6
#    16  16  16   8  16  16
#     4   7  12  26  50  78 106 137 172 211 256 307
#     4  10  21  36  52  70  96 132 173 216 263 316
#     4   9  17  31  53  80 107 135 170 212 259 312
#     4  11  24  43  66  89 113 143 180 219 264 321
#     4  12  25  40  58  82 115 149 183 224 269 314
#     4   9  17  33  58  84 110 142 180 219 261 312
#
# _framework density 18.966291999999999
#
# number of rings (size 3 to 8) (size 9 to 14) (size 15 to 20)
#    0.000    2.455    0.000    5.455    0.000    5.091 
#    0.000    3.636    0.000    3.273    0.000    0.000 
#    0.000    0.000    0.000    0.000    0.000    0.000 
#
# Total GULP energy -545147.594020 kJ/mol
# GULP energy per Si atom -12389.718046 kJ/mol
# Density = 1.892312 g / cm^3
# Si number density = 18.966292 Si / 1000 Ang^3
#
#
#
# Elastic Constant Matrix: (Units=GPa)
#
#
# Indices 1 2 3 4 5 6 
#
# 1 85.9438 39.1384 47.4006 0.0000 0.0000 0.0000
# 2 39.1384 62.0533 50.5965 0.0000 0.0000 0.0000
# 3 47.4006 50.5965 154.0008 0.0000 0.0000 0.0000
# 4 0.0000 0.0000 0.0000 -3.1056 0.0000 0.0000
# 5 0.0000 0.0000 0.0000 0.0000 -5.1818 0.0000
# 6 0.0000 0.0000 0.0000 0.0000 0.0000 28.3484
#
#
#
# Elastic Compliance Matrix: (Units=1/GPa)
#
#
# Indices 1 2 3 4 5 6 
#
# 1 0.016912 -0.008772 -0.002323 0.000000 0.000000 0.000000
# 2 -0.008772 0.026562 -0.006027 0.000000 0.000000 0.000000
# 3 -0.002323 -0.006027 0.009189 0.000000 0.000000 0.000000
# 4 0.000000 0.000000 0.000000 -0.322003 0.000000 0.000000
# 5 0.000000 0.000000 0.000000 0.000000 -0.192982 0.000000
# 6 0.000000 0.000000 0.000000 0.000000 0.000000 0.035275
#
#
# Mechanical properties :
#
#
# Convention : Reuss Voigt Hill
#
# Bulk Modulus (GPa) = 54.29534 64.02988 59.16261
# Shear Modulus (GPa) = -12.93115 15.00304 1.03595
#
# Velocity S-wave (km/s) = -2.61396 2.81559 0.73986
# Velocity P-wave (km/s) = 4.42483 6.66357 5.65607
#
# Compressibility (1/GPa) = 0.01841779
#
# Stress axis : x y z
#
# Youngs Moduli (GPa) = 59.13066 37.64752 108.82987
#
# Poissons Ratio (x) = 0.33026 0.25284
# Poissons Ratio (y) = 0.51871 0.65590
# Poissons Ratio (z) = 0.13737 0.22690
#
# Static dielectric constant tensor:
#      x y z
#    x 3.318180 0.000000 0.000000 
#    y 0.000000 3.252840 0.000000 
#    z 0.000000 0.000000 4.095110 
# 
# 
# High freq. dielectric constant tensor:
#      x y z
#    x 1.714180 0.000000 0.000000 
#    y 0.000000 1.713280 0.000000 
#    z 0.000000 0.000000 1.765550 
# 
# From -- ./inp_files/76713.got.cif
#   From: 2010.03.12/outbox.cif.g09.slc.cpg/sg65_39_cif.got.tgz:76713.got - 2010.04.10 20:52:16.
