data_PCOD8272039
_publ_section_title
;
Structure prediction by ZEFSAII (Michael W. Deem and Ramdas Pophale) SiO2 
 PCOD8272039
Probable space group: C M M M
;
_chemical_formula_sum "Si O2"
_cell_formula_units_Z 88
_cell_length_a 8.613270
_cell_length_b 23.530255
_cell_length_c 22.670362
_cell_angle_alpha 90.000000
_cell_angle_beta 90.000000
_cell_angle_gamma 90.000000
_cell_volume 4594.657571
_symmetry_space_group_name_H-M "C M M M"
_symmetry_group_IT_number 65
_symmetry_cell_setting 'orthorhombic'
loop_
_space_group_symop_operation_xyz
x,y,z
-x,-y,z
x,-y,-z
-x,y,-z
-x,-y,-z
x,y,-z
-x,y,z
x,-y,z
1/2+x,1/2+y,z
1/2-x,1/2-y,z
1/2+x,1/2-y,-z
1/2-x,1/2+y,-z
1/2-x,1/2-y,-z
1/2+x,1/2+y,-z
1/2-x,1/2+y,z
1/2+x,1/2-y,z
loop_
_atom_site_type_symbol
_atom_site_label
_atom_site_fract_x
_atom_site_fract_y
_atom_site_fract_z
Si Si1 0.318198 0.500000 0.863782
Si Si2 0.316025 0.812000 0.773061
Si Si3 0.682249 0.389802 0.322216
Si Si4 0.181630 0.500000 0.736133
Si Si5 0.183876 0.187893 0.000000
Si Si6 0.684398 0.376343 0.115619
Si Si7 0.818505 0.434589 0.567221
O O1 0.500000 0.500000 0.860319
O O2 0.259555 0.500000 0.798413
O O3 0.264792 0.441968 0.895876
O O4 0.500000 0.809296 0.768832
O O5 0.250000 0.750000 0.786843
O O6 0.247608 0.834210 0.710928
O O7 0.267501 0.853762 0.825856
O O8 0.500000 0.393349 0.311253
O O9 0.768513 0.444618 0.298282
O O10 0.722374 0.390332 0.391962
O O11 0.000000 0.500000 0.744456
O O12 0.250000 0.250000 0.000000
O O13 0.245835 0.156944 0.941470
O O14 0.000000 0.188859 0.000000
O O15 0.500000 0.369785 0.124262
O O16 0.779607 0.418416 0.500000
O O17 0.769319 0.500000 0.579587
O O18 0.000000 0.427320 0.580260
#
# Coordination Sequence:
#
# PCOD8272039 Si02
#       7
#     8  16  16   8   8  16  16
#     4  10  20  35  58  85 119 153 188 234 291 351
#     4  12  25  41  61  85 114 150 194 244 294 346
#     4  12  23  36  57  86 119 155 194 239 291 347
#     4  12  22  34  54  84 119 155 194 233 289 350
#     4  10  22  39  59  83 113 154 201 245 292 345
#     4  10  21  38  60  87 118 152 192 239 292 350
#     4   9  18  33  54  82 118 157 195 236 285 341
#
# _framework density 19.152678999999999
#
# number of rings (size 3 to 8) (size 9 to 14) (size 15 to 20)
#    0.000    1.273    2.727    5.182    0.000    2.909 
#    0.000    2.727    0.000    0.545    0.000    2.545 
#    0.000    0.000    0.000    0.000    0.000    0.000 
#
# Total GULP energy -545601.140694 kJ/mol
# GULP energy per Si atom -12400.025925 kJ/mol
# Density = 1.910909 g / cm^3
# Si number density = 19.152679 Si / 1000 Ang^3
#
#
#
# Elastic Constant Matrix: (Units=GPa)
#
#
# Indices 1 2 3 4 5 6 
#
# 1 137.6976 36.3534 42.1998 0.0000 0.0000 0.0000
# 2 36.3534 124.7743 50.4172 0.0000 0.0000 0.0000
# 3 42.1998 50.4172 123.7891 0.0000 0.0000 0.0000
# 4 0.0000 0.0000 0.0000 32.1606 0.0000 0.0000
# 5 0.0000 0.0000 0.0000 0.0000 25.8135 0.0000
# 6 0.0000 0.0000 0.0000 0.0000 0.0000 26.4847
#
#
#
# Elastic Compliance Matrix: (Units=1/GPa)
#
#
# Indices 1 2 3 4 5 6 
#
# 1 0.008348 -0.001535 -0.002221 0.000000 0.000000 0.000000
# 2 -0.001535 0.009875 -0.003499 0.000000 0.000000 0.000000
# 3 -0.002221 -0.003499 0.010260 0.000000 0.000000 0.000000
# 4 0.000000 0.000000 0.000000 0.031094 0.000000 0.000000
# 5 0.000000 0.000000 0.000000 0.000000 0.038739 0.000000
# 6 0.000000 0.000000 0.000000 0.000000 0.000000 0.037758
#
#
# Mechanical properties :
#
#
# Convention : Reuss Voigt Hill
#
# Bulk Modulus (GPa) = 71.55697 71.57799 71.56748
# Shear Modulus (GPa) = 32.20772 34.04445 33.12608
#
# Velocity S-wave (km/s) = 4.10522 4.22065 4.16333
# Velocity P-wave (km/s) = 7.74034 7.82338 7.78197
#
# Compressibility (1/GPa) = 0.01397488
#
# Stress axis : x y z
#
# Youngs Moduli (GPa) = 119.78769 101.26126 97.46280
#
# Poissons Ratio (x) = 0.15543 0.21644
# Poissons Ratio (y) = 0.18387 0.34101
# Poissons Ratio (z) = 0.26602 0.35430
#
# Static dielectric constant tensor:
#      x y z
#    x 3.570920 0.000000 0.000000 
#    y 0.000000 3.653970 0.000000 
#    z 0.000000 0.000000 3.749110 
# 
# 
# High freq. dielectric constant tensor:
#      x y z
#    x 1.743930 0.000000 0.000000 
#    y 0.000000 1.735340 0.000000 
#    z 0.000000 0.000000 1.751600 
# 
# From -- ./inp_files/67659.got.cif
#   From: 2010.03.12/outbox.cif.g09.slc.cpg/sg65_34_cif.got.tgz:67659.got - 2010.04.10 20:52:16.
