data_PCOD8272604
_publ_section_title
;
Structure prediction by ZEFSAII (Michael W. Deem and Ramdas Pophale) SiO2 
 PCOD8272604
Probable space group: C M M M
;
_chemical_formula_sum "Si O2"
_cell_formula_units_Z 64
_cell_length_a 9.362617
_cell_length_b 24.435696
_cell_length_c 15.047640
_cell_angle_alpha 90.000000
_cell_angle_beta 90.000000
_cell_angle_gamma 90.000000
_cell_volume 3442.630119
_symmetry_space_group_name_H-M "C M M M"
_symmetry_group_IT_number 65
_symmetry_cell_setting 'orthorhombic'
loop_
_space_group_symop_operation_xyz
x,y,z
-x,-y,z
x,-y,-z
-x,y,-z
-x,-y,-z
x,y,-z
-x,y,z
x,-y,z
1/2+x,1/2+y,z
1/2-x,1/2-y,z
1/2+x,1/2-y,-z
1/2-x,1/2+y,-z
1/2-x,1/2-y,-z
1/2+x,1/2+y,-z
1/2-x,1/2+y,z
1/2+x,1/2-y,z
loop_
_atom_site_type_symbol
_atom_site_label
_atom_site_fract_x
_atom_site_fract_y
_atom_site_fract_z
Si Si1 0.344760 0.000000 0.895018
Si Si2 0.835250 0.396084 0.602099
Si Si3 0.329130 0.882484 0.099453
Si Si4 0.833079 0.694199 0.255986
Si Si5 0.661299 0.500000 0.394343
O O1 0.265931 0.057512 0.870417
O O2 0.500000 0.000000 0.848071
O O3 0.366414 0.000000 0.000000
O O4 0.797081 0.382978 0.500000
O O5 0.799322 0.342206 0.657943
O O6 0.741995 0.446080 0.640573
O O7 0.000000 0.413106 0.612783
O O8 0.500000 0.887079 0.101557
O O9 0.275441 0.836611 0.167822
O O10 0.276687 0.866741 0.000000
O O11 0.750000 0.750000 0.267621
O O12 0.000000 0.707056 0.247488
O O13 0.500000 0.500000 0.357796
O O14 0.665673 0.500000 0.500000
#
# Coordination Sequence:
#
# PCOD8272604 Si02
#       5
#     8  16  16  16   8
#     4   7  10  19  38  64  90 112 138 178 227 277
#     4   9  18  33  51  71  98 130 160 194 239 288
#     4   8  14  26  45  69  95 120 149 192 244 291
#     4  10  21  34  48  68  94 127 168 206 239 281
#     4   9  17  30  51  79 104 125 154 193 239 291
#
# _framework density 18.590437999999999
#
# number of rings (size 3 to 8) (size 9 to 14) (size 15 to 20)
#    0.000    3.250    0.000    1.875    0.000    4.500 
#    0.000    3.750    0.000    0.000    0.000    0.000 
#    0.000    4.000    0.000    0.000    0.000    0.000 
#
# Total GULP energy -396539.880795 kJ/mol
# GULP energy per Si atom -12391.871275 kJ/mol
# Density = 1.854812 g / cm^3
# Si number density = 18.590438 Si / 1000 Ang^3
#
#
#
# Elastic Constant Matrix: (Units=GPa)
#
#
# Indices 1 2 3 4 5 6 
#
# 1 55.1004 66.5381 33.8330 0.0000 0.0000 0.0000
# 2 66.5381 178.3844 69.3882 0.0000 0.0000 0.0000
# 3 33.8330 69.3882 91.7772 0.0000 0.0000 0.0000
# 4 0.0000 0.0000 0.0000 27.0286 0.0000 0.0000
# 5 0.0000 0.0000 0.0000 0.0000 10.9478 0.0000
# 6 0.0000 0.0000 0.0000 0.0000 0.0000 32.0975
#
#
#
# Elastic Compliance Matrix: (Units=1/GPa)
#
#
# Indices 1 2 3 4 5 6 
#
# 1 0.034123 -0.011099 -0.004188 0.000000 0.000000 0.000000
# 2 -0.011099 0.011551 -0.004642 0.000000 0.000000 0.000000
# 3 -0.004188 -0.004642 0.015949 0.000000 0.000000 0.000000
# 4 0.000000 0.000000 0.000000 0.036998 0.000000 0.000000
# 5 0.000000 0.000000 0.000000 0.000000 0.091342 0.000000
# 6 0.000000 0.000000 0.000000 0.000000 0.000000 0.031155
#
#
# Mechanical properties :
#
#
# Convention : Reuss Voigt Hill
#
# Bulk Modulus (GPa) = 45.94255 73.86453 59.90354
# Shear Modulus (GPa) = 18.64059 24.38165 21.51112
#
# Velocity S-wave (km/s) = 3.16998 3.62541 3.40532
# Velocity P-wave (km/s) = 6.17778 7.57256 6.91045
#
# Compressibility (1/GPa) = 0.02176631
#
# Stress axis : x y z
#
# Youngs Moduli (GPa) = 29.30564 86.56885 62.69884
#
# Poissons Ratio (x) = 0.96084 0.26257
# Poissons Ratio (y) = 0.32527 0.29104
# Poissons Ratio (z) = 0.12273 0.40184
#
# Static dielectric constant tensor:
#      x y z
#    x 2.993000 0.000000 0.000000 
#    y 0.000000 3.548170 0.000000 
#    z 0.000000 0.000000 3.490630 
# 
# 
# High freq. dielectric constant tensor:
#      x y z
#    x 1.666870 0.000000 0.000000 
#    y 0.000000 1.727200 0.000000 
#    z 0.000000 0.000000 1.718780 
# 
# From -- ./inp_files/36062.got.cif
#   From: 2010.03.12/outbox.cif.g09.slc.cpg/sg65_19_cif.got.tgz:36062.got - 2010.04.10 20:52:16.
