data_PCOD8272225
_publ_section_title
;
Structure prediction by ZEFSAII (Michael W. Deem and Ramdas Pophale) SiO2 
 PCOD8272225
Probable space group: C M M M
;
_chemical_formula_sum "Si O2"
_cell_formula_units_Z 104
_cell_length_a 8.956197
_cell_length_b 25.835659
_cell_length_c 26.001671
_cell_angle_alpha 90.000000
_cell_angle_beta 90.000000
_cell_angle_gamma 90.000000
_cell_volume 6016.507194
_symmetry_space_group_name_H-M "C M M M"
_symmetry_group_IT_number 65
_symmetry_cell_setting 'orthorhombic'
loop_
_space_group_symop_operation_xyz
x,y,z
-x,-y,z
x,-y,-z
-x,y,-z
-x,-y,-z
x,y,-z
-x,y,z
x,-y,z
1/2+x,1/2+y,z
1/2-x,1/2-y,z
1/2+x,1/2-y,-z
1/2-x,1/2+y,-z
1/2-x,1/2-y,-z
1/2+x,1/2+y,-z
1/2-x,1/2+y,z
1/2+x,1/2-y,z
loop_
_atom_site_type_symbol
_atom_site_label
_atom_site_fract_x
_atom_site_fract_y
_atom_site_fract_z
Si Si1 0.174731 0.559813 0.398302
Si Si2 0.177795 0.597369 0.289347
Si Si3 0.671317 0.599620 0.060845
Si Si4 0.174490 0.697417 0.231467
Si Si5 0.331175 0.438473 0.500000
Si Si6 0.177892 0.500000 0.890882
Si Si7 0.823950 0.696232 0.887279
Si Si8 0.177532 0.500000 0.226714
O O1 0.217578 0.500000 0.389455
O O2 0.230380 0.591440 0.348387
O O3 0.254011 0.583509 0.448581
O O4 0.000000 0.566020 0.407056
O O5 0.239379 0.651030 0.266329
O O6 0.242882 0.550588 0.255070
O O7 0.000000 0.595748 0.286288
O O8 0.500000 0.599028 0.079810
O O9 0.757792 0.550598 0.082600
O O10 0.751754 0.651313 0.079405
O O11 0.680194 0.597396 0.000000
O O12 0.250000 0.750000 0.250394
O O13 0.212227 0.685042 0.172319
O O14 0.000000 0.704046 0.239695
O O15 0.315410 0.500000 0.500000
O O16 0.500000 0.419324 0.500000
O O17 0.230723 0.500000 0.831914
O O18 0.000000 0.500000 0.896086
O O19 0.750000 0.750000 0.904802
O O20 0.000000 0.698697 0.897736
O O21 0.000000 0.500000 0.230162
#
# Coordination Sequence:
#
# PCOD8272225 Si02
#       8
#    16  16  16  16   8   8  16   8
#     4   9  15  25  43  67  91 121 162 201 234 276
#     4   9  15  26  46  72 100 126 156 199 243 282
#     4  11  24  40  56  75 102 135 170 210 254 300
#     4   9  18  32  50  73 100 130 163 197 239 291
#     4   9  17  27  39  57  90 133 162 191 236 284
#     4  11  22  36  57  80 103 135 172 208 247 300
#     4  10  20  36  58  82 105 132 165 206 254 307
#     4   9  16  28  48  76 103 124 153 196 247 294
#
# _framework density 17.285775000000001
#
# number of rings (size 3 to 8) (size 9 to 14) (size 15 to 20)
#    0.000    2.385    0.769    2.538    0.000    6.462 
#    0.000    0.769    0.000    1.846    0.000    0.538 
#    0.000    0.000    0.000    0.000    0.000    0.000 
#
# Total GULP energy -644814.499399 kJ/mol
# GULP energy per Si atom -12400.278835 kJ/mol
# Density = 1.724643 g / cm^3
# Si number density = 17.285775 Si / 1000 Ang^3
#
#
#
# Elastic Constant Matrix: (Units=GPa)
#
#
# Indices 1 2 3 4 5 6 
#
# 1 65.1517 41.0575 46.3283 0.0000 0.0000 0.0000
# 2 41.0575 119.3071 67.9686 0.0000 0.0000 0.0000
# 3 46.3283 67.9686 119.4850 0.0000 0.0000 0.0000
# 4 0.0000 0.0000 0.0000 83.7996 0.0000 0.0000
# 5 0.0000 0.0000 0.0000 0.0000 15.2031 0.0000
# 6 0.0000 0.0000 0.0000 0.0000 0.0000 19.5791
#
#
#
# Elastic Compliance Matrix: (Units=1/GPa)
#
#
# Indices 1 2 3 4 5 6 
#
# 1 0.022468 -0.004097 -0.006381 0.000000 0.000000 0.000000
# 2 -0.004097 0.013147 -0.005890 0.000000 0.000000 0.000000
# 3 -0.006381 -0.005890 0.014194 0.000000 0.000000 0.000000
# 4 0.000000 0.000000 0.000000 0.011933 0.000000 0.000000
# 5 0.000000 0.000000 0.000000 0.000000 0.065776 0.000000
# 6 0.000000 0.000000 0.000000 0.000000 0.000000 0.051075
#
#
# Mechanical properties :
#
#
# Convention : Reuss Voigt Hill
#
# Bulk Modulus (GPa) = 58.57211 68.29474 63.43342
# Shear Modulus (GPa) = 23.03925 33.62233 28.33079
#
# Velocity S-wave (km/s) = 3.65478 4.41510 4.05281
# Velocity P-wave (km/s) = 7.19500 8.09850 7.66008
#
# Compressibility (1/GPa) = 0.01707297
#
# Stress axis : x y z
#
# Youngs Moduli (GPa) = 44.50764 76.06183 70.45147
#
# Poissons Ratio (x) = 0.31160 0.44957
# Poissons Ratio (y) = 0.18233 0.41498
# Poissons Ratio (z) = 0.28401 0.44803
#
# Static dielectric constant tensor:
#      x y z
#    x 3.104300 0.000000 0.000000 
#    y 0.000000 3.135320 0.000000 
#    z 0.000000 0.000000 3.372870 
# 
# 
# High freq. dielectric constant tensor:
#      x y z
#    x 1.652150 0.000000 0.000000 
#    y 0.000000 1.654380 0.000000 
#    z 0.000000 0.000000 1.671870 
# 
# From -- ./inp_files/73652.got.cif
#   From: 2010.03.12/outbox.cif.g09.slc.cpg/sg65_37_cif.got.tgz:73652.got - 2010.04.10 20:52:16.
