data_PCOD8272876
_publ_section_title
;
Structure prediction by ZEFSAII (Michael W. Deem and Ramdas Pophale) SiO2 
 PCOD8272876
Probable space group: C M M M
;
_chemical_formula_sum "Si O2"
_cell_formula_units_Z 96
_cell_length_a 23.861196
_cell_length_b 24.489764
_cell_length_c 8.988326
_cell_angle_alpha 90.000000
_cell_angle_beta 90.000000
_cell_angle_gamma 90.000000
_cell_volume 5252.373768
_symmetry_space_group_name_H-M "C M M M"
_symmetry_group_IT_number 65
_symmetry_cell_setting 'orthorhombic'
loop_
_space_group_symop_operation_xyz
x,y,z
-x,-y,z
x,-y,-z
-x,y,-z
-x,-y,-z
x,y,-z
-x,y,z
x,-y,z
1/2+x,1/2+y,z
1/2-x,1/2-y,z
1/2+x,1/2-y,-z
1/2-x,1/2+y,-z
1/2-x,1/2-y,-z
1/2+x,1/2+y,-z
1/2-x,1/2+y,z
1/2+x,1/2-y,z
loop_
_atom_site_type_symbol
_atom_site_label
_atom_site_fract_x
_atom_site_fract_y
_atom_site_fract_z
Si Si1 0.936101 0.347389 0.827680
Si Si2 0.272711 0.561510 0.176669
Si Si3 0.434578 0.440432 0.337191
Si Si4 0.131174 0.140954 0.172495
Si Si5 0.936034 0.766563 0.324444
Si Si6 0.353088 0.060470 0.176724
O O1 0.923493 0.293641 0.734014
O O2 0.896908 0.395257 0.761401
O O3 0.000000 0.366731 0.807830
O O4 0.922613 0.334965 0.000000
O O5 0.288481 0.500000 0.233949
O O6 0.313285 0.610023 0.237580
O O7 0.209746 0.576089 0.228708
O O8 0.277510 0.561390 0.000000
O O9 0.415924 0.416724 0.500000
O O10 0.500000 0.446581 0.335080
O O11 0.407100 0.500000 0.313766
O O12 0.418237 0.402039 0.200758
O O13 0.113246 0.195682 0.258023
O O14 0.137220 0.155442 0.000000
O O15 0.930277 0.767207 0.500000
O O16 0.000000 0.784457 0.278351
O O17 0.368819 0.000000 0.237244
O O18 0.355795 0.059604 0.000000
#
# Coordination Sequence:
#
# PCOD8272876 Si02
#       6
#    16  16  16  16  16  16
#     4   9  17  30  51  79 104 123 152 196 237 275
#     4   8  15  28  45  68  99 131 160 191 233 286
#     4   9  18  31  44  60  87 122 156 193 243 300
#     4  11  20  29  46  70  92 119 162 211 246 273
#     4  10  21  36  51  66  91 130 167 197 240 297
#     4   8  14  27  49  76 105 132 153 181 230 288
#
# _framework density 18.277450000000002
#
# number of rings (size 3 to 8) (size 9 to 14) (size 15 to 20)
#    0.000    2.833    0.000    3.500    0.000    4.667 
#    0.000    3.333    0.000    7.500    0.000    7.000 
#    0.000    0.000    0.000    0.000    0.000    0.000 
#
# Total GULP energy -594679.687007 kJ/mol
# GULP energy per Si atom -12389.160146 kJ/mol
# Density = 1.823585 g / cm^3
# Si number density = 18.277450 Si / 1000 Ang^3
#
#
#
# Elastic Constant Matrix: (Units=GPa)
#
#
# Indices 1 2 3 4 5 6 
#
# 1 107.7014 86.3547 28.6834 0.0000 0.0000 0.0000
# 2 86.3547 134.6951 35.3939 0.0000 0.0000 0.0000
# 3 28.6834 35.3939 38.8507 0.0000 0.0000 0.0000
# 4 0.0000 0.0000 0.0000 14.0501 0.0000 0.0000
# 5 0.0000 0.0000 0.0000 0.0000 9.8798 0.0000
# 6 0.0000 0.0000 0.0000 0.0000 0.0000 39.8688
#
#
#
# Elastic Compliance Matrix: (Units=1/GPa)
#
#
# Indices 1 2 3 4 5 6 
#
# 1 0.019561 -0.011498 -0.003966 0.000000 0.000000 0.000000
# 2 -0.011498 0.016520 -0.006561 0.000000 0.000000 0.000000
# 3 -0.003966 -0.006561 0.034645 0.000000 0.000000 0.000000
# 4 0.000000 0.000000 0.000000 0.071174 0.000000 0.000000
# 5 0.000000 0.000000 0.000000 0.000000 0.101216 0.000000
# 6 0.000000 0.000000 0.000000 0.000000 0.000000 0.025082
#
#
# Mechanical properties :
#
#
# Convention : Reuss Voigt Hill
#
# Bulk Modulus (GPa) = 37.48897 64.67902 51.08399
# Shear Modulus (GPa) = 15.56952 21.48076 18.52514
#
# Velocity S-wave (km/s) = 2.92180 3.43193 3.18709
# Velocity P-wave (km/s) = 5.65138 7.15320 6.44618
#
# Compressibility (1/GPa) = 0.02667451
#
# Stress axis : x y z
#
# Youngs Moduli (GPa) = 51.12333 60.53320 28.86427
#
# Poissons Ratio (x) = 0.69603 0.11448
# Poissons Ratio (y) = 0.58783 0.18937
# Poissons Ratio (z) = 0.20277 0.39715
#
# Static dielectric constant tensor:
#      x y z
#    x 3.514210 0.000000 0.000000 
#    y 0.000000 3.542960 0.000000 
#    z 0.000000 0.000000 3.100690 
# 
# 
# High freq. dielectric constant tensor:
#      x y z
#    x 1.699570 0.000000 0.000000 
#    y 0.000000 1.708160 0.000000 
#    z 0.000000 0.000000 1.673540 
# 
# From -- ./inp_files/14607.got.cif
#   From: 2010.03.12/outbox.cif.g09.slc.cpg/sg65_8_cif.got.tgz:14607.got - 2010.04.10 20:52:16.
