data_PCOD8272915
_publ_section_title
;
Structure prediction by ZEFSAII (Michael W. Deem and Ramdas Pophale) SiO2 
 PCOD8272915
Probable space group: C M M M
;
_chemical_formula_sum "Si O2"
_cell_formula_units_Z 88
_cell_length_a 13.993214
_cell_length_b 28.363764
_cell_length_c 11.735625
_cell_angle_alpha 90.000000
_cell_angle_beta 90.000000
_cell_angle_gamma 90.000000
_cell_volume 4657.872138
_symmetry_space_group_name_H-M "C M M M"
_symmetry_group_IT_number 65
_symmetry_cell_setting 'orthorhombic'
loop_
_space_group_symop_operation_xyz
x,y,z
-x,-y,z
x,-y,-z
-x,y,-z
-x,-y,-z
x,y,-z
-x,y,z
x,-y,z
1/2+x,1/2+y,z
1/2-x,1/2-y,z
1/2+x,1/2-y,-z
1/2-x,1/2+y,-z
1/2-x,1/2-y,-z
1/2+x,1/2+y,-z
1/2-x,1/2+y,z
1/2+x,1/2-y,z
loop_
_atom_site_type_symbol
_atom_site_label
_atom_site_fract_x
_atom_site_fract_y
_atom_site_fract_z
Si Si1 0.213412 0.635389 0.769656
Si Si2 0.606039 0.303395 0.774061
Si Si3 0.500000 0.444521 0.376557
Si Si4 0.707198 0.446151 0.635622
Si Si5 0.363076 0.249570 0.000000
Si Si6 0.607662 0.140801 0.000000
Si Si7 0.386737 0.216372 0.628618
O O1 0.321161 0.653737 0.788268
O O2 0.216051 0.587552 0.695892
O O3 0.152880 0.674414 0.704745
O O4 0.164770 0.622778 0.889452
O O5 0.500000 0.322925 0.741719
O O6 0.595657 0.275056 0.890542
O O7 0.645135 0.267343 0.677496
O O8 0.500000 0.500000 0.397099
O O9 0.500000 0.419267 0.500000
O O10 0.399197 0.431875 0.315839
O O11 0.710841 0.438840 0.500000
O O12 0.732594 0.500000 0.667202
O O13 0.250000 0.250000 0.000000
O O14 0.400354 0.196806 0.000000
O O15 0.500000 0.119874 0.000000
O O16 0.347960 0.211982 0.500000
O O17 0.500000 0.212586 0.633626
#
# Coordination Sequence:
#
# PCOD8272915 Si02
#       7
#    16  16   8  16   8   8  16
#     4  12  22  35  58  83 110 145 190 238 281 331
#     4  11  22  34  52  80 114 148 182 225 276 330
#     4   7  12  28  54  81 109 143 179 214 259 323
#     4   9  19  36  59  86 115 148 186 228 277 335
#     4  12  18  37  57  76 106 147 191 231 269 314
#     4  12  24  39  59  82 106 146 199 242 283 336
#     4  10  21  36  52  75 111 151 187 227 280 338
#
# _framework density 18.892747
#
# number of rings (size 3 to 8) (size 9 to 14) (size 15 to 20)
#    0.000    1.545    3.636    3.545    1.273    2.182 
#    0.000    0.455    0.000    2.727    0.000    8.273 
#    0.000    0.000    0.000    0.000    0.000    0.000 
#
# Total GULP energy -545455.238554 kJ/mol
# GULP energy per Si atom -12396.709967 kJ/mol
# Density = 1.884975 g / cm^3
# Si number density = 18.892747 Si / 1000 Ang^3
#
#
#
# Elastic Constant Matrix: (Units=GPa)
#
#
# Indices 1 2 3 4 5 6 
#
# 1 85.4005 38.9163 34.1117 0.0000 0.0000 0.0000
# 2 38.9163 67.6727 28.3724 0.0000 0.0000 0.0000
# 3 34.1117 28.3724 104.3591 0.0000 0.0000 0.0000
# 4 0.0000 0.0000 0.0000 25.6639 0.0000 0.0000
# 5 0.0000 0.0000 0.0000 0.0000 28.0212 0.0000
# 6 0.0000 0.0000 0.0000 0.0000 0.0000 21.3792
#
#
#
# Elastic Compliance Matrix: (Units=1/GPa)
#
#
# Indices 1 2 3 4 5 6 
#
# 1 0.016780 -0.008295 -0.003229 0.000000 0.000000 0.000000
# 2 -0.008295 0.020779 -0.002938 0.000000 0.000000 0.000000
# 3 -0.003229 -0.002938 0.011437 0.000000 0.000000 0.000000
# 4 0.000000 0.000000 0.000000 0.038965 0.000000 0.000000
# 5 0.000000 0.000000 0.000000 0.000000 0.035687 0.000000
# 6 0.000000 0.000000 0.000000 0.000000 0.000000 0.046774
#
#
# Mechanical properties :
#
#
# Convention : Reuss Voigt Hill
#
# Bulk Modulus (GPa) = 49.82540 51.13702 50.48121
# Shear Modulus (GPa) = 24.26744 25.41500 24.84122
#
# Velocity S-wave (km/s) = 3.58786 3.67171 3.63003
# Velocity P-wave (km/s) = 6.60255 6.71573 6.65938
#
# Compressibility (1/GPa) = 0.02007009
#
# Stress axis : x y z
#
# Youngs Moduli (GPa) = 59.59608 48.12525 87.43857
#
# Poissons Ratio (x) = 0.39922 0.28238
# Poissons Ratio (y) = 0.49438 0.25687
# Poissons Ratio (z) = 0.19246 0.14138
#
# Static dielectric constant tensor:
#      x y z
#    x 3.613040 0.000000 0.000000 
#    y 0.000000 3.169670 0.000000 
#    z 0.000000 0.000000 3.541280 
# 
# 
# High freq. dielectric constant tensor:
#      x y z
#    x 1.746140 0.000000 0.000000 
#    y 0.000000 1.702180 0.000000 
#    z 0.000000 0.000000 1.727470 
# 
# From -- ./inp_files/25204.got.cif
#   From: 2010.03.12/outbox.cif.g09.slc.cpg/sg65_13_cif.got.tgz:25204.got - 2010.04.10 20:52:16.
