data_PCOD8272605
_publ_section_title
;
Structure prediction by ZEFSAII (Michael W. Deem and Ramdas Pophale) SiO2 
 PCOD8272605
Probable space group: C M M M
;
_chemical_formula_sum "Si O2"
_cell_formula_units_Z 88
_cell_length_a 18.711602
_cell_length_b 8.069842
_cell_length_c 30.438038
_cell_angle_alpha 90.000000
_cell_angle_beta 90.000000
_cell_angle_gamma 90.000000
_cell_volume 4596.133745
_symmetry_space_group_name_H-M "C M M M"
_symmetry_group_IT_number 65
_symmetry_cell_setting 'orthorhombic'
loop_
_space_group_symop_operation_xyz
x,y,z
-x,-y,z
x,-y,-z
-x,y,-z
-x,-y,-z
x,y,-z
-x,y,z
x,-y,z
1/2+x,1/2+y,z
1/2-x,1/2-y,z
1/2+x,1/2-y,-z
1/2-x,1/2+y,-z
1/2-x,1/2-y,-z
1/2+x,1/2+y,-z
1/2-x,1/2+y,z
1/2+x,1/2-y,z
loop_
_atom_site_type_symbol
_atom_site_label
_atom_site_fract_x
_atom_site_fract_y
_atom_site_fract_z
Si Si1 0.082099 0.694824 0.197284
Si Si2 0.420353 0.192065 0.638604
Si Si3 0.914727 0.500000 0.950069
Si Si4 0.668990 0.195822 0.280838
Si Si5 0.415656 0.690351 0.452806
Si Si6 0.915156 0.815761 0.103407
O O1 0.091635 0.500000 0.189534
O O2 0.129529 0.763059 0.237402
O O3 0.109222 0.786733 0.153518
O O4 0.000000 0.737781 0.207951
O O5 0.500000 0.273130 0.640847
O O6 0.370013 0.272148 0.676045
O O7 0.384802 0.217866 0.590272
O O8 0.427500 0.000000 0.648253
O O9 0.884135 0.332128 0.927178
O O10 0.000000 0.500000 0.947256
O O11 0.887642 0.500000 0.000000
O O12 0.750000 0.250000 0.280437
O O13 0.663739 0.000000 0.281842
O O14 0.385572 0.759129 0.500000
O O15 0.500000 0.715566 0.453425
O O16 0.394351 0.500000 0.448472
O O17 0.000000 0.807920 0.100886
O O18 0.888510 0.000000 0.088320
#
# Coordination Sequence:
#
# PCOD8272605 Si02
#       6
#    16  16   8  16  16  16
#     4   9  16  30  51  69  90 126 167 204 244 291
#     4   9  17  30  48  70  94 122 160 197 234 285
#     4   9  16  26  40  62  98 138 168 200 248 300
#     4  10  21  34  48  68  96 128 157 197 244 292
#     4   8  14  25  42  66  94 120 147 186 237 286
#     4   9  16  26  42  66  94 127 168 208 246 292
#
# _framework density 19.146528
#
# number of rings (size 3 to 8) (size 9 to 14) (size 15 to 20)
#    0.000    3.000    0.909    1.091    0.000    4.364 
#    0.000    3.636    0.000    6.000    0.000    0.000 
#    0.000    0.727    0.364    0.000    0.000    0.000 
#
# Total GULP energy -545188.384466 kJ/mol
# GULP energy per Si atom -12390.645101 kJ/mol
# Density = 1.910295 g / cm^3
# Si number density = 19.146528 Si / 1000 Ang^3
#
#
#
# Elastic Constant Matrix: (Units=GPa)
#
#
# Indices 1 2 3 4 5 6 
#
# 1 55.7495 16.6179 52.1668 0.0000 0.0000 0.0000
# 2 16.6179 73.9711 63.9129 0.0000 0.0000 0.0000
# 3 52.1668 63.9129 183.1904 0.0000 0.0000 0.0000
# 4 0.0000 0.0000 0.0000 20.3817 0.0000 0.0000
# 5 0.0000 0.0000 0.0000 0.0000 4.8497 0.0000
# 6 0.0000 0.0000 0.0000 0.0000 0.0000 14.7276
#
#
#
# Elastic Compliance Matrix: (Units=1/GPa)
#
#
# Indices 1 2 3 4 5 6 
#
# 1 0.024482 0.000750 -0.007233 0.000000 0.000000 0.000000
# 2 0.000750 0.019376 -0.006973 0.000000 0.000000 0.000000
# 3 -0.007233 -0.006973 0.009952 0.000000 0.000000 0.000000
# 4 0.000000 0.000000 0.000000 0.049064 0.000000 0.000000
# 5 0.000000 0.000000 0.000000 0.000000 0.206198 0.000000
# 6 0.000000 0.000000 0.000000 0.000000 0.000000 0.067900
#
#
# Mechanical properties :
#
#
# Convention : Reuss Voigt Hill
#
# Bulk Modulus (GPa) = 37.18096 64.25625 50.71861
# Shear Modulus (GPa) = 12.11092 20.00603 16.05847
#
# Velocity S-wave (km/s) = 2.51776 3.23598 2.89920
# Velocity P-wave (km/s) = 5.28332 6.89893 6.14446
#
# Compressibility (1/GPa) = 0.02689548
#
# Stress axis : x y z
#
# Youngs Moduli (GPa) = 40.84564 51.61141 100.48650
#
# Poissons Ratio (x) = -0.03870 0.72686
# Poissons Ratio (y) = -0.03063 0.70073
# Poissons Ratio (z) = 0.29545 0.35991
#
# Static dielectric constant tensor:
#      x y z
#    x 2.825030 0.000000 0.000000 
#    y 0.000000 3.469450 0.000000 
#    z 0.000000 0.000000 3.837010 
# 
# 
# High freq. dielectric constant tensor:
#      x y z
#    x 1.673310 0.000000 0.000000 
#    y 0.000000 1.733850 0.000000 
#    z 0.000000 0.000000 1.762180 
# 
# From -- ./inp_files/75316.got.cif
#   From: 2010.03.12/outbox.cif.g09.slc.cpg/sg65_38_cif.got.tgz:75316.got - 2010.04.10 20:52:16.
