data_PCOD8272995
_publ_section_title
;
Structure prediction by ZEFSAII (Michael W. Deem and Ramdas Pophale) SiO2 
 PCOD8272995
Probable space group: C M M M
;
_chemical_formula_sum "Si O2"
_cell_formula_units_Z 56
_cell_length_a 18.560137
_cell_length_b 13.080618
_cell_length_c 12.619494
_cell_angle_alpha 90.000000
_cell_angle_beta 90.000000
_cell_angle_gamma 90.000000
_cell_volume 3063.736298
_symmetry_space_group_name_H-M "C M M M"
_symmetry_group_IT_number 65
_symmetry_cell_setting 'orthorhombic'
loop_
_space_group_symop_operation_xyz
x,y,z
-x,-y,z
x,-y,-z
-x,y,-z
-x,-y,-z
x,y,-z
-x,y,z
x,-y,z
1/2+x,1/2+y,z
1/2-x,1/2-y,z
1/2+x,1/2-y,-z
1/2-x,1/2+y,-z
1/2-x,1/2-y,-z
1/2+x,1/2+y,-z
1/2-x,1/2+y,z
1/2+x,1/2-y,z
loop_
_atom_site_type_symbol
_atom_site_label
_atom_site_fract_x
_atom_site_fract_y
_atom_site_fract_z
Si Si1 0.583753 0.116115 0.123196
Si Si2 0.500000 0.382048 0.625412
Si Si3 0.138695 0.235880 0.294959
Si Si4 0.261675 0.886323 0.381040
O O1 0.500000 0.128170 0.152192
O O2 0.628101 0.204081 0.184379
O O3 0.608492 0.000000 0.152610
O O4 0.597158 0.136410 0.000000
O O5 0.500000 0.500000 0.664442
O O6 0.500000 0.377631 0.500000
O O7 0.568303 0.323393 0.670140
O O8 0.204248 0.153959 0.293622
O O9 0.164112 0.321887 0.379263
O O10 0.228574 0.880019 0.500000
O O11 0.282157 0.000000 0.349154
#
# Coordination Sequence:
#
# PCOD8272995 Si02
#       4
#    16   8  16  16
#     4   9  18  34  56  81 108 139 176 220 274 327
#     4  11  22  34  52  81 112 140 176 221 268 320
#     4  11  19  34  56  79 105 141 183 222 263 315
#     4  10  21  36  53  76 111 152 185 215 261 321
#
# _framework density 18.278334000000001
#
# number of rings (size 3 to 8) (size 9 to 14) (size 15 to 20)
#    0.000    1.857    1.429    6.000    0.000    2.286 
#    0.000    2.857    0.000    9.429    0.000    0.000 
#    0.000    0.000    0.000    0.000    0.000    0.000 
#
# Total GULP energy -346892.775565 kJ/mol
# GULP energy per Si atom -12389.027699 kJ/mol
# Density = 1.823673 g / cm^3
# Si number density = 18.278334 Si / 1000 Ang^3
#
#
#
# Elastic Constant Matrix: (Units=GPa)
#
#
# Indices 1 2 3 4 5 6 
#
# 1 98.7997 66.5779 34.2869 0.0000 0.0000 0.0000
# 2 66.5779 165.1485 45.0218 0.0000 0.0000 0.0000
# 3 34.2869 45.0218 75.2522 0.0000 0.0000 0.0000
# 4 0.0000 0.0000 0.0000 36.6894 0.0000 0.0000
# 5 0.0000 0.0000 0.0000 0.0000 27.9377 0.0000
# 6 0.0000 0.0000 0.0000 0.0000 0.0000 20.8210
#
#
#
# Elastic Compliance Matrix: (Units=1/GPa)
#
#
# Indices 1 2 3 4 5 6 
#
# 1 0.014744 -0.004914 -0.003778 0.000000 0.000000 0.000000
# 2 -0.004914 0.008873 -0.003070 0.000000 0.000000 0.000000
# 3 -0.003778 -0.003070 0.016846 0.000000 0.000000 0.000000
# 4 0.000000 0.000000 0.000000 0.027256 0.000000 0.000000
# 5 0.000000 0.000000 0.000000 0.000000 0.035794 0.000000
# 6 0.000000 0.000000 0.000000 0.000000 0.000000 0.048028
#
#
# Mechanical properties :
#
#
# Convention : Reuss Voigt Hill
#
# Bulk Modulus (GPa) = 59.02991 70.10818 64.56904
# Shear Modulus (GPa) = 27.66850 29.97721 28.82286
#
# Velocity S-wave (km/s) = 3.89489 4.05414 3.97531
# Velocity P-wave (km/s) = 7.25204 7.76877 7.51485
#
# Compressibility (1/GPa) = 0.01694057
#
# Stress axis : x y z
#
# Youngs Moduli (GPa) = 67.82487 112.70176 59.35999
#
# Poissons Ratio (x) = 0.55381 0.22425
# Poissons Ratio (y) = 0.33329 0.18221
# Poissons Ratio (z) = 0.25623 0.34595
#
# Static dielectric constant tensor:
#      x y z
#    x 3.457510 0.000000 0.000000 
#    y 0.000000 3.685680 0.000000 
#    z 0.000000 0.000000 3.195710 
# 
# 
# High freq. dielectric constant tensor:
#      x y z
#    x 1.702540 0.000000 0.000000 
#    y 0.000000 1.729750 0.000000 
#    z 0.000000 0.000000 1.681800 
# 
# From -- ./inp_files/23761.got.cif
#   From: 2010.03.12/outbox.cif.g09.slc.cpg/sg65_12_cif.got.tgz:23761.got - 2010.04.10 20:52:16.
