data_PCOD8272440
_publ_section_title
;
Structure prediction by ZEFSAII (Michael W. Deem and Ramdas Pophale) SiO2 
 PCOD8272440
Probable space group: C M M M
;
_chemical_formula_sum "Si O2"
_cell_formula_units_Z 72
_cell_length_a 17.616403
_cell_length_b 23.415317
_cell_length_c 9.018283
_cell_angle_alpha 90.000000
_cell_angle_beta 90.000000
_cell_angle_gamma 90.000000
_cell_volume 3719.984567
_symmetry_space_group_name_H-M "C M M M"
_symmetry_group_IT_number 65
_symmetry_cell_setting 'orthorhombic'
loop_
_space_group_symop_operation_xyz
x,y,z
-x,-y,z
x,-y,-z
-x,y,-z
-x,-y,-z
x,y,-z
-x,y,z
x,-y,z
1/2+x,1/2+y,z
1/2-x,1/2-y,z
1/2+x,1/2-y,-z
1/2-x,1/2+y,-z
1/2-x,1/2-y,-z
1/2+x,1/2+y,-z
1/2-x,1/2+y,z
1/2+x,1/2-y,z
loop_
_atom_site_type_symbol
_atom_site_label
_atom_site_fract_x
_atom_site_fract_y
_atom_site_fract_z
Si Si1 0.500000 0.932552 0.668000
Si Si2 0.586898 0.360180 0.325516
Si Si3 0.861895 0.373449 0.824340
Si Si4 0.708484 0.434722 0.825643
Si Si5 0.662082 0.757470 0.327123
O O1 0.500000 0.908749 0.500000
O O2 0.425802 0.912133 0.752689
O O3 0.500000 0.000000 0.668987
O O4 0.596684 0.366744 0.500000
O O5 0.500000 0.365660 0.275283
O O6 0.633009 0.410921 0.249912
O O7 0.618135 0.298844 0.273930
O O8 0.780878 0.398285 0.772249
O O9 0.871607 0.309093 0.767820
O O10 0.871015 0.375431 0.000000
O O11 0.720303 0.500000 0.775862
O O12 0.697688 0.429729 0.000000
O O13 0.648571 0.770342 0.500000
O O14 0.750000 0.750000 0.289878
#
# Coordination Sequence:
#
# PCOD8272440 Si02
#       5
#     8  16  16  16  16
#     4  11  25  43  63  89 123 163 204 247 300 365
#     4  10  22  39  59  87 121 157 197 247 301 352
#     4  11  23  39  62  91 122 157 200 251 305 362
#     4  10  22  40  61  85 116 156 199 246 301 359
#     4  10  20  37  61  87 119 158 200 246 298 357
#
# _framework density 19.35492
#
# number of rings (size 3 to 8) (size 9 to 14) (size 15 to 20)
#    0.000    1.667    2.222    1.667    1.556    5.333 
#    0.000    2.222    0.000    0.000    0.000    0.000 
#    0.000    0.000    0.000    0.000    0.000    0.000 
#
# Total GULP energy -446615.403804 kJ/mol
# GULP energy per Si atom -12405.983439 kJ/mol
# Density = 1.931087 g / cm^3
# Si number density = 19.354920 Si / 1000 Ang^3
#
#
#
# Elastic Constant Matrix: (Units=GPa)
#
#
# Indices 1 2 3 4 5 6 
#
# 1 120.6148 35.0226 38.8979 0.0000 0.0000 0.0000
# 2 35.0226 94.7381 34.2166 0.0000 0.0000 0.0000
# 3 38.8979 34.2166 57.6611 0.0000 0.0000 0.0000
# 4 0.0000 0.0000 0.0000 29.0828 0.0000 0.0000
# 5 0.0000 0.0000 0.0000 0.0000 35.5356 0.0000
# 6 0.0000 0.0000 0.0000 0.0000 0.0000 35.3733
#
#
#
# Elastic Compliance Matrix: (Units=1/GPa)
#
#
# Indices 1 2 3 4 5 6 
#
# 1 0.010816 -0.001735 -0.006267 0.000000 0.000000 0.000000
# 2 -0.001735 0.013713 -0.006967 0.000000 0.000000 0.000000
# 3 -0.006267 -0.006967 0.025704 0.000000 0.000000 0.000000
# 4 0.000000 0.000000 0.000000 0.034385 0.000000 0.000000
# 5 0.000000 0.000000 0.000000 0.000000 0.028141 0.000000
# 6 0.000000 0.000000 0.000000 0.000000 0.000000 0.028270
#
#
# Mechanical properties :
#
#
# Convention : Reuss Voigt Hill
#
# Bulk Modulus (GPa) = 49.27113 54.36535 51.81824
# Shear Modulus (GPa) = 28.13241 30.99014 29.56128
#
# Velocity S-wave (km/s) = 3.81662 4.00578 3.91234
# Velocity P-wave (km/s) = 6.70328 7.03880 6.87309
#
# Compressibility (1/GPa) = 0.02029586
#
# Stress axis : x y z
#
# Youngs Moduli (GPa) = 92.45915 72.92301 38.90380
#
# Poissons Ratio (x) = 0.12652 0.24379
# Poissons Ratio (y) = 0.16041 0.27105
# Poissons Ratio (z) = 0.57940 0.50806
#
# Static dielectric constant tensor:
#      x y z
#    x 3.653860 0.000000 0.000000 
#    y 0.000000 3.634440 0.000000 
#    z 0.000000 0.000000 3.467300 
# 
# 
# High freq. dielectric constant tensor:
#      x y z
#    x 1.762720 0.000000 0.000000 
#    y 0.000000 1.764770 0.000000 
#    z 0.000000 0.000000 1.748520 
# 
# From -- ./inp_files/7230.got.cif
#   From: 2010.03.12/outbox.cif.g09.slc.cpg/sg65_4_cif.got.tgz:7230.got - 2010.04.10 20:52:16.
