data_PCOD8272861
_publ_section_title
;
Structure prediction by ZEFSAII (Michael W. Deem and Ramdas Pophale) SiO2 
 PCOD8272861
Probable space group: C M M M
;
_chemical_formula_sum "Si O2"
_cell_formula_units_Z 72
_cell_length_a 24.687262
_cell_length_b 16.800207
_cell_length_c 8.696744
_cell_angle_alpha 90.000000
_cell_angle_beta 90.000000
_cell_angle_gamma 90.000000
_cell_volume 3606.984244
_symmetry_space_group_name_H-M "C M M M"
_symmetry_group_IT_number 65
_symmetry_cell_setting 'orthorhombic'
loop_
_space_group_symop_operation_xyz
x,y,z
-x,-y,z
x,-y,-z
-x,y,-z
-x,-y,-z
x,y,-z
-x,y,z
x,-y,z
1/2+x,1/2+y,z
1/2-x,1/2-y,z
1/2+x,1/2-y,-z
1/2-x,1/2+y,-z
1/2-x,1/2-y,-z
1/2+x,1/2+y,-z
1/2-x,1/2+y,z
1/2+x,1/2-y,z
loop_
_atom_site_type_symbol
_atom_site_label
_atom_site_fract_x
_atom_site_fract_y
_atom_site_fract_z
Si Si1 0.440467 0.411281 0.182862
Si Si2 0.562953 0.000000 0.681811
Si Si3 0.344820 0.696028 0.817481
Si Si4 0.244797 0.087768 0.322655
Si Si5 0.856417 0.622941 0.817972
O O1 0.500000 0.382972 0.237828
O O2 0.428787 0.500000 0.244617
O O3 0.395696 0.352408 0.250967
O O4 0.437968 0.410906 0.000000
O O5 0.591346 0.079525 0.746889
O O6 0.500000 0.000000 0.732508
O O7 0.568929 0.000000 0.500000
O O8 0.290326 0.657989 0.750986
O O9 0.353482 0.785801 0.761559
O O10 0.340677 0.690798 0.000000
O O11 0.254396 0.108541 0.500000
O O12 0.302069 0.080928 0.237995
O O13 0.217304 0.000000 0.303676
O O14 0.861112 0.616641 0.000000
#
# Coordination Sequence:
#
# PCOD8272861 Si02
#       5
#    16   8  16  16  16
#     4   8  14  27  49  77 110 147 184 226 280 339
#     4  11  25  45  67  89 117 159 206 249 302 367
#     4  10  21  35  56  88 119 150 194 247 301 357
#     4  11  23  38  58  84 118 160 200 240 296 362
#     4  11  23  39  61  88 117 151 195 250 306 357
#
# _framework density 19.961272999999998
#
# number of rings (size 3 to 8) (size 9 to 14) (size 15 to 20)
#    0.000    1.889    1.111    3.667    0.000    8.444 
#    0.000    2.222    0.000    0.667    0.000    3.111 
#    0.000    0.000    0.000    0.000    0.000    0.000 
#
# Total GULP energy -446368.768318 kJ/mol
# GULP energy per Si atom -12399.132453 kJ/mol
# Density = 1.991584 g / cm^3
# Si number density = 19.961273 Si / 1000 Ang^3
#
#
#
# Elastic Constant Matrix: (Units=GPa)
#
#
# Indices 1 2 3 4 5 6 
#
# 1 141.2099 71.4666 35.4630 0.0000 0.0000 0.0000
# 2 71.4666 146.4111 39.6933 0.0000 0.0000 0.0000
# 3 35.4630 39.6933 56.6123 0.0000 0.0000 0.0000
# 4 0.0000 0.0000 0.0000 22.9865 0.0000 0.0000
# 5 0.0000 0.0000 0.0000 0.0000 22.7143 0.0000
# 6 0.0000 0.0000 0.0000 0.0000 0.0000 25.9406
#
#
#
# Elastic Compliance Matrix: (Units=1/GPa)
#
#
# Indices 1 2 3 4 5 6 
#
# 1 0.009932 -0.003903 -0.003485 0.000000 0.000000 0.000000
# 2 -0.003903 0.009967 -0.004543 0.000000 0.000000 0.000000
# 3 -0.003485 -0.004543 0.023032 0.000000 0.000000 0.000000
# 4 0.000000 0.000000 0.000000 0.043504 0.000000 0.000000
# 5 0.000000 0.000000 0.000000 0.000000 0.044025 0.000000
# 6 0.000000 0.000000 0.000000 0.000000 0.000000 0.038550
#
#
# Mechanical properties :
#
#
# Convention : Reuss Voigt Hill
#
# Bulk Modulus (GPa) = 52.44170 70.83101 61.63635
# Shear Modulus (GPa) = 25.09663 27.50232 26.29948
#
# Velocity S-wave (km/s) = 3.54964 3.71588 3.63371
# Velocity P-wave (km/s) = 6.56724 7.34654 6.96779
#
# Compressibility (1/GPa) = 0.01906880
#
# Stress axis : x y z
#
# Youngs Moduli (GPa) = 100.68069 100.32978 43.41693
#
# Poissons Ratio (x) = 0.39163 0.15131
# Poissons Ratio (y) = 0.39300 0.19725
# Poissons Ratio (z) = 0.35087 0.45582
#
# Static dielectric constant tensor:
#      x y z
#    x 3.797290 0.000000 0.000000 
#    y 0.000000 3.884340 0.000000 
#    z 0.000000 0.000000 3.343420 
# 
# 
# High freq. dielectric constant tensor:
#      x y z
#    x 1.782320 0.000000 0.000000 
#    y 0.000000 1.792150 0.000000 
#    z 0.000000 0.000000 1.756000 
# 
# From -- ./inp_files/7269.got.cif
#   From: 2010.03.12/outbox.cif.g09.slc.cpg/sg65_4_cif.got.tgz:7269.got - 2010.04.10 20:52:16.
