data_PCOD8272504
_publ_section_title
;
Structure prediction by ZEFSAII (Michael W. Deem and Ramdas Pophale) SiO2 
 PCOD8272504
Probable space group: C M M M
;
_chemical_formula_sum "Si O2"
_cell_formula_units_Z 72
_cell_length_a 9.011970
_cell_length_b 23.468802
_cell_length_c 17.861657
_cell_angle_alpha 90.000000
_cell_angle_beta 90.000000
_cell_angle_gamma 90.000000
_cell_volume 3777.742948
_symmetry_space_group_name_H-M "C M M M"
_symmetry_group_IT_number 65
_symmetry_cell_setting 'orthorhombic'
loop_
_space_group_symop_operation_xyz
x,y,z
-x,-y,z
x,-y,-z
-x,y,-z
-x,-y,-z
x,y,-z
-x,y,z
x,-y,z
1/2+x,1/2+y,z
1/2-x,1/2-y,z
1/2+x,1/2-y,-z
1/2-x,1/2+y,-z
1/2-x,1/2-y,-z
1/2+x,1/2+y,-z
1/2-x,1/2+y,z
1/2+x,1/2-y,z
loop_
_atom_site_type_symbol
_atom_site_label
_atom_site_fract_x
_atom_site_fract_y
_atom_site_fract_z
Si Si1 0.330288 0.890642 0.084569
Si Si2 0.674770 0.311034 0.500000
Si Si3 0.675565 0.500000 0.856418
Si Si4 0.325779 0.500000 0.688752
Si Si5 0.673907 0.810545 0.218718
Si Si6 0.175210 0.123205 0.351803
O O1 0.500000 0.909527 0.097524
O O2 0.227934 0.944530 0.099757
O O3 0.288349 0.838583 0.138882
O O4 0.303667 0.869180 0.000000
O O5 0.500000 0.301697 0.500000
O O6 0.750000 0.250000 0.500000
O O7 0.726720 0.346389 0.572242
O O8 0.500000 0.500000 0.855272
O O9 0.743628 0.500000 0.772336
O O10 0.500000 0.500000 0.699446
O O11 0.278148 0.556540 0.643219
O O12 0.500000 0.802677 0.231802
O O13 0.750000 0.750000 0.222679
O O14 0.738047 0.850289 0.283026
O O15 0.000000 0.130444 0.338338
#
# Coordination Sequence:
#
# PCOD8272504 Si02
#       6
#    16   8   8   8  16  16
#     4  10  22  39  57  80 113 151 189 232 284 340
#     4  10  22  37  59  85 115 152 191 230 275 328
#     4  11  20  34  58  88 115 145 186 235 283 331
#     4   9  18  33  58  86 115 144 179 229 280 328
#     4  11  23  38  58  82 109 148 192 235 283 338
#     4  10  20  38  60  86 116 149 186 230 280 334
#
# _framework density 19.058997999999999
#
# number of rings (size 3 to 8) (size 9 to 14) (size 15 to 20)
#    0.000    1.778    2.222    2.000    0.000    6.222 
#    0.000    2.778    0.000    0.000    0.000    2.333 
#    0.000    0.000    0.000    0.000    0.000    0.000 
#
# Total GULP energy -446475.754743 kJ/mol
# GULP energy per Si atom -12402.104298 kJ/mol
# Density = 1.901562 g / cm^3
# Si number density = 19.058998 Si / 1000 Ang^3
#
#
#
# Elastic Constant Matrix: (Units=GPa)
#
#
# Indices 1 2 3 4 5 6 
#
# 1 57.1752 47.7382 37.9118 0.0000 0.0000 0.0000
# 2 47.7382 168.0542 74.0020 0.0000 0.0000 0.0000
# 3 37.9118 74.0020 147.2246 0.0000 0.0000 0.0000
# 4 0.0000 0.0000 0.0000 -43.8353 0.0000 0.0000
# 5 0.0000 0.0000 0.0000 0.0000 25.3639 0.0000
# 6 0.0000 0.0000 0.0000 0.0000 0.0000 -64.1267
#
#
#
# Elastic Compliance Matrix: (Units=1/GPa)
#
#
# Indices 1 2 3 4 5 6 
#
# 1 0.024316 -0.005330 -0.003583 0.000000 0.000000 0.000000
# 2 -0.005330 0.008810 -0.003056 0.000000 0.000000 0.000000
# 3 -0.003583 -0.003056 0.009251 0.000000 0.000000 0.000000
# 4 0.000000 0.000000 0.000000 -0.022813 0.000000 0.000000
# 5 0.000000 0.000000 0.000000 0.000000 0.039426 0.000000
# 6 0.000000 0.000000 0.000000 0.000000 0.000000 -0.015594
#
#
# Mechanical properties :
#
#
# Convention : Reuss Voigt Hill
#
# Bulk Modulus (GPa) = 54.22892 76.86200 65.54546
# Shear Modulus (GPa) = 68.04673 -2.33282 32.85695
#
# Velocity S-wave (km/s) = 5.98170 -1.10755 4.15656
# Velocity P-wave (km/s) = 8.73055 6.22740 7.58298
#
# Compressibility (1/GPa) = 0.01844035
#
# Stress axis : x y z
#
# Youngs Moduli (GPa) = 41.12593 113.50636 108.09698
#
# Poissons Ratio (x) = 0.60494 0.38727
# Poissons Ratio (y) = 0.21918 0.33034
# Poissons Ratio (z) = 0.14734 0.34687
#
# Static dielectric constant tensor:
#      x y z
#    x 3.408870 0.000000 0.000000 
#    y 0.000000 3.423110 0.000000 
#    z 0.000000 0.000000 3.686040 
# 
# 
# High freq. dielectric constant tensor:
#      x y z
#    x 1.728890 0.000000 0.000000 
#    y 0.000000 1.751160 0.000000 
#    z 0.000000 0.000000 1.749630 
# 
# From -- ./inp_files/36713.got.cif
#   From: 2010.03.12/outbox.cif.g09.slc.cpg/sg65_19_cif.got.tgz:36713.got - 2010.04.10 20:52:16.
