data_PCOD8272220
_publ_section_title
;
Structure prediction by ZEFSAII (Michael W. Deem and Ramdas Pophale) SiO2 
 PCOD8272220
Probable space group: C M M M
;
_chemical_formula_sum "Si O2"
_cell_formula_units_Z 88
_cell_length_a 8.826093
_cell_length_b 18.679475
_cell_length_c 28.338058
_cell_angle_alpha 90.000000
_cell_angle_beta 90.000000
_cell_angle_gamma 90.000000
_cell_volume 4672.004474
_symmetry_space_group_name_H-M "C M M M"
_symmetry_group_IT_number 65
_symmetry_cell_setting 'orthorhombic'
loop_
_space_group_symop_operation_xyz
x,y,z
-x,-y,z
x,-y,-z
-x,y,-z
-x,-y,-z
x,y,-z
-x,y,z
x,-y,z
1/2+x,1/2+y,z
1/2-x,1/2-y,z
1/2+x,1/2-y,-z
1/2-x,1/2+y,-z
1/2-x,1/2-y,-z
1/2+x,1/2+y,-z
1/2-x,1/2+y,z
1/2+x,1/2-y,z
loop_
_atom_site_type_symbol
_atom_site_label
_atom_site_fract_x
_atom_site_fract_y
_atom_site_fract_z
Si Si1 0.322384 0.824070 0.271960
Si Si2 0.180487 0.328944 0.000000
Si Si3 0.821537 0.083912 0.914897
Si Si4 0.321095 0.080121 0.355921
Si Si5 0.672808 0.584920 0.448793
Si Si6 0.679626 0.826588 0.164674
O O1 0.500000 0.815712 0.276913
O O2 0.250000 0.750000 0.286482
O O3 0.257578 0.881099 0.309273
O O4 0.279594 0.845976 0.218649
O O5 0.250000 0.250000 0.000000
O O6 0.234495 0.372010 0.954536
O O7 0.000000 0.322734 0.000000
O O8 0.758177 0.110665 0.864927
O O9 0.000000 0.098746 0.918805
O O10 0.785666 0.000000 0.920571
O O11 0.500000 0.081022 0.356168
O O12 0.265623 0.117550 0.404633
O O13 0.256295 0.000000 0.353013
O O14 0.732297 0.613644 0.500000
O O15 0.500000 0.608126 0.442145
O O16 0.690496 0.500000 0.448823
O O17 0.500000 0.824304 0.155442
O O18 0.750000 0.750000 0.150284
#
# Coordination Sequence:
#
# PCOD8272220 Si02
#       6
#    16   8  16  16  16  16
#     4   9  19  34  52  74 101 135 171 210 254 302
#     4  12  25  42  65  89 115 149 189 226 263 314
#     4  11  24  41  60  85 118 149 179 222 272 315
#     4   9  17  29  46  70  98 126 160 204 253 302
#     4   8  14  25  41  63  92 124 158 198 246 300
#     4  10  20  36  58  81 107 141 182 222 262 314
#
# _framework density 18.835598999999998
#
# number of rings (size 3 to 8) (size 9 to 14) (size 15 to 20)
#    0.000    2.364    0.000    3.273    0.000    5.091 
#    0.000    3.636    0.000    2.727    0.000    0.000 
#    0.000    0.000    0.000    0.000    0.000    0.000 
#
# Total GULP energy -545446.247216 kJ/mol
# GULP energy per Si atom -12396.505619 kJ/mol
# Density = 1.879273 g / cm^3
# Si number density = 18.835599 Si / 1000 Ang^3
#
#
#
# Elastic Constant Matrix: (Units=GPa)
#
#
# Indices 1 2 3 4 5 6 
#
# 1 74.0603 49.6077 50.9279 0.0000 0.0000 0.0000
# 2 49.6077 100.8349 77.7980 0.0000 0.0000 0.0000
# 3 50.9279 77.7980 156.6134 0.0000 0.0000 0.0000
# 4 0.0000 0.0000 0.0000 26.4583 0.0000 0.0000
# 5 0.0000 0.0000 0.0000 0.0000 31.2967 0.0000
# 6 0.0000 0.0000 0.0000 0.0000 0.0000 25.6301
#
#
#
# Elastic Compliance Matrix: (Units=1/GPa)
#
#
# Indices 1 2 3 4 5 6 
#
# 1 0.020835 -0.008144 -0.002729 0.000000 0.000000 0.000000
# 2 -0.008144 0.019264 -0.006921 0.000000 0.000000 0.000000
# 3 -0.002729 -0.006921 0.010711 0.000000 0.000000 0.000000
# 4 0.000000 0.000000 0.000000 0.037795 0.000000 0.000000
# 5 0.000000 0.000000 0.000000 0.000000 0.031952 0.000000
# 6 0.000000 0.000000 0.000000 0.000000 0.000000 0.039017
#
#
# Mechanical properties :
#
#
# Convention : Reuss Voigt Hill
#
# Bulk Modulus (GPa) = 65.70321 76.46397 71.08359
# Shear Modulus (GPa) = 24.97061 26.88868 25.92965
#
# Velocity S-wave (km/s) = 3.64499 3.78239 3.71432
# Velocity P-wave (km/s) = 7.25760 7.73038 7.49772
#
# Compressibility (1/GPa) = 0.01521996
#
# Stress axis : x y z
#
# Youngs Moduli (GPa) = 47.99706 51.91136 93.36476
#
# Poissons Ratio (x) = 0.42277 0.25483
# Poissons Ratio (y) = 0.39090 0.64617
# Poissons Ratio (z) = 0.13100 0.35927
#
# Static dielectric constant tensor:
#      x y z
#    x 3.452540 0.000000 0.000000 
#    y 0.000000 3.328880 0.000000 
#    z 0.000000 0.000000 4.142750 
# 
# 
# High freq. dielectric constant tensor:
#      x y z
#    x 1.730400 0.000000 0.000000 
#    y 0.000000 1.704830 0.000000 
#    z 0.000000 0.000000 1.754130 
# 
# From -- ./inp_files/76643.got.cif
#   From: 2010.03.12/outbox.cif.g09.slc.cpg/sg65_39_cif.got.tgz:76643.got - 2010.04.10 20:52:16.
