data_PCOD8272704
_publ_section_title
;
Structure prediction by ZEFSAII (Michael W. Deem and Ramdas Pophale) SiO2 
 PCOD8272704
Probable space group: C M M M
;
_chemical_formula_sum "Si O2"
_cell_formula_units_Z 88
_cell_length_a 11.210107
_cell_length_b 29.061935
_cell_length_c 14.438566
_cell_angle_alpha 90.000000
_cell_angle_beta 90.000000
_cell_angle_gamma 90.000000
_cell_volume 4703.902891
_symmetry_space_group_name_H-M "C M M M"
_symmetry_group_IT_number 65
_symmetry_cell_setting 'orthorhombic'
loop_
_space_group_symop_operation_xyz
x,y,z
-x,-y,z
x,-y,-z
-x,y,-z
-x,-y,-z
x,y,-z
-x,y,z
x,-y,z
1/2+x,1/2+y,z
1/2-x,1/2-y,z
1/2+x,1/2-y,-z
1/2-x,1/2+y,-z
1/2-x,1/2-y,-z
1/2+x,1/2+y,-z
1/2-x,1/2+y,z
1/2+x,1/2-y,z
loop_
_atom_site_type_symbol
_atom_site_label
_atom_site_fract_x
_atom_site_fract_y
_atom_site_fract_z
Si Si1 0.864947 0.136945 0.255532
Si Si2 0.862174 0.217695 0.608803
Si Si3 0.251887 0.051232 0.185711
Si Si4 0.500000 0.167629 0.898530
Si Si5 0.868824 0.945344 0.000000
Si Si6 0.752430 0.696076 0.892462
Si Si7 0.000000 0.561202 0.103698
O O1 0.839952 0.167842 0.345724
O O2 0.781399 0.090886 0.260199
O O3 0.847149 0.169560 0.165653
O O4 0.000000 0.118878 0.253427
O O5 0.852365 0.210572 0.500000
O O6 0.750000 0.250000 0.642069
O O7 0.000000 0.235121 0.633658
O O8 0.390937 0.045097 0.166987
O O9 0.201797 0.000000 0.213113
O O10 0.196861 0.072112 0.091351
O O11 0.379665 0.182076 0.846788
O O12 0.500000 0.114258 0.911986
O O13 0.500000 0.192164 0.000000
O O14 0.000000 0.924071 0.000000
O O15 0.869983 0.000000 0.000000
O O16 0.750000 0.750000 0.879256
O O17 0.739408 0.681292 0.000000
O O18 0.000000 0.538316 0.000000
#
# Coordination Sequence:
#
# PCOD8272704 Si02
#       7
#    16  16  16   8   8  16   8
#     4  11  23  36  53  81 110 141 181 224 273 327
#     4   9  19  40  67  92 118 145 178 225 280 337
#     4  11  22  35  51  73 104 146 189 234 281 322
#     4   9  18  33  50  67  96 139 186 227 266 307
#     4   9  18  31  47  67  94 136 186 229 272 317
#     4  10  21  35  50  71 104 147 184 218 263 320
#     4  11  19  34  53  72 100 142 200 249 280 315
#
# _framework density 18.70787
#
# number of rings (size 3 to 8) (size 9 to 14) (size 15 to 20)
#    0.000    1.909    2.727    1.364    2.545    1.818 
#    3.273    0.000    0.000    0.545    0.000    2.545 
#    0.000    1.455    0.000    0.000    0.000    0.000 
#
# Total GULP energy -545132.299814 kJ/mol
# GULP energy per Si atom -12389.370450 kJ/mol
# Density = 1.866529 g / cm^3
# Si number density = 18.707870 Si / 1000 Ang^3
#
#
#
# Elastic Constant Matrix: (Units=GPa)
#
#
# Indices 1 2 3 4 5 6 
#
# 1 121.3580 40.1048 25.9391 0.0000 0.0000 0.0000
# 2 40.1048 106.7443 25.8086 0.0000 0.0000 0.0000
# 3 25.9391 25.8086 34.2707 0.0000 0.0000 0.0000
# 4 0.0000 0.0000 0.0000 13.4770 0.0000 0.0000
# 5 0.0000 0.0000 0.0000 0.0000 20.8000 0.0000
# 6 0.0000 0.0000 0.0000 0.0000 0.0000 23.6333
#
#
#
# Elastic Compliance Matrix: (Units=1/GPa)
#
#
# Indices 1 2 3 4 5 6 
#
# 1 0.010322 -0.002432 -0.005981 0.000000 0.000000 0.000000
# 2 -0.002432 0.012027 -0.007216 0.000000 0.000000 0.000000
# 3 -0.005981 -0.007216 0.039141 0.000000 0.000000 0.000000
# 4 0.000000 0.000000 0.000000 0.074201 0.000000 0.000000
# 5 0.000000 0.000000 0.000000 0.000000 0.048077 0.000000
# 6 0.000000 0.000000 0.000000 0.000000 0.000000 0.042313
#
#
# Mechanical properties :
#
#
# Convention : Reuss Voigt Hill
#
# Bulk Modulus (GPa) = 33.07886 49.56422 41.32154
# Shear Modulus (GPa) = 18.69743 22.95010 20.82376
#
# Velocity S-wave (km/s) = 3.16482 3.50632 3.33994
# Velocity P-wave (km/s) = 5.57450 6.55314 6.08353
#
# Compressibility (1/GPa) = 0.03023079
#
# Stress axis : x y z
#
# Youngs Moduli (GPa) = 96.87846 83.14866 25.54868
#
# Poissons Ratio (x) = 0.20222 0.15281
# Poissons Ratio (y) = 0.23561 0.18437
# Poissons Ratio (z) = 0.57945 0.60002
#
# Static dielectric constant tensor:
#      x y z
#    x 3.789540 0.000000 0.000000 
#    y 0.000000 3.390940 0.000000 
#    z 0.000000 0.000000 3.100240 
# 
# 
# High freq. dielectric constant tensor:
#      x y z
#    x 1.742200 0.000000 0.000000 
#    y 0.000000 1.733000 0.000000 
#    z 0.000000 0.000000 1.670160 
# 
# From -- ./inp_files/38879.got.cif
#   From: 2010.03.12/outbox.cif.g09.slc.cpg/sg65_20_cif.got.tgz:38879.got - 2010.04.10 20:52:16.
