data_PCOD8272642
_publ_section_title
;
Structure prediction by ZEFSAII (Michael W. Deem and Ramdas Pophale) SiO2 
 PCOD8272642
Probable space group: C M M M
;
_chemical_formula_sum "Si O2"
_cell_formula_units_Z 80
_cell_length_a 18.592901
_cell_length_b 7.827068
_cell_length_c 27.765794
_cell_angle_alpha 90.000000
_cell_angle_beta 90.000000
_cell_angle_gamma 90.000000
_cell_volume 4040.697705
_symmetry_space_group_name_H-M "C M M M"
_symmetry_group_IT_number 65
_symmetry_cell_setting 'orthorhombic'
loop_
_space_group_symop_operation_xyz
x,y,z
-x,-y,z
x,-y,-z
-x,y,-z
-x,-y,-z
x,y,-z
-x,y,z
x,-y,z
1/2+x,1/2+y,z
1/2-x,1/2-y,z
1/2+x,1/2-y,-z
1/2-x,1/2+y,-z
1/2-x,1/2-y,-z
1/2+x,1/2+y,-z
1/2-x,1/2+y,z
1/2+x,1/2-y,z
loop_
_atom_site_type_symbol
_atom_site_label
_atom_site_fract_x
_atom_site_fract_y
_atom_site_fract_z
Si Si1 0.832318 0.299886 0.283190
Si Si2 0.915476 0.303121 0.377764
Si Si3 0.080605 0.298806 0.193823
Si Si4 0.080568 0.798668 0.909997
Si Si5 0.667755 0.298615 0.000000
Si Si6 0.085067 0.000000 0.446447
O O1 0.840047 0.500000 0.279549
O O2 0.750000 0.250000 0.286642
O O3 0.874215 0.237384 0.330464
O O4 0.869142 0.217705 0.235590
O O5 0.895924 0.500000 0.391579
O O6 0.890115 0.174448 0.419912
O O7 0.000000 0.286670 0.367375
O O8 0.077265 0.500000 0.199828
O O9 0.113866 0.251594 0.141793
O O10 0.000000 0.221188 0.198344
O O11 0.000000 0.721755 0.914734
O O12 0.077797 0.000000 0.915088
O O13 0.129905 0.720394 0.952366
O O14 0.750000 0.250000 0.000000
O O15 0.658720 0.500000 0.000000
O O16 0.119100 0.000000 0.500000
O O17 0.000000 0.000000 0.449912
#
# Coordination Sequence:
#
# PCOD8272642 Si02
#       6
#    16  16  16  16   8   8
#     4  10  21  34  51  76 104 141 175 212 261 314
#     4   9  18  34  55  79 108 144 182 222 270 320
#     4   9  18  34  54  75 102 133 168 212 261 312
#     4   9  18  34  54  74  95 126 168 212 256 305
#     4  10  21  35  51  71  99 132 166 208 258 306
#     4   9  18  32  54  86 114 138 177 228 276 318
#
# _framework density 19.798560999999999
#
# number of rings (size 3 to 8) (size 9 to 14) (size 15 to 20)
#    0.000    2.700    0.000    0.900    1.400    6.400 
#    0.000    6.000    0.000    3.600    0.000    0.000 
#    0.000    0.000    0.000    0.000    0.000    0.000 
#
# Total GULP energy -495857.909532 kJ/mol
# GULP energy per Si atom -12396.447738 kJ/mol
# Density = 1.975350 g / cm^3
# Si number density = 19.798561 Si / 1000 Ang^3
#
#
#
# Elastic Constant Matrix: (Units=GPa)
#
#
# Indices 1 2 3 4 5 6 
#
# 1 93.8860 20.9777 82.7466 0.0000 0.0000 0.0000
# 2 20.9777 49.7077 49.9297 0.0000 0.0000 0.0000
# 3 82.7466 49.9297 216.0634 0.0000 0.0000 0.0000
# 4 0.0000 0.0000 0.0000 28.3669 0.0000 0.0000
# 5 0.0000 0.0000 0.0000 0.0000 13.7374 0.0000
# 6 0.0000 0.0000 0.0000 0.0000 0.0000 21.6234
#
#
#
# Elastic Compliance Matrix: (Units=1/GPa)
#
#
# Indices 1 2 3 4 5 6 
#
# 1 0.016102 -0.000783 -0.005986 0.000000 0.000000 0.000000
# 2 -0.000783 0.026237 -0.005763 0.000000 0.000000 0.000000
# 3 -0.005986 -0.005763 0.008252 0.000000 0.000000 0.000000
# 4 0.000000 0.000000 0.000000 0.035252 0.000000 0.000000
# 5 0.000000 0.000000 0.000000 0.000000 0.072794 0.000000
# 6 0.000000 0.000000 0.000000 0.000000 0.000000 0.046246
#
#
# Mechanical properties :
#
#
# Convention : Reuss Voigt Hill
#
# Bulk Modulus (GPa) = 39.17342 74.10725 56.64034
# Shear Modulus (GPa) = 20.96821 26.47905 23.72363
#
# Velocity S-wave (km/s) = 3.25788 3.66105 3.46533
# Velocity P-wave (km/s) = 5.82929 7.44197 6.68444
#
# Compressibility (1/GPa) = 0.02552751
#
# Stress axis : x y z
#
# Youngs Moduli (GPa) = 62.10593 38.11418 121.17701
#
# Poissons Ratio (x) = 0.02984 0.72531
# Poissons Ratio (y) = 0.04862 0.69837
# Poissons Ratio (z) = 0.37174 0.21966
#
# Static dielectric constant tensor:
#      x y z
#    x 3.338160 0.000000 0.000000 
#    y 0.000000 3.493890 0.000000 
#    z 0.000000 0.000000 4.015610 
# 
# 
# High freq. dielectric constant tensor:
#      x y z
#    x 1.748490 0.000000 0.000000 
#    y 0.000000 1.760790 0.000000 
#    z 0.000000 0.000000 1.780460 
# 
# From -- ./inp_files/75090.got.cif
#   From: 2010.03.12/outbox.cif.g09.slc.cpg/sg65_38_cif.got.tgz:75090.got - 2010.04.10 20:52:16.
