data_PCOD8272134
_publ_section_title
;
Structure prediction by ZEFSAII (Michael W. Deem and Ramdas Pophale) SiO2 
 PCOD8272134
Probable space group: C M M M
;
_chemical_formula_sum "Si O2"
_cell_formula_units_Z 112
_cell_length_a 23.097742
_cell_length_b 13.659421
_cell_length_c 17.134793
_cell_angle_alpha 90.000000
_cell_angle_beta 90.000000
_cell_angle_gamma 90.000000
_cell_volume 5406.057728
_symmetry_space_group_name_H-M "C M M M"
_symmetry_group_IT_number 65
_symmetry_cell_setting 'orthorhombic'
loop_
_space_group_symop_operation_xyz
x,y,z
-x,-y,z
x,-y,-z
-x,y,-z
-x,-y,-z
x,y,-z
-x,y,z
x,-y,z
1/2+x,1/2+y,z
1/2-x,1/2-y,z
1/2+x,1/2-y,-z
1/2-x,1/2+y,-z
1/2-x,1/2-y,-z
1/2+x,1/2+y,-z
1/2-x,1/2+y,z
1/2+x,1/2-y,z
loop_
_atom_site_type_symbol
_atom_site_label
_atom_site_fract_x
_atom_site_fract_y
_atom_site_fract_z
Si Si1 0.899760 0.611959 0.654285
Si Si2 0.064635 0.200615 0.588192
Si Si3 0.065568 0.613163 0.831223
Si Si4 0.829526 0.114503 0.324595
Si Si5 0.779657 0.615960 0.413324
Si Si6 0.172164 0.696481 0.911386
Si Si7 0.284959 0.387006 0.848378
O O1 0.911492 0.500000 0.629185
O O2 0.937367 0.681560 0.598201
O O3 0.916953 0.631706 0.742576
O O4 0.832529 0.642469 0.643932
O O5 0.084136 0.173426 0.500000
O O6 0.108248 0.158741 0.653209
O O7 0.000000 0.159093 0.603356
O O8 0.072178 0.500000 0.853176
O O9 0.106458 0.675152 0.887598
O O10 0.000000 0.649138 0.844571
O O11 0.780088 0.161675 0.380368
O O12 0.810397 0.136854 0.236637
O O13 0.834401 0.000000 0.338886
O O14 0.791540 0.657410 0.500000
O O15 0.772488 0.500000 0.415334
O O16 0.216165 0.637010 0.854444
O O17 0.182257 0.813640 0.907032
O O18 0.182649 0.662277 0.000000
O O19 0.295955 0.500000 0.871341
#
# Coordination Sequence:
#
# PCOD8272134 Si02
#       7
#    16  16  16  16  16  16  16
#     4  10  20  36  56  79 112 150 188 233 282 332
#     4  11  24  38  54  80 112 150 197 241 283 335
#     4  10  21  37  59  86 115 152 196 237 281 339
#     4  10  21  38  59  81 109 145 186 237 288 332
#     4   9  17  30  51  79 108 139 178 225 279 332
#     4  11  23  38  60  90 123 154 182 226 287 345
#     4  10  21  38  60  87 117 151 193 235 281 342
#
# _framework density 20.717500000000001
#
# number of rings (size 3 to 8) (size 9 to 14) (size 15 to 20)
#    0.000    1.857    0.000    4.286    0.000    9.143 
#    0.000    3.571    0.000    1.286    0.000    1.000 
#    0.000    0.000    0.000    0.000    0.000    0.000 
#
# Total GULP energy -694356.798230 kJ/mol
# GULP energy per Si atom -12399.228540 kJ/mol
# Density = 2.067035 g / cm^3
# Si number density = 20.717500 Si / 1000 Ang^3
#
#
#
# Elastic Constant Matrix: (Units=GPa)
#
#
# Indices 1 2 3 4 5 6 
#
# 1 157.9145 39.7717 64.1460 0.0000 0.0000 0.0000
# 2 39.7717 57.5857 31.9494 0.0000 0.0000 0.0000
# 3 64.1460 31.9494 94.2864 0.0000 0.0000 0.0000
# 4 0.0000 0.0000 0.0000 19.5927 0.0000 0.0000
# 5 0.0000 0.0000 0.0000 0.0000 19.1002 0.0000
# 6 0.0000 0.0000 0.0000 0.0000 0.0000 25.8238
#
#
#
# Elastic Compliance Matrix: (Units=1/GPa)
#
#
# Indices 1 2 3 4 5 6 
#
# 1 0.009318 -0.003594 -0.005122 0.000000 0.000000 0.000000
# 2 -0.003594 0.022772 -0.005271 0.000000 0.000000 0.000000
# 3 -0.005122 -0.005271 0.015877 0.000000 0.000000 0.000000
# 4 0.000000 0.000000 0.000000 0.051039 0.000000 0.000000
# 5 0.000000 0.000000 0.000000 0.000000 0.052355 0.000000
# 6 0.000000 0.000000 0.000000 0.000000 0.000000 0.038724
#
#
# Mechanical properties :
#
#
# Convention : Reuss Voigt Hill
#
# Bulk Modulus (GPa) = 50.01737 64.61342 57.31540
# Shear Modulus (GPa) = 22.24950 24.49797 23.37373
#
# Velocity S-wave (km/s) = 3.28067 3.44245 3.36253
# Velocity P-wave (km/s) = 6.20849 6.85975 6.54223
#
# Compressibility (1/GPa) = 0.01999305
#
# Stress axis : x y z
#
# Youngs Moduli (GPa) = 107.31748 43.91297 62.98592
#
# Poissons Ratio (x) = 0.15783 0.32259
# Poissons Ratio (y) = 0.38571 0.33202
# Poissons Ratio (z) = 0.54963 0.23148
#
# Static dielectric constant tensor:
#      x y z
#    x 3.807760 0.000000 0.000000 
#    y 0.000000 3.777930 0.000000 
#    z 0.000000 0.000000 3.603020 
# 
# 
# High freq. dielectric constant tensor:
#      x y z
#    x 1.810280 0.000000 0.000000 
#    y 0.000000 1.809020 0.000000 
#    z 0.000000 0.000000 1.800950 
# 
# From -- ./inp_files/45739.got.cif
#   From: 2010.03.12/outbox.cif.g09.slc.cpg/sg65_23_cif.got.tgz:45739.got - 2010.04.10 20:52:16.
