data_PCOD8272753
_publ_section_title
;
Structure prediction by ZEFSAII (Michael W. Deem and Ramdas Pophale) SiO2 
 PCOD8272753
Probable space group: C M M M
;
_chemical_formula_sum "Si O2"
_cell_formula_units_Z 80
_cell_length_a 19.041227
_cell_length_b 9.551400
_cell_length_c 25.337109
_cell_angle_alpha 90.000000
_cell_angle_beta 90.000000
_cell_angle_gamma 90.000000
_cell_volume 4608.069530
_symmetry_space_group_name_H-M "C M M M"
_symmetry_group_IT_number 65
_symmetry_cell_setting 'orthorhombic'
loop_
_space_group_symop_operation_xyz
x,y,z
-x,-y,z
x,-y,-z
-x,y,-z
-x,-y,-z
x,y,-z
-x,y,z
x,-y,z
1/2+x,1/2+y,z
1/2-x,1/2-y,z
1/2+x,1/2-y,-z
1/2-x,1/2+y,-z
1/2-x,1/2-y,-z
1/2+x,1/2+y,-z
1/2-x,1/2+y,z
1/2+x,1/2-y,z
loop_
_atom_site_type_symbol
_atom_site_label
_atom_site_fract_x
_atom_site_fract_y
_atom_site_fract_z
Si Si1 0.919372 0.838664 0.197879
Si Si2 0.181297 0.836706 0.590148
Si Si3 0.077809 0.165657 0.500000
Si Si4 0.580734 0.836968 0.097892
Si Si5 0.821993 0.335700 0.000000
Si Si6 0.317291 0.661575 0.709916
O O1 0.892528 0.747463 0.148791
O O2 0.879293 0.794602 0.250880
O O3 0.000000 0.806515 0.209805
O O4 0.906401 0.000000 0.183253
O O5 0.250000 0.750000 0.574799
O O6 0.118569 0.784893 0.552491
O O7 0.158042 0.805831 0.650259
O O8 0.198287 0.000000 0.581232
O O9 0.000000 0.233420 0.500000
O O10 0.071222 0.000000 0.500000
O O11 0.500000 0.798305 0.083378
O O12 0.587172 0.000000 0.110920
O O13 0.631414 0.793582 0.050313
O O14 0.750000 0.250000 0.000000
O O15 0.804076 0.500000 0.000000
O O16 0.296843 0.500000 0.716168
O O17 0.250000 0.750000 0.726066
#
# Coordination Sequence:
#
# PCOD8272753 Si02
#       6
#    16  16   8  16   8  16
#     4   9  18  32  49  70  95 122 154 192 232 273
#     4   9  17  30  48  68  91 122 157 191 229 275
#     4   9  17  28  45  71  96 117 150 196 238 275
#     4   9  18  34  54  72  92 123 160 192 225 271
#     4  10  21  35  51  73  99 124 152 190 234 276
#     4   9  18  31  47  68  94 124 156 190 230 275
#
# _framework density 17.360849000000002
#
# number of rings (size 3 to 8) (size 9 to 14) (size 15 to 20)
#    0.000    2.900    0.000    0.600    0.000    4.400 
#    0.000    8.000    0.000    4.200    0.000    5.600 
#    0.000    0.000    0.000    0.000    0.000    0.000 
#
# Total GULP energy -496000.838869 kJ/mol
# GULP energy per Si atom -12400.020972 kJ/mol
# Density = 1.732133 g / cm^3
# Si number density = 17.360849 Si / 1000 Ang^3
#
#
#
# Elastic Constant Matrix: (Units=GPa)
#
#
# Indices 1 2 3 4 5 6 
#
# 1 126.4074 49.6369 97.3727 0.0000 0.0000 0.0000
# 2 49.6369 44.6097 53.5820 0.0000 0.0000 0.0000
# 3 97.3727 53.5820 149.2285 0.0000 0.0000 0.0000
# 4 0.0000 0.0000 0.0000 23.3589 0.0000 0.0000
# 5 0.0000 0.0000 0.0000 0.0000 32.7438 0.0000
# 6 0.0000 0.0000 0.0000 0.0000 0.0000 27.6414
#
#
#
# Elastic Compliance Matrix: (Units=1/GPa)
#
#
# Indices 1 2 3 4 5 6 
#
# 1 0.018388 -0.010636 -0.008179 0.000000 0.000000 0.000000
# 2 -0.010636 0.045567 -0.009422 0.000000 0.000000 0.000000
# 3 -0.008179 -0.009422 0.015421 0.000000 0.000000 0.000000
# 4 0.000000 0.000000 0.000000 0.042810 0.000000 0.000000
# 5 0.000000 0.000000 0.000000 0.000000 0.030540 0.000000
# 6 0.000000 0.000000 0.000000 0.000000 0.000000 0.036178
#
#
# Mechanical properties :
#
#
# Convention : Reuss Voigt Hill
#
# Bulk Modulus (GPa) = 43.66203 80.15876 61.91040
# Shear Modulus (GPa) = 19.76190 24.72577 22.24383
#
# Velocity S-wave (km/s) = 3.37753 3.77799 3.58336
# Velocity P-wave (km/s) = 6.35725 8.08104 7.27042
#
# Compressibility (1/GPa) = 0.02290319
#
# Stress axis : x y z
#
# Youngs Moduli (GPa) = 54.38339 21.94555 64.84566
#
# Poissons Ratio (x) = 0.23340 0.53040
# Poissons Ratio (y) = 0.57840 0.61095
# Poissons Ratio (z) = 0.44483 0.20676
#
# Static dielectric constant tensor:
#      x y z
#    x 3.277860 0.000000 0.000000 
#    y 0.000000 3.126930 0.000000 
#    z 0.000000 0.000000 3.405040 
# 
# 
# High freq. dielectric constant tensor:
#      x y z
#    x 1.664900 0.000000 0.000000 
#    y 0.000000 1.655740 0.000000 
#    z 0.000000 0.000000 1.681570 
# 
# From -- ./inp_files/67360.got.cif
#   From: 2010.03.12/outbox.cif.g09.slc.cpg/sg65_34_cif.got.tgz:67360.got - 2010.04.10 20:52:16.
