data_PCOD8272593
_publ_section_title
;
Structure prediction by ZEFSAII (Michael W. Deem and Ramdas Pophale) SiO2 
 PCOD8272593
Probable space group: C M M M
;
_chemical_formula_sum "Si O2"
_cell_formula_units_Z 88
_cell_length_a 18.082459
_cell_length_b 13.908802
_cell_length_c 21.604710
_cell_angle_alpha 90.000000
_cell_angle_beta 90.000000
_cell_angle_gamma 90.000000
_cell_volume 5433.699975
_symmetry_space_group_name_H-M "C M M M"
_symmetry_group_IT_number 65
_symmetry_cell_setting 'orthorhombic'
loop_
_space_group_symop_operation_xyz
x,y,z
-x,-y,z
x,-y,-z
-x,y,-z
-x,-y,-z
x,y,-z
-x,y,z
x,-y,z
1/2+x,1/2+y,z
1/2-x,1/2-y,z
1/2+x,1/2-y,-z
1/2-x,1/2+y,-z
1/2-x,1/2-y,-z
1/2+x,1/2+y,-z
1/2-x,1/2+y,z
1/2+x,1/2-y,z
loop_
_atom_site_type_symbol
_atom_site_label
_atom_site_fract_x
_atom_site_fract_y
_atom_site_fract_z
Si Si1 0.411383 0.108846 0.867339
Si Si2 0.919008 0.614048 0.000000
Si Si3 0.913250 0.713153 0.748467
Si Si4 0.413610 0.609406 0.671836
Si Si5 0.832311 0.774516 0.429556
Si Si6 0.412318 0.107556 0.626894
O O1 0.500000 0.112468 0.870969
O O2 0.378931 0.142858 0.934900
O O3 0.378746 0.179870 0.814228
O O4 0.386108 0.000000 0.851666
O O5 0.927956 0.500000 0.000000
O O6 0.000000 0.662481 0.000000
O O7 0.893427 0.823649 0.731155
O O8 0.883761 0.644459 0.693689
O O9 0.000000 0.698561 0.754129
O O10 0.500000 0.622210 0.654983
O O11 0.394348 0.500000 0.689356
O O12 0.366588 0.641119 0.612324
O O13 0.832494 0.811674 0.500000
O O14 0.750000 0.750000 0.406587
O O15 0.879983 0.676857 0.425633
O O16 0.500000 0.111693 0.622958
O O17 0.382649 0.000000 0.616008
#
# Coordination Sequence:
#
# PCOD8272593 Si02
#       6
#    16   8  16  16  16  16
#     4   8  11  15  26  46  74 106 136 165 198 237
#     4   7  10  14  20  38  71 107 138 163 189 230
#     4   8  13  22  37  56  76 100 133 170 204 238
#     4   9  18  32  48  64  81 104 139 180 213 240
#     4  10  21  34  46  62  84 108 133 162 200 250
#     4   9  17  29  45  64  84 105 131 164 201 242
#
# _framework density 16.195226000000002
#
# number of rings (size 3 to 8) (size 9 to 14) (size 15 to 20)
#    0.000    3.364    0.000    3.273    0.000    5.091 
#    0.000    3.636    0.000    0.000    0.000    0.636 
#    0.000    5.091    0.000   13.091    0.000   48.727 
#
# Total GULP energy -545094.150189 kJ/mol
# GULP energy per Si atom -12388.503413 kJ/mol
# Density = 1.615837 g / cm^3
# Si number density = 16.195226 Si / 1000 Ang^3
#
#
#
# Elastic Constant Matrix: (Units=GPa)
#
#
# Indices 1 2 3 4 5 6 
#
# 1 25.0351 20.0207 21.9569 0.0000 0.0000 0.0000
# 2 20.0207 108.3297 45.2681 0.0000 0.0000 0.0000
# 3 21.9569 45.2681 113.3103 0.0000 0.0000 0.0000
# 4 0.0000 0.0000 0.0000 18.9422 0.0000 0.0000
# 5 0.0000 0.0000 0.0000 0.0000 2.3985 0.0000
# 6 0.0000 0.0000 0.0000 0.0000 0.0000 9.4422
#
#
#
# Elastic Compliance Matrix: (Units=1/GPa)
#
#
# Indices 1 2 3 4 5 6 
#
# 1 0.051604 -0.006432 -0.007430 0.000000 0.000000 0.000000
# 2 -0.006432 0.011883 -0.003501 0.000000 0.000000 0.000000
# 3 -0.007430 -0.003501 0.011664 0.000000 0.000000 0.000000
# 4 0.000000 0.000000 0.000000 0.052792 0.000000 0.000000
# 5 0.000000 0.000000 0.000000 0.000000 0.416924 0.000000
# 6 0.000000 0.000000 0.000000 0.000000 0.000000 0.105907
#
#
# Mechanical properties :
#
#
# Convention : Reuss Voigt Hill
#
# Bulk Modulus (GPa) = 24.73746 46.79628 35.76687
# Shear Modulus (GPa) = 7.15332 16.78521 11.96927
#
# Velocity S-wave (km/s) = 2.10393 3.22285 2.72152
# Velocity P-wave (km/s) = 4.60540 6.54270 5.65759
#
# Compressibility (1/GPa) = 0.04042452
#
# Stress axis : x y z
#
# Youngs Moduli (GPa) = 19.37823 84.15565 85.73647
#
# Poissons Ratio (x) = 0.54132 0.63702
# Poissons Ratio (y) = 0.12465 0.30014
# Poissons Ratio (z) = 0.14398 0.29461
#
# Static dielectric constant tensor:
#      x y z
#    x 2.625700 0.000000 0.000000 
#    y 0.000000 3.068480 0.000000 
#    z 0.000000 0.000000 3.408310 
# 
# 
# High freq. dielectric constant tensor:
#      x y z
#    x 1.568220 0.000000 0.000000 
#    y 0.000000 1.609210 0.000000 
#    z 0.000000 0.000000 1.623690 
# 
# From -- ./inp_files/63747.got.cif
#   From: 2010.03.12/outbox.cif.g09.slc.cpg/sg65_32_cif.got.tgz:63747.got - 2010.04.10 20:52:16.
