data_PCOD8272846
_publ_section_title
;
Structure prediction by ZEFSAII (Michael W. Deem and Ramdas Pophale) SiO2 
 PCOD8272846
Probable space group: C M M M
;
_chemical_formula_sum "Si O2"
_cell_formula_units_Z 88
_cell_length_a 18.826133
_cell_length_b 13.645684
_cell_length_c 17.950920
_cell_angle_alpha 90.000000
_cell_angle_beta 90.000000
_cell_angle_gamma 90.000000
_cell_volume 4611.509884
_symmetry_space_group_name_H-M "C M M M"
_symmetry_group_IT_number 65
_symmetry_cell_setting 'orthorhombic'
loop_
_space_group_symop_operation_xyz
x,y,z
-x,-y,z
x,-y,-z
-x,y,-z
-x,-y,-z
x,y,-z
-x,y,z
x,-y,z
1/2+x,1/2+y,z
1/2-x,1/2-y,z
1/2+x,1/2-y,-z
1/2-x,1/2+y,-z
1/2-x,1/2-y,-z
1/2+x,1/2+y,-z
1/2-x,1/2+y,z
1/2+x,1/2-y,z
loop_
_atom_site_type_symbol
_atom_site_label
_atom_site_fract_x
_atom_site_fract_y
_atom_site_fract_z
Si Si1 0.199956 0.614818 0.678855
Si Si2 0.670463 0.610003 0.415669
Si Si3 0.213135 0.614102 0.150361
Si Si4 0.147222 0.798370 0.087282
Si Si5 0.080884 0.290364 0.415107
Si Si6 0.000000 0.888702 0.088446
O O1 0.205735 0.500000 0.670067
O O2 0.268700 0.658309 0.636282
O O3 0.201863 0.646145 0.764529
O O4 0.126872 0.646556 0.641463
O O5 0.699923 0.611669 0.500000
O O6 0.649559 0.500000 0.391296
O O7 0.600332 0.675727 0.407710
O O8 0.194831 0.500000 0.135910
O O9 0.160043 0.682742 0.102620
O O10 0.294476 0.635097 0.128632
O O11 0.069864 0.831134 0.117176
O O12 0.154587 0.818686 0.000000
O O13 0.093348 0.326394 0.500000
O O14 0.000000 0.304059 0.390854
O O15 0.000000 0.000000 0.119540
O O16 0.000000 0.890407 0.000000
#
# Coordination Sequence:
#
# PCOD8272846 Si02
#       6
#    16  16  16  16  16   8
#     4  10  21  36  54  77 106 142 184 226 273 323
#     4   9  18  33  55  80 105 138 180 224 270 325
#     4  10  21  36  55  82 114 149 187 232 279 328
#     4  10  21  36  59  88 112 146 189 226 277 334
#     4  10  21  35  54  80 108 143 183 227 277 324
#     4   9  18  36  61  87 115 141 173 224 276 326
#
# _framework density 19.082688000000001
#
# number of rings (size 3 to 8) (size 9 to 14) (size 15 to 20)
#    0.000    2.273    0.000    2.727    5.091    5.455 
#    1.636    3.182    0.000    1.636    0.000    0.000 
#    0.000    0.000    0.000    0.000    0.000    0.000 
#
# Total GULP energy -545589.819310 kJ/mol
# GULP energy per Si atom -12399.768621 kJ/mol
# Density = 1.903925 g / cm^3
# Si number density = 19.082688 Si / 1000 Ang^3
#
#
#
# Elastic Constant Matrix: (Units=GPa)
#
#
# Indices 1 2 3 4 5 6 
#
# 1 138.6478 29.9128 46.9737 0.0000 0.0000 0.0000
# 2 29.9128 51.7129 14.9328 0.0000 0.0000 0.0000
# 3 46.9737 14.9328 82.6124 0.0000 0.0000 0.0000
# 4 0.0000 0.0000 0.0000 23.3080 0.0000 0.0000
# 5 0.0000 0.0000 0.0000 0.0000 11.7591 0.0000
# 6 0.0000 0.0000 0.0000 0.0000 0.0000 24.8688
#
#
#
# Elastic Compliance Matrix: (Units=1/GPa)
#
#
# Indices 1 2 3 4 5 6 
#
# 1 0.009749 -0.004261 -0.004773 0.000000 0.000000 0.000000
# 2 -0.004261 0.022265 -0.001602 0.000000 0.000000 0.000000
# 3 -0.004773 -0.001602 0.015108 0.000000 0.000000 0.000000
# 4 0.000000 0.000000 0.000000 0.042904 0.000000 0.000000
# 5 0.000000 0.000000 0.000000 0.000000 0.085041 0.000000
# 6 0.000000 0.000000 0.000000 0.000000 0.000000 0.040211
#
#
# Mechanical properties :
#
#
# Convention : Reuss Voigt Hill
#
# Bulk Modulus (GPa) = 38.68409 50.73464 44.70936
# Shear Modulus (GPa) = 20.39439 24.06410 22.22924
#
# Velocity S-wave (km/s) = 3.27270 3.55497 3.41675
# Velocity P-wave (km/s) = 5.88189 6.59506 6.24866
#
# Compressibility (1/GPa) = 0.02585042
#
# Stress axis : x y z
#
# Youngs Moduli (GPa) = 102.57573 44.91415 66.18909
#
# Poissons Ratio (x) = 0.19137 0.31593
# Poissons Ratio (y) = 0.43706 0.10602
# Poissons Ratio (z) = 0.48960 0.07194
#
# Static dielectric constant tensor:
#      x y z
#    x 3.445720 0.000000 0.000000 
#    y 0.000000 3.557600 0.000000 
#    z 0.000000 0.000000 3.567730 
# 
# 
# High freq. dielectric constant tensor:
#      x y z
#    x 1.730270 0.000000 0.000000 
#    y 0.000000 1.751850 0.000000 
#    z 0.000000 0.000000 1.734500 
# 
# From -- ./inp_files/53037.got.cif
#   From: 2010.03.12/outbox.cif.g09.slc.cpg/sg65_27_cif.got.tgz:53037.got - 2010.04.10 20:52:16.
