data_PCOD8272696
_publ_section_title
;
Structure prediction by ZEFSAII (Michael W. Deem and Ramdas Pophale) SiO2 
 PCOD8272696
Probable space group: C M M M
;
_chemical_formula_sum "Si O2"
_cell_formula_units_Z 88
_cell_length_a 9.757727
_cell_length_b 18.167413
_cell_length_c 28.152919
_cell_angle_alpha 90.000000
_cell_angle_beta 90.000000
_cell_angle_gamma 90.000000
_cell_volume 4990.742735
_symmetry_space_group_name_H-M "C M M M"
_symmetry_group_IT_number 65
_symmetry_cell_setting 'orthorhombic'
loop_
_space_group_symop_operation_xyz
x,y,z
-x,-y,z
x,-y,-z
-x,y,-z
-x,-y,-z
x,y,-z
-x,y,z
x,-y,z
1/2+x,1/2+y,z
1/2-x,1/2-y,z
1/2+x,1/2-y,-z
1/2-x,1/2+y,-z
1/2-x,1/2-y,-z
1/2+x,1/2+y,-z
1/2-x,1/2+y,z
1/2+x,1/2-y,z
loop_
_atom_site_type_symbol
_atom_site_label
_atom_site_fract_x
_atom_site_fract_y
_atom_site_fract_z
Si Si1 0.157635 0.914957 0.592149
Si Si2 0.341923 0.914742 0.136409
Si Si3 0.657766 0.085000 0.320905
Si Si4 0.340338 0.822192 0.228624
Si Si5 0.346066 0.587460 0.052487
Si Si6 0.159550 0.177946 0.500000
O O1 0.250146 0.886633 0.635572
O O2 0.198443 0.869395 0.545914
O O3 0.000000 0.902550 0.606373
O O4 0.187581 0.000000 0.580706
O O5 0.500000 0.904274 0.123235
O O6 0.300976 0.871129 0.183425
O O7 0.255990 0.881197 0.092421
O O8 0.306720 0.000000 0.145666
O O9 0.500000 0.096751 0.335118
O O10 0.698222 0.131444 0.274994
O O11 0.688454 0.000000 0.309217
O O12 0.500000 0.800650 0.228217
O O13 0.250000 0.750000 0.227861
O O14 0.500000 0.613794 0.064541
O O15 0.338656 0.500000 0.052329
O O16 0.303129 0.616546 0.000000
O O17 0.250000 0.250000 0.500000
O O18 0.000000 0.199580 0.500000
#
# Coordination Sequence:
#
# PCOD8272696 Si02
#       6
#    16  16  16  16  16   8
#     4   9  18  34  55  76  98 127 164 203 242 285
#     4   9  17  30  49  71  94 123 160 199 237 280
#     4   9  18  34  55  76  98 126 161 201 244 288
#     4  10  21  35  50  70  98 130 161 196 240 288
#     4   8  14  25  42  67  98 126 152 189 239 288
#     4  10  21  35  51  73 103 136 166 200 242 286
#
# _framework density 17.632646999999999
#
# number of rings (size 3 to 8) (size 9 to 14) (size 15 to 20)
#    0.000    2.909    0.000    1.364    0.000    6.545 
#    0.000    5.455    0.000    8.727    0.000    0.000 
#    0.000    0.000    0.000    0.000    0.000    0.000 
#
# Total GULP energy -545592.479712 kJ/mol
# GULP energy per Si atom -12399.829084 kJ/mol
# Density = 1.759251 g / cm^3
# Si number density = 17.632647 Si / 1000 Ang^3
#
#
#
# Elastic Constant Matrix: (Units=GPa)
#
#
# Indices 1 2 3 4 5 6 
#
# 1 87.9787 55.7348 98.3175 0.0000 0.0000 0.0000
# 2 55.7348 74.0381 72.9976 0.0000 0.0000 0.0000
# 3 98.3175 72.9976 189.7109 0.0000 0.0000 0.0000
# 4 0.0000 0.0000 0.0000 -0.4756 0.0000 0.0000
# 5 0.0000 0.0000 0.0000 0.0000 37.5753 0.0000
# 6 0.0000 0.0000 0.0000 0.0000 0.0000 28.8661
#
#
#
# Elastic Compliance Matrix: (Units=1/GPa)
#
#
# Indices 1 2 3 4 5 6 
#
# 1 0.033278 -0.012966 -0.012257 0.000000 0.000000 0.000000
# 2 -0.012966 0.026815 -0.003598 0.000000 0.000000 0.000000
# 3 -0.012257 -0.003598 0.013008 0.000000 0.000000 0.000000
# 4 0.000000 0.000000 0.000000 -2.102803 0.000000 0.000000
# 5 0.000000 0.000000 0.000000 0.000000 0.026613 0.000000
# 6 0.000000 0.000000 0.000000 0.000000 0.000000 0.034643
#
#
# Mechanical properties :
#
#
# Convention : Reuss Voigt Hill
#
# Bulk Modulus (GPa) = 64.69243 89.53638 77.11441
# Shear Modulus (GPa) = -2.62378 21.50503 9.44062
#
# Velocity S-wave (km/s) = -1.22117 3.49609 2.31639
# Velocity P-wave (km/s) = 5.89748 8.19670 7.14024
#
# Compressibility (1/GPa) = 0.01545776
#
# Stress axis : x y z
#
# Youngs Moduli (GPa) = 30.04976 37.29249 76.87629
#
# Poissons Ratio (x) = 0.48355 0.94228
# Poissons Ratio (y) = 0.38964 0.27661
# Poissons Ratio (z) = 0.36832 0.13418
#
# Static dielectric constant tensor:
#      x y z
#    x 3.325190 0.000000 0.000000 
#    y 0.000000 3.031830 0.000000 
#    z 0.000000 0.000000 3.521950 
# 
# 
# High freq. dielectric constant tensor:
#      x y z
#    x 1.680260 0.000000 0.000000 
#    y 0.000000 1.656810 0.000000 
#    z 0.000000 0.000000 1.694750 
# 
# From -- ./inp_files/68926.got.cif
#   From: 2010.03.12/outbox.cif.g09.slc.cpg/sg65_35_cif.got.tgz:68926.got - 2010.04.10 20:52:16.
