data_PCOD8272552
_publ_section_title
;
Structure prediction by ZEFSAII (Michael W. Deem and Ramdas Pophale) SiO2 
 PCOD8272552
Probable space group: C M M M
;
_chemical_formula_sum "Si O2"
_cell_formula_units_Z 88
_cell_length_a 11.552809
_cell_length_b 15.480042
_cell_length_c 24.746723
_cell_angle_alpha 90.000000
_cell_angle_beta 90.000000
_cell_angle_gamma 90.000000
_cell_volume 4425.653669
_symmetry_space_group_name_H-M "C M M M"
_symmetry_group_IT_number 65
_symmetry_cell_setting 'orthorhombic'
loop_
_space_group_symop_operation_xyz
x,y,z
-x,-y,z
x,-y,-z
-x,y,-z
-x,-y,-z
x,y,-z
-x,y,z
x,-y,z
1/2+x,1/2+y,z
1/2-x,1/2-y,z
1/2+x,1/2-y,-z
1/2-x,1/2+y,-z
1/2-x,1/2-y,-z
1/2+x,1/2+y,-z
1/2-x,1/2+y,z
1/2+x,1/2-y,z
loop_
_atom_site_type_symbol
_atom_site_label
_atom_site_fract_x
_atom_site_fract_y
_atom_site_fract_z
Si Si1 0.500000 0.899246 0.245633
Si Si2 0.500000 0.102190 0.366644
Si Si3 0.135938 0.000000 0.401818
Si Si4 0.757241 0.653718 0.213908
Si Si5 0.134012 0.191318 0.000000
Si Si6 0.288807 0.847232 0.438996
Si Si7 0.367974 0.401573 0.887802
Si Si8 0.136155 0.000000 0.723395
O O1 0.500000 0.858879 0.306012
O O2 0.609036 0.870757 0.210762
O O3 0.500000 0.000000 0.253853
O O4 0.612123 0.135728 0.396437
O O5 0.500000 0.000000 0.367314
O O6 0.184074 0.913585 0.429465
O O7 0.170691 0.000000 0.338992
O O8 0.000000 0.000000 0.410605
O O9 0.750000 0.750000 0.238555
O O10 0.708681 0.654653 0.153048
O O11 0.687984 0.586547 0.250919
O O12 0.250000 0.250000 0.000000
O O13 0.146729 0.131375 0.051806
O O14 0.000000 0.233059 0.000000
O O15 0.335284 0.859757 0.500000
O O16 0.250000 0.750000 0.429383
O O17 0.500000 0.394650 0.868447
O O18 0.324564 0.500000 0.885109
O O19 0.000000 0.000000 0.733424
#
# Coordination Sequence:
#
# PCOD8272552 Si02
#       8
#     8   8   8  16   8  16  16   8
#     4  11  24  43  62  91 133 169 207 268 328 383
#     4  11  23  42  69  91 121 168 217 258 313 385
#     4  11  25  43  65  94 127 167 207 261 326 385
#     4  12  25  41  65  96 128 171 219 268 326 383
#     4  10  21  39  63  99 131 172 218 275 331 391
#     4  11  25  43  66  95 126 162 208 261 318 384
#     4  10  20  39  67  93 128 169 223 272 318 380
#     4  11  24  44  65  90 128 167 217 266 315 390
#
# _framework density 19.884069
#
# number of rings (size 3 to 8) (size 9 to 14) (size 15 to 20)
#    0.000    1.091    2.727    3.000    3.818    5.091 
#    1.636    0.000    0.000    0.545    0.000    0.000 
#    0.000    0.000    0.000    0.000    0.000    0.000 
#
# Total GULP energy -545622.000125 kJ/mol
# GULP energy per Si atom -12400.500003 kJ/mol
# Density = 1.983881 g / cm^3
# Si number density = 19.884069 Si / 1000 Ang^3
#
#
#
# Elastic Constant Matrix: (Units=GPa)
#
#
# Indices 1 2 3 4 5 6 
#
# 1 125.3507 48.8832 48.5794 0.0000 0.0000 0.0000
# 2 48.8832 138.2510 41.5436 0.0000 0.0000 0.0000
# 3 48.5794 41.5436 105.6508 0.0000 0.0000 0.0000
# 4 0.0000 0.0000 0.0000 5.9900 0.0000 0.0000
# 5 0.0000 0.0000 0.0000 0.0000 46.3342 0.0000
# 6 0.0000 0.0000 0.0000 0.0000 0.0000 26.5445
#
#
#
# Elastic Compliance Matrix: (Units=1/GPa)
#
#
# Indices 1 2 3 4 5 6 
#
# 1 0.010445 -0.002551 -0.003799 0.000000 0.000000 0.000000
# 2 -0.002551 0.008826 -0.002297 0.000000 0.000000 0.000000
# 3 -0.003799 -0.002297 0.012115 0.000000 0.000000 0.000000
# 4 0.000000 0.000000 0.000000 0.166944 0.000000 0.000000
# 5 0.000000 0.000000 0.000000 0.000000 0.021582 0.000000
# 6 0.000000 0.000000 0.000000 0.000000 0.000000 0.037673
#
#
# Mechanical properties :
#
#
# Convention : Reuss Voigt Hill
#
# Bulk Modulus (GPa) = 70.97268 71.91829 71.44548
# Shear Modulus (GPa) = 17.88408 31.12352 24.50380
#
# Velocity S-wave (km/s) = 3.00228 3.96061 3.51427
# Velocity P-wave (km/s) = 6.91296 7.56060 7.24402
#
# Compressibility (1/GPa) = 0.01408993
#
# Stress axis : x y z
#
# Youngs Moduli (GPa) = 95.73861 113.30575 82.53904
#
# Poissons Ratio (x) = 0.28910 0.31361
# Poissons Ratio (y) = 0.24428 0.18961
# Poissons Ratio (z) = 0.36376 0.26029
#
# Static dielectric constant tensor:
#      x y z
#    x 3.834570 0.000000 0.000000 
#    y 0.000000 3.343710 0.000000 
#    z 0.000000 0.000000 3.808660 
# 
# 
# High freq. dielectric constant tensor:
#      x y z
#    x 1.784920 0.000000 0.000000 
#    y 0.000000 1.778540 0.000000 
#    z 0.000000 0.000000 1.788380 
# 
# From -- ./inp_files/68970.got.cif
#   From: 2010.03.12/outbox.cif.g09.slc.cpg/sg65_35_cif.got.tgz:68970.got - 2010.04.10 20:52:16.
