data_PCOD8272044
_publ_section_title
;
Structure prediction by ZEFSAII (Michael W. Deem and Ramdas Pophale) SiO2 
 PCOD8272044
Probable space group: C M M M
;
_chemical_formula_sum "Si O2"
_cell_formula_units_Z 72
_cell_length_a 22.382568
_cell_length_b 18.957079
_cell_length_c 9.099144
_cell_angle_alpha 90.000000
_cell_angle_beta 90.000000
_cell_angle_gamma 90.000000
_cell_volume 3860.840591
_symmetry_space_group_name_H-M "C M M M"
_symmetry_group_IT_number 65
_symmetry_cell_setting 'orthorhombic'
loop_
_space_group_symop_operation_xyz
x,y,z
-x,-y,z
x,-y,-z
-x,y,-z
-x,-y,-z
x,y,-z
-x,y,z
x,-y,z
1/2+x,1/2+y,z
1/2-x,1/2-y,z
1/2+x,1/2-y,-z
1/2-x,1/2+y,-z
1/2-x,1/2-y,-z
1/2+x,1/2+y,-z
1/2-x,1/2+y,z
1/2+x,1/2-y,z
loop_
_atom_site_type_symbol
_atom_site_label
_atom_site_fract_x
_atom_site_fract_y
_atom_site_fract_z
Si Si1 0.000000 0.582990 0.830250
Si Si2 0.432168 0.685071 0.168499
Si Si3 0.329562 0.579771 0.172836
Si Si4 0.096308 0.327914 0.670766
Si Si5 0.734417 0.172357 0.670401
O O1 0.940686 0.613095 0.755772
O O2 0.000000 0.500000 0.808883
O O3 0.000000 0.605551 0.000000
O O4 0.500000 0.658625 0.187836
O O5 0.389253 0.621653 0.218621
O O6 0.420247 0.750990 0.272054
O O7 0.419547 0.707259 0.000000
O O8 0.336682 0.500000 0.230248
O O9 0.271492 0.613609 0.245287
O O10 0.319664 0.581715 0.000000
O O11 0.079717 0.330944 0.500000
O O12 0.165410 0.344507 0.698207
O O13 0.751920 0.168869 0.500000
O O14 0.750000 0.250000 0.732907
#
# Coordination Sequence:
#
# PCOD8272044 Si02
#       5
#     8  16  16  16  16
#     4  11  25  43  61  85 120 155 188 235 293 348
#     4  10  20  35  58  86 116 153 195 237 286 344
#     4  10  22  38  57  86 121 155 194 241 290 342
#     4  11  22  37  61  88 115 150 194 242 286 341
#     4  10  21  38  59  85 116 152 195 240 290 346
#
# _framework density 18.648789000000001
#
# number of rings (size 3 to 8) (size 9 to 14) (size 15 to 20)
#    0.000    1.667    3.333    1.000    0.000    4.889 
#    0.000    6.667    0.000    0.000    0.000    3.111 
#    0.000    0.000    0.000    0.000    0.000    0.000 
#
# Total GULP energy -446564.265472 kJ/mol
# GULP energy per Si atom -12404.562930 kJ/mol
# Density = 1.860634 g / cm^3
# Si number density = 18.648789 Si / 1000 Ang^3
#
#
#
# Elastic Constant Matrix: (Units=GPa)
#
#
# Indices 1 2 3 4 5 6 
#
# 1 134.2076 72.4625 59.7384 0.0000 0.0000 0.0000
# 2 72.4625 130.4139 59.1131 0.0000 0.0000 0.0000
# 3 59.7384 59.1131 79.8187 0.0000 0.0000 0.0000
# 4 0.0000 0.0000 0.0000 15.2267 0.0000 0.0000
# 5 0.0000 0.0000 0.0000 0.0000 25.4938 0.0000
# 6 0.0000 0.0000 0.0000 0.0000 0.0000 34.6551
#
#
#
# Elastic Compliance Matrix: (Units=1/GPa)
#
#
# Indices 1 2 3 4 5 6 
#
# 1 0.012453 -0.004056 -0.006316 0.000000 0.000000 0.000000
# 2 -0.004056 0.012864 -0.006491 0.000000 0.000000 0.000000
# 3 -0.006316 -0.006491 0.022063 0.000000 0.000000 0.000000
# 4 0.000000 0.000000 0.000000 0.065674 0.000000 0.000000
# 5 0.000000 0.000000 0.000000 0.000000 0.039225 0.000000
# 6 0.000000 0.000000 0.000000 0.000000 0.000000 0.028856
#
#
# Mechanical properties :
#
#
# Convention : Reuss Voigt Hill
#
# Bulk Modulus (GPa) = 73.24545 80.78534 77.01539
# Shear Modulus (GPa) = 22.78825 25.28352 24.03588
#
# Velocity S-wave (km/s) = 3.49946 3.68608 3.59398
# Velocity P-wave (km/s) = 7.46256 7.84408 7.65570
#
# Compressibility (1/GPa) = 0.01365273
#
# Stress axis : x y z
#
# Youngs Moduli (GPa) = 80.30512 77.73652 45.32576
#
# Poissons Ratio (x) = 0.31532 0.28626
# Poissons Ratio (y) = 0.32574 0.29421
# Poissons Ratio (z) = 0.50718 0.50460
#
# Static dielectric constant tensor:
#      x y z
#    x 4.025810 0.000000 0.000000 
#    y 0.000000 3.458420 0.000000 
#    z 0.000000 0.000000 3.469610 
# 
# 
# High freq. dielectric constant tensor:
#      x y z
#    x 1.740070 0.000000 0.000000 
#    y 0.000000 1.720910 0.000000 
#    z 0.000000 0.000000 1.723800 
# 
# From -- ./inp_files/9221.got.cif
#   From: 2010.03.12/outbox.cif.g09.slc.cpg/sg65_5_cif.got.tgz:9221.got - 2010.04.10 20:52:16.
