data_PCOD8272688
_publ_section_title
;
Structure prediction by ZEFSAII (Michael W. Deem and Ramdas Pophale) SiO2 
 PCOD8272688
Probable space group: C M M M
;
_chemical_formula_sum "Si O2"
_cell_formula_units_Z 88
_cell_length_a 18.313158
_cell_length_b 9.329874
_cell_length_c 28.543869
_cell_angle_alpha 90.000000
_cell_angle_beta 90.000000
_cell_angle_gamma 90.000000
_cell_volume 4876.989949
_symmetry_space_group_name_H-M "C M M M"
_symmetry_group_IT_number 65
_symmetry_cell_setting 'orthorhombic'
loop_
_space_group_symop_operation_xyz
x,y,z
-x,-y,z
x,-y,-z
-x,y,-z
-x,-y,-z
x,y,-z
-x,y,z
x,-y,z
1/2+x,1/2+y,z
1/2-x,1/2-y,z
1/2+x,1/2-y,-z
1/2-x,1/2+y,-z
1/2-x,1/2-y,-z
1/2+x,1/2+y,-z
1/2-x,1/2+y,z
1/2+x,1/2-y,z
loop_
_atom_site_type_symbol
_atom_site_label
_atom_site_fract_x
_atom_site_fract_y
_atom_site_fract_z
Si Si1 0.086910 0.162365 0.410764
Si Si2 0.415239 0.165377 0.320731
Si Si3 0.416291 0.831830 0.139614
Si Si4 0.825397 0.668430 0.770795
Si Si5 0.412870 0.162932 0.500000
Si Si6 0.586769 0.661588 0.051342
O O1 0.114256 0.237448 0.363217
O O2 0.117297 0.253305 0.454562
O O3 0.000000 0.161816 0.412279
O O4 0.117289 0.000000 0.413082
O O5 0.500000 0.194574 0.310415
O O6 0.371514 0.210477 0.274759
O O7 0.402428 0.000000 0.334331
O O8 0.500000 0.784516 0.147813
O O9 0.370351 0.779016 0.184061
O O10 0.382188 0.760590 0.092864
O O11 0.410419 0.000000 0.132622
O O12 0.810484 0.500000 0.772926
O O13 0.750000 0.750000 0.769045
O O14 0.500000 0.161321 0.500000
O O15 0.382963 0.000000 0.500000
O O16 0.500000 0.669016 0.051554
O O17 0.613573 0.500000 0.060491
O O18 0.614973 0.713895 0.000000
#
# Coordination Sequence:
#
# PCOD8272688 Si02
#       6
#    16  16  16  16   8  16
#     4   9  16  25  39  63  94 123 152 191 236 276
#     4   9  17  31  50  69  91 122 159 195 232 277
#     4   9  17  30  49  72  96 123 157 195 233 274
#     4  10  21  35  50  69  94 124 157 195 238 282
#     4   9  15  23  37  59  90 127 160 187 224 277
#     4   8  14  25  42  67  98 126 151 184 229 278
#
# _framework density 18.043918000000001
#
# number of rings (size 3 to 8) (size 9 to 14) (size 15 to 20)
#    0.000    3.000    0.000    1.909    0.000    7.273 
#    0.000    1.818    0.000    6.000    0.000    0.636 
#    0.000    0.000    0.000    0.000    0.000    0.000 
#
# Total GULP energy -545490.861355 kJ/mol
# GULP energy per Si atom -12397.519576 kJ/mol
# Density = 1.800285 g / cm^3
# Si number density = 18.043918 Si / 1000 Ang^3
#
#
#
# Elastic Constant Matrix: (Units=GPa)
#
#
# Indices 1 2 3 4 5 6 
#
# 1 47.7578 33.0777 51.0939 0.0000 0.0000 0.0000
# 2 33.0777 94.6853 89.1932 0.0000 0.0000 0.0000
# 3 51.0939 89.1932 200.3328 0.0000 0.0000 0.0000
# 4 0.0000 0.0000 0.0000 33.2934 0.0000 0.0000
# 5 0.0000 0.0000 0.0000 0.0000 0.6674 0.0000
# 6 0.0000 0.0000 0.0000 0.0000 0.0000 19.4978
#
#
#
# Elastic Compliance Matrix: (Units=1/GPa)
#
#
# Indices 1 2 3 4 5 6 
#
# 1 0.030501 -0.005731 -0.005228 0.000000 0.000000 0.000000
# 2 -0.005731 0.019267 -0.007117 0.000000 0.000000 0.000000
# 3 -0.005228 -0.007117 0.009493 0.000000 0.000000 0.000000
# 4 0.000000 0.000000 0.000000 0.030036 0.000000 0.000000
# 5 0.000000 0.000000 0.000000 0.000000 1.498328 0.000000
# 6 0.000000 0.000000 0.000000 0.000000 0.000000 0.051288
#
#
# Mechanical properties :
#
#
# Convention : Reuss Voigt Hill
#
# Bulk Modulus (GPa) = 43.26867 76.61173 59.94020
# Shear Modulus (GPa) = 2.97130 21.98579 12.47854
#
# Velocity S-wave (km/s) = 1.28463 3.49443 2.63262
# Velocity P-wave (km/s) = 5.12173 7.67021 6.52166
#
# Compressibility (1/GPa) = 0.02311141
#
# Stress axis : x y z
#
# Youngs Moduli (GPa) = 32.78569 51.90176 105.33600
#
# Poissons Ratio (x) = 0.29745 0.55065
# Poissons Ratio (y) = 0.18790 0.74963
# Poissons Ratio (z) = 0.17139 0.36936
#
# Static dielectric constant tensor:
#      x y z
#    x 2.811770 0.000000 0.000000 
#    y 0.000000 3.394770 0.000000 
#    z 0.000000 0.000000 3.709400 
# 
# 
# High freq. dielectric constant tensor:
#      x y z
#    x 1.639310 0.000000 0.000000 
#    y 0.000000 1.697810 0.000000 
#    z 0.000000 0.000000 1.718900 
# 
# From -- ./inp_files/77860.got.cif
#   From: 2010.03.12/outbox.cif.g09.slc.cpg/sg65_39_cif.got.tgz:77860.got - 2010.04.10 20:52:16.
