data_PCOD8272631
_publ_section_title
;
Structure prediction by ZEFSAII (Michael W. Deem and Ramdas Pophale) SiO2 
 PCOD8272631
Probable space group: C M M M
;
_chemical_formula_sum "Si O2"
_cell_formula_units_Z 112
_cell_length_a 25.467110
_cell_length_b 14.974633
_cell_length_c 15.272841
_cell_angle_alpha 90.000000
_cell_angle_beta 90.000000
_cell_angle_gamma 90.000000
_cell_volume 5824.460202
_symmetry_space_group_name_H-M "C M M M"
_symmetry_group_IT_number 65
_symmetry_cell_setting 'orthorhombic'
loop_
_space_group_symop_operation_xyz
x,y,z
-x,-y,z
x,-y,-z
-x,y,-z
-x,-y,-z
x,y,-z
-x,y,z
x,-y,z
1/2+x,1/2+y,z
1/2-x,1/2-y,z
1/2+x,1/2-y,-z
1/2-x,1/2+y,-z
1/2-x,1/2-y,-z
1/2+x,1/2+y,-z
1/2-x,1/2+y,z
1/2+x,1/2-y,z
loop_
_atom_site_type_symbol
_atom_site_label
_atom_site_fract_x
_atom_site_fract_y
_atom_site_fract_z
Si Si1 0.245009 0.393628 0.903059
Si Si2 0.586293 0.730228 0.597975
Si Si3 0.441884 0.102487 0.699049
Si Si4 0.637424 0.393916 0.097935
Si Si5 0.302698 0.199800 0.598019
Si Si6 0.559500 0.397559 0.753954
Si Si7 0.833674 0.397557 0.236403
O O1 0.243243 0.500000 0.902840
O O2 0.303719 0.363091 0.875615
O O3 0.201822 0.349109 0.837703
O O4 0.231727 0.357619 0.000000
O O5 0.567888 0.704698 0.500000
O O6 0.563674 0.829453 0.618090
O O7 0.649476 0.729952 0.603980
O O8 0.564276 0.657680 0.664732
O O9 0.500000 0.113014 0.741817
O O10 0.395928 0.127680 0.769317
O O11 0.433628 0.000000 0.666117
O O12 0.633310 0.500000 0.097110
O O13 0.596925 0.356112 0.170487
O O14 0.623371 0.358494 0.000000
O O15 0.298925 0.159001 0.500000
O O16 0.250000 0.250000 0.624286
O O17 0.311832 0.120745 0.666600
O O18 0.500000 0.390431 0.788554
O O19 0.574599 0.500000 0.733027
O O20 0.826027 0.500000 0.217002
#
# Coordination Sequence:
#
# PCOD8272631 Si02
#       7
#    16  16  16  16  16  16  16
#     4   8  14  26  47  75 102 128 163 206 252 306
#     4  10  21  36  53  74 104 141 175 210 258 307
#     4   9  18  33  53  77 101 128 172 222 262 305
#     4   8  15  29  49  73 101 133 171 217 263 301
#     4   9  19  34  49  69  98 131 166 205 250 301
#     4  10  21  34  50  76 107 140 179 215 247 298
#     4   9  17  29  50  76  98 128 162 202 258 304
#
# _framework density 19.229248999999999
#
# number of rings (size 3 to 8) (size 9 to 14) (size 15 to 20)
#    0.000    3.000    0.000    1.286    2.000    2.286 
#    0.000    5.714    0.000    6.857    0.000    3.000 
#    0.000    0.000    0.000    0.000    0.000    0.143 
#
# Total GULP energy -693863.998015 kJ/mol
# GULP energy per Si atom -12390.428536 kJ/mol
# Density = 1.918548 g / cm^3
# Si number density = 19.229249 Si / 1000 Ang^3
#
#
#
# Elastic Constant Matrix: (Units=GPa)
#
#
# Indices 1 2 3 4 5 6 
#
# 1 158.7700 27.5931 79.9423 0.0000 0.0000 0.0000
# 2 27.5931 42.6975 30.8033 0.0000 0.0000 0.0000
# 3 79.9423 30.8033 135.9516 0.0000 0.0000 0.0000
# 4 0.0000 0.0000 0.0000 11.2852 0.0000 0.0000
# 5 0.0000 0.0000 0.0000 0.0000 23.1740 0.0000
# 6 0.0000 0.0000 0.0000 0.0000 0.0000 14.5215
#
#
#
# Elastic Compliance Matrix: (Units=1/GPa)
#
#
# Indices 1 2 3 4 5 6 
#
# 1 0.009154 -0.002430 -0.004832 0.000000 0.000000 0.000000
# 2 -0.002430 0.028642 -0.005061 0.000000 0.000000 0.000000
# 3 -0.004832 -0.005061 0.011344 0.000000 0.000000 0.000000
# 4 0.000000 0.000000 0.000000 0.088612 0.000000 0.000000
# 5 0.000000 0.000000 0.000000 0.000000 0.043152 0.000000
# 6 0.000000 0.000000 0.000000 0.000000 0.000000 0.068863
#
#
# Mechanical properties :
#
#
# Convention : Reuss Voigt Hill
#
# Bulk Modulus (GPa) = 40.82633 68.23293 54.52963
# Shear Modulus (GPa) = 17.69438 23.06817 20.38128
#
# Velocity S-wave (km/s) = 3.03674 3.46734 3.25916
# Velocity P-wave (km/s) = 5.79424 7.18268 6.52549
#
# Compressibility (1/GPa) = 0.02449399
#
# Stress axis : x y z
#
# Youngs Moduli (GPa) = 109.24613 34.91411 88.15563
#
# Poissons Ratio (x) = 0.08482 0.42597
# Poissons Ratio (y) = 0.26542 0.44615
# Poissons Ratio (z) = 0.52788 0.17670
#
# Static dielectric constant tensor:
#      x y z
#    x 3.908680 0.000000 0.000000 
#    y 0.000000 3.163690 0.000000 
#    z 0.000000 0.000000 3.588570 
# 
# 
# High freq. dielectric constant tensor:
#      x y z
#    x 1.764270 0.000000 0.000000 
#    y 0.000000 1.717660 0.000000 
#    z 0.000000 0.000000 1.732490 
# 
# From -- ./inp_files/47058.got.cif
#   From: 2010.03.12/outbox.cif.g09.slc.cpg/sg65_24_cif.got.tgz:47058.got - 2010.04.10 20:52:16.
