data_PCOD8272996
_publ_section_title
;
Structure prediction by ZEFSAII (Michael W. Deem and Ramdas Pophale) SiO2 
 PCOD8272996
Probable space group: C M M M
;
_chemical_formula_sum "Si O2"
_cell_formula_units_Z 112
_cell_length_a 29.172429
_cell_length_b 15.474432
_cell_length_c 12.863859
_cell_angle_alpha 90.000000
_cell_angle_beta 90.000000
_cell_angle_gamma 90.000000
_cell_volume 5807.090303
_symmetry_space_group_name_H-M "C M M M"
_symmetry_group_IT_number 65
_symmetry_cell_setting 'orthorhombic'
loop_
_space_group_symop_operation_xyz
x,y,z
-x,-y,z
x,-y,-z
-x,y,-z
-x,-y,-z
x,y,-z
-x,y,z
x,-y,z
1/2+x,1/2+y,z
1/2-x,1/2-y,z
1/2+x,1/2-y,-z
1/2-x,1/2+y,-z
1/2-x,1/2-y,-z
1/2+x,1/2+y,-z
1/2-x,1/2+y,z
1/2+x,1/2-y,z
loop_
_atom_site_type_symbol
_atom_site_label
_atom_site_fract_x
_atom_site_fract_y
_atom_site_fract_z
Si Si1 0.685560 0.603467 0.744201
Si Si2 0.139792 0.595968 0.736817
Si Si3 0.050415 0.195193 0.235098
Si Si4 0.948424 0.641739 0.622318
Si Si5 0.638152 0.739047 0.120870
Si Si6 0.728508 0.898855 0.385738
Si Si7 0.600760 0.401378 0.611511
O O1 0.683156 0.500000 0.772370
O O2 0.674164 0.664937 0.842810
O O3 0.734552 0.633625 0.699099
O O4 0.648752 0.632346 0.657613
O O5 0.150680 0.500000 0.782888
O O6 0.090319 0.586423 0.680823
O O7 0.143453 0.666929 0.826989
O O8 0.177435 0.623261 0.651695
O O9 0.055162 0.264682 0.326772
O O10 0.086043 0.207890 0.141735
O O11 0.061237 0.109528 0.301617
O O12 0.000000 0.191724 0.184859
O O13 0.937831 0.645887 0.500000
O O14 0.000000 0.603548 0.640806
O O15 0.646002 0.752586 0.000000
O O16 0.735912 0.856330 0.500000
O O17 0.736207 0.000000 0.396942
O O18 0.590935 0.354799 0.500000
O O19 0.606070 0.500000 0.587375
#
# Coordination Sequence:
#
# PCOD8272996 Si02
#       7
#    16  16  16  16  16  16  16
#     4   9  18  34  55  79 106 135 172 214 252 298
#     4  10  21  36  53  77 108 137 171 215 257 302
#     4   9  18  32  49  71  99 130 170 218 260 304
#     4   9  17  30  50  75 104 139 172 203 249 310
#     4  10  22  39  57  75  97 132 177 222 267 308
#     4   9  17  32  56  83 112 144 171 200 246 303
#     4   9  16  26  44  72 106 141 170 199 244 305
#
# _framework density 19.286769
#
# number of rings (size 3 to 8) (size 9 to 14) (size 15 to 20)
#    0.000    2.714    0.000    1.286    0.000    5.429 
#    0.000    5.714    0.000    2.571    0.000    8.000 
#    0.000    0.000    0.000    0.000    0.000    0.000 
#
# Total GULP energy -693748.557541 kJ/mol
# GULP energy per Si atom -12388.367099 kJ/mol
# Density = 1.924287 g / cm^3
# Si number density = 19.286769 Si / 1000 Ang^3
#
#
#
# Elastic Constant Matrix: (Units=GPa)
#
#
# Indices 1 2 3 4 5 6 
#
# 1 122.2656 32.8945 50.2845 0.0000 0.0000 0.0000
# 2 32.8945 38.8955 47.1620 0.0000 0.0000 0.0000
# 3 50.2845 47.1620 126.7971 0.0000 0.0000 0.0000
# 4 0.0000 0.0000 0.0000 18.2342 0.0000 0.0000
# 5 0.0000 0.0000 0.0000 0.0000 17.1383 0.0000
# 6 0.0000 0.0000 0.0000 0.0000 0.0000 21.0432
#
#
#
# Elastic Compliance Matrix: (Units=1/GPa)
#
#
# Indices 1 2 3 4 5 6 
#
# 1 0.010765 -0.007154 -0.001608 0.000000 0.000000 0.000000
# 2 -0.007154 0.051585 -0.016350 0.000000 0.000000 0.000000
# 3 -0.001608 -0.016350 0.014606 0.000000 0.000000 0.000000
# 4 0.000000 0.000000 0.000000 0.054842 0.000000 0.000000
# 5 0.000000 0.000000 0.000000 0.000000 0.058349 0.000000
# 6 0.000000 0.000000 0.000000 0.000000 0.000000 0.047521
#
#
# Mechanical properties :
#
#
# Convention : Reuss Voigt Hill
#
# Bulk Modulus (GPa) = 37.40923 60.96003 49.18463
# Shear Modulus (GPa) = 16.84622 21.79096 19.31859
#
# Velocity S-wave (km/s) = 2.95864 3.36496 3.16832
# Velocity P-wave (km/s) = 5.57762 6.83908 6.24031
#
# Compressibility (1/GPa) = 0.02673137
#
# Stress axis : x y z
#
# Youngs Moduli (GPa) = 92.89273 19.38548 68.46678
#
# Poissons Ratio (x) = 0.13869 0.11010
# Poissons Ratio (y) = 0.66458 1.11941
# Poissons Ratio (z) = 0.14938 0.31695
#
# Static dielectric constant tensor:
#      x y z
#    x 3.703700 0.000000 0.000000 
#    y 0.000000 3.463170 0.000000 
#    z 0.000000 0.000000 4.023240 
# 
# 
# High freq. dielectric constant tensor:
#      x y z
#    x 1.757140 0.000000 0.000000 
#    y 0.000000 1.741820 0.000000 
#    z 0.000000 0.000000 1.721510 
# 
# From -- ./inp_files/25552.got.cif
#   From: 2010.03.12/outbox.cif.g09.slc.cpg/sg65_13_cif.got.tgz:25552.got - 2010.04.10 20:52:16.
