data_PCOD8272736
_publ_section_title
;
Structure prediction by ZEFSAII (Michael W. Deem and Ramdas Pophale) SiO2 
 PCOD8272736
Probable space group: C M M M
;
_chemical_formula_sum "Si O2"
_cell_formula_units_Z 96
_cell_length_a 9.206708
_cell_length_b 18.610950
_cell_length_c 30.660067
_cell_angle_alpha 90.000000
_cell_angle_beta 90.000000
_cell_angle_gamma 90.000000
_cell_volume 5253.467032
_symmetry_space_group_name_H-M "C M M M"
_symmetry_group_IT_number 65
_symmetry_cell_setting 'orthorhombic'
loop_
_space_group_symop_operation_xyz
x,y,z
-x,-y,z
x,-y,-z
-x,y,-z
-x,-y,-z
x,y,-z
-x,y,z
x,-y,z
1/2+x,1/2+y,z
1/2-x,1/2-y,z
1/2+x,1/2-y,-z
1/2-x,1/2+y,-z
1/2-x,1/2-y,-z
1/2+x,1/2+y,-z
1/2-x,1/2+y,z
1/2+x,1/2-y,z
loop_
_atom_site_type_symbol
_atom_site_label
_atom_site_fract_x
_atom_site_fract_y
_atom_site_fract_z
Si Si1 0.171154 0.917996 0.631260
Si Si2 0.668871 0.322492 0.949281
Si Si3 0.828816 0.174501 0.713174
Si Si4 0.663735 0.085354 0.452294
Si Si5 0.334996 0.084939 0.117305
Si Si6 0.331880 0.583180 0.202872
O O1 0.226308 0.870015 0.671362
O O2 0.236600 0.884737 0.586686
O O3 0.000000 0.915028 0.626834
O O4 0.223467 0.000000 0.639087
O O5 0.500000 0.315219 0.937279
O O6 0.750000 0.250000 0.935492
O O7 0.741189 0.387031 0.923012
O O8 0.691467 0.339582 0.000000
O O9 0.750000 0.250000 0.714614
O O10 0.784693 0.129257 0.755578
O O11 0.000000 0.187363 0.711101
O O12 0.717859 0.113211 0.500000
O O13 0.500000 0.112027 0.444079
O O14 0.670443 0.000000 0.452280
O O15 0.500000 0.113749 0.114843
O O16 0.264117 0.111047 0.162548
O O17 0.329963 0.000000 0.114325
O O18 0.500000 0.594936 0.190842
O O19 0.300949 0.500000 0.213710
#
# Coordination Sequence:
#
# PCOD8272736 Si02
#       6
#    16  16  16  16  16  16
#     4   9  17  30  49  72  97 126 162 202 243 289
#     4  10  21  37  57  80 107 141 180 219 259 306
#     4  10  21  35  51  73 100 130 164 204 250 298
#     4   8  14  25  42  67  98 127 156 194 241 291
#     4  10  21  36  55  81 111 140 172 213 259 306
#     4   9  18  35  57  76  98 132 172 211 252 300
#
# _framework density 18.273647
#
# number of rings (size 3 to 8) (size 9 to 14) (size 15 to 20)
#    0.000    2.667    0.000    2.000    0.000    6.667 
#    0.000    5.000    0.000    5.500    0.000    0.000 
#    0.000    0.000    0.000    0.000    0.000    0.000 
#
# Total GULP energy -595182.325588 kJ/mol
# GULP energy per Si atom -12399.631783 kJ/mol
# Density = 1.823206 g / cm^3
# Si number density = 18.273647 Si / 1000 Ang^3
#
#
#
# Elastic Constant Matrix: (Units=GPa)
#
#
# Indices 1 2 3 4 5 6 
#
# 1 84.1889 38.3894 67.2130 0.0000 0.0000 0.0000
# 2 38.3894 62.2306 55.8669 0.0000 0.0000 0.0000
# 3 67.2130 55.8669 139.2410 0.0000 0.0000 0.0000
# 4 0.0000 0.0000 0.0000 7.3344 0.0000 0.0000
# 5 0.0000 0.0000 0.0000 0.0000 32.3680 0.0000
# 6 0.0000 0.0000 0.0000 0.0000 0.0000 29.0692
#
#
#
# Elastic Compliance Matrix: (Units=1/GPa)
#
#
# Indices 1 2 3 4 5 6 
#
# 1 0.020632 -0.005919 -0.007585 0.000000 0.000000 0.000000
# 2 -0.005919 0.026814 -0.007901 0.000000 0.000000 0.000000
# 3 -0.007585 -0.007901 0.014013 0.000000 0.000000 0.000000
# 4 0.000000 0.000000 0.000000 0.136344 0.000000 0.000000
# 5 0.000000 0.000000 0.000000 0.000000 0.030895 0.000000
# 6 0.000000 0.000000 0.000000 0.000000 0.000000 0.034401
#
#
# Mechanical properties :
#
#
# Convention : Reuss Voigt Hill
#
# Bulk Modulus (GPa) = 53.61993 67.62212 60.62102
# Shear Modulus (GPa) = 16.01925 22.03373 19.02649
#
# Velocity S-wave (km/s) = 2.96401 3.47618 3.23026
# Velocity P-wave (km/s) = 6.41251 7.29365 6.86723
#
# Compressibility (1/GPa) = 0.01864978
#
# Stress axis : x y z
#
# Youngs Moduli (GPa) = 48.46794 37.29415 71.36161
#
# Poissons Ratio (x) = 0.22074 0.54125
# Poissons Ratio (y) = 0.28687 0.56385
# Poissons Ratio (z) = 0.36761 0.29467
#
# Static dielectric constant tensor:
#      x y z
#    x 3.428700 0.000000 0.000000 
#    y 0.000000 3.119410 0.000000 
#    z 0.000000 0.000000 3.647930 
# 
# 
# High freq. dielectric constant tensor:
#      x y z
#    x 1.707160 0.000000 0.000000 
#    y 0.000000 1.682010 0.000000 
#    z 0.000000 0.000000 1.722550 
# 
# From -- ./inp_files/73105.got.cif
#   From: 2010.03.12/outbox.cif.g09.slc.cpg/sg65_37_cif.got.tgz:73105.got - 2010.04.10 20:52:16.
