data_PCOD8272386
_publ_section_title
;
Structure prediction by ZEFSAII (Michael W. Deem and Ramdas Pophale) SiO2 
 PCOD8272386
Probable space group: C M M M
;
_chemical_formula_sum "Si O2"
_cell_formula_units_Z 96
_cell_length_a 24.352698
_cell_length_b 22.662126
_cell_length_c 9.050891
_cell_angle_alpha 90.000000
_cell_angle_beta 90.000000
_cell_angle_gamma 90.000000
_cell_volume 4995.041119
_symmetry_space_group_name_H-M "C M M M"
_symmetry_group_IT_number 65
_symmetry_cell_setting 'orthorhombic'
loop_
_space_group_symop_operation_xyz
x,y,z
-x,-y,z
x,-y,-z
-x,y,-z
-x,-y,-z
x,y,-z
-x,y,z
x,-y,z
1/2+x,1/2+y,z
1/2-x,1/2-y,z
1/2+x,1/2-y,-z
1/2-x,1/2+y,-z
1/2-x,1/2-y,-z
1/2+x,1/2+y,-z
1/2-x,1/2+y,z
1/2+x,1/2-y,z
loop_
_atom_site_type_symbol
_atom_site_label
_atom_site_fract_x
_atom_site_fract_y
_atom_site_fract_z
Si Si1 0.696945 0.891463 0.175017
Si Si2 0.095868 0.565373 0.330892
Si Si3 0.811604 0.270796 0.331147
Si Si4 0.500000 0.724588 0.830777
Si Si5 0.616589 0.324578 0.828252
Si Si6 0.500000 0.850043 0.675467
Si Si7 0.814734 0.934602 0.174476
O O1 0.651249 0.936143 0.234583
O O2 0.679243 0.827821 0.232874
O O3 0.756768 0.910179 0.237073
O O4 0.696769 0.891143 0.000000
O O5 0.111076 0.580033 0.500000
O O6 0.069318 0.500000 0.319183
O O7 0.053434 0.614180 0.268579
O O8 0.826829 0.285058 0.500000
O O9 0.750000 0.250000 0.313647
O O10 0.851567 0.220830 0.273027
O O11 0.447862 0.683182 0.796050
O O12 0.500000 0.783802 0.735196
O O13 0.500000 0.745444 0.000000
O O14 0.635723 0.390509 0.781448
O O15 0.630984 0.312948 0.000000
O O16 0.500000 0.847791 0.500000
O O17 0.826698 0.000000 0.240386
O O18 0.809607 0.939199 0.000000
#
# Coordination Sequence:
#
# PCOD8272386 Si02
#       7
#    16  16  16   8  16   8  16
#     4  11  21  34  55  82 113 147 186 225 273 331
#     4  10  21  37  56  79 110 148 189 231 274 323
#     4  11  22  35  54  82 114 143 182 230 277 329
#     4  10  22  37  56  83 110 140 181 234 281 326
#     4  10  20  37  58  81 112 146 183 224 276 330
#     4  10  21  38  58  77 103 145 191 228 273 332
#     4   9  18  33  54  79 108 143 180 218 265 326
#
# _framework density 19.219059999999999
#
# number of rings (size 3 to 8) (size 9 to 14) (size 15 to 20)
#    0.000    1.833    1.667    2.750    0.000    6.667 
#    0.000    0.417    0.000    5.500    0.000    0.000 
#    0.000    2.000    0.000    0.000    0.000    0.000 
#
# Total GULP energy -595198.567559 kJ/mol
# GULP energy per Si atom -12399.970157 kJ/mol
# Density = 1.917532 g / cm^3
# Si number density = 19.219060 Si / 1000 Ang^3
#
#
#
# Elastic Constant Matrix: (Units=GPa)
#
#
# Indices 1 2 3 4 5 6 
#
# 1 141.2138 67.0209 37.3836 0.0000 0.0000 0.0000
# 2 67.0209 131.6737 21.4965 0.0000 0.0000 0.0000
# 3 37.3836 21.4965 47.7732 0.0000 0.0000 0.0000
# 4 0.0000 0.0000 0.0000 2.1969 0.0000 0.0000
# 5 0.0000 0.0000 0.0000 0.0000 28.0697 0.0000
# 6 0.0000 0.0000 0.0000 0.0000 0.0000 29.9323
#
#
#
# Elastic Compliance Matrix: (Units=1/GPa)
#
#
# Indices 1 2 3 4 5 6 
#
# 1 0.010952 -0.004507 -0.006543 0.000000 0.000000 0.000000
# 2 -0.004507 0.010051 -0.000996 0.000000 0.000000 0.000000
# 3 -0.006543 -0.000996 0.026500 0.000000 0.000000 0.000000
# 4 0.000000 0.000000 0.000000 0.455195 0.000000 0.000000
# 5 0.000000 0.000000 0.000000 0.000000 0.035626 0.000000
# 6 0.000000 0.000000 0.000000 0.000000 0.000000 0.033409
#
#
# Mechanical properties :
#
#
# Convention : Reuss Voigt Hill
#
# Bulk Modulus (GPa) = 42.71156 63.60696 53.15926
# Shear Modulus (GPa) = 8.28325 25.02376 16.65350
#
# Velocity S-wave (km/s) = 2.07829 3.61228 2.94685
# Velocity P-wave (km/s) = 5.29441 7.11096 6.26883
#
# Compressibility (1/GPa) = 0.02341287
#
# Stress axis : x y z
#
# Youngs Moduli (GPa) = 91.30492 99.49308 37.73550
#
# Poissons Ratio (x) = 0.44837 0.24689
# Poissons Ratio (y) = 0.41147 0.03759
# Poissons Ratio (z) = 0.59737 0.09911
#
# Static dielectric constant tensor:
#      x y z
#    x 3.583630 0.000000 0.000000 
#    y 0.000000 3.659970 0.000000 
#    z 0.000000 0.000000 3.320560 
# 
# 
# High freq. dielectric constant tensor:
#      x y z
#    x 1.749450 0.000000 0.000000 
#    y 0.000000 1.754770 0.000000 
#    z 0.000000 0.000000 1.725400 
# 
# From -- ./inp_files/14349.got.cif
#   From: 2010.03.12/outbox.cif.g09.slc.cpg/sg65_8_cif.got.tgz:14349.got - 2010.04.10 20:52:16.
