data_PCOD8272236
_publ_section_title
;
Structure prediction by ZEFSAII (Michael W. Deem and Ramdas Pophale) SiO2 
 PCOD8272236
Probable space group: C M M M
;
_chemical_formula_sum "Si O2"
_cell_formula_units_Z 72
_cell_length_a 18.550962
_cell_length_b 8.795957
_cell_length_c 22.805985
_cell_angle_alpha 90.000000
_cell_angle_beta 90.000000
_cell_angle_gamma 90.000000
_cell_volume 3721.331574
_symmetry_space_group_name_H-M "C M M M"
_symmetry_group_IT_number 65
_symmetry_cell_setting 'orthorhombic'
loop_
_space_group_symop_operation_xyz
x,y,z
-x,-y,z
x,-y,-z
-x,y,-z
-x,-y,-z
x,y,-z
-x,y,z
x,-y,z
1/2+x,1/2+y,z
1/2-x,1/2-y,z
1/2+x,1/2-y,-z
1/2-x,1/2+y,-z
1/2-x,1/2-y,-z
1/2+x,1/2+y,-z
1/2-x,1/2+y,z
1/2+x,1/2-y,z
loop_
_atom_site_type_symbol
_atom_site_label
_atom_site_fract_x
_atom_site_fract_y
_atom_site_fract_z
Si Si1 0.326006 0.677868 0.283828
Si Si2 0.328673 0.178431 0.500000
Si Si3 0.415105 0.671851 0.065938
Si Si4 0.583288 0.676672 0.396698
Si Si5 0.825883 0.677873 0.162853
O O1 0.313796 0.500000 0.274505
O O2 0.250000 0.750000 0.303333
O O3 0.386058 0.711937 0.332413
O O4 0.354650 0.749915 0.223400
O O5 0.250000 0.250000 0.500000
O O6 0.372594 0.225677 0.442830
O O7 0.318257 0.000000 0.500000
O O8 0.500000 0.688560 0.070419
O O9 0.391569 0.500000 0.082041
O O10 0.381082 0.790468 0.110728
O O11 0.389368 0.711268 0.000000
O O12 0.500000 0.726039 0.398242
O O13 0.592216 0.500000 0.412891
O O14 0.816718 0.500000 0.172030
O O15 0.750000 0.750000 0.145109
#
# Coordination Sequence:
#
# PCOD8272236 Si02
#       5
#    16   8  16  16  16
#     4  10  20  36  58  82 110 147 189 231 277 330
#     4  12  25  40  61  87 115 151 191 232 279 330
#     4   9  19  37  59  81 108 144 184 227 278 336
#     4  10  22  40  61  86 117 151 186 228 278 330
#     4  11  22  36  56  82 113 148 186 231 279 328
#
# _framework density 19.347912999999998
#
# number of rings (size 3 to 8) (size 9 to 14) (size 15 to 20)
#    0.000    1.778    0.000    6.667    0.000    7.556 
#    0.000    3.333    0.000    0.000    0.000    0.000 
#    0.000    0.000    0.000    0.000    0.000    0.000 
#
# Total GULP energy -446522.544705 kJ/mol
# GULP energy per Si atom -12403.404020 kJ/mol
# Density = 1.930388 g / cm^3
# Si number density = 19.347913 Si / 1000 Ang^3
#
#
#
# Elastic Constant Matrix: (Units=GPa)
#
#
# Indices 1 2 3 4 5 6 
#
# 1 111.9397 58.8434 73.2953 0.0000 0.0000 0.0000
# 2 58.8434 133.1667 70.3764 0.0000 0.0000 0.0000
# 3 73.2953 70.3764 129.4647 0.0000 0.0000 0.0000
# 4 0.0000 0.0000 0.0000 26.4305 0.0000 0.0000
# 5 0.0000 0.0000 0.0000 0.0000 113.3355 0.0000
# 6 0.0000 0.0000 0.0000 0.0000 0.0000 31.6257
#
#
#
# Elastic Compliance Matrix: (Units=1/GPa)
#
#
# Indices 1 2 3 4 5 6 
#
# 1 0.015006 -0.003004 -0.006862 0.000000 0.000000 0.000000
# 2 -0.003004 0.011138 -0.004354 0.000000 0.000000 0.000000
# 3 -0.006862 -0.004354 0.013976 0.000000 0.000000 0.000000
# 4 0.000000 0.000000 0.000000 0.037835 0.000000 0.000000
# 5 0.000000 0.000000 0.000000 0.000000 0.008823 0.000000
# 6 0.000000 0.000000 0.000000 0.000000 0.000000 0.031620
#
#
# Mechanical properties :
#
#
# Convention : Reuss Voigt Hill
#
# Bulk Modulus (GPa) = 85.62340 86.62237 86.12289
# Shear Modulus (GPa) = 33.17167 45.74874 39.46020
#
# Velocity S-wave (km/s) = 4.14512 4.86792 4.52099
# Velocity P-wave (km/s) = 8.20122 8.74435 8.47714
#
# Compressibility (1/GPa) = 0.01167905
#
# Stress axis : x y z
#
# Youngs Moduli (GPa) = 66.64049 89.78556 71.55205
#
# Poissons Ratio (x) = 0.26972 0.49102
# Poissons Ratio (y) = 0.20019 0.31151
# Poissons Ratio (z) = 0.45732 0.39089
#
# Static dielectric constant tensor:
#      x y z
#    x 3.479280 0.000000 0.000000 
#    y 0.000000 3.645240 0.000000 
#    z 0.000000 0.000000 3.665160 
# 
# 
# High freq. dielectric constant tensor:
#      x y z
#    x 1.750740 0.000000 0.000000 
#    y 0.000000 1.756640 0.000000 
#    z 0.000000 0.000000 1.766500 
# 
# From -- ./inp_files/59289.got.cif
#   From: 2010.03.12/outbox.cif.g09.slc.cpg/sg65_30_cif.got.tgz:59289.got - 2010.04.10 20:52:16.
