data_PCOD8272507
_publ_section_title
;
Structure prediction by ZEFSAII (Michael W. Deem and Ramdas Pophale) SiO2 
 PCOD8272507
Probable space group: C M M M
;
_chemical_formula_sum "Si O2"
_cell_formula_units_Z 120
_cell_length_a 19.195169
_cell_length_b 24.841164
_cell_length_c 13.375340
_cell_angle_alpha 90.000000
_cell_angle_beta 90.000000
_cell_angle_gamma 90.000000
_cell_volume 6377.767935
_symmetry_space_group_name_H-M "C M M M"
_symmetry_group_IT_number 65
_symmetry_cell_setting 'orthorhombic'
loop_
_space_group_symop_operation_xyz
x,y,z
-x,-y,z
x,-y,-z
-x,y,-z
-x,-y,-z
x,y,-z
-x,y,z
x,-y,z
1/2+x,1/2+y,z
1/2-x,1/2-y,z
1/2+x,1/2-y,-z
1/2-x,1/2+y,-z
1/2-x,1/2-y,-z
1/2+x,1/2+y,-z
1/2-x,1/2+y,z
1/2+x,1/2-y,z
loop_
_atom_site_type_symbol
_atom_site_label
_atom_site_fract_x
_atom_site_fract_y
_atom_site_fract_z
Si Si1 0.919671 0.300384 0.113355
Si Si2 0.917782 0.094397 0.241921
Si Si3 0.581883 0.500000 0.610787
Si Si4 0.326369 0.876876 0.763812
Si Si5 0.579979 0.283249 0.721506
Si Si6 0.706954 0.563150 0.114836
Si Si7 0.815764 0.286763 0.391317
Si Si8 0.577673 0.936611 0.611431
O O1 0.874853 0.350528 0.151951
O O2 0.904173 0.245009 0.172107
O O3 0.000000 0.317326 0.124064
O O4 0.898530 0.288335 0.000000
O O5 0.895424 0.053929 0.330880
O O6 0.897323 0.154549 0.274876
O O7 0.872013 0.078588 0.145603
O O8 0.000000 0.089272 0.214746
O O9 0.500000 0.500000 0.598748
O O10 0.616607 0.500000 0.500000
O O11 0.261999 0.906387 0.815377
O O12 0.297574 0.831419 0.690153
O O13 0.370812 0.917515 0.697315
O O14 0.500000 0.279175 0.692167
O O15 0.619010 0.250592 0.635959
O O16 0.719298 0.500000 0.128354
O O17 0.717552 0.580562 0.000000
O O18 0.831715 0.312837 0.500000
O O19 0.750000 0.250000 0.398677
O O20 0.602307 0.918553 0.500000
O O21 0.500000 0.913199 0.631361
O O22 0.575158 0.000000 0.617055
#
# Coordination Sequence:
#
# PCOD8272507 Si02
#       8
#    16  16   8  16  16  16  16  16
#     4   9  18  33  53  79 109 140 179 222 266 322
#     4  10  20  38  61  83 112 147 185 231 284 340
#     4   9  18  34  57  83 109 139 175 216 266 327
#     4  11  20  35  56  77 107 146 184 225 277 332
#     4   9  19  34  55  83 111 142 178 222 273 324
#     4  11  24  39  56  80 110 144 188 242 296 342
#     4  10  21  36  53  76 108 144 180 219 264 320
#     4   9  18  33  54  81 111 142 178 222 272 328
#
# _framework density 18.815359999999998
#
# number of rings (size 3 to 8) (size 9 to 14) (size 15 to 20)
#    0.000    2.200    0.667    2.800    0.000    2.133 
#    0.000    4.667    0.000    4.400    0.000    5.600 
#    0.000    0.000    0.000    0.000    0.000    0.000 
#
# Total GULP energy -743863.151845 kJ/mol
# GULP energy per Si atom -12397.719197 kJ/mol
# Density = 1.877254 g / cm^3
# Si number density = 18.815360 Si / 1000 Ang^3
#
#
#
# Elastic Constant Matrix: (Units=GPa)
#
#
# Indices 1 2 3 4 5 6 
#
# 1 81.3439 45.2324 65.1109 0.0000 0.0000 0.0000
# 2 45.2324 100.1117 53.3687 0.0000 0.0000 0.0000
# 3 65.1109 53.3687 138.3824 0.0000 0.0000 0.0000
# 4 0.0000 0.0000 0.0000 -12.7386 0.0000 0.0000
# 5 0.0000 0.0000 0.0000 0.0000 33.0525 0.0000
# 6 0.0000 0.0000 0.0000 0.0000 0.0000 27.0266
#
#
#
# Elastic Compliance Matrix: (Units=1/GPa)
#
#
# Indices 1 2 3 4 5 6 
#
# 1 0.021922 -0.005546 -0.008175 0.000000 0.000000 0.000000
# 2 -0.005546 0.013977 -0.002781 0.000000 0.000000 0.000000
# 3 -0.008175 -0.002781 0.012145 0.000000 0.000000 0.000000
# 4 0.000000 0.000000 0.000000 -0.078502 0.000000 0.000000
# 5 0.000000 0.000000 0.000000 0.000000 0.030255 0.000000
# 6 0.000000 0.000000 0.000000 0.000000 0.000000 0.037001
#
#
# Mechanical properties :
#
#
# Convention : Reuss Voigt Hill
#
# Bulk Modulus (GPa) = 66.49349 71.91802 69.20575
# Shear Modulus (GPa) = 66.83044 19.87650 43.35347
#
# Velocity S-wave (km/s) = 5.96625 3.25375 4.80537
# Velocity P-wave (km/s) = 9.10375 7.24030 8.22497
#
# Compressibility (1/GPa) = 0.01503907
#
# Stress axis : x y z
#
# Youngs Moduli (GPa) = 45.61728 71.54488 82.33537
#
# Poissons Ratio (x) = 0.39681 0.67312
# Poissons Ratio (y) = 0.25301 0.22896
# Poissons Ratio (z) = 0.37294 0.19895
#
# Static dielectric constant tensor:
#      x y z
#    x 3.413060 0.000000 0.000000 
#    y 0.000000 3.678250 0.000000 
#    z 0.000000 0.000000 3.660990 
# 
# 
# High freq. dielectric constant tensor:
#      x y z
#    x 1.728260 0.000000 0.000000 
#    y 0.000000 1.736540 0.000000 
#    z 0.000000 0.000000 1.733320 
# 
# From -- ./inp_files/29428.got.cif
#   From: 2010.03.12/outbox.cif.g09.slc.cpg/sg65_15_cif.got.tgz:29428.got - 2010.04.10 20:52:16.
