data_PCOD8272204
_publ_section_title
;
Structure prediction by ZEFSAII (Michael W. Deem and Ramdas Pophale) SiO2 
 PCOD8272204
Probable space group: C M M M
;
_chemical_formula_sum "Si O2"
_cell_formula_units_Z 104
_cell_length_a 8.011047
_cell_length_b 25.933663
_cell_length_c 27.757577
_cell_angle_alpha 90.000000
_cell_angle_beta 90.000000
_cell_angle_gamma 90.000000
_cell_volume 5766.797426
_symmetry_space_group_name_H-M "C M M M"
_symmetry_group_IT_number 65
_symmetry_cell_setting 'orthorhombic'
loop_
_space_group_symop_operation_xyz
x,y,z
-x,-y,z
x,-y,-z
-x,y,-z
-x,-y,-z
x,y,-z
-x,y,z
x,-y,z
1/2+x,1/2+y,z
1/2-x,1/2-y,z
1/2+x,1/2-y,-z
1/2-x,1/2+y,-z
1/2-x,1/2-y,-z
1/2+x,1/2+y,-z
1/2-x,1/2+y,z
1/2+x,1/2-y,z
loop_
_atom_site_type_symbol
_atom_site_label
_atom_site_fract_x
_atom_site_fract_y
_atom_site_fract_z
Si Si1 0.200323 0.000000 0.282095
Si Si2 0.803217 0.194686 0.721996
Si Si3 0.189565 0.000000 0.388226
Si Si4 0.191412 0.060810 0.881342
Si Si5 0.802922 0.903431 0.776871
Si Si6 0.803193 0.194014 0.386951
Si Si7 0.192584 0.402499 0.446148
Si Si8 0.500000 0.061091 0.053796
O O1 0.279485 0.000000 0.336011
O O2 0.272080 0.050076 0.254696
O O3 0.000000 0.000000 0.280590
O O4 0.750000 0.250000 0.743149
O O5 0.728011 0.150265 0.756477
O O6 0.734602 0.187503 0.667599
O O7 0.000000 0.191013 0.720717
O O8 0.222575 0.051228 0.417974
O O9 0.000000 0.000000 0.373484
O O10 0.243823 0.090273 0.832735
O O11 0.327939 0.079335 0.920539
O O12 0.000000 0.074543 0.897440
O O13 0.203847 0.000000 0.871468
O O14 0.000000 0.903730 0.771003
O O15 0.750000 0.250000 0.406840
O O16 0.717718 0.151627 0.420036
O O17 0.000000 0.186705 0.389662
O O18 0.268808 0.399275 0.500000
O O19 0.000000 0.415968 0.448945
O O20 0.500000 0.000000 0.051658
O O21 0.500000 0.084599 0.000000
#
# Coordination Sequence:
#
# PCOD8272204 Si02
#       8
#     8  16   8  16  16  16  16   8
#     4   9  16  28  50  77  98 125 164 198 245 303
#     4   9  18  32  49  71 100 133 164 199 247 302
#     4  11  22  36  57  80 102 130 167 210 250 308
#     4   9  16  28  47  68  97 138 175 212 260 306
#     4   9  15  27  48  71  98 132 166 202 244 299
#     4  10  20  36  58  80 102 129 163 206 254 310
#     4  11  24  40  56  73  99 133 165 207 259 306
#     4   9  18  30  44  66 102 140 176 222 256 299
#
# _framework density 18.034274
#
# number of rings (size 3 to 8) (size 9 to 14) (size 15 to 20)
#    0.000    2.385    0.769    2.308    0.000    5.846 
#    1.385    1.538    3.385    0.000    0.000    0.000 
#    0.000    0.615    0.308    0.000    0.000    0.000 
#
# Total GULP energy -644639.088088 kJ/mol
# GULP energy per Si atom -12396.905540 kJ/mol
# Density = 1.799323 g / cm^3
# Si number density = 18.034274 Si / 1000 Ang^3
#
#
#
# Elastic Constant Matrix: (Units=GPa)
#
#
# Indices 1 2 3 4 5 6 
#
# 1 51.8301 13.8632 38.8927 0.0000 0.0000 0.0000
# 2 13.8632 119.8584 68.6069 0.0000 0.0000 0.0000
# 3 38.8927 68.6069 140.1581 0.0000 0.0000 0.0000
# 4 0.0000 0.0000 0.0000 33.8836 0.0000 0.0000
# 5 0.0000 0.0000 0.0000 0.0000 19.4270 0.0000
# 6 0.0000 0.0000 0.0000 0.0000 0.0000 22.3880
#
#
#
# Elastic Compliance Matrix: (Units=1/GPa)
#
#
# Indices 1 2 3 4 5 6 
#
# 1 0.024554 0.001473 -0.007534 0.000000 0.000000 0.000000
# 2 0.001473 0.011679 -0.006126 0.000000 0.000000 0.000000
# 3 -0.007534 -0.006126 0.012224 0.000000 0.000000 0.000000
# 4 0.000000 0.000000 0.000000 0.029513 0.000000 0.000000
# 5 0.000000 0.000000 0.000000 0.000000 0.051475 0.000000
# 6 0.000000 0.000000 0.000000 0.000000 0.000000 0.044667
#
#
# Mechanical properties :
#
#
# Convention : Reuss Voigt Hill
#
# Bulk Modulus (GPa) = 41.52424 61.61912 51.57168
# Shear Modulus (GPa) = 24.21161 27.83865 26.02513
#
# Velocity S-wave (km/s) = 3.66803 3.93320 3.80293
# Velocity P-wave (km/s) = 6.40425 7.40734 6.92398
#
# Compressibility (1/GPa) = 0.02408232
#
# Stress axis : x y z
#
# Youngs Moduli (GPa) = 40.72732 85.62301 81.80681
#
# Poissons Ratio (x) = -0.12610 0.61635
# Poissons Ratio (y) = -0.05998 0.50111
# Poissons Ratio (z) = 0.30685 0.52449
#
# Static dielectric constant tensor:
#      x y z
#    x 3.215640 0.000000 0.000000 
#    y 0.000000 3.424870 0.000000 
#    z 0.000000 0.000000 3.457000 
# 
# 
# High freq. dielectric constant tensor:
#      x y z
#    x 1.689300 0.000000 0.000000 
#    y 0.000000 1.683390 0.000000 
#    z 0.000000 0.000000 1.686860 
# 
# From -- ./inp_files/73857.got.cif
#   From: 2010.03.12/outbox.cif.g09.slc.cpg/sg65_37_cif.got.tgz:73857.got - 2010.04.10 20:52:16.
