data_PCOD8272529
_publ_section_title
;
Structure prediction by ZEFSAII (Michael W. Deem and Ramdas Pophale) SiO2 
 PCOD8272529
Probable space group: C M M M
;
_chemical_formula_sum "Si O2"
_cell_formula_units_Z 104
_cell_length_a 32.373755
_cell_length_b 18.316375
_cell_length_c 8.797900
_cell_angle_alpha 90.000000
_cell_angle_beta 90.000000
_cell_angle_gamma 90.000000
_cell_volume 5216.889327
_symmetry_space_group_name_H-M "C M M M"
_symmetry_group_IT_number 65
_symmetry_cell_setting 'orthorhombic'
loop_
_space_group_symop_operation_xyz
x,y,z
-x,-y,z
x,-y,-z
-x,y,-z
-x,-y,-z
x,y,-z
-x,y,z
x,-y,z
1/2+x,1/2+y,z
1/2-x,1/2-y,z
1/2+x,1/2-y,-z
1/2-x,1/2+y,-z
1/2-x,1/2-y,-z
1/2+x,1/2+y,-z
1/2-x,1/2+y,z
1/2+x,1/2-y,z
loop_
_atom_site_type_symbol
_atom_site_label
_atom_site_fract_x
_atom_site_fract_y
_atom_site_fract_z
Si Si1 0.737029 0.416120 0.176593
Si Si2 0.500000 0.582284 0.819080
Si Si3 0.106967 0.416696 0.823364
Si Si4 0.578793 0.671865 0.179659
Si Si5 0.665577 0.332833 0.321269
Si Si6 0.547636 0.815585 0.677021
Si Si7 0.684823 0.179208 0.178640
O O1 0.749405 0.500000 0.207211
O O2 0.696950 0.396589 0.274726
O O3 0.774461 0.364383 0.229100
O O4 0.726867 0.403352 0.000000
O O5 0.500000 0.500000 0.755896
O O6 0.459055 0.622774 0.757498
O O7 0.500000 0.583553 0.000000
O O8 0.117296 0.500000 0.785536
O O9 0.067489 0.392742 0.723869
O O10 0.146038 0.369315 0.772328
O O11 0.096585 0.405854 0.000000
O O12 0.621451 0.645063 0.251459
O O13 0.571278 0.755171 0.225194
O O14 0.582583 0.665989 0.000000
O O15 0.660699 0.328874 0.500000
O O16 0.683186 0.256088 0.262674
O O17 0.553929 0.799538 0.500000
O O18 0.500000 0.816925 0.722867
O O19 0.684825 0.194700 0.000000
#
# Coordination Sequence:
#
# PCOD8272529 Si02
#       7
#    16   8  16  16  16  16  16
#     4  10  22  41  64  89 119 158 203 250 301 356
#     4   9  20  38  63  95 122 147 192 253 309 358
#     4  10  21  37  60  90 121 156 202 252 300 353
#     4  11  21  38  64  90 117 155 203 252 301 355
#     4  12  25  39  59  90 126 161 201 246 300 364
#     4  11  23  38  58  85 121 161 200 244 299 360
#     4  10  20  38  64  91 119 155 203 253 300 353
#
# _framework density 19.935252999999999
#
# number of rings (size 3 to 8) (size 9 to 14) (size 15 to 20)
#    0.000    1.462    2.308    3.231    0.000    6.769 
#    0.000    3.077    0.000    6.000    0.000    0.000 
#    0.000    0.000    0.000    0.000    0.000    0.000 
#
# Total GULP energy -645076.846158 kJ/mol
# GULP energy per Si atom -12405.323965 kJ/mol
# Density = 1.988988 g / cm^3
# Si number density = 19.935253 Si / 1000 Ang^3
#
#
#
# Elastic Constant Matrix: (Units=GPa)
#
#
# Indices 1 2 3 4 5 6 
#
# 1 132.8965 33.2420 41.4284 0.0000 0.0000 0.0000
# 2 33.2420 86.3176 21.1944 0.0000 0.0000 0.0000
# 3 41.4284 21.1944 64.6373 0.0000 0.0000 0.0000
# 4 0.0000 0.0000 0.0000 7.8627 0.0000 0.0000
# 5 0.0000 0.0000 0.0000 0.0000 23.0123 0.0000
# 6 0.0000 0.0000 0.0000 0.0000 0.0000 28.9010
#
#
#
# Elastic Compliance Matrix: (Units=1/GPa)
#
#
# Indices 1 2 3 4 5 6 
#
# 1 0.009855 -0.002441 -0.005516 0.000000 0.000000 0.000000
# 2 -0.002441 0.013204 -0.002765 0.000000 0.000000 0.000000
# 3 -0.005516 -0.002765 0.019913 0.000000 0.000000 0.000000
# 4 0.000000 0.000000 0.000000 0.127183 0.000000 0.000000
# 5 0.000000 0.000000 0.000000 0.000000 0.043455 0.000000
# 6 0.000000 0.000000 0.000000 0.000000 0.000000 0.034601
#
#
# Mechanical properties :
#
#
# Convention : Reuss Voigt Hill
#
# Bulk Modulus (GPa) = 46.45115 52.84232 49.64674
# Shear Modulus (GPa) = 18.06162 24.48764 21.27463
#
# Velocity S-wave (km/s) = 3.01327 3.50860 3.27033
# Velocity P-wave (km/s) = 5.95466 6.55578 6.26244
#
# Compressibility (1/GPa) = 0.02152799
#
# Stress axis : x y z
#
# Youngs Moduli (GPa) = 101.47476 75.73424 50.21848
#
# Poissons Ratio (x) = 0.18485 0.27700
# Poissons Ratio (y) = 0.24768 0.13886
# Poissons Ratio (z) = 0.55972 0.20942
#
# Static dielectric constant tensor:
#      x y z
#    x 3.844360 0.000000 0.000000 
#    y 0.000000 3.640340 0.000000 
#    z 0.000000 0.000000 3.436010 
# 
# 
# High freq. dielectric constant tensor:
#      x y z
#    x 1.793520 0.000000 0.000000 
#    y 0.000000 1.779150 0.000000 
#    z 0.000000 0.000000 1.761930 
# 
# From -- ./inp_files/16472.got.cif
#   From: 2010.03.12/outbox.cif.g09.slc.cpg/sg65_9_cif.got.tgz:16472.got - 2010.04.10 20:52:16.
