data_PCOD8272754
_publ_section_title
;
Structure prediction by ZEFSAII (Michael W. Deem and Ramdas Pophale) SiO2 
 PCOD8272754
Probable space group: C M M M
;
_chemical_formula_sum "Si O2"
_cell_formula_units_Z 88
_cell_length_a 19.439758
_cell_length_b 9.146830
_cell_length_c 27.745619
_cell_angle_alpha 90.000000
_cell_angle_beta 90.000000
_cell_angle_gamma 90.000000
_cell_volume 4933.508491
_symmetry_space_group_name_H-M "C M M M"
_symmetry_group_IT_number 65
_symmetry_cell_setting 'orthorhombic'
loop_
_space_group_symop_operation_xyz
x,y,z
-x,-y,z
x,-y,-z
-x,y,-z
-x,-y,-z
x,y,-z
-x,y,z
x,-y,z
1/2+x,1/2+y,z
1/2-x,1/2-y,z
1/2+x,1/2-y,-z
1/2-x,1/2+y,-z
1/2-x,1/2-y,-z
1/2+x,1/2+y,-z
1/2-x,1/2+y,z
1/2+x,1/2-y,z
loop_
_atom_site_type_symbol
_atom_site_label
_atom_site_fract_x
_atom_site_fract_y
_atom_site_fract_z
Si Si1 0.180946 0.830877 0.556616
Si Si2 0.819075 0.669955 0.291938
Si Si3 0.081880 0.339585 0.000000
Si Si4 0.576665 0.175062 0.896822
Si Si5 0.680629 0.172300 0.183009
Si Si6 0.420497 0.171207 0.624207
O O1 0.170956 0.809765 0.500000
O O2 0.250000 0.750000 0.574672
O O3 0.114115 0.760723 0.581053
O O4 0.187379 0.000000 0.571108
O O5 0.802289 0.500000 0.294930
O O6 0.750000 0.750000 0.309507
O O7 0.839674 0.716040 0.237623
O O8 0.882854 0.712788 0.325868
O O9 0.103272 0.262070 0.050803
O O10 0.115834 0.500000 0.000000
O O11 0.000000 0.354581 0.000000
O O12 0.500000 0.232435 0.886208
O O13 0.622998 0.233262 0.853195
O O14 0.577133 0.000000 0.899323
O O15 0.750000 0.250000 0.167143
O O16 0.690332 0.000000 0.177888
O O17 0.500000 0.217856 0.628671
O O18 0.413362 0.000000 0.612720
#
# Coordination Sequence:
#
# PCOD8272754 Si02
#       6
#    16  16   8  16  16  16
#     4  10  21  37  57  79 102 130 165 201 235 277
#     4   9  18  32  49  68  91 122 158 193 230 276
#     4   7  10  18  33  56  85 111 140 183 228 266
#     4   8  13  22  39  62  85 112 148 188 227 267
#     4   9  17  29  45  65  90 119 150 187 231 277
#     4  10  21  35  51  74 103 131 159 196 242 286
#
# _framework density 17.837204
#
# number of rings (size 3 to 8) (size 9 to 14) (size 15 to 20)
#    0.000    3.000    0.000    2.182    0.000    4.727 
#    0.000    5.909    0.000    0.545    0.000    5.091 
#    0.000    2.182    0.000    0.000    0.000    0.000 
#
# Total GULP energy -545353.827411 kJ/mol
# GULP energy per Si atom -12394.405168 kJ/mol
# Density = 1.779661 g / cm^3
# Si number density = 17.837204 Si / 1000 Ang^3
#
#
#
# Elastic Constant Matrix: (Units=GPa)
#
#
# Indices 1 2 3 4 5 6 
#
# 1 141.8529 45.3759 81.4407 0.0000 0.0000 0.0000
# 2 45.3759 41.2748 39.8620 0.0000 0.0000 0.0000
# 3 81.4407 39.8620 107.8274 0.0000 0.0000 0.0000
# 4 0.0000 0.0000 0.0000 11.1006 0.0000 0.0000
# 5 0.0000 0.0000 0.0000 0.0000 34.5286 0.0000
# 6 0.0000 0.0000 0.0000 0.0000 0.0000 25.5707
#
#
#
# Elastic Compliance Matrix: (Units=1/GPa)
#
#
# Indices 1 2 3 4 5 6 
#
# 1 0.013975 -0.008040 -0.007583 0.000000 0.000000 0.000000
# 2 -0.008040 0.042307 -0.009568 0.000000 0.000000 0.000000
# 3 -0.007583 -0.009568 0.018538 0.000000 0.000000 0.000000
# 4 0.000000 0.000000 0.000000 0.090086 0.000000 0.000000
# 5 0.000000 0.000000 0.000000 0.000000 0.028961 0.000000
# 6 0.000000 0.000000 0.000000 0.000000 0.000000 0.039107
#
#
# Mechanical properties :
#
#
# Convention : Reuss Voigt Hill
#
# Bulk Modulus (GPa) = 40.91799 69.36805 55.14302
# Shear Modulus (GPa) = 17.15256 22.52507 19.83881
#
# Velocity S-wave (km/s) = 3.10436 3.55746 3.33861
# Velocity P-wave (km/s) = 5.98656 7.47315 6.77078
#
# Compressibility (1/GPa) = 0.02443913
#
# Stress axis : x y z
#
# Youngs Moduli (GPa) = 71.55713 23.63670 53.94293
#
# Poissons Ratio (x) = 0.19005 0.40903
# Poissons Ratio (y) = 0.57534 0.51610
# Poissons Ratio (z) = 0.54259 0.22614
#
# Static dielectric constant tensor:
#      x y z
#    x 3.281800 0.000000 0.000000 
#    y 0.000000 3.001650 0.000000 
#    z 0.000000 0.000000 3.670400 
# 
# 
# High freq. dielectric constant tensor:
#      x y z
#    x 1.675550 0.000000 0.000000 
#    y 0.000000 1.655140 0.000000 
#    z 0.000000 0.000000 1.708170 
# 
# From -- ./inp_files/77985.got.cif
#   From: 2010.03.12/outbox.cif.g09.slc.cpg/sg65_39_cif.got.tgz:77985.got - 2010.04.10 20:52:16.
