data_PCOD8272911
_publ_section_title
;
Structure prediction by ZEFSAII (Michael W. Deem and Ramdas Pophale) SiO2 
 PCOD8272911
Probable space group: C M M M
;
_chemical_formula_sum "Si O2"
_cell_formula_units_Z 88
_cell_length_a 8.990810
_cell_length_b 18.380315
_cell_length_c 28.562752
_cell_angle_alpha 90.000000
_cell_angle_beta 90.000000
_cell_angle_gamma 90.000000
_cell_volume 4720.106731
_symmetry_space_group_name_H-M "C M M M"
_symmetry_group_IT_number 65
_symmetry_cell_setting 'orthorhombic'
loop_
_space_group_symop_operation_xyz
x,y,z
-x,-y,z
x,-y,-z
-x,y,-z
-x,-y,-z
x,y,-z
-x,y,z
x,-y,z
1/2+x,1/2+y,z
1/2-x,1/2-y,z
1/2+x,1/2-y,-z
1/2-x,1/2+y,-z
1/2-x,1/2-y,-z
1/2+x,1/2+y,-z
1/2-x,1/2+y,z
1/2+x,1/2-y,z
loop_
_atom_site_type_symbol
_atom_site_label
_atom_site_fract_x
_atom_site_fract_y
_atom_site_fract_z
Si Si1 0.172980 0.826220 0.500000
Si Si2 0.823437 0.328367 0.772758
Si Si3 0.823451 0.419021 0.861691
Si Si4 0.826453 0.915175 0.690847
Si Si5 0.174834 0.674673 0.947416
Si Si6 0.174225 0.172384 0.399050
O O1 0.250000 0.750000 0.500000
O O2 0.216629 0.863843 0.549799
O O3 0.000000 0.811257 0.500000
O O4 0.750000 0.250000 0.769873
O O5 0.766029 0.368281 0.819692
O O6 0.773702 0.376443 0.729229
O O7 0.000000 0.319457 0.772119
O O8 0.755531 0.500000 0.856361
O O9 0.768894 0.386491 0.911296
O O10 0.000000 0.423304 0.860306
O O11 0.776300 0.884550 0.640395
O O12 0.000000 0.899920 0.700829
O O13 0.789931 0.000000 0.691649
O O14 0.250000 0.750000 0.933385
O O15 0.000000 0.686633 0.943071
O O16 0.219779 0.650369 0.000000
O O17 0.250000 0.250000 0.390546
O O18 0.000000 0.187177 0.395858
#
# Coordination Sequence:
#
# PCOD8272911 Si02
#       6
#     8  16  16  16  16  16
#     4   8  14  26  45  69  95 123 159 200 241 286
#     4  11  22  36  55  76  99 130 168 208 250 297
#     4   9  18  32  50  74 102 129 161 203 247 292
#     4  10  21  36  52  73 103 134 165 205 251 297
#     4   9  17  30  50  74  99 129 164 202 243 287
#     4   9  17  30  49  72  97 127 163 203 245 289
#
# _framework density 18.643646
#
# number of rings (size 3 to 8) (size 9 to 14) (size 15 to 20)
#    0.000    2.545    0.000    2.182    0.000    3.636 
#    0.000    3.182    0.000    5.455    0.000    2.545 
#    0.000    8.727    0.000    0.000    0.000    0.000 
#
# Total GULP energy -545342.718268 kJ/mol
# GULP energy per Si atom -12394.152688 kJ/mol
# Density = 1.860121 g / cm^3
# Si number density = 18.643646 Si / 1000 Ang^3
#
#
#
# Elastic Constant Matrix: (Units=GPa)
#
#
# Indices 1 2 3 4 5 6 
#
# 1 32.0560 32.8332 34.5916 0.0000 0.0000 0.0000
# 2 32.8332 132.4239 82.3031 0.0000 0.0000 0.0000
# 3 34.5916 82.3031 165.7251 0.0000 0.0000 0.0000
# 4 0.0000 0.0000 0.0000 17.8624 0.0000 0.0000
# 5 0.0000 0.0000 0.0000 0.0000 20.0100 0.0000
# 6 0.0000 0.0000 0.0000 0.0000 0.0000 18.8355
#
#
#
# Elastic Compliance Matrix: (Units=1/GPa)
#
#
# Indices 1 2 3 4 5 6 
#
# 1 0.045128 -0.007716 -0.005587 0.000000 0.000000 0.000000
# 2 -0.007716 0.012242 -0.004469 0.000000 0.000000 0.000000
# 3 -0.005587 -0.004469 0.009420 0.000000 0.000000 0.000000
# 4 0.000000 0.000000 0.000000 0.055984 0.000000 0.000000
# 5 0.000000 0.000000 0.000000 0.000000 0.049975 0.000000
# 6 0.000000 0.000000 0.000000 0.000000 0.000000 0.053091
#
#
# Mechanical properties :
#
#
# Convention : Reuss Voigt Hill
#
# Bulk Modulus (GPa) = 32.00578 69.96231 50.98404
# Shear Modulus (GPa) = 18.39579 23.37337 20.88458
#
# Velocity S-wave (km/s) = 3.14459 3.54459 3.35057
# Velocity P-wave (km/s) = 5.51262 7.37290 6.50956
#
# Compressibility (1/GPa) = 0.03124436
#
# Stress axis : x y z
#
# Youngs Moduli (GPa) = 22.15908 81.68323 106.15864
#
# Poissons Ratio (x) = 0.63031 0.59315
# Poissons Ratio (y) = 0.17099 0.47445
# Poissons Ratio (z) = 0.12381 0.36506
#
# Static dielectric constant tensor:
#      x y z
#    x 3.197820 0.000000 0.000000 
#    y 0.000000 3.446440 0.000000 
#    z 0.000000 0.000000 4.051450 
# 
# 
# High freq. dielectric constant tensor:
#      x y z
#    x 1.700660 0.000000 0.000000 
#    y 0.000000 1.711150 0.000000 
#    z 0.000000 0.000000 1.749630 
# 
# From -- ./inp_files/76605.got.cif
#   From: 2010.03.12/outbox.cif.g09.slc.cpg/sg65_39_cif.got.tgz:76605.got - 2010.04.10 20:52:16.
