data_PCOD8272761
_publ_section_title
;
Structure prediction by ZEFSAII (Michael W. Deem and Ramdas Pophale) SiO2 
 PCOD8272761
Probable space group: C M M M
;
_chemical_formula_sum "Si O2"
_cell_formula_units_Z 88
_cell_length_a 18.428748
_cell_length_b 9.196931
_cell_length_c 27.980516
_cell_angle_alpha 90.000000
_cell_angle_beta 90.000000
_cell_angle_gamma 90.000000
_cell_volume 4742.359563
_symmetry_space_group_name_H-M "C M M M"
_symmetry_group_IT_number 65
_symmetry_cell_setting 'orthorhombic'
loop_
_space_group_symop_operation_xyz
x,y,z
-x,-y,z
x,-y,-z
-x,y,-z
-x,-y,-z
x,y,-z
-x,y,z
x,-y,z
1/2+x,1/2+y,z
1/2-x,1/2-y,z
1/2+x,1/2-y,-z
1/2-x,1/2+y,-z
1/2-x,1/2-y,-z
1/2+x,1/2+y,-z
1/2-x,1/2+y,z
1/2+x,1/2-y,z
loop_
_atom_site_type_symbol
_atom_site_label
_atom_site_fract_x
_atom_site_fract_y
_atom_site_fract_z
Si Si1 0.673188 0.672353 0.721795
Si Si2 0.083166 0.329847 0.908647
Si Si3 0.326158 0.172032 0.000000
Si Si4 0.082835 0.830177 0.814300
Si Si5 0.678720 0.831805 0.446441
Si Si6 0.584163 0.831830 0.642071
O O1 0.683639 0.500000 0.717596
O O2 0.750000 0.750000 0.720914
O O3 0.632483 0.717622 0.770259
O O4 0.625406 0.726677 0.677952
O O5 0.091879 0.500000 0.900139
O O6 0.112255 0.250681 0.861282
O O7 0.000000 0.287278 0.919013
O O8 0.129882 0.276363 0.953492
O O9 0.250000 0.250000 0.000000
O O10 0.315045 0.000000 0.000000
O O11 0.000000 0.783827 0.802928
O O12 0.088441 0.000000 0.824279
O O13 0.657222 0.780086 0.500000
O O14 0.750000 0.750000 0.427571
O O15 0.611846 0.798673 0.411456
O O16 0.698957 0.000000 0.446119
O O17 0.500000 0.792392 0.643720
O O18 0.598219 0.000000 0.655958
#
# Coordination Sequence:
#
# PCOD8272761 Si02
#       6
#    16  16   8  16  16  16
#     4  11  23  38  56  78 107 142 178 218 266 317
#     4   9  18  34  56  78 101 134 174 213 253 301
#     4  10  21  35  51  75 107 138 170 210 256 304
#     4   9  19  36  56  78 104 134 170 213 261 312
#     4   9  18  33  53  77 106 140 176 215 261 312
#     4  10  21  36  55  80 108 139 178 222 265 313
#
# _framework density 18.556163000000002
#
# number of rings (size 3 to 8) (size 9 to 14) (size 15 to 20)
#    0.000    2.364    0.000    1.909    0.000    7.636 
#    0.000    7.273    0.000    2.727    0.000    3.818 
#    0.000    0.000    0.000    0.000    0.000    0.000 
#
# Total GULP energy -545712.961052 kJ/mol
# GULP energy per Si atom -12402.567297 kJ/mol
# Density = 1.851393 g / cm^3
# Si number density = 18.556163 Si / 1000 Ang^3
#
#
#
# Elastic Constant Matrix: (Units=GPa)
#
#
# Indices 1 2 3 4 5 6 
#
# 1 130.3789 50.4776 84.9759 0.0000 0.0000 0.0000
# 2 50.4776 53.0771 57.0327 0.0000 0.0000 0.0000
# 3 84.9759 57.0327 147.9521 0.0000 0.0000 0.0000
# 4 0.0000 0.0000 0.0000 32.6012 0.0000 0.0000
# 5 0.0000 0.0000 0.0000 0.0000 29.5543 0.0000
# 6 0.0000 0.0000 0.0000 0.0000 0.0000 24.9998
#
#
#
# Elastic Compliance Matrix: (Units=1/GPa)
#
#
# Indices 1 2 3 4 5 6 
#
# 1 0.013991 -0.007974 -0.004962 0.000000 0.000000 0.000000
# 2 -0.007974 0.036708 -0.009570 0.000000 0.000000 0.000000
# 3 -0.004962 -0.009570 0.013298 0.000000 0.000000 0.000000
# 4 0.000000 0.000000 0.000000 0.030674 0.000000 0.000000
# 5 0.000000 0.000000 0.000000 0.000000 0.033836 0.000000
# 6 0.000000 0.000000 0.000000 0.000000 0.000000 0.040000
#
#
# Mechanical properties :
#
#
# Convention : Reuss Voigt Hill
#
# Bulk Modulus (GPa) = 52.67546 79.59782 66.13664
# Shear Modulus (GPa) = 22.74306 26.69253 24.71779
#
# Velocity S-wave (km/s) = 3.50470 3.79683 3.65369
# Velocity P-wave (km/s) = 6.69522 7.88733 7.31560
#
# Compressibility (1/GPa) = 0.01898417
#
# Stress axis : x y z
#
# Youngs Moduli (GPa) = 71.47308 27.24232 75.20020
#
# Poissons Ratio (x) = 0.21724 0.37313
# Poissons Ratio (y) = 0.56995 0.71967
# Poissons Ratio (z) = 0.35464 0.26071
#
# Static dielectric constant tensor:
#      x y z
#    x 3.436580 0.000000 0.000000 
#    y 0.000000 3.355360 0.000000 
#    z 0.000000 0.000000 3.647830 
# 
# 
# High freq. dielectric constant tensor:
#      x y z
#    x 1.719050 0.000000 0.000000 
#    y 0.000000 1.714720 0.000000 
#    z 0.000000 0.000000 1.733310 
# 
# From -- ./inp_files/77795.got.cif
#   From: 2010.03.12/outbox.cif.g09.slc.cpg/sg65_39_cif.got.tgz:77795.got - 2010.04.10 20:52:16.
