data_PCOD8272291
_publ_section_title
;
Structure prediction by ZEFSAII (Michael W. Deem and Ramdas Pophale) SiO2 
 PCOD8272291
Probable space group: C M M M
;
_chemical_formula_sum "Si O2"
_cell_formula_units_Z 72
_cell_length_a 16.127033
_cell_length_b 8.618076
_cell_length_c 24.965796
_cell_angle_alpha 90.000000
_cell_angle_beta 90.000000
_cell_angle_gamma 90.000000
_cell_volume 3469.846093
_symmetry_space_group_name_H-M "C M M M"
_symmetry_group_IT_number 65
_symmetry_cell_setting 'orthorhombic'
loop_
_space_group_symop_operation_xyz
x,y,z
-x,-y,z
x,-y,-z
-x,y,-z
-x,-y,-z
x,y,-z
-x,y,z
x,-y,z
1/2+x,1/2+y,z
1/2-x,1/2-y,z
1/2+x,1/2-y,-z
1/2-x,1/2+y,-z
1/2-x,1/2-y,-z
1/2+x,1/2+y,-z
1/2-x,1/2+y,z
1/2+x,1/2-y,z
loop_
_atom_site_type_symbol
_atom_site_label
_atom_site_fract_x
_atom_site_fract_y
_atom_site_fract_z
Si Si1 0.000000 0.177423 0.936687
Si Si2 0.837447 0.681667 0.440912
Si Si3 0.406102 0.330885 0.658475
Si Si4 0.655966 0.184785 0.877441
Si Si5 0.339662 0.685127 0.768635
O O1 0.913861 0.261276 0.919525
O O2 0.000000 0.000000 0.915515
O O3 0.000000 0.182460 0.000000
O O4 0.863888 0.745687 0.500000
O O5 0.830585 0.500000 0.443811
O O6 0.750000 0.750000 0.422982
O O7 0.901602 0.728619 0.395149
O O8 0.500000 0.356679 0.673145
O O9 0.364055 0.500000 0.648115
O O10 0.368849 0.247788 0.711082
O O11 0.750000 0.250000 0.889463
O O12 0.615487 0.245442 0.820919
O O13 0.663188 0.000000 0.877236
O O14 0.346539 0.500000 0.768258
O O15 0.250000 0.750000 0.777677
#
# Coordination Sequence:
#
# PCOD8272291 Si02
#       5
#     8  16  16  16  16
#     4  11  25  45  69  97 131 173 216 263 318 371
#     4  10  21  37  57  79 104 140 186 237 291 349
#     4  10  22  37  54  81 114 151 189 233 291 350
#     4  11  23  41  66  97 131 171 216 263 317 376
#     4  10  20  36  59  85 117 155 197 246 298 355
#
# _framework density 20.750198999999999
#
# number of rings (size 3 to 8) (size 9 to 14) (size 15 to 20)
#    0.000    1.667    0.000    5.667    1.556    7.111 
#    0.000    2.222    0.000    0.000    0.000    0.000 
#    0.000    0.000    0.000    0.000    0.000    0.000 
#
# Total GULP energy -446002.607347 kJ/mol
# GULP energy per Si atom -12388.961315 kJ/mol
# Density = 2.070297 g / cm^3
# Si number density = 20.750199 Si / 1000 Ang^3
#
#
#
# Elastic Constant Matrix: (Units=GPa)
#
#
# Indices 1 2 3 4 5 6 
#
# 1 68.5149 25.3155 36.2166 0.0000 0.0000 0.0000
# 2 25.3155 108.8512 39.4038 0.0000 0.0000 0.0000
# 3 36.2166 39.4038 124.8571 0.0000 0.0000 0.0000
# 4 0.0000 0.0000 0.0000 28.7964 0.0000 0.0000
# 5 0.0000 0.0000 0.0000 0.0000 -27.7695 0.0000
# 6 0.0000 0.0000 0.0000 0.0000 0.0000 25.2945
#
#
#
# Elastic Compliance Matrix: (Units=1/GPa)
#
#
# Indices 1 2 3 4 5 6 
#
# 1 0.017854 -0.002571 -0.004367 0.000000 0.000000 0.000000
# 2 -0.002571 0.010742 -0.002644 0.000000 0.000000 0.000000
# 3 -0.004367 -0.002644 0.010110 0.000000 0.000000 0.000000
# 4 0.000000 0.000000 0.000000 0.034727 0.000000 0.000000
# 5 0.000000 0.000000 0.000000 0.000000 -0.036011 0.000000
# 6 0.000000 0.000000 0.000000 0.000000 0.000000 0.039534
#
#
# Mechanical properties :
#
#
# Convention : Reuss Voigt Hill
#
# Bulk Modulus (GPa) = 51.17521 56.01056 53.59289
# Shear Modulus (GPa) = 48.71587 18.68344 33.69966
#
# Velocity S-wave (km/s) = 4.85059 3.00392 4.03434
# Velocity P-wave (km/s) = 7.48913 6.25162 6.89818
#
# Compressibility (1/GPa) = 0.01954071
#
# Stress axis : x y z
#
# Youngs Moduli (GPa) = 56.00992 93.09178 98.90751
#
# Poissons Ratio (x) = 0.23937 0.43196
# Poissons Ratio (y) = 0.14402 0.26154
# Poissons Ratio (z) = 0.24461 0.24616
#
# Static dielectric constant tensor:
#      x y z
#    x 3.642540 0.000000 0.000000 
#    y 0.000000 4.040560 0.000000 
#    z 0.000000 0.000000 4.149290 
# 
# 
# High freq. dielectric constant tensor:
#      x y z
#    x 1.800440 0.000000 0.000000 
#    y 0.000000 1.813120 0.000000 
#    z 0.000000 0.000000 1.828590 
# 
# From -- ./inp_files/74594.got.cif
#   From: 2010.03.12/outbox.cif.g09.slc.cpg/sg65_38_cif.got.tgz:74594.got - 2010.04.10 20:52:16.
