data_PCOD8272687
_publ_section_title
;
Structure prediction by ZEFSAII (Michael W. Deem and Ramdas Pophale) SiO2 
 PCOD8272687
Probable space group: C M M M
;
_chemical_formula_sum "Si O2"
_cell_formula_units_Z 80
_cell_length_a 9.541786
_cell_length_b 18.193804
_cell_length_c 26.045779
_cell_angle_alpha 90.000000
_cell_angle_beta 90.000000
_cell_angle_gamma 90.000000
_cell_volume 4521.583289
_symmetry_space_group_name_H-M "C M M M"
_symmetry_group_IT_number 65
_symmetry_cell_setting 'orthorhombic'
loop_
_space_group_symop_operation_xyz
x,y,z
-x,-y,z
x,-y,-z
-x,y,-z
-x,-y,-z
x,y,-z
-x,y,z
x,-y,z
1/2+x,1/2+y,z
1/2-x,1/2-y,z
1/2+x,1/2-y,-z
1/2-x,1/2+y,-z
1/2-x,1/2-y,-z
1/2+x,1/2+y,-z
1/2-x,1/2+y,z
1/2+x,1/2-y,z
loop_
_atom_site_type_symbol
_atom_site_label
_atom_site_fract_x
_atom_site_fract_y
_atom_site_fract_z
Si Si1 0.842606 0.912091 0.109950
Si Si2 0.836241 0.676039 0.696392
Si Si3 0.163281 0.584647 0.204571
Si Si4 0.658949 0.412564 0.500000
Si Si5 0.661085 0.085548 0.404383
Si Si6 0.833512 0.919422 0.000000
O O1 0.742692 0.882684 0.154970
O O2 0.000000 0.885229 0.122304
O O3 0.837730 0.000000 0.106682
O O4 0.791011 0.879873 0.054044
O O5 0.750000 0.750000 0.694278
O O6 0.788928 0.630100 0.745964
O O7 0.798180 0.628253 0.646849
O O8 0.000000 0.694829 0.698349
O O9 0.204063 0.500000 0.214500
O O10 0.000000 0.593251 0.193654
O O11 0.660749 0.500000 0.500000
O O12 0.500000 0.382032 0.500000
O O13 0.740066 0.383762 0.449703
O O14 0.500000 0.098952 0.420393
O O15 0.688548 0.000000 0.393748
O O16 0.000000 0.928081 0.000000
O O17 0.763290 0.000000 0.000000
#
# Coordination Sequence:
#
# PCOD8272687 Si02
#       6
#    16  16  16   8  16   8
#     4   8  13  22  38  61  88 118 151 185 223 270
#     4  10  21  35  50  69  94 124 157 193 233 275
#     4   9  17  30  47  67  92 121 153 190 231 274
#     4   9  17  29  48  77 106 125 147 187 234 271
#     4   9  17  32  54  75  95 124 160 191 222 269
#     4   7  10  18  33  55  86 119 146 177 221 271
#
# _framework density 17.692917999999999
#
# number of rings (size 3 to 8) (size 9 to 14) (size 15 to 20)
#    0.000    3.200    0.000    2.100    0.000    5.200 
#    0.000    1.000    0.000    9.000    0.000    0.700 
#    0.000    0.000    0.000    0.000    0.000    0.000 
#
# Total GULP energy -495734.880459 kJ/mol
# GULP energy per Si atom -12393.372011 kJ/mol
# Density = 1.765265 g / cm^3
# Si number density = 17.692918 Si / 1000 Ang^3
#
#
#
# Elastic Constant Matrix: (Units=GPa)
#
#
# Indices 1 2 3 4 5 6 
#
# 1 75.0828 35.8547 84.6393 0.0000 0.0000 0.0000
# 2 35.8547 50.7165 54.1467 0.0000 0.0000 0.0000
# 3 84.6393 54.1467 204.4178 0.0000 0.0000 0.0000
# 4 0.0000 0.0000 0.0000 0.0400 0.0000 0.0000
# 5 0.0000 0.0000 0.0000 0.0000 33.3818 0.0000
# 6 0.0000 0.0000 0.0000 0.0000 0.0000 21.4357
#
#
#
# Elastic Compliance Matrix: (Units=1/GPa)
#
#
# Indices 1 2 3 4 5 6 
#
# 1 0.028510 -0.010531 -0.009015 0.000000 0.000000 0.000000
# 2 -0.010531 0.031382 -0.003952 0.000000 0.000000 0.000000
# 3 -0.009015 -0.003952 0.009672 0.000000 0.000000 0.000000
# 4 0.000000 0.000000 0.000000 25.020371 0.000000 0.000000
# 5 0.000000 0.000000 0.000000 0.000000 0.029956 0.000000
# 6 0.000000 0.000000 0.000000 0.000000 0.000000 0.046651
#
#
# Mechanical properties :
#
#
# Convention : Reuss Voigt Hill
#
# Bulk Modulus (GPa) = 44.31208 75.49983 59.90596
# Shear Modulus (GPa) = 0.19825 21.34324 10.77075
#
# Velocity S-wave (km/s) = 0.33510 3.47697 2.46998
# Velocity P-wave (km/s) = 5.02486 7.67360 6.48588
#
# Compressibility (1/GPa) = 0.02256721
#
# Stress axis : x y z
#
# Youngs Moduli (GPa) = 35.07544 31.86564 103.39557
#
# Poissons Ratio (x) = 0.33556 0.93213
# Poissons Ratio (y) = 0.36936 0.40865
# Poissons Ratio (z) = 0.31621 0.12594
#
# Static dielectric constant tensor:
#      x y z
#    x 3.222250 0.000000 0.000000 
#    y 0.000000 2.814160 0.000000 
#    z 0.000000 0.000000 3.715720 
# 
# 
# High freq. dielectric constant tensor:
#      x y z
#    x 1.670280 0.000000 0.000000 
#    y 0.000000 1.631280 0.000000 
#    z 0.000000 0.000000 1.707880 
# 
# From -- ./inp_files/73019.got.cif
#   From: 2010.03.12/outbox.cif.g09.slc.cpg/sg65_37_cif.got.tgz:73019.got - 2010.04.10 20:52:16.
