data_PCOD8272803
_publ_section_title
;
Structure prediction by ZEFSAII (Michael W. Deem and Ramdas Pophale) SiO2 
 PCOD8272803
Probable space group: C M M M
;
_chemical_formula_sum "Si O2"
_cell_formula_units_Z 112
_cell_length_a 14.886564
_cell_length_b 25.837948
_cell_length_c 14.412391
_cell_angle_alpha 90.000000
_cell_angle_beta 90.000000
_cell_angle_gamma 90.000000
_cell_volume 5543.557091
_symmetry_space_group_name_H-M "C M M M"
_symmetry_group_IT_number 65
_symmetry_cell_setting 'orthorhombic'
loop_
_space_group_symop_operation_xyz
x,y,z
-x,-y,z
x,-y,-z
-x,y,-z
-x,-y,-z
x,y,-z
-x,y,z
x,-y,z
1/2+x,1/2+y,z
1/2-x,1/2-y,z
1/2+x,1/2-y,-z
1/2-x,1/2+y,-z
1/2-x,1/2-y,-z
1/2+x,1/2+y,-z
1/2-x,1/2+y,z
1/2+x,1/2-y,z
loop_
_atom_site_type_symbol
_atom_site_label
_atom_site_fract_x
_atom_site_fract_y
_atom_site_fract_z
Si Si1 0.234630 0.308865 0.607570
Si Si2 0.603216 0.150588 0.236240
Si Si3 0.601107 0.619132 0.396389
Si Si4 0.605897 0.555951 0.773327
Si Si5 0.355236 0.755311 0.893987
Si Si6 0.897588 0.855758 0.899242
Si Si7 0.893374 0.558471 0.104543
O O1 0.202254 0.312245 0.500000
O O2 0.250000 0.250000 0.639637
O O3 0.162245 0.338106 0.672142
O O4 0.332247 0.333654 0.620879
O O5 0.500000 0.141989 0.267732
O O6 0.605993 0.198709 0.166550
O O7 0.641715 0.100113 0.181019
O O8 0.608301 0.597598 0.500000
O O9 0.500000 0.639328 0.373745
O O10 0.626699 0.570495 0.332659
O O11 0.500000 0.553281 0.790013
O O12 0.649399 0.500000 0.795646
O O13 0.650931 0.600253 0.837687
O O14 0.250000 0.750000 0.886393
O O15 0.392579 0.700958 0.853561
O O16 0.387601 0.763871 0.000000
O O17 0.000000 0.872255 0.910410
O O18 0.849366 0.854615 0.000000
O O19 0.862781 0.500000 0.132462
O O20 0.000000 0.561648 0.103042
O O21 0.857880 0.571635 0.000000
#
# Coordination Sequence:
#
# PCOD8272803 Si02
#       7
#    16  16  16  16  16  16  16
#     4  10  23  41  58  81 115 150 188 237 290 345
#     4  11  22  34  57  88 116 152 194 235 281 341
#     4   9  19  37  61  84 106 138 181 230 284 338
#     4   9  18  31  51  80 108 138 179 224 269 323
#     4  10  21  35  52  77 112 151 189 234 283 330
#     4   9  18  32  50  73 105 144 182 220 265 322
#     4   8  15  31  56  85 117 152 191 237 286 335
#
# _framework density 20.203634999999998
#
# number of rings (size 3 to 8) (size 9 to 14) (size 15 to 20)
#    0.000    2.571    0.000    1.714    4.000    2.857 
#    0.000    5.000    0.000    1.286    0.000    2.000 
#    0.000    0.000    0.000    0.000    0.000    0.000 
#
# Total GULP energy -694022.300635 kJ/mol
# GULP energy per Si atom -12393.255368 kJ/mol
# Density = 2.015765 g / cm^3
# Si number density = 20.203635 Si / 1000 Ang^3
#
#
#
# Elastic Constant Matrix: (Units=GPa)
#
#
# Indices 1 2 3 4 5 6 
#
# 1 52.4417 21.5362 34.5280 0.0000 0.0000 0.0000
# 2 21.5362 169.0679 81.2226 0.0000 0.0000 0.0000
# 3 34.5280 81.2226 116.2819 0.0000 0.0000 0.0000
# 4 0.0000 0.0000 0.0000 34.0871 0.0000 0.0000
# 5 0.0000 0.0000 0.0000 0.0000 22.4208 0.0000
# 6 0.0000 0.0000 0.0000 0.0000 0.0000 9.2120
#
#
#
# Elastic Compliance Matrix: (Units=1/GPa)
#
#
# Indices 1 2 3 4 5 6 
#
# 1 0.023736 0.000545 -0.007429 0.000000 0.000000 0.000000
# 2 0.000545 0.008915 -0.006389 0.000000 0.000000 0.000000
# 3 -0.007429 -0.006389 0.015268 0.000000 0.000000 0.000000
# 4 0.000000 0.000000 0.000000 0.029337 0.000000 0.000000
# 5 0.000000 0.000000 0.000000 0.000000 0.044601 0.000000
# 6 0.000000 0.000000 0.000000 0.000000 0.000000 0.108554
#
#
# Mechanical properties :
#
#
# Convention : Reuss Voigt Hill
#
# Bulk Modulus (GPa) = 46.78527 68.04058 57.41293
# Shear Modulus (GPa) = 18.93359 26.51095 22.72227
#
# Velocity S-wave (km/s) = 3.06459 3.62634 3.35724
# Velocity P-wave (km/s) = 5.97741 7.16131 6.59597
#
# Compressibility (1/GPa) = 0.02137425
#
# Stress axis : x y z
#
# Youngs Moduli (GPa) = 42.12981 112.17617 65.49535
#
# Poissons Ratio (x) = -0.06119 0.48657
# Poissons Ratio (y) = -0.02298 0.41843
# Poissons Ratio (z) = 0.31299 0.71667
#
# Static dielectric constant tensor:
#      x y z
#    x 3.413500 0.000000 0.000000 
#    y 0.000000 3.972460 0.000000 
#    z 0.000000 0.000000 3.867700 
# 
# 
# High freq. dielectric constant tensor:
#      x y z
#    x 1.766940 0.000000 0.000000 
#    y 0.000000 1.790730 0.000000 
#    z 0.000000 0.000000 1.785560 
# 
# From -- ./inp_files/40802.got.cif
#   From: 2010.03.12/outbox.cif.g09.slc.cpg/sg65_21_cif.got.tgz:40802.got - 2010.04.10 20:52:16.
