data_PCOD8272895
_publ_section_title
;
Structure prediction by ZEFSAII (Michael W. Deem and Ramdas Pophale) SiO2 
 PCOD8272895
Probable space group: C M M M
;
_chemical_formula_sum "Si O2"
_cell_formula_units_Z 72
_cell_length_a 15.961674
_cell_length_b 8.908956
_cell_length_c 24.785553
_cell_angle_alpha 90.000000
_cell_angle_beta 90.000000
_cell_angle_gamma 90.000000
_cell_volume 3524.551523
_symmetry_space_group_name_H-M "C M M M"
_symmetry_group_IT_number 65
_symmetry_cell_setting 'orthorhombic'
loop_
_space_group_symop_operation_xyz
x,y,z
-x,-y,z
x,-y,-z
-x,y,-z
-x,-y,-z
x,y,-z
-x,y,z
x,-y,z
1/2+x,1/2+y,z
1/2-x,1/2-y,z
1/2+x,1/2-y,-z
1/2-x,1/2+y,-z
1/2-x,1/2-y,-z
1/2+x,1/2+y,-z
1/2-x,1/2+y,z
1/2+x,1/2-y,z
loop_
_atom_site_type_symbol
_atom_site_label
_atom_site_fract_x
_atom_site_fract_y
_atom_site_fract_z
Si Si1 0.903823 0.336756 0.842454
Si Si2 0.837322 0.678989 0.615446
Si Si3 0.093204 0.678074 0.727293
Si Si4 0.337624 0.324485 0.059569
Si Si5 0.500000 0.672192 0.436184
O O1 0.863115 0.500000 0.856728
O O2 0.867681 0.269307 0.785718
O O3 0.899051 0.225798 0.893176
O O4 0.000000 0.362000 0.829160
O O5 0.834972 0.500000 0.607640
O O6 0.750000 0.750000 0.594205
O O7 0.847300 0.727782 0.678246
O O8 0.916272 0.743603 0.583188
O O9 0.086750 0.500000 0.729068
O O10 0.000000 0.746129 0.717164
O O11 0.326327 0.500000 0.061321
O O12 0.250000 0.250000 0.072844
O O13 0.370669 0.274639 0.000000
O O14 0.500000 0.500000 0.415371
O O15 0.500000 0.677457 0.500000
#
# Coordination Sequence:
#
# PCOD8272895 Si02
#       5
#    16  16  16  16   8
#     4   9  18  33  55  81 110 143 180 225 279 340
#     4  11  22  39  65  95 128 166 208 253 304 364
#     4   8  15  32  57  83 114 152 190 234 291 348
#     4  10  21  36  52  70  98 137 182 233 286 340
#     4  11  25  45  67  93 127 165 208 259 308 355
#
# _framework density 20.428132000000002
#
# number of rings (size 3 to 8) (size 9 to 14) (size 15 to 20)
#    0.000    2.333    1.111    3.000    0.000    4.444 
#    0.000    6.667    0.000    0.000    0.000    0.000 
#    0.000    0.000    0.000    0.000    0.000    0.000 
#
# Total GULP energy -446037.036986 kJ/mol
# GULP energy per Si atom -12389.917694 kJ/mol
# Density = 2.038164 g / cm^3
# Si number density = 20.428132 Si / 1000 Ang^3
#
#
#
# Elastic Constant Matrix: (Units=GPa)
#
#
# Indices 1 2 3 4 5 6 
#
# 1 101.5389 39.6564 40.6481 0.0000 0.0000 0.0000
# 2 39.6564 81.5250 40.2411 0.0000 0.0000 0.0000
# 3 40.6481 40.2411 113.5011 0.0000 0.0000 0.0000
# 4 0.0000 0.0000 0.0000 23.8652 0.0000 0.0000
# 5 0.0000 0.0000 0.0000 0.0000 13.2032 0.0000
# 6 0.0000 0.0000 0.0000 0.0000 0.0000 28.6105
#
#
#
# Elastic Compliance Matrix: (Units=1/GPa)
#
#
# Indices 1 2 3 4 5 6 
#
# 1 0.012902 -0.004843 -0.002904 0.000000 0.000000 0.000000
# 2 -0.004843 0.016686 -0.004182 0.000000 0.000000 0.000000
# 3 -0.002904 -0.004182 0.011333 0.000000 0.000000 0.000000
# 4 0.000000 0.000000 0.000000 0.041902 0.000000 0.000000
# 5 0.000000 0.000000 0.000000 0.000000 0.075739 0.000000
# 6 0.000000 0.000000 0.000000 0.000000 0.000000 0.034952
#
#
# Mechanical properties :
#
#
# Convention : Reuss Voigt Hill
#
# Bulk Modulus (GPa) = 58.59941 59.73957 59.16949
# Shear Modulus (GPa) = 22.41563 24.87041 23.64302
#
# Velocity S-wave (km/s) = 3.31613 3.49300 3.40571
# Velocity P-wave (km/s) = 6.58865 6.75095 6.67029
#
# Compressibility (1/GPa) = 0.01706502
#
# Stress axis : x y z
#
# Youngs Moduli (GPa) = 77.50608 59.93091 88.23845
#
# Poissons Ratio (x) = 0.29023 0.25622
# Poissons Ratio (y) = 0.37534 0.36897
# Poissons Ratio (z) = 0.22505 0.25060
#
# Static dielectric constant tensor:
#      x y z
#    x 3.442740 0.000000 0.000000 
#    y 0.000000 3.908440 0.000000 
#    z 0.000000 0.000000 4.078510 
# 
# 
# High freq. dielectric constant tensor:
#      x y z
#    x 1.779550 0.000000 0.000000 
#    y 0.000000 1.778870 0.000000 
#    z 0.000000 0.000000 1.815910 
# 
# From -- ./inp_files/72511.got.cif
#   From: 2010.03.12/outbox.cif.g09.slc.cpg/sg65_37_cif.got.tgz:72511.got - 2010.04.10 20:52:16.
