data_PCOD8272825
_publ_section_title
;
Structure prediction by ZEFSAII (Michael W. Deem and Ramdas Pophale) SiO2 
 PCOD8272825
Probable space group: C M M M
;
_chemical_formula_sum "Si O2"
_cell_formula_units_Z 88
_cell_length_a 18.596986
_cell_length_b 15.479230
_cell_length_c 16.842759
_cell_angle_alpha 90.000000
_cell_angle_beta 90.000000
_cell_angle_gamma 90.000000
_cell_volume 4848.474903
_symmetry_space_group_name_H-M "C M M M"
_symmetry_group_IT_number 65
_symmetry_cell_setting 'orthorhombic'
loop_
_space_group_symop_operation_xyz
x,y,z
-x,-y,z
x,-y,-z
-x,y,-z
-x,-y,-z
x,y,-z
-x,y,z
x,-y,z
1/2+x,1/2+y,z
1/2-x,1/2-y,z
1/2+x,1/2-y,-z
1/2-x,1/2+y,-z
1/2-x,1/2-y,-z
1/2+x,1/2+y,-z
1/2-x,1/2+y,z
1/2+x,1/2-y,z
loop_
_atom_site_type_symbol
_atom_site_label
_atom_site_fract_x
_atom_site_fract_y
_atom_site_fract_z
Si Si1 0.584591 0.352116 0.000000
Si Si2 0.833977 0.251153 0.732366
Si Si3 0.084929 0.000000 0.586824
Si Si4 0.832744 0.097127 0.153719
Si Si5 0.584250 0.312844 0.592303
Si Si6 0.332091 0.902901 0.152829
Si Si7 0.915364 0.651170 0.000000
O O1 0.617701 0.396682 0.076888
O O2 0.604343 0.251610 0.000000
O O3 0.500000 0.368589 0.000000
O O4 0.750000 0.250000 0.714773
O O5 0.858663 0.166756 0.781657
O O6 0.873950 0.254695 0.647571
O O7 0.857647 0.336902 0.779309
O O8 0.107283 0.908701 0.626196
O O9 0.120317 0.000000 0.500000
O O10 0.000000 0.000000 0.576871
O O11 0.750412 0.116796 0.128757
O O12 0.840265 0.000000 0.189004
O O13 0.606206 0.301101 0.500000
O O14 0.500000 0.296992 0.602486
O O15 0.381902 0.893346 0.076648
O O16 0.340046 0.000000 0.186321
O O17 0.000000 0.634581 0.000000
#
# Coordination Sequence:
#
# PCOD8272825 Si02
#       7
#     8  16   8  16  16  16   8
#     4  11  22  35  52  77 111 142 173 212 255 309
#     4  10  21  35  53  79 107 136 172 220 259 303
#     4   7  12  26  48  76 106 133 162 196 239 301
#     4  10  21  36  55  77 104 142 177 205 255 319
#     4   9  18  33  54  79 108 140 171 206 256 317
#     4  10  21  38  57  75 100 137 180 222 264 306
#     4  11  22  35  54  79 103 134 179 226 265 301
#
# _framework density 18.150037999999999
#
# number of rings (size 3 to 8) (size 9 to 14) (size 15 to 20)
#    0.000    2.273    1.818    2.182    1.273    5.455 
#    0.000    0.000    0.000    0.545    0.000    1.273 
#    0.000    0.000    0.000    0.000    0.000    0.000 
#
# Total GULP energy -545428.779518 kJ/mol
# GULP energy per Si atom -12396.108625 kJ/mol
# Density = 1.810873 g / cm^3
# Si number density = 18.150038 Si / 1000 Ang^3
#
#
#
# Elastic Constant Matrix: (Units=GPa)
#
#
# Indices 1 2 3 4 5 6 
#
# 1 52.8928 36.3786 48.3872 0.0000 0.0000 0.0000
# 2 36.3786 119.7355 58.6555 0.0000 0.0000 0.0000
# 3 48.3872 58.6555 117.8338 0.0000 0.0000 0.0000
# 4 0.0000 0.0000 0.0000 16.9276 0.0000 0.0000
# 5 0.0000 0.0000 0.0000 0.0000 124.2445 0.0000
# 6 0.0000 0.0000 0.0000 0.0000 0.0000 22.7718
#
#
#
# Elastic Compliance Matrix: (Units=1/GPa)
#
#
# Indices 1 2 3 4 5 6 
#
# 1 0.031894 -0.004330 -0.010941 0.000000 0.000000 0.000000
# 2 -0.004330 0.011633 -0.004013 0.000000 0.000000 0.000000
# 3 -0.010941 -0.004013 0.014977 0.000000 0.000000 0.000000
# 4 0.000000 0.000000 0.000000 0.059075 0.000000 0.000000
# 5 0.000000 0.000000 0.000000 0.000000 0.008049 0.000000
# 6 0.000000 0.000000 0.000000 0.000000 0.000000 0.043914
#
#
# Mechanical properties :
#
#
# Convention : Reuss Voigt Hill
#
# Bulk Modulus (GPa) = 50.16201 64.14496 57.15348
# Shear Modulus (GPa) = 23.28239 42.59149 32.93694
#
# Velocity S-wave (km/s) = 3.58547 4.84946 4.26456
# Velocity P-wave (km/s) = 6.69613 8.17157 7.47037
#
# Compressibility (1/GPa) = 0.01993541
#
# Stress axis : x y z
#
# Youngs Moduli (GPa) = 31.35421 85.96230 66.76984
#
# Poissons Ratio (x) = 0.37223 0.73055
# Poissons Ratio (y) = 0.13577 0.26792
# Poissons Ratio (z) = 0.34306 0.34493
#
# Static dielectric constant tensor:
#      x y z
#    x 3.151440 0.000000 0.000000 
#    y 0.000000 3.566550 0.000000 
#    z 0.000000 0.000000 3.168790 
# 
# 
# High freq. dielectric constant tensor:
#      x y z
#    x 1.687220 0.000000 0.000000 
#    y 0.000000 1.709200 0.000000 
#    z 0.000000 0.000000 1.689160 
# 
# From -- ./inp_files/42556.got.cif
#   From: 2010.03.12/outbox.cif.g09.slc.cpg/sg65_22_cif.got.tgz:42556.got - 2010.04.10 20:52:16.
