data_PCOD8272446
_publ_section_title
;
Structure prediction by ZEFSAII (Michael W. Deem and Ramdas Pophale) SiO2 
 PCOD8272446
Probable space group: C M M M
;
_chemical_formula_sum "Si O2"
_cell_formula_units_Z 88
_cell_length_a 8.560810
_cell_length_b 25.658107
_cell_length_c 20.638797
_cell_angle_alpha 90.000000
_cell_angle_beta 90.000000
_cell_angle_gamma 90.000000
_cell_volume 4533.398010
_symmetry_space_group_name_H-M "C M M M"
_symmetry_group_IT_number 65
_symmetry_cell_setting 'orthorhombic'
loop_
_space_group_symop_operation_xyz
x,y,z
-x,-y,z
x,-y,-z
-x,y,-z
-x,-y,-z
x,y,-z
-x,y,z
x,-y,z
1/2+x,1/2+y,z
1/2-x,1/2-y,z
1/2+x,1/2-y,-z
1/2-x,1/2+y,-z
1/2-x,1/2-y,-z
1/2+x,1/2+y,-z
1/2-x,1/2+y,z
1/2+x,1/2-y,z
loop_
_atom_site_type_symbol
_atom_site_label
_atom_site_fract_x
_atom_site_fract_y
_atom_site_fract_z
Si Si1 0.680645 0.000000 0.150491
Si Si2 0.185412 0.694536 0.143066
Si Si3 0.180323 0.904988 0.076023
Si Si4 0.316124 0.195584 0.709167
Si Si5 0.315094 0.095446 0.633009
Si Si6 0.184471 0.059177 0.500000
Si Si7 0.182276 0.000000 0.710729
O O1 0.714343 0.051331 0.109271
O O2 0.790260 0.000000 0.213014
O O3 0.500000 0.000000 0.171799
O O4 0.250000 0.750000 0.118946
O O5 0.265624 0.651509 0.098833
O O6 0.238729 0.684866 0.217252
O O7 0.000000 0.692305 0.134916
O O8 0.000000 0.914126 0.094393
O O9 0.207268 0.909330 0.000000
O O10 0.500000 0.198711 0.706708
O O11 0.250000 0.250000 0.682706
O O12 0.253780 0.149660 0.663108
O O13 0.500000 0.093929 0.627724
O O14 0.243466 0.089997 0.562216
O O15 0.260130 0.050443 0.680387
O O16 0.000000 0.057933 0.500000
O O17 0.250746 0.000000 0.500000
O O18 0.000000 0.000000 0.694249
#
# Coordination Sequence:
#
# PCOD8272446 Si02
#       7
#     8  16  16  16  16   8   8
#     4  12  25  41  61  86 116 153 196 241 293 353
#     4  10  20  37  61  88 119 153 194 244 297 352
#     4  11  24  41  60  84 116 154 196 243 297 357
#     4   9  20  37  59  87 116 149 190 237 288 344
#     4  11  22  38  61  89 120 155 196 241 292 345
#     4  11  23  39  58  85 121 158 201 241 286 346
#     4  12  24  38  60  90 120 152 191 239 294 348
#
# _framework density 19.411487999999999
#
# number of rings (size 3 to 8) (size 9 to 14) (size 15 to 20)
#    0.000    1.364    0.909    4.909    0.000    6.909 
#    0.000    0.455    0.000    0.000    0.000    0.000 
#    0.000    0.000    0.000    0.000    0.000    0.000 
#
# Total GULP energy -545849.423935 kJ/mol
# GULP energy per Si atom -12405.668726 kJ/mol
# Density = 1.936731 g / cm^3
# Si number density = 19.411488 Si / 1000 Ang^3
#
#
#
# Elastic Constant Matrix: (Units=GPa)
#
#
# Indices 1 2 3 4 5 6 
#
# 1 49.0902 21.2446 23.0210 0.0000 0.0000 0.0000
# 2 21.2446 122.4234 43.6450 0.0000 0.0000 0.0000
# 3 23.0210 43.6450 91.8621 0.0000 0.0000 0.0000
# 4 0.0000 0.0000 0.0000 39.2665 0.0000 0.0000
# 5 0.0000 0.0000 0.0000 0.0000 30.7381 0.0000
# 6 0.0000 0.0000 0.0000 0.0000 0.0000 33.0014
#
#
#
# Elastic Compliance Matrix: (Units=1/GPa)
#
#
# Indices 1 2 3 4 5 6 
#
# 1 0.023654 -0.002398 -0.004789 0.000000 0.000000 0.000000
# 2 -0.002398 0.010077 -0.004187 0.000000 0.000000 0.000000
# 3 -0.004789 -0.004187 0.014075 0.000000 0.000000 0.000000
# 4 0.000000 0.000000 0.000000 0.025467 0.000000 0.000000
# 5 0.000000 0.000000 0.000000 0.000000 0.032533 0.000000
# 6 0.000000 0.000000 0.000000 0.000000 0.000000 0.030302
#
#
# Mechanical properties :
#
#
# Convention : Reuss Voigt Hill
#
# Bulk Modulus (GPa) = 39.90432 48.79964 44.35198
# Shear Modulus (GPa) = 29.90297 32.29888 31.10093
#
# Velocity S-wave (km/s) = 3.92915 4.08353 4.00708
# Velocity P-wave (km/s) = 6.41763 6.88678 6.65634
#
# Compressibility (1/GPa) = 0.02505994
#
# Stress axis : x y z
#
# Youngs Moduli (GPa) = 42.27629 99.23485 71.04690
#
# Poissons Ratio (x) = 0.23792 0.34022
# Poissons Ratio (y) = 0.10136 0.29747
# Poissons Ratio (z) = 0.20245 0.41549
#
# Static dielectric constant tensor:
#      x y z
#    x 3.604410 0.000000 0.000000 
#    y 0.000000 3.752410 0.000000 
#    z 0.000000 0.000000 3.619530 
# 
# 
# High freq. dielectric constant tensor:
#      x y z
#    x 1.765880 0.000000 0.000000 
#    y 0.000000 1.767540 0.000000 
#    z 0.000000 0.000000 1.756790 
# 
# From -- ./inp_files/59873.got.cif
#   From: 2010.03.12/outbox.cif.g09.slc.cpg/sg65_30_cif.got.tgz:59873.got - 2010.04.10 20:52:16.
