data_PCOD8272740
_publ_section_title
;
Structure prediction by ZEFSAII (Michael W. Deem and Ramdas Pophale) SiO2 
 PCOD8272740
Probable space group: C M M M
;
_chemical_formula_sum "Si O2"
_cell_formula_units_Z 88
_cell_length_a 9.312641
_cell_length_b 18.728747
_cell_length_c 28.912823
_cell_angle_alpha 90.000000
_cell_angle_beta 90.000000
_cell_angle_gamma 90.000000
_cell_volume 5042.803921
_symmetry_space_group_name_H-M "C M M M"
_symmetry_group_IT_number 65
_symmetry_cell_setting 'orthorhombic'
loop_
_space_group_symop_operation_xyz
x,y,z
-x,-y,z
x,-y,-z
-x,y,-z
-x,-y,-z
x,y,-z
-x,y,z
x,-y,z
1/2+x,1/2+y,z
1/2-x,1/2-y,z
1/2+x,1/2-y,-z
1/2-x,1/2+y,-z
1/2-x,1/2-y,-z
1/2+x,1/2+y,-z
1/2-x,1/2+y,z
1/2+x,1/2-y,z
loop_
_atom_site_type_symbol
_atom_site_label
_atom_site_fract_x
_atom_site_fract_y
_atom_site_fract_z
Si Si1 0.162282 0.415088 0.177220
Si Si2 0.833069 0.082869 0.734393
Si Si3 0.665900 0.677188 0.451150
Si Si4 0.332796 0.417514 0.912075
Si Si5 0.331637 0.324326 0.000000
Si Si6 0.331799 0.675972 0.648774
O O1 0.165817 0.500000 0.178058
O O2 0.243649 0.385642 0.222492
O O3 0.243354 0.388009 0.131463
O O4 0.000000 0.385572 0.176926
O O5 0.779317 0.121707 0.688024
O O6 0.000000 0.096525 0.744716
O O7 0.800653 0.000000 0.726872
O O8 0.700379 0.634470 0.500000
O O9 0.500000 0.697668 0.450516
O O10 0.750000 0.750000 0.452403
O O11 0.702537 0.639292 0.401901
O O12 0.500000 0.408964 0.900272
O O13 0.296379 0.500000 0.923221
O O14 0.286170 0.370251 0.955562
O O15 0.250000 0.250000 0.000000
O O16 0.500000 0.308549 0.000000
O O17 0.500000 0.691564 0.654130
O O18 0.250000 0.750000 0.654931
#
# Coordination Sequence:
#
# PCOD8272740 Si02
#       6
#    16  16  16  16   8  16
#     4   9  17  29  47  72  96 116 146 190 232 265
#     4   9  17  30  47  65  88 120 153 182 218 268
#     4   8  13  22  37  57  81 108 139 177 219 261
#     4   9  17  32  54  75  94 120 156 192 223 260
#     4  10  21  35  51  73 101 130 156 184 222 268
#     4   9  17  28  43  64  88 114 146 184 224 266
#
# _framework density 17.450610000000001
#
# number of rings (size 3 to 8) (size 9 to 14) (size 15 to 20)
#    0.000    3.091    0.000    0.818    0.000    4.727 
#    0.000    0.909    0.000    3.273    0.000    3.818 
#    0.000    0.000    0.000   34.000    0.000   18.545 
#
# Total GULP energy -545118.800530 kJ/mol
# GULP energy per Si atom -12389.063648 kJ/mol
# Density = 1.741089 g / cm^3
# Si number density = 17.450610 Si / 1000 Ang^3
#
#
#
# Elastic Constant Matrix: (Units=GPa)
#
#
# Indices 1 2 3 4 5 6 
#
# 1 59.6926 29.1161 70.5463 0.0000 0.0000 0.0000
# 2 29.1161 51.3978 61.7271 0.0000 0.0000 0.0000
# 3 70.5463 61.7271 220.0761 0.0000 0.0000 0.0000
# 4 0.0000 0.0000 0.0000 19.6775 0.0000 0.0000
# 5 0.0000 0.0000 0.0000 0.0000 21.5585 0.0000
# 6 0.0000 0.0000 0.0000 0.0000 0.0000 19.0511
#
#
#
# Elastic Compliance Matrix: (Units=1/GPa)
#
#
# Indices 1 2 3 4 5 6 
#
# 1 0.028964 -0.007928 -0.007061 0.000000 0.000000 0.000000
# 2 -0.007928 0.031509 -0.006296 0.000000 0.000000 0.000000
# 3 -0.007061 -0.006296 0.008573 0.000000 0.000000 0.000000
# 4 0.000000 0.000000 0.000000 0.050819 0.000000 0.000000
# 5 0.000000 0.000000 0.000000 0.000000 0.046385 0.000000
# 6 0.000000 0.000000 0.000000 0.000000 0.000000 0.052490
#
#
# Mechanical properties :
#
#
# Convention : Reuss Voigt Hill
#
# Bulk Modulus (GPa) = 37.76989 72.66061 55.21525
# Shear Modulus (GPa) = 18.50911 23.37588 20.94249
#
# Velocity S-wave (km/s) = 3.26031 3.66395 3.46801
# Velocity P-wave (km/s) = 5.98863 7.72189 6.90982
#
# Compressibility (1/GPa) = 0.02647611
#
# Stress axis : x y z
#
# Youngs Moduli (GPa) = 34.52525 31.73727 116.64082
#
# Poissons Ratio (x) = 0.25161 0.82361
# Poissons Ratio (y) = 0.27371 0.73441
# Poissons Ratio (z) = 0.24378 0.19983
#
# Static dielectric constant tensor:
#      x y z
#    x 3.172560 0.000000 0.000000 
#    y 0.000000 2.692430 0.000000 
#    z 0.000000 0.000000 3.910010 
# 
# 
# High freq. dielectric constant tensor:
#      x y z
#    x 1.672280 0.000000 0.000000 
#    y 0.000000 1.616760 0.000000 
#    z 0.000000 0.000000 1.704220 
# 
# From -- ./inp_files/76440.got.cif
#   From: 2010.03.12/outbox.cif.g09.slc.cpg/sg65_39_cif.got.tgz:76440.got - 2010.04.10 20:52:16.
