data_PCOD8272943
_publ_section_title
;
Structure prediction by ZEFSAII (Michael W. Deem and Ramdas Pophale) SiO2 
 PCOD8272943
Probable space group: C M M M
;
_chemical_formula_sum "Si O2"
_cell_formula_units_Z 96
_cell_length_a 9.250935
_cell_length_b 18.800387
_cell_length_c 30.272381
_cell_angle_alpha 90.000000
_cell_angle_beta 90.000000
_cell_angle_gamma 90.000000
_cell_volume 5265.007562
_symmetry_space_group_name_H-M "C M M M"
_symmetry_group_IT_number 65
_symmetry_cell_setting 'orthorhombic'
loop_
_space_group_symop_operation_xyz
x,y,z
-x,-y,z
x,-y,-z
-x,y,-z
-x,-y,-z
x,y,-z
-x,y,z
x,-y,z
1/2+x,1/2+y,z
1/2-x,1/2-y,z
1/2+x,1/2-y,-z
1/2-x,1/2+y,-z
1/2-x,1/2-y,-z
1/2+x,1/2+y,-z
1/2-x,1/2+y,z
1/2+x,1/2-y,z
loop_
_atom_site_type_symbol
_atom_site_label
_atom_site_fract_x
_atom_site_fract_y
_atom_site_fract_z
Si Si1 0.665014 0.416149 0.115977
Si Si2 0.828286 0.674973 0.619449
Si Si3 0.169470 0.580877 0.702541
Si Si4 0.334806 0.581496 0.551619
Si Si5 0.160953 0.915499 0.786243
Si Si6 0.331775 0.179004 0.050832
O O1 0.500000 0.393302 0.105756
O O2 0.680686 0.500000 0.113062
O O3 0.709925 0.388846 0.165130
O O4 0.773739 0.384922 0.080282
O O5 0.750000 0.750000 0.622675
O O6 0.781036 0.629161 0.661857
O O7 0.775037 0.633359 0.576315
O O8 0.000000 0.685702 0.616469
O O9 0.223345 0.500000 0.693884
O O10 0.236280 0.613495 0.747479
O O11 0.000000 0.582614 0.708899
O O12 0.314333 0.595647 0.500000
O O13 0.500000 0.597931 0.565597
O O14 0.296064 0.500000 0.563140
O O15 0.000000 0.887693 0.776132
O O16 0.163764 0.000000 0.786770
O O17 0.500000 0.190352 0.059701
O O18 0.250000 0.250000 0.065316
O O19 0.299887 0.159979 0.000000
#
# Coordination Sequence:
#
# PCOD8272943 Si02
#       6
#    16  16  16  16  16  16
#     4   9  18  33  53  78 107 136 168 208 254 305
#     4  11  23  37  53  76 108 143 178 216 259 307
#     4   9  18  33  53  76 101 131 170 214 257 303
#     4   9  19  37  60  84 108 135 171 214 258 308
#     4   8  15  29  50  76 103 131 165 205 250 302
#     4  10  21  36  53  73  99 133 173 214 256 306
#
# _framework density 18.233592000000002
#
# number of rings (size 3 to 8) (size 9 to 14) (size 15 to 20)
#    0.000    2.667    0.000    3.000    0.000    5.333 
#    0.000    6.667    0.000    2.000    0.000    0.000 
#    0.000    0.000    0.000    0.000    0.000    0.000 
#
# Total GULP energy -595141.693852 kJ/mol
# GULP energy per Si atom -12398.785289 kJ/mol
# Density = 1.819209 g / cm^3
# Si number density = 18.233592 Si / 1000 Ang^3
#
#
#
# Elastic Constant Matrix: (Units=GPa)
#
#
# Indices 1 2 3 4 5 6 
#
# 1 80.9842 49.0447 60.0640 0.0000 0.0000 0.0000
# 2 49.0447 76.1608 56.1829 0.0000 0.0000 0.0000
# 3 60.0640 56.1829 111.3903 0.0000 0.0000 0.0000
# 4 0.0000 0.0000 0.0000 4.2784 0.0000 0.0000
# 5 0.0000 0.0000 0.0000 0.0000 37.8684 0.0000
# 6 0.0000 0.0000 0.0000 0.0000 0.0000 24.8996
#
#
#
# Elastic Compliance Matrix: (Units=1/GPa)
#
#
# Indices 1 2 3 4 5 6 
#
# 1 0.024245 -0.009506 -0.008279 0.000000 0.000000 0.000000
# 2 -0.009506 0.024637 -0.007301 0.000000 0.000000 0.000000
# 3 -0.008279 -0.007301 0.017124 0.000000 0.000000 0.000000
# 4 0.000000 0.000000 0.000000 0.233732 0.000000 0.000000
# 5 0.000000 0.000000 0.000000 0.000000 0.026407 0.000000
# 6 0.000000 0.000000 0.000000 0.000000 0.000000 0.040161
#
#
# Mechanical properties :
#
#
# Convention : Reuss Voigt Hill
#
# Bulk Modulus (GPa) = 63.14988 66.56874 64.85931
# Shear Modulus (GPa) = 11.85519 20.29219 16.07369
#
# Velocity S-wave (km/s) = 2.55264 3.33964 2.97230
# Velocity P-wave (km/s) = 6.58764 7.17349 6.88680
#
# Compressibility (1/GPa) = 0.01583534
#
# Stress axis : x y z
#
# Youngs Moduli (GPa) = 41.24533 40.58922 58.39737
#
# Poissons Ratio (x) = 0.38583 0.48348
# Poissons Ratio (y) = 0.39206 0.42635
# Poissons Ratio (z) = 0.34147 0.29633
#
# Static dielectric constant tensor:
#      x y z
#    x 3.386670 0.000000 0.000000 
#    y 0.000000 3.169550 0.000000 
#    z 0.000000 0.000000 3.548430 
# 
# 
# High freq. dielectric constant tensor:
#      x y z
#    x 1.707060 0.000000 0.000000 
#    y 0.000000 1.684600 0.000000 
#    z 0.000000 0.000000 1.717180 
# 
# From -- ./inp_files/73141.got.cif
#   From: 2010.03.12/outbox.cif.g09.slc.cpg/sg65_37_cif.got.tgz:73141.got - 2010.04.10 20:52:16.
