data_PCOD8272142
_publ_section_title
;
Structure prediction by ZEFSAII (Michael W. Deem and Ramdas Pophale) SiO2 
 PCOD8272142
Probable space group: C M M M
;
_chemical_formula_sum "Si O2"
_cell_formula_units_Z 88
_cell_length_a 23.218742
_cell_length_b 8.825087
_cell_length_c 22.673300
_cell_angle_alpha 90.000000
_cell_angle_beta 90.000000
_cell_angle_gamma 90.000000
_cell_volume 4645.927365
_symmetry_space_group_name_H-M "C M M M"
_symmetry_group_IT_number 65
_symmetry_cell_setting 'orthorhombic'
loop_
_space_group_symop_operation_xyz
x,y,z
-x,-y,z
x,-y,-z
-x,y,-z
-x,-y,-z
x,y,-z
-x,y,z
x,-y,z
1/2+x,1/2+y,z
1/2-x,1/2-y,z
1/2+x,1/2-y,-z
1/2-x,1/2+y,-z
1/2-x,1/2-y,-z
1/2+x,1/2+y,-z
1/2-x,1/2+y,z
1/2+x,1/2-y,z
loop_
_atom_site_type_symbol
_atom_site_label
_atom_site_fract_x
_atom_site_fract_y
_atom_site_fract_z
Si Si1 0.616272 0.177072 0.605448
Si Si2 0.313311 0.680564 0.500000
Si Si3 0.500000 0.321064 0.219771
Si Si4 0.690492 0.177869 0.933796
Si Si5 0.000000 0.180772 0.355608
Si Si6 0.614348 0.179101 0.173496
Si Si7 0.190200 0.673649 0.720092
O O1 0.653108 0.264053 0.557184
O O2 0.553951 0.252292 0.609358
O O3 0.646253 0.203006 0.667685
O O4 0.611133 0.000000 0.589108
O O5 0.308599 0.500000 0.500000
O O6 0.250000 0.750000 0.500000
O O7 0.500000 0.500000 0.219133
O O8 0.500000 0.262479 0.287494
O O9 0.554631 0.262057 0.184002
O O10 0.750000 0.250000 0.911452
O O11 0.638120 0.224699 0.890993
O O12 0.700008 0.000000 0.931725
O O13 0.675191 0.233623 0.000000
O O14 0.000000 0.000000 0.359440
O O15 0.661008 0.238863 0.220831
O O16 0.604281 0.000000 0.180311
O O17 0.204632 0.500000 0.729196
O O18 0.250000 0.750000 0.705027
#
# Coordination Sequence:
#
# PCOD8272142 Si02
#       7
#    16   8   8  16   8  16  16
#     4  11  23  41  64  89 118 156 198 240 290 350
#     4  12  26  45  66  91 124 160 198 240 290 346
#     4  11  23  37  57  85 115 150 193 241 294 345
#     4   9  18  33  55  83 115 152 193 237 287 343
#     4  11  23  40  62  90 120 153 192 245 298 349
#     4  10  20  36  56  80 112 152 193 236 288 346
#     4  10  21  34  54  83 113 146 186 234 287 342
#
# _framework density 18.941320999999999
#
# number of rings (size 3 to 8) (size 9 to 14) (size 15 to 20)
#    0.000    1.636    1.818    3.000    0.000    5.455 
#    0.000    2.273    0.000    2.727    0.000    0.000 
#    0.000    0.000    0.000    0.000    0.000    0.000 
#
# Total GULP energy -545723.792004 kJ/mol
# GULP energy per Si atom -12402.813455 kJ/mol
# Density = 1.889821 g / cm^3
# Si number density = 18.941321 Si / 1000 Ang^3
#
#
#
# Elastic Constant Matrix: (Units=GPa)
#
#
# Indices 1 2 3 4 5 6 
#
# 1 153.4899 62.3126 52.0151 0.0000 0.0000 0.0000
# 2 62.3126 80.8593 50.0367 0.0000 0.0000 0.0000
# 3 52.0151 50.0367 98.8055 0.0000 0.0000 0.0000
# 4 0.0000 0.0000 0.0000 125.9098 0.0000 0.0000
# 5 0.0000 0.0000 0.0000 0.0000 34.9502 0.0000
# 6 0.0000 0.0000 0.0000 0.0000 0.0000 36.2797
#
#
#
# Elastic Compliance Matrix: (Units=1/GPa)
#
#
# Indices 1 2 3 4 5 6 
#
# 1 0.009728 -0.006302 -0.001929 0.000000 0.000000 0.000000
# 2 -0.006302 0.022095 -0.007871 0.000000 0.000000 0.000000
# 3 -0.001929 -0.007871 0.015123 0.000000 0.000000 0.000000
# 4 0.000000 0.000000 0.000000 0.007942 0.000000 0.000000
# 5 0.000000 0.000000 0.000000 0.000000 0.028612 0.000000
# 6 0.000000 0.000000 0.000000 0.000000 0.000000 0.027564
#
#
# Mechanical properties :
#
#
# Convention : Reuss Voigt Hill
#
# Bulk Modulus (GPa) = 67.84739 73.54263 70.69501
# Shear Modulus (GPa) = 33.74223 50.68062 42.21142
#
# Velocity S-wave (km/s) = 4.22525 5.17829 4.72586
# Velocity P-wave (km/s) = 7.72666 8.64082 8.19649
#
# Compressibility (1/GPa) = 0.01473896
#
# Stress axis : x y z
#
# Youngs Moduli (GPa) = 102.80121 45.25927 66.12565
#
# Poissons Ratio (x) = 0.28524 0.12757
# Poissons Ratio (y) = 0.64790 0.52050
# Poissons Ratio (z) = 0.19833 0.35625
#
# Static dielectric constant tensor:
#      x y z
#    x 4.002060 0.000000 0.000000 
#    y 0.000000 3.477200 0.000000 
#    z 0.000000 0.000000 3.930760 
# 
# 
# High freq. dielectric constant tensor:
#      x y z
#    x 1.743590 0.000000 0.000000 
#    y 0.000000 1.735450 0.000000 
#    z 0.000000 0.000000 1.742870 
# 
# From -- ./inp_files/71093.got.cif
#   From: 2010.03.12/outbox.cif.g09.slc.cpg/sg65_36_cif.got.tgz:71093.got - 2010.04.10 20:52:16.
