data_PCOD8272190
_publ_section_title
;
Structure prediction by ZEFSAII (Michael W. Deem and Ramdas Pophale) SiO2 
 PCOD8272190
Probable space group: C M M M
;
_chemical_formula_sum "Si O2"
_cell_formula_units_Z 104
_cell_length_a 21.432738
_cell_length_b 28.096222
_cell_length_c 8.934610
_cell_angle_alpha 90.000000
_cell_angle_beta 90.000000
_cell_angle_gamma 90.000000
_cell_volume 5380.234202
_symmetry_space_group_name_H-M "C M M M"
_symmetry_group_IT_number 65
_symmetry_cell_setting 'orthorhombic'
loop_
_space_group_symop_operation_xyz
x,y,z
-x,-y,z
x,-y,-z
-x,y,-z
-x,-y,-z
x,y,-z
-x,y,z
x,-y,z
1/2+x,1/2+y,z
1/2-x,1/2-y,z
1/2+x,1/2-y,-z
1/2-x,1/2+y,-z
1/2-x,1/2-y,-z
1/2+x,1/2+y,-z
1/2-x,1/2+y,z
1/2+x,1/2-y,z
loop_
_atom_site_type_symbol
_atom_site_label
_atom_site_fract_x
_atom_site_fract_y
_atom_site_fract_z
Si Si1 0.897547 0.869932 0.677434
Si Si2 0.429134 0.725015 0.835092
Si Si3 0.281173 0.594818 0.176248
Si Si4 0.000000 0.945473 0.677237
Si Si5 0.719477 0.500000 0.333052
Si Si6 0.074227 0.316547 0.668770
Si Si7 0.362051 0.096151 0.176595
Si Si8 0.132957 0.500000 0.666774
O O1 0.893009 0.867843 0.500000
O O2 0.929275 0.822309 0.736566
O O3 0.828216 0.868097 0.748080
O O4 0.938590 0.915803 0.729744
O O5 0.500000 0.739867 0.861007
O O6 0.397497 0.768909 0.745615
O O7 0.397439 0.718263 0.000000
O O8 0.304515 0.544867 0.241783
O O9 0.209976 0.605680 0.222424
O O10 0.289648 0.594968 0.000000
O O11 0.000000 0.948350 0.500000
O O12 0.000000 0.000000 0.742734
O O13 0.689816 0.500000 0.500000
O O14 0.793202 0.500000 0.343121
O O15 0.100601 0.319692 0.500000
O O16 0.096488 0.361413 0.763337
O O17 0.000000 0.316136 0.666126
O O18 0.388607 0.047228 0.246294
O O19 0.368845 0.091786 0.000000
O O20 0.103722 0.500000 0.500000
#
# Coordination Sequence:
#
# PCOD8272190 Si02
#       8
#    16  16  16   8   8  16  16   8
#     4  11  21  35  57  81 110 148 191 235 280 331
#     4  10  20  36  58  81 108 143 184 229 279 335
#     4  10  21  35  52  78 112 147 184 229 277 328
#     4   9  20  36  53  79 115 151 188 235 282 325
#     4   9  17  31  51  75 101 141 189 226 265 319
#     4  10  21  37  60  87 113 140 179 229 278 329
#     4  10  20  36  57  82 115 151 185 225 275 330
#     4   9  17  31  54  80 110 146 185 223 264 318
#
# _framework density 19.330013999999998
#
# number of rings (size 3 to 8) (size 9 to 14) (size 15 to 20)
#    0.000    2.077    0.769    2.769    1.077    5.231 
#    0.000    1.154    0.000    8.769    0.000    0.000 
#    0.000    0.000    0.000    0.000    0.000    0.000 
#
# Total GULP energy -644640.080927 kJ/mol
# GULP energy per Si atom -12396.924633 kJ/mol
# Density = 1.928602 g / cm^3
# Si number density = 19.330014 Si / 1000 Ang^3
#
#
#
# Elastic Constant Matrix: (Units=GPa)
#
#
# Indices 1 2 3 4 5 6 
#
# 1 28.4298 20.4326 22.5700 0.0000 0.0000 0.0000
# 2 20.4326 138.6653 46.3171 0.0000 0.0000 0.0000
# 3 22.5700 46.3171 107.6023 0.0000 0.0000 0.0000
# 4 0.0000 0.0000 0.0000 37.0860 0.0000 0.0000
# 5 0.0000 0.0000 0.0000 0.0000 26.0655 0.0000
# 6 0.0000 0.0000 0.0000 0.0000 0.0000 18.3526
#
#
#
# Elastic Compliance Matrix: (Units=1/GPa)
#
#
# Indices 1 2 3 4 5 6 
#
# 1 0.043998 -0.003972 -0.007519 0.000000 0.000000 0.000000
# 2 -0.003972 0.008781 -0.002947 0.000000 0.000000 0.000000
# 3 -0.007519 -0.002947 0.012139 0.000000 0.000000 0.000000
# 4 0.000000 0.000000 0.000000 0.026964 0.000000 0.000000
# 5 0.000000 0.000000 0.000000 0.000000 0.038365 0.000000
# 6 0.000000 0.000000 0.000000 0.000000 0.000000 0.054488
#
#
# Mechanical properties :
#
#
# Convention : Reuss Voigt Hill
#
# Bulk Modulus (GPa) = 27.74449 50.37074 39.05762
# Shear Modulus (GPa) = 22.16063 28.65932 25.40998
#
# Velocity S-wave (km/s) = 3.38958 3.85468 3.62958
# Velocity P-wave (km/s) = 5.45007 6.77689 6.14937
#
# Compressibility (1/GPa) = 0.03604319
#
# Stress axis : x y z
#
# Youngs Moduli (GPa) = 22.72824 113.88079 82.37866
#
# Poissons Ratio (x) = 0.45229 0.61942
# Poissons Ratio (y) = 0.09027 0.24275
# Poissons Ratio (z) = 0.17090 0.33558
#
# Static dielectric constant tensor:
#      x y z
#    x 3.276340 0.000000 0.000000 
#    y 0.000000 3.542810 0.000000 
#    z 0.000000 0.000000 3.731730 
# 
# 
# High freq. dielectric constant tensor:
#      x y z
#    x 1.722300 0.000000 0.000000 
#    y 0.000000 1.755220 0.000000 
#    z 0.000000 0.000000 1.763630 
# 
# From -- ./inp_files/12483.got.cif
#   From: 2010.03.12/outbox.cif.g09.slc.cpg/sg65_7_cif.got.tgz:12483.got - 2010.04.10 20:52:16.
