data_PCOD8272512
_publ_section_title
;
Structure prediction by ZEFSAII (Michael W. Deem and Ramdas Pophale) SiO2 
 PCOD8272512
Probable space group: C M M M
;
_chemical_formula_sum "Si O2"
_cell_formula_units_Z 96
_cell_length_a 18.789396
_cell_length_b 18.321341
_cell_length_c 14.671299
_cell_angle_alpha 90.000000
_cell_angle_beta 90.000000
_cell_angle_gamma 90.000000
_cell_volume 5050.549659
_symmetry_space_group_name_H-M "C M M M"
_symmetry_group_IT_number 65
_symmetry_cell_setting 'orthorhombic'
loop_
_space_group_symop_operation_xyz
x,y,z
-x,-y,z
x,-y,-z
-x,y,-z
-x,-y,-z
x,y,-z
-x,y,z
x,-y,z
1/2+x,1/2+y,z
1/2-x,1/2-y,z
1/2+x,1/2-y,-z
1/2-x,1/2+y,-z
1/2-x,1/2-y,-z
1/2+x,1/2+y,-z
1/2-x,1/2+y,z
1/2+x,1/2-y,z
loop_
_atom_site_type_symbol
_atom_site_label
_atom_site_fract_x
_atom_site_fract_y
_atom_site_fract_z
Si Si1 0.341270 0.081797 0.235279
Si Si2 0.417032 0.357806 0.104307
Si Si3 0.822392 0.788455 0.395251
Si Si4 0.582057 0.847589 0.395903
Si Si5 0.580933 0.809688 0.895277
Si Si6 0.823881 0.081916 0.261424
O O1 0.373768 0.095946 0.335149
O O2 0.369633 0.138861 0.163029
O O3 0.257536 0.092111 0.235176
O O4 0.362557 0.000000 0.205928
O O5 0.500000 0.370735 0.124479
O O6 0.396390 0.273642 0.121227
O O7 0.370926 0.407138 0.171275
O O8 0.399691 0.379623 0.000000
O O9 0.811352 0.811616 0.500000
O O10 0.750000 0.750000 0.358844
O O11 0.888180 0.733822 0.382517
O O12 0.843292 0.860639 0.339858
O O13 0.591261 0.873401 0.500000
O O14 0.500000 0.847002 0.365765
O O15 0.500000 0.821536 0.864121
O O16 0.590607 0.831211 0.000000
O O17 0.837970 0.000000 0.298289
#
# Coordination Sequence:
#
# PCOD8272512 Si02
#       6
#    16  16  16  16  16  16
#     4  11  23  36  51  78 118 155 185 228 287 344
#     4   9  20  40  64  87 112 148 196 248 298 348
#     4  10  20  38  62  83 110 152 195 235 286 345
#     4  10  21  37  59  86 111 143 193 244 284 333
#     4   9  19  36  57  80 105 140 189 236 279 335
#     4  11  24  37  55  87 120 151 190 234 287 351
#
# _framework density 19.007832000000001
#
# number of rings (size 3 to 8) (size 9 to 14) (size 15 to 20)
#    0.000    2.000    1.667    2.500    0.000    5.667 
#    0.000    7.500    0.000    0.000    0.000    3.500 
#    0.000    0.000    0.000    0.000    0.000    0.000 
#
# Total GULP energy -595319.303572 kJ/mol
# GULP energy per Si atom -12402.485491 kJ/mol
# Density = 1.896457 g / cm^3
# Si number density = 19.007832 Si / 1000 Ang^3
#
#
#
# Elastic Constant Matrix: (Units=GPa)
#
#
# Indices 1 2 3 4 5 6 
#
# 1 93.4306 37.6475 39.5479 0.0000 0.0000 0.0000
# 2 37.6475 75.5170 37.2358 0.0000 0.0000 0.0000
# 3 39.5479 37.2358 76.1382 0.0000 0.0000 0.0000
# 4 0.0000 0.0000 0.0000 14.7272 0.0000 0.0000
# 5 0.0000 0.0000 0.0000 0.0000 29.9033 0.0000
# 6 0.0000 0.0000 0.0000 0.0000 0.0000 -21.7630
#
#
#
# Elastic Compliance Matrix: (Units=1/GPa)
#
#
# Indices 1 2 3 4 5 6 
#
# 1 0.014916 -0.004765 -0.005418 0.000000 0.000000 0.000000
# 2 -0.004765 0.018972 -0.006803 0.000000 0.000000 0.000000
# 3 -0.005418 -0.006803 0.019275 0.000000 0.000000 0.000000
# 4 0.000000 0.000000 0.000000 0.067902 0.000000 0.000000
# 5 0.000000 0.000000 0.000000 0.000000 0.033441 0.000000
# 6 0.000000 0.000000 0.000000 0.000000 0.000000 -0.045949
#
#
# Mechanical properties :
#
#
# Convention : Reuss Voigt Hill
#
# Bulk Modulus (GPa) = 52.10531 52.66090 52.38310
# Shear Modulus (GPa) = 33.57369 13.28379 23.42874
#
# Velocity S-wave (km/s) = 4.20731 2.64646 3.51463
# Velocity P-wave (km/s) = 7.14660 6.09125 6.63993
#
# Compressibility (1/GPa) = 0.01919190
#
# Stress axis : x y z
#
# Youngs Moduli (GPa) = 67.04066 52.70890 51.88009
#
# Poissons Ratio (x) = 0.25116 0.28106
# Poissons Ratio (y) = 0.31945 0.35296
# Poissons Ratio (z) = 0.36320 0.35860
#
# Static dielectric constant tensor:
#      x y z
#    x 3.481200 0.000000 0.000000 
#    y 0.000000 3.478570 0.000000 
#    z 0.000000 0.000000 3.487560 
# 
# 
# High freq. dielectric constant tensor:
#      x y z
#    x 1.741050 0.000000 0.000000 
#    y 0.000000 1.735420 0.000000 
#    z 0.000000 0.000000 1.742130 
# 
# From -- ./inp_files/44100.got.cif
#   From: 2010.03.12/outbox.cif.g09.slc.cpg/sg65_23_cif.got.tgz:44100.got - 2010.04.10 20:52:16.
