data_PCOD8272523
_publ_section_title
;
Structure prediction by ZEFSAII (Michael W. Deem and Ramdas Pophale) SiO2 
 PCOD8272523
Probable space group: C M M M
;
_chemical_formula_sum "Si O2"
_cell_formula_units_Z 64
_cell_length_a 22.039129
_cell_length_b 16.562725
_cell_length_c 8.785198
_cell_angle_alpha 90.000000
_cell_angle_beta 90.000000
_cell_angle_gamma 90.000000
_cell_volume 3206.843544
_symmetry_space_group_name_H-M "C M M M"
_symmetry_group_IT_number 65
_symmetry_cell_setting 'orthorhombic'
loop_
_space_group_symop_operation_xyz
x,y,z
-x,-y,z
x,-y,-z
-x,y,-z
-x,-y,-z
x,y,-z
-x,y,z
x,-y,z
1/2+x,1/2+y,z
1/2-x,1/2-y,z
1/2+x,1/2-y,-z
1/2-x,1/2+y,-z
1/2-x,1/2-y,-z
1/2+x,1/2+y,-z
1/2-x,1/2+y,z
1/2+x,1/2-y,z
loop_
_atom_site_type_symbol
_atom_site_label
_atom_site_fract_x
_atom_site_fract_y
_atom_site_fract_z
Si Si1 0.359236 0.844473 0.322352
Si Si2 0.773391 0.093775 0.674056
Si Si3 0.931460 0.500000 0.319030
Si Si4 0.614787 0.323913 0.822378
Si Si5 0.000000 0.091336 0.320047
O O1 0.372369 0.829198 0.500000
O O2 0.288293 0.858516 0.293765
O O3 0.380606 0.768477 0.226664
O O4 0.397052 0.920640 0.259494
O O5 0.794457 0.107079 0.500000
O O6 0.823996 0.128135 0.785190
O O7 0.762149 0.000000 0.707809
O O8 0.929757 0.500000 0.500000
O O9 0.000000 0.500000 0.256202
O O10 0.559538 0.364209 0.735997
O O11 0.602109 0.328805 0.000000
O O12 0.000000 0.092228 0.500000
O O13 0.000000 0.000000 0.257276
#
# Coordination Sequence:
#
# PCOD8272523 Si02
#       5
#    16  16   8  16   8
#     4  10  20  38  63  92 123 161 210 260 304 353
#     4  10  20  38  63  90 121 160 213 265 306 353
#     4   9  18  34  61  95 123 154 204 261 308 350
#     4  12  26  40  59  91 129 163 199 247 311 376
#     4  11  25  47  71  92 115 154 207 255 304 361
#
# _framework density 19.957318000000001
#
# number of rings (size 3 to 8) (size 9 to 14) (size 15 to 20)
#    0.000    1.500    1.250    4.125    1.750    8.500 
#    0.000    0.625    0.000    0.750    0.000    0.000 
#    0.000    0.000    0.000    0.000    0.000    0.000 
#
# Total GULP energy -396968.664677 kJ/mol
# GULP energy per Si atom -12405.270771 kJ/mol
# Density = 1.991189 g / cm^3
# Si number density = 19.957318 Si / 1000 Ang^3
#
#
#
# Elastic Constant Matrix: (Units=GPa)
#
#
# Indices 1 2 3 4 5 6 
#
# 1 115.1595 50.6732 28.1217 0.0000 0.0000 0.0000
# 2 50.6732 137.6167 35.6271 0.0000 0.0000 0.0000
# 3 28.1217 35.6271 58.4050 0.0000 0.0000 0.0000
# 4 0.0000 0.0000 0.0000 -4.1238 0.0000 0.0000
# 5 0.0000 0.0000 0.0000 0.0000 -5.2226 0.0000
# 6 0.0000 0.0000 0.0000 0.0000 0.0000 24.0930
#
#
#
# Elastic Compliance Matrix: (Units=1/GPa)
#
#
# Indices 1 2 3 4 5 6 
#
# 1 0.010879 -0.003147 -0.003319 0.000000 0.000000 0.000000
# 2 -0.003147 0.009539 -0.004304 0.000000 0.000000 0.000000
# 3 -0.003319 -0.004304 0.021345 0.000000 0.000000 0.000000
# 4 0.000000 0.000000 0.000000 -0.242497 0.000000 0.000000
# 5 0.000000 0.000000 0.000000 0.000000 -0.191476 0.000000
# 6 0.000000 0.000000 0.000000 0.000000 0.000000 0.041506
#
#
# Mechanical properties :
#
#
# Convention : Reuss Voigt Hill
#
# Bulk Modulus (GPa) = 49.44409 60.00280 54.72345
# Shear Modulus (GPa) = -15.50753 16.06661 0.27954
#
# Velocity S-wave (km/s) = -2.79056 2.84042 0.37466
# Velocity P-wave (km/s) = 3.80076 6.39438 5.25994
#
# Compressibility (1/GPa) = 0.02022486
#
# Stress axis : x y z
#
# Youngs Moduli (GPa) = 91.92383 104.82798 46.84902
#
# Poissons Ratio (x) = 0.32985 0.15547
# Poissons Ratio (y) = 0.28924 0.20164
# Poissons Ratio (z) = 0.30506 0.45118
#
# Static dielectric constant tensor:
#      x y z
#    x 3.872110 0.000000 0.000000 
#    y 0.000000 3.835130 0.000000 
#    z 0.000000 0.000000 3.399750 
# 
# 
# High freq. dielectric constant tensor:
#      x y z
#    x 1.793210 0.000000 0.000000 
#    y 0.000000 1.799170 0.000000 
#    z 0.000000 0.000000 1.753540 
# 
# From -- ./inp_files/6730.got.cif
#   From: 2010.03.12/outbox.cif.g09.slc.cpg/sg65_4_cif.got.tgz:6730.got - 2010.04.10 20:52:16.
