data_PCOD8272941
_publ_section_title
;
Structure prediction by ZEFSAII (Michael W. Deem and Ramdas Pophale) SiO2 
 PCOD8272941
Probable space group: C M M M
;
_chemical_formula_sum "Si O2"
_cell_formula_units_Z 80
_cell_length_a 19.664338
_cell_length_b 9.411365
_cell_length_c 24.916988
_cell_angle_alpha 90.000000
_cell_angle_beta 90.000000
_cell_angle_gamma 90.000000
_cell_volume 4611.343673
_symmetry_space_group_name_H-M "C M M M"
_symmetry_group_IT_number 65
_symmetry_cell_setting 'orthorhombic'
loop_
_space_group_symop_operation_xyz
x,y,z
-x,-y,z
x,-y,-z
-x,y,-z
-x,-y,-z
x,y,-z
-x,y,z
x,-y,z
1/2+x,1/2+y,z
1/2-x,1/2-y,z
1/2+x,1/2-y,-z
1/2-x,1/2+y,-z
1/2-x,1/2-y,-z
1/2+x,1/2+y,-z
1/2-x,1/2+y,z
1/2+x,1/2-y,z
loop_
_atom_site_type_symbol
_atom_site_label
_atom_site_fract_x
_atom_site_fract_y
_atom_site_fract_z
Si Si1 0.919221 0.842859 0.249075
Si Si2 0.920440 0.165135 0.631199
Si Si3 0.683674 0.835770 0.563159
Si Si4 0.816421 0.665562 0.061135
Si Si5 0.077414 0.666266 0.850455
O O1 0.895303 0.796112 0.308450
O O2 0.891739 0.737707 0.203166
O O3 0.000000 0.844146 0.249226
O O4 0.891288 0.000000 0.235977
O O5 0.881980 0.267451 0.590493
O O6 0.000000 0.196099 0.624316
O O7 0.904790 0.000000 0.618659
O O8 0.673149 0.820585 0.500000
O O9 0.750000 0.750000 0.582446
O O10 0.691438 0.000000 0.580280
O O11 0.800400 0.500000 0.067869
O O12 0.750000 0.750000 0.079745
O O13 0.879159 0.713784 0.098083
O O14 0.836224 0.703189 0.000000
O O15 0.081739 0.500000 0.840598
O O16 0.000000 0.715242 0.861301
#
# Coordination Sequence:
#
# PCOD8272941 Si02
#       5
#    16  16  16  16  16
#     4   8  15  29  48  70  97 127 156 189 233 281
#     4   9  18  33  53  76 101 130 164 200 240 288
#     4  10  21  36  53  73  99 131 165 202 245 291
#     4   9  18  32  48  66  91 123 156 191 233 280
#     4   9  17  29  47  71  95 120 154 194 234 277
#
# _framework density 17.348521999999999
#
# number of rings (size 3 to 8) (size 9 to 14) (size 15 to 20)
#    0.000    3.000    0.000    1.800    0.000    4.000 
#    0.000    7.000    0.000    2.400    0.000    5.600 
#    0.000    0.000    0.000    0.000    0.000    0.000 
#
# Total GULP energy -495917.887799 kJ/mol
# GULP energy per Si atom -12397.947195 kJ/mol
# Density = 1.730904 g / cm^3
# Si number density = 17.348522 Si / 1000 Ang^3
#
#
#
# Elastic Constant Matrix: (Units=GPa)
#
#
# Indices 1 2 3 4 5 6 
#
# 1 78.2060 53.9961 53.6794 0.0000 0.0000 0.0000
# 2 53.9961 82.6493 56.0989 0.0000 0.0000 0.0000
# 3 53.6794 56.0989 82.3373 0.0000 0.0000 0.0000
# 4 0.0000 0.0000 0.0000 33.1993 0.0000 0.0000
# 5 0.0000 0.0000 0.0000 0.0000 10.2197 0.0000
# 6 0.0000 0.0000 0.0000 0.0000 0.0000 28.3722
#
#
#
# Elastic Compliance Matrix: (Units=1/GPa)
#
#
# Indices 1 2 3 4 5 6 
#
# 1 0.027490 -0.010780 -0.010577 0.000000 0.000000 0.000000
# 2 -0.010780 0.026736 -0.011188 0.000000 0.000000 0.000000
# 3 -0.010577 -0.011188 0.026663 0.000000 0.000000 0.000000
# 4 0.000000 0.000000 0.000000 0.030121 0.000000 0.000000
# 5 0.000000 0.000000 0.000000 0.000000 0.097850 0.000000
# 6 0.000000 0.000000 0.000000 0.000000 0.000000 0.035246
#
#
# Mechanical properties :
#
#
# Convention : Reuss Voigt Hill
#
# Bulk Modulus (GPa) = 63.29517 63.41571 63.35544
# Shear Modulus (GPa) = 15.90013 19.65278 17.77645
#
# Velocity S-wave (km/s) = 3.03068 3.36939 3.20451
# Velocity P-wave (km/s) = 6.98644 7.19516 7.09157
#
# Compressibility (1/GPa) = 0.01579899
#
# Stress axis : x y z
#
# Youngs Moduli (GPa) = 36.37745 37.40242 37.50471
#
# Poissons Ratio (x) = 0.40321 0.39668
# Poissons Ratio (y) = 0.39216 0.41960
# Poissons Ratio (z) = 0.38475 0.41846
#
# Static dielectric constant tensor:
#      x y z
#    x 3.059820 0.000000 0.000000 
#    y 0.000000 3.303670 0.000000 
#    z 0.000000 0.000000 3.389320 
# 
# 
# High freq. dielectric constant tensor:
#      x y z
#    x 1.647430 0.000000 0.000000 
#    y 0.000000 1.669900 0.000000 
#    z 0.000000 0.000000 1.674340 
# 
# From -- ./inp_files/72764.got.cif
#   From: 2010.03.12/outbox.cif.g09.slc.cpg/sg65_37_cif.got.tgz:72764.got - 2010.04.10 20:52:16.
