data_PCOD8272374
_publ_section_title
;
Structure prediction by ZEFSAII (Michael W. Deem and Ramdas Pophale) SiO2 
 PCOD8272374
Probable space group: C M M M
;
_chemical_formula_sum "Si O2"
_cell_formula_units_Z 88
_cell_length_a 13.893668
_cell_length_b 28.416822
_cell_length_c 11.938139
_cell_angle_alpha 90.000000
_cell_angle_beta 90.000000
_cell_angle_gamma 90.000000
_cell_volume 4713.343104
_symmetry_space_group_name_H-M "C M M M"
_symmetry_group_IT_number 65
_symmetry_cell_setting 'orthorhombic'
loop_
_space_group_symop_operation_xyz
x,y,z
-x,-y,z
x,-y,-z
-x,y,-z
-x,-y,-z
x,y,-z
-x,y,z
x,-y,z
1/2+x,1/2+y,z
1/2-x,1/2-y,z
1/2+x,1/2-y,-z
1/2-x,1/2+y,-z
1/2-x,1/2-y,-z
1/2+x,1/2+y,-z
1/2-x,1/2+y,z
1/2+x,1/2-y,z
loop_
_atom_site_type_symbol
_atom_site_label
_atom_site_fract_x
_atom_site_fract_y
_atom_site_fract_z
Si Si1 0.610796 0.000000 0.867400
Si Si2 0.896091 0.108507 0.500000
Si Si3 0.886007 0.671535 0.873623
Si Si4 0.288508 0.944976 0.500000
Si Si5 0.389972 0.635362 0.260741
Si Si6 0.200148 0.412627 0.255546
Si Si7 0.886149 0.224338 0.125304
O O1 0.663772 0.045584 0.821428
O O2 0.500000 0.000000 0.828091
O O3 0.618399 0.000000 0.000000
O O4 0.825350 0.064066 0.500000
O O5 0.884956 0.143067 0.394103
O O6 0.000000 0.083782 0.500000
O O7 0.849188 0.635741 0.780632
O O8 0.843127 0.723832 0.846419
O O9 0.000000 0.673034 0.867082
O O10 0.854901 0.656566 0.000000
O O11 0.329780 0.921863 0.614385
O O12 0.311788 0.000000 0.500000
O O13 0.500000 0.623264 0.220993
O O14 0.315760 0.592566 0.234586
O O15 0.348481 0.683117 0.206188
O O16 0.000000 0.227729 0.136681
O O17 0.856095 0.209758 0.000000
#
# Coordination Sequence:
#
# PCOD8272374 Si02
#       7
#     8   8  16   8  16  16  16
#     4  11  24  41  60  80 101 131 175 221 265 313
#     4   8  16  31  53  77  99 135 181 218 254 297
#     4   9  18  34  55  78 105 139 182 226 260 302
#     4  10  20  37  53  73 105 135 171 220 266 321
#     4   9  18  33  53  79 110 141 174 212 257 311
#     4  11  21  36  57  78 104 138 175 219 268 313
#     4   8  15  29  50  77 109 142 174 212 260 311
#
# _framework density 18.670399
#
# number of rings (size 3 to 8) (size 9 to 14) (size 15 to 20)
#    0.000    2.636    0.909    2.182    0.000    3.818 
#    0.000    5.455    0.000    6.000    0.000    0.000 
#    0.000    0.000    0.000    0.000    0.000    0.000 
#
# Total GULP energy -545223.120485 kJ/mol
# GULP energy per Si atom -12391.434556 kJ/mol
# Density = 1.862790 g / cm^3
# Si number density = 18.670399 Si / 1000 Ang^3
#
#
#
# Elastic Constant Matrix: (Units=GPa)
#
#
# Indices 1 2 3 4 5 6 
#
# 1 42.7594 54.0687 45.2393 0.0000 0.0000 0.0000
# 2 54.0687 121.4553 70.1660 0.0000 0.0000 0.0000
# 3 45.2393 70.1660 107.7949 0.0000 0.0000 0.0000
# 4 0.0000 0.0000 0.0000 26.0682 0.0000 0.0000
# 5 0.0000 0.0000 0.0000 0.0000 24.2815 0.0000
# 6 0.0000 0.0000 0.0000 0.0000 0.0000 28.9001
#
#
#
# Elastic Compliance Matrix: (Units=1/GPa)
#
#
# Indices 1 2 3 4 5 6 
#
# 1 0.063395 -0.020597 -0.013199 0.000000 0.000000 0.000000
# 2 -0.020597 0.019887 -0.004301 0.000000 0.000000 0.000000
# 3 -0.013199 -0.004301 0.017616 0.000000 0.000000 0.000000
# 4 0.000000 0.000000 0.000000 0.038361 0.000000 0.000000
# 5 0.000000 0.000000 0.000000 0.000000 0.041184 0.000000
# 6 0.000000 0.000000 0.000000 0.000000 0.000000 0.034602
#
#
# Mechanical properties :
#
#
# Convention : Reuss Voigt Hill
#
# Bulk Modulus (GPa) = 40.47742 67.88418 54.18080
# Shear Modulus (GPa) = 16.69596 22.68568 19.69082
#
# Velocity S-wave (km/s) = 2.99364 3.48955 3.25107
# Velocity P-wave (km/s) = 5.80312 7.25770 6.57078
#
# Compressibility (1/GPa) = 0.02470513
#
# Stress axis : x y z
#
# Youngs Moduli (GPa) = 15.77401 50.28304 56.76721
#
# Poissons Ratio (x) = 1.03567 0.74926
# Poissons Ratio (y) = 0.32490 0.24416
# Poissons Ratio (z) = 0.20820 0.21627
#
# Static dielectric constant tensor:
#      x y z
#    x 3.569000 0.000000 0.000000 
#    y 0.000000 3.572440 0.000000 
#    z 0.000000 0.000000 3.596070 
# 
# 
# High freq. dielectric constant tensor:
#      x y z
#    x 1.732050 0.000000 0.000000 
#    y 0.000000 1.713370 0.000000 
#    z 0.000000 0.000000 1.720960 
# 
# From -- ./inp_files/25405.got.cif
#   From: 2010.03.12/outbox.cif.g09.slc.cpg/sg65_13_cif.got.tgz:25405.got - 2010.04.10 20:52:16.
