data_PCOD8272838
_publ_section_title
;
Structure prediction by ZEFSAII (Michael W. Deem and Ramdas Pophale) SiO2 
 PCOD8272838
Probable space group: C M M M
;
_chemical_formula_sum "Si O2"
_cell_formula_units_Z 104
_cell_length_a 19.753159
_cell_length_b 18.682107
_cell_length_c 15.590740
_cell_angle_alpha 90.000000
_cell_angle_beta 90.000000
_cell_angle_gamma 90.000000
_cell_volume 5753.460605
_symmetry_space_group_name_H-M "C M M M"
_symmetry_group_IT_number 65
_symmetry_cell_setting 'orthorhombic'
loop_
_space_group_symop_operation_xyz
x,y,z
-x,-y,z
x,-y,-z
-x,y,-z
-x,-y,-z
x,y,-z
-x,y,z
x,-y,z
1/2+x,1/2+y,z
1/2-x,1/2-y,z
1/2+x,1/2-y,-z
1/2-x,1/2+y,-z
1/2-x,1/2-y,-z
1/2+x,1/2+y,-z
1/2-x,1/2+y,z
1/2+x,1/2-y,z
loop_
_atom_site_type_symbol
_atom_site_label
_atom_site_fract_x
_atom_site_fract_y
_atom_site_fract_z
Si Si1 0.762796 0.419131 0.282322
Si Si2 0.866260 0.918577 0.171642
Si Si3 0.840762 0.161595 0.000000
Si Si4 0.682840 0.813004 0.000000
Si Si5 0.000000 0.583408 0.097426
Si Si6 0.078240 0.791837 0.270775
Si Si7 0.374440 0.153526 0.824120
Si Si8 0.694616 0.310588 0.598839
O O1 0.781109 0.500000 0.308313
O O2 0.710633 0.416444 0.203805
O O3 0.830895 0.378752 0.254001
O O4 0.727179 0.382904 0.363991
O O5 0.915581 0.871076 0.230611
O O6 0.893994 0.000000 0.170161
O O7 0.865924 0.885389 0.078082
O O8 0.763498 0.188367 0.000000
O O9 0.868028 0.243005 0.000000
O O10 0.667025 0.853315 0.912051
O O11 0.938689 0.605232 0.158024
O O12 0.000000 0.500000 0.083917
O O13 0.000000 0.618100 0.000000
O O14 0.104997 0.734324 0.201359
O O15 0.124626 0.787974 0.355478
O O16 0.000000 0.777101 0.295369
O O17 0.677214 0.323151 0.500000
O O18 0.750000 0.250000 0.613673
#
# Coordination Sequence:
#
# PCOD8272838 Si02
#       8
#    16  16   8   8   8  16  16  16
#     4  10  21  36  58  85 115 148 187 239 294 351
#     4  10  21  35  53  80 113 149 195 246 292 339
#     4  11  19  32  51  80 111 147 194 249 299 340
#     4  11  22  29  55  82 112 149 195 252 293 337
#     4  11  24  36  50  76 116 164 206 247 288 332
#     4  11  23  38  61  85 114 157 197 234 290 354
#     4  12  20  37  54  81 116 156 201 244 288 344
#     4  10  21  39  65  92 117 144 182 237 297 357
#
# _framework density 18.076077000000002
#
# number of rings (size 3 to 8) (size 9 to 14) (size 15 to 20)
#    0.000    1.308    6.154    0.692    0.000    0.923 
#    0.000    1.154    0.000    0.923    0.000    4.308 
#    0.000    4.923    0.000    0.000    0.000    0.000 
#
# Total GULP energy -644507.003095 kJ/mol
# GULP energy per Si atom -12394.365444 kJ/mol
# Density = 1.803494 g / cm^3
# Si number density = 18.076077 Si / 1000 Ang^3
#
#
#
# Elastic Constant Matrix: (Units=GPa)
#
#
# Indices 1 2 3 4 5 6 
#
# 1 86.4491 20.3350 40.8938 0.0000 0.0000 0.0000
# 2 20.3350 92.5589 28.3413 0.0000 0.0000 0.0000
# 3 40.8938 28.3413 110.7958 0.0000 0.0000 0.0000
# 4 0.0000 0.0000 0.0000 22.7840 0.0000 0.0000
# 5 0.0000 0.0000 0.0000 0.0000 28.7603 0.0000
# 6 0.0000 0.0000 0.0000 0.0000 0.0000 22.2505
#
#
#
# Elastic Compliance Matrix: (Units=1/GPa)
#
#
# Indices 1 2 3 4 5 6 
#
# 1 0.014242 -0.001649 -0.004835 0.000000 0.000000 0.000000
# 2 -0.001649 0.011913 -0.002439 0.000000 0.000000 0.000000
# 3 -0.004835 -0.002439 0.011434 0.000000 0.000000 0.000000
# 4 0.000000 0.000000 0.000000 0.043890 0.000000 0.000000
# 5 0.000000 0.000000 0.000000 0.000000 0.034770 0.000000
# 6 0.000000 0.000000 0.000000 0.000000 0.000000 0.044943
#
#
# Mechanical properties :
#
#
# Convention : Reuss Voigt Hill
#
# Bulk Modulus (GPa) = 50.64707 52.10490 51.37599
# Shear Modulus (GPa) = 26.93688 28.10787 27.52238
#
# Velocity S-wave (km/s) = 3.86449 3.94760 3.90627
# Velocity P-wave (km/s) = 6.92763 7.04741 6.98778
#
# Compressibility (1/GPa) = 0.01974448
#
# Stress axis : x y z
#
# Youngs Moduli (GPa) = 70.21258 83.94275 87.45815
#
# Poissons Ratio (x) = 0.13838 0.42287
# Poissons Ratio (y) = 0.11575 0.21329
# Poissons Ratio (z) = 0.33948 0.20472
#
# Static dielectric constant tensor:
#      x y z
#    x 3.206250 0.000000 0.000000 
#    y 0.000000 3.460020 0.000000 
#    z 0.000000 0.000000 3.205360 
# 
# 
# High freq. dielectric constant tensor:
#      x y z
#    x 1.691860 0.000000 0.000000 
#    y 0.000000 1.707250 0.000000 
#    z 0.000000 0.000000 1.687420 
# 
# From -- ./inp_files/42920.got.cif
#   From: 2010.03.12/outbox.cif.g09.slc.cpg/sg65_22_cif.got.tgz:42920.got - 2010.04.10 20:52:16.
