data_PCOD8272025
_publ_section_title
;
Structure prediction by ZEFSAII (Michael W. Deem and Ramdas Pophale) SiO2 
 PCOD8272025
Probable space group: C M M M
;
_chemical_formula_sum "Si O2"
_cell_formula_units_Z 88
_cell_length_a 20.266833
_cell_length_b 24.485970
_cell_length_c 9.517829
_cell_angle_alpha 90.000000
_cell_angle_beta 90.000000
_cell_angle_gamma 90.000000
_cell_volume 4723.251812
_symmetry_space_group_name_H-M "C M M M"
_symmetry_group_IT_number 65
_symmetry_cell_setting 'orthorhombic'
loop_
_space_group_symop_operation_xyz
x,y,z
-x,-y,z
x,-y,-z
-x,y,-z
-x,-y,-z
x,y,-z
-x,y,z
x,-y,z
1/2+x,1/2+y,z
1/2-x,1/2-y,z
1/2+x,1/2-y,-z
1/2-x,1/2+y,-z
1/2-x,1/2-y,-z
1/2+x,1/2+y,-z
1/2-x,1/2+y,z
1/2+x,1/2-y,z
loop_
_atom_site_type_symbol
_atom_site_label
_atom_site_fract_x
_atom_site_fract_y
_atom_site_fract_z
Si Si1 0.711670 0.500000 0.833816
Si Si2 0.000000 0.063071 0.833699
Si Si3 0.422156 0.108662 0.158382
Si Si4 0.860104 0.108580 0.166770
Si Si5 0.689737 0.289463 0.337921
Si Si6 0.425581 0.792140 0.340827
Si Si7 0.358073 0.000000 0.832109
O O1 0.675032 0.553690 0.781330
O O2 0.784761 0.500000 0.771353
O O3 0.713857 0.500000 0.000000
O O4 0.936387 0.099043 0.786450
O O5 0.000000 0.000000 0.773285
O O6 0.000000 0.056750 0.000000
O O7 0.500000 0.104780 0.164481
O O8 0.395846 0.159553 0.246867
O O9 0.393910 0.053637 0.226785
O O10 0.396305 0.116707 0.000000
O O11 0.820032 0.157007 0.243204
O O12 0.854700 0.118679 0.000000
O O13 0.702668 0.306193 0.500000
O O14 0.750000 0.250000 0.286726
O O15 0.620009 0.259793 0.320248
O O16 0.424656 0.813229 0.500000
O O17 0.500000 0.776224 0.294129
O O18 0.362176 0.000000 0.000000
#
# Coordination Sequence:
#
# PCOD8272025 Si02
#       7
#     8   8  16  16  16  16   8
#     4   9  18  32  51  79 109 138 170 209 262 319
#     4   9  16  32  57  85 117 147 175 220 281 336
#     4   9  17  30  50  75 101 130 167 211 255 300
#     4  10  20  35  58  84 109 141 182 222 266 324
#     4  10  23  40  56  76 108 146 181 223 276 325
#     4   9  19  36  54  71  98 137 174 209 255 310
#     4   9  17  28  47  74 105 134 164 207 258 308
#
# _framework density 18.631231
#
# number of rings (size 3 to 8) (size 9 to 14) (size 15 to 20)
#    0.000    2.636    0.909    0.273    3.818    2.182 
#    0.000    0.909    0.000    3.818    0.000    0.000 
#    0.000    0.000    0.000    0.000    0.000    0.000 
#
# Total GULP energy -545360.169022 kJ/mol
# GULP energy per Si atom -12394.549296 kJ/mol
# Density = 1.858883 g / cm^3
# Si number density = 18.631231 Si / 1000 Ang^3
#
#
#
# Elastic Constant Matrix: (Units=GPa)
#
#
# Indices 1 2 3 4 5 6 
#
# 1 60.6146 50.3322 26.7933 0.0000 0.0000 0.0000
# 2 50.3322 135.1537 51.6756 0.0000 0.0000 0.0000
# 3 26.7933 51.6756 46.7520 0.0000 0.0000 0.0000
# 4 0.0000 0.0000 0.0000 -194.0980 0.0000 0.0000
# 5 0.0000 0.0000 0.0000 0.0000 17.9288 0.0000
# 6 0.0000 0.0000 0.0000 0.0000 0.0000 51.0391
#
#
#
# Elastic Compliance Matrix: (Units=1/GPa)
#
#
# Indices 1 2 3 4 5 6 
#
# 1 0.025151 -0.006677 -0.007034 0.000000 0.000000 0.000000
# 2 -0.006677 0.014587 -0.012297 0.000000 0.000000 0.000000
# 3 -0.007034 -0.012297 0.039012 0.000000 0.000000 0.000000
# 4 0.000000 0.000000 0.000000 -0.005152 0.000000 0.000000
# 5 0.000000 0.000000 0.000000 0.000000 0.055776 0.000000
# 6 0.000000 0.000000 0.000000 0.000000 0.000000 0.019593
#
#
# Mechanical properties :
#
#
# Convention : Reuss Voigt Hill
#
# Bulk Modulus (GPa) = 37.40360 55.56916 46.48638
# Shear Modulus (GPa) = 23.82148 -17.44472 3.18838
#
# Velocity S-wave (km/s) = 3.57960 -3.06325 1.30959
# Velocity P-wave (km/s) = 6.09951 4.16884 5.22414
#
# Compressibility (1/GPa) = 0.02673540
#
# Stress axis : x y z
#
# Youngs Moduli (GPa) = 39.75941 68.55299 25.63304
#
# Poissons Ratio (x) = 0.45774 0.18029
# Poissons Ratio (y) = 0.26548 0.31520
# Poissons Ratio (z) = 0.27965 0.84298
#
# Static dielectric constant tensor:
#      x y z
#    x 3.653840 0.000000 0.000000 
#    y 0.000000 3.458970 0.000000 
#    z 0.000000 0.000000 3.183400 
# 
# 
# High freq. dielectric constant tensor:
#      x y z
#    x 1.735360 0.000000 0.000000 
#    y 0.000000 1.727250 0.000000 
#    z 0.000000 0.000000 1.682060 
# 
# From -- ./inp_files/26837.got.cif
#   From: 2010.03.12/outbox.cif.g09.slc.cpg/sg65_14_cif.got.tgz:26837.got - 2010.04.10 20:52:16.
