data_PCOD8272759
_publ_section_title
;
Structure prediction by ZEFSAII (Michael W. Deem and Ramdas Pophale) SiO2 
 PCOD8272759
Probable space group: C M M M
;
_chemical_formula_sum "Si O2"
_cell_formula_units_Z 80
_cell_length_a 26.824875
_cell_length_b 18.183052
_cell_length_c 9.333249
_cell_angle_alpha 90.000000
_cell_angle_beta 90.000000
_cell_angle_gamma 90.000000
_cell_volume 4552.367771
_symmetry_space_group_name_H-M "C M M M"
_symmetry_group_IT_number 65
_symmetry_cell_setting 'orthorhombic'
loop_
_space_group_symop_operation_xyz
x,y,z
-x,-y,z
x,-y,-z
-x,y,-z
-x,-y,-z
x,y,-z
-x,y,z
x,-y,z
1/2+x,1/2+y,z
1/2-x,1/2-y,z
1/2+x,1/2-y,-z
1/2-x,1/2+y,-z
1/2-x,1/2-y,-z
1/2+x,1/2+y,-z
1/2-x,1/2+y,z
1/2+x,1/2-y,z
loop_
_atom_site_type_symbol
_atom_site_label
_atom_site_fract_x
_atom_site_fract_y
_atom_site_fract_z
Si Si1 0.351205 0.084038 0.334227
Si Si2 0.943864 0.917741 0.668238
Si Si3 0.556617 0.861218 0.832989
Si Si4 0.201373 0.707620 0.835214
Si Si5 0.399552 0.708985 0.839012
O O1 0.355852 0.107234 0.500000
O O2 0.405611 0.091170 0.261597
O O3 0.309870 0.135091 0.258223
O O4 0.333345 0.000000 0.318872
O O5 0.941596 0.906713 0.500000
O O6 0.906401 0.860569 0.738187
O O7 0.000000 0.903705 0.723730
O O8 0.926839 0.000000 0.710093
O O9 0.500000 0.885107 0.798143
O O10 0.563195 0.775086 0.796131
O O11 0.569703 0.874480 0.000000
O O12 0.250000 0.750000 0.777028
O O13 0.156701 0.764796 0.819887
O O14 0.208527 0.682653 0.000000
O O15 0.410467 0.683260 0.000000
#
# Coordination Sequence:
#
# PCOD8272759 Si02
#       5
#    16  16  16  16  16
#     4  10  21  35  51  75 106 135 164 201 245 294
#     4   9  18  31  45  64  94 131 165 193 228 282
#     4   9  18  32  50  73 101 134 171 207 243 288
#     4   9  19  37  58  76  95 124 164 207 249 295
#     4   9  17  30  49  72  95 119 155 203 247 287
#
# _framework density 17.573271999999999
#
# number of rings (size 3 to 8) (size 9 to 14) (size 15 to 20)
#    0.000    2.800    0.000    3.000    0.000    7.600 
#    0.000    4.000    0.000    6.000    0.000    0.000 
#    0.000    0.000    0.000    0.000    0.000    0.000 
#
# Total GULP energy -495976.209687 kJ/mol
# GULP energy per Si atom -12399.405242 kJ/mol
# Density = 1.753327 g / cm^3
# Si number density = 17.573272 Si / 1000 Ang^3
#
#
#
# Elastic Constant Matrix: (Units=GPa)
#
#
# Indices 1 2 3 4 5 6 
#
# 1 84.2985 39.9551 37.8574 0.0000 0.0000 0.0000
# 2 39.9551 104.5414 57.0349 0.0000 0.0000 0.0000
# 3 37.8574 57.0349 77.9130 0.0000 0.0000 0.0000
# 4 0.0000 0.0000 0.0000 22.8822 0.0000 0.0000
# 5 0.0000 0.0000 0.0000 0.0000 19.4207 0.0000
# 6 0.0000 0.0000 0.0000 0.0000 0.0000 16.8742
#
#
#
# Elastic Compliance Matrix: (Units=1/GPa)
#
#
# Indices 1 2 3 4 5 6 
#
# 1 0.015744 -0.003070 -0.005403 0.000000 0.000000 0.000000
# 2 -0.003070 0.016525 -0.010605 0.000000 0.000000 0.000000
# 3 -0.005403 -0.010605 0.023223 0.000000 0.000000 0.000000
# 4 0.000000 0.000000 0.000000 0.043702 0.000000 0.000000
# 5 0.000000 0.000000 0.000000 0.000000 0.051492 0.000000
# 6 0.000000 0.000000 0.000000 0.000000 0.000000 0.059262
#
#
# Mechanical properties :
#
#
# Convention : Reuss Voigt Hill
#
# Bulk Modulus (GPa) = 57.68071 59.60533 58.64302
# Shear Modulus (GPa) = 19.69425 20.62912 20.16168
#
# Velocity S-wave (km/s) = 3.35131 3.42993 3.39085
# Velocity P-wave (km/s) = 6.91876 7.04824 6.98380
#
# Compressibility (1/GPa) = 0.01733682
#
# Stress axis : x y z
#
# Youngs Moduli (GPa) = 63.51697 60.51587 43.06026
#
# Poissons Ratio (x) = 0.18576 0.23265
# Poissons Ratio (y) = 0.19497 0.45666
# Poissons Ratio (z) = 0.34317 0.64177
#
# Static dielectric constant tensor:
#      x y z
#    x 3.254610 0.000000 0.000000 
#    y 0.000000 3.155420 0.000000 
#    z 0.000000 0.000000 3.224220 
# 
# 
# High freq. dielectric constant tensor:
#      x y z
#    x 1.665670 0.000000 0.000000 
#    y 0.000000 1.676180 0.000000 
#    z 0.000000 0.000000 1.676270 
# 
# From -- ./inp_files/9663.got.cif
#   From: 2010.03.12/outbox.cif.g09.slc.cpg/sg65_5_cif.got.tgz:9663.got - 2010.04.10 20:52:16.
