data_PCOD8272647
_publ_section_title
;
Structure prediction by ZEFSAII (Michael W. Deem and Ramdas Pophale) SiO2 
 PCOD8272647
Probable space group: C M M M
;
_chemical_formula_sum "Si O2"
_cell_formula_units_Z 56
_cell_length_a 18.085408
_cell_length_b 10.520224
_cell_length_c 14.692588
_cell_angle_alpha 90.000000
_cell_angle_beta 90.000000
_cell_angle_gamma 90.000000
_cell_volume 2795.449160
_symmetry_space_group_name_H-M "C M M M"
_symmetry_group_IT_number 65
_symmetry_cell_setting 'orthorhombic'
loop_
_space_group_symop_operation_xyz
x,y,z
-x,-y,z
x,-y,-z
-x,y,-z
-x,-y,-z
x,y,-z
-x,y,z
x,-y,z
1/2+x,1/2+y,z
1/2-x,1/2-y,z
1/2+x,1/2-y,-z
1/2-x,1/2+y,-z
1/2-x,1/2-y,-z
1/2+x,1/2+y,-z
1/2-x,1/2+y,z
1/2+x,1/2-y,z
loop_
_atom_site_type_symbol
_atom_site_label
_atom_site_fract_x
_atom_site_fract_y
_atom_site_fract_z
Si Si1 0.587638 0.358450 0.398078
Si Si2 0.082576 0.000000 0.107494
Si Si3 0.837301 0.254272 0.104150
Si Si4 0.585397 0.859097 0.734275
O O1 0.619389 0.338937 0.500000
O O2 0.500000 0.346127 0.401598
O O3 0.609941 0.500000 0.362025
O O4 0.619790 0.247052 0.333590
O O5 0.127664 0.877466 0.139671
O O6 0.000000 0.000000 0.151279
O O7 0.076122 0.000000 0.000000
O O8 0.750000 0.250000 0.114262
O O9 0.870745 0.360721 0.170094
O O10 0.859704 0.284833 0.000000
O O11 0.500000 0.828966 0.755004
O O12 0.594341 0.000000 0.690965
#
# Coordination Sequence:
#
# PCOD8272647 Si02
#       4
#    16   8  16  16
#     4   8  15  30  53  80 109 142 181 226 275 328
#     4   9  18  34  56  80 102 136 194 249 284 324
#     4  10  22  37  55  77 108 149 192 236 285 338
#     4  10  21  34  52  82 115 146 180 223 280 339
#
# _framework density 20.032558000000002
#
# number of rings (size 3 to 8) (size 9 to 14) (size 15 to 20)
#    0.000    2.714    0.000    1.714    4.000    2.857 
#    0.000    4.286    0.000    0.857    0.000    0.000 
#    0.000    0.000    0.000    0.000    0.000    0.000 
#
# Total GULP energy -347084.287890 kJ/mol
# GULP energy per Si atom -12395.867425 kJ/mol
# Density = 1.998696 g / cm^3
# Si number density = 20.032558 Si / 1000 Ang^3
#
#
#
# Elastic Constant Matrix: (Units=GPa)
#
#
# Indices 1 2 3 4 5 6 
#
# 1 63.6041 35.9294 24.6280 0.0000 0.0000 0.0000
# 2 35.9294 142.1400 68.8665 0.0000 0.0000 0.0000
# 3 24.6280 68.8665 100.2969 0.0000 0.0000 0.0000
# 4 0.0000 0.0000 0.0000 27.7510 0.0000 0.0000
# 5 0.0000 0.0000 0.0000 0.0000 15.3580 0.0000
# 6 0.0000 0.0000 0.0000 0.0000 0.0000 21.9818
#
#
#
# Elastic Compliance Matrix: (Units=1/GPa)
#
#
# Indices 1 2 3 4 5 6 
#
# 1 0.018607 -0.003731 -0.002007 0.000000 0.000000 0.000000
# 2 -0.003731 0.011291 -0.006836 0.000000 0.000000 0.000000
# 3 -0.002007 -0.006836 0.015157 0.000000 0.000000 0.000000
# 4 0.000000 0.000000 0.000000 0.036035 0.000000 0.000000
# 5 0.000000 0.000000 0.000000 0.000000 0.065112 0.000000
# 6 0.000000 0.000000 0.000000 0.000000 0.000000 0.045492
#
#
# Mechanical properties :
#
#
# Convention : Reuss Voigt Hill
#
# Bulk Modulus (GPa) = 50.23603 62.76541 56.50072
# Shear Modulus (GPa) = 22.37352 24.79262 23.58307
#
# Velocity S-wave (km/s) = 3.34557 3.52179 3.43481
# Velocity P-wave (km/s) = 6.32893 6.92366 6.63297
#
# Compressibility (1/GPa) = 0.01990603
#
# Stress axis : x y z
#
# Youngs Moduli (GPa) = 53.74311 88.56967 65.97508
#
# Poissons Ratio (x) = 0.33044 0.13243
# Poissons Ratio (y) = 0.20051 0.45102
# Poissons Ratio (z) = 0.10788 0.60549
#
# Static dielectric constant tensor:
#      x y z
#    x 3.230010 0.000000 0.000000 
#    y 0.000000 3.822030 0.000000 
#    z 0.000000 0.000000 3.713910 
# 
# 
# High freq. dielectric constant tensor:
#      x y z
#    x 1.738830 0.000000 0.000000 
#    y 0.000000 1.788890 0.000000 
#    z 0.000000 0.000000 1.776160 
# 
# From -- ./inp_files/37441.got.cif
#   From: 2010.03.12/outbox.cif.g09.slc.cpg/sg65_19_cif.got.tgz:37441.got - 2010.04.10 20:52:16.
