data_PCOD8272072
_publ_section_title
;
Structure prediction by ZEFSAII (Michael W. Deem and Ramdas Pophale) SiO2 
 PCOD8272072
Probable space group: C M M M
;
_chemical_formula_sum "Si O2"
_cell_formula_units_Z 72
_cell_length_a 15.603795
_cell_length_b 8.667170
_cell_length_c 26.480710
_cell_angle_alpha 90.000000
_cell_angle_beta 90.000000
_cell_angle_gamma 90.000000
_cell_volume 3581.270920
_symmetry_space_group_name_H-M "C M M M"
_symmetry_group_IT_number 65
_symmetry_cell_setting 'orthorhombic'
loop_
_space_group_symop_operation_xyz
x,y,z
-x,-y,z
x,-y,-z
-x,y,-z
-x,-y,-z
x,y,-z
-x,y,z
x,-y,z
1/2+x,1/2+y,z
1/2-x,1/2-y,z
1/2+x,1/2-y,-z
1/2-x,1/2+y,-z
1/2-x,1/2-y,-z
1/2+x,1/2+y,-z
1/2-x,1/2+y,z
1/2+x,1/2-y,z
loop_
_atom_site_type_symbol
_atom_site_label
_atom_site_fract_x
_atom_site_fract_y
_atom_site_fract_z
Si Si1 0.096464 0.183949 0.500000
Si Si2 0.000000 0.182250 0.673652
Si Si3 0.838683 0.183168 0.840040
Si Si4 0.161265 0.818129 0.393601
Si Si5 0.500000 0.818548 0.782766
Si Si6 0.096364 0.183107 0.945257
O O1 0.144393 0.246330 0.549872
O O2 0.000000 0.248921 0.500000
O O3 0.093349 0.000000 0.500000
O O4 0.083773 0.232286 0.642449
O O5 0.000000 0.281081 0.724020
O O6 0.000000 0.000000 0.685544
O O7 0.750000 0.250000 0.818387
O O8 0.915850 0.245608 0.806956
O O9 0.847833 0.243032 0.898145
O O10 0.838397 0.000000 0.836260
O O11 0.250000 0.750000 0.372444
O O12 0.168586 0.000000 0.394665
O O13 0.500000 0.000000 0.791922
O O14 0.000000 0.247086 0.938640
O O15 0.093647 0.000000 0.944171
O O16 0.133216 0.239705 0.000000
#
# Coordination Sequence:
#
# PCOD8272072 Si02
#       6
#     8   8  16  16   8  16
#     4   9  15  30  57  86 117 156 197 227 270 342
#     4  10  22  41  62  83 111 154 198 240 294 355
#     4  11  22  39  63  91 121 157 197 243 295 355
#     4  10  20  35  59  88 119 154 192 235 283 342
#     4  12  26  44  64  86 115 153 200 257 308 355
#     4   8  14  28  54  86 118 154 192 231 284 348
#
# _framework density 20.104593999999999
#
# number of rings (size 3 to 8) (size 9 to 14) (size 15 to 20)
#    0.000    2.111    2.222    2.667    0.000    2.222 
#    0.000    2.222    0.000    3.333    0.000    0.000 
#    0.000    0.000    0.000    0.000    0.000    0.000 
#
# Total GULP energy -446300.784277 kJ/mol
# GULP energy per Si atom -12397.244008 kJ/mol
# Density = 2.005884 g / cm^3
# Si number density = 20.104594 Si / 1000 Ang^3
#
#
#
# Elastic Constant Matrix: (Units=GPa)
#
#
# Indices 1 2 3 4 5 6 
#
# 1 176.2049 41.0950 72.5278 0.0000 0.0000 0.0000
# 2 41.0950 57.2143 40.9059 0.0000 0.0000 0.0000
# 3 72.5278 40.9059 136.4961 0.0000 0.0000 0.0000
# 4 0.0000 0.0000 0.0000 16.9859 0.0000 0.0000
# 5 0.0000 0.0000 0.0000 0.0000 18.9985 0.0000
# 6 0.0000 0.0000 0.0000 0.0000 0.0000 27.5023
#
#
#
# Elastic Compliance Matrix: (Units=1/GPa)
#
#
# Indices 1 2 3 4 5 6 
#
# 1 0.007732 -0.003330 -0.003111 0.000000 0.000000 0.000000
# 2 -0.003330 0.023678 -0.005327 0.000000 0.000000 0.000000
# 3 -0.003111 -0.005327 0.010575 0.000000 0.000000 0.000000
# 4 0.000000 0.000000 0.000000 0.058872 0.000000 0.000000
# 5 0.000000 0.000000 0.000000 0.000000 0.052636 0.000000
# 6 0.000000 0.000000 0.000000 0.000000 0.000000 0.036361
#
#
# Mechanical properties :
#
#
# Convention : Reuss Voigt Hill
#
# Bulk Modulus (GPa) = 54.19610 75.44138 64.81874
# Shear Modulus (GPa) = 22.77497 27.05644 24.91571
#
# Velocity S-wave (km/s) = 3.36940 3.67247 3.52419
# Velocity P-wave (km/s) = 6.49251 7.45578 6.99076
#
# Compressibility (1/GPa) = 0.01845151
#
# Stress axis : x y z
#
# Youngs Moduli (GPa) = 129.33002 42.23301 94.55900
#
# Poissons Ratio (x) = 0.14063 0.29414
# Poissons Ratio (y) = 0.43064 0.50369
# Poissons Ratio (z) = 0.40230 0.22496
#
# Static dielectric constant tensor:
#      x y z
#    x 3.857840 0.000000 0.000000 
#    y 0.000000 3.211880 0.000000 
#    z 0.000000 0.000000 3.952730 
# 
# 
# High freq. dielectric constant tensor:
#      x y z
#    x 1.792160 0.000000 0.000000 
#    y 0.000000 1.747240 0.000000 
#    z 0.000000 0.000000 1.791670 
# 
# From -- ./inp_files/74644.got.cif
#   From: 2010.03.12/outbox.cif.g09.slc.cpg/sg65_38_cif.got.tgz:74644.got - 2010.04.10 20:52:16.
