data_PCOD8272934
_publ_section_title
;
Structure prediction by ZEFSAII (Michael W. Deem and Ramdas Pophale) SiO2 
 PCOD8272934
Probable space group: C M M M
;
_chemical_formula_sum "Si O2"
_cell_formula_units_Z 96
_cell_length_a 9.138430
_cell_length_b 20.269969
_cell_length_c 29.652490
_cell_angle_alpha 90.000000
_cell_angle_beta 90.000000
_cell_angle_gamma 90.000000
_cell_volume 5492.699529
_symmetry_space_group_name_H-M "C M M M"
_symmetry_group_IT_number 65
_symmetry_cell_setting 'orthorhombic'
loop_
_space_group_symop_operation_xyz
x,y,z
-x,-y,z
x,-y,-z
-x,y,-z
-x,-y,-z
x,y,-z
-x,y,z
x,-y,z
1/2+x,1/2+y,z
1/2-x,1/2-y,z
1/2+x,1/2-y,-z
1/2-x,1/2+y,-z
1/2-x,1/2-y,-z
1/2+x,1/2+y,-z
1/2-x,1/2+y,z
1/2+x,1/2-y,z
loop_
_atom_site_type_symbol
_atom_site_label
_atom_site_fract_x
_atom_site_fract_y
_atom_site_fract_z
Si Si1 0.673380 0.072618 0.211802
Si Si2 0.329800 0.315918 0.052634
Si Si3 0.671863 0.183089 0.381973
Si Si4 0.328137 0.816899 0.721119
Si Si5 0.326151 0.926707 0.550392
Si Si6 0.830576 0.423242 0.109813
O O1 0.500000 0.069231 0.215850
O O2 0.736445 0.125131 0.247439
O O3 0.716368 0.093193 0.161097
O O4 0.737962 0.000000 0.223106
O O5 0.500000 0.308329 0.063508
O O6 0.250000 0.250000 0.070443
O O7 0.268638 0.380170 0.077185
O O8 0.299108 0.325967 0.000000
O O9 0.500000 0.192884 0.389130
O O10 0.750000 0.250000 0.396875
O O11 0.709095 0.164767 0.330428
O O12 0.736397 0.124974 0.413338
O O13 0.500000 0.807183 0.728378
O O14 0.250000 0.750000 0.736008
O O15 0.275297 0.906295 0.500000
O O16 0.500000 0.927401 0.552869
O O17 0.266788 0.000000 0.562052
O O18 0.802257 0.500000 0.099183
O O19 0.000000 0.405549 0.101740
#
# Coordination Sequence:
#
# PCOD8272934 Si02
#       6
#    16  16  16  16  16  16
#     4   8  15  29  48  69  92 118 150 188 226 263
#     4  10  21  36  53  73  98 127 159 196 235 275
#     4   9  17  28  43  64  88 115 147 182 222 267
#     4   9  17  29  45  65  90 118 148 184 223 265
#     4   8  14  25  41  62  87 112 142 184 227 263
#     4   9  18  33  52  73  98 127 157 190 231 279
#
# _framework density 17.477746
#
# number of rings (size 3 to 8) (size 9 to 14) (size 15 to 20)
#    0.000    3.167    0.000    2.000    0.000    3.333 
#    0.000    7.500    0.000    2.000    0.000    5.833 
#    0.000    0.000    0.000    0.000    0.000    0.000 
#
# Total GULP energy -595075.493066 kJ/mol
# GULP energy per Si atom -12397.406106 kJ/mol
# Density = 1.743797 g / cm^3
# Si number density = 17.477746 Si / 1000 Ang^3
#
#
#
# Elastic Constant Matrix: (Units=GPa)
#
#
# Indices 1 2 3 4 5 6 
#
# 1 40.0876 46.5311 38.3094 0.0000 0.0000 0.0000
# 2 46.5311 144.0409 91.8810 0.0000 0.0000 0.0000
# 3 38.3094 91.8810 98.9479 0.0000 0.0000 0.0000
# 4 0.0000 0.0000 0.0000 39.4387 0.0000 0.0000
# 5 0.0000 0.0000 0.0000 0.0000 16.0628 0.0000
# 6 0.0000 0.0000 0.0000 0.0000 0.0000 28.7784
#
#
#
# Elastic Compliance Matrix: (Units=1/GPa)
#
#
# Indices 1 2 3 4 5 6 
#
# 1 0.043084 -0.008040 -0.009215 0.000000 0.000000 0.000000
# 2 -0.008040 0.018530 -0.014094 0.000000 0.000000 0.000000
# 3 -0.009215 -0.014094 0.026761 0.000000 0.000000 0.000000
# 4 0.000000 0.000000 0.000000 0.025356 0.000000 0.000000
# 5 0.000000 0.000000 0.000000 0.000000 0.062256 0.000000
# 6 0.000000 0.000000 0.000000 0.000000 0.000000 0.034748
#
#
# Mechanical properties :
#
#
# Convention : Reuss Voigt Hill
#
# Bulk Modulus (GPa) = 38.94429 70.72438 54.83434
# Shear Modulus (GPa) = 17.73113 23.94629 20.83871
#
# Velocity S-wave (km/s) = 3.18857 3.70550 3.45672
# Velocity P-wave (km/s) = 5.99054 7.67209 6.88286
#
# Compressibility (1/GPa) = 0.02567770
#
# Stress axis : x y z
#
# Youngs Moduli (GPa) = 23.21072 53.96781 37.36768
#
# Poissons Ratio (x) = 0.43388 0.34435
# Poissons Ratio (y) = 0.18660 0.52664
# Poissons Ratio (z) = 0.21389 0.76060
#
# Static dielectric constant tensor:
#      x y z
#    x 2.891450 0.000000 0.000000 
#    y 0.000000 3.548710 0.000000 
#    z 0.000000 0.000000 3.370940 
# 
# 
# High freq. dielectric constant tensor:
#      x y z
#    x 1.637730 0.000000 0.000000 
#    y 0.000000 1.683070 0.000000 
#    z 0.000000 0.000000 1.677260 
# 
# From -- ./inp_files/73101.got.cif
#   From: 2010.03.12/outbox.cif.g09.slc.cpg/sg65_37_cif.got.tgz:73101.got - 2010.04.10 20:52:16.
