data_PCOD8272289
_publ_section_title
;
Structure prediction by ZEFSAII (Michael W. Deem and Ramdas Pophale) SiO2 
 PCOD8272289
Probable space group: C M M M
;
_chemical_formula_sum "Si O2"
_cell_formula_units_Z 72
_cell_length_a 15.812635
_cell_length_b 8.882081
_cell_length_c 24.747982
_cell_angle_alpha 90.000000
_cell_angle_beta 90.000000
_cell_angle_gamma 90.000000
_cell_volume 3475.831920
_symmetry_space_group_name_H-M "C M M M"
_symmetry_group_IT_number 65
_symmetry_cell_setting 'orthorhombic'
loop_
_space_group_symop_operation_xyz
x,y,z
-x,-y,z
x,-y,-z
-x,y,-z
-x,-y,-z
x,y,-z
-x,y,z
x,-y,z
1/2+x,1/2+y,z
1/2-x,1/2-y,z
1/2+x,1/2-y,-z
1/2-x,1/2+y,-z
1/2-x,1/2-y,-z
1/2+x,1/2+y,-z
1/2-x,1/2+y,z
1/2+x,1/2-y,z
loop_
_atom_site_type_symbol
_atom_site_label
_atom_site_fract_x
_atom_site_fract_y
_atom_site_fract_z
Si Si1 0.903579 0.164978 0.838782
Si Si2 0.659784 0.175826 0.939585
Si Si3 0.399506 0.827039 0.266742
Si Si4 0.662621 0.678623 0.627014
Si Si5 0.500000 0.678969 0.439069
O O1 0.901289 0.250002 0.895976
O O2 0.864381 0.265821 0.790783
O O3 0.000000 0.139815 0.823773
O O4 0.859056 0.000000 0.842016
O O5 0.750000 0.250000 0.931772
O O6 0.667177 0.000000 0.928311
O O7 0.624429 0.206947 0.000000
O O8 0.500000 0.809257 0.272428
O O9 0.353103 0.729295 0.311840
O O10 0.371923 0.000000 0.272447
O O11 0.670124 0.500000 0.624511
O O12 0.750000 0.750000 0.605016
O O13 0.584585 0.738474 0.590561
O O14 0.500000 0.500000 0.438298
O O15 0.500000 0.741902 0.500000
#
# Coordination Sequence:
#
# PCOD8272289 Si02
#       5
#    16  16  16  16   8
#     4  10  21  36  56  83 114 148 188 234 288 349
#     4  10  21  37  56  77 105 143 187 236 291 349
#     4  10  20  36  59  85 117 153 193 243 300 358
#     4  11  22  38  62  92 125 163 208 253 302 361
#     4   9  20  40  65  91 125 169 208 249 304 359
#
# _framework density 20.714464
#
# number of rings (size 3 to 8) (size 9 to 14) (size 15 to 20)
#    0.000    1.889    1.111    2.667    0.000    5.333 
#    0.000    6.667    0.000    4.667    0.000    0.000 
#    0.000    0.000    0.000    0.000    0.000    0.000 
#
# Total GULP energy -446378.600685 kJ/mol
# GULP energy per Si atom -12399.405575 kJ/mol
# Density = 2.066732 g / cm^3
# Si number density = 20.714464 Si / 1000 Ang^3
#
#
#
# Elastic Constant Matrix: (Units=GPa)
#
#
# Indices 1 2 3 4 5 6 
#
# 1 89.2982 39.4882 50.8446 0.0000 0.0000 0.0000
# 2 39.4882 114.8546 48.2287 0.0000 0.0000 0.0000
# 3 50.8446 48.2287 147.3907 0.0000 0.0000 0.0000
# 4 0.0000 0.0000 0.0000 23.7859 0.0000 0.0000
# 5 0.0000 0.0000 0.0000 0.0000 17.3815 0.0000
# 6 0.0000 0.0000 0.0000 0.0000 0.0000 31.1127
#
#
#
# Elastic Compliance Matrix: (Units=1/GPa)
#
#
# Indices 1 2 3 4 5 6 
#
# 1 0.015040 -0.003469 -0.004053 0.000000 0.000000 0.000000
# 2 -0.003469 0.010894 -0.002368 0.000000 0.000000 0.000000
# 3 -0.004053 -0.002368 0.008958 0.000000 0.000000 0.000000
# 4 0.000000 0.000000 0.000000 0.042042 0.000000 0.000000
# 5 0.000000 0.000000 0.000000 0.000000 0.057532 0.000000
# 6 0.000000 0.000000 0.000000 0.000000 0.000000 0.032141
#
#
# Mechanical properties :
#
#
# Convention : Reuss Voigt Hill
#
# Bulk Modulus (GPa) = 66.17541 69.85185 68.01363
# Shear Modulus (GPa) = 26.11996 28.65481 27.38739
#
# Velocity S-wave (km/s) = 3.55484 3.72334 3.64007
# Velocity P-wave (km/s) = 6.99035 7.23041 7.11140
#
# Compressibility (1/GPa) = 0.01511135
#
# Stress axis : x y z
#
# Youngs Moduli (GPa) = 66.48809 91.79663 111.63532
#
# Poissons Ratio (x) = 0.31844 0.45249
# Poissons Ratio (y) = 0.23065 0.26434
# Poissons Ratio (z) = 0.26949 0.21737
#
# Static dielectric constant tensor:
#      x y z
#    x 3.618800 0.000000 0.000000 
#    y 0.000000 3.850940 0.000000 
#    z 0.000000 0.000000 3.846040 
# 
# 
# High freq. dielectric constant tensor:
#      x y z
#    x 1.796670 0.000000 0.000000 
#    y 0.000000 1.814310 0.000000 
#    z 0.000000 0.000000 1.813620 
# 
# From -- ./inp_files/72478.got.cif
#   From: 2010.03.12/outbox.cif.g09.slc.cpg/sg65_37_cif.got.tgz:72478.got - 2010.04.10 20:52:16.
