data_PCOD8272215
_publ_section_title
;
Structure prediction by ZEFSAII (Michael W. Deem and Ramdas Pophale) SiO2 
 PCOD8272215
Probable space group: C M M M
;
_chemical_formula_sum "Si O2"
_cell_formula_units_Z 72
_cell_length_a 15.452819
_cell_length_b 8.889977
_cell_length_c 27.560236
_cell_angle_alpha 90.000000
_cell_angle_beta 90.000000
_cell_angle_gamma 90.000000
_cell_volume 3786.093084
_symmetry_space_group_name_H-M "C M M M"
_symmetry_group_IT_number 65
_symmetry_cell_setting 'orthorhombic'
loop_
_space_group_symop_operation_xyz
x,y,z
-x,-y,z
x,-y,-z
-x,y,-z
-x,-y,-z
x,y,-z
-x,y,z
x,-y,z
1/2+x,1/2+y,z
1/2-x,1/2-y,z
1/2+x,1/2-y,-z
1/2-x,1/2+y,-z
1/2-x,1/2-y,-z
1/2+x,1/2+y,-z
1/2-x,1/2+y,z
1/2+x,1/2-y,z
loop_
_atom_site_type_symbol
_atom_site_label
_atom_site_fract_x
_atom_site_fract_y
_atom_site_fract_z
Si Si1 0.339904 0.175830 0.056220
Si Si2 0.000000 0.171947 0.107048
Si Si3 0.160134 0.322568 0.272983
Si Si4 0.000000 0.172203 0.221793
Si Si5 0.161553 0.676509 0.615506
Si Si6 0.500000 0.179363 0.554805
O O1 0.250000 0.250000 0.072400
O O2 0.415314 0.246576 0.087671
O O3 0.334443 0.000000 0.067111
O O4 0.359525 0.208653 0.000000
O O5 0.000000 0.183191 0.164415
O O6 0.000000 0.000000 0.089104
O O7 0.164724 0.500000 0.264861
O O8 0.250000 0.250000 0.255604
O O9 0.084545 0.255046 0.240907
O O10 0.141618 0.280890 0.328906
O O11 0.000000 0.000000 0.239629
O O12 0.171262 0.500000 0.609074
O O13 0.250000 0.750000 0.597092
O O14 0.084417 0.741301 0.582463
O O15 0.500000 0.241101 0.500000
O O16 0.500000 0.000000 0.555983
#
# Coordination Sequence:
#
# PCOD8272215 Si02
#       6
#    16   8  16   8  16   8
#     4  10  21  38  61  87 113 144 184 227 269 316
#     4  11  24  39  56  81 114 149 182 221 270 323
#     4  10  20  36  58  81 106 139 180 226 273 321
#     4  11  24  39  55  80 112 145 182 222 269 325
#     4   9  18  33  53  77 102 132 174 218 261 312
#     4   9  17  30  49  73 104 141 174 207 255 315
#
# _framework density 19.016964999999999
#
# number of rings (size 3 to 8) (size 9 to 14) (size 15 to 20)
#    0.000    2.111    0.000    3.000    0.000    8.444 
#    0.000    0.556    0.000    0.667    0.000    0.000 
#    0.000    0.000    0.000    0.000    0.000    0.000 
#
# Total GULP energy -446541.457297 kJ/mol
# GULP energy per Si atom -12403.929369 kJ/mol
# Density = 1.897368 g / cm^3
# Si number density = 19.016965 Si / 1000 Ang^3
#
#
#
# Elastic Constant Matrix: (Units=GPa)
#
#
# Indices 1 2 3 4 5 6 
#
# 1 182.1213 68.6004 73.8034 0.0000 0.0000 0.0000
# 2 68.6004 90.3637 46.0166 0.0000 0.0000 0.0000
# 3 73.8034 46.0166 78.5499 0.0000 0.0000 0.0000
# 4 0.0000 0.0000 0.0000 21.8354 0.0000 0.0000
# 5 0.0000 0.0000 0.0000 0.0000 -3.2385 0.0000
# 6 0.0000 0.0000 0.0000 0.0000 0.0000 38.0809
#
#
#
# Elastic Compliance Matrix: (Units=1/GPa)
#
#
# Indices 1 2 3 4 5 6 
#
# 1 0.009744 -0.003898 -0.006871 0.000000 0.000000 0.000000
# 2 -0.003898 0.017331 -0.006490 0.000000 0.000000 0.000000
# 3 -0.006871 -0.006490 0.022989 0.000000 0.000000 0.000000
# 4 0.000000 0.000000 0.000000 0.045797 0.000000 0.000000
# 5 0.000000 0.000000 0.000000 0.000000 -0.308783 0.000000
# 6 0.000000 0.000000 0.000000 0.000000 0.000000 0.026260
#
#
# Mechanical properties :
#
#
# Convention : Reuss Voigt Hill
#
# Bulk Modulus (GPa) = 64.33297 80.87506 72.60402
# Shear Modulus (GPa) = -34.02259 22.17652 -5.92304
#
# Velocity S-wave (km/s) = -4.23432 3.41859 -1.76674
# Velocity P-wave (km/s) = 3.16176 7.62906 5.83949
#
# Compressibility (1/GPa) = 0.01554413
#
# Stress axis : x y z
#
# Youngs Moduli (GPa) = 102.63100 57.70135 43.49850
#
# Poissons Ratio (x) = 0.22491 0.29890
# Poissons Ratio (y) = 0.40003 0.28233
# Poissons Ratio (z) = 0.70522 0.37451
#
# Static dielectric constant tensor:
#      x y z
#    x 3.762460 0.000000 0.000000 
#    y 0.000000 3.504270 0.000000 
#    z 0.000000 0.000000 3.477270 
# 
# 
# High freq. dielectric constant tensor:
#      x y z
#    x 1.756760 0.000000 0.000000 
#    y 0.000000 1.738400 0.000000 
#    z 0.000000 0.000000 1.733690 
# 
# From -- ./inp_files/72564.got.cif
#   From: 2010.03.12/outbox.cif.g09.slc.cpg/sg65_37_cif.got.tgz:72564.got - 2010.04.10 20:52:16.
