data_PCOD8272095
_publ_section_title
;
Structure prediction by ZEFSAII (Michael W. Deem and Ramdas Pophale) SiO2 
 PCOD8272095
Probable space group: C M M M
;
_chemical_formula_sum "Si O2"
_cell_formula_units_Z 64
_cell_length_a 10.357022
_cell_length_b 27.948083
_cell_length_c 10.285577
_cell_angle_alpha 90.000000
_cell_angle_beta 90.000000
_cell_angle_gamma 90.000000
_cell_volume 2977.251912
_symmetry_space_group_name_H-M "C M M M"
_symmetry_group_IT_number 65
_symmetry_cell_setting 'orthorhombic'
loop_
_space_group_symop_operation_xyz
x,y,z
-x,-y,z
x,-y,-z
-x,y,-z
-x,-y,-z
x,y,-z
-x,y,z
x,-y,z
1/2+x,1/2+y,z
1/2-x,1/2-y,z
1/2+x,1/2-y,-z
1/2-x,1/2+y,-z
1/2-x,1/2-y,-z
1/2+x,1/2+y,-z
1/2-x,1/2+y,z
1/2+x,1/2-y,z
loop_
_atom_site_type_symbol
_atom_site_label
_atom_site_fract_x
_atom_site_fract_y
_atom_site_fract_z
Si Si1 0.280409 0.347397 0.744566
Si Si2 0.000000 0.353207 0.351110
Si Si3 0.858907 0.790501 0.500000
Si Si4 0.852680 0.208213 0.000000
Si Si5 0.723315 0.553355 0.853790
Si Si6 0.500000 0.051204 0.766251
O O1 0.127749 0.335869 0.724987
O O2 0.353746 0.324946 0.623614
O O3 0.319407 0.403928 0.755994
O O4 0.329323 0.323485 0.874547
O O5 0.000000 0.410772 0.350703
O O6 0.000000 0.335155 0.500000
O O7 0.750000 0.750000 0.500000
O O8 0.000000 0.765134 0.500000
O O9 0.750000 0.250000 0.000000
O O10 0.000000 0.227752 0.000000
O O11 0.678554 0.500000 0.805052
O O12 0.877939 0.556342 0.860938
O O13 0.670247 0.561972 0.000000
O O14 0.500000 0.000000 0.694562
#
# Coordination Sequence:
#
# PCOD8272095 Si02
#       6
#    16   8   8   8  16   8
#     4  11  23  42  69 100 140 177 225 284 340 401
#     4  10  20  35  62  96 134 182 222 268 327 406
#     4  12  28  48  75  97 130 180 227 283 347 414
#     4  12  28  48  71 101 134 170 223 289 349 410
#     4   9  16  31  58  94 135 179 222 267 327 401
#     4   8  15  25  46  86 134 176 222 268 320 373
#
# _framework density 21.496334000000001
#
# number of rings (size 3 to 8) (size 9 to 14) (size 15 to 20)
#    0.000    1.750    2.500    1.875    3.500    1.750 
#    0.000    0.625    0.000    4.500    0.000    0.000 
#    0.000    0.000    0.000    0.000    0.000    0.000 
#
# Total GULP energy -396493.542271 kJ/mol
# GULP energy per Si atom -12390.423196 kJ/mol
# Density = 2.144741 g / cm^3
# Si number density = 21.496334 Si / 1000 Ang^3
#
#
#
# Elastic Constant Matrix: (Units=GPa)
#
#
# Indices 1 2 3 4 5 6 
#
# 1 122.9457 44.2617 34.1926 0.0000 0.0000 0.0000
# 2 44.2617 141.9603 61.1848 0.0000 0.0000 0.0000
# 3 34.1926 61.1848 137.0274 0.0000 0.0000 0.0000
# 4 0.0000 0.0000 0.0000 23.1522 0.0000 0.0000
# 5 0.0000 0.0000 0.0000 0.0000 32.9720 0.0000
# 6 0.0000 0.0000 0.0000 0.0000 0.0000 26.4482
#
#
#
# Elastic Compliance Matrix: (Units=1/GPa)
#
#
# Indices 1 2 3 4 5 6 
#
# 1 0.009339 -0.002362 -0.001276 0.000000 0.000000 0.000000
# 2 -0.002362 0.009320 -0.003572 0.000000 0.000000 0.000000
# 3 -0.001276 -0.003572 0.009211 0.000000 0.000000 0.000000
# 4 0.000000 0.000000 0.000000 0.043192 0.000000 0.000000
# 5 0.000000 0.000000 0.000000 0.000000 0.030329 0.000000
# 6 0.000000 0.000000 0.000000 0.000000 0.000000 0.037810
#
#
# Mechanical properties :
#
#
# Convention : Reuss Voigt Hill
#
# Bulk Modulus (GPa) = 74.34656 75.69017 75.01837
# Shear Modulus (GPa) = 31.62467 34.00077 32.81272
#
# Velocity S-wave (km/s) = 3.83974 3.98138 3.91120
# Velocity P-wave (km/s) = 7.37014 7.51148 7.44114
#
# Compressibility (1/GPa) = 0.01345052
#
# Stress axis : x y z
#
# Youngs Moduli (GPa) = 107.08053 107.29282 108.56340
#
# Poissons Ratio (x) = 0.25342 0.13849
# Poissons Ratio (y) = 0.25291 0.38782
# Poissons Ratio (z) = 0.13660 0.38328
#
# Static dielectric constant tensor:
#      x y z
#    x 3.912450 0.000000 0.000000 
#    y 0.000000 4.242980 0.000000 
#    z 0.000000 0.000000 3.657600 
# 
# 
# High freq. dielectric constant tensor:
#      x y z
#    x 1.835200 0.000000 0.000000 
#    y 0.000000 1.854920 0.000000 
#    z 0.000000 0.000000 1.824400 
# 
# From -- ./inp_files/4998.got.cif
#   From: 2010.03.12/outbox.cif.g09.slc.cpg/sg65_3_cif.got.tgz:4998.got - 2010.04.10 20:52:16.
