data_PCOD8272038
_publ_section_title
;
Structure prediction by ZEFSAII (Michael W. Deem and Ramdas Pophale) SiO2 
 PCOD8272038
Probable space group: C M M M
;
_chemical_formula_sum "Si O2"
_cell_formula_units_Z 88
_cell_length_a 8.816256
_cell_length_b 28.481974
_cell_length_c 17.798421
_cell_angle_alpha 90.000000
_cell_angle_beta 90.000000
_cell_angle_gamma 90.000000
_cell_volume 4469.261366
_symmetry_space_group_name_H-M "C M M M"
_symmetry_group_IT_number 65
_symmetry_cell_setting 'orthorhombic'
loop_
_space_group_symop_operation_xyz
x,y,z
-x,-y,z
x,-y,-z
-x,y,-z
-x,-y,-z
x,y,-z
-x,y,z
x,-y,z
1/2+x,1/2+y,z
1/2-x,1/2-y,z
1/2+x,1/2-y,-z
1/2-x,1/2+y,-z
1/2-x,1/2-y,-z
1/2+x,1/2+y,-z
1/2-x,1/2+y,z
1/2+x,1/2-y,z
loop_
_atom_site_type_symbol
_atom_site_label
_atom_site_fract_x
_atom_site_fract_y
_atom_site_fract_z
Si Si1 0.175774 0.945024 0.216148
Si Si2 0.676052 0.298509 0.686691
Si Si3 0.676765 0.298698 0.137814
Si Si4 0.180357 0.447314 0.500000
Si Si5 0.825932 0.608462 0.085716
Si Si6 0.820423 0.392296 0.645770
O O1 0.233688 0.928813 0.135006
O O2 0.268497 0.918465 0.279607
O O3 0.000000 0.931379 0.224049
O O4 0.203725 0.000000 0.224820
O O5 0.500000 0.296463 0.667754
O O6 0.750000 0.250000 0.659908
O O7 0.706690 0.307491 0.774394
O O8 0.751912 0.340372 0.640255
O O9 0.500000 0.297715 0.118510
O O10 0.750000 0.250000 0.111304
O O11 0.756512 0.339805 0.092102
O O12 0.247129 0.500000 0.500000
O O13 0.240348 0.420898 0.426071
O O14 0.000000 0.448806 0.500000
O O15 0.000000 0.609844 0.112517
O O16 0.812591 0.591517 0.000000
O O17 0.000000 0.388368 0.646203
#
# Coordination Sequence:
#
# PCOD8272038 Si02
#       6
#    16  16  16   8  16  16
#     4  11  24  41  61  86 116 153 198 245 297 356
#     4  10  20  35  58  89 122 156 198 242 289 349
#     4  10  20  35  58  85 118 156 195 241 292 349
#     4   9  20  38  60  91 126 159 198 243 294 349
#     4  11  24  40  59  85 117 153 197 247 297 352
#     4  11  21  37  64  92 122 158 197 243 294 350
#
# _framework density 19.690054
#
# number of rings (size 3 to 8) (size 9 to 14) (size 15 to 20)
#    0.000    1.545    1.818    3.273    0.000    5.818 
#    0.000    4.091    0.000    3.273    0.000    0.000 
#    0.000    0.000    0.000    0.000    0.000    0.000 
#
# Total GULP energy -545866.697331 kJ/mol
# GULP energy per Si atom -12406.061303 kJ/mol
# Density = 1.964524 g / cm^3
# Si number density = 19.690054 Si / 1000 Ang^3
#
#
#
# Elastic Constant Matrix: (Units=GPa)
#
#
# Indices 1 2 3 4 5 6 
#
# 1 92.9704 56.4533 30.9347 0.0000 0.0000 0.0000
# 2 56.4533 130.3571 55.5308 0.0000 0.0000 0.0000
# 3 30.9347 55.5308 89.0807 0.0000 0.0000 0.0000
# 4 0.0000 0.0000 0.0000 27.6664 0.0000 0.0000
# 5 0.0000 0.0000 0.0000 0.0000 15.1491 0.0000
# 6 0.0000 0.0000 0.0000 0.0000 0.0000 38.0273
#
#
#
# Elastic Compliance Matrix: (Units=1/GPa)
#
#
# Indices 1 2 3 4 5 6 
#
# 1 0.014750 -0.005726 -0.001552 0.000000 0.000000 0.000000
# 2 -0.005726 0.012668 -0.005908 0.000000 0.000000 0.000000
# 3 -0.001552 -0.005908 0.015448 0.000000 0.000000 0.000000
# 4 0.000000 0.000000 0.000000 0.036145 0.000000 0.000000
# 5 0.000000 0.000000 0.000000 0.000000 0.066011 0.000000
# 6 0.000000 0.000000 0.000000 0.000000 0.000000 0.026297
#
#
# Mechanical properties :
#
#
# Convention : Reuss Voigt Hill
#
# Bulk Modulus (GPa) = 60.63713 66.47175 63.55444
# Shear Modulus (GPa) = 24.60752 27.46785 26.03769
#
# Velocity S-wave (km/s) = 3.53901 3.73904 3.64040
# Velocity P-wave (km/s) = 6.89653 7.24382 7.07230
#
# Compressibility (1/GPa) = 0.01649155
#
# Stress axis : x y z
#
# Youngs Moduli (GPa) = 67.79755 78.93885 64.73306
#
# Poissons Ratio (x) = 0.45203 0.10049
# Poissons Ratio (y) = 0.38823 0.38247
# Poissons Ratio (z) = 0.10525 0.46640
#
# Static dielectric constant tensor:
#      x y z
#    x 3.636630 0.000000 0.000000 
#    y 0.000000 3.728810 0.000000 
#    z 0.000000 0.000000 3.487230 
# 
# 
# High freq. dielectric constant tensor:
#      x y z
#    x 1.774830 0.000000 0.000000 
#    y 0.000000 1.781250 0.000000 
#    z 0.000000 0.000000 1.754500 
# 
# From -- ./inp_files/50379.got.cif
#   From: 2010.03.12/outbox.cif.g09.slc.cpg/sg65_26_cif.got.tgz:50379.got - 2010.04.10 20:52:16.
