data_PCOD8272324
_publ_section_title
;
Structure prediction by ZEFSAII (Michael W. Deem and Ramdas Pophale) SiO2 
 PCOD8272324
Probable space group: C M M M
;
_chemical_formula_sum "Si O2"
_cell_formula_units_Z 104
_cell_length_a 11.934038
_cell_length_b 17.069168
_cell_length_c 25.335918
_cell_angle_alpha 90.000000
_cell_angle_beta 90.000000
_cell_angle_gamma 90.000000
_cell_volume 5161.030362
_symmetry_space_group_name_H-M "C M M M"
_symmetry_group_IT_number 65
_symmetry_cell_setting 'orthorhombic'
loop_
_space_group_symop_operation_xyz
x,y,z
-x,-y,z
x,-y,-z
-x,y,-z
-x,-y,-z
x,y,-z
-x,y,z
x,-y,z
1/2+x,1/2+y,z
1/2-x,1/2-y,z
1/2+x,1/2-y,-z
1/2-x,1/2+y,-z
1/2-x,1/2-y,-z
1/2+x,1/2+y,-z
1/2-x,1/2+y,z
1/2+x,1/2-y,z
loop_
_atom_site_type_symbol
_atom_site_label
_atom_site_fract_x
_atom_site_fract_y
_atom_site_fract_z
Si Si1 0.124239 0.091974 0.650535
Si Si2 0.267219 0.158774 0.060948
Si Si3 0.500000 0.093777 0.404558
Si Si4 0.000000 0.592808 0.282777
Si Si5 0.738729 0.093638 0.750063
Si Si6 0.500000 0.088122 0.937467
Si Si7 0.374886 0.592326 0.150584
Si Si8 0.733340 0.160309 0.439557
O O1 0.194217 0.127090 0.699560
O O2 0.184713 0.108222 0.595563
O O3 0.000000 0.129587 0.650562
O O4 0.115054 0.000000 0.658125
O O5 0.250000 0.250000 0.069729
O O6 0.389964 0.134014 0.082169
O O7 0.173437 0.113267 0.093463
O O8 0.251564 0.134856 0.000000
O O9 0.500000 0.119012 0.343542
O O10 0.606690 0.131785 0.432467
O O11 0.500000 0.000000 0.411876
O O12 0.889092 0.625151 0.253326
O O13 0.000000 0.500000 0.280826
O O14 0.796388 0.127269 0.803043
O O15 0.739760 0.000000 0.749717
O O16 0.500000 0.000000 0.913688
O O17 0.500000 0.084528 0.000000
O O18 0.500000 0.627450 0.155938
O O19 0.380020 0.500000 0.156297
O O20 0.769613 0.148418 0.500000
O O21 0.750000 0.250000 0.422243
#
# Coordination Sequence:
#
# PCOD8272324 Si02
#       8
#    16  16   8   8  16   8  16  16
#     4  10  20  36  60  84 111 152 198 243 291 354
#     4  10  22  38  59  85 120 161 200 247 302 354
#     4  11  21  40  68  94 117 153 212 264 300 356
#     4   9  16  30  60  92 115 142 192 257 301 344
#     4   9  17  33  56  86 118 149 190 243 303 355
#     4   9  18  35  59  85 113 152 204 251 291 349
#     4  10  21  36  58  88 121 155 194 243 296 360
#     4  11  25  40  57  84 123 161 195 245 309 366
#
# _framework density 20.151015000000001
#
# number of rings (size 3 to 8) (size 9 to 14) (size 15 to 20)
#    0.000    2.077    1.538    1.615    2.154    5.538 
#    0.000    3.846    0.000    0.000    0.000    0.000 
#    0.000    0.000    0.000    0.000    0.000    0.000 
#
# Total GULP energy -644827.499076 kJ/mol
# GULP energy per Si atom -12400.528828 kJ/mol
# Density = 2.010515 g / cm^3
# Si number density = 20.151015 Si / 1000 Ang^3
#
#
#
# Elastic Constant Matrix: (Units=GPa)
#
#
# Indices 1 2 3 4 5 6 
#
# 1 188.8056 33.9730 69.8859 0.0000 0.0000 0.0000
# 2 33.9730 47.5099 16.1794 0.0000 0.0000 0.0000
# 3 69.8859 16.1794 106.3701 0.0000 0.0000 0.0000
# 4 0.0000 0.0000 0.0000 15.2196 0.0000 0.0000
# 5 0.0000 0.0000 0.0000 0.0000 28.0470 0.0000
# 6 0.0000 0.0000 0.0000 0.0000 0.0000 25.4488
#
#
#
# Elastic Compliance Matrix: (Units=1/GPa)
#
#
# Indices 1 2 3 4 5 6 
#
# 1 0.007646 -0.003962 -0.004421 0.000000 0.000000 0.000000
# 2 -0.003962 0.024251 -0.001086 0.000000 0.000000 0.000000
# 3 -0.004421 -0.001086 0.012471 0.000000 0.000000 0.000000
# 4 0.000000 0.000000 0.000000 0.065705 0.000000 0.000000
# 5 0.000000 0.000000 0.000000 0.000000 0.035654 0.000000
# 6 0.000000 0.000000 0.000000 0.000000 0.000000 0.039295
#
#
# Mechanical properties :
#
#
# Convention : Reuss Voigt Hill
#
# Bulk Modulus (GPa) = 39.32222 64.75136 52.03679
# Shear Modulus (GPa) = 23.53669 28.58623 26.06146
#
# Velocity S-wave (km/s) = 3.42133 3.77052 3.60016
# Velocity P-wave (km/s) = 5.92988 7.15252 6.56970
#
# Compressibility (1/GPa) = 0.02543091
#
# Stress axis : x y z
#
# Youngs Moduli (GPa) = 130.79442 41.23553 80.18822
#
# Poissons Ratio (x) = 0.16336 0.35448
# Poissons Ratio (y) = 0.51817 0.08707
# Poissons Ratio (z) = 0.57819 0.04477
#
# Static dielectric constant tensor:
#      x y z
#    x 4.092830 0.000000 0.000000 
#    y 0.000000 3.241280 0.000000 
#    z 0.000000 0.000000 3.648140 
# 
# 
# High freq. dielectric constant tensor:
#      x y z
#    x 1.804480 0.000000 0.000000 
#    y 0.000000 1.751750 0.000000 
#    z 0.000000 0.000000 1.787210 
# 
# From -- ./inp_files/74419.got.cif
#   From: 2010.03.12/outbox.cif.g09.slc.cpg/sg65_38_cif.got.tgz:74419.got - 2010.04.10 20:52:16.
