data_PCOD8272029
_publ_section_title
;
Structure prediction by ZEFSAII (Michael W. Deem and Ramdas Pophale) SiO2 
 PCOD8272029
Probable space group: C M M M
;
_chemical_formula_sum "Si O2"
_cell_formula_units_Z 88
_cell_length_a 29.623806
_cell_length_b 8.577655
_cell_length_c 17.508054
_cell_angle_alpha 90.000000
_cell_angle_beta 90.000000
_cell_angle_gamma 90.000000
_cell_volume 4448.845328
_symmetry_space_group_name_H-M "C M M M"
_symmetry_group_IT_number 65
_symmetry_cell_setting 'orthorhombic'
loop_
_space_group_symop_operation_xyz
x,y,z
-x,-y,z
x,-y,-z
-x,y,-z
-x,-y,-z
x,y,-z
-x,y,z
x,-y,z
1/2+x,1/2+y,z
1/2-x,1/2-y,z
1/2+x,1/2-y,-z
1/2-x,1/2+y,-z
1/2-x,1/2-y,-z
1/2+x,1/2+y,-z
1/2-x,1/2+y,z
1/2+x,1/2-y,z
loop_
_atom_site_type_symbol
_atom_site_label
_atom_site_fract_x
_atom_site_fract_y
_atom_site_fract_z
Si Si1 0.893542 0.684812 0.353510
Si Si2 0.662713 0.679101 0.847465
Si Si3 0.926621 0.322328 0.806422
Si Si4 0.051591 0.685640 0.500000
Si Si5 0.298899 0.812922 0.000000
Si Si6 0.000000 0.181173 0.913838
Si Si7 0.702261 0.321926 0.311840
O O1 0.888926 0.500000 0.353514
O O2 0.925040 0.737642 0.281603
O O3 0.920600 0.747595 0.426908
O O4 0.842300 0.749005 0.351448
O O5 0.645202 0.500000 0.850173
O O6 0.623964 0.804520 0.834326
O O7 0.680928 0.731912 0.927114
O O8 0.699338 0.697283 0.779930
O O9 0.943154 0.500000 0.810797
O O10 0.956966 0.223810 0.863470
O O11 0.050007 0.500000 0.500000
O O12 0.000000 0.750523 0.500000
O O13 0.250000 0.750000 0.000000
O O14 0.303322 0.000000 0.000000
O O15 0.000000 0.000000 0.927197
O O16 0.000000 0.258500 0.000000
O O17 0.703015 0.500000 0.337204
O O18 0.750000 0.250000 0.339784
#
# Coordination Sequence:
#
# PCOD8272029 Si02
#       7
#    16  16  16   8   8   8  16
#     4   9  19  36  60  90 121 153 191 236 286 347
#     4  10  21  37  56  78 109 147 186 233 289 346
#     4  10  21  37  59  85 113 147 190 240 288 341
#     4   9  18  34  62  93 122 153 190 235 288 347
#     4  12  24  36  52  77 108 143 186 236 286 338
#     4  11  25  41  57  78 109 152 198 245 294 346
#     4  10  20  35  58  84 114 152 193 237 285 342
#
# _framework density 19.780415000000001
#
# number of rings (size 3 to 8) (size 9 to 14) (size 15 to 20)
#    0.000    2.000    0.000    3.273    2.545    5.091 
#    0.000    0.909    0.000    0.545    0.000    0.000 
#    0.000    0.000    0.000    0.000    0.000    0.000 
#
# Total GULP energy -545200.831398 kJ/mol
# GULP energy per Si atom -12390.927986 kJ/mol
# Density = 1.973539 g / cm^3
# Si number density = 19.780415 Si / 1000 Ang^3
#
#
#
# Elastic Constant Matrix: (Units=GPa)
#
#
# Indices 1 2 3 4 5 6 
#
# 1 118.5144 37.2663 79.8200 0.0000 0.0000 0.0000
# 2 37.2663 51.9789 28.6948 0.0000 0.0000 0.0000
# 3 79.8200 28.6948 159.0693 0.0000 0.0000 0.0000
# 4 0.0000 0.0000 0.0000 18.9297 0.0000 0.0000
# 5 0.0000 0.0000 0.0000 0.0000 -51.5371 0.0000
# 6 0.0000 0.0000 0.0000 0.0000 0.0000 18.3730
#
#
#
# Elastic Compliance Matrix: (Units=1/GPa)
#
#
# Indices 1 2 3 4 5 6 
#
# 1 0.014861 -0.007261 -0.006148 0.000000 0.000000 0.000000
# 2 -0.007261 0.024914 -0.000851 0.000000 0.000000 0.000000
# 3 -0.006148 -0.000851 0.009525 0.000000 0.000000 0.000000
# 4 0.000000 0.000000 0.000000 0.052827 0.000000 0.000000
# 5 0.000000 0.000000 0.000000 0.000000 -0.019403 0.000000
# 6 0.000000 0.000000 0.000000 0.000000 0.000000 0.054428
#
#
# Mechanical properties :
#
#
# Convention : Reuss Voigt Hill
#
# Bulk Modulus (GPa) = 48.11954 69.01387 58.56671
# Shear Modulus (GPa) = 28.96909 9.40520 19.18714
#
# Velocity S-wave (km/s) = 3.83107 2.18292 3.11787
# Velocity P-wave (km/s) = 6.62942 6.42800 6.52949
#
# Compressibility (1/GPa) = 0.02078158
#
# Stress axis : x y z
#
# Youngs Moduli (GPa) = 67.28828 40.13787 104.98899
#
# Poissons Ratio (x) = 0.29145 0.64542
# Poissons Ratio (y) = 0.48859 0.08931
# Poissons Ratio (z) = 0.41366 0.03414
#
# Static dielectric constant tensor:
#      x y z
#    x 3.652020 0.000000 0.000000 
#    y 0.000000 3.561510 0.000000 
#    z 0.000000 0.000000 3.703140 
# 
# 
# High freq. dielectric constant tensor:
#      x y z
#    x 1.775040 0.000000 0.000000 
#    y 0.000000 1.764130 0.000000 
#    z 0.000000 0.000000 1.772890 
# 
# From -- ./inp_files/58080.got.cif
#   From: 2010.03.12/outbox.cif.g09.slc.cpg/sg65_30_cif.got.tgz:58080.got - 2010.04.10 20:52:16.
