data_PCOD8272347
_publ_section_title
;
Structure prediction by ZEFSAII (Michael W. Deem and Ramdas Pophale) SiO2 
 PCOD8272347
Probable space group: C M M M
;
_chemical_formula_sum "Si O2"
_cell_formula_units_Z 72
_cell_length_a 9.883175
_cell_length_b 15.840776
_cell_length_c 23.329811
_cell_angle_alpha 90.000000
_cell_angle_beta 90.000000
_cell_angle_gamma 90.000000
_cell_volume 3652.448985
_symmetry_space_group_name_H-M "C M M M"
_symmetry_group_IT_number 65
_symmetry_cell_setting 'orthorhombic'
loop_
_space_group_symop_operation_xyz
x,y,z
-x,-y,z
x,-y,-z
-x,y,-z
-x,-y,-z
x,y,-z
-x,y,z
x,-y,z
1/2+x,1/2+y,z
1/2-x,1/2-y,z
1/2+x,1/2-y,-z
1/2-x,1/2+y,-z
1/2-x,1/2-y,-z
1/2+x,1/2+y,-z
1/2-x,1/2+y,z
1/2+x,1/2-y,z
loop_
_atom_site_type_symbol
_atom_site_label
_atom_site_fract_x
_atom_site_fract_y
_atom_site_fract_z
Si Si1 0.000000 0.319627 0.936506
Si Si2 0.159987 0.670387 0.372107
Si Si3 0.660235 0.000000 0.564958
Si Si4 0.500000 0.378114 0.064207
Si Si5 0.844309 0.404019 0.747881
Si Si6 0.730878 0.093591 0.869902
O O1 0.000000 0.220756 0.941193
O O2 0.135225 0.343868 0.903956
O O3 0.000000 0.360573 0.000000
O O4 0.250000 0.750000 0.393216
O O5 0.211144 0.586177 0.404944
O O6 0.189745 0.657090 0.304817
O O7 0.000000 0.687425 0.383398
O O8 0.500000 0.000000 0.568313
O O9 0.714003 0.000000 0.500000
O O10 0.373716 0.410870 0.099686
O O11 0.500000 0.417246 0.000000
O O12 0.813597 0.500000 0.728343
O O13 0.755499 0.377118 0.803397
O O14 0.000000 0.394531 0.766249
O O15 0.665570 0.000000 0.869895
#
# Coordination Sequence:
#
# PCOD8272347 Si02
#       6
#     8  16   8   8  16  16
#     4  11  23  39  57  79 107 145 187 232 283 344
#     4  10  20  36  60  89 122 161 203 247 296 349
#     4   9  18  36  63  91 123 169 212 245 283 343
#     4  11  25  41  55  77 117 151 177 228 303 360
#     4   9  17  35  59  81 110 147 191 243 293 343
#     4  11  22  38  60  83 106 141 189 240 284 347
#
# _framework density 19.712802
#
# number of rings (size 3 to 8) (size 9 to 14) (size 15 to 20)
#    0.000    1.889    2.222    2.000    0.000    6.667 
#    2.000    0.556    0.000    0.667    0.000    0.000 
#    0.000    0.000    0.000    0.000    0.000    0.000 
#
# Total GULP energy -446338.398220 kJ/mol
# GULP energy per Si atom -12398.288839 kJ/mol
# Density = 1.966793 g / cm^3
# Si number density = 19.712802 Si / 1000 Ang^3
#
#
#
# Elastic Constant Matrix: (Units=GPa)
#
#
# Indices 1 2 3 4 5 6 
#
# 1 75.5241 35.0005 38.4486 0.0000 0.0000 0.0000
# 2 35.0005 115.8604 52.2205 0.0000 0.0000 0.0000
# 3 38.4486 52.2205 129.1981 0.0000 0.0000 0.0000
# 4 0.0000 0.0000 0.0000 18.8919 0.0000 0.0000
# 5 0.0000 0.0000 0.0000 0.0000 20.8143 0.0000
# 6 0.0000 0.0000 0.0000 0.0000 0.0000 30.7112
#
#
#
# Elastic Compliance Matrix: (Units=1/GPa)
#
#
# Indices 1 2 3 4 5 6 
#
# 1 0.016643 -0.003418 -0.003571 0.000000 0.000000 0.000000
# 2 -0.003418 0.011256 -0.003532 0.000000 0.000000 0.000000
# 3 -0.003571 -0.003532 0.010231 0.000000 0.000000 0.000000
# 4 0.000000 0.000000 0.000000 0.052933 0.000000 0.000000
# 5 0.000000 0.000000 0.000000 0.000000 0.048044 0.000000
# 6 0.000000 0.000000 0.000000 0.000000 0.000000 0.032561
#
#
# Mechanical properties :
#
#
# Convention : Reuss Voigt Hill
#
# Bulk Modulus (GPa) = 58.52741 63.54686 61.03714
# Shear Modulus (GPa) = 25.20086 27.07766 26.13926
#
# Velocity S-wave (km/s) = 3.57935 3.71024 3.64538
# Velocity P-wave (km/s) = 6.84375 7.11764 6.98204
#
# Compressibility (1/GPa) = 0.01708601
#
# Stress axis : x y z
#
# Youngs Moduli (GPa) = 60.08541 88.84390 97.74644
#
# Poissons Ratio (x) = 0.30367 0.34908
# Poissons Ratio (y) = 0.20537 0.34526
# Poissons Ratio (z) = 0.21458 0.31382
#
# Static dielectric constant tensor:
#      x y z
#    x 2.769880 0.000000 0.000000 
#    y 0.000000 3.575970 0.000000 
#    z 0.000000 0.000000 3.791260 
# 
# 
# High freq. dielectric constant tensor:
#      x y z
#    x 1.736180 0.000000 0.000000 
#    y 0.000000 1.773890 0.000000 
#    z 0.000000 0.000000 1.776430 
# 
# From -- ./inp_files/67164.got.cif
#   From: 2010.03.12/outbox.cif.g09.slc.cpg/sg65_34_cif.got.tgz:67164.got - 2010.04.10 20:52:16.
