data_PCOD8272007
_publ_section_title
;
Structure prediction by ZEFSAII (Michael W. Deem and Ramdas Pophale) SiO2 
 PCOD8272007
Probable space group: C M M M
;
_chemical_formula_sum "Si O2"
_cell_formula_units_Z 72
_cell_length_a 7.764050
_cell_length_b 18.524721
_cell_length_c 24.879715
_cell_angle_alpha 90.000000
_cell_angle_beta 90.000000
_cell_angle_gamma 90.000000
_cell_volume 3578.371288
_symmetry_space_group_name_H-M "C M M M"
_symmetry_group_IT_number 65
_symmetry_cell_setting 'orthorhombic'
loop_
_space_group_symop_operation_xyz
x,y,z
-x,-y,z
x,-y,-z
-x,y,-z
-x,-y,-z
x,y,-z
-x,y,z
x,-y,z
1/2+x,1/2+y,z
1/2-x,1/2-y,z
1/2+x,1/2-y,-z
1/2-x,1/2+y,-z
1/2-x,1/2-y,-z
1/2+x,1/2+y,-z
1/2-x,1/2+y,z
1/2+x,1/2-y,z
loop_
_atom_site_type_symbol
_atom_site_label
_atom_site_fract_x
_atom_site_fract_y
_atom_site_fract_z
Si Si1 0.705182 0.419008 0.841301
Si Si2 0.500000 0.585529 0.440220
Si Si3 0.702899 0.330141 0.940596
Si Si4 0.797709 0.166904 0.262457
Si Si5 0.806905 0.582845 0.634777
O O1 0.500000 0.418555 0.842635
O O2 0.777297 0.500000 0.835796
O O3 0.779807 0.385124 0.896573
O O4 0.771325 0.372085 0.791170
O O5 0.500000 0.500000 0.444672
O O6 0.500000 0.619689 0.500000
O O7 0.328503 0.612020 0.409292
O O8 0.500000 0.338824 0.943201
O O9 0.750000 0.250000 0.921698
O O10 0.781815 0.346232 0.000000
O O11 0.750000 0.250000 0.258411
O O12 0.701881 0.131388 0.312474
O O13 0.000000 0.155527 0.270008
O O14 0.763153 0.500000 0.650228
O O15 0.000000 0.588985 0.610731
#
# Coordination Sequence:
#
# PCOD8272007 Si02
#       5
#    16   8  16  16  16
#     4   9  18  31  49  74 103 136 176 225 280 334
#     4   9  18  34  58  88 120 154 190 230 278 327
#     4   9  17  30  49  72  99 134 176 222 270 327
#     4  11  21  34  53  77 106 144 184 231 283 341
#     4  10  20  35  57  86 117 150 190 234 279 333
#
# _framework density 20.120884
#
# number of rings (size 3 to 8) (size 9 to 14) (size 15 to 20)
#    0.000    2.333    1.111    2.000    0.000    1.778 
#    0.000    5.556    0.000    4.000    0.000    3.111 
#    0.000    0.000    0.000    0.000    0.000    0.000 
#
# Total GULP energy -446373.298384 kJ/mol
# GULP energy per Si atom -12399.258288 kJ/mol
# Density = 2.007509 g / cm^3
# Si number density = 20.120884 Si / 1000 Ang^3
#
#
#
# Elastic Constant Matrix: (Units=GPa)
#
#
# Indices 1 2 3 4 5 6 
#
# 1 75.5213 19.7684 40.6943 0.0000 0.0000 0.0000
# 2 19.7684 128.8173 80.1466 0.0000 0.0000 0.0000
# 3 40.6943 80.1466 171.5814 0.0000 0.0000 0.0000
# 4 0.0000 0.0000 0.0000 21.6536 0.0000 0.0000
# 5 0.0000 0.0000 0.0000 0.0000 7.8029 0.0000
# 6 0.0000 0.0000 0.0000 0.0000 0.0000 22.6201
#
#
#
# Elastic Compliance Matrix: (Units=1/GPa)
#
#
# Indices 1 2 3 4 5 6 
#
# 1 0.015183 -0.000126 -0.003542 0.000000 0.000000 0.000000
# 2 -0.000126 0.010944 -0.005082 0.000000 0.000000 0.000000
# 3 -0.003542 -0.005082 0.009042 0.000000 0.000000 0.000000
# 4 0.000000 0.000000 0.000000 0.046182 0.000000 0.000000
# 5 0.000000 0.000000 0.000000 0.000000 0.128158 0.000000
# 6 0.000000 0.000000 0.000000 0.000000 0.000000 0.044208
#
#
# Mechanical properties :
#
#
# Convention : Reuss Voigt Hill
#
# Bulk Modulus (GPa) = 56.59801 73.01540 64.80670
# Shear Modulus (GPa) = 18.04351 26.10271 22.07311
#
# Velocity S-wave (km/s) = 2.99784 3.60570 3.31573
# Velocity P-wave (km/s) = 6.33820 7.32816 6.85108
#
# Compressibility (1/GPa) = 0.01766847
#
# Stress axis : x y z
#
# Youngs Moduli (GPa) = 65.86344 91.37167 110.59347
#
# Poissons Ratio (x) = 0.01154 0.39172
# Poissons Ratio (y) = 0.00832 0.56206
# Poissons Ratio (z) = 0.23329 0.46437
#
# Static dielectric constant tensor:
#      x y z
#    x 3.534350 0.000000 0.000000 
#    y 0.000000 3.550400 0.000000 
#    z 0.000000 0.000000 3.915420 
# 
# 
# High freq. dielectric constant tensor:
#      x y z
#    x 1.775220 0.000000 0.000000 
#    y 0.000000 1.769180 0.000000 
#    z 0.000000 0.000000 1.787390 
# 
# From -- ./inp_files/66991.got.cif
#   From: 2010.03.12/outbox.cif.g09.slc.cpg/sg65_34_cif.got.tgz:66991.got - 2010.04.10 20:52:16.
