data_PCOD8272756
_publ_section_title
;
Structure prediction by ZEFSAII (Michael W. Deem and Ramdas Pophale) SiO2 
 PCOD8272756
Probable space group: C M M M
;
_chemical_formula_sum "Si O2"
_cell_formula_units_Z 88
_cell_length_a 28.254989
_cell_length_b 17.584233
_cell_length_c 9.789199
_cell_angle_alpha 90.000000
_cell_angle_beta 90.000000
_cell_angle_gamma 90.000000
_cell_volume 4863.688244
_symmetry_space_group_name_H-M "C M M M"
_symmetry_group_IT_number 65
_symmetry_cell_setting 'orthorhombic'
loop_
_space_group_symop_operation_xyz
x,y,z
-x,-y,z
x,-y,-z
-x,y,-z
-x,-y,-z
x,y,-z
-x,y,z
x,-y,z
1/2+x,1/2+y,z
1/2-x,1/2-y,z
1/2+x,1/2-y,-z
1/2-x,1/2+y,-z
1/2-x,1/2-y,-z
1/2+x,1/2+y,-z
1/2-x,1/2+y,z
1/2+x,1/2-y,z
loop_
_atom_site_type_symbol
_atom_site_label
_atom_site_fract_x
_atom_site_fract_y
_atom_site_fract_z
Si Si1 0.445411 0.291810 0.657522
Si Si2 0.209836 0.589261 0.342337
Si Si3 0.792976 0.909682 0.848861
Si Si4 0.609114 0.855701 0.338097
Si Si5 0.446707 0.000000 0.663294
Si Si6 0.899059 0.911717 0.841146
O O1 0.433367 0.310314 0.500000
O O2 0.500000 0.267818 0.672941
O O3 0.412951 0.223179 0.714791
O O4 0.435516 0.365818 0.747904
O O5 0.221305 0.604699 0.500000
O O6 0.200523 0.500000 0.316705
O O7 0.254313 0.621532 0.257411
O O8 0.163761 0.635865 0.292967
O O9 0.845682 0.884495 0.804853
O O10 0.791731 0.000000 0.851857
O O11 0.781003 0.878112 0.000000
O O12 0.605241 0.859392 0.500000
O O13 0.579229 0.925662 0.276761
O O14 0.500000 0.000000 0.718230
O O15 0.445156 0.000000 0.500000
O O16 0.906042 0.000000 0.806264
O O17 0.909918 0.896440 0.000000
#
# Coordination Sequence:
#
# PCOD8272756 Si02
#       6
#    16  16  16  16   8  16
#     4  10  21  35  51  74 104 133 162 204 255 298
#     4   9  15  25  45  73 102 132 166 202 239 282
#     4   8  15  29  49  72  97 124 158 202 248 293
#     4   9  16  28  44  69 104 136 167 204 244 286
#     4   9  14  22  42  68  95 133 177 211 238 277
#     4   9  19  37  58  76  95 125 166 207 248 302
#
# _framework density 18.093264999999999
#
# number of rings (size 3 to 8) (size 9 to 14) (size 15 to 20)
#    0.000    3.000    0.909    1.636    0.000    4.000 
#    0.000    5.455    0.000    5.455    0.000    0.000 
#    0.000    2.909    0.000    0.000    0.000    0.000 
#
# Total GULP energy -545481.280964 kJ/mol
# GULP energy per Si atom -12397.301840 kJ/mol
# Density = 1.805208 g / cm^3
# Si number density = 18.093265 Si / 1000 Ang^3
#
#
#
# Elastic Constant Matrix: (Units=GPa)
#
#
# Indices 1 2 3 4 5 6 
#
# 1 78.3588 30.7092 37.3768 0.0000 0.0000 0.0000
# 2 30.7092 73.8499 32.7270 0.0000 0.0000 0.0000
# 3 37.3768 32.7270 52.5805 0.0000 0.0000 0.0000
# 4 0.0000 0.0000 0.0000 13.5470 0.0000 0.0000
# 5 0.0000 0.0000 0.0000 0.0000 7.9214 0.0000
# 6 0.0000 0.0000 0.0000 0.0000 0.0000 28.5557
#
#
#
# Elastic Compliance Matrix: (Units=1/GPa)
#
#
# Indices 1 2 3 4 5 6 
#
# 1 0.019703 -0.002743 -0.012299 0.000000 0.000000 0.000000
# 2 -0.002743 0.019080 -0.009926 0.000000 0.000000 0.000000
# 3 -0.012299 -0.009926 0.033939 0.000000 0.000000 0.000000
# 4 0.000000 0.000000 0.000000 0.073817 0.000000 0.000000
# 5 0.000000 0.000000 0.000000 0.000000 0.126240 0.000000
# 6 0.000000 0.000000 0.000000 0.000000 0.000000 0.035019
#
#
# Mechanical properties :
#
#
# Convention : Reuss Voigt Hill
#
# Bulk Modulus (GPa) = 43.88439 45.15723 44.52081
# Shear Modulus (GPa) = 13.68624 16.93657 15.31140
#
# Velocity S-wave (km/s) = 2.75331 3.06285 2.91219
# Velocity P-wave (km/s) = 5.86641 6.12538 5.99729
#
# Compressibility (1/GPa) = 0.02278714
#
# Stress axis : x y z
#
# Youngs Moduli (GPa) = 50.75305 52.40979 29.46444
#
# Poissons Ratio (x) = 0.14376 0.36238
# Poissons Ratio (y) = 0.13921 0.29247
# Poissons Ratio (z) = 0.62420 0.52023
#
# Static dielectric constant tensor:
#      x y z
#    x 3.501170 0.000000 0.000000 
#    y 0.000000 3.152690 0.000000 
#    z 0.000000 0.000000 3.082880 
# 
# 
# High freq. dielectric constant tensor:
#      x y z
#    x 1.711830 0.000000 0.000000 
#    y 0.000000 1.679850 0.000000 
#    z 0.000000 0.000000 1.663810 
# 
# From -- ./inp_files/10061.got.cif
#   From: 2010.03.12/outbox.cif.g09.slc.cpg/sg65_6_cif.got.tgz:10061.got - 2010.04.10 20:52:16.
