data_PCOD8272019
_publ_section_title
;
Structure prediction by ZEFSAII (Michael W. Deem and Ramdas Pophale) SiO2 
 PCOD8272019
Probable space group: C M M M
;
_chemical_formula_sum "Si O2"
_cell_formula_units_Z 80
_cell_length_a 23.725161
_cell_length_b 8.759981
_cell_length_c 20.215121
_cell_angle_alpha 90.000000
_cell_angle_beta 90.000000
_cell_angle_gamma 90.000000
_cell_volume 4201.348211
_symmetry_space_group_name_H-M "C M M M"
_symmetry_group_IT_number 65
_symmetry_cell_setting 'orthorhombic'
loop_
_space_group_symop_operation_xyz
x,y,z
-x,-y,z
x,-y,-z
-x,y,-z
-x,-y,-z
x,y,-z
-x,y,z
x,-y,z
1/2+x,1/2+y,z
1/2-x,1/2-y,z
1/2+x,1/2-y,-z
1/2-x,1/2+y,-z
1/2-x,1/2-y,-z
1/2+x,1/2+y,-z
1/2-x,1/2+y,z
1/2+x,1/2-y,z
loop_
_atom_site_type_symbol
_atom_site_label
_atom_site_fract_x
_atom_site_fract_y
_atom_site_fract_z
Si Si1 0.384817 0.825250 0.424088
Si Si2 0.310873 0.320163 0.685755
Si Si3 0.000000 0.673357 0.757580
Si Si4 0.121343 0.676455 0.802872
Si Si5 0.308661 0.179656 0.926359
Si Si6 0.500000 0.679196 0.381365
O O1 0.365994 0.813797 0.500000
O O2 0.337029 0.741512 0.382086
O O3 0.445336 0.748742 0.415597
O O4 0.389206 0.000000 0.400217
O O5 0.305109 0.500000 0.680337
O O6 0.250000 0.250000 0.698481
O O7 0.351314 0.278697 0.746269
O O8 0.054357 0.703010 0.803067
O O9 0.000000 0.788045 0.696448
O O10 0.000000 0.500000 0.729905
O O11 0.136956 0.500000 0.789198
O O12 0.143210 0.729842 0.874764
O O13 0.250000 0.250000 0.901972
O O14 0.301091 0.000000 0.927243
O O15 0.324705 0.239624 0.000000
O O16 0.500000 0.500000 0.393277
#
# Coordination Sequence:
#
# PCOD8272019 Si02
#       6
#    16  16   8  16  16   8
#     4  11  24  42  63  86 115 152 192 237 290 346
#     4  12  25  40  60  85 115 150 192 240 291 349
#     4  10  20  35  58  82 114 154 191 234 288 344
#     4  10  20  36  58  84 115 152 193 238 289 344
#     4   9  18  33  54  82 115 151 193 239 286 338
#     4  12  23  37  60  90 119 150 191 240 287 340
#
# _framework density 19.041508
#
# number of rings (size 3 to 8) (size 9 to 14) (size 15 to 20)
#    0.000    1.400    2.000    4.200    0.000    5.600 
#    0.000    0.500    0.000    3.000    0.000    0.000 
#    0.000    5.600    0.000    0.000    0.000    0.000 
#
# Total GULP energy -496160.948713 kJ/mol
# GULP energy per Si atom -12404.023718 kJ/mol
# Density = 1.899817 g / cm^3
# Si number density = 19.041508 Si / 1000 Ang^3
#
#
#
# Elastic Constant Matrix: (Units=GPa)
#
#
# Indices 1 2 3 4 5 6 
#
# 1 135.0823 46.9976 58.5121 0.0000 0.0000 0.0000
# 2 46.9976 113.4276 41.0215 0.0000 0.0000 0.0000
# 3 58.5121 41.0215 116.5677 0.0000 0.0000 0.0000
# 4 0.0000 0.0000 0.0000 17.7251 0.0000 0.0000
# 5 0.0000 0.0000 0.0000 0.0000 23.1068 0.0000
# 6 0.0000 0.0000 0.0000 0.0000 0.0000 29.7850
#
#
#
# Elastic Compliance Matrix: (Units=1/GPa)
#
#
# Indices 1 2 3 4 5 6 
#
# 1 0.010135 -0.002704 -0.004136 0.000000 0.000000 0.000000
# 2 -0.002704 0.010823 -0.002452 0.000000 0.000000 0.000000
# 3 -0.004136 -0.002452 0.011518 0.000000 0.000000 0.000000
# 4 0.000000 0.000000 0.000000 0.056417 0.000000 0.000000
# 5 0.000000 0.000000 0.000000 0.000000 0.043277 0.000000
# 6 0.000000 0.000000 0.000000 0.000000 0.000000 0.033574
#
#
# Mechanical properties :
#
#
# Convention : Reuss Voigt Hill
#
# Bulk Modulus (GPa) = 71.97737 73.12665 72.55201
# Shear Modulus (GPa) = 26.46097 28.69314 27.57705
#
# Velocity S-wave (km/s) = 3.73184 3.88606 3.80973
# Velocity P-wave (km/s) = 7.51340 7.65653 7.58530
#
# Compressibility (1/GPa) = 0.01389326
#
# Stress axis : x y z
#
# Youngs Moduli (GPa) = 98.66761 92.39540 86.82402
#
# Poissons Ratio (x) = 0.24980 0.35910
# Poissons Ratio (y) = 0.26675 0.21286
# Poissons Ratio (z) = 0.40808 0.22652
#
# Static dielectric constant tensor:
#      x y z
#    x 3.603850 0.000000 0.000000 
#    y 0.000000 3.542750 0.000000 
#    z 0.000000 0.000000 3.669760 
# 
# 
# High freq. dielectric constant tensor:
#      x y z
#    x 1.743330 0.000000 0.000000 
#    y 0.000000 1.741920 0.000000 
#    z 0.000000 0.000000 1.742220 
# 
# From -- ./inp_files/65052.got.cif
#   From: 2010.03.12/outbox.cif.g09.slc.cpg/sg65_33_cif.got.tgz:65052.got - 2010.04.10 20:52:16.
