data_PCOD8272148
_publ_section_title
;
Structure prediction by ZEFSAII (Michael W. Deem and Ramdas Pophale) SiO2 
 PCOD8272148
Probable space group: C M M M
;
_chemical_formula_sum "Si O2"
_cell_formula_units_Z 64
_cell_length_a 8.693467
_cell_length_b 28.193495
_cell_length_c 13.054637
_cell_angle_alpha 90.000000
_cell_angle_beta 90.000000
_cell_angle_gamma 90.000000
_cell_volume 3199.681325
_symmetry_space_group_name_H-M "C M M M"
_symmetry_group_IT_number 65
_symmetry_cell_setting 'orthorhombic'
loop_
_space_group_symop_operation_xyz
x,y,z
-x,-y,z
x,-y,-z
-x,y,-z
-x,-y,-z
x,y,-z
-x,y,z
x,-y,z
1/2+x,1/2+y,z
1/2-x,1/2-y,z
1/2+x,1/2-y,-z
1/2-x,1/2+y,-z
1/2-x,1/2-y,-z
1/2+x,1/2+y,-z
1/2-x,1/2+y,z
1/2+x,1/2-y,z
loop_
_atom_site_type_symbol
_atom_site_label
_atom_site_fract_x
_atom_site_fract_y
_atom_site_fract_z
Si Si1 0.182697 0.391068 0.307641
Si Si2 0.682743 0.053415 0.111929
Si Si3 0.681754 0.554893 0.500000
Si Si4 0.679227 0.300844 0.000000
Si Si5 0.317925 0.302243 0.777190
O O1 0.248236 0.415090 0.203947
O O2 0.250378 0.419777 0.401390
O O3 0.243393 0.336976 0.307212
O O4 0.000000 0.391603 0.315028
O O5 0.500000 0.053306 0.116115
O O6 0.744835 0.000000 0.126173
O O7 0.737509 0.073035 0.000000
O O8 0.732971 0.500000 0.500000
O O9 0.500000 0.560150 0.500000
O O10 0.750000 0.250000 0.000000
O O11 0.727688 0.324069 0.890766
O O12 0.500000 0.293256 0.000000
O O13 0.500000 0.299954 0.761467
O O14 0.250000 0.250000 0.760822
#
# Coordination Sequence:
#
# PCOD8272148 Si02
#       5
#    16  16   8   8  16
#     4  11  22  36  60  90 118 154 199 246 298 356
#     4   8  15  29  50  80 117 151 184 229 287 349
#     4  11  25  45  66  87 116 155 199 249 301 353
#     4   8  16  30  50  76 111 156 199 240 284 337
#     4  10  20  36  56  83 120 161 203 247 294 348
#
# _framework density 20.001991
#
# number of rings (size 3 to 8) (size 9 to 14) (size 15 to 20)
#    0.000    2.375    0.000    3.375    1.750    3.000 
#    0.000    0.625    0.000    0.000    0.000    5.250 
#    0.000    0.000    0.000    0.000    0.000    0.000 
#
# Total GULP energy -396518.568858 kJ/mol
# GULP energy per Si atom -12391.205277 kJ/mol
# Density = 1.995647 g / cm^3
# Si number density = 20.001991 Si / 1000 Ang^3
#
#
#
# Elastic Constant Matrix: (Units=GPa)
#
#
# Indices 1 2 3 4 5 6 
#
# 1 65.5955 48.3185 51.4446 0.0000 0.0000 0.0000
# 2 48.3185 129.8444 93.0302 0.0000 0.0000 0.0000
# 3 51.4446 93.0302 147.8262 0.0000 0.0000 0.0000
# 4 0.0000 0.0000 0.0000 37.1082 0.0000 0.0000
# 5 0.0000 0.0000 0.0000 0.0000 23.2653 0.0000
# 6 0.0000 0.0000 0.0000 0.0000 0.0000 24.5257
#
#
#
# Elastic Compliance Matrix: (Units=1/GPa)
#
#
# Indices 1 2 3 4 5 6 
#
# 1 0.022662 -0.005067 -0.004697 0.000000 0.000000 0.000000
# 2 -0.005067 0.015159 -0.007776 0.000000 0.000000 0.000000
# 3 -0.004697 -0.007776 0.013293 0.000000 0.000000 0.000000
# 4 0.000000 0.000000 0.000000 0.026948 0.000000 0.000000
# 5 0.000000 0.000000 0.000000 0.000000 0.042982 0.000000
# 6 0.000000 0.000000 0.000000 0.000000 0.000000 0.040774
#
#
# Mechanical properties :
#
#
# Convention : Reuss Voigt Hill
#
# Bulk Modulus (GPa) = 62.37715 80.98362 71.68038
# Shear Modulus (GPa) = 24.72265 27.01136 25.86700
#
# Velocity S-wave (km/s) = 3.51951 3.67881 3.60004
# Velocity P-wave (km/s) = 6.91152 7.65641 7.29348
#
# Compressibility (1/GPa) = 0.01603151
#
# Stress axis : x y z
#
# Youngs Moduli (GPa) = 44.12730 65.96868 75.22669
#
# Poissons Ratio (x) = 0.33429 0.35337
# Poissons Ratio (y) = 0.22361 0.58498
# Poissons Ratio (z) = 0.20728 0.51299
#
# Static dielectric constant tensor:
#      x y z
#    x 14.366660 0.000000 0.000000 
#    y 0.000000 3.633590 0.000000 
#    z 0.000000 0.000000 4.577270 
# 
# 
# High freq. dielectric constant tensor:
#      x y z
#    x 1.764200 0.000000 0.000000 
#    y 0.000000 1.782580 0.000000 
#    z 0.000000 0.000000 1.778740 
# 
# From -- ./inp_files/21036.got.cif
#   From: 2010.03.12/outbox.cif.g09.slc.cpg/sg65_11_cif.got.tgz:21036.got - 2010.04.10 20:52:16.
