data_PCOD8272122
_publ_section_title
;
Structure prediction by ZEFSAII (Michael W. Deem and Ramdas Pophale) SiO2 
 PCOD8272122
Probable space group: C M M M
;
_chemical_formula_sum "Si O2"
_cell_formula_units_Z 72
_cell_length_a 8.728865
_cell_length_b 14.521851
_cell_length_c 30.870020
_cell_angle_alpha 90.000000
_cell_angle_beta 90.000000
_cell_angle_gamma 90.000000
_cell_volume 3913.061414
_symmetry_space_group_name_H-M "C M M M"
_symmetry_group_IT_number 65
_symmetry_cell_setting 'orthorhombic'
loop_
_space_group_symop_operation_xyz
x,y,z
-x,-y,z
x,-y,-z
-x,y,-z
-x,-y,-z
x,y,-z
-x,y,z
x,-y,z
1/2+x,1/2+y,z
1/2-x,1/2-y,z
1/2+x,1/2-y,-z
1/2-x,1/2+y,-z
1/2-x,1/2-y,-z
1/2+x,1/2+y,-z
1/2-x,1/2+y,z
1/2+x,1/2-y,z
loop_
_atom_site_type_symbol
_atom_site_label
_atom_site_fract_x
_atom_site_fract_y
_atom_site_fract_z
Si Si1 0.319198 0.500000 0.791513
Si Si2 0.321184 0.649438 0.500000
Si Si3 0.818003 0.851769 0.277049
Si Si4 0.181099 0.153238 0.951785
Si Si5 0.680464 0.000000 0.337870
Si Si6 0.319368 0.500000 0.430696
Si Si7 0.817116 0.000000 0.887930
O O1 0.500000 0.500000 0.795494
O O2 0.267318 0.592016 0.766016
O O3 0.245873 0.500000 0.839577
O O4 0.500000 0.663793 0.500000
O O5 0.250000 0.750000 0.500000
O O6 0.273647 0.591356 0.457576
O O7 0.750000 0.750000 0.274784
O O8 0.000000 0.846090 0.281518
O O9 0.752956 0.907156 0.318054
O O10 0.250000 0.250000 0.939495
O O11 0.245080 0.086702 0.914732
O O12 0.000000 0.158448 0.950332
O O13 0.233655 0.121264 0.000000
O O14 0.716180 0.000000 0.388368
O O15 0.500000 0.000000 0.329529
O O16 0.500000 0.500000 0.419596
O O17 0.000000 0.000000 0.886119
#
# Coordination Sequence:
#
# PCOD8272122 Si02
#       7
#     8   8  16  16   8   8   8
#     4   8  17  32  50  73  99 127 162 207 255 301
#     4   9  19  35  56  78 106 145 183 217 259 306
#     4  10  20  36  56  77 103 135 170 212 262 314
#     4   9  17  29  46  68  94 125 161 200 242 290
#     4  11  22  36  56  83 109 138 177 219 264 313
#     4   9  19  37  55  76 110 147 177 215 264 309
#     4   9  16  29  49  70  94 127 165 200 240 296
#
# _framework density 18.399915
#
# number of rings (size 3 to 8) (size 9 to 14) (size 15 to 20)
#    0.000    2.667    0.000    3.333    0.000    4.000 
#    0.000    3.889    0.000    9.333    0.000    0.000 
#    0.000    0.000    0.000    0.000    0.000    0.000 
#
# Total GULP energy -446251.811931 kJ/mol
# GULP energy per Si atom -12395.883665 kJ/mol
# Density = 1.835804 g / cm^3
# Si number density = 18.399915 Si / 1000 Ang^3
#
#
#
# Elastic Constant Matrix: (Units=GPa)
#
#
# Indices 1 2 3 4 5 6 
#
# 1 55.4178 46.7196 39.2627 0.0000 0.0000 0.0000
# 2 46.7196 179.6564 93.9257 0.0000 0.0000 0.0000
# 3 39.2627 93.9257 162.9607 0.0000 0.0000 0.0000
# 4 0.0000 0.0000 0.0000 13.9952 0.0000 0.0000
# 5 0.0000 0.0000 0.0000 0.0000 17.8587 0.0000
# 6 0.0000 0.0000 0.0000 0.0000 0.0000 33.2934
#
#
#
# Elastic Compliance Matrix: (Units=1/GPa)
#
#
# Indices 1 2 3 4 5 6 
#
# 1 0.024193 -0.004643 -0.003153 0.000000 0.000000 0.000000
# 2 -0.004643 0.008858 -0.003987 0.000000 0.000000 0.000000
# 3 -0.003153 -0.003987 0.009194 0.000000 0.000000 0.000000
# 4 0.000000 0.000000 0.000000 0.071453 0.000000 0.000000
# 5 0.000000 0.000000 0.000000 0.000000 0.055995 0.000000
# 6 0.000000 0.000000 0.000000 0.000000 0.000000 0.030036
#
#
# Mechanical properties :
#
#
# Convention : Reuss Voigt Hill
#
# Bulk Modulus (GPa) = 53.53482 84.20566 68.87024
# Shear Modulus (GPa) = 21.78458 27.57125 24.67791
#
# Velocity S-wave (km/s) = 3.44459 3.87517 3.66621
# Velocity P-wave (km/s) = 6.70661 8.11703 7.44529
#
# Compressibility (1/GPa) = 0.01867943
#
# Stress axis : x y z
#
# Youngs Moduli (GPa) = 41.33484 112.89336 108.76766
#
# Poissons Ratio (x) = 0.52417 0.34291
# Poissons Ratio (y) = 0.19192 0.43363
# Poissons Ratio (z) = 0.13032 0.45008
#
# Static dielectric constant tensor:
#      x y z
#    x 3.136530 0.000000 0.000000 
#    y 0.000000 3.397430 0.000000 
#    z 0.000000 0.000000 3.651990 
# 
# 
# High freq. dielectric constant tensor:
#      x y z
#    x 1.691840 0.000000 0.000000 
#    y 0.000000 1.720360 0.000000 
#    z 0.000000 0.000000 1.719210 
# 
# From -- ./inp_files/76395.got.cif
#   From: 2010.03.12/outbox.cif.g09.slc.cpg/sg65_39_cif.got.tgz:76395.got - 2010.04.10 20:52:16.
