data_PCOD8272522
_publ_section_title
;
Structure prediction by ZEFSAII (Michael W. Deem and Ramdas Pophale) SiO2 
 PCOD8272522
Probable space group: C M M M
;
_chemical_formula_sum "Si O2"
_cell_formula_units_Z 64
_cell_length_a 23.882282
_cell_length_b 8.895110
_cell_length_c 15.409961
_cell_angle_alpha 90.000000
_cell_angle_beta 90.000000
_cell_angle_gamma 90.000000
_cell_volume 3273.623162
_symmetry_space_group_name_H-M "C M M M"
_symmetry_group_IT_number 65
_symmetry_cell_setting 'orthorhombic'
loop_
_space_group_symop_operation_xyz
x,y,z
-x,-y,z
x,-y,-z
-x,y,-z
-x,-y,-z
x,y,-z
-x,y,z
x,-y,z
1/2+x,1/2+y,z
1/2-x,1/2-y,z
1/2+x,1/2-y,-z
1/2-x,1/2+y,-z
1/2-x,1/2-y,-z
1/2+x,1/2+y,-z
1/2-x,1/2+y,z
1/2+x,1/2-y,z
loop_
_atom_site_type_symbol
_atom_site_label
_atom_site_fract_x
_atom_site_fract_y
_atom_site_fract_z
Si Si1 0.000000 0.677607 0.401347
Si Si2 0.120232 0.825494 0.150547
Si Si3 0.689510 0.177738 0.000000
Si Si4 0.111813 0.174280 0.344618
Si Si5 0.689841 0.322841 0.500000
Si Si6 0.500000 0.677678 0.903815
O O1 0.054505 0.735332 0.351843
O O2 0.000000 0.500000 0.399303
O O3 0.000000 0.738711 0.500000
O O4 0.157802 0.727536 0.086886
O O5 0.139262 0.800122 0.249835
O O6 0.055887 0.768838 0.145183
O O7 0.125676 0.000000 0.122938
O O8 0.750000 0.250000 0.000000
O O9 0.695392 0.000000 0.000000
O O10 0.156309 0.232529 0.415161
O O11 0.097315 0.000000 0.359721
O O12 0.697663 0.500000 0.500000
O O13 0.750000 0.250000 0.500000
O O14 0.500000 0.500000 0.909191
O O15 0.500000 0.748142 0.000000
#
# Coordination Sequence:
#
# PCOD8272522 Si02
#       6
#     8  16   8  16   8   8
#     4  11  22  35  57  90 126 162 198 245 299 346
#     4  10  20  38  63  90 119 154 197 242 292 354
#     4  12  26  43  62  85 117 158 200 250 301 350
#     4  10  21  38  62  88 118 158 200 242 294 359
#     4  10  22  39  58  83 113 150 198 246 295 350
#     4   9  15  28  56  87 114 146 180 224 283 347
#
# _framework density 19.550204999999998
#
# number of rings (size 3 to 8) (size 9 to 14) (size 15 to 20)
#    0.000    1.750    2.500    2.250    0.000    5.500 
#    0.000    3.750    0.000    0.000    0.000    0.000 
#    0.000    0.000    0.000    0.000    0.000    0.000 
#
# Total GULP energy -396858.750657 kJ/mol
# GULP energy per Si atom -12401.835958 kJ/mol
# Density = 1.950571 g / cm^3
# Si number density = 19.550205 Si / 1000 Ang^3
#
#
#
# Elastic Constant Matrix: (Units=GPa)
#
#
# Indices 1 2 3 4 5 6 
#
# 1 156.4879 54.2194 69.0432 0.0000 0.0000 0.0000
# 2 54.2194 78.6334 45.8591 0.0000 0.0000 0.0000
# 3 69.0432 45.8591 151.3459 0.0000 0.0000 0.0000
# 4 0.0000 0.0000 0.0000 23.9149 0.0000 0.0000
# 5 0.0000 0.0000 0.0000 0.0000 6.1388 0.0000
# 6 0.0000 0.0000 0.0000 0.0000 0.0000 35.1221
#
#
#
# Elastic Compliance Matrix: (Units=1/GPa)
#
#
# Indices 1 2 3 4 5 6 
#
# 1 0.009271 -0.004769 -0.002784 0.000000 0.000000 0.000000
# 2 -0.004769 0.017900 -0.003248 0.000000 0.000000 0.000000
# 3 -0.002784 -0.003248 0.008862 0.000000 0.000000 0.000000
# 4 0.000000 0.000000 0.000000 0.041815 0.000000 0.000000
# 5 0.000000 0.000000 0.000000 0.000000 0.162898 0.000000
# 6 0.000000 0.000000 0.000000 0.000000 0.000000 0.028472
#
#
# Mechanical properties :
#
#
# Convention : Reuss Voigt Hill
#
# Bulk Modulus (GPa) = 69.30105 80.52339 74.91222
# Shear Modulus (GPa) = 16.91299 27.52486 22.21892
#
# Velocity S-wave (km/s) = 2.94446 3.75628 3.37487
# Velocity P-wave (km/s) = 6.86181 7.75179 7.32034
#
# Compressibility (1/GPa) = 0.01442979
#
# Stress axis : x y z
#
# Youngs Moduli (GPa) = 107.86313 55.86659 112.84263
#
# Poissons Ratio (x) = 0.26641 0.31420
# Poissons Ratio (y) = 0.51436 0.36655
# Poissons Ratio (z) = 0.30034 0.18147
#
# Static dielectric constant tensor:
#      x y z
#    x 3.630390 0.000000 0.000000 
#    y 0.000000 3.309950 0.000000 
#    z 0.000000 0.000000 3.798750 
# 
# 
# High freq. dielectric constant tensor:
#      x y z
#    x 1.759000 0.000000 0.000000 
#    y 0.000000 1.736560 0.000000 
#    z 0.000000 0.000000 1.779360 
# 
# From -- ./inp_files/45142.got.cif
#   From: 2010.03.12/outbox.cif.g09.slc.cpg/sg65_23_cif.got.tgz:45142.got - 2010.04.10 20:52:16.
