data_PCOD8272539
_publ_section_title
;
Structure prediction by ZEFSAII (Michael W. Deem and Ramdas Pophale) SiO2 
 PCOD8272539
Probable space group: C M M M
;
_chemical_formula_sum "Si O2"
_cell_formula_units_Z 72
_cell_length_a 15.770943
_cell_length_b 8.622360
_cell_length_c 26.427221
_cell_angle_alpha 90.000000
_cell_angle_beta 90.000000
_cell_angle_gamma 90.000000
_cell_volume 3593.646136
_symmetry_space_group_name_H-M "C M M M"
_symmetry_group_IT_number 65
_symmetry_cell_setting 'orthorhombic'
loop_
_space_group_symop_operation_xyz
x,y,z
-x,-y,z
x,-y,-z
-x,y,-z
-x,-y,-z
x,y,-z
-x,y,z
x,-y,z
1/2+x,1/2+y,z
1/2-x,1/2-y,z
1/2+x,1/2-y,-z
1/2-x,1/2+y,-z
1/2-x,1/2-y,-z
1/2+x,1/2+y,-z
1/2-x,1/2+y,z
1/2+x,1/2-y,z
loop_
_atom_site_type_symbol
_atom_site_label
_atom_site_fract_x
_atom_site_fract_y
_atom_site_fract_z
Si Si1 0.405784 0.667022 0.500000
Si Si2 0.500000 0.316017 0.769965
Si Si3 0.159415 0.682659 0.597476
Si Si4 0.500000 0.316370 0.115402
Si Si5 0.339082 0.182210 0.058532
Si Si6 0.657131 0.316107 0.296152
O O1 0.353684 0.500000 0.500000
O O2 0.500000 0.610569 0.500000
O O3 0.395460 0.772445 0.549390
O O4 0.500000 0.500000 0.767863
O O5 0.500000 0.254364 0.827211
O O6 0.413936 0.255074 0.743145
O O7 0.161738 0.500000 0.605778
O O8 0.250000 0.750000 0.584233
O O9 0.125360 0.760306 0.648897
O O10 0.500000 0.500000 0.112977
O O11 0.415904 0.255649 0.088851
O O12 0.250000 0.250000 0.078735
O O13 0.338933 0.000000 0.067218
O O14 0.351562 0.226522 0.000000
O O15 0.664160 0.500000 0.295934
O O16 0.750000 0.250000 0.282008
#
# Coordination Sequence:
#
# PCOD8272539 Si02
#       6
#     8   8  16   8  16  16
#     4  11  24  39  56  81 113 149 182 219 278 341
#     4   9  22  40  60  84 117 156 196 241 295 352
#     4  11  22  38  59  84 112 143 182 229 280 337
#     4  11  22  38  59  88 123 161 202 247 302 356
#     4  10  21  38  60  88 122 161 204 249 298 354
#     4  10  20  39  62  85 112 150 194 239 291 347
#
# _framework density 20.035361999999999
#
# number of rings (size 3 to 8) (size 9 to 14) (size 15 to 20)
#    0.000    1.667    0.000    6.000    1.556    4.444 
#    0.000    8.333    0.000    0.000    0.000    0.000 
#    0.000    0.000    0.000    0.000    0.000    0.000 
#
# Total GULP energy -446310.832793 kJ/mol
# GULP energy per Si atom -12397.523133 kJ/mol
# Density = 1.998976 g / cm^3
# Si number density = 20.035362 Si / 1000 Ang^3
#
#
#
# Elastic Constant Matrix: (Units=GPa)
#
#
# Indices 1 2 3 4 5 6 
#
# 1 156.0495 52.3154 98.6118 0.0000 0.0000 0.0000
# 2 52.3154 103.1483 46.7380 0.0000 0.0000 0.0000
# 3 98.6118 46.7380 140.3844 0.0000 0.0000 0.0000
# 4 0.0000 0.0000 0.0000 35.1680 0.0000 0.0000
# 5 0.0000 0.0000 0.0000 0.0000 -366.3318 0.0000
# 6 0.0000 0.0000 0.0000 0.0000 0.0000 32.3660
#
#
#
# Elastic Compliance Matrix: (Units=1/GPa)
#
#
# Indices 1 2 3 4 5 6 
#
# 1 0.012129 -0.002698 -0.007622 0.000000 0.000000 0.000000
# 2 -0.002698 0.012017 -0.002106 0.000000 0.000000 0.000000
# 3 -0.007622 -0.002106 0.013178 0.000000 0.000000 0.000000
# 4 0.000000 0.000000 0.000000 0.028435 0.000000 0.000000
# 5 0.000000 0.000000 0.000000 0.000000 -0.002730 0.000000
# 6 0.000000 0.000000 0.000000 0.000000 0.000000 0.030897
#
#
# Mechanical properties :
#
#
# Convention : Reuss Voigt Hill
#
# Bulk Modulus (GPa) = 80.16935 88.32362 84.24648
# Shear Modulus (GPa) = 40.67183 -46.29841 -2.81329
#
# Velocity S-wave (km/s) = 4.51044 -4.81233 -1.18626
# Velocity P-wave (km/s) = 8.19916 3.64713 6.34538
#
# Compressibility (1/GPa) = 0.01247360
#
# Stress axis : x y z
#
# Youngs Moduli (GPa) = 82.44604 83.21305 75.88358
#
# Poissons Ratio (x) = 0.22453 0.57836
# Poissons Ratio (y) = 0.22246 0.15978
# Poissons Ratio (z) = 0.62838 0.17521
#
# Static dielectric constant tensor:
#      x y z
#    x 3.788130 0.000000 0.000000 
#    y 0.000000 3.688890 0.000000 
#    z 0.000000 0.000000 3.830930 
# 
# 
# High freq. dielectric constant tensor:
#      x y z
#    x 1.788420 0.000000 0.000000 
#    y 0.000000 1.791040 0.000000 
#    z 0.000000 0.000000 1.781320 
# 
# From -- ./inp_files/74678.got.cif
#   From: 2010.03.12/outbox.cif.g09.slc.cpg/sg65_38_cif.got.tgz:74678.got - 2010.04.10 20:52:16.
