data_PCOD8272741
_publ_section_title
;
Structure prediction by ZEFSAII (Michael W. Deem and Ramdas Pophale) SiO2 
 PCOD8272741
Probable space group: C M M M
;
_chemical_formula_sum "Si O2"
_cell_formula_units_Z 80
_cell_length_a 9.329932
_cell_length_b 18.724868
_cell_length_c 26.061187
_cell_angle_alpha 90.000000
_cell_angle_beta 90.000000
_cell_angle_gamma 90.000000
_cell_volume 4552.934850
_symmetry_space_group_name_H-M "C M M M"
_symmetry_group_IT_number 65
_symmetry_cell_setting 'orthorhombic'
loop_
_space_group_symop_operation_xyz
x,y,z
-x,-y,z
x,-y,-z
-x,y,-z
-x,-y,-z
x,y,-z
-x,y,z
x,-y,z
1/2+x,1/2+y,z
1/2-x,1/2-y,z
1/2+x,1/2-y,-z
1/2-x,1/2+y,-z
1/2-x,1/2-y,-z
1/2+x,1/2+y,-z
1/2-x,1/2+y,z
1/2+x,1/2-y,z
loop_
_atom_site_type_symbol
_atom_site_label
_atom_site_fract_x
_atom_site_fract_y
_atom_site_fract_z
Si Si1 0.337976 0.915075 0.196474
Si Si2 0.167354 0.823884 0.389254
Si Si3 0.166795 0.917466 0.902417
Si Si4 0.336139 0.321489 0.500000
Si Si5 0.166649 0.917105 0.705621
Si Si6 0.167948 0.175806 0.000000
O O1 0.500000 0.885503 0.196191
O O2 0.256934 0.888061 0.145713
O O3 0.256359 0.885664 0.246635
O O4 0.334748 0.000000 0.197419
O O5 0.250000 0.750000 0.383065
O O6 0.197774 0.861012 0.445632
O O7 0.220307 0.878238 0.345833
O O8 0.000000 0.807510 0.382441
O O9 0.212969 0.870226 0.950714
O O10 0.000000 0.908757 0.889080
O O11 0.202632 0.000000 0.914849
O O12 0.500000 0.298230 0.500000
O O13 0.250000 0.250000 0.500000
O O14 0.000000 0.903449 0.717151
O O15 0.198830 0.000000 0.697241
O O16 0.250000 0.250000 0.000000
O O17 0.000000 0.191940 0.000000
#
# Coordination Sequence:
#
# PCOD8272741 Si02
#       6
#    16  16  16   8  16   8
#     4   9  17  29  47  72  97 120 151 192 234 272
#     4   9  17  29  46  67  90 118 153 191 230 273
#     4   9  17  32  54  75  94 121 159 196 226 265
#     4   8  14  26  43  63  87 115 149 188 228 270
#     4   9  17  30  47  67  93 124 154 185 227 278
#     4  10  21  35  51  73 101 130 156 186 230 278
#
# _framework density 17.571085
#
# number of rings (size 3 to 8) (size 9 to 14) (size 15 to 20)
#    0.000    3.000    0.000    0.900    0.000    5.200 
#    0.000    1.500    0.000    6.000    0.000    0.000 
#    0.000   11.200    0.000    0.000    0.000    0.000 
#
# Total GULP energy -495736.859834 kJ/mol
# GULP energy per Si atom -12393.421496 kJ/mol
# Density = 1.753109 g / cm^3
# Si number density = 17.571085 Si / 1000 Ang^3
#
#
#
# Elastic Constant Matrix: (Units=GPa)
#
#
# Indices 1 2 3 4 5 6 
#
# 1 68.5011 34.1375 76.4926 0.0000 0.0000 0.0000
# 2 34.1375 58.2631 65.5847 0.0000 0.0000 0.0000
# 3 76.4926 65.5847 210.4536 0.0000 0.0000 0.0000
# 4 0.0000 0.0000 0.0000 13.7075 0.0000 0.0000
# 5 0.0000 0.0000 0.0000 0.0000 22.9258 0.0000
# 6 0.0000 0.0000 0.0000 0.0000 0.0000 21.2824
#
#
#
# Elastic Compliance Matrix: (Units=1/GPa)
#
#
# Indices 1 2 3 4 5 6 
#
# 1 0.026389 -0.007186 -0.007352 0.000000 0.000000 0.000000
# 2 -0.007186 0.028395 -0.006237 0.000000 0.000000 0.000000
# 3 -0.007352 -0.006237 0.009368 0.000000 0.000000 0.000000
# 4 0.000000 0.000000 0.000000 0.072953 0.000000 0.000000
# 5 0.000000 0.000000 0.000000 0.000000 0.043619 0.000000
# 6 0.000000 0.000000 0.000000 0.000000 0.000000 0.046987
#
#
# Mechanical properties :
#
#
# Convention : Reuss Voigt Hill
#
# Bulk Modulus (GPa) = 44.24507 76.62746 60.43627
# Shear Modulus (GPa) = 18.06394 22.31666 20.19030
#
# Velocity S-wave (km/s) = 3.20980 3.56768 3.39346
# Velocity P-wave (km/s) = 6.24278 7.78947 7.05862
#
# Compressibility (1/GPa) = 0.02260139
#
# Stress axis : x y z
#
# Youngs Moduli (GPa) = 37.89404 35.21806 106.75130
#
# Poissons Ratio (x) = 0.25307 0.78486
# Poissons Ratio (y) = 0.27230 0.66580
# Poissons Ratio (z) = 0.27861 0.21965
#
# Static dielectric constant tensor:
#      x y z
#    x 3.199360 0.000000 0.000000 
#    y 0.000000 2.808070 0.000000 
#    z 0.000000 0.000000 3.782490 
# 
# 
# High freq. dielectric constant tensor:
#      x y z
#    x 1.677230 0.000000 0.000000 
#    y 0.000000 1.632860 0.000000 
#    z 0.000000 0.000000 1.703060 
# 
# From -- ./inp_files/67302.got.cif
#   From: 2010.03.12/outbox.cif.g09.slc.cpg/sg65_34_cif.got.tgz:67302.got - 2010.04.10 20:52:16.
