data_PCOD8272443
_publ_section_title
;
Structure prediction by ZEFSAII (Michael W. Deem and Ramdas Pophale) SiO2 
 PCOD8272443
Probable space group: C M M M
;
_chemical_formula_sum "Si O2"
_cell_formula_units_Z 72
_cell_length_a 8.701763
_cell_length_b 25.052502
_cell_length_c 15.991737
_cell_angle_alpha 90.000000
_cell_angle_beta 90.000000
_cell_angle_gamma 90.000000
_cell_volume 3486.213618
_symmetry_space_group_name_H-M "C M M M"
_symmetry_group_IT_number 65
_symmetry_cell_setting 'orthorhombic'
loop_
_space_group_symop_operation_xyz
x,y,z
-x,-y,z
x,-y,-z
-x,y,-z
-x,-y,-z
x,y,-z
-x,y,z
x,-y,z
1/2+x,1/2+y,z
1/2-x,1/2-y,z
1/2+x,1/2-y,-z
1/2-x,1/2+y,-z
1/2-x,1/2-y,-z
1/2+x,1/2+y,-z
1/2-x,1/2+y,z
1/2+x,1/2-y,z
loop_
_atom_site_type_symbol
_atom_site_label
_atom_site_fract_x
_atom_site_fract_y
_atom_site_fract_z
Si Si1 0.828108 0.500000 0.901651
Si Si2 0.682137 0.809422 0.000000
Si Si3 0.820013 0.895823 0.324763
Si Si4 0.182041 0.500000 0.404293
Si Si5 0.816334 0.386091 0.850386
Si Si6 0.830659 0.698784 0.403136
O O1 0.747673 0.445254 0.871258
O O2 0.000000 0.500000 0.865161
O O3 0.830537 0.500000 0.000000
O O4 0.750000 0.750000 0.000000
O O5 0.738955 0.842416 0.918411
O O6 0.500000 0.804513 0.000000
O O7 0.738465 0.949887 0.351775
O O8 0.753609 0.871286 0.238926
O O9 0.779567 0.852014 0.393915
O O10 0.000000 0.905857 0.318577
O O11 0.246376 0.500000 0.500000
O O12 0.000000 0.500000 0.406731
O O13 0.000000 0.387404 0.848945
O O14 0.852947 0.710326 0.500000
O O15 0.750000 0.750000 0.360058
O O16 0.000000 0.689376 0.362571
#
# Coordination Sequence:
#
# PCOD8272443 Si02
#       6
#     8   8  16   8  16  16
#     4   9  15  30  60  88 106 131 182 242 293 343
#     4  10  22  39  61  87 117 158 204 250 304 366
#     4  12  25  39  59  90 128 164 202 249 305 364
#     4  11  24  43  66  91 123 166 211 254 304 364
#     4  10  20  37  61  88 117 152 199 252 304 360
#     4  10  21  39  63  89 117 153 200 251 303 359
#
# _framework density 20.65278
#
# number of rings (size 3 to 8) (size 9 to 14) (size 15 to 20)
#    0.000    1.556    1.111    4.333    0.000    7.556 
#    0.000    2.222    0.000    0.667    0.000    0.000 
#    0.000    0.000    0.000    0.000    0.000    0.000 
#
# Total GULP energy -446336.025406 kJ/mol
# GULP energy per Si atom -12398.222928 kJ/mol
# Density = 2.060577 g / cm^3
# Si number density = 20.652780 Si / 1000 Ang^3
#
#
#
# Elastic Constant Matrix: (Units=GPa)
#
#
# Indices 1 2 3 4 5 6 
#
# 1 75.3125 42.0843 37.0778 0.0000 0.0000 0.0000
# 2 42.0843 155.0662 34.8497 0.0000 0.0000 0.0000
# 3 37.0778 34.8497 88.9509 0.0000 0.0000 0.0000
# 4 0.0000 0.0000 0.0000 26.3853 0.0000 0.0000
# 5 0.0000 0.0000 0.0000 0.0000 20.1323 0.0000
# 6 0.0000 0.0000 0.0000 0.0000 0.0000 33.9857
#
#
#
# Elastic Compliance Matrix: (Units=1/GPa)
#
#
# Indices 1 2 3 4 5 6 
#
# 1 0.018353 -0.003577 -0.006249 0.000000 0.000000 0.000000
# 2 -0.003577 0.007768 -0.001553 0.000000 0.000000 0.000000
# 3 -0.006249 -0.001553 0.014455 0.000000 0.000000 0.000000
# 4 0.000000 0.000000 0.000000 0.037900 0.000000 0.000000
# 5 0.000000 0.000000 0.000000 0.000000 0.049671 0.000000
# 6 0.000000 0.000000 0.000000 0.000000 0.000000 0.029424
#
#
# Mechanical properties :
#
#
# Convention : Reuss Voigt Hill
#
# Bulk Modulus (GPa) = 56.11570 60.81702 58.46636
# Shear Modulus (GPa) = 26.84292 29.78851 28.31572
#
# Velocity S-wave (km/s) = 3.60908 3.80195 3.70677
# Velocity P-wave (km/s) = 6.67812 6.98458 6.83307
#
# Compressibility (1/GPa) = 0.01782033
#
# Stress axis : x y z
#
# Youngs Moduli (GPa) = 54.48688 128.72521 69.17887
#
# Poissons Ratio (x) = 0.46039 0.43229
# Poissons Ratio (y) = 0.19487 0.10742
# Poissons Ratio (z) = 0.34049 0.19988
#
# Static dielectric constant tensor:
#      x y z
#    x 3.680490 0.000000 0.000000 
#    y 0.000000 3.687800 0.000000 
#    z 0.000000 0.000000 3.780180 
# 
# 
# High freq. dielectric constant tensor:
#      x y z
#    x 1.789840 0.000000 0.000000 
#    y 0.000000 1.822220 0.000000 
#    z 0.000000 0.000000 1.805390 
# 
# From -- ./inp_files/36697.got.cif
#   From: 2010.03.12/outbox.cif.g09.slc.cpg/sg65_19_cif.got.tgz:36697.got - 2010.04.10 20:52:16.
