data_PCOD8272893
_publ_section_title
;
Structure prediction by ZEFSAII (Michael W. Deem and Ramdas Pophale) SiO2 
 PCOD8272893
Probable space group: C M M M
;
_chemical_formula_sum "Si O2"
_cell_formula_units_Z 80
_cell_length_a 29.696277
_cell_length_b 8.294650
_cell_length_c 17.249059
_cell_angle_alpha 90.000000
_cell_angle_beta 90.000000
_cell_angle_gamma 90.000000
_cell_volume 4248.792077
_symmetry_space_group_name_H-M "C M M M"
_symmetry_group_IT_number 65
_symmetry_cell_setting 'orthorhombic'
loop_
_space_group_symop_operation_xyz
x,y,z
-x,-y,z
x,-y,-z
-x,y,-z
-x,-y,-z
x,y,-z
-x,y,z
x,-y,z
1/2+x,1/2+y,z
1/2-x,1/2-y,z
1/2+x,1/2-y,-z
1/2-x,1/2+y,-z
1/2-x,1/2-y,-z
1/2+x,1/2+y,-z
1/2-x,1/2+y,z
1/2+x,1/2-y,z
loop_
_atom_site_type_symbol
_atom_site_label
_atom_site_fract_x
_atom_site_fract_y
_atom_site_fract_z
Si Si1 0.655481 0.325543 0.843402
Si Si2 0.552035 0.687550 0.412508
Si Si3 0.370411 0.182350 0.314434
Si Si4 0.295827 0.679708 0.591404
Si Si5 0.734616 0.500000 0.094000
Si Si6 0.162941 0.500000 0.909991
O O1 0.632142 0.500000 0.866488
O O2 0.647162 0.302340 0.752195
O O3 0.708199 0.343311 0.870112
O O4 0.636483 0.163416 0.884363
O O5 0.562986 0.749141 0.500000
O O6 0.500000 0.718466 0.393374
O O7 0.564185 0.500000 0.407636
O O8 0.579859 0.780105 0.346519
O O9 0.336729 0.204438 0.386036
O O10 0.369257 0.000000 0.282881
O O11 0.292428 0.677186 0.500000
O O12 0.303746 0.500000 0.623986
O O13 0.250000 0.750000 0.627820
O O14 0.786067 0.500000 0.123922
O O15 0.731271 0.500000 0.000000
O O16 0.165211 0.500000 0.000000
#
# Coordination Sequence:
#
# PCOD8272893 Si02
#       6
#    16  16  16  16   8   8
#     4  10  22  35  51  77 108 146 187 224 278 339
#     4   9  19  37  62  88 112 143 184 231 288 350
#     4  12  23  37  52  77 113 148 184 233 283 329
#     4  10  21  36  52  70  96 139 190 232 274 323
#     4   9  20  36  56  78 106 147 188 238 290 333
#     4  11  20  36  56  80 112 143 190 244 288 339
#
# _framework density 18.828882
#
# number of rings (size 3 to 8) (size 9 to 14) (size 15 to 20)
#    0.600    1.200    1.000    4.800    0.000    7.600 
#    0.000    1.000    0.000    0.000    0.000    0.000 
#    0.000    4.800    0.000    0.000    0.000    0.000 
#
# Total GULP energy -495562.597501 kJ/mol
# GULP energy per Si atom -12389.064938 kJ/mol
# Density = 1.878603 g / cm^3
# Si number density = 18.828882 Si / 1000 Ang^3
#
#
#
# Elastic Constant Matrix: (Units=GPa)
#
#
# Indices 1 2 3 4 5 6 
#
# 1 65.9283 22.3884 31.1478 0.0000 0.0000 0.0000
# 2 22.3884 141.5771 33.4171 0.0000 0.0000 0.0000
# 3 31.1478 33.4171 63.2129 0.0000 0.0000 0.0000
# 4 0.0000 0.0000 0.0000 27.8028 0.0000 0.0000
# 5 0.0000 0.0000 0.0000 0.0000 15.7867 0.0000
# 6 0.0000 0.0000 0.0000 0.0000 0.0000 17.3129
#
#
#
# Elastic Compliance Matrix: (Units=1/GPa)
#
#
# Indices 1 2 3 4 5 6 
#
# 1 0.019882 -0.000950 -0.009294 0.000000 0.000000 0.000000
# 2 -0.000950 0.008116 -0.003822 0.000000 0.000000 0.000000
# 3 -0.009294 -0.003822 0.022420 0.000000 0.000000 0.000000
# 4 0.000000 0.000000 0.000000 0.035968 0.000000 0.000000
# 5 0.000000 0.000000 0.000000 0.000000 0.063345 0.000000
# 6 0.000000 0.000000 0.000000 0.000000 0.000000 0.057761
#
#
# Mechanical properties :
#
#
# Convention : Reuss Voigt Hill
#
# Bulk Modulus (GPa) = 44.87520 49.40276 47.13898
# Shear Modulus (GPa) = 20.57178 24.43145 22.50162
#
# Velocity S-wave (km/s) = 3.30898 3.60606 3.46071
# Velocity P-wave (km/s) = 6.20355 6.60553 6.40769
#
# Compressibility (1/GPa) = 0.02228402
#
# Stress axis : x y z
#
# Youngs Moduli (GPa) = 50.29732 123.21791 44.60340
#
# Poissons Ratio (x) = 0.11709 0.41456
# Poissons Ratio (y) = 0.04779 0.17048
# Poissons Ratio (z) = 0.46748 0.47095
#
# Static dielectric constant tensor:
#      x y z
#    x 3.133490 0.000000 0.000000 
#    y 0.000000 3.785600 0.000000 
#    z 0.000000 0.000000 3.250500 
# 
# 
# High freq. dielectric constant tensor:
#      x y z
#    x 1.682270 0.000000 0.000000 
#    y 0.000000 1.751040 0.000000 
#    z 0.000000 0.000000 1.718450 
# 
# From -- ./inp_files/57902.got.cif
#   From: 2010.03.12/outbox.cif.g09.slc.cpg/sg65_29_cif.got.tgz:57902.got - 2010.04.10 20:52:16.
