data_PCOD8272823
_publ_section_title
;
Structure prediction by ZEFSAII (Michael W. Deem and Ramdas Pophale) SiO2 
 PCOD8272823
Probable space group: C M M M
;
_chemical_formula_sum "Si O2"
_cell_formula_units_Z 80
_cell_length_a 13.189473
_cell_length_b 26.453459
_cell_length_c 12.652724
_cell_angle_alpha 90.000000
_cell_angle_beta 90.000000
_cell_angle_gamma 90.000000
_cell_volume 4414.626291
_symmetry_space_group_name_H-M "C M M M"
_symmetry_group_IT_number 65
_symmetry_cell_setting 'orthorhombic'
loop_
_space_group_symop_operation_xyz
x,y,z
-x,-y,z
x,-y,-z
-x,y,-z
-x,-y,-z
x,y,-z
-x,y,z
x,-y,z
1/2+x,1/2+y,z
1/2-x,1/2-y,z
1/2+x,1/2-y,-z
1/2-x,1/2+y,-z
1/2-x,1/2-y,-z
1/2+x,1/2+y,-z
1/2-x,1/2+y,z
1/2+x,1/2-y,z
loop_
_atom_site_type_symbol
_atom_site_label
_atom_site_fract_x
_atom_site_fract_y
_atom_site_fract_z
Si Si1 0.382296 0.856640 0.194828
Si Si2 0.117874 0.106714 0.000000
Si Si3 0.273115 0.806736 0.379126
Si Si4 0.777603 0.058048 0.806339
Si Si5 0.116412 0.892172 0.379830
Si Si6 0.779735 0.692119 0.000000
O O1 0.500000 0.868337 0.183574
O O2 0.361331 0.830180 0.307264
O O3 0.325462 0.910100 0.185118
O O4 0.346287 0.819145 0.103080
O O5 0.144331 0.074046 0.897163
O O6 0.177133 0.159565 0.000000
O O7 0.000000 0.119945 0.000000
O O8 0.311393 0.808610 0.500000
O O9 0.250000 0.750000 0.342680
O O10 0.169666 0.838064 0.363072
O O11 0.832086 0.065893 0.693785
O O12 0.747030 0.000000 0.819136
O O13 0.128304 0.911261 0.500000
O O14 0.000000 0.884537 0.348225
O O15 0.750000 0.750000 0.000000
#
# Coordination Sequence:
#
# PCOD8272823 Si02
#       6
#    16   8  16  16  16   8
#     4  10  21  36  54  77 104 135 173 213 250 295
#     4  10  21  35  53  79 106 131 164 208 255 304
#     4   9  18  33  52  76 106 137 170 209 253 302
#     4  10  21  36  53  74 101 133 170 213 258 303
#     4   9  18  32  50  74 103 133 168 211 257 307
#     4  10  21  38  56  78 108 138 169 204 246 298
#
# _framework density 18.121580000000002
#
# number of rings (size 3 to 8) (size 9 to 14) (size 15 to 20)
#    0.000    2.400    0.000    1.800    0.000    4.800 
#    0.000    3.000    0.000    3.600    0.000    5.600 
#    0.000    0.000    0.000    0.000    0.000    0.000 
#
# Total GULP energy -496134.984496 kJ/mol
# GULP energy per Si atom -12403.374612 kJ/mol
# Density = 1.808033 g / cm^3
# Si number density = 18.121580 Si / 1000 Ang^3
#
#
#
# Elastic Constant Matrix: (Units=GPa)
#
#
# Indices 1 2 3 4 5 6 
#
# 1 141.5871 47.4843 54.4344 0.0000 0.0000 0.0000
# 2 47.4843 128.5867 47.6487 0.0000 0.0000 0.0000
# 3 54.4344 47.6487 100.6941 0.0000 0.0000 0.0000
# 4 0.0000 0.0000 0.0000 15.5979 0.0000 0.0000
# 5 0.0000 0.0000 0.0000 0.0000 17.8928 0.0000
# 6 0.0000 0.0000 0.0000 0.0000 0.0000 10.7637
#
#
#
# Elastic Compliance Matrix: (Units=1/GPa)
#
#
# Indices 1 2 3 4 5 6 
#
# 1 0.009284 -0.001902 -0.004119 0.000000 0.000000 0.000000
# 2 -0.001902 0.009820 -0.003619 0.000000 0.000000 0.000000
# 3 -0.004119 -0.003619 0.013870 0.000000 0.000000 0.000000
# 4 0.000000 0.000000 0.000000 0.064111 0.000000 0.000000
# 5 0.000000 0.000000 0.000000 0.000000 0.055889 0.000000
# 6 0.000000 0.000000 0.000000 0.000000 0.000000 0.092905
#
#
# Mechanical properties :
#
#
# Convention : Reuss Voigt Hill
#
# Bulk Modulus (GPa) = 73.01882 74.44477 73.73180
# Shear Modulus (GPa) = 18.53751 23.60424 21.07087
#
# Velocity S-wave (km/s) = 3.20183 3.61300 3.41361
# Velocity P-wave (km/s) = 7.35189 7.65343 7.50417
#
# Compressibility (1/GPa) = 0.01369510
#
# Stress axis : x y z
#
# Youngs Moduli (GPa) = 107.70899 101.83081 72.09782
#
# Poissons Ratio (x) = 0.19370 0.29696
# Poissons Ratio (y) = 0.20488 0.26090
# Poissons Ratio (z) = 0.44364 0.36849
#
# Static dielectric constant tensor:
#      x y z
#    x 3.187980 0.000000 0.000000 
#    y 0.000000 3.190900 0.000000 
#    z 0.000000 0.000000 3.622150 
# 
# 
# High freq. dielectric constant tensor:
#      x y z
#    x 1.692000 0.000000 0.000000 
#    y 0.000000 1.695700 0.000000 
#    z 0.000000 0.000000 1.721920 
# 
# From -- ./inp_files/38342.got.cif
#   From: 2010.03.12/outbox.cif.g09.slc.cpg/sg65_20_cif.got.tgz:38342.got - 2010.04.10 20:52:16.
