data_PCOD8272269
_publ_section_title
;
Structure prediction by ZEFSAII (Michael W. Deem and Ramdas Pophale) SiO2 
 PCOD8272269
Probable space group: C M M M
;
_chemical_formula_sum "Si O2"
_cell_formula_units_Z 80
_cell_length_a 8.906358
_cell_length_b 18.370640
_cell_length_c 25.308101
_cell_angle_alpha 90.000000
_cell_angle_beta 90.000000
_cell_angle_gamma 90.000000
_cell_volume 4140.797511
_symmetry_space_group_name_H-M "C M M M"
_symmetry_group_IT_number 65
_symmetry_cell_setting 'orthorhombic'
loop_
_space_group_symop_operation_xyz
x,y,z
-x,-y,z
x,-y,-z
-x,y,-z
-x,-y,-z
x,y,-z
-x,y,z
x,-y,z
1/2+x,1/2+y,z
1/2-x,1/2-y,z
1/2+x,1/2-y,-z
1/2-x,1/2+y,-z
1/2-x,1/2-y,-z
1/2+x,1/2+y,-z
1/2-x,1/2+y,z
1/2+x,1/2-y,z
loop_
_atom_site_type_symbol
_atom_site_label
_atom_site_fract_x
_atom_site_fract_y
_atom_site_fract_z
Si Si1 0.321964 0.825890 0.088656
Si Si2 0.673900 0.176557 0.207868
Si Si3 0.670209 0.585793 0.000000
Si Si4 0.678263 0.418107 0.500000
Si Si5 0.822209 0.171201 0.398801
Si Si6 0.824976 0.583744 0.306343
O O1 0.500000 0.821928 0.081808
O O2 0.250000 0.750000 0.070272
O O3 0.272563 0.844047 0.148837
O O4 0.256188 0.888816 0.052313
O O5 0.500000 0.194374 0.207185
O O6 0.750000 0.250000 0.228990
O O7 0.711921 0.110215 0.246985
O O8 0.672636 0.500000 0.000000
O O9 0.500000 0.615742 0.000000
O O10 0.745219 0.500000 0.500000
O O11 0.500000 0.421717 0.500000
O O12 0.736526 0.375891 0.448369
O O13 0.750000 0.250000 0.401977
O O14 0.773982 0.130609 0.345915
O O15 0.000000 0.180059 0.399433
O O16 0.776877 0.500000 0.310687
O O17 0.000000 0.594759 0.319735
#
# Coordination Sequence:
#
# PCOD8272269 Si02
#       6
#    16  16   8   8  16  16
#     4  10  20  36  59  83 108 141 182 223 265 320
#     4   9  19  35  56  81 108 141 179 221 268 318
#     4  11  24  39  54  77 111 145 178 223 276 323
#     4   9  19  36  57  81 110 143 180 225 274 324
#     4  11  22  37  58  82 110 145 186 228 271 322
#     4  10  21  37  56  81 114 147 180 223 274 324
#
# _framework density 19.319949000000001
#
# number of rings (size 3 to 8) (size 9 to 14) (size 15 to 20)
#    0.000    2.000    0.000    3.300    0.000    6.000 
#    0.000    3.500    0.000    3.600    0.000    0.000 
#    0.000    0.000    0.000    0.000    0.000    0.000 
#
# Total GULP energy -496125.990653 kJ/mol
# GULP energy per Si atom -12403.149766 kJ/mol
# Density = 1.927598 g / cm^3
# Si number density = 19.319949 Si / 1000 Ang^3
#
#
#
# Elastic Constant Matrix: (Units=GPa)
#
#
# Indices 1 2 3 4 5 6 
#
# 1 71.3868 46.7369 41.9564 0.0000 0.0000 0.0000
# 2 46.7369 144.3442 68.3489 0.0000 0.0000 0.0000
# 3 41.9564 68.3489 120.9482 0.0000 0.0000 0.0000
# 4 0.0000 0.0000 0.0000 24.5315 0.0000 0.0000
# 5 0.0000 0.0000 0.0000 0.0000 203.1512 0.0000
# 6 0.0000 0.0000 0.0000 0.0000 0.0000 19.3671
#
#
#
# Elastic Compliance Matrix: (Units=1/GPa)
#
#
# Indices 1 2 3 4 5 6 
#
# 1 0.019299 -0.004204 -0.004319 0.000000 0.000000 0.000000
# 2 -0.004204 0.010375 -0.004405 0.000000 0.000000 0.000000
# 3 -0.004319 -0.004405 0.012255 0.000000 0.000000 0.000000
# 4 0.000000 0.000000 0.000000 0.040764 0.000000 0.000000
# 5 0.000000 0.000000 0.000000 0.000000 0.004922 0.000000
# 6 0.000000 0.000000 0.000000 0.000000 0.000000 0.051634
#
#
# Mechanical properties :
#
#
# Convention : Reuss Voigt Hill
#
# Bulk Modulus (GPa) = 62.21185 72.30707 67.25946
# Shear Modulus (GPa) = 29.33212 61.38576 45.35894
#
# Velocity S-wave (km/s) = 3.90067 5.64289 4.85064
# Velocity P-wave (km/s) = 7.24967 8.94224 8.14007
#
# Compressibility (1/GPa) = 0.01607411
#
# Stress axis : x y z
#
# Youngs Moduli (GPa) = 51.81677 96.38968 81.59679
#
# Poissons Ratio (x) = 0.40517 0.35243
# Poissons Ratio (y) = 0.21781 0.35940
# Poissons Ratio (z) = 0.22381 0.42456
#
# Static dielectric constant tensor:
#      x y z
#    x 3.490740 0.000000 0.000000 
#    y 0.000000 3.585840 0.000000 
#    z 0.000000 0.000000 3.783920 
# 
# 
# High freq. dielectric constant tensor:
#      x y z
#    x 1.746330 0.000000 0.000000 
#    y 0.000000 1.754360 0.000000 
#    z 0.000000 0.000000 1.766480 
# 
# From -- ./inp_files/72921.got.cif
#   From: 2010.03.12/outbox.cif.g09.slc.cpg/sg65_37_cif.got.tgz:72921.got - 2010.04.10 20:52:16.
