data_PCOD8272751
_publ_section_title
;
Structure prediction by ZEFSAII (Michael W. Deem and Ramdas Pophale) SiO2 
 PCOD8272751
Probable space group: C M M M
;
_chemical_formula_sum "Si O2"
_cell_formula_units_Z 88
_cell_length_a 10.758805
_cell_length_b 15.754605
_cell_length_c 26.178222
_cell_angle_alpha 90.000000
_cell_angle_beta 90.000000
_cell_angle_gamma 90.000000
_cell_volume 4437.227557
_symmetry_space_group_name_H-M "C M M M"
_symmetry_group_IT_number 65
_symmetry_cell_setting 'orthorhombic'
loop_
_space_group_symop_operation_xyz
x,y,z
-x,-y,z
x,-y,-z
-x,y,-z
-x,-y,-z
x,y,-z
-x,y,z
x,-y,z
1/2+x,1/2+y,z
1/2-x,1/2-y,z
1/2+x,1/2-y,-z
1/2-x,1/2+y,-z
1/2-x,1/2-y,-z
1/2+x,1/2+y,-z
1/2-x,1/2+y,z
1/2+x,1/2-y,z
loop_
_atom_site_type_symbol
_atom_site_label
_atom_site_fract_x
_atom_site_fract_y
_atom_site_fract_z
Si Si1 0.242573 0.153823 0.609447
Si Si2 0.357046 0.901191 0.707698
Si Si3 0.859200 0.182160 0.000000
Si Si4 0.638914 0.101080 0.823163
Si Si5 0.500000 0.598328 0.556685
Si Si6 0.862059 0.100127 0.892423
Si Si7 0.359229 0.000000 0.554741
O O1 0.250000 0.250000 0.588921
O O2 0.266642 0.151870 0.670406
O O3 0.109888 0.122186 0.593630
O O4 0.338115 0.087367 0.584837
O O5 0.500000 0.884434 0.692582
O O6 0.332560 0.869874 0.765383
O O7 0.324433 0.000000 0.701994
O O8 0.750000 0.250000 0.000000
O O9 0.839751 0.123555 0.049054
O O10 0.000000 0.221909 0.000000
O O11 0.500000 0.133354 0.840001
O O12 0.749022 0.139767 0.858691
O O13 0.638233 0.000000 0.825838
O O14 0.500000 0.500000 0.546405
O O15 0.500000 0.642842 0.500000
O O16 0.000000 0.132239 0.874285
O O17 0.856992 0.000000 0.887137
O O18 0.500000 0.000000 0.540201
O O19 0.283935 0.000000 0.500000
#
# Coordination Sequence:
#
# PCOD8272751 Si02
#       7
#    16  16   8  16   8  16   8
#     4  12  25  40  63  91 119 155 198 242 292 355
#     4   9  17  35  62  84 111 148 190 236 284 339
#     4  10  21  35  51  73 107 150 194 230 284 340
#     4   8  15  29  53  84 110 142 184 234 287 337
#     4  11  24  44  62  81 121 163 189 235 305 360
#     4   9  17  32  54  80 109 144 186 237 284 338
#     4  11  24  43  67  91 115 150 199 246 287 348
#
# _framework density 19.832203
#
# number of rings (size 3 to 8) (size 9 to 14) (size 15 to 20)
#    0.000    2.182    1.818    2.455    2.545    3.273 
#    1.636    0.909    0.000    4.909    0.000    0.000 
#    0.000    0.000    0.000    0.000    0.000    0.000 
#
# Total GULP energy -545157.319075 kJ/mol
# GULP energy per Si atom -12389.939070 kJ/mol
# Density = 1.978706 g / cm^3
# Si number density = 19.832203 Si / 1000 Ang^3
#
#
#
# Elastic Constant Matrix: (Units=GPa)
#
#
# Indices 1 2 3 4 5 6 
#
# 1 150.6513 22.7984 86.3278 0.0000 0.0000 0.0000
# 2 22.7984 65.4084 24.4046 0.0000 0.0000 0.0000
# 3 86.3278 24.4046 139.7455 0.0000 0.0000 0.0000
# 4 0.0000 0.0000 0.0000 8.5220 0.0000 0.0000
# 5 0.0000 0.0000 0.0000 0.0000 -170.5302 0.0000
# 6 0.0000 0.0000 0.0000 0.0000 0.0000 -6.8849
#
#
#
# Elastic Compliance Matrix: (Units=1/GPa)
#
#
# Indices 1 2 3 4 5 6 
#
# 1 0.010379 -0.001311 -0.006183 0.000000 0.000000 0.000000
# 2 -0.001311 0.016520 -0.002075 0.000000 0.000000 0.000000
# 3 -0.006183 -0.002075 0.011338 0.000000 0.000000 0.000000
# 4 0.000000 0.000000 0.000000 0.117344 0.000000 0.000000
# 5 0.000000 0.000000 0.000000 0.000000 -0.005864 0.000000
# 6 0.000000 0.000000 0.000000 0.000000 0.000000 -0.145246
#
#
# Mechanical properties :
#
#
# Convention : Reuss Voigt Hill
#
# Bulk Modulus (GPa) = 52.35891 69.20742 60.78317
# Shear Modulus (GPa) = 166.80932 -18.96033 73.92450
#
# Velocity S-wave (km/s) = 9.18112 -3.09534 6.11195
# Velocity P-wave (km/s) = 11.78341 4.71141 8.97347
#
# Compressibility (1/GPa) = 0.01909895
#
# Stress axis : x y z
#
# Youngs Moduli (GPa) = 96.34697 60.53374 88.20142
#
# Poissons Ratio (x) = 0.07935 0.54533
# Poissons Ratio (y) = 0.12630 0.18303
# Poissons Ratio (z) = 0.59569 0.12562
#
# Static dielectric constant tensor:
#      x y z
#    x 4.057420 0.000000 0.000000 
#    y 0.000000 3.062540 0.000000 
#    z 0.000000 0.000000 3.853550 
# 
# 
# High freq. dielectric constant tensor:
#      x y z
#    x 1.780470 0.000000 0.000000 
#    y 0.000000 1.742240 0.000000 
#    z 0.000000 0.000000 1.780250 
# 
# From -- ./inp_files/74307.got.cif
#   From: 2010.03.12/outbox.cif.g09.slc.cpg/sg65_38_cif.got.tgz:74307.got - 2010.04.10 20:52:16.
