data_PCOD8272714
_publ_section_title
;
Structure prediction by ZEFSAII (Michael W. Deem and Ramdas Pophale) SiO2 
 PCOD8272714
Probable space group: C M M M
;
_chemical_formula_sum "Si O2"
_cell_formula_units_Z 120
_cell_length_a 25.703451
_cell_length_b 21.706866
_cell_length_c 11.891481
_cell_angle_alpha 90.000000
_cell_angle_beta 90.000000
_cell_angle_gamma 90.000000
_cell_volume 6634.749160
_symmetry_space_group_name_H-M "C M M M"
_symmetry_group_IT_number 65
_symmetry_cell_setting 'orthorhombic'
loop_
_space_group_symop_operation_xyz
x,y,z
-x,-y,z
x,-y,-z
-x,y,-z
-x,-y,-z
x,y,-z
-x,y,z
x,-y,z
1/2+x,1/2+y,z
1/2-x,1/2-y,z
1/2+x,1/2-y,-z
1/2-x,1/2+y,-z
1/2-x,1/2-y,-z
1/2+x,1/2+y,-z
1/2-x,1/2+y,z
1/2+x,1/2-y,z
loop_
_atom_site_type_symbol
_atom_site_label
_atom_site_fract_x
_atom_site_fract_y
_atom_site_fract_z
Si Si1 0.875371 0.839834 0.772879
Si Si2 0.817957 0.572484 0.875376
Si Si3 0.614590 0.856605 0.293185
Si Si4 0.938716 0.931436 0.373979
Si Si5 0.561913 0.927281 0.500000
Si Si6 0.940104 0.734055 0.872674
Si Si7 0.309220 0.752170 0.631395
Si Si8 0.295291 0.567333 0.131376
O O1 0.916801 0.879926 0.706736
O O2 0.905385 0.794863 0.857249
O O3 0.840009 0.803690 0.685734
O O4 0.839677 0.884073 0.845602
O O5 0.821845 0.500000 0.884759
O O6 0.862508 0.594234 0.792359
O O7 0.761151 0.590922 0.825001
O O8 0.826466 0.601786 0.000000
O O9 0.584832 0.893215 0.390828
O O10 0.574081 0.815620 0.222489
O O11 0.662126 0.816342 0.341824
O O12 0.917352 0.920770 0.500000
O O13 0.000000 0.924509 0.373213
O O14 0.922614 0.000000 0.332919
O O15 0.500000 0.919418 0.500000
O O16 0.577148 0.000000 0.500000
O O17 0.000000 0.752055 0.855519
O O18 0.930459 0.709162 0.000000
O O19 0.309341 0.740220 0.500000
O O20 0.250000 0.750000 0.677761
O O21 0.308856 0.500000 0.184724
O O22 0.288828 0.558621 0.000000
#
# Coordination Sequence:
#
# PCOD8272714 Si02
#       8
#    16  16  16  16   8  16  16  16
#     4  11  19  31  53  74 100 137 181 215 262 316
#     4   9  18  33  55  82 108 135 171 212 256 310
#     4  11  20  37  59  79 105 141 175 211 259 320
#     4   9  18  32  49  71 100 134 177 229 275 313
#     4  11  24  40  59  84 110 136 170 215 262 313
#     4  10  22  37  53  76 106 139 177 223 266 307
#     4  10  21  35  50  74 105 138 173 211 254 301
#     4   9  18  32  50  76 108 138 171 215 262 309
#
# _framework density 18.086590999999999
#
# number of rings (size 3 to 8) (size 9 to 14) (size 15 to 20)
#    0.000    2.067    0.667    4.800    0.000    0.000 
#    0.000    0.000    0.000    6.400    0.000   11.200 
#    0.000    0.000    0.000    0.000    0.000    0.000 
#
# Total GULP energy -743796.660561 kJ/mol
# GULP energy per Si atom -12396.611009 kJ/mol
# Density = 1.804543 g / cm^3
# Si number density = 18.086591 Si / 1000 Ang^3
#
#
#
# Elastic Constant Matrix: (Units=GPa)
#
#
# Indices 1 2 3 4 5 6 
#
# 1 104.4972 49.7305 51.7696 0.0000 0.0000 0.0000
# 2 49.7305 90.3023 47.3101 0.0000 0.0000 0.0000
# 3 51.7696 47.3101 88.0829 0.0000 0.0000 0.0000
# 4 0.0000 0.0000 0.0000 28.5217 0.0000 0.0000
# 5 0.0000 0.0000 0.0000 0.0000 31.0705 0.0000
# 6 0.0000 0.0000 0.0000 0.0000 0.0000 32.2221
#
#
#
# Elastic Compliance Matrix: (Units=1/GPa)
#
#
# Indices 1 2 3 4 5 6 
#
# 1 0.015001 -0.005068 -0.006094 0.000000 0.000000 0.000000
# 2 -0.005068 0.017123 -0.006218 0.000000 0.000000 0.000000
# 3 -0.006094 -0.006218 0.018275 0.000000 0.000000 0.000000
# 4 0.000000 0.000000 0.000000 0.035061 0.000000 0.000000
# 5 0.000000 0.000000 0.000000 0.000000 0.032185 0.000000
# 6 0.000000 0.000000 0.000000 0.000000 0.000000 0.031035
#
#
# Mechanical properties :
#
#
# Convention : Reuss Voigt Hill
#
# Bulk Modulus (GPa) = 63.95102 64.50032 64.22567
# Shear Modulus (GPa) = 26.50381 27.30101 26.90241
#
# Velocity S-wave (km/s) = 3.83219 3.88939 3.86090
# Velocity P-wave (km/s) = 7.41727 7.47725 7.44732
#
# Compressibility (1/GPa) = 0.01563697
#
# Stress axis : x y z
#
# Youngs Moduli (GPa) = 66.66270 58.40193 54.72091
#
# Poissons Ratio (x) = 0.29600 0.33349
# Poissons Ratio (y) = 0.33787 0.34025
# Poissons Ratio (z) = 0.40627 0.36314
#
# Static dielectric constant tensor:
#      x y z
#    x 3.486530 0.000000 0.000000 
#    y 0.000000 3.361200 0.000000 
#    z 0.000000 0.000000 3.323060 
# 
# 
# High freq. dielectric constant tensor:
#      x y z
#    x 1.708510 0.000000 0.000000 
#    y 0.000000 1.703710 0.000000 
#    z 0.000000 0.000000 1.699430 
# 
# From -- ./inp_files/31145.got.cif
#   From: 2010.03.12/outbox.cif.g09.slc.cpg/sg65_16_cif.got.tgz:31145.got - 2010.04.10 20:52:16.
