data_PCOD8272135
_publ_section_title
;
Structure prediction by ZEFSAII (Michael W. Deem and Ramdas Pophale) SiO2 
 PCOD8272135
Probable space group: C M M M
;
_chemical_formula_sum "Si O2"
_cell_formula_units_Z 72
_cell_length_a 10.169491
_cell_length_b 26.612595
_cell_length_c 13.743240
_cell_angle_alpha 90.000000
_cell_angle_beta 90.000000
_cell_angle_gamma 90.000000
_cell_volume 3719.422995
_symmetry_space_group_name_H-M "C M M M"
_symmetry_group_IT_number 65
_symmetry_cell_setting 'orthorhombic'
loop_
_space_group_symop_operation_xyz
x,y,z
-x,-y,z
x,-y,-z
-x,y,-z
-x,-y,-z
x,y,-z
-x,y,z
x,-y,z
1/2+x,1/2+y,z
1/2-x,1/2-y,z
1/2+x,1/2-y,-z
1/2-x,1/2+y,-z
1/2-x,1/2-y,-z
1/2+x,1/2+y,-z
1/2-x,1/2+y,z
1/2+x,1/2-y,z
loop_
_atom_site_type_symbol
_atom_site_label
_atom_site_fract_x
_atom_site_fract_y
_atom_site_fract_z
Si Si1 0.347181 0.204192 0.259408
Si Si2 0.354895 0.556917 0.769498
Si Si3 0.351688 0.884833 0.887894
Si Si4 0.253880 0.120104 0.386158
Si Si5 0.500000 0.944607 0.615165
O O1 0.500000 0.221101 0.274508
O O2 0.250000 0.250000 0.238500
O O3 0.333123 0.167528 0.167969
O O4 0.291583 0.176893 0.356851
O O5 0.500000 0.559275 0.816932
O O6 0.322968 0.500000 0.735067
O O7 0.249510 0.573566 0.849849
O O8 0.362107 0.594975 0.676329
O O9 0.500000 0.905383 0.872808
O O10 0.321774 0.873725 0.000000
O O11 0.221280 0.117751 0.500000
O O12 0.374420 0.085693 0.349415
O O13 0.500000 0.947719 0.500000
O O14 0.500000 0.000000 0.661762
#
# Coordination Sequence:
#
# PCOD8272135 Si02
#       5
#    16  16  16  16   8
#     4  10  21  37  57  82 114 149 188 238 292 346
#     4  10  22  37  54  83 121 155 186 227 285 347
#     4   9  20  40  63  85 110 143 187 238 286 339
#     4  10  20  36  56  79 112 152 196 240 279 331
#     4   9  16  28  52  82 105 135 185 237 281 320
#
# _framework density 19.357842000000002
#
# number of rings (size 3 to 8) (size 9 to 14) (size 15 to 20)
#    0.000    2.333    1.111    0.667    1.556    7.556 
#    0.000    3.333    0.000    0.000    0.000    0.000 
#    0.000    0.000    0.000    0.000    0.000    0.000 
#
# Total GULP energy -446262.525362 kJ/mol
# GULP energy per Si atom -12396.181260 kJ/mol
# Density = 1.931378 g / cm^3
# Si number density = 19.357842 Si / 1000 Ang^3
#
#
#
# Elastic Constant Matrix: (Units=GPa)
#
#
# Indices 1 2 3 4 5 6 
#
# 1 113.6260 64.5487 37.8654 0.0000 0.0000 0.0000
# 2 64.5487 93.0723 32.1622 0.0000 0.0000 0.0000
# 3 37.8654 32.1622 101.2288 0.0000 0.0000 0.0000
# 4 0.0000 0.0000 0.0000 18.1420 0.0000 0.0000
# 5 0.0000 0.0000 0.0000 0.0000 20.4545 0.0000
# 6 0.0000 0.0000 0.0000 0.0000 0.0000 42.5647
#
#
#
# Elastic Compliance Matrix: (Units=1/GPa)
#
#
# Indices 1 2 3 4 5 6 
#
# 1 0.015112 -0.009579 -0.002609 0.000000 0.000000 0.000000
# 2 -0.009579 0.018141 -0.002181 0.000000 0.000000 0.000000
# 3 -0.002609 -0.002181 0.011548 0.000000 0.000000 0.000000
# 4 0.000000 0.000000 0.000000 0.055121 0.000000 0.000000
# 5 0.000000 0.000000 0.000000 0.000000 0.048889 0.000000
# 6 0.000000 0.000000 0.000000 0.000000 0.000000 0.023494
#
#
# Mechanical properties :
#
#
# Convention : Reuss Voigt Hill
#
# Bulk Modulus (GPa) = 62.25611 64.11997 63.18804
# Shear Modulus (GPa) = 24.22523 27.78896 26.00710
#
# Velocity S-wave (km/s) = 3.54141 3.79296 3.66934
# Velocity P-wave (km/s) = 6.99661 7.23723 7.11794
#
# Compressibility (1/GPa) = 0.01606268
#
# Stress axis : x y z
#
# Youngs Moduli (GPa) = 66.17261 55.12301 86.59878
#
# Poissons Ratio (x) = 0.52802 0.22597
# Poissons Ratio (y) = 0.63387 0.18885
# Poissons Ratio (z) = 0.17267 0.12021
#
# Static dielectric constant tensor:
#      x y z
#    x 3.647850 0.000000 0.000000 
#    y 0.000000 3.478890 0.000000 
#    z 0.000000 0.000000 3.403990 
# 
# 
# High freq. dielectric constant tensor:
#      x y z
#    x 1.759190 0.000000 0.000000 
#    y 0.000000 1.745440 0.000000 
#    z 0.000000 0.000000 1.745660 
# 
# From -- ./inp_files/36563.got.cif
#   From: 2010.03.12/outbox.cif.g09.slc.cpg/sg65_19_cif.got.tgz:36563.got - 2010.04.10 20:52:16.
