data_PCOD8272153
_publ_section_title
;
Structure prediction by ZEFSAII (Michael W. Deem and Ramdas Pophale) SiO2 
 PCOD8272153
Probable space group: C M M M
;
_chemical_formula_sum "Si O2"
_cell_formula_units_Z 104
_cell_length_a 18.887485
_cell_length_b 32.427487
_cell_length_c 9.248322
_cell_angle_alpha 90.000000
_cell_angle_beta 90.000000
_cell_angle_gamma 90.000000
_cell_volume 5664.353756
_symmetry_space_group_name_H-M "C M M M"
_symmetry_group_IT_number 65
_symmetry_cell_setting 'orthorhombic'
loop_
_space_group_symop_operation_xyz
x,y,z
-x,-y,z
x,-y,-z
-x,y,-z
-x,-y,-z
x,y,-z
-x,y,z
x,-y,z
1/2+x,1/2+y,z
1/2-x,1/2-y,z
1/2+x,1/2-y,-z
1/2-x,1/2+y,-z
1/2-x,1/2-y,-z
1/2+x,1/2+y,-z
1/2-x,1/2+y,z
1/2+x,1/2-y,z
loop_
_atom_site_type_symbol
_atom_site_label
_atom_site_fract_x
_atom_site_fract_y
_atom_site_fract_z
Si Si1 0.189893 0.851296 0.830799
Si Si2 0.672832 0.268498 0.337129
Si Si3 0.917378 0.692225 0.334370
Si Si4 0.418728 0.578967 0.832053
Si Si5 0.581619 0.047669 0.667974
Si Si6 0.344574 0.119725 0.172069
Si Si7 0.415827 0.500000 0.338106
O O1 0.168591 0.808527 0.760140
O O2 0.128024 0.882364 0.786152
O O3 0.265030 0.869189 0.776911
O O4 0.193127 0.843561 0.000000
O O5 0.651926 0.280940 0.500000
O O6 0.750000 0.250000 0.329881
O O7 0.619596 0.233796 0.276503
O O8 0.893814 0.683096 0.500000
O O9 0.897059 0.654052 0.234087
O O10 0.000000 0.699613 0.322916
O O11 0.500000 0.588893 0.792274
O O12 0.388151 0.540311 0.743924
O O13 0.410539 0.568146 0.000000
O O14 0.594643 0.057793 0.500000
O O15 0.500000 0.057200 0.707826
O O16 0.633614 0.075380 0.764385
O O17 0.599217 0.000000 0.700734
O O18 0.351241 0.118039 0.000000
O O19 0.500000 0.500000 0.336816
O O20 0.385176 0.500000 0.500000
#
# Coordination Sequence:
#
# PCOD8272153 Si02
#       7
#    16  16  16  16  16  16   8
#     4  10  22  37  54  79 110 144 178 218 269 319
#     4  10  20  36  57  78 102 138 180 218 262 320
#     4  10  21  37  57  81 108 140 180 223 265 313
#     4   9  18  35  57  78 104 143 185 218 259 320
#     4   9  19  37  59  80 105 141 182 222 266 317
#     4  11  22  35  53  80 113 144 177 219 267 317
#     4   9  17  31  53  81 109 135 170 221 272 311
#
# _framework density 18.360434000000001
#
# number of rings (size 3 to 8) (size 9 to 14) (size 15 to 20)
#    0.000    2.231    1.538    1.615    0.000    6.462 
#    1.385    0.769    0.000    0.000    0.000    0.000 
#    0.000    0.000    0.000    0.000    0.000    0.000 
#
# Total GULP energy -644911.492630 kJ/mol
# GULP energy per Si atom -12402.144089 kJ/mol
# Density = 1.831864 g / cm^3
# Si number density = 18.360434 Si / 1000 Ang^3
#
#
#
# Elastic Constant Matrix: (Units=GPa)
#
#
# Indices 1 2 3 4 5 6 
#
# 1 80.0929 52.5957 30.2653 0.0000 0.0000 0.0000
# 2 52.5957 142.1670 56.4082 0.0000 0.0000 0.0000
# 3 30.2653 56.4082 57.9596 0.0000 0.0000 0.0000
# 4 0.0000 0.0000 0.0000 61.1407 0.0000 0.0000
# 5 0.0000 0.0000 0.0000 0.0000 20.5979 0.0000
# 6 0.0000 0.0000 0.0000 0.0000 0.0000 26.8524
#
#
#
# Elastic Compliance Matrix: (Units=1/GPa)
#
#
# Indices 1 2 3 4 5 6 
#
# 1 0.017196 -0.004560 -0.004542 0.000000 0.000000 0.000000
# 2 -0.004560 0.012668 -0.009948 0.000000 0.000000 0.000000
# 3 -0.004542 -0.009948 0.029307 0.000000 0.000000 0.000000
# 4 0.000000 0.000000 0.000000 0.016356 0.000000 0.000000
# 5 0.000000 0.000000 0.000000 0.000000 0.048549 0.000000
# 6 0.000000 0.000000 0.000000 0.000000 0.000000 0.037241
#
#
# Mechanical properties :
#
#
# Convention : Reuss Voigt Hill
#
# Bulk Modulus (GPa) = 47.45654 62.08419 54.77037
# Shear Modulus (GPa) = 24.22036 31.11491 27.66763
#
# Velocity S-wave (km/s) = 3.63596 4.12111 3.88611
# Velocity P-wave (km/s) = 6.59775 7.51879 7.07328
#
# Compressibility (1/GPa) = 0.02107191
#
# Stress axis : x y z
#
# Youngs Moduli (GPa) = 58.15301 78.93946 34.12208
#
# Poissons Ratio (x) = 0.35994 0.15497
# Poissons Ratio (y) = 0.26516 0.33944
# Poissons Ratio (z) = 0.26411 0.78528
#
# Static dielectric constant tensor:
#      x y z
#    x 3.360810 0.000000 0.000000 
#    y 0.000000 3.369090 0.000000 
#    z 0.000000 0.000000 3.379830 
# 
# 
# High freq. dielectric constant tensor:
#      x y z
#    x 1.706930 0.000000 0.000000 
#    y 0.000000 1.720890 0.000000 
#    z 0.000000 0.000000 1.707050 
# 
# From -- ./inp_files/12831.got.cif
#   From: 2010.03.12/outbox.cif.g09.slc.cpg/sg65_7_cif.got.tgz:12831.got - 2010.04.10 20:52:16.
