data_PCOD8272117
_publ_section_title
;
Structure prediction by ZEFSAII (Michael W. Deem and Ramdas Pophale) SiO2 
 PCOD8272117
Probable space group: C M M M
;
_chemical_formula_sum "Si O2"
_cell_formula_units_Z 104
_cell_length_a 19.101479
_cell_length_b 32.734009
_cell_length_c 9.026378
_cell_angle_alpha 90.000000
_cell_angle_beta 90.000000
_cell_angle_gamma 90.000000
_cell_volume 5643.905188
_symmetry_space_group_name_H-M "C M M M"
_symmetry_group_IT_number 65
_symmetry_cell_setting 'orthorhombic'
loop_
_space_group_symop_operation_xyz
x,y,z
-x,-y,z
x,-y,-z
-x,y,-z
-x,-y,-z
x,y,-z
-x,y,z
x,-y,z
1/2+x,1/2+y,z
1/2-x,1/2-y,z
1/2+x,1/2-y,-z
1/2-x,1/2+y,-z
1/2-x,1/2-y,-z
1/2+x,1/2+y,-z
1/2-x,1/2+y,z
1/2+x,1/2-y,z
loop_
_atom_site_type_symbol
_atom_site_label
_atom_site_fract_x
_atom_site_fract_y
_atom_site_fract_z
Si Si1 0.193931 0.851326 0.824619
Si Si2 0.673695 0.268130 0.334822
Si Si3 0.918913 0.693915 0.329342
Si Si4 0.421732 0.587170 0.822297
Si Si5 0.580429 0.953079 0.326740
Si Si6 0.346463 0.120679 0.175912
Si Si7 0.417549 0.500000 0.160529
O O1 0.173756 0.806510 0.772181
O O2 0.133763 0.880669 0.759845
O O3 0.269103 0.866931 0.766031
O O4 0.193914 0.851160 0.000000
O O5 0.649438 0.281169 0.500000
O O6 0.750000 0.250000 0.340786
O O7 0.622055 0.233622 0.269125
O O8 0.898321 0.685318 0.500000
O O9 0.900671 0.654263 0.233988
O O10 0.000000 0.703483 0.310818
O O11 0.500000 0.599210 0.768291
O O12 0.398483 0.542504 0.756621
O O13 0.420514 0.584962 0.000000
O O14 0.590558 0.944610 0.500000
O O15 0.500000 0.944105 0.281664
O O16 0.632431 0.923768 0.236791
O O17 0.599446 0.000000 0.288539
O O18 0.349413 0.119231 0.000000
O O19 0.500000 0.500000 0.134661
O O20 0.379750 0.500000 0.000000
#
# Coordination Sequence:
#
# PCOD8272117 Si02
#       7
#    16  16  16  16  16  16   8
#     4  10  21  34  50  77 109 140 169 207 261 314
#     4  10  20  36  56  74  95 132 174 211 256 310
#     4  10  21  37  57  79 101 131 177 224 259 302
#     4   8  14  27  47  72 101 133 171 210 248 293
#     4   9  19  37  59  79 101 136 181 222 259 304
#     4  11  22  34  50  78 114 143 170 208 260 317
#     4   7  10  20  42  68  93 125 164 203 238 280
#
# _framework density 18.426959
#
# number of rings (size 3 to 8) (size 9 to 14) (size 15 to 20)
#    0.000    2.538    1.538    2.308    0.000    4.923 
#    1.385    0.769    0.000    0.000    0.000    0.000 
#    0.000    1.846    0.000    0.000    0.000    0.000 
#
# Total GULP energy -644576.879779 kJ/mol
# GULP energy per Si atom -12395.709227 kJ/mol
# Density = 1.838502 g / cm^3
# Si number density = 18.426959 Si / 1000 Ang^3
#
#
#
# Elastic Constant Matrix: (Units=GPa)
#
#
# Indices 1 2 3 4 5 6 
#
# 1 94.9088 62.2491 24.6483 0.0000 0.0000 0.0000
# 2 62.2491 143.0909 34.2262 0.0000 0.0000 0.0000
# 3 24.6483 34.2262 33.8376 0.0000 0.0000 0.0000
# 4 0.0000 0.0000 0.0000 17.8545 0.0000 0.0000
# 5 0.0000 0.0000 0.0000 0.0000 18.1337 0.0000
# 6 0.0000 0.0000 0.0000 0.0000 0.0000 33.6573
#
#
#
# Elastic Compliance Matrix: (Units=1/GPa)
#
#
# Indices 1 2 3 4 5 6 
#
# 1 0.015597 -0.005366 -0.005934 0.000000 0.000000 0.000000
# 2 -0.005366 0.011065 -0.007283 0.000000 0.000000 0.000000
# 3 -0.005934 -0.007283 0.041242 0.000000 0.000000 0.000000
# 4 0.000000 0.000000 0.000000 0.056008 0.000000 0.000000
# 5 0.000000 0.000000 0.000000 0.000000 0.055146 0.000000
# 6 0.000000 0.000000 0.000000 0.000000 0.000000 0.029711
#
#
# Mechanical properties :
#
#
# Convention : Reuss Voigt Hill
#
# Bulk Modulus (GPa) = 32.53290 57.12051 44.82670
# Shear Modulus (GPa) = 19.51739 23.97667 21.74703
#
# Velocity S-wave (km/s) = 3.25803 3.61109 3.43909
# Velocity P-wave (km/s) = 5.64326 6.96077 6.33635
#
# Compressibility (1/GPa) = 0.03073812
#
# Stress axis : x y z
#
# Youngs Moduli (GPa) = 64.11575 90.37497 24.24691
#
# Poissons Ratio (x) = 0.48493 0.14387
# Poissons Ratio (y) = 0.34403 0.17660
# Poissons Ratio (z) = 0.38045 0.65825
#
# Static dielectric constant tensor:
#      x y z
#    x 3.480390 0.000000 0.000000 
#    y 0.000000 3.555830 0.000000 
#    z 0.000000 0.000000 3.074570 
# 
# 
# High freq. dielectric constant tensor:
#      x y z
#    x 1.710860 0.000000 0.000000 
#    y 0.000000 1.728950 0.000000 
#    z 0.000000 0.000000 1.679110 
# 
# From -- ./inp_files/12830.got.cif
#   From: 2010.03.12/outbox.cif.g09.slc.cpg/sg65_7_cif.got.tgz:12830.got - 2010.04.10 20:52:16.
