data_PCOD8272728
_publ_section_title
;
Structure prediction by ZEFSAII (Michael W. Deem and Ramdas Pophale) SiO2 
 PCOD8272728
Probable space group: C M M M
;
_chemical_formula_sum "Si O2"
_cell_formula_units_Z 88
_cell_length_a 9.252515
_cell_length_b 18.994821
_cell_length_c 28.261615
_cell_angle_alpha 90.000000
_cell_angle_beta 90.000000
_cell_angle_gamma 90.000000
_cell_volume 4966.975056
_symmetry_space_group_name_H-M "C M M M"
_symmetry_group_IT_number 65
_symmetry_cell_setting 'orthorhombic'
loop_
_space_group_symop_operation_xyz
x,y,z
-x,-y,z
x,-y,-z
-x,y,-z
-x,-y,-z
x,y,-z
-x,y,z
x,-y,z
1/2+x,1/2+y,z
1/2-x,1/2-y,z
1/2+x,1/2-y,-z
1/2-x,1/2+y,-z
1/2-x,1/2-y,-z
1/2+x,1/2+y,-z
1/2-x,1/2+y,z
1/2+x,1/2-y,z
loop_
_atom_site_type_symbol
_atom_site_label
_atom_site_fract_x
_atom_site_fract_y
_atom_site_fract_z
Si Si1 0.337022 0.583684 0.681304
Si Si2 0.163556 0.583965 0.228662
Si Si3 0.332615 0.418690 0.137461
Si Si4 0.831448 0.820044 0.946820
Si Si5 0.169601 0.675968 0.500000
Si Si6 0.831483 0.418858 0.411388
O O1 0.500000 0.613676 0.681840
O O2 0.338512 0.500000 0.683906
O O3 0.250305 0.614320 0.726271
O O4 0.257957 0.608373 0.633635
O O5 0.166486 0.500000 0.229706
O O6 0.239802 0.611780 0.181009
O O7 0.000000 0.612526 0.230339
O O8 0.500000 0.405959 0.149725
O O9 0.298701 0.500000 0.129137
O O10 0.285097 0.381053 0.089149
O O11 0.750000 0.750000 0.931357
O O12 0.000000 0.803911 0.943611
O O13 0.787749 0.843553 0.000000
O O14 0.250000 0.750000 0.500000
O O15 0.215587 0.630282 0.454676
O O16 0.000000 0.690978 0.500000
O O17 0.794843 0.500000 0.424045
O O18 0.000000 0.411244 0.399372
#
# Coordination Sequence:
#
# PCOD8272728 Si02
#       6
#    16  16  16  16   8  16
#     4   9  16  26  43  69  98 125 154 191 235 278
#     4   9  16  26  42  66  96 127 156 187 228 279
#     4   9  17  29  46  69  96 124 155 193 234 275
#     4   9  18  32  49  68  91 122 158 194 234 280
#     4  10  21  35  51  71  97 130 162 194 236 284
#     4   9  17  31  51  73  96 124 161 200 234 272
#
# _framework density 17.717020999999999
#
# number of rings (size 3 to 8) (size 9 to 14) (size 15 to 20)
#    0.000    2.909    0.000    1.364    0.000    7.273 
#    0.000    1.818    0.000    3.818    0.000   12.727 
#    0.000    0.000    0.000    0.000    0.000    0.000 
#
# Total GULP energy -545572.927465 kJ/mol
# GULP energy per Si atom -12399.384715 kJ/mol
# Density = 1.767670 g / cm^3
# Si number density = 17.717021 Si / 1000 Ang^3
#
#
#
# Elastic Constant Matrix: (Units=GPa)
#
#
# Indices 1 2 3 4 5 6 
#
# 1 97.1162 38.1063 83.8018 0.0000 0.0000 0.0000
# 2 38.1063 56.7908 62.0501 0.0000 0.0000 0.0000
# 3 83.8018 62.0501 173.9593 0.0000 0.0000 0.0000
# 4 0.0000 0.0000 0.0000 3.1307 0.0000 0.0000
# 5 0.0000 0.0000 0.0000 0.0000 33.9156 0.0000
# 6 0.0000 0.0000 0.0000 0.0000 0.0000 21.0504
#
#
#
# Elastic Compliance Matrix: (Units=1/GPa)
#
#
# Indices 1 2 3 4 5 6 
#
# 1 0.018249 -0.004325 -0.007248 0.000000 0.000000 0.000000
# 2 -0.004325 0.029879 -0.008574 0.000000 0.000000 0.000000
# 3 -0.007248 -0.008574 0.012298 0.000000 0.000000 0.000000
# 4 0.000000 0.000000 0.000000 0.319414 0.000000 0.000000
# 5 0.000000 0.000000 0.000000 0.000000 0.029485 0.000000
# 6 0.000000 0.000000 0.000000 0.000000 0.000000 0.047505
#
#
# Mechanical properties :
#
#
# Convention : Reuss Voigt Hill
#
# Bulk Modulus (GPa) = 49.67482 77.30920 63.49201
# Shear Modulus (GPa) = 9.92389 21.21322 15.56856
#
# Velocity S-wave (km/s) = 2.36928 3.46401 2.96756
# Velocity P-wave (km/s) = 5.96519 7.72848 6.90336
#
# Compressibility (1/GPa) = 0.02013092
#
# Stress axis : x y z
#
# Youngs Moduli (GPa) = 54.79900 33.46877 81.31188
#
# Poissons Ratio (x) = 0.14476 0.58935
# Poissons Ratio (y) = 0.23703 0.69715
# Poissons Ratio (z) = 0.39719 0.28696
#
# Static dielectric constant tensor:
#      x y z
#    x 3.361890 0.000000 0.000000 
#    y 0.000000 2.885670 0.000000 
#    z 0.000000 0.000000 3.509950 
# 
# 
# High freq. dielectric constant tensor:
#      x y z
#    x 1.688060 0.000000 0.000000 
#    y 0.000000 1.634780 0.000000 
#    z 0.000000 0.000000 1.700720 
# 
# From -- ./inp_files/76652.got.cif
#   From: 2010.03.12/outbox.cif.g09.slc.cpg/sg65_39_cif.got.tgz:76652.got - 2010.04.10 20:52:16.
