data_PCOD8272986
_publ_section_title
;
Structure prediction by ZEFSAII (Michael W. Deem and Ramdas Pophale) SiO2 
 PCOD8272986
Probable space group: C M M M
;
_chemical_formula_sum "Si O2"
_cell_formula_units_Z 80
_cell_length_a 18.495862
_cell_length_b 8.980901
_cell_length_c 25.535092
_cell_angle_alpha 90.000000
_cell_angle_beta 90.000000
_cell_angle_gamma 90.000000
_cell_volume 4241.621506
_symmetry_space_group_name_H-M "C M M M"
_symmetry_group_IT_number 65
_symmetry_cell_setting 'orthorhombic'
loop_
_space_group_symop_operation_xyz
x,y,z
-x,-y,z
x,-y,-z
-x,y,-z
-x,-y,-z
x,y,-z
-x,y,z
x,-y,z
1/2+x,1/2+y,z
1/2-x,1/2-y,z
1/2+x,1/2-y,-z
1/2-x,1/2+y,-z
1/2-x,1/2-y,-z
1/2+x,1/2+y,-z
1/2-x,1/2+y,z
1/2+x,1/2-y,z
loop_
_atom_site_type_symbol
_atom_site_label
_atom_site_fract_x
_atom_site_fract_y
_atom_site_fract_z
Si Si1 0.324394 0.824205 0.594362
Si Si2 0.828289 0.823175 0.899878
Si Si3 0.918433 0.176494 0.000000
Si Si4 0.823571 0.327193 0.288444
Si Si5 0.579527 0.177268 0.500000
Si Si6 0.916455 0.673661 0.190747
O O1 0.250000 0.750000 0.577851
O O2 0.346985 0.774949 0.653258
O O3 0.382730 0.764579 0.552941
O O4 0.315278 0.000000 0.590390
O O5 0.750000 0.750000 0.903005
O O6 0.875475 0.767076 0.949110
O O7 0.869843 0.772837 0.848231
O O8 0.818922 0.000000 0.899440
O O9 0.000000 0.243400 0.000000
O O10 0.923024 0.000000 0.000000
O O11 0.805555 0.500000 0.288411
O O12 0.750000 0.250000 0.269330
O O13 0.888964 0.289737 0.249245
O O14 0.500000 0.246335 0.500000
O O15 0.577547 0.000000 0.500000
O O16 0.905718 0.500000 0.177200
O O17 0.000000 0.720522 0.187029
#
# Coordination Sequence:
#
# PCOD8272986 Si02
#       6
#    16  16   8  16   8  16
#     4   9  17  30  49  71  95 126 164 204 246 294
#     4  11  22  37  58  81 107 139 175 213 253 300
#     4   9  19  36  57  81 108 137 170 209 254 304
#     4   9  18  32  50  72  98 130 166 205 250 298
#     4   9  17  28  45  71  98 123 158 204 248 293
#     4  10  21  36  53  76 106 137 171 212 257 305
#
# _framework density 18.860710999999998
#
# number of rings (size 3 to 8) (size 9 to 14) (size 15 to 20)
#    0.000    2.400    0.000    2.400    0.000    4.400 
#    0.000    5.500    0.000    4.800    0.000    5.600 
#    0.000    0.000    0.000    0.000    0.000    0.000 
#
# Total GULP energy -495991.690812 kJ/mol
# GULP energy per Si atom -12399.792270 kJ/mol
# Density = 1.881778 g / cm^3
# Si number density = 18.860711 Si / 1000 Ang^3
#
#
#
# Elastic Constant Matrix: (Units=GPa)
#
#
# Indices 1 2 3 4 5 6 
#
# 1 174.6498 40.3815 91.0398 0.0000 0.0000 0.0000
# 2 40.3815 37.2081 33.6539 0.0000 0.0000 0.0000
# 3 91.0398 33.6539 135.0021 0.0000 0.0000 0.0000
# 4 0.0000 0.0000 0.0000 22.2343 0.0000 0.0000
# 5 0.0000 0.0000 0.0000 0.0000 33.6155 0.0000
# 6 0.0000 0.0000 0.0000 0.0000 0.0000 19.4270
#
#
#
# Elastic Compliance Matrix: (Units=1/GPa)
#
#
# Indices 1 2 3 4 5 6 
#
# 1 0.009765 -0.005993 -0.005091 0.000000 0.000000 0.000000
# 2 -0.005993 0.038378 -0.005525 0.000000 0.000000 0.000000
# 3 -0.005091 -0.005525 0.012218 0.000000 0.000000 0.000000
# 4 0.000000 0.000000 0.000000 0.044976 0.000000 0.000000
# 5 0.000000 0.000000 0.000000 0.000000 0.029748 0.000000
# 6 0.000000 0.000000 0.000000 0.000000 0.000000 0.051475
#
#
# Mechanical properties :
#
#
# Convention : Reuss Voigt Hill
#
# Bulk Modulus (GPa) = 36.84415 75.22337 56.03376
# Shear Modulus (GPa) = 21.85054 27.17434 24.51244
#
# Velocity S-wave (km/s) = 3.40740 3.79989 3.60899
# Velocity P-wave (km/s) = 5.92096 7.69561 6.86587
#
# Compressibility (1/GPa) = 0.02714135
#
# Stress axis : x y z
#
# Youngs Moduli (GPa) = 102.40156 26.05667 81.84565
#
# Poissons Ratio (x) = 0.15616 0.41671
# Poissons Ratio (y) = 0.61372 0.45223
# Poissons Ratio (z) = 0.52137 0.14397
#
# Static dielectric constant tensor:
#      x y z
#    x 3.651010 0.000000 0.000000 
#    y 0.000000 3.218690 0.000000 
#    z 0.000000 0.000000 3.792270 
# 
# 
# High freq. dielectric constant tensor:
#      x y z
#    x 1.736200 0.000000 0.000000 
#    y 0.000000 1.707470 0.000000 
#    z 0.000000 0.000000 1.749930 
# 
# From -- ./inp_files/75117.got.cif
#   From: 2010.03.12/outbox.cif.g09.slc.cpg/sg65_38_cif.got.tgz:75117.got - 2010.04.10 20:52:16.
