data_PCOD8272645
_publ_section_title
;
Structure prediction by ZEFSAII (Michael W. Deem and Ramdas Pophale) SiO2 
 PCOD8272645
Probable space group: C M M M
;
_chemical_formula_sum "Si O2"
_cell_formula_units_Z 88
_cell_length_a 13.878643
_cell_length_b 27.532413
_cell_length_c 12.584138
_cell_angle_alpha 90.000000
_cell_angle_beta 90.000000
_cell_angle_gamma 90.000000
_cell_volume 4808.556821
_symmetry_space_group_name_H-M "C M M M"
_symmetry_group_IT_number 65
_symmetry_cell_setting 'orthorhombic'
loop_
_space_group_symop_operation_xyz
x,y,z
-x,-y,z
x,-y,-z
-x,y,-z
-x,-y,-z
x,y,-z
-x,y,z
x,-y,z
1/2+x,1/2+y,z
1/2-x,1/2-y,z
1/2+x,1/2-y,-z
1/2-x,1/2+y,-z
1/2-x,1/2-y,-z
1/2+x,1/2+y,-z
1/2-x,1/2+y,z
1/2+x,1/2-y,z
loop_
_atom_site_type_symbol
_atom_site_label
_atom_site_fract_x
_atom_site_fract_y
_atom_site_fract_z
Si Si1 0.893948 0.056914 0.616869
Si Si2 0.388650 0.162906 0.381011
Si Si3 0.610879 0.762201 0.794613
Si Si4 0.225054 0.819852 0.881949
Si Si5 0.723448 0.088823 0.763883
Si Si6 0.885393 0.500000 0.874323
O O1 0.865072 0.077991 0.500000
O O2 0.815874 0.068203 0.705183
O O3 0.000000 0.077628 0.649546
O O4 0.901604 0.000000 0.607010
O O5 0.346495 0.167789 0.500000
O O6 0.500000 0.149269 0.384296
O O7 0.372937 0.214613 0.322214
O O8 0.338997 0.118754 0.320194
O O9 0.500000 0.762270 0.828345
O O10 0.669439 0.794872 0.878927
O O11 0.653339 0.707401 0.798792
O O12 0.235288 0.876208 0.854920
O O13 0.182339 0.815224 0.000000
O O14 0.659581 0.047323 0.818608
O O15 0.000000 0.500000 0.855579
O O16 0.861300 0.500000 0.000000
#
# Coordination Sequence:
#
# PCOD8272645 Si02
#       6
#    16  16  16  16  16   8
#     4   9  18  34  56  79 103 137 180 223 269 321
#     4   9  18  33  54  82 114 144 175 217 272 331
#     4   9  18  34  54  75 104 140 175 216 266 321
#     4  10  21  34  51  78 106 137 182 226 267 315
#     4  11  20  36  56  80 110 146 181 228 275 321
#     4  11  24  40  58  81 110 146 188 229 272 326
#
# _framework density 18.300709000000001
#
# number of rings (size 3 to 8) (size 9 to 14) (size 15 to 20)
#    0.000    2.273    0.909    3.273    0.000    2.909 
#    0.000    8.182    0.000    6.545    0.000    0.000 
#    0.000    0.000    0.000    0.000    0.000    0.000 
#
# Total GULP energy -545322.973701 kJ/mol
# GULP energy per Si atom -12393.703948 kJ/mol
# Density = 1.825906 g / cm^3
# Si number density = 18.300709 Si / 1000 Ang^3
#
#
#
# Elastic Constant Matrix: (Units=GPa)
#
#
# Indices 1 2 3 4 5 6 
#
# 1 118.8997 48.4817 59.2260 0.0000 0.0000 0.0000
# 2 48.4817 107.4312 57.1522 0.0000 0.0000 0.0000
# 3 59.2260 57.1522 131.5329 0.0000 0.0000 0.0000
# 4 0.0000 0.0000 0.0000 19.1774 0.0000 0.0000
# 5 0.0000 0.0000 0.0000 0.0000 29.1214 0.0000
# 6 0.0000 0.0000 0.0000 0.0000 0.0000 18.1520
#
#
#
# Elastic Compliance Matrix: (Units=1/GPa)
#
#
# Indices 1 2 3 4 5 6 
#
# 1 0.011632 -0.003204 -0.003846 0.000000 0.000000 0.000000
# 2 -0.003204 0.012989 -0.004201 0.000000 0.000000 0.000000
# 3 -0.003846 -0.004201 0.011160 0.000000 0.000000 0.000000
# 4 0.000000 0.000000 0.000000 0.052145 0.000000 0.000000
# 5 0.000000 0.000000 0.000000 0.000000 0.034339 0.000000
# 6 0.000000 0.000000 0.000000 0.000000 0.000000 0.055090
#
#
# Mechanical properties :
#
#
# Convention : Reuss Voigt Hill
#
# Bulk Modulus (GPa) = 75.30212 76.39819 75.85015
# Shear Modulus (GPa) = 24.47578 26.15707 25.31642
#
# Velocity S-wave (km/s) = 3.66105 3.78470 3.72339
# Velocity P-wave (km/s) = 7.68814 7.80610 7.74734
#
# Compressibility (1/GPa) = 0.01327984
#
# Stress axis : x y z
#
# Youngs Moduli (GPa) = 85.96698 76.98769 89.60675
#
# Poissons Ratio (x) = 0.24663 0.34461
# Poissons Ratio (y) = 0.27540 0.37647
# Poissons Ratio (z) = 0.33061 0.32346
#
# Static dielectric constant tensor:
#      x y z
#    x 3.550660 0.000000 0.000000 
#    y 0.000000 3.332030 0.000000 
#    z 0.000000 0.000000 3.538180 
# 
# 
# High freq. dielectric constant tensor:
#      x y z
#    x 1.713170 0.000000 0.000000 
#    y 0.000000 1.701530 0.000000 
#    z 0.000000 0.000000 1.708390 
# 
# From -- ./inp_files/25106.got.cif
#   From: 2010.03.12/outbox.cif.g09.slc.cpg/sg65_13_cif.got.tgz:25106.got - 2010.04.10 20:52:16.
