data_PCOD8272712
_publ_section_title
;
Structure prediction by ZEFSAII (Michael W. Deem and Ramdas Pophale) SiO2 
 PCOD8272712
Probable space group: C M M M
;
_chemical_formula_sum "Si O2"
_cell_formula_units_Z 120
_cell_length_a 23.850242
_cell_length_b 21.623604
_cell_length_c 12.907512
_cell_angle_alpha 90.000000
_cell_angle_beta 90.000000
_cell_angle_gamma 90.000000
_cell_volume 6656.767779
_symmetry_space_group_name_H-M "C M M M"
_symmetry_group_IT_number 65
_symmetry_cell_setting 'orthorhombic'
loop_
_space_group_symop_operation_xyz
x,y,z
-x,-y,z
x,-y,-z
-x,y,-z
-x,-y,-z
x,y,-z
-x,y,z
x,-y,z
1/2+x,1/2+y,z
1/2-x,1/2-y,z
1/2+x,1/2-y,-z
1/2-x,1/2+y,-z
1/2-x,1/2-y,-z
1/2+x,1/2+y,-z
1/2-x,1/2+y,z
1/2+x,1/2-y,z
loop_
_atom_site_type_symbol
_atom_site_label
_atom_site_fract_x
_atom_site_fract_y
_atom_site_fract_z
Si Si1 0.934093 0.431718 0.113843
Si Si2 0.898979 0.147002 0.225155
Si Si3 0.500000 0.427573 0.122400
Si Si4 0.563620 0.250846 0.616911
Si Si5 0.815175 0.242063 0.877346
Si Si6 0.208725 0.428599 0.383017
Si Si7 0.834586 0.072767 0.387908
Si Si8 0.128913 0.343990 0.743141
O O1 0.910651 0.500000 0.141896
O O2 0.918690 0.383634 0.202089
O O3 0.000000 0.434004 0.108561
O O4 0.910743 0.412087 0.000000
O O5 0.929923 0.194117 0.301513
O O6 0.848374 0.180511 0.162004
O O7 0.872483 0.094240 0.294826
O O8 0.944723 0.111312 0.155465
O O9 0.500000 0.500000 0.163371
O O10 0.500000 0.429484 0.000000
O O11 0.579865 0.271920 0.500000
O O12 0.500000 0.227477 0.620534
O O13 0.603260 0.194247 0.648226
O O14 0.750000 0.250000 0.842878
O O15 0.845730 0.301122 0.831512
O O16 0.820268 0.242497 0.000000
O O17 0.185766 0.420184 0.500000
O O18 0.205170 0.500000 0.349973
O O19 0.271582 0.402376 0.375333
O O20 0.175017 0.389286 0.301091
O O21 0.858087 0.095564 0.500000
O O22 0.832828 0.000000 0.386323
#
# Coordination Sequence:
#
# PCOD8272712 Si02
#       8
#    16  16   8  16  16  16  16  16
#     4   9  18  32  49  71 100 131 168 220 272 313
#     4  11  20  37  59  78 106 143 178 217 269 325
#     4  11  24  40  59  85 113 143 183 228 272 327
#     4  10  21  35  50  73 105 137 170 215 260 305
#     4  10  22  37  53  76 105 138 178 225 270 312
#     4   9  18  32  50  76 108 137 169 214 262 313
#     4   9  18  33  54  80 107 134 169 213 261 315
#     4  11  19  31  53  74  98 135 180 210 258 321
#
# _framework density 18.026767
#
# number of rings (size 3 to 8) (size 9 to 14) (size 15 to 20)
#    0.000    2.067    0.667    4.800    0.000    0.000 
#    0.000    0.000    0.000    8.000    0.000   16.800 
#    0.000    0.000    0.000    0.000    0.000    0.000 
#
# Total GULP energy -743596.079181 kJ/mol
# GULP energy per Si atom -12393.267986 kJ/mol
# Density = 1.798574 g / cm^3
# Si number density = 18.026767 Si / 1000 Ang^3
#
#
#
# Elastic Constant Matrix: (Units=GPa)
#
#
# Indices 1 2 3 4 5 6 
#
# 1 88.8441 38.4092 41.4555 0.0000 0.0000 0.0000
# 2 38.4092 71.7959 35.6451 0.0000 0.0000 0.0000
# 3 41.4555 35.6451 91.9904 0.0000 0.0000 0.0000
# 4 0.0000 0.0000 0.0000 26.3260 0.0000 0.0000
# 5 0.0000 0.0000 0.0000 0.0000 -27.9812 0.0000
# 6 0.0000 0.0000 0.0000 0.0000 0.0000 33.4373
#
#
#
# Elastic Compliance Matrix: (Units=1/GPa)
#
#
# Indices 1 2 3 4 5 6 
#
# 1 0.016247 -0.006261 -0.004896 0.000000 0.000000 0.000000
# 2 -0.006261 0.019659 -0.004796 0.000000 0.000000 0.000000
# 3 -0.004896 -0.004796 0.014935 0.000000 0.000000 0.000000
# 4 0.000000 0.000000 0.000000 0.037985 0.000000 0.000000
# 5 0.000000 0.000000 0.000000 0.000000 -0.035738 0.000000
# 6 0.000000 0.000000 0.000000 0.000000 0.000000 0.029907
#
#
# Mechanical properties :
#
#
# Convention : Reuss Voigt Hill
#
# Bulk Modulus (GPa) = 52.81025 53.73889 53.27457
# Shear Modulus (GPa) = 41.24997 15.49778 28.37388
#
# Velocity S-wave (km/s) = 4.78877 2.93526 3.97165
# Velocity P-wave (km/s) = 7.74180 6.43141 7.11683
#
# Compressibility (1/GPa) = 0.01893572
#
# Stress axis : x y z
#
# Youngs Moduli (GPa) = 61.55059 50.86713 66.95555
#
# Poissons Ratio (x) = 0.31849 0.32778
# Poissons Ratio (y) = 0.38538 0.32112
# Poissons Ratio (z) = 0.30132 0.24396
#
# Static dielectric constant tensor:
#      x y z
#    x 3.393310 0.000000 0.000000 
#    y 0.000000 3.430090 0.000000 
#    z 0.000000 0.000000 3.393910 
# 
# 
# High freq. dielectric constant tensor:
#      x y z
#    x 1.697250 0.000000 0.000000 
#    y 0.000000 1.700420 0.000000 
#    z 0.000000 0.000000 1.705670 
# 
# From -- ./inp_files/31120.got.cif
#   From: 2010.03.12/outbox.cif.g09.slc.cpg/sg65_16_cif.got.tgz:31120.got - 2010.04.10 20:52:16.
