data_PCOD8272315
_publ_section_title
;
Structure prediction by ZEFSAII (Michael W. Deem and Ramdas Pophale) SiO2 
 PCOD8272315
Probable space group: C M M M
;
_chemical_formula_sum "Si O2"
_cell_formula_units_Z 72
_cell_length_a 8.528346
_cell_length_b 14.764041
_cell_length_c 28.233303
_cell_angle_alpha 90.000000
_cell_angle_beta 90.000000
_cell_angle_gamma 90.000000
_cell_volume 3554.935646
_symmetry_space_group_name_H-M "C M M M"
_symmetry_group_IT_number 65
_symmetry_cell_setting 'orthorhombic'
loop_
_space_group_symop_operation_xyz
x,y,z
-x,-y,z
x,-y,-z
-x,y,-z
-x,-y,-z
x,y,-z
-x,y,z
x,-y,z
1/2+x,1/2+y,z
1/2-x,1/2-y,z
1/2+x,1/2-y,-z
1/2-x,1/2+y,-z
1/2-x,1/2-y,-z
1/2+x,1/2+y,-z
1/2-x,1/2+y,z
1/2+x,1/2-y,z
loop_
_atom_site_type_symbol
_atom_site_label
_atom_site_fract_x
_atom_site_fract_y
_atom_site_fract_z
Si Si1 0.814034 0.000000 0.947293
Si Si2 0.314678 0.351743 0.873851
Si Si3 0.321649 0.606979 0.552767
Si Si4 0.818226 0.342872 0.352866
Si Si5 0.317727 0.000000 0.192309
Si Si6 0.680003 0.500000 0.293547
O O1 0.758239 0.908976 0.919997
O O2 0.000000 0.000000 0.949959
O O3 0.740205 0.000000 0.000000
O O4 0.500000 0.345579 0.871472
O O5 0.250000 0.250000 0.875412
O O6 0.256771 0.407549 0.828229
O O7 0.274873 0.640037 0.500000
O O8 0.500000 0.635737 0.564565
O O9 0.304290 0.500000 0.555942
O O10 0.205106 0.652213 0.590396
O O11 0.750000 0.250000 0.332953
O O12 0.713594 0.415324 0.326423
O O13 0.000000 0.355010 0.340308
O O14 0.500000 0.000000 0.180305
O O15 0.291651 0.000000 0.248186
O O16 0.500000 0.500000 0.276979
#
# Coordination Sequence:
#
# PCOD8272315 Si02
#       6
#     8  16  16  16   8   8
#     4   8  16  32  54  83 123 168 211 254 300 351
#     4  10  20  36  59  88 122 161 205 252 303 354
#     4   9  18  35  60  87 117 154 193 235 286 342
#     4  12  25  41  62  90 120 155 195 237 288 349
#     4  11  23  41  64  89 116 150 196 246 300 360
#     4  12  25  45  67  89 120 152 188 241 300 357
#
# _framework density 20.253532
#
# number of rings (size 3 to 8) (size 9 to 14) (size 15 to 20)
#    0.000    1.667    1.111    6.000    0.000    2.222 
#    0.000    5.556    0.000   11.333    0.000    0.000 
#    0.000    0.000    0.000    0.000    0.000    0.000 
#
# Total GULP energy -446406.782917 kJ/mol
# GULP energy per Si atom -12400.188414 kJ/mol
# Density = 2.020743 g / cm^3
# Si number density = 20.253532 Si / 1000 Ang^3
#
#
#
# Elastic Constant Matrix: (Units=GPa)
#
#
# Indices 1 2 3 4 5 6 
#
# 1 94.8110 36.5302 16.6691 0.0000 0.0000 0.0000
# 2 36.5302 157.7227 49.2462 0.0000 0.0000 0.0000
# 3 16.6691 49.2462 112.4342 0.0000 0.0000 0.0000
# 4 0.0000 0.0000 0.0000 -0.8504 0.0000 0.0000
# 5 0.0000 0.0000 0.0000 0.0000 25.4955 0.0000
# 6 0.0000 0.0000 0.0000 0.0000 0.0000 31.4988
#
#
#
# Elastic Compliance Matrix: (Units=1/GPa)
#
#
# Indices 1 2 3 4 5 6 
#
# 1 0.011619 -0.002494 -0.000630 0.000000 0.000000 0.000000
# 2 -0.002494 0.007880 -0.003082 0.000000 0.000000 0.000000
# 3 -0.000630 -0.003082 0.010337 0.000000 0.000000 0.000000
# 4 0.000000 0.000000 0.000000 -1.175944 0.000000 0.000000
# 5 0.000000 0.000000 0.000000 0.000000 0.039223 0.000000
# 6 0.000000 0.000000 0.000000 0.000000 0.000000 0.031747
#
#
# Mechanical properties :
#
#
# Convention : Reuss Voigt Hill
#
# Bulk Modulus (GPa) = 57.39115 63.31764 60.35440
# Shear Modulus (GPa) = -4.73074 28.73029 11.99977
#
# Velocity S-wave (km/s) = -1.52998 3.77043 2.43673
# Velocity P-wave (km/s) = 5.02760 7.09121 6.14662
#
# Compressibility (1/GPa) = 0.01742429
#
# Stress axis : x y z
#
# Youngs Moduli (GPa) = 86.06485 126.90065 96.73708
#
# Poissons Ratio (x) = 0.31654 0.06095
# Poissons Ratio (y) = 0.21468 0.29812
# Poissons Ratio (z) = 0.05423 0.39107
#
# Static dielectric constant tensor:
#      x y z
#    x 3.549840 0.000000 0.000000 
#    y 0.000000 3.623850 0.000000 
#    z 0.000000 0.000000 3.836550 
# 
# 
# High freq. dielectric constant tensor:
#      x y z
#    x 1.786490 0.000000 0.000000 
#    y 0.000000 1.798790 0.000000 
#    z 0.000000 0.000000 1.787850 
# 
# From -- ./inp_files/72621.got.cif
#   From: 2010.03.12/outbox.cif.g09.slc.cpg/sg65_37_cif.got.tgz:72621.got - 2010.04.10 20:52:16.
