data_PCOD8272482
_publ_section_title
;
Structure prediction by ZEFSAII (Michael W. Deem and Ramdas Pophale) SiO2 
 PCOD8272482
Probable space group: C M M M
;
_chemical_formula_sum "Si O2"
_cell_formula_units_Z 104
_cell_length_a 8.768861
_cell_length_b 21.537369
_cell_length_c 27.062651
_cell_angle_alpha 90.000000
_cell_angle_beta 90.000000
_cell_angle_gamma 90.000000
_cell_volume 5111.003422
_symmetry_space_group_name_H-M "C M M M"
_symmetry_group_IT_number 65
_symmetry_cell_setting 'orthorhombic'
loop_
_space_group_symop_operation_xyz
x,y,z
-x,-y,z
x,-y,-z
-x,y,-z
-x,-y,-z
x,y,-z
-x,y,z
x,-y,z
1/2+x,1/2+y,z
1/2-x,1/2-y,z
1/2+x,1/2-y,-z
1/2-x,1/2+y,-z
1/2-x,1/2-y,-z
1/2+x,1/2+y,-z
1/2-x,1/2+y,z
1/2+x,1/2-y,z
loop_
_atom_site_type_symbol
_atom_site_label
_atom_site_fract_x
_atom_site_fract_y
_atom_site_fract_z
Si Si1 0.673536 0.367630 0.730630
Si Si2 0.320763 0.380229 0.556373
Si Si3 0.180721 0.572108 0.102088
Si Si4 0.680641 0.316489 0.834574
Si Si5 0.678050 0.188133 0.641370
Si Si6 0.669966 0.500000 0.291866
Si Si7 0.830411 0.927162 0.000000
Si Si8 0.678738 0.000000 0.604506
O O1 0.500000 0.351350 0.715233
O O2 0.723022 0.325738 0.776927
O O3 0.784458 0.361727 0.683530
O O4 0.690866 0.440564 0.743931
O O5 0.273279 0.367838 0.500000
O O6 0.500000 0.387195 0.562285
O O7 0.260178 0.323587 0.589186
O O8 0.242757 0.441311 0.576335
O O9 0.230393 0.500000 0.113917
O O10 0.252087 0.623019 0.138540
O O11 0.236703 0.593314 0.048079
O O12 0.000000 0.577383 0.104473
O O13 0.500000 0.315166 0.843333
O O14 0.750000 0.250000 0.852127
O O15 0.500000 0.192322 0.632095
O O16 0.750000 0.250000 0.663994
O O17 0.500000 0.500000 0.315252
O O18 0.783962 0.500000 0.337800
O O19 0.000000 0.896489 0.000000
O O20 0.849523 0.000000 0.000000
O O21 0.500000 0.000000 0.598588
#
# Coordination Sequence:
#
# PCOD8272482 Si02
#       8
#    16  16  16  16  16   8   8   8
#     4  10  22  40  64  91 122 160 201 248 303 364
#     4  11  24  42  63  86 115 152 190 233 289 350
#     4  10  21  38  62  94 131 171 215 267 321 373
#     4  11  24  41  63  91 127 170 215 262 315 376
#     4  12  25  41  63  87 115 151 195 243 294 356
#     4  10  20  37  63  90 122 158 195 244 299 360
#     4   9  17  33  60  93 128 169 216 265 315 375
#     4  12  23  37  60  93 122 150 185 231 287 350
#
# _framework density 20.348255999999999
#
# number of rings (size 3 to 8) (size 9 to 14) (size 15 to 20)
#    0.000    1.308    1.538    4.385    1.077    6.769 
#    0.000    0.385    0.000    0.000    0.000    0.000 
#    0.000    0.000    0.000    0.000    0.000    0.000 
#
# Total GULP energy -644655.502224 kJ/mol
# GULP energy per Si atom -12397.221197 kJ/mol
# Density = 2.030194 g / cm^3
# Si number density = 20.348256 Si / 1000 Ang^3
#
#
#
# Elastic Constant Matrix: (Units=GPa)
#
#
# Indices 1 2 3 4 5 6 
#
# 1 103.4481 40.8920 46.4487 0.0000 0.0000 0.0000
# 2 40.8920 112.3352 40.4003 0.0000 0.0000 0.0000
# 3 46.4487 40.4003 99.5007 0.0000 0.0000 0.0000
# 4 0.0000 0.0000 0.0000 45.3211 0.0000 0.0000
# 5 0.0000 0.0000 0.0000 0.0000 24.6479 0.0000
# 6 0.0000 0.0000 0.0000 0.0000 0.0000 33.6372
#
#
#
# Elastic Compliance Matrix: (Units=1/GPa)
#
#
# Indices 1 2 3 4 5 6 
#
# 1 0.013037 -0.002994 -0.004870 0.000000 0.000000 0.000000
# 2 -0.002994 0.011112 -0.003114 0.000000 0.000000 0.000000
# 3 -0.004870 -0.003114 0.013588 0.000000 0.000000 0.000000
# 4 0.000000 0.000000 0.000000 0.022065 0.000000 0.000000
# 5 0.000000 0.000000 0.000000 0.000000 0.040571 0.000000
# 6 0.000000 0.000000 0.000000 0.000000 0.000000 0.029729
#
#
# Mechanical properties :
#
#
# Convention : Reuss Voigt Hill
#
# Bulk Modulus (GPa) = 63.37086 63.41848 63.39467
# Shear Modulus (GPa) = 31.78262 33.22411 32.50336
#
# Velocity S-wave (km/s) = 3.95642 4.04514 4.00103
# Velocity P-wave (km/s) = 7.21677 7.28367 7.25029
#
# Compressibility (1/GPa) = 0.01578012
#
# Stress axis : x y z
#
# Youngs Moduli (GPa) = 76.70487 89.99458 73.59420
#
# Poissons Ratio (x) = 0.26946 0.35842
# Poissons Ratio (y) = 0.22967 0.22917
# Poissons Ratio (z) = 0.37357 0.28024
#
# Static dielectric constant tensor:
#      x y z
#    x 3.734130 0.000000 0.000000 
#    y 0.000000 3.850440 0.000000 
#    z 0.000000 0.000000 3.692410 
# 
# 
# High freq. dielectric constant tensor:
#      x y z
#    x 1.802990 0.000000 0.000000 
#    y 0.000000 1.799990 0.000000 
#    z 0.000000 0.000000 1.787820 
# 
# From -- ./inp_files/73437.got.cif
#   From: 2010.03.12/outbox.cif.g09.slc.cpg/sg65_37_cif.got.tgz:73437.got - 2010.04.10 20:52:16.
