data_PCOD8272544
_publ_section_title
;
Structure prediction by ZEFSAII (Michael W. Deem and Ramdas Pophale) SiO2 
 PCOD8272544
Probable space group: C M M M
;
_chemical_formula_sum "Si O2"
_cell_formula_units_Z 104
_cell_length_a 27.152401
_cell_length_b 21.011059
_cell_length_c 9.887627
_cell_angle_alpha 90.000000
_cell_angle_beta 90.000000
_cell_angle_gamma 90.000000
_cell_volume 5640.898119
_symmetry_space_group_name_H-M "C M M M"
_symmetry_group_IT_number 65
_symmetry_cell_setting 'orthorhombic'
loop_
_space_group_symop_operation_xyz
x,y,z
-x,-y,z
x,-y,-z
-x,y,-z
-x,-y,-z
x,y,-z
-x,y,z
x,-y,z
1/2+x,1/2+y,z
1/2-x,1/2-y,z
1/2+x,1/2-y,-z
1/2-x,1/2+y,-z
1/2-x,1/2-y,-z
1/2+x,1/2+y,-z
1/2-x,1/2+y,z
1/2+x,1/2-y,z
loop_
_atom_site_type_symbol
_atom_site_label
_atom_site_fract_x
_atom_site_fract_y
_atom_site_fract_z
Si Si1 0.794605 0.574373 0.340877
Si Si2 0.445024 0.925719 0.000000
Si Si3 0.056689 0.248080 0.842510
Si Si4 0.445991 0.074956 0.500000
Si Si5 0.607779 0.131670 0.250639
Si Si6 0.597380 0.609636 0.155025
Si Si7 0.058169 0.000000 0.655454
Si Si8 0.295168 0.426817 0.848786
O O1 0.789391 0.589561 0.500000
O O2 0.808423 0.500000 0.318398
O O3 0.833964 0.620882 0.269228
O O4 0.743855 0.591609 0.265973
O O5 0.412843 0.905593 0.124795
O O6 0.500000 0.893775 0.000000
O O7 0.452559 0.000000 0.000000
O O8 0.093005 0.294094 0.758006
O O9 0.072837 0.176744 0.811465
O O10 0.000000 0.257438 0.797090
O O11 0.062994 0.264984 0.000000
O O12 0.500000 0.105364 0.500000
O O13 0.416950 0.098126 0.626089
O O14 0.448730 0.000000 0.500000
O O15 0.576263 0.561646 0.264791
O O16 0.656238 0.615742 0.172298
O O17 0.584748 0.588520 0.000000
O O18 0.078324 0.000000 0.500000
O O19 0.000000 0.000000 0.653457
O O20 0.311700 0.500000 0.832596
O O21 0.273170 0.415454 0.000000
#
# Coordination Sequence:
#
# PCOD8272544 Si02
#       8
#    16   8  16   8  16  16   8  16
#     4  10  21  37  57  83 114 153 198 243 297 358
#     4  11  22  34  54  82 111 147 193 249 310 352
#     4  10  21  38  60  86 117 158 203 241 291 360
#     4  11  22  36  56  80 109 149 197 249 302 354
#     4  12  22  37  56  80 119 153 197 244 293 350
#     4  10  20  39  65  90 118 155 202 248 297 357
#     4  11  23  37  57  93 133 159 191 245 302 355
#     4   9  18  34  59  90 116 142 188 249 302 353
#
# _framework density 18.436781
#
# number of rings (size 3 to 8) (size 9 to 14) (size 15 to 20)
#    0.000    1.615    2.308    3.462    1.077    3.077 
#    1.385    0.769    0.000    3.692    0.000    0.000 
#    0.000    0.000    0.000    0.000    0.000    0.000 
#
# Total GULP energy -644723.035777 kJ/mol
# GULP energy per Si atom -12398.519919 kJ/mol
# Density = 1.839482 g / cm^3
# Si number density = 18.436781 Si / 1000 Ang^3
#
#
#
# Elastic Constant Matrix: (Units=GPa)
#
#
# Indices 1 2 3 4 5 6 
#
# 1 103.8120 41.2676 50.3355 0.0000 0.0000 0.0000
# 2 41.2676 84.1695 42.1773 0.0000 0.0000 0.0000
# 3 50.3355 42.1773 125.6971 0.0000 0.0000 0.0000
# 4 0.0000 0.0000 0.0000 24.0560 0.0000 0.0000
# 5 0.0000 0.0000 0.0000 0.0000 43.6230 0.0000
# 6 0.0000 0.0000 0.0000 0.0000 0.0000 35.2491
#
#
#
# Elastic Compliance Matrix: (Units=1/GPa)
#
#
# Indices 1 2 3 4 5 6 
#
# 1 0.013304 -0.004632 -0.003773 0.000000 0.000000 0.000000
# 2 -0.004632 0.015895 -0.003479 0.000000 0.000000 0.000000
# 3 -0.003773 -0.003479 0.010634 0.000000 0.000000 0.000000
# 4 0.000000 0.000000 0.000000 0.041570 0.000000 0.000000
# 5 0.000000 0.000000 0.000000 0.000000 0.022924 0.000000
# 6 0.000000 0.000000 0.000000 0.000000 0.000000 0.028370
#
#
# Mechanical properties :
#
#
# Convention : Reuss Voigt Hill
#
# Bulk Modulus (GPa) = 62.24759 64.58214 63.41486
# Shear Modulus (GPa) = 30.89897 32.57884 31.73890
#
# Velocity S-wave (km/s) = 4.09827 4.20820 4.15360
# Velocity P-wave (km/s) = 7.49869 7.66270 7.58114
#
# Compressibility (1/GPa) = 0.01606488
#
# Stress axis : x y z
#
# Youngs Moduli (GPa) = 75.16757 62.91319 94.03907
#
# Poissons Ratio (x) = 0.29141 0.35483
# Poissons Ratio (y) = 0.34817 0.32713
# Poissons Ratio (z) = 0.28362 0.21885
#
# Static dielectric constant tensor:
#      x y z
#    x 3.602230 0.000000 0.000000 
#    y 0.000000 2.879000 0.000000 
#    z 0.000000 0.000000 3.443240 
# 
# 
# High freq. dielectric constant tensor:
#      x y z
#    x 1.720810 0.000000 0.000000 
#    y 0.000000 1.699470 0.000000 
#    z 0.000000 0.000000 1.720140 
# 
# From -- ./inp_files/16544.got.cif
#   From: 2010.03.12/outbox.cif.g09.slc.cpg/sg65_9_cif.got.tgz:16544.got - 2010.04.10 20:52:16.
