data_PCOD8272830
_publ_section_title
;
Structure prediction by ZEFSAII (Michael W. Deem and Ramdas Pophale) SiO2 
 PCOD8272830
Probable space group: C M M M
;
_chemical_formula_sum "Si O2"
_cell_formula_units_Z 88
_cell_length_a 8.735016
_cell_length_b 19.130373
_cell_length_c 27.800902
_cell_angle_alpha 90.000000
_cell_angle_beta 90.000000
_cell_angle_gamma 90.000000
_cell_volume 4645.645104
_symmetry_space_group_name_H-M "C M M M"
_symmetry_group_IT_number 65
_symmetry_cell_setting 'orthorhombic'
loop_
_space_group_symop_operation_xyz
x,y,z
-x,-y,z
x,-y,-z
-x,y,-z
-x,-y,-z
x,y,-z
-x,y,z
x,-y,z
1/2+x,1/2+y,z
1/2-x,1/2-y,z
1/2+x,1/2-y,-z
1/2-x,1/2+y,-z
1/2-x,1/2-y,-z
1/2+x,1/2+y,-z
1/2-x,1/2+y,z
1/2+x,1/2-y,z
loop_
_atom_site_type_symbol
_atom_site_label
_atom_site_fract_x
_atom_site_fract_y
_atom_site_fract_z
Si Si1 0.321147 0.419670 0.410786
Si Si2 0.820965 0.323756 0.868618
Si Si3 0.325421 0.418378 0.945235
Si Si4 0.818995 0.173163 0.500000
Si Si5 0.675436 0.081823 0.310614
Si Si6 0.180080 0.175575 0.768404
O O1 0.500000 0.409358 0.400183
O O2 0.286729 0.500000 0.425088
O O3 0.263094 0.369710 0.453430
O O4 0.227606 0.396705 0.363886
O O5 0.750000 0.250000 0.884044
O O6 0.790483 0.378616 0.910673
O O7 0.747651 0.351151 0.819013
O O8 0.000000 0.314621 0.860636
O O9 0.500000 0.398656 0.932288
O O10 0.297722 0.500000 0.937998
O O11 0.289318 0.396720 0.000000
O O12 0.750000 0.250000 0.500000
O O13 0.000000 0.179189 0.500000
O O14 0.500000 0.104472 0.303511
O O15 0.781275 0.119957 0.272280
O O16 0.699076 0.000000 0.302537
O O17 0.250000 0.250000 0.753821
O O18 0.000000 0.183474 0.773594
#
# Coordination Sequence:
#
# PCOD8272830 Si02
#       6
#    16  16  16   8  16  16
#     4   9  18  35  57  78 103 140 184 224 265 315
#     4  11  22  37  57  81 111 145 183 226 271 323
#     4   9  19  37  59  82 110 144 182 225 273 324
#     4  10  21  35  53  79 109 140 176 222 270 320
#     4  10  21  37  57  83 113 143 180 225 270 320
#     4  11  22  38  59  81 109 144 182 224 272 325
#
# _framework density 18.942471999999999
#
# number of rings (size 3 to 8) (size 9 to 14) (size 15 to 20)
#    0.000    2.000    0.000    5.727    0.000    5.455 
#    0.000    2.727    0.000    2.727    0.000    0.000 
#    0.000    0.000    0.000    0.000    0.000    0.000 
#
# Total GULP energy -545772.614669 kJ/mol
# GULP energy per Si atom -12403.923061 kJ/mol
# Density = 1.889936 g / cm^3
# Si number density = 18.942472 Si / 1000 Ang^3
#
#
#
# Elastic Constant Matrix: (Units=GPa)
#
#
# Indices 1 2 3 4 5 6 
#
# 1 124.2104 43.0452 57.0863 0.0000 0.0000 0.0000
# 2 43.0452 80.9186 72.4751 0.0000 0.0000 0.0000
# 3 57.0863 72.4751 129.0772 0.0000 0.0000 0.0000
# 4 0.0000 0.0000 0.0000 -12.8556 0.0000 0.0000
# 5 0.0000 0.0000 0.0000 0.0000 33.5927 0.0000
# 6 0.0000 0.0000 0.0000 0.0000 0.0000 31.8412
#
#
#
# Elastic Compliance Matrix: (Units=1/GPa)
#
#
# Indices 1 2 3 4 5 6 
#
# 1 0.010421 -0.002848 -0.003010 0.000000 0.000000 0.000000
# 2 -0.002848 0.025638 -0.013136 0.000000 0.000000 0.000000
# 3 -0.003010 -0.013136 0.016454 0.000000 0.000000 0.000000
# 4 0.000000 0.000000 0.000000 -0.077787 0.000000 0.000000
# 5 0.000000 0.000000 0.000000 0.000000 0.029768 0.000000
# 6 0.000000 0.000000 0.000000 0.000000 0.000000 0.031406
#
#
# Mechanical properties :
#
#
# Convention : Reuss Voigt Hill
#
# Bulk Modulus (GPa) = 68.84140 75.49106 72.16623
# Shear Modulus (GPa) = 63.50768 21.28897 42.39833
#
# Velocity S-wave (km/s) = 5.79650 3.35606 4.73617
# Velocity P-wave (km/s) = 9.01224 7.41329 8.25158
#
# Compressibility (1/GPa) = 0.01452614
#
# Stress axis : x y z
#
# Youngs Moduli (GPa) = 95.95944 39.00389 60.77442
#
# Poissons Ratio (x) = 0.11107 0.18293
# Poissons Ratio (y) = 0.27326 0.79835
# Poissons Ratio (z) = 0.28883 0.51236
#
# Static dielectric constant tensor:
#      x y z
#    x 3.478630 0.000000 0.000000 
#    y 0.000000 3.381110 0.000000 
#    z 0.000000 0.000000 3.522370 
# 
# 
# High freq. dielectric constant tensor:
#      x y z
#    x 1.740910 0.000000 0.000000 
#    y 0.000000 1.731570 0.000000 
#    z 0.000000 0.000000 1.745210 
# 
# From -- ./inp_files/67479.got.cif
#   From: 2010.03.12/outbox.cif.g09.slc.cpg/sg65_34_cif.got.tgz:67479.got - 2010.04.10 20:52:16.
