data_PCOD8272975
_publ_section_title
;
Structure prediction by ZEFSAII (Michael W. Deem and Ramdas Pophale) SiO2 
 PCOD8272975
Probable space group: C M M M
;
_chemical_formula_sum "Si O2"
_cell_formula_units_Z 104
_cell_length_a 32.687360
_cell_length_b 19.609673
_cell_length_c 9.148194
_cell_angle_alpha 90.000000
_cell_angle_beta 90.000000
_cell_angle_gamma 90.000000
_cell_volume 5863.886609
_symmetry_space_group_name_H-M "C M M M"
_symmetry_group_IT_number 65
_symmetry_cell_setting 'orthorhombic'
loop_
_space_group_symop_operation_xyz
x,y,z
-x,-y,z
x,-y,-z
-x,y,-z
-x,-y,-z
x,y,-z
-x,y,z
x,-y,z
1/2+x,1/2+y,z
1/2-x,1/2-y,z
1/2+x,1/2-y,-z
1/2-x,1/2+y,-z
1/2-x,1/2-y,-z
1/2+x,1/2+y,-z
1/2-x,1/2+y,z
1/2+x,1/2-y,z
loop_
_atom_site_type_symbol
_atom_site_label
_atom_site_fract_x
_atom_site_fract_y
_atom_site_fract_z
Si Si1 0.547267 0.000000 0.339109
Si Si2 0.130511 0.181000 0.333873
Si Si3 0.954594 0.758731 0.667698
Si Si4 0.184705 0.078159 0.829702
Si Si5 0.075993 0.369018 0.826883
Si Si6 0.155681 0.332312 0.331668
Si Si7 0.732792 0.077749 0.330245
O O1 0.558260 0.935869 0.243176
O O2 0.500000 0.000000 0.369742
O O3 0.569200 0.000000 0.500000
O O4 0.135576 0.156166 0.500000
O O5 0.082199 0.189239 0.294830
O O6 0.147448 0.123278 0.228121
O O7 0.156181 0.250714 0.309446
O O8 0.948819 0.734111 0.500000
O O9 0.951191 0.693902 0.772007
O O10 0.000000 0.791755 0.689871
O O11 0.227015 0.100501 0.755902
O O12 0.174404 0.000000 0.792426
O O13 0.189609 0.090770 0.000000
O O14 0.122686 0.363465 0.776879
O O15 0.073514 0.373156 0.000000
O O16 0.144535 0.349630 0.500000
O O17 0.198196 0.367639 0.287136
O O18 0.743426 0.082651 0.500000
O O19 0.719399 0.000000 0.289318
#
# Coordination Sequence:
#
# PCOD8272975 Si02
#       7
#     8  16  16  16  16  16  16
#     4  11  23  37  51  65  89 133 183 225 267 313
#     4   9  18  33  54  79 105 133 170 214 254 303
#     4   9  18  35  57  78 102 134 170 207 253 309
#     4  10  21  36  53  75 104 137 170 209 260 316
#     4  11  22  33  48  74 104 134 170 217 267 310
#     4   9  19  35  53  76 104 137 176 215 258 307
#     4   9  18  33  54  77 100 135 180 218 253 301
#
# _framework density 17.735678
#
# number of rings (size 3 to 8) (size 9 to 14) (size 15 to 20)
#    0.000    2.385    0.000    3.462    1.077    7.385 
#    0.000    3.077    0.000    0.462    0.000    3.231 
#    0.000    0.000    0.000    0.000    0.000    0.000 
#
# Total GULP energy -644710.962618 kJ/mol
# GULP energy per Si atom -12398.287743 kJ/mol
# Density = 1.769531 g / cm^3
# Si number density = 17.735678 Si / 1000 Ang^3
#
#
#
# Elastic Constant Matrix: (Units=GPa)
#
#
# Indices 1 2 3 4 5 6 
#
# 1 134.8078 65.3238 53.5173 0.0000 0.0000 0.0000
# 2 65.3238 72.8521 43.0544 0.0000 0.0000 0.0000
# 3 53.5173 43.0544 98.6113 0.0000 0.0000 0.0000
# 4 0.0000 0.0000 0.0000 25.6520 0.0000 0.0000
# 5 0.0000 0.0000 0.0000 0.0000 310.8761 0.0000
# 6 0.0000 0.0000 0.0000 0.0000 0.0000 61.2555
#
#
#
# Elastic Compliance Matrix: (Units=1/GPa)
#
#
# Indices 1 2 3 4 5 6 
#
# 1 0.013662 -0.010605 -0.002784 0.000000 0.000000 0.000000
# 2 -0.010605 0.026732 -0.005916 0.000000 0.000000 0.000000
# 3 -0.002784 -0.005916 0.014235 0.000000 0.000000 0.000000
# 4 0.000000 0.000000 0.000000 0.038983 0.000000 0.000000
# 5 0.000000 0.000000 0.000000 0.000000 0.003217 0.000000
# 6 0.000000 0.000000 0.000000 0.000000 0.000000 0.016325
#
#
# Mechanical properties :
#
#
# Convention : Reuss Voigt Hill
#
# Bulk Modulus (GPa) = 62.42834 70.00691 66.21762
# Shear Modulus (GPa) = 31.82622 89.18177 60.50399
#
# Velocity S-wave (km/s) = 4.24072 7.09880 5.84708
# Velocity P-wave (km/s) = 7.69766 10.33193 9.11051
#
# Compressibility (1/GPa) = 0.01601837
#
# Stress axis : x y z
#
# Youngs Moduli (GPa) = 73.19526 37.40901 70.24996
#
# Poissons Ratio (x) = 0.39671 0.19561
# Poissons Ratio (y) = 0.77622 0.41559
# Poissons Ratio (z) = 0.20381 0.22131
#
# Static dielectric constant tensor:
#      x y z
#    x 3.352230 0.000000 0.000000 
#    y 0.000000 3.412910 0.000000 
#    z 0.000000 0.000000 3.273490 
# 
# 
# High freq. dielectric constant tensor:
#      x y z
#    x 1.688010 0.000000 0.000000 
#    y 0.000000 1.667100 0.000000 
#    z 0.000000 0.000000 1.686980 
# 
# From -- ./inp_files/18702.got.cif
#   From: 2010.03.12/outbox.cif.g09.slc.cpg/sg65_10_cif.got.tgz:18702.got - 2010.04.10 20:52:16.
