data_PCOD8272282
_publ_section_title
;
Structure prediction by ZEFSAII (Michael W. Deem and Ramdas Pophale) SiO2 
 PCOD8272282
Probable space group: C M M M
;
_chemical_formula_sum "Si O2"
_cell_formula_units_Z 88
_cell_length_a 15.919131
_cell_length_b 9.369295
_cell_length_c 29.761171
_cell_angle_alpha 90.000000
_cell_angle_beta 90.000000
_cell_angle_gamma 90.000000
_cell_volume 4438.909442
_symmetry_space_group_name_H-M "C M M M"
_symmetry_group_IT_number 65
_symmetry_cell_setting 'orthorhombic'
loop_
_space_group_symop_operation_xyz
x,y,z
-x,-y,z
x,-y,-z
-x,y,-z
-x,-y,-z
x,y,-z
-x,y,z
x,-y,z
1/2+x,1/2+y,z
1/2-x,1/2-y,z
1/2+x,1/2-y,-z
1/2-x,1/2+y,-z
1/2-x,1/2-y,-z
1/2+x,1/2+y,-z
1/2-x,1/2+y,z
1/2+x,1/2-y,z
loop_
_atom_site_type_symbol
_atom_site_label
_atom_site_fract_x
_atom_site_fract_y
_atom_site_fract_z
Si Si1 0.400737 0.837966 0.868163
Si Si2 0.500000 0.330993 0.550457
Si Si3 0.831689 0.665271 0.225649
Si Si4 0.595544 0.162469 0.319120
Si Si5 0.599964 0.339407 0.950767
Si Si6 0.832896 0.829342 0.397039
O O1 0.500000 0.823917 0.867636
O O2 0.367789 0.773267 0.821194
O O3 0.361024 0.754141 0.910520
O O4 0.371794 0.000000 0.873721
O O5 0.500000 0.500000 0.549978
O O6 0.500000 0.268750 0.500000
O O7 0.585545 0.279160 0.574594
O O8 0.809471 0.500000 0.219924
O O9 0.750000 0.750000 0.239858
O O10 0.897839 0.689262 0.265742
O O11 0.500000 0.189380 0.333378
O O12 0.653674 0.273359 0.346189
O O13 0.623284 0.000000 0.330723
O O14 0.500000 0.334661 0.948360
O O15 0.632385 0.500000 0.944205
O O16 0.628884 0.281647 0.000000
O O17 0.750000 0.750000 0.416872
O O18 0.820383 0.000000 0.397539
#
# Coordination Sequence:
#
# PCOD8272282 Si02
#       6
#    16   8  16  16  16  16
#     4   9  17  30  48  69  94 124 162 206 253 306
#     4   9  20  40  63  87 121 163 203 247 300 351
#     4  10  21  35  50  72 102 138 175 215 263 319
#     4  10  20  36  59  84 113 148 187 232 284 340
#     4   8  14  25  42  66  95 123 153 195 250 309
#     4  11  22  38  61  90 122 158 200 246 295 349
#
# _framework density 19.82469
#
# number of rings (size 3 to 8) (size 9 to 14) (size 15 to 20)
#    0.000    2.455    0.909    2.182    0.000    5.818 
#    0.000    1.818    0.000    7.636    0.000    0.000 
#    0.000    0.000    0.000    0.000    0.000    0.000 
#
# Total GULP energy -545437.816060 kJ/mol
# GULP energy per Si atom -12396.314001 kJ/mol
# Density = 1.977957 g / cm^3
# Si number density = 19.824690 Si / 1000 Ang^3
#
#
#
# Elastic Constant Matrix: (Units=GPa)
#
#
# Indices 1 2 3 4 5 6 
#
# 1 81.9227 39.2219 44.2803 0.0000 0.0000 0.0000
# 2 39.2219 69.1517 47.8431 0.0000 0.0000 0.0000
# 3 44.2803 47.8431 136.0102 0.0000 0.0000 0.0000
# 4 0.0000 0.0000 0.0000 25.8968 0.0000 0.0000
# 5 0.0000 0.0000 0.0000 0.0000 16.8813 0.0000
# 6 0.0000 0.0000 0.0000 0.0000 0.0000 26.6496
#
#
#
# Elastic Compliance Matrix: (Units=1/GPa)
#
#
# Indices 1 2 3 4 5 6 
#
# 1 0.017599 -0.007954 -0.002932 0.000000 0.000000 0.000000
# 2 -0.007954 0.022707 -0.005398 0.000000 0.000000 0.000000
# 3 -0.002932 -0.005398 0.010206 0.000000 0.000000 0.000000
# 4 0.000000 0.000000 0.000000 0.038615 0.000000 0.000000
# 5 0.000000 0.000000 0.000000 0.000000 0.059237 0.000000
# 6 0.000000 0.000000 0.000000 0.000000 0.000000 0.037524
#
#
# Mechanical properties :
#
#
# Convention : Reuss Voigt Hill
#
# Bulk Modulus (GPa) = 55.72650 61.08613 58.40631
# Shear Modulus (GPa) = 22.27805 24.26816 23.27310
#
# Velocity S-wave (km/s) = 3.35588 3.50256 3.43001
# Velocity P-wave (km/s) = 6.57165 6.87294 6.72398
#
# Compressibility (1/GPa) = 0.01794479
#
# Stress axis : x y z
#
# Youngs Moduli (GPa) = 56.82038 44.03989 97.98424
#
# Poissons Ratio (x) = 0.35027 0.28729
# Poissons Ratio (y) = 0.45193 0.52891
# Poissons Ratio (z) = 0.16660 0.23772
#
# Static dielectric constant tensor:
#      x y z
#    x 3.441020 0.000000 0.000000 
#    y 0.000000 3.516470 0.000000 
#    z 0.000000 0.000000 3.847330 
# 
# 
# High freq. dielectric constant tensor:
#      x y z
#    x 1.757650 0.000000 0.000000 
#    y 0.000000 1.754850 0.000000 
#    z 0.000000 0.000000 1.781320 
# 
# From -- ./inp_files/77804.got.cif
#   From: 2010.03.12/outbox.cif.g09.slc.cpg/sg65_39_cif.got.tgz:77804.got - 2010.04.10 20:52:16.
