data_PCOD8272052
_publ_section_title
;
Structure prediction by ZEFSAII (Michael W. Deem and Ramdas Pophale) SiO2 
 PCOD8272052
Probable space group: C M M M
;
_chemical_formula_sum "Si O2"
_cell_formula_units_Z 84
_cell_length_a 24.652045
_cell_length_b 16.186929
_cell_length_c 10.889415
_cell_angle_alpha 90.000000
_cell_angle_beta 90.000000
_cell_angle_gamma 90.000000
_cell_volume 4345.321985
_symmetry_space_group_name_H-M "C M M M"
_symmetry_group_IT_number 65
_symmetry_cell_setting 'orthorhombic'
loop_
_space_group_symop_operation_xyz
x,y,z
-x,-y,z
x,-y,-z
-x,y,-z
-x,-y,-z
x,y,-z
-x,y,z
x,-y,z
1/2+x,1/2+y,z
1/2-x,1/2-y,z
1/2+x,1/2-y,-z
1/2-x,1/2+y,-z
1/2-x,1/2-y,-z
1/2+x,1/2+y,-z
1/2-x,1/2+y,z
1/2+x,1/2-y,z
loop_
_atom_site_type_symbol
_atom_site_label
_atom_site_fract_x
_atom_site_fract_y
_atom_site_fract_z
Si Si1 0.093767 0.000000 0.140407
Si Si2 0.150596 0.000000 0.500000
Si Si3 0.791899 0.000000 0.240538
Si Si4 0.059895 0.826790 0.766363
Si Si5 0.060433 0.137002 0.500000
Si Si6 0.891436 0.674778 0.859296
Si Si7 0.271039 0.158173 0.146316
Si Si8 0.500000 0.905530 0.854311
O O1 0.069847 0.922852 0.212653
O O2 0.158422 0.000000 0.145904
O O3 0.074215 0.000000 0.000000
O O4 0.188921 0.000000 0.618846
O O5 0.111303 0.922683 0.500000
O O6 0.759547 0.915322 0.216070
O O7 0.065347 0.806764 0.621571
O O8 0.103343 0.773653 0.842346
O O9 0.000000 0.803173 0.814572
O O10 0.000000 0.094212 0.500000
O O11 0.833235 0.648061 0.806278
O O12 0.944514 0.632896 0.796173
O O13 0.891136 0.649663 0.000000
O O14 0.250000 0.250000 0.183298
O O15 0.265733 0.146383 0.000000
O O16 0.500000 0.000000 0.817004
O O17 0.500000 0.891016 0.000000
#
# Coordination Sequence:
#
# PCOD8272052 Si02
#       8
#     8   4   8  16   8  16  16   8
#     4  12  23  33  54  83 119 157 189 232 294 361
#     4  12  23  42  64  84 116 161 214 262 294 340
#     4  12  24  42  62  86 118 159 210 253 304 353
#     4  11  21  36  56  86 122 159 196 239 290 350
#     4  10  21  38  61  85 116 165 211 243 284 354
#     4  10  20  35  58  87 123 156 192 247 304 360
#     4  10  22  39  60  88 122 160 201 247 307 374
#     4   9  18  32  54  86 116 151 194 238 300 364
#
# _framework density 19.331135
#
# number of rings (size 3 to 8) (size 9 to 14) (size 15 to 20)
#    0.000    1.429    2.857    3.000    1.333    4.571 
#    0.000    1.429    0.000    0.000    0.000    0.667 
#    0.000    0.000    0.000    0.000    0.000    0.000 
#
# Total GULP energy -520554.372733 kJ/mol
# GULP energy per Si atom -12394.151732 kJ/mol
# Density = 1.928714 g / cm^3
# Si number density = 19.331135 Si / 1000 Ang^3
#
#
#
# Elastic Constant Matrix: (Units=GPa)
#
#
# Indices 1 2 3 4 5 6 
#
# 1 153.4465 50.6158 34.4868 0.0000 0.0000 0.0000
# 2 50.6158 98.7702 18.9312 0.0000 0.0000 0.0000
# 3 34.4868 18.9312 56.2077 0.0000 0.0000 0.0000
# 4 0.0000 0.0000 0.0000 9.0883 0.0000 0.0000
# 5 0.0000 0.0000 0.0000 0.0000 23.9291 0.0000
# 6 0.0000 0.0000 0.0000 0.0000 0.0000 33.3451
#
#
#
# Elastic Compliance Matrix: (Units=1/GPa)
#
#
# Indices 1 2 3 4 5 6 
#
# 1 0.008634 -0.003644 -0.004070 0.000000 0.000000 0.000000
# 2 -0.003644 0.012362 -0.001927 0.000000 0.000000 0.000000
# 3 -0.004070 -0.001927 0.020937 0.000000 0.000000 0.000000
# 4 0.000000 0.000000 0.000000 0.110031 0.000000 0.000000
# 5 0.000000 0.000000 0.000000 0.000000 0.041790 0.000000
# 6 0.000000 0.000000 0.000000 0.000000 0.000000 0.029989
#
#
# Mechanical properties :
#
#
# Convention : Reuss Voigt Hill
#
# Bulk Modulus (GPa) = 44.15130 57.38799 50.76965
# Shear Modulus (GPa) = 19.95397 26.89855 23.42626
#
# Velocity S-wave (km/s) = 3.21630 3.73428 3.48493
# Velocity P-wave (km/s) = 6.05656 6.95301 6.52021
#
# Compressibility (1/GPa) = 0.02264939
#
# Stress axis : x y z
#
# Youngs Moduli (GPa) = 115.82436 80.89605 47.76139
#
# Poissons Ratio (x) = 0.29482 0.19438
# Poissons Ratio (y) = 0.42211 0.09206
# Poissons Ratio (z) = 0.47139 0.15592
#
# Static dielectric constant tensor:
#      x y z
#    x 3.929530 0.000000 0.000000 
#    y 0.000000 3.437280 0.000000 
#    z 0.000000 0.000000 3.333480 
# 
# 
# High freq. dielectric constant tensor:
#      x y z
#    x 1.772900 0.000000 0.000000 
#    y 0.000000 1.744580 0.000000 
#    z 0.000000 0.000000 1.716880 
# 
# From -- ./inp_files/30629.got.cif
#   From: 2010.03.12/outbox.cif.g09.slc.cpg/sg65_16_cif.got.tgz:30629.got - 2010.04.10 20:52:16.
