data_PCOD8272239
_publ_section_title
;
Structure prediction by ZEFSAII (Michael W. Deem and Ramdas Pophale) SiO2 
 PCOD8272239
Probable space group: C M M M
;
_chemical_formula_sum "Si O2"
_cell_formula_units_Z 68
_cell_length_a 9.334742
_cell_length_b 23.704014
_cell_length_c 16.842323
_cell_angle_alpha 90.000000
_cell_angle_beta 90.000000
_cell_angle_gamma 90.000000
_cell_volume 3726.715211
_symmetry_space_group_name_H-M "C M M M"
_symmetry_group_IT_number 65
_symmetry_cell_setting 'orthorhombic'
loop_
_space_group_symop_operation_xyz
x,y,z
-x,-y,z
x,-y,-z
-x,y,-z
-x,-y,-z
x,y,-z
-x,y,z
x,-y,z
1/2+x,1/2+y,z
1/2-x,1/2-y,z
1/2+x,1/2-y,-z
1/2-x,1/2+y,-z
1/2-x,1/2-y,-z
1/2+x,1/2+y,-z
1/2-x,1/2+y,z
1/2+x,1/2-y,z
loop_
_atom_site_type_symbol
_atom_site_label
_atom_site_fract_x
_atom_site_fract_y
_atom_site_fract_z
Si Si1 0.268332 0.500000 0.000000
Si Si2 0.839520 0.000000 0.823287
Si Si3 0.664732 0.875560 0.000000
Si Si4 0.335985 0.192995 0.148030
Si Si5 0.334974 0.904492 0.736837
Si Si6 0.162805 0.066070 0.409950
O O1 0.359064 0.500000 0.081175
O O2 0.175775 0.443053 0.000000
O O3 0.754474 0.945400 0.793974
O O4 0.000000 0.000000 0.786685
O O5 0.731771 0.845945 0.077971
O O6 0.500000 0.861019 0.000000
O O7 0.500000 0.208622 0.129923
O O8 0.250000 0.250000 0.156960
O O9 0.323494 0.158573 0.229755
O O10 0.500000 0.925053 0.734504
O O11 0.270407 0.901894 0.648492
O O12 0.209753 0.079325 0.500000
O O13 0.000000 0.086414 0.395758
O O14 0.174891 0.000000 0.391843
#
# Coordination Sequence:
#
# PCOD8272239 Si02
#       6
#     4   8   8  16  16  16
#     4  12  22  38  56  82 117 150 189 224 279 336
#     4  12  24  37  53  80 116 150 189 230 279 333
#     4  10  20  36  58  82 112 147 184 230 281 332
#     4  10  22  39  57  80 107 146 193 237 280 325
#     4  11  22  36  57  84 113 146 188 232 278 333
#     4   9  18  33  54  83 119 152 180 217 273 336
#
# _framework density 18.246632000000002
#
# number of rings (size 3 to 8) (size 9 to 14) (size 15 to 20)
#    0.000    1.647    3.529    2.471    0.000    3.294 
#    0.000    1.176    0.000    0.706    0.000    0.000 
#    0.000    0.000    0.000    0.000    0.000    0.000 
#
# Total GULP energy -421516.775709 kJ/mol
# GULP energy per Si atom -12397.552227 kJ/mol
# Density = 1.820510 g / cm^3
# Si number density = 18.246632 Si / 1000 Ang^3
#
#
#
# Elastic Constant Matrix: (Units=GPa)
#
#
# Indices 1 2 3 4 5 6 
#
# 1 111.1469 55.2695 59.6358 0.0000 0.0000 0.0000
# 2 55.2695 111.5735 46.3325 0.0000 0.0000 0.0000
# 3 59.6358 46.3325 129.6684 0.0000 0.0000 0.0000
# 4 0.0000 0.0000 0.0000 15.9972 0.0000 0.0000
# 5 0.0000 0.0000 0.0000 0.0000 28.2441 0.0000
# 6 0.0000 0.0000 0.0000 0.0000 0.0000 23.5196
#
#
#
# Elastic Compliance Matrix: (Units=1/GPa)
#
#
# Indices 1 2 3 4 5 6 
#
# 1 0.013970 -0.004993 -0.004641 0.000000 0.000000 0.000000
# 2 -0.004993 0.012309 -0.002102 0.000000 0.000000 0.000000
# 3 -0.004641 -0.002102 0.010597 0.000000 0.000000 0.000000
# 4 0.000000 0.000000 0.000000 0.062511 0.000000 0.000000
# 5 0.000000 0.000000 0.000000 0.000000 0.035406 0.000000
# 6 0.000000 0.000000 0.000000 0.000000 0.000000 0.042518
#
#
# Mechanical properties :
#
#
# Convention : Reuss Voigt Hill
#
# Bulk Modulus (GPa) = 74.59990 74.98492 74.79241
# Shear Modulus (GPa) = 24.36050 26.29559 25.32804
#
# Velocity S-wave (km/s) = 3.65782 3.80033 3.72976
# Velocity P-wave (km/s) = 7.66893 7.77439 7.72184
#
# Compressibility (1/GPa) = 0.01340484
#
# Stress axis : x y z
#
# Youngs Moduli (GPa) = 71.58187 81.24218 94.36320
#
# Poissons Ratio (x) = 0.40565 0.43793
# Poissons Ratio (y) = 0.35741 0.19833
# Poissons Ratio (z) = 0.33220 0.17075
#
# Static dielectric constant tensor:
#      x y z
#    x 3.273460 0.000000 0.000000 
#    y 0.000000 3.064140 0.000000 
#    z 0.000000 0.000000 3.616810 
# 
# 
# High freq. dielectric constant tensor:
#      x y z
#    x 1.701150 0.000000 0.000000 
#    y 0.000000 1.682050 0.000000 
#    z 0.000000 0.000000 1.717590 
# 
# From -- ./inp_files/49269.got.cif
#   From: 2010.03.12/outbox.cif.g09.slc.cpg/sg65_25_cif.got.tgz:49269.got - 2010.04.10 20:52:16.
