data_PCOD8272014
_publ_section_title
;
Structure prediction by ZEFSAII (Michael W. Deem and Ramdas Pophale) SiO2 
 PCOD8272014
Probable space group: C M M M
;
_chemical_formula_sum "Si O2"
_cell_formula_units_Z 72
_cell_length_a 26.558757
_cell_length_b 9.343363
_cell_length_c 13.745661
_cell_angle_alpha 90.000000
_cell_angle_beta 90.000000
_cell_angle_gamma 90.000000
_cell_volume 3410.959763
_symmetry_space_group_name_H-M "C M M M"
_symmetry_group_IT_number 65
_symmetry_cell_setting 'orthorhombic'
loop_
_space_group_symop_operation_xyz
x,y,z
-x,-y,z
x,-y,-z
-x,y,-z
-x,-y,-z
x,y,-z
-x,y,z
x,-y,z
1/2+x,1/2+y,z
1/2-x,1/2-y,z
1/2+x,1/2-y,-z
1/2-x,1/2+y,-z
1/2-x,1/2-y,-z
1/2+x,1/2+y,-z
1/2-x,1/2+y,z
1/2+x,1/2-y,z
loop_
_atom_site_type_symbol
_atom_site_label
_atom_site_fract_x
_atom_site_fract_y
_atom_site_fract_z
Si Si1 0.441587 0.000000 0.607307
Si Si2 0.057680 0.789620 0.294296
Si Si3 0.385652 0.663908 0.110203
Si Si4 0.301254 0.172159 0.218104
Si Si5 0.844900 0.155524 0.390078
O O1 0.426160 0.131171 0.674234
O O2 0.500000 0.000000 0.586848
O O3 0.415031 0.000000 0.500000
O O4 0.065633 0.810489 0.178759
O O5 0.098059 0.881161 0.354328
O O6 0.000000 0.829757 0.321024
O O7 0.366423 0.500000 0.121882
O O8 0.342066 0.774162 0.140062
O O9 0.402370 0.695682 0.000000
O O10 0.250000 0.250000 0.187233
O O11 0.316785 0.226282 0.325519
O O12 0.296391 0.000000 0.216213
O O13 0.845277 0.213566 0.500000
O O14 0.817195 0.000000 0.383659
#
# Coordination Sequence:
#
# PCOD8272014 Si02
#       5
#     8  16  16  16  16
#     4   9  18  32  51  79 117 159 200 244 295 351
#     4  10  20  35  57  87 121 163 209 253 300 353
#     4  10  23  42  62  88 123 160 202 254 311 369
#     4  11  23  41  66  92 119 154 197 248 306 369
#     4  10  22  38  57  87 126 164 204 251 303 360
#
# _framework density 21.108429000000001
#
# number of rings (size 3 to 8) (size 9 to 14) (size 15 to 20)
#    0.000    1.889    0.000    4.667    6.222    5.333 
#    0.000    2.222    0.000    2.000    0.000    0.000 
#    0.000    0.000    0.000    0.000    0.000    0.000 
#
# Total GULP energy -446055.705800 kJ/mol
# GULP energy per Si atom -12390.436272 kJ/mol
# Density = 2.106039 g / cm^3
# Si number density = 21.108429 Si / 1000 Ang^3
#
#
#
# Elastic Constant Matrix: (Units=GPa)
#
#
# Indices 1 2 3 4 5 6 
#
# 1 53.6787 20.4116 -8.7863 0.0000 0.0000 0.0000
# 2 20.4116 159.4712 46.3212 0.0000 0.0000 0.0000
# 3 -8.7863 46.3212 141.8563 0.0000 0.0000 0.0000
# 4 0.0000 0.0000 0.0000 35.6293 0.0000 0.0000
# 5 0.0000 0.0000 0.0000 0.0000 11.4670 0.0000
# 6 0.0000 0.0000 0.0000 0.0000 0.0000 25.3062
#
#
#
# Elastic Compliance Matrix: (Units=1/GPa)
#
#
# Indices 1 2 3 4 5 6 
#
# 1 0.020251 -0.003266 0.002321 0.000000 0.000000 0.000000
# 2 -0.003266 0.007455 -0.002636 0.000000 0.000000 0.000000
# 3 0.002321 -0.002636 0.008054 0.000000 0.000000 0.000000
# 4 0.000000 0.000000 0.000000 0.028067 0.000000 0.000000
# 5 0.000000 0.000000 0.000000 0.000000 0.087207 0.000000
# 6 0.000000 0.000000 0.000000 0.000000 0.000000 0.039516
#
#
# Mechanical properties :
#
#
# Convention : Reuss Voigt Hill
#
# Bulk Modulus (GPa) = 34.96967 52.32212 43.64589
# Shear Modulus (GPa) = 24.12602 34.28450 29.20526
#
# Velocity S-wave (km/s) = 3.38443 4.03452 3.72369
# Velocity P-wave (km/s) = 5.64581 6.82233 6.26177
#
# Compressibility (1/GPa) = 0.02859621
#
# Stress axis : x y z
#
# Youngs Moduli (GPa) = 49.37969 134.14537 124.16113
#
# Poissons Ratio (x) = 0.43815 -0.28816
# Poissons Ratio (y) = 0.16128 0.32735
# Poissons Ratio (z) = -0.11460 0.35367
#
# Static dielectric constant tensor:
#      x y z
#    x 3.703040 0.000000 0.000000 
#    y 0.000000 0.512720 0.000000 
#    z 0.000000 0.000000 3.813150 
# 
# 
# High freq. dielectric constant tensor:
#      x y z
#    x 1.809090 0.000000 0.000000 
#    y 0.000000 1.841690 0.000000 
#    z 0.000000 0.000000 1.824420 
# 
# From -- ./inp_files/46493.got.cif
#   From: 2010.03.12/outbox.cif.g09.slc.cpg/sg65_24_cif.got.tgz:46493.got - 2010.04.10 20:52:16.
