data_PCOD8272755
_publ_section_title
;
Structure prediction by ZEFSAII (Michael W. Deem and Ramdas Pophale) SiO2 
 PCOD8272755
Probable space group: C M M M
;
_chemical_formula_sum "Si O2"
_cell_formula_units_Z 80
_cell_length_a 9.140697
_cell_length_b 19.449491
_cell_length_c 24.927979
_cell_angle_alpha 90.000000
_cell_angle_beta 90.000000
_cell_angle_gamma 90.000000
_cell_volume 4431.743570
_symmetry_space_group_name_H-M "C M M M"
_symmetry_group_IT_number 65
_symmetry_cell_setting 'orthorhombic'
loop_
_space_group_symop_operation_xyz
x,y,z
-x,-y,z
x,-y,-z
-x,y,-z
-x,-y,-z
x,y,-z
-x,y,z
x,-y,z
1/2+x,1/2+y,z
1/2-x,1/2-y,z
1/2+x,1/2-y,-z
1/2-x,1/2+y,-z
1/2-x,1/2-y,-z
1/2+x,1/2+y,-z
1/2-x,1/2+y,z
1/2+x,1/2-y,z
loop_
_atom_site_type_symbol
_atom_site_label
_atom_site_fract_x
_atom_site_fract_y
_atom_site_fract_z
Si Si1 0.326345 0.576423 0.059154
Si Si2 0.671411 0.420538 0.361709
Si Si3 0.830006 0.819214 0.731648
Si Si4 0.327400 0.680389 0.852923
Si Si5 0.169246 0.680947 0.563019
O O1 0.500000 0.574330 0.063018
O O2 0.263028 0.500000 0.067768
O O3 0.263074 0.623657 0.106483
O O4 0.279409 0.603866 0.000000
O O5 0.500000 0.413536 0.374312
O O6 0.718292 0.500000 0.356758
O O7 0.713440 0.382769 0.306235
O O8 0.760481 0.385884 0.409847
O O9 0.750000 0.750000 0.712484
O O10 0.784945 0.840267 0.792097
O O11 0.000000 0.802423 0.728007
O O12 0.500000 0.689718 0.859326
O O13 0.250000 0.750000 0.869949
O O14 0.190480 0.671072 0.500000
O O15 0.250000 0.750000 0.583176
O O16 0.000000 0.687285 0.579137
#
# Coordination Sequence:
#
# PCOD8272755 Si02
#       5
#    16  16  16  16  16
#     4   8  14  25  42  65  91 119 154 194 233 276
#     4  10  21  35  51  74 103 132 163 201 244 289
#     4   9  18  32  49  69  94 125 160 197 238 285
#     4   9  17  29  46  68  93 121 154 195 240 282
#     4  10  21  37  57  79 102 130 165 202 240 286
#
# _framework density 18.051586
#
# number of rings (size 3 to 8) (size 9 to 14) (size 15 to 20)
#    0.000    2.800    0.000    1.800    0.000    5.600 
#    0.000    6.000    0.000    0.600    0.000    7.000 
#    0.000    0.000    0.000    0.000    0.000    0.000 
#
# Total GULP energy -495953.719457 kJ/mol
# GULP energy per Si atom -12398.842986 kJ/mol
# Density = 1.801050 g / cm^3
# Si number density = 18.051586 Si / 1000 Ang^3
#
#
#
# Elastic Constant Matrix: (Units=GPa)
#
#
# Indices 1 2 3 4 5 6 
#
# 1 46.5546 50.8080 41.0053 0.0000 0.0000 0.0000
# 2 50.8080 155.3318 83.9851 0.0000 0.0000 0.0000
# 3 41.0053 83.9851 100.7960 0.0000 0.0000 0.0000
# 4 0.0000 0.0000 0.0000 35.5375 0.0000 0.0000
# 5 0.0000 0.0000 0.0000 0.0000 14.8989 0.0000
# 6 0.0000 0.0000 0.0000 0.0000 0.0000 28.2085
#
#
#
# Elastic Compliance Matrix: (Units=1/GPa)
#
#
# Indices 1 2 3 4 5 6 
#
# 1 0.037554 -0.007322 -0.009177 0.000000 0.000000 0.000000
# 2 -0.007322 0.013144 -0.007973 0.000000 0.000000 0.000000
# 3 -0.009177 -0.007973 0.020297 0.000000 0.000000 0.000000
# 4 0.000000 0.000000 0.000000 0.028139 0.000000 0.000000
# 5 0.000000 0.000000 0.000000 0.000000 0.067119 0.000000
# 6 0.000000 0.000000 0.000000 0.000000 0.000000 0.035450
#
#
# Mechanical properties :
#
#
# Convention : Reuss Voigt Hill
#
# Bulk Modulus (GPa) = 45.34750 72.69769 59.02260
# Shear Modulus (GPa) = 19.38010 24.18792 21.78401
#
# Velocity S-wave (km/s) = 3.28013 3.66448 3.47762
# Velocity P-wave (km/s) = 6.28660 7.63310 6.99233
#
# Compressibility (1/GPa) = 0.02205193
#
# Stress axis : x y z
#
# Youngs Moduli (GPa) = 26.62840 76.08307 49.26770
#
# Poissons Ratio (x) = 0.55708 0.45211
# Poissons Ratio (y) = 0.19497 0.39280
# Poissons Ratio (z) = 0.24436 0.60659
#
# Static dielectric constant tensor:
#      x y z
#    x 3.109220 0.000000 0.000000 
#    y 0.000000 3.460020 0.000000 
#    z 0.000000 0.000000 3.571200 
# 
# 
# High freq. dielectric constant tensor:
#      x y z
#    x 1.673520 0.000000 0.000000 
#    y 0.000000 1.695410 0.000000 
#    z 0.000000 0.000000 1.710680 
# 
# From -- ./inp_files/72727.got.cif
#   From: 2010.03.12/outbox.cif.g09.slc.cpg/sg65_37_cif.got.tgz:72727.got - 2010.04.10 20:52:16.
