data_PCOD8272154
_publ_section_title
;
Structure prediction by ZEFSAII (Michael W. Deem and Ramdas Pophale) SiO2 
 PCOD8272154
Probable space group: C M M M
;
_chemical_formula_sum "Si O2"
_cell_formula_units_Z 88
_cell_length_a 22.488951
_cell_length_b 22.671456
_cell_length_c 9.165952
_cell_angle_alpha 90.000000
_cell_angle_beta 90.000000
_cell_angle_gamma 90.000000
_cell_volume 4673.327200
_symmetry_space_group_name_H-M "C M M M"
_symmetry_group_IT_number 65
_symmetry_cell_setting 'orthorhombic'
loop_
_space_group_symop_operation_xyz
x,y,z
-x,-y,z
x,-y,-z
-x,y,-z
-x,-y,-z
x,y,-z
-x,y,z
x,-y,z
1/2+x,1/2+y,z
1/2-x,1/2-y,z
1/2+x,1/2-y,-z
1/2-x,1/2+y,-z
1/2-x,1/2-y,-z
1/2+x,1/2+y,-z
1/2-x,1/2+y,z
1/2+x,1/2-y,z
loop_
_atom_site_type_symbol
_atom_site_label
_atom_site_fract_x
_atom_site_fract_y
_atom_site_fract_z
Si Si1 0.434423 0.715999 0.670456
Si Si2 0.709274 0.000000 0.840450
Si Si3 0.500000 0.930056 0.173694
Si Si4 0.846187 0.882225 0.672989
Si Si5 0.350057 0.500000 0.163634
Si Si6 0.787425 0.610165 0.335671
Si Si7 0.411508 0.845035 0.331440
O O1 0.421370 0.721872 0.500000
O O2 0.500000 0.689978 0.702043
O O3 0.385677 0.671393 0.736900
O O4 0.431092 0.782070 0.735742
O O5 0.779749 0.000000 0.845995
O O6 0.686560 0.942814 0.758695
O O7 0.680296 0.000000 0.000000
O O8 0.441538 0.897982 0.240185
O O9 0.500000 0.000000 0.214802
O O10 0.500000 0.922156 0.000000
O O11 0.854478 0.889866 0.500000
O O12 0.870039 0.941766 0.748976
O O13 0.777544 0.867323 0.716270
O O14 0.377507 0.500000 0.000000
O O15 0.780080 0.586929 0.500000
O O16 0.839350 0.658239 0.321289
O O17 0.431505 0.852744 0.500000
#
# Coordination Sequence:
#
# PCOD8272154 Si02
#       7
#    16   8   8  16   8  16  16
#     4   9  17  32  55  79 103 136 176 215 259 313
#     4   9  17  29  47  69 101 141 172 205 255 310
#     4  11  25  41  55  77 109 142 181 222 257 299
#     4   9  17  31  53  79 108 137 170 215 261 310
#     4   9  17  31  50  74 104 137 172 209 256 310
#     4   9  18  30  48  78 106 133 170 214 262 310
#     4  10  20  36  57  78 105 139 176 217 262 312
#
# _framework density 18.830268
#
# number of rings (size 3 to 8) (size 9 to 14) (size 15 to 20)
#    0.000    2.636    0.909    0.818    1.273    4.364 
#    0.000    5.000    0.000    2.727    0.000    6.364 
#    0.000    0.000    0.000    0.000    0.000    0.000 
#
# Total GULP energy -545256.369918 kJ/mol
# GULP energy per Si atom -12392.190225 kJ/mol
# Density = 1.878741 g / cm^3
# Si number density = 18.830268 Si / 1000 Ang^3
#
#
#
# Elastic Constant Matrix: (Units=GPa)
#
#
# Indices 1 2 3 4 5 6 
#
# 1 111.5249 66.1313 25.8792 0.0000 0.0000 0.0000
# 2 66.1313 130.2201 36.7775 0.0000 0.0000 0.0000
# 3 25.8792 36.7775 58.2687 0.0000 0.0000 0.0000
# 4 0.0000 0.0000 0.0000 2.4471 0.0000 0.0000
# 5 0.0000 0.0000 0.0000 0.0000 12.7931 0.0000
# 6 0.0000 0.0000 0.0000 0.0000 0.0000 31.3171
#
#
#
# Elastic Compliance Matrix: (Units=1/GPa)
#
#
# Indices 1 2 3 4 5 6 
#
# 1 0.013011 -0.006055 -0.001957 0.000000 0.000000 0.000000
# 2 -0.006055 0.012163 -0.004988 0.000000 0.000000 0.000000
# 3 -0.001957 -0.004988 0.021179 0.000000 0.000000 0.000000
# 4 0.000000 0.000000 0.000000 0.408642 0.000000 0.000000
# 5 0.000000 0.000000 0.000000 0.000000 0.078167 0.000000
# 6 0.000000 0.000000 0.000000 0.000000 0.000000 0.031931
#
#
# Mechanical properties :
#
#
# Convention : Reuss Voigt Hill
#
# Bulk Modulus (GPa) = 49.13049 61.95440 55.54244
# Shear Modulus (GPa) = 8.36292 20.72651 14.54471
#
# Velocity S-wave (km/s) = 2.10970 3.32128 2.78224
# Velocity P-wave (km/s) = 5.66413 6.90513 6.31519
#
# Compressibility (1/GPa) = 0.02035396
#
# Stress axis : x y z
#
# Youngs Moduli (GPa) = 76.85738 82.21744 47.21631
#
# Poissons Ratio (x) = 0.49782 0.09240
# Poissons Ratio (y) = 0.46536 0.23550
# Poissons Ratio (z) = 0.15041 0.41007
#
# Static dielectric constant tensor:
#      x y z
#    x 3.418330 0.000000 0.000000 
#    y 0.000000 3.523680 0.000000 
#    z 0.000000 0.000000 3.358820 
# 
# 
# High freq. dielectric constant tensor:
#      x y z
#    x 1.729850 0.000000 0.000000 
#    y 0.000000 1.724040 0.000000 
#    z 0.000000 0.000000 1.702150 
# 
# From -- ./inp_files/14072.got.cif
#   From: 2010.03.12/outbox.cif.g09.slc.cpg/sg65_8_cif.got.tgz:14072.got - 2010.04.10 20:52:16.
