data_PCOD8272988
_publ_section_title
;
Structure prediction by ZEFSAII (Michael W. Deem and Ramdas Pophale) SiO2 
 PCOD8272988
Probable space group: C M M M
;
_chemical_formula_sum "Si O2"
_cell_formula_units_Z 88
_cell_length_a 9.082290
_cell_length_b 18.280488
_cell_length_c 28.135632
_cell_angle_alpha 90.000000
_cell_angle_beta 90.000000
_cell_angle_gamma 90.000000
_cell_volume 4671.322218
_symmetry_space_group_name_H-M "C M M M"
_symmetry_group_IT_number 65
_symmetry_cell_setting 'orthorhombic'
loop_
_space_group_symop_operation_xyz
x,y,z
-x,-y,z
x,-y,-z
-x,y,-z
-x,-y,-z
x,y,-z
-x,y,z
x,-y,z
1/2+x,1/2+y,z
1/2-x,1/2-y,z
1/2+x,1/2-y,-z
1/2-x,1/2+y,-z
1/2-x,1/2-y,-z
1/2+x,1/2+y,-z
1/2-x,1/2+y,z
1/2+x,1/2-y,z
loop_
_atom_site_type_symbol
_atom_site_label
_atom_site_fract_x
_atom_site_fract_y
_atom_site_fract_z
Si Si1 0.827845 0.327391 0.397501
Si Si2 0.173780 0.172037 0.776478
Si Si3 0.828414 0.675760 0.054920
Si Si4 0.171784 0.414915 0.693963
Si Si5 0.329577 0.584064 0.870180
Si Si6 0.329447 0.174198 0.500000
O O1 0.750000 0.250000 0.389318
O O2 0.779013 0.384511 0.357390
O O3 0.788289 0.364312 0.449481
O O4 0.000000 0.311339 0.393722
O O5 0.250000 0.250000 0.776171
O O6 0.230542 0.124296 0.733068
O O7 0.217614 0.131117 0.824785
O O8 0.000000 0.182327 0.771548
O O9 0.750000 0.750000 0.071774
O O10 0.766065 0.608181 0.084693
O O11 0.000000 0.685182 0.064925
O O12 0.794758 0.659133 0.000000
O O13 0.209103 0.500000 0.694907
O O14 0.000000 0.399988 0.704100
O O15 0.500000 0.595597 0.882828
O O16 0.294058 0.500000 0.858817
O O17 0.500000 0.191649 0.500000
O O18 0.250000 0.250000 0.500000
#
# Coordination Sequence:
#
# PCOD8272988 Si02
#       6
#    16  16  16  16  16   8
#     4   9  17  30  49  73 100 132 172 216 260 309
#     4  11  23  39  59  82 107 137 177 221 265 316
#     4  10  21  37  58  84 113 146 185 226 266 311
#     4  10  21  36  53  76 107 140 175 217 265 316
#     4  10  22  39  58  82 112 144 178 218 265 317
#     4   8  14  26  45  69  97 129 167 212 259 304
#
# _framework density 18.838349000000001
#
# number of rings (size 3 to 8) (size 9 to 14) (size 15 to 20)
#    0.000    2.182    0.000    2.727    0.000    8.000 
#    0.000    2.273    0.000    2.727    0.000    0.000 
#    0.000    8.727    0.000    0.000    0.000    0.000 
#
# Total GULP energy -545509.262397 kJ/mol
# GULP energy per Si atom -12397.937782 kJ/mol
# Density = 1.879547 g / cm^3
# Si number density = 18.838349 Si / 1000 Ang^3
#
#
#
# Elastic Constant Matrix: (Units=GPa)
#
#
# Indices 1 2 3 4 5 6 
#
# 1 64.0100 48.3734 59.0154 0.0000 0.0000 0.0000
# 2 48.3734 122.0823 72.9312 0.0000 0.0000 0.0000
# 3 59.0154 72.9312 142.6201 0.0000 0.0000 0.0000
# 4 0.0000 0.0000 0.0000 9.6661 0.0000 0.0000
# 5 0.0000 0.0000 0.0000 0.0000 34.1826 0.0000
# 6 0.0000 0.0000 0.0000 0.0000 0.0000 25.2763
#
#
#
# Elastic Compliance Matrix: (Units=1/GPa)
#
#
# Indices 1 2 3 4 5 6 
#
# 1 0.028023 -0.006014 -0.008521 0.000000 0.000000 0.000000
# 2 -0.006014 0.013085 -0.004203 0.000000 0.000000 0.000000
# 3 -0.008521 -0.004203 0.012687 0.000000 0.000000 0.000000
# 4 0.000000 0.000000 0.000000 0.103454 0.000000 0.000000
# 5 0.000000 0.000000 0.000000 0.000000 0.029255 0.000000
# 6 0.000000 0.000000 0.000000 0.000000 0.000000 0.039563
#
#
# Mechanical properties :
#
#
# Convention : Reuss Voigt Hill
#
# Bulk Modulus (GPa) = 61.27301 76.59472 68.93386
# Shear Modulus (GPa) = 18.58881 23.71782 21.15331
#
# Velocity S-wave (km/s) = 3.14467 3.55211 3.35458
# Velocity P-wave (km/s) = 6.76621 7.58753 7.18861
#
# Compressibility (1/GPa) = 0.01632040
#
# Stress axis : x y z
#
# Youngs Moduli (GPa) = 35.68526 76.42553 78.82391
#
# Poissons Ratio (x) = 0.45959 0.67162
# Poissons Ratio (y) = 0.21459 0.33127
# Poissons Ratio (z) = 0.30406 0.32119
#
# Static dielectric constant tensor:
#      x y z
#    x 3.439000 0.000000 0.000000 
#    y 0.000000 3.341180 0.000000 
#    z 0.000000 0.000000 3.926730 
# 
# 
# High freq. dielectric constant tensor:
#      x y z
#    x 1.731810 0.000000 0.000000 
#    y 0.000000 1.719140 0.000000 
#    z 0.000000 0.000000 1.753250 
# 
# From -- ./inp_files/67513.got.cif
#   From: 2010.03.12/outbox.cif.g09.slc.cpg/sg65_34_cif.got.tgz:67513.got - 2010.04.10 20:52:16.
