data_PCOD8272925
_publ_section_title
;
Structure prediction by ZEFSAII (Michael W. Deem and Ramdas Pophale) SiO2 
 PCOD8272925
Probable space group: C M M M
;
_chemical_formula_sum "Si O2"
_cell_formula_units_Z 96
_cell_length_a 9.360113
_cell_length_b 19.697411
_cell_length_c 30.060946
_cell_angle_alpha 90.000000
_cell_angle_beta 90.000000
_cell_angle_gamma 90.000000
_cell_volume 5542.336397
_symmetry_space_group_name_H-M "C M M M"
_symmetry_group_IT_number 65
_symmetry_cell_setting 'orthorhombic'
loop_
_space_group_symop_operation_xyz
x,y,z
-x,-y,z
x,-y,-z
-x,y,-z
-x,-y,-z
x,y,-z
-x,y,z
x,-y,z
1/2+x,1/2+y,z
1/2-x,1/2-y,z
1/2+x,1/2-y,-z
1/2-x,1/2+y,-z
1/2-x,1/2-y,-z
1/2+x,1/2+y,-z
1/2-x,1/2+y,z
1/2+x,1/2-y,z
loop_
_atom_site_type_symbol
_atom_site_label
_atom_site_fract_x
_atom_site_fract_y
_atom_site_fract_z
Si Si1 0.658365 0.419306 0.209102
Si Si2 0.333745 0.683838 0.550540
Si Si3 0.665336 0.183417 0.947785
Si Si4 0.666175 0.577796 0.624345
Si Si5 0.665687 0.420698 0.109336
Si Si6 0.660337 0.919106 0.290551
O O1 0.500000 0.391028 0.219556
O O2 0.654399 0.500000 0.211594
O O3 0.705490 0.397514 0.159548
O O4 0.766953 0.389501 0.245784
O O5 0.291560 0.664918 0.500000
O O6 0.500000 0.700505 0.554710
O O7 0.250000 0.750000 0.567080
O O8 0.289874 0.620434 0.581040
O O9 0.500000 0.191605 0.934465
O O10 0.750000 0.250000 0.931779
O O11 0.731681 0.118238 0.924142
O O12 0.684158 0.171966 0.000000
O O13 0.500000 0.585462 0.636047
O O14 0.705861 0.500000 0.613873
O O15 0.753512 0.606290 0.666383
O O16 0.500000 0.404278 0.099221
O O17 0.695857 0.500000 0.102746
O O18 0.500000 0.890425 0.293072
O O19 0.661608 0.000000 0.289048
#
# Coordination Sequence:
#
# PCOD8272925 Si02
#       6
#    16  16  16  16  16  16
#     4   8  14  26  44  66  94 127 159 189 226 276
#     4   9  18  32  49  68  90 119 154 189 228 276
#     4  10  21  36  53  72  96 129 167 204 243 290
#     4   9  17  29  46  68  93 121 153 190 231 272
#     4   9  18  32  51  76 103 130 161 199 243 288
#     4   9  16  25  40  65  95 124 154 189 229 273
#
# _framework density 17.321214999999999
#
# number of rings (size 3 to 8) (size 9 to 14) (size 15 to 20)
#    0.000    3.000    0.000    2.000    0.000    5.333 
#    0.000    5.000    0.000    1.000    0.000    9.333 
#    0.000    0.000    0.000    0.000    0.000    0.000 
#
# Total GULP energy -595131.378652 kJ/mol
# GULP energy per Si atom -12398.570389 kJ/mol
# Density = 1.728179 g / cm^3
# Si number density = 17.321215 Si / 1000 Ang^3
#
#
#
# Elastic Constant Matrix: (Units=GPa)
#
#
# Indices 1 2 3 4 5 6 
#
# 1 105.6584 48.2075 66.9575 0.0000 0.0000 0.0000
# 2 48.2075 61.8580 50.5250 0.0000 0.0000 0.0000
# 3 66.9575 50.5250 96.4176 0.0000 0.0000 0.0000
# 4 0.0000 0.0000 0.0000 4.0260 0.0000 0.0000
# 5 0.0000 0.0000 0.0000 0.0000 28.1376 0.0000
# 6 0.0000 0.0000 0.0000 0.0000 0.0000 24.6573
#
#
#
# Elastic Compliance Matrix: (Units=1/GPa)
#
#
# Indices 1 2 3 4 5 6 
#
# 1 0.018418 -0.006830 -0.009212 0.000000 0.000000 0.000000
# 2 -0.006830 0.030796 -0.011395 0.000000 0.000000 0.000000
# 3 -0.009212 -0.011395 0.022740 0.000000 0.000000 0.000000
# 4 0.000000 0.000000 0.000000 0.248386 0.000000 0.000000
# 5 0.000000 0.000000 0.000000 0.000000 0.035540 0.000000
# 6 0.000000 0.000000 0.000000 0.000000 0.000000 0.040556
#
#
# Mechanical properties :
#
#
# Convention : Reuss Voigt Hill
#
# Bulk Modulus (GPa) = 58.54321 66.14602 62.34462
# Shear Modulus (GPa) = 10.94090 17.91378 14.42734
#
# Velocity S-wave (km/s) = 2.51599 3.21940 2.88918
# Velocity P-wave (km/s) = 6.50478 7.21735 6.87031
#
# Compressibility (1/GPa) = 0.01708140
#
# Stress axis : x y z
#
# Youngs Moduli (GPa) = 54.29435 32.47197 43.97609
#
# Poissons Ratio (x) = 0.22178 0.40509
# Poissons Ratio (y) = 0.37082 0.50110
# Poissons Ratio (z) = 0.50014 0.37001
#
# Static dielectric constant tensor:
#      x y z
#    x 3.350730 0.000000 0.000000 
#    y 0.000000 2.867780 0.000000 
#    z 0.000000 0.000000 3.364660 
# 
# 
# High freq. dielectric constant tensor:
#      x y z
#    x 1.672210 0.000000 0.000000 
#    y 0.000000 1.627350 0.000000 
#    z 0.000000 0.000000 1.675910 
# 
# From -- ./inp_files/73071.got.cif
#   From: 2010.03.12/outbox.cif.g09.slc.cpg/sg65_37_cif.got.tgz:73071.got - 2010.04.10 20:52:16.
