data_PCOD8272538
_publ_section_title
;
Structure prediction by ZEFSAII (Michael W. Deem and Ramdas Pophale) SiO2 
 PCOD8272538
Probable space group: C M M M
;
_chemical_formula_sum "Si O2"
_cell_formula_units_Z 104
_cell_length_a 18.402695
_cell_length_b 23.486078
_cell_length_c 13.309827
_cell_angle_alpha 90.000000
_cell_angle_beta 90.000000
_cell_angle_gamma 90.000000
_cell_volume 5752.602131
_symmetry_space_group_name_H-M "C M M M"
_symmetry_group_IT_number 65
_symmetry_cell_setting 'orthorhombic'
loop_
_space_group_symop_operation_xyz
x,y,z
-x,-y,z
x,-y,-z
-x,y,-z
-x,-y,-z
x,y,-z
-x,y,z
x,-y,z
1/2+x,1/2+y,z
1/2-x,1/2-y,z
1/2+x,1/2-y,-z
1/2-x,1/2+y,-z
1/2-x,1/2-y,-z
1/2+x,1/2+y,-z
1/2-x,1/2+y,z
1/2+x,1/2-y,z
loop_
_atom_site_type_symbol
_atom_site_label
_atom_site_fract_x
_atom_site_fract_y
_atom_site_fract_z
Si Si1 0.333578 0.735057 0.386369
Si Si2 0.919446 0.567407 0.889403
Si Si3 0.414857 0.434545 0.112905
Si Si4 0.081382 0.932921 0.500000
Si Si5 0.339006 0.386290 0.695418
Si Si6 0.419756 0.157088 0.616185
Si Si7 0.823012 0.432271 0.707362
O O1 0.359564 0.720154 0.500000
O O2 0.250000 0.750000 0.388930
O O3 0.344787 0.681274 0.314886
O O4 0.378017 0.787967 0.338260
O O5 0.920822 0.500000 0.892419
O O6 0.856165 0.587467 0.814551
O O7 0.000000 0.588996 0.855939
O O8 0.900761 0.591633 0.000000
O O9 0.500000 0.427073 0.129902
O O10 0.391941 0.500000 0.125915
O O11 0.373900 0.398921 0.197023
O O12 0.393453 0.414027 0.000000
O O13 0.121206 0.914756 0.398415
O O14 0.000000 0.907054 0.500000
O O15 0.077970 0.000000 0.500000
O O16 0.257544 0.409372 0.695814
O O17 0.427655 0.169270 0.500000
O O18 0.500000 0.151314 0.665322
O O19 0.374442 0.098751 0.626974
O O20 0.825996 0.500000 0.689989
#
# Coordination Sequence:
#
# PCOD8272538 Si02
#       7
#    16  16  16   8  16  16  16
#     4  10  20  39  59  77 109 149 191 244 293 337
#     4   8  15  30  51  74 104 143 185 228 272 322
#     4   9  19  37  59  84 118 157 194 234 286 352
#     4  11  24  38  53  84 125 153 185 240 300 356
#     4  12  22  36  59  86 116 150 196 241 292 351
#     4  10  22  38  56  78 107 148 196 238 278 336
#     4  11  22  33  52  83 117 150 183 227 287 352
#
# _framework density 18.078773999999999
#
# number of rings (size 3 to 8) (size 9 to 14) (size 15 to 20)
#    0.000    1.923    2.308    3.231    1.077    4.308 
#    0.000    2.308    0.000    1.385    0.000    2.154 
#    0.000    0.000    0.000    0.000    0.000    0.000 
#
# Total GULP energy -644537.360512 kJ/mol
# GULP energy per Si atom -12394.949241 kJ/mol
# Density = 1.803763 g / cm^3
# Si number density = 18.078774 Si / 1000 Ang^3
#
#
#
# Elastic Constant Matrix: (Units=GPa)
#
#
# Indices 1 2 3 4 5 6 
#
# 1 126.8404 48.2687 57.6828 0.0000 0.0000 0.0000
# 2 48.2687 105.5242 39.4384 0.0000 0.0000 0.0000
# 3 57.6828 39.4384 96.0874 0.0000 0.0000 0.0000
# 4 0.0000 0.0000 0.0000 18.2836 0.0000 0.0000
# 5 0.0000 0.0000 0.0000 0.0000 34.1176 0.0000
# 6 0.0000 0.0000 0.0000 0.0000 0.0000 19.2982
#
#
#
# Elastic Compliance Matrix: (Units=1/GPa)
#
#
# Indices 1 2 3 4 5 6 
#
# 1 0.011704 -0.003222 -0.005704 0.000000 0.000000 0.000000
# 2 -0.003222 0.012081 -0.003024 0.000000 0.000000 0.000000
# 3 -0.005704 -0.003024 0.015072 0.000000 0.000000 0.000000
# 4 0.000000 0.000000 0.000000 0.054694 0.000000 0.000000
# 5 0.000000 0.000000 0.000000 0.000000 0.029310 0.000000
# 6 0.000000 0.000000 0.000000 0.000000 0.000000 0.051818
#
#
# Mechanical properties :
#
#
# Convention : Reuss Voigt Hill
#
# Bulk Modulus (GPa) = 66.85668 68.80352 67.83010
# Shear Modulus (GPa) = 24.56226 26.54403 25.55314
#
# Velocity S-wave (km/s) = 3.68995 3.83592 3.76364
# Velocity P-wave (km/s) = 7.43070 7.59995 7.51581
#
# Compressibility (1/GPa) = 0.01495737
#
# Stress axis : x y z
#
# Youngs Moduli (GPa) = 85.44231 82.77794 66.34640
#
# Poissons Ratio (x) = 0.26670 0.37841
# Poissons Ratio (y) = 0.27529 0.20065
# Poissons Ratio (z) = 0.48733 0.25034
#
# Static dielectric constant tensor:
#      x y z
#    x 3.565830 0.000000 0.000000 
#    y 0.000000 2.575470 0.000000 
#    z 0.000000 0.000000 3.516840 
# 
# 
# High freq. dielectric constant tensor:
#      x y z
#    x 1.713040 0.000000 0.000000 
#    y 0.000000 1.683670 0.000000 
#    z 0.000000 0.000000 1.691750 
# 
# From -- ./inp_files/42886.got.cif
#   From: 2010.03.12/outbox.cif.g09.slc.cpg/sg65_22_cif.got.tgz:42886.got - 2010.04.10 20:52:16.
