data_PCOD8272078
_publ_section_title
;
Structure prediction by ZEFSAII (Michael W. Deem and Ramdas Pophale) SiO2 
 PCOD8272078
Probable space group: C M M M
;
_chemical_formula_sum "Si O2"
_cell_formula_units_Z 64
_cell_length_a 13.921372
_cell_length_b 17.704745
_cell_length_c 14.071446
_cell_angle_alpha 90.000000
_cell_angle_beta 90.000000
_cell_angle_gamma 90.000000
_cell_volume 3468.250384
_symmetry_space_group_name_H-M "C M M M"
_symmetry_group_IT_number 65
_symmetry_cell_setting 'orthorhombic'
loop_
_space_group_symop_operation_xyz
x,y,z
-x,-y,z
x,-y,-z
-x,y,-z
-x,-y,-z
x,y,-z
-x,y,z
x,-y,z
1/2+x,1/2+y,z
1/2-x,1/2-y,z
1/2+x,1/2-y,-z
1/2-x,1/2+y,-z
1/2-x,1/2-y,-z
1/2+x,1/2+y,-z
1/2-x,1/2+y,z
1/2+x,1/2-y,z
loop_
_atom_site_type_symbol
_atom_site_label
_atom_site_fract_x
_atom_site_fract_y
_atom_site_fract_z
Si Si1 0.891665 0.089503 0.000000
Si Si2 0.388293 0.087842 0.500000
Si Si3 0.806848 0.086406 0.197211
Si Si4 0.000000 0.917339 0.683165
Si Si5 0.000000 0.759025 0.388474
Si Si6 0.684866 0.817309 0.664786
O O1 0.830362 0.115519 0.091349
O O2 0.000000 0.124423 0.000000
O O3 0.902756 0.000000 0.000000
O O4 0.500000 0.113936 0.500000
O O5 0.328834 0.115946 0.590062
O O6 0.381170 0.000000 0.500000
O O7 0.905872 0.090526 0.253565
O O8 0.727374 0.144005 0.240086
O O9 0.767186 0.000000 0.197503
O O10 0.000000 0.850025 0.607035
O O11 0.000000 0.000000 0.632508
O O12 0.084439 0.725323 0.323706
O O13 0.000000 0.732648 0.500000
O O14 0.750000 0.750000 0.623739
#
# Coordination Sequence:
#
# PCOD8272078 Si02
#       6
#     8   8  16   8   8  16
#     4   9  16  32  61  89 121 153 187 235 295 360
#     4  11  23  40  58  81 112 154 206 246 277 341
#     4  10  20  35  59  90 117 151 191 240 293 346
#     4  10  20  36  58  88 119 146 188 242 295 345
#     4  12  24  41  57  79 119 163 199 234 291 352
#     4  12  22  37  59  82 115 153 197 240 294 347
#
# _framework density 18.453109000000001
#
# number of rings (size 3 to 8) (size 9 to 14) (size 15 to 20)
#    0.000    1.250    6.250    1.125    0.000    0.250 
#    0.000    0.625    0.000    0.750    0.000    2.625 
#    0.000    0.000    0.000    0.000    0.000    0.250 
#
# Total GULP energy -396446.932771 kJ/mol
# GULP energy per Si atom -12388.966649 kJ/mol
# Density = 1.841111 g / cm^3
# Si number density = 18.453109 Si / 1000 Ang^3
#
#
#
# Elastic Constant Matrix: (Units=GPa)
#
#
# Indices 1 2 3 4 5 6 
#
# 1 121.3211 53.5428 56.6133 0.0000 0.0000 0.0000
# 2 53.5428 130.4046 56.2713 0.0000 0.0000 0.0000
# 3 56.6133 56.2713 111.4647 0.0000 0.0000 0.0000
# 4 0.0000 0.0000 0.0000 28.6639 0.0000 0.0000
# 5 0.0000 0.0000 0.0000 0.0000 41.1737 0.0000
# 6 0.0000 0.0000 0.0000 0.0000 0.0000 39.2880
#
#
#
# Elastic Compliance Matrix: (Units=1/GPa)
#
#
# Indices 1 2 3 4 5 6 
#
# 1 0.011566 -0.002831 -0.004446 0.000000 0.000000 0.000000
# 2 -0.002831 0.010497 -0.003862 0.000000 0.000000 0.000000
# 3 -0.004446 -0.003862 0.013179 0.000000 0.000000 0.000000
# 4 0.000000 0.000000 0.000000 0.034887 0.000000 0.000000
# 5 0.000000 0.000000 0.000000 0.000000 0.024287 0.000000
# 6 0.000000 0.000000 0.000000 0.000000 0.000000 0.025453
#
#
# Mechanical properties :
#
#
# Convention : Reuss Voigt Hill
#
# Bulk Modulus (GPa) = 77.12140 77.33838 77.22989
# Shear Modulus (GPa) = 34.13731 34.94267 34.53999
#
# Velocity S-wave (km/s) = 4.30577 4.35626 4.33109
# Velocity P-wave (km/s) = 8.16109 8.20393 8.18254
#
# Compressibility (1/GPa) = 0.01296657
#
# Stress axis : x y z
#
# Youngs Moduli (GPa) = 86.45779 95.26526 75.87946
#
# Poissons Ratio (x) = 0.26967 0.33733
# Poissons Ratio (y) = 0.24474 0.29301
# Poissons Ratio (z) = 0.38435 0.36787
#
# Static dielectric constant tensor:
#      x y z
#    x 3.349280 0.000000 0.000000 
#    y 0.000000 3.586140 0.000000 
#    z 0.000000 0.000000 3.340960 
# 
# 
# High freq. dielectric constant tensor:
#      x y z
#    x 1.714800 0.000000 0.000000 
#    y 0.000000 1.726730 0.000000 
#    z 0.000000 0.000000 1.689430 
# 
# From -- ./inp_files/37831.got.cif
#   From: 2010.03.12/outbox.cif.g09.slc.cpg/sg65_19_cif.got.tgz:37831.got - 2010.04.10 20:52:16.
