data_PCOD8273280
_publ_section_title
;
Structure prediction by ZEFSAII (Michael W. Deem and Ramdas Pophale) SiO2 
 PCOD8273280
Probable space group: C M M M
;
_chemical_formula_sum "Si O2"
_cell_formula_units_Z 72
_cell_length_a 20.483389
_cell_length_b 20.314123
_cell_length_c 8.170123
_cell_angle_alpha 90.000000
_cell_angle_beta 90.000000
_cell_angle_gamma 90.000000
_cell_volume 3399.605204
_symmetry_space_group_name_H-M "C M M M"
_symmetry_group_IT_number 65
_symmetry_cell_setting 'orthorhombic'
loop_
_space_group_symop_operation_xyz
x,y,z
-x,-y,z
x,-y,-z
-x,y,-z
-x,-y,-z
x,y,-z
-x,y,z
x,-y,z
1/2+x,1/2+y,z
1/2-x,1/2-y,z
1/2+x,1/2-y,-z
1/2-x,1/2+y,-z
1/2-x,1/2-y,-z
1/2+x,1/2+y,-z
1/2-x,1/2+y,z
1/2+x,1/2-y,z
loop_
_atom_site_type_symbol
_atom_site_label
_atom_site_fract_x
_atom_site_fract_y
_atom_site_fract_z
Si Si1 0.500000 0.627434 0.193828
Si Si2 0.744296 0.322490 0.811305
Si Si3 0.576070 0.000000 0.680044
Si Si4 0.000000 0.277940 0.193635
Si Si5 0.862172 0.925684 0.804686
Si Si6 0.619487 0.863096 0.693969
O O1 0.500000 0.702709 0.251340
O O2 0.434621 0.592106 0.261348
O O3 0.500000 0.622896 0.000000
O O4 0.750000 0.250000 0.726478
O O5 0.689757 0.371805 0.733239
O O6 0.814953 0.352975 0.793035
O O7 0.725331 0.313040 0.000000
O O8 0.597328 0.066765 0.768669
O O9 0.500000 0.000000 0.663889
O O10 0.608063 0.000000 0.500000
O O11 0.934796 0.309223 0.266525
O O12 0.000000 0.285511 0.000000
O O13 0.844406 0.000000 0.744731
O O14 0.860405 0.923384 0.000000
O O15 0.631400 0.863498 0.500000
#
# Coordination Sequence:
#
# PCOD8273280 Si02
#       6
#     8  16   8   8  16  16
#     4   9  17  31  53  78 108 142 175 220 281 333
#     4  10  21  37  55  80 117 152 182 231 290 333
#     4   9  18  36  56  76 108 145 180 227 283 330
#     4  11  21  35  56  84 113 146 181 224 284 340
#     4   9  17  30  51  79 109 142 183 226 269 327
#     4  11  22  37  58  81 109 148 191 232 275 333
#
# _framework density 21.178930000000001
#
# number of rings (size 3 to 8) (size 9 to 14) (size 15 to 20)
#    0.000    2.111    1.111    2.667    1.556    5.333 
#    0.000    2.222    0.000    0.000    0.000    0.000 
#    0.000    7.111    0.000    0.000    0.000    0.000 
#
# Total GULP energy -446142.967650 kJ/mol
# GULP energy per Si atom -12392.860212 kJ/mol
# Density = 2.113073 g / cm^3
# Si number density = 21.178930 Si / 1000 Ang^3
#
#
#
# Elastic Constant Matrix: (Units=GPa)
#
#
# Indices 1 2 3 4 5 6 
#
# 1 161.4916 84.1018 -3.4529 0.0000 0.0000 0.0000
# 2 84.1018 204.9916 8.8061 0.0000 0.0000 0.0000
# 3 -3.4529 8.8061 13.0786 0.0000 0.0000 0.0000
# 4 0.0000 0.0000 0.0000 15.9504 0.0000 0.0000
# 5 0.0000 0.0000 0.0000 0.0000 27.6906 0.0000
# 6 0.0000 0.0000 0.0000 0.0000 0.0000 50.7722
#
#
#
# Elastic Compliance Matrix: (Units=1/GPa)
#
#
# Indices 1 2 3 4 5 6 
#
# 1 0.008126 -0.003528 0.004521 0.000000 0.000000 0.000000
# 2 -0.003528 0.006555 -0.005345 0.000000 0.000000 0.000000
# 3 0.004521 -0.005345 0.081253 0.000000 0.000000 0.000000
# 4 0.000000 0.000000 0.000000 0.062694 0.000000 0.000000
# 5 0.000000 0.000000 0.000000 0.000000 0.036113 0.000000
# 6 0.000000 0.000000 0.000000 0.000000 0.000000 0.019696
#
#
# Mechanical properties :
#
#
# Convention : Reuss Voigt Hill
#
# Bulk Modulus (GPa) = 11.46394 62.05244 36.75819
# Shear Modulus (GPa) = 19.82393 38.22309 29.02351
#
# Velocity S-wave (km/s) = 3.06277 4.25287 3.70590
# Velocity P-wave (km/s) = 4.23462 7.31290 5.97539
#
# Compressibility (1/GPa) = 0.08723005
#
# Stress axis : x y z
#
# Youngs Moduli (GPa) = 123.05616 152.54604 12.30719
#
# Poissons Ratio (x) = 0.53822 -0.05564
# Poissons Ratio (y) = 0.43417 0.06579
# Poissons Ratio (z) = -0.55634 0.81541
#
# Static dielectric constant tensor:
#      x y z
#    x 3.881120 0.000000 0.000000 
#    y 0.000000 4.274000 0.000000 
#    z 0.000000 0.000000 3.296640 
# 
# 
# High freq. dielectric constant tensor:
#      x y z
#    x 1.839610 0.000000 0.000000 
#    y 0.000000 1.854880 0.000000 
#    z 0.000000 0.000000 1.774310 
# 
# From -- ./inp_files/11335.got.cif
#   From: 2010.03.12/outbox.cif.g09.slc.cpg/sg65_6_cif.got.tgz:11335.got - 2010.04.10 20:52:16.
