data_PCOD8273729
_publ_section_title
;
Structure prediction by ZEFSAII (Michael W. Deem and Ramdas Pophale) SiO2 
 PCOD8273729
Probable space group: C M M M
;
_chemical_formula_sum "Si O2"
_cell_formula_units_Z 72
_cell_length_a 18.007361
_cell_length_b 8.851334
_cell_length_c 22.614932
_cell_angle_alpha 90.000000
_cell_angle_beta 90.000000
_cell_angle_gamma 90.000000
_cell_volume 3604.575166
_symmetry_space_group_name_H-M "C M M M"
_symmetry_group_IT_number 65
_symmetry_cell_setting 'orthorhombic'
loop_
_space_group_symop_operation_xyz
x,y,z
-x,-y,z
x,-y,-z
-x,y,-z
-x,-y,-z
x,y,-z
-x,y,z
x,-y,z
1/2+x,1/2+y,z
1/2-x,1/2-y,z
1/2+x,1/2-y,-z
1/2-x,1/2+y,-z
1/2-x,1/2-y,-z
1/2+x,1/2+y,-z
1/2-x,1/2+y,z
1/2+x,1/2-y,z
loop_
_atom_site_type_symbol
_atom_site_label
_atom_site_fract_x
_atom_site_fract_y
_atom_site_fract_z
Si Si1 0.413927 0.674085 0.105772
Si Si2 0.829922 0.323269 0.000000
Si Si3 0.671462 0.323288 0.224663
Si Si4 0.914713 0.322521 0.668246
Si Si5 0.827521 0.176731 0.431643
O O1 0.500000 0.715947 0.106115
O O2 0.400621 0.500000 0.088488
O O3 0.374172 0.777771 0.058242
O O4 0.382686 0.710557 0.170264
O O5 0.750000 0.250000 0.000000
O O6 0.818422 0.500000 0.000000
O O7 0.681943 0.500000 0.235989
O O8 0.750000 0.250000 0.209550
O O9 0.637225 0.249839 0.282567
O O10 0.900668 0.500000 0.666338
O O11 0.893923 0.251782 0.605037
O O12 0.000000 0.283204 0.682078
O O13 0.844150 0.210860 0.500000
O O14 0.750000 0.250000 0.411626
O O15 0.823446 0.000000 0.418271
#
# Coordination Sequence:
#
# PCOD8273729 Si02
#       5
#    16   8  16  16  16
#     4  10  22  41  64  90 121 156 194 240 294 348
#     4  12  25  40  61  89 121 159 201 244 291 344
#     4  11  23  40  63  89 118 154 196 241 290 346
#     4  11  24  40  59  85 118 155 194 240 293 347
#     4  10  21  38  61  87 116 152 194 240 289 344
#
# _framework density 19.974615
#
# number of rings (size 3 to 8) (size 9 to 14) (size 15 to 20)
#    0.000    1.333    0.000    5.333    0.000    9.778 
#    0.000    2.222    0.000    0.000    0.000    0.000 
#    0.000    0.000    0.000    0.000    0.000    0.000 
#
# Total GULP energy -446668.076313 kJ/mol
# GULP energy per Si atom -12407.446564 kJ/mol
# Density = 1.992915 g / cm^3
# Si number density = 19.974615 Si / 1000 Ang^3
#
#
#
# Elastic Constant Matrix: (Units=GPa)
#
#
# Indices 1 2 3 4 5 6 
#
# 1 134.1800 69.2178 53.2510 0.0000 0.0000 0.0000
# 2 69.2178 129.2242 58.8820 0.0000 0.0000 0.0000
# 3 53.2510 58.8820 102.3413 0.0000 0.0000 0.0000
# 4 0.0000 0.0000 0.0000 59.9252 0.0000 0.0000
# 5 0.0000 0.0000 0.0000 0.0000 42.6541 0.0000
# 6 0.0000 0.0000 0.0000 0.0000 0.0000 35.1649
#
#
#
# Elastic Compliance Matrix: (Units=1/GPa)
#
#
# Indices 1 2 3 4 5 6 
#
# 1 0.011006 -0.004453 -0.003164 0.000000 0.000000 0.000000
# 2 -0.004453 0.012290 -0.004754 0.000000 0.000000 0.000000
# 3 -0.003164 -0.004754 0.014153 0.000000 0.000000 0.000000
# 4 0.000000 0.000000 0.000000 0.016687 0.000000 0.000000
# 5 0.000000 0.000000 0.000000 0.000000 0.023444 0.000000
# 6 0.000000 0.000000 0.000000 0.000000 0.000000 0.028437
#
#
# Mechanical properties :
#
#
# Convention : Reuss Voigt Hill
#
# Bulk Modulus (GPa) = 78.70587 80.93857 79.82222
# Shear Modulus (GPa) = 37.03805 39.84181 38.43993
#
# Velocity S-wave (km/s) = 4.31078 4.47096 4.39160
# Velocity P-wave (km/s) = 8.01658 8.20130 8.10947
#
# Compressibility (1/GPa) = 0.01270553
#
# Stress axis : x y z
#
# Youngs Moduli (GPa) = 90.86150 81.36716 70.65681
#
# Poissons Ratio (x) = 0.36235 0.22359
# Poissons Ratio (y) = 0.40463 0.33589
# Poissons Ratio (z) = 0.28753 0.38681
#
# Static dielectric constant tensor:
#      x y z
#    x 3.851860 0.000000 0.000000 
#    y 0.000000 3.750820 0.000000 
#    z 0.000000 0.000000 3.715280 
# 
# 
# High freq. dielectric constant tensor:
#      x y z
#    x 1.790680 0.000000 0.000000 
#    y 0.000000 1.790390 0.000000 
#    z 0.000000 0.000000 1.793630 
# 
# From -- ./inp_files/74609.got.cif
#   From: 2010.03.12/outbox.cif.g09.slc.cpg/sg65_38_cif.got.tgz:74609.got - 2010.04.10 20:52:16.
