data_PCOD8273611
_publ_section_title
;
Structure prediction by ZEFSAII (Michael W. Deem and Ramdas Pophale) SiO2 
 PCOD8273611
Probable space group: C M M M
;
_chemical_formula_sum "Si O2"
_cell_formula_units_Z 120
_cell_length_a 28.169237
_cell_length_b 25.120181
_cell_length_c 8.878896
_cell_angle_alpha 90.000000
_cell_angle_beta 90.000000
_cell_angle_gamma 90.000000
_cell_volume 6282.851820
_symmetry_space_group_name_H-M "C M M M"
_symmetry_group_IT_number 65
_symmetry_cell_setting 'orthorhombic'
loop_
_space_group_symop_operation_xyz
x,y,z
-x,-y,z
x,-y,-z
-x,y,-z
-x,-y,-z
x,y,-z
-x,y,z
x,-y,z
1/2+x,1/2+y,z
1/2-x,1/2-y,z
1/2+x,1/2-y,-z
1/2-x,1/2+y,-z
1/2-x,1/2-y,-z
1/2+x,1/2+y,-z
1/2-x,1/2+y,z
1/2+x,1/2-y,z
loop_
_atom_site_type_symbol
_atom_site_label
_atom_site_fract_x
_atom_site_fract_y
_atom_site_fract_z
Si Si1 0.000000 0.937695 0.322123
Si Si2 0.098404 0.239868 0.326688
Si Si3 0.703589 0.283323 0.669604
Si Si4 0.415161 0.372414 0.180028
Si Si5 0.946522 0.650837 0.320698
Si Si6 0.876290 0.560475 0.321787
Si Si7 0.718338 0.062099 0.832130
Si Si8 0.188647 0.111869 0.174511
O O1 0.954129 0.910129 0.252027
O O2 0.000000 0.929068 0.500000
O O3 0.000000 0.000000 0.279485
O O4 0.083762 0.230311 0.500000
O O5 0.154976 0.249979 0.311916
O O6 0.080086 0.188639 0.234259
O O7 0.073770 0.292903 0.260463
O O8 0.705881 0.307223 0.500000
O O9 0.750000 0.250000 0.704718
O O10 0.704129 0.328181 0.795283
O O11 0.364599 0.396730 0.238746
O O12 0.419590 0.373013 0.000000
O O13 0.944375 0.651146 0.500000
O O14 0.916488 0.600494 0.258811
O O15 0.000000 0.643886 0.261179
O O16 0.875071 0.561093 0.500000
O O17 0.886525 0.500000 0.264017
O O18 0.825626 0.583319 0.265873
O O19 0.769427 0.075498 0.754757
O O20 0.713609 0.000000 0.842727
O O21 0.715541 0.087484 0.000000
O O22 0.185868 0.099448 0.000000
#
# Coordination Sequence:
#
# PCOD8273611 Si02
#       8
#     8  16  16  16  16  16  16  16
#     4  11  25  43  63  87 113 145 184 221 264 321
#     4   9  18  33  52  76 106 143 184 222 270 329
#     4   9  18  30  47  73 103 138 175 215 264 316
#     4  10  21  38  59  83 112 143 179 225 273 318
#     4   9  18  31  50  77 104 136 182 227 271 326
#     4   9  18  32  51  76 105 137 177 227 276 321
#     4   9  18  33  52  74 102 138 176 211 258 319
#     4   9  19  34  52  76 105 138 175 215 263 317
#
# _framework density 19.099606999999999
#
# number of rings (size 3 to 8) (size 9 to 14) (size 15 to 20)
#    0.000    2.733    0.000    0.600    2.800    2.667 
#    0.000    3.333    0.000    2.800    0.000    1.867 
#    0.000    0.000    0.000    0.000    0.000    0.000 
#
# Total GULP energy -743545.590179 kJ/mol
# GULP energy per Si atom -12392.426503 kJ/mol
# Density = 1.905614 g / cm^3
# Si number density = 19.099607 Si / 1000 Ang^3
#
#
#
# Elastic Constant Matrix: (Units=GPa)
#
#
# Indices 1 2 3 4 5 6 
#
# 1 176.8276 87.9741 36.1039 0.0000 0.0000 0.0000
# 2 87.9741 106.1380 31.8339 0.0000 0.0000 0.0000
# 3 36.1039 31.8339 32.1218 0.0000 0.0000 0.0000
# 4 0.0000 0.0000 0.0000 19.4635 0.0000 0.0000
# 5 0.0000 0.0000 0.0000 0.0000 23.1920 0.0000
# 6 0.0000 0.0000 0.0000 0.0000 0.0000 39.3536
#
#
#
# Elastic Compliance Matrix: (Units=1/GPa)
#
#
# Indices 1 2 3 4 5 6 
#
# 1 0.010028 -0.007017 -0.004317 0.000000 0.000000 0.000000
# 2 -0.007017 0.018317 -0.010266 0.000000 0.000000 0.000000
# 3 -0.004317 -0.010266 0.046157 0.000000 0.000000 0.000000
# 4 0.000000 0.000000 0.000000 0.051378 0.000000 0.000000
# 5 0.000000 0.000000 0.000000 0.000000 0.043118 0.000000
# 6 0.000000 0.000000 0.000000 0.000000 0.000000 0.025411
#
#
# Mechanical properties :
#
#
# Convention : Reuss Voigt Hill
#
# Bulk Modulus (GPa) = 31.94614 69.65682 50.80148
# Shear Modulus (GPa) = 20.15788 27.01351 23.58570
#
# Velocity S-wave (km/s) = 3.25223 3.76486 3.51790
# Velocity P-wave (km/s) = 5.55563 7.44637 6.56938
#
# Compressibility (1/GPa) = 0.03130269
#
# Stress axis : x y z
#
# Youngs Moduli (GPa) = 99.72541 54.59497 21.66501
#
# Poissons Ratio (x) = 0.38308 0.09352
# Poissons Ratio (y) = 0.69975 0.22241
# Poissons Ratio (z) = 0.43049 0.56047
#
# Static dielectric constant tensor:
#      x y z
#    x 3.891990 0.000000 0.000000 
#    y 0.000000 3.478160 0.000000 
#    z 0.000000 0.000000 3.390340 
# 
# 
# High freq. dielectric constant tensor:
#      x y z
#    x 1.760350 0.000000 0.000000 
#    y 0.000000 1.732090 0.000000 
#    z 0.000000 0.000000 1.715810 
# 
# From -- ./inp_files/17057.got.cif
#   From: 2010.03.12/outbox.cif.g09.slc.cpg/sg65_9_cif.got.tgz:17057.got - 2010.04.10 20:52:16.
