data_PCOD8273192
_publ_section_title
;
Structure prediction by ZEFSAII (Michael W. Deem and Ramdas Pophale) SiO2 
 PCOD8273192
Probable space group: C M M M
;
_chemical_formula_sum "Si O2"
_cell_formula_units_Z 88
_cell_length_a 21.460658
_cell_length_b 14.422832
_cell_length_c 14.187312
_cell_angle_alpha 90.000000
_cell_angle_beta 90.000000
_cell_angle_gamma 90.000000
_cell_volume 4391.305968
_symmetry_space_group_name_H-M "C M M M"
_symmetry_group_IT_number 65
_symmetry_cell_setting 'orthorhombic'
loop_
_space_group_symop_operation_xyz
x,y,z
-x,-y,z
x,-y,-z
-x,y,-z
-x,-y,-z
x,y,-z
-x,y,z
x,-y,z
1/2+x,1/2+y,z
1/2-x,1/2-y,z
1/2+x,1/2-y,-z
1/2-x,1/2+y,-z
1/2-x,1/2-y,-z
1/2+x,1/2+y,-z
1/2-x,1/2+y,z
1/2+x,1/2-y,z
loop_
_atom_site_type_symbol
_atom_site_label
_atom_site_fract_x
_atom_site_fract_y
_atom_site_fract_z
Si Si1 0.767357 0.394470 0.220991
Si Si2 0.892036 0.712958 0.795701
Si Si3 0.645519 0.604765 0.109512
Si Si4 0.070352 0.775353 0.395641
Si Si5 0.689851 0.607957 0.395959
Si Si6 0.000000 0.602900 0.889388
O O1 0.790933 0.500000 0.237218
O O2 0.823584 0.328581 0.192069
O O3 0.718242 0.390578 0.136140
O O4 0.736069 0.351979 0.316471
O O5 0.893061 0.820598 0.828990
O O6 0.914741 0.702102 0.687138
O O7 0.938152 0.655863 0.860078
O O8 0.620513 0.500000 0.130313
O O9 0.638267 0.629654 0.000000
O O10 0.077770 0.728948 0.500000
O O11 0.119341 0.858018 0.383837
O O12 0.000000 0.813960 0.383748
O O13 0.716336 0.632949 0.500000
O O14 0.685366 0.500000 0.378697
O O15 0.000000 0.500000 0.844422
O O16 0.000000 0.595589 0.000000
#
# Coordination Sequence:
#
# PCOD8273192 Si02
#       6
#    16  16  16  16  16   8
#     4  10  21  36  57  88 122 156 201 252 303 360
#     4  12  22  39  64  89 117 163 206 248 308 362
#     4  10  22  39  59  88 124 156 193 246 304 366
#     4  10  21  36  56  86 121 158 202 244 291 358
#     4   9  18  34  56  85 123 160 197 246 302 361
#     4  11  26  46  66  90 120 157 210 264 300 346
#
# _framework density 20.039596
#
# number of rings (size 3 to 8) (size 9 to 14) (size 15 to 20)
#    0.000    1.727    2.727    1.636    0.000    3.273 
#    0.000    5.909    0.000    3.818    0.000    0.000 
#    0.000    0.000    0.000    0.000    0.000    0.000 
#
# Total GULP energy -545455.892531 kJ/mol
# GULP energy per Si atom -12396.724830 kJ/mol
# Density = 1.999398 g / cm^3
# Si number density = 20.039596 Si / 1000 Ang^3
#
#
#
# Elastic Constant Matrix: (Units=GPa)
#
#
# Indices 1 2 3 4 5 6 
#
# 1 92.5984 43.1495 26.2699 0.0000 0.0000 0.0000
# 2 43.1495 103.0211 39.9644 0.0000 0.0000 0.0000
# 3 26.2699 39.9644 111.1862 0.0000 0.0000 0.0000
# 4 0.0000 0.0000 0.0000 20.9788 0.0000 0.0000
# 5 0.0000 0.0000 0.0000 0.0000 21.1596 0.0000
# 6 0.0000 0.0000 0.0000 0.0000 0.0000 20.5560
#
#
#
# Elastic Compliance Matrix: (Units=1/GPa)
#
#
# Indices 1 2 3 4 5 6 
#
# 1 0.013591 -0.005167 -0.001354 0.000000 0.000000 0.000000
# 2 -0.005167 0.013244 -0.003540 0.000000 0.000000 0.000000
# 3 -0.001354 -0.003540 0.010586 0.000000 0.000000 0.000000
# 4 0.000000 0.000000 0.000000 0.047667 0.000000 0.000000
# 5 0.000000 0.000000 0.000000 0.000000 0.047260 0.000000
# 6 0.000000 0.000000 0.000000 0.000000 0.000000 0.048648
#
#
# Mechanical properties :
#
#
# Convention : Reuss Voigt Hill
#
# Bulk Modulus (GPa) = 57.80376 58.39703 58.10040
# Shear Modulus (GPa) = 24.16811 25.70036 24.93423
#
# Velocity S-wave (km/s) = 3.47654 3.58506 3.53122
# Velocity P-wave (km/s) = 6.70988 6.80742 6.75883
#
# Compressibility (1/GPa) = 0.01729991
#
# Stress axis : x y z
#
# Youngs Moduli (GPa) = 73.57615 75.50500 94.46403
#
# Poissons Ratio (x) = 0.39017 0.12789
# Poissons Ratio (y) = 0.38020 0.33436
# Poissons Ratio (z) = 0.09961 0.26725
#
# Static dielectric constant tensor:
#      x y z
#    x 3.530680 0.000000 0.000000 
#    y 0.000000 3.614910 0.000000 
#    z 0.000000 0.000000 3.987370 
# 
# 
# High freq. dielectric constant tensor:
#      x y z
#    x 1.770640 0.000000 0.000000 
#    y 0.000000 1.768950 0.000000 
#    z 0.000000 0.000000 1.800610 
# 
# From -- ./inp_files/44016.got.cif
#   From: 2010.03.12/outbox.cif.g09.slc.cpg/sg65_23_cif.got.tgz:44016.got - 2010.04.10 20:52:16.
