data_PCOD8273488
_publ_section_title
;
Structure prediction by ZEFSAII (Michael W. Deem and Ramdas Pophale) SiO2 
 PCOD8273488
Probable space group: C M M M
;
_chemical_formula_sum "Si O2"
_cell_formula_units_Z 88
_cell_length_a 21.873185
_cell_length_b 8.809929
_cell_length_c 23.787436
_cell_angle_alpha 90.000000
_cell_angle_beta 90.000000
_cell_angle_gamma 90.000000
_cell_volume 4583.867625
_symmetry_space_group_name_H-M "C M M M"
_symmetry_group_IT_number 65
_symmetry_cell_setting 'orthorhombic'
loop_
_space_group_symop_operation_xyz
x,y,z
-x,-y,z
x,-y,-z
-x,y,-z
-x,-y,-z
x,y,-z
-x,y,z
x,-y,z
1/2+x,1/2+y,z
1/2-x,1/2-y,z
1/2+x,1/2-y,-z
1/2-x,1/2+y,-z
1/2-x,1/2-y,-z
1/2+x,1/2+y,-z
1/2-x,1/2+y,z
1/2+x,1/2-y,z
loop_
_atom_site_type_symbol
_atom_site_label
_atom_site_fract_x
_atom_site_fract_y
_atom_site_fract_z
Si Si1 0.071039 0.669455 0.753017
Si Si2 0.601426 0.674920 0.862630
Si Si3 0.686597 0.675280 0.433766
Si Si4 0.687389 0.825793 0.060420
Si Si5 0.930342 0.319826 0.374251
Si Si6 0.500000 0.821738 0.937265
O O1 0.098309 0.500000 0.759060
O O2 0.103100 0.780809 0.797048
O O3 0.081451 0.730678 0.690013
O O4 0.000000 0.666271 0.767732
O O5 0.583691 0.500000 0.867712
O O6 0.665755 0.715849 0.889482
O O7 0.557735 0.774822 0.901076
O O8 0.683788 0.699434 0.500000
O O9 0.688403 0.500000 0.416438
O O10 0.750000 0.750000 0.410484
O O11 0.623701 0.746692 0.410590
O O12 0.750000 0.750000 0.044809
O O13 0.691632 0.000000 0.081476
O O14 0.650248 0.821461 0.000000
O O15 0.926270 0.500000 0.380145
O O16 0.000000 0.268679 0.392397
O O17 0.500000 0.000000 0.943044
O O18 0.500000 0.748087 0.000000
#
# Coordination Sequence:
#
# PCOD8273488 Si02
#       6
#    16  16  16  16  16   8
#     4   9  18  35  57  78 107 147 186 225 274 331
#     4  12  23  34  53  81 109 138 175 221 272 328
#     4  10  21  37  58  85 119 159 198 240 292 346
#     4  10  21  38  58  77 100 134 174 218 271 329
#     4   9  19  36  59  87 116 152 196 240 287 341
#     4  11  23  37  53  75 105 141 178 219 270 325
#
# _framework density 19.197762999999998
#
# number of rings (size 3 to 8) (size 9 to 14) (size 15 to 20)
#    0.000    1.909    0.909    4.636    0.000    6.545 
#    0.000    4.545    0.000    4.364    0.000    0.000 
#    0.000    0.000    0.000    0.000    0.000    0.000 
#
# Total GULP energy -545158.614938 kJ/mol
# GULP energy per Si atom -12389.968521 kJ/mol
# Density = 1.915407 g / cm^3
# Si number density = 19.197763 Si / 1000 Ang^3
#
#
#
# Elastic Constant Matrix: (Units=GPa)
#
#
# Indices 1 2 3 4 5 6 
#
# 1 102.1489 38.8220 41.8633 0.0000 0.0000 0.0000
# 2 38.8220 89.1699 36.5924 0.0000 0.0000 0.0000
# 3 41.8633 36.5924 66.6897 0.0000 0.0000 0.0000
# 4 0.0000 0.0000 0.0000 24.1780 0.0000 0.0000
# 5 0.0000 0.0000 0.0000 0.0000 41.6331 0.0000
# 6 0.0000 0.0000 0.0000 0.0000 0.0000 -15.6965
#
#
#
# Elastic Compliance Matrix: (Units=1/GPa)
#
#
# Indices 1 2 3 4 5 6 
#
# 1 0.013844 -0.003176 -0.006948 0.000000 0.000000 0.000000
# 2 -0.003176 0.015202 -0.006348 0.000000 0.000000 0.000000
# 3 -0.006948 -0.006348 0.022839 0.000000 0.000000 0.000000
# 4 0.000000 0.000000 0.000000 0.041360 0.000000 0.000000
# 5 0.000000 0.000000 0.000000 0.000000 0.024019 0.000000
# 6 0.000000 0.000000 0.000000 0.000000 0.000000 -0.063708
#
#
# Mechanical properties :
#
#
# Convention : Reuss Voigt Hill
#
# Bulk Modulus (GPa) = 52.79152 54.72931 53.76042
# Shear Modulus (GPa) = 53.87180 19.40499 36.63839
#
# Velocity S-wave (km/s) = 5.30306 3.18275 4.37335
# Velocity P-wave (km/s) = 8.06567 6.48665 7.31887
#
# Compressibility (1/GPa) = 0.01894244
#
# Stress axis : x y z
#
# Youngs Moduli (GPa) = 72.23305 65.77983 43.78488
#
# Poissons Ratio (x) = 0.20893 0.30420
# Poissons Ratio (y) = 0.22943 0.27793
# Poissons Ratio (z) = 0.50185 0.41754
#
# Static dielectric constant tensor:
#      x y z
#    x 3.554650 0.000000 0.000000 
#    y 0.000000 3.437580 0.000000 
#    z 0.000000 0.000000 3.554020 
# 
# 
# High freq. dielectric constant tensor:
#      x y z
#    x 1.737370 0.000000 0.000000 
#    y 0.000000 1.745780 0.000000 
#    z 0.000000 0.000000 1.746190 
# 
# From -- ./inp_files/65192.got.cif
#   From: 2010.03.12/outbox.cif.g09.slc.cpg/sg65_33_cif.got.tgz:65192.got - 2010.04.10 20:52:16.
