data_PCOD8273639
_publ_section_title
;
Structure prediction by ZEFSAII (Michael W. Deem and Ramdas Pophale) SiO2 
 PCOD8273639
Probable space group: C M M M
;
_chemical_formula_sum "Si O2"
_cell_formula_units_Z 72
_cell_length_a 8.603999
_cell_length_b 16.452832
_cell_length_c 24.488571
_cell_angle_alpha 90.000000
_cell_angle_beta 90.000000
_cell_angle_gamma 90.000000
_cell_volume 3466.605786
_symmetry_space_group_name_H-M "C M M M"
_symmetry_group_IT_number 65
_symmetry_cell_setting 'orthorhombic'
loop_
_space_group_symop_operation_xyz
x,y,z
-x,-y,z
x,-y,-z
-x,y,-z
-x,-y,-z
x,y,-z
-x,y,z
x,-y,z
1/2+x,1/2+y,z
1/2-x,1/2-y,z
1/2+x,1/2-y,-z
1/2-x,1/2+y,-z
1/2-x,1/2-y,-z
1/2+x,1/2+y,-z
1/2-x,1/2+y,z
1/2+x,1/2-y,z
loop_
_atom_site_type_symbol
_atom_site_label
_atom_site_fract_x
_atom_site_fract_y
_atom_site_fract_z
Si Si1 0.817392 0.837800 0.938906
Si Si2 0.816209 0.340349 0.380036
Si Si3 0.167561 0.408112 0.164111
Si Si4 0.677379 0.500000 0.435466
Si Si5 0.318816 0.665283 0.264291
O O1 0.750000 0.750000 0.926897
O O2 0.744680 0.897038 0.894761
O O3 0.000000 0.835082 0.931247
O O4 0.772508 0.867423 0.000000
O O5 0.750000 0.250000 0.396090
O O6 0.756545 0.415530 0.416442
O O7 0.770466 0.364061 0.318375
O O8 0.000000 0.334813 0.386267
O O9 0.124375 0.500000 0.169391
O O10 0.288204 0.391175 0.212674
O O11 0.000000 0.360704 0.169264
O O12 0.500000 0.500000 0.414479
O O13 0.687375 0.500000 0.500000
O O14 0.500000 0.670003 0.278369
O O15 0.250000 0.750000 0.244904
#
# Coordination Sequence:
#
# PCOD8273639 Si02
#       5
#    16  16  16   8  16
#     4  10  21  38  60  83 109 145 191 241 295 357
#     4  11  23  42  68  98 134 174 220 271 326 387
#     4  11  24  39  56  82 117 154 195 242 299 362
#     4  11  25  45  69  99 135 177 224 271 322 381
#     4  11  22  39  63  89 121 158 202 251 305 366
#
# _framework density 20.769594999999999
#
# number of rings (size 3 to 8) (size 9 to 14) (size 15 to 20)
#    0.000    1.222    0.000    7.667    1.556    4.889 
#    0.000    2.222    0.000    0.000    0.000    0.000 
#    0.000    0.000    0.000    0.000    0.000    0.000 
#
# Total GULP energy -446196.423582 kJ/mol
# GULP energy per Si atom -12394.345099 kJ/mol
# Density = 2.072232 g / cm^3
# Si number density = 20.769595 Si / 1000 Ang^3
#
#
#
# Elastic Constant Matrix: (Units=GPa)
#
#
# Indices 1 2 3 4 5 6 
#
# 1 140.6438 53.8076 42.3802 0.0000 0.0000 0.0000
# 2 53.8076 101.0452 54.5338 0.0000 0.0000 0.0000
# 3 42.3802 54.5338 104.5003 0.0000 0.0000 0.0000
# 4 0.0000 0.0000 0.0000 46.8416 0.0000 0.0000
# 5 0.0000 0.0000 0.0000 0.0000 33.8375 0.0000
# 6 0.0000 0.0000 0.0000 0.0000 0.0000 29.7648
#
#
#
# Elastic Compliance Matrix: (Units=1/GPa)
#
#
# Indices 1 2 3 4 5 6 
#
# 1 0.009122 -0.003983 -0.001621 0.000000 0.000000 0.000000
# 2 -0.003983 0.015516 -0.006482 0.000000 0.000000 0.000000
# 3 -0.001621 -0.006482 0.013609 0.000000 0.000000 0.000000
# 4 0.000000 0.000000 0.000000 0.021349 0.000000 0.000000
# 5 0.000000 0.000000 0.000000 0.000000 0.029553 0.000000
# 6 0.000000 0.000000 0.000000 0.000000 0.000000 0.033597
#
#
# Mechanical properties :
#
#
# Convention : Reuss Voigt Hill
#
# Bulk Modulus (GPa) = 71.04266 71.95917 71.50091
# Shear Modulus (GPa) = 32.97965 35.11998 34.04981
#
# Velocity S-wave (km/s) = 3.98915 4.11656 4.05335
# Velocity P-wave (km/s) = 7.44964 7.57075 7.51044
#
# Compressibility (1/GPa) = 0.01407605
#
# Stress axis : x y z
#
# Youngs Moduli (GPa) = 109.62002 64.45142 73.47948
#
# Poissons Ratio (x) = 0.25670 0.11912
# Poissons Ratio (y) = 0.43660 0.47626
# Poissons Ratio (z) = 0.17771 0.41775
#
# Static dielectric constant tensor:
#      x y z
#    x 4.061590 0.000000 0.000000 
#    y 0.000000 3.703980 0.000000 
#    z 0.000000 0.000000 3.794460 
# 
# 
# High freq. dielectric constant tensor:
#      x y z
#    x 1.836400 0.000000 0.000000 
#    y 0.000000 1.806660 0.000000 
#    z 0.000000 0.000000 1.817830 
# 
# From -- ./inp_files/72524.got.cif
#   From: 2010.03.12/outbox.cif.g09.slc.cpg/sg65_37_cif.got.tgz:72524.got - 2010.04.10 20:52:16.
