data_PCOD8273163
_publ_section_title
;
Structure prediction by ZEFSAII (Michael W. Deem and Ramdas Pophale) SiO2 
 PCOD8273163
Probable space group: C M M M
;
_chemical_formula_sum "Si O2"
_cell_formula_units_Z 88
_cell_length_a 30.928763
_cell_length_b 13.215133
_cell_length_c 11.934318
_cell_angle_alpha 90.000000
_cell_angle_beta 90.000000
_cell_angle_gamma 90.000000
_cell_volume 4877.886545
_symmetry_space_group_name_H-M "C M M M"
_symmetry_group_IT_number 65
_symmetry_cell_setting 'orthorhombic'
loop_
_space_group_symop_operation_xyz
x,y,z
-x,-y,z
x,-y,-z
-x,y,-z
-x,-y,-z
x,y,-z
-x,y,z
x,-y,z
1/2+x,1/2+y,z
1/2-x,1/2-y,z
1/2+x,1/2-y,-z
1/2-x,1/2+y,-z
1/2-x,1/2-y,-z
1/2+x,1/2+y,-z
1/2-x,1/2+y,z
1/2+x,1/2-y,z
loop_
_atom_site_type_symbol
_atom_site_label
_atom_site_fract_x
_atom_site_fract_y
_atom_site_fract_z
Si Si1 0.210321 0.173347 0.500000
Si Si2 0.161322 0.385533 0.274843
Si Si3 0.882793 0.000000 0.871266
Si Si4 0.371899 0.809674 0.500000
Si Si5 0.050181 0.165821 0.500000
Si Si6 0.329751 0.702495 0.869453
Si Si7 0.739332 0.610578 0.271607
Si Si8 0.950247 0.000000 0.680633
O O1 0.250000 0.250000 0.500000
O O2 0.162987 0.221031 0.500000
O O3 0.213194 0.106486 0.388229
O O4 0.155347 0.500000 0.227560
O O5 0.134191 0.377687 0.389278
O O6 0.146238 0.300856 0.184457
O O7 0.211426 0.359935 0.300347
O O8 0.855867 0.899473 0.843184
O O9 0.925106 0.000000 0.796514
O O10 0.897557 0.000000 0.000000
O O11 0.420242 0.765180 0.500000
O O12 0.060991 0.099804 0.609592
O O13 0.000000 0.199319 0.500000
O O14 0.282177 0.688814 0.815365
O O15 0.324409 0.723870 0.000000
O O16 0.737705 0.500000 0.215509
O O17 0.000000 0.000000 0.713795
#
# Coordination Sequence:
#
# PCOD8273163 Si02
#       8
#     8  16   8   8   8  16  16   8
#     4  12  19  32  50  77 109 140 174 221 272 323
#     4  11  23  36  53  76 104 144 185 231 274 318
#     4  10  21  36  56  82 109 142 185 228 272 320
#     4  12  20  34  57  76 108 142 176 223 277 318
#     4   9  20  35  56  85 114 147 177 213 272 343
#     4  11  22  37  53  73 106 146 190 232 267 317
#     4  11  21  34  50  74 108 140 184 230 274 322
#     4   9  18  35  55  83 119 142 171 215 269 341
#
# _framework density 18.040600000000001
#
# number of rings (size 3 to 8) (size 9 to 14) (size 15 to 20)
#    0.000    1.273    4.545    2.727    0.000    3.455 
#    1.636    1.818    0.000    1.091    0.000    0.000 
#    0.000    0.000    0.000   15.636    0.000    0.182 
#
# Total GULP energy -545507.535486 kJ/mol
# GULP energy per Si atom -12397.898534 kJ/mol
# Density = 1.799954 g / cm^3
# Si number density = 18.040600 Si / 1000 Ang^3
#
#
#
# Elastic Constant Matrix: (Units=GPa)
#
#
# Indices 1 2 3 4 5 6 
#
# 1 73.8184 34.5480 34.8516 0.0000 0.0000 0.0000
# 2 34.5480 124.5502 51.1545 0.0000 0.0000 0.0000
# 3 34.8516 51.1545 116.2535 0.0000 0.0000 0.0000
# 4 0.0000 0.0000 0.0000 20.1529 0.0000 0.0000
# 5 0.0000 0.0000 0.0000 0.0000 23.5514 0.0000
# 6 0.0000 0.0000 0.0000 0.0000 0.0000 24.9531
#
#
#
# Elastic Compliance Matrix: (Units=1/GPa)
#
#
# Indices 1 2 3 4 5 6 
#
# 1 0.016736 -0.003151 -0.003631 0.000000 0.000000 0.000000
# 2 -0.003151 0.010393 -0.003629 0.000000 0.000000 0.000000
# 3 -0.003631 -0.003629 0.011287 0.000000 0.000000 0.000000
# 4 0.000000 0.000000 0.000000 0.049621 0.000000 0.000000
# 5 0.000000 0.000000 0.000000 0.000000 0.042460 0.000000
# 6 0.000000 0.000000 0.000000 0.000000 0.000000 0.040075
#
#
# Mechanical properties :
#
#
# Convention : Reuss Voigt Hill
#
# Bulk Modulus (GPa) = 56.83345 61.74782 59.29063
# Shear Modulus (GPa) = 25.34756 26.66935 26.00845
#
# Velocity S-wave (km/s) = 3.75244 3.84903 3.80104
# Velocity P-wave (km/s) = 7.09548 7.35220 7.22498
#
# Compressibility (1/GPa) = 0.01759527
#
# Stress axis : x y z
#
# Youngs Moduli (GPa) = 59.75287 96.21620 88.59735
#
# Poissons Ratio (x) = 0.30318 0.32167
# Poissons Ratio (y) = 0.18828 0.32149
# Poissons Ratio (z) = 0.21694 0.34914
#
# Static dielectric constant tensor:
#      x y z
#    x 2.998910 0.000000 0.000000 
#    y 0.000000 3.378320 0.000000 
#    z 0.000000 0.000000 3.359750 
# 
# 
# High freq. dielectric constant tensor:
#      x y z
#    x 1.658950 0.000000 0.000000 
#    y 0.000000 1.707010 0.000000 
#    z 0.000000 0.000000 1.697500 
# 
# From -- ./inp_files/32305.got.cif
#   From: 2010.03.12/outbox.cif.g09.slc.cpg/sg65_17_cif.got.tgz:32305.got - 2010.04.10 20:52:16.
