data_PCOD8273710
_publ_section_title
;
Structure prediction by ZEFSAII (Michael W. Deem and Ramdas Pophale) SiO2 
 PCOD8273710
Probable space group: C M M M
;
_chemical_formula_sum "Si O2"
_cell_formula_units_Z 72
_cell_length_a 18.587835
_cell_length_b 8.718708
_cell_length_c 23.360370
_cell_angle_alpha 90.000000
_cell_angle_beta 90.000000
_cell_angle_gamma 90.000000
_cell_volume 3785.826080
_symmetry_space_group_name_H-M "C M M M"
_symmetry_group_IT_number 65
_symmetry_cell_setting 'orthorhombic'
loop_
_space_group_symop_operation_xyz
x,y,z
-x,-y,z
x,-y,-z
-x,y,-z
-x,-y,-z
x,y,-z
-x,y,z
x,-y,z
1/2+x,1/2+y,z
1/2-x,1/2-y,z
1/2+x,1/2-y,-z
1/2-x,1/2+y,-z
1/2-x,1/2-y,-z
1/2+x,1/2+y,-z
1/2-x,1/2+y,z
1/2+x,1/2-y,z
loop_
_atom_site_type_symbol
_atom_site_label
_atom_site_fract_x
_atom_site_fract_y
_atom_site_fract_z
Si Si1 0.915662 0.177450 0.837987
Si Si2 0.825784 0.320841 0.933547
Si Si3 0.328977 0.819627 0.263948
Si Si4 0.829240 0.818906 0.622267
Si Si5 0.172223 0.821009 0.500000
O O1 0.888935 0.237478 0.899263
O O2 0.878929 0.274970 0.788461
O O3 0.000000 0.205507 0.834740
O O4 0.895386 0.000000 0.830606
O O5 0.824836 0.500000 0.919175
O O6 0.750000 0.250000 0.914081
O O7 0.840607 0.288714 0.000000
O O8 0.250000 0.750000 0.255309
O O9 0.367245 0.757936 0.322649
O O10 0.321410 0.000000 0.267404
O O11 0.750000 0.750000 0.620017
O O12 0.867738 0.777988 0.560461
O O13 0.826514 0.000000 0.632350
O O14 0.250000 0.750000 0.500000
O O15 0.185983 0.000000 0.500000
#
# Coordination Sequence:
#
# PCOD8273710 Si02
#       5
#    16  16  16  16   8
#     4  11  24  40  57  78 106 140 177 218 264 312
#     4  10  21  38  61  87 114 143 175 212 254 303
#     4  11  21  34  53  76 104 138 177 219 263 312
#     4   9  15  25  41  65  97 131 169 210 257 309
#     4   8  14  22  36  60  93 130 163 204 255 307
#
# _framework density 19.018307
#
# number of rings (size 3 to 8) (size 9 to 14) (size 15 to 20)
#    0.000    2.000    0.000    6.000    0.000    4.444 
#    0.000    2.222    0.000    0.000    0.000    0.778 
#    0.000    6.222    0.000    0.000    0.000    0.000 
#
# Total GULP energy -446116.251714 kJ/mol
# GULP energy per Si atom -12392.118103 kJ/mol
# Density = 1.897502 g / cm^3
# Si number density = 19.018307 Si / 1000 Ang^3
#
#
#
# Elastic Constant Matrix: (Units=GPa)
#
#
# Indices 1 2 3 4 5 6 
#
# 1 53.0252 39.3117 45.7435 0.0000 0.0000 0.0000
# 2 39.3117 120.9904 53.8708 0.0000 0.0000 0.0000
# 3 45.7435 53.8708 138.2186 0.0000 0.0000 0.0000
# 4 0.0000 0.0000 0.0000 28.7521 0.0000 0.0000
# 5 0.0000 0.0000 0.0000 0.0000 -0.0227 0.0000
# 6 0.0000 0.0000 0.0000 0.0000 0.0000 22.0399
#
#
#
# Elastic Compliance Matrix: (Units=1/GPa)
#
#
# Indices 1 2 3 4 5 6 
#
# 1 0.030056 -0.006457 -0.007430 0.000000 0.000000 0.000000
# 2 -0.006457 0.011388 -0.002301 0.000000 0.000000 0.000000
# 3 -0.007430 -0.002301 0.010591 0.000000 0.000000 0.000000
# 4 0.000000 0.000000 0.000000 0.034780 0.000000 0.000000
# 5 0.000000 0.000000 0.000000 0.000000-44.136433 0.000000
# 6 0.000000 0.000000 0.000000 0.000000 0.000000 0.045372
#
#
# Mechanical properties :
#
#
# Convention : Reuss Voigt Hill
#
# Bulk Modulus (GPa) = 50.87270 65.56516 58.21893
# Shear Modulus (GPa) = -0.11373 21.70775 10.79701
#
# Velocity S-wave (km/s) = -0.24480 3.38215 2.38527
# Velocity P-wave (km/s) = 5.16986 7.05702 6.18583
#
# Compressibility (1/GPa) = 0.01965691
#
# Stress axis : x y z
#
# Youngs Moduli (GPa) = 33.27079 87.81238 94.42007
#
# Poissons Ratio (x) = 0.56704 0.70158
# Poissons Ratio (y) = 0.21484 0.21729
# Poissons Ratio (z) = 0.24722 0.20209
#
# Static dielectric constant tensor:
#      x y z
#    x 3.017600 0.000000 0.000000 
#    y 0.000000 3.672420 0.000000 
#    z 0.000000 0.000000 4.427190 
# 
# 
# High freq. dielectric constant tensor:
#      x y z
#    x 1.677390 0.000000 0.000000 
#    y 0.000000 1.757000 0.000000 
#    z 0.000000 0.000000 1.774010 
# 
# From -- ./inp_files/67246.got.cif
#   From: 2010.03.12/outbox.cif.g09.slc.cpg/sg65_34_cif.got.tgz:67246.got - 2010.04.10 20:52:16.
