data_PCOD8273568
_publ_section_title
;
Structure prediction by ZEFSAII (Michael W. Deem and Ramdas Pophale) SiO2 
 PCOD8273568
Probable space group: C M M M
;
_chemical_formula_sum "Si O2"
_cell_formula_units_Z 96
_cell_length_a 10.678250
_cell_length_b 18.054106
_cell_length_c 28.313166
_cell_angle_alpha 90.000000
_cell_angle_beta 90.000000
_cell_angle_gamma 90.000000
_cell_volume 5458.389308
_symmetry_space_group_name_H-M "C M M M"
_symmetry_group_IT_number 65
_symmetry_cell_setting 'orthorhombic'
loop_
_space_group_symop_operation_xyz
x,y,z
-x,-y,z
x,-y,-z
-x,y,-z
-x,-y,-z
x,y,-z
-x,y,z
x,-y,z
1/2+x,1/2+y,z
1/2-x,1/2-y,z
1/2+x,1/2-y,-z
1/2-x,1/2+y,-z
1/2-x,1/2-y,-z
1/2+x,1/2+y,-z
1/2-x,1/2+y,z
1/2+x,1/2-y,z
loop_
_atom_site_type_symbol
_atom_site_label
_atom_site_fract_x
_atom_site_fract_y
_atom_site_fract_z
Si Si1 0.357347 0.310907 0.739580
Si Si2 0.748199 0.838261 0.913051
Si Si3 0.358392 0.419150 0.000000
Si Si4 0.000000 0.414077 0.943923
Si Si5 0.855871 0.810362 0.632621
Si Si6 0.854636 0.916629 0.176341
Si Si7 0.147869 0.081595 0.551342
O O1 0.500000 0.279773 0.749117
O O2 0.250000 0.250000 0.749603
O O3 0.349299 0.340812 0.686028
O O4 0.329937 0.381428 0.772399
O O5 0.750000 0.750000 0.915836
O O6 0.834936 0.871248 0.953733
O O7 0.612854 0.870865 0.921001
O O8 0.791658 0.863759 0.861846
O O9 0.284314 0.500000 0.000000
O O10 0.500000 0.441722 0.000000
O O11 0.000000 0.500000 0.929140
O O12 0.000000 0.404345 0.000000
O O13 0.750000 0.750000 0.626132
O O14 0.807676 0.871121 0.595735
O O15 0.000000 0.783622 0.621797
O O16 0.000000 0.920195 0.164317
O O17 0.798152 0.000000 0.175317
O O18 0.189845 0.114963 0.500000
O O19 0.000000 0.075571 0.552404
O O20 0.206931 0.000000 0.556968
#
# Coordination Sequence:
#
# PCOD8273568 Si02
#       7
#    16  16   8   8  16  16  16
#     4   9  18  34  54  77 104 134 171 212 261 312
#     4  12  25  38  60  83 112 140 177 215 256 312
#     4  11  23  39  61  83 109 139 171 211 259 307
#     4  11  24  42  62  82 114 150 178 214 261 313
#     4   9  17  29  48  73 101 133 169 212 260 313
#     4  10  21  38  58  78 105 134 168 214 264 310
#     4   8  14  25  42  67  99 133 172 219 263 303
#
# _framework density 17.587606000000001
#
# number of rings (size 3 to 8) (size 9 to 14) (size 15 to 20)
#    0.000    2.167    0.833    3.250    2.333    2.333 
#    1.500    3.333    0.000    0.500    0.000    5.833 
#    0.000    0.000    0.000    0.000    0.000    0.000 
#
# Total GULP energy -594778.619786 kJ/mol
# GULP energy per Si atom -12391.221246 kJ/mol
# Density = 1.754758 g / cm^3
# Si number density = 17.587606 Si / 1000 Ang^3
#
#
#
# Elastic Constant Matrix: (Units=GPa)
#
#
# Indices 1 2 3 4 5 6 
#
# 1 71.3104 44.7935 40.1428 0.0000 0.0000 0.0000
# 2 44.7935 144.9434 81.0509 0.0000 0.0000 0.0000
# 3 40.1428 81.0509 134.6468 0.0000 0.0000 0.0000
# 4 0.0000 0.0000 0.0000 35.7380 0.0000 0.0000
# 5 0.0000 0.0000 0.0000 0.0000 21.2128 0.0000
# 6 0.0000 0.0000 0.0000 0.0000 0.0000 21.6823
#
#
#
# Elastic Compliance Matrix: (Units=1/GPa)
#
#
# Indices 1 2 3 4 5 6 
#
# 1 0.018209 -0.003907 -0.003077 0.000000 0.000000 0.000000
# 2 -0.003907 0.011238 -0.005600 0.000000 0.000000 0.000000
# 3 -0.003077 -0.005600 0.011715 0.000000 0.000000 0.000000
# 4 0.000000 0.000000 0.000000 0.027981 0.000000 0.000000
# 5 0.000000 0.000000 0.000000 0.000000 0.047141 0.000000
# 6 0.000000 0.000000 0.000000 0.000000 0.000000 0.046121
#
#
# Mechanical properties :
#
#
# Convention : Reuss Voigt Hill
#
# Bulk Modulus (GPa) = 62.52037 75.87500 69.19769
# Shear Modulus (GPa) = 25.91939 28.05417 26.98678
#
# Velocity S-wave (km/s) = 3.84308 3.99822 3.92142
# Velocity P-wave (km/s) = 7.43758 8.03425 7.74166
#
# Compressibility (1/GPa) = 0.01599479
#
# Stress axis : x y z
#
# Youngs Moduli (GPa) = 54.91655 88.98319 85.35903
#
# Poissons Ratio (x) = 0.34763 0.26267
# Poissons Ratio (y) = 0.21454 0.47802
# Poissons Ratio (z) = 0.16899 0.49831
#
# Static dielectric constant tensor:
#      x y z
#    x 3.227750 0.000000 0.000000 
#    y 0.000000 3.375810 0.000000 
#    z 0.000000 0.000000 3.509160 
# 
# 
# High freq. dielectric constant tensor:
#      x y z
#    x 1.666790 0.000000 0.000000 
#    y 0.000000 1.673980 0.000000 
#    z 0.000000 0.000000 1.694410 
# 
# From -- ./inp_files/77347.got.cif
#   From: 2010.03.12/outbox.cif.g09.slc.cpg/sg65_39_cif.got.tgz:77347.got - 2010.04.10 20:52:16.
