data_PCOD8273720
_publ_section_title
;
Structure prediction by ZEFSAII (Michael W. Deem and Ramdas Pophale) SiO2 
 PCOD8273720
Probable space group: C M M M
;
_chemical_formula_sum "Si O2"
_cell_formula_units_Z 96
_cell_length_a 18.312653
_cell_length_b 8.786095
_cell_length_c 30.335884
_cell_angle_alpha 90.000000
_cell_angle_beta 90.000000
_cell_angle_gamma 90.000000
_cell_volume 4880.943899
_symmetry_space_group_name_H-M "C M M M"
_symmetry_group_IT_number 65
_symmetry_cell_setting 'orthorhombic'
loop_
_space_group_symop_operation_xyz
x,y,z
-x,-y,z
x,-y,-z
-x,y,-z
-x,-y,-z
x,y,-z
-x,y,z
x,-y,z
1/2+x,1/2+y,z
1/2-x,1/2-y,z
1/2+x,1/2-y,-z
1/2-x,1/2+y,-z
1/2-x,1/2-y,-z
1/2+x,1/2+y,-z
1/2-x,1/2+y,z
1/2+x,1/2-y,z
loop_
_atom_site_type_symbol
_atom_site_label
_atom_site_fract_x
_atom_site_fract_y
_atom_site_fract_z
Si Si1 0.670410 0.819644 0.205162
Si Si2 0.416357 0.676073 0.449372
Si Si3 0.171256 0.321032 0.626575
Si Si4 0.173352 0.677795 0.948806
Si Si5 0.918118 0.318979 0.289759
Si Si6 0.584965 0.322287 0.125037
O O1 0.750000 0.750000 0.207256
O O2 0.625444 0.758916 0.247263
O O3 0.629757 0.767936 0.161444
O O4 0.676852 0.000000 0.205197
O O5 0.396651 0.709430 0.500000
O O6 0.500000 0.721082 0.439912
O O7 0.403118 0.500000 0.438153
O O8 0.363914 0.778378 0.420002
O O9 0.179679 0.500000 0.629387
O O10 0.250000 0.250000 0.631794
O O11 0.120873 0.257969 0.666126
O O12 0.175175 0.500000 0.937616
O O13 0.250000 0.750000 0.933909
O O14 0.108496 0.759865 0.922637
O O15 0.158157 0.708643 0.000000
O O16 0.920634 0.500000 0.289807
O O17 0.000000 0.251690 0.288349
O O18 0.500000 0.288293 0.131773
O O19 0.602721 0.500000 0.128415
#
# Coordination Sequence:
#
# PCOD8273720 Si02
#       6
#    16  16  16  16  16  16
#     4  11  22  38  61  85 114 150 187 229 277 331
#     4   9  19  37  59  82 110 144 183 229 281 336
#     4  11  22  36  56  82 114 149 187 231 277 330
#     4  10  21  38  61  87 115 149 190 234 280 334
#     4   9  19  36  58  84 112 144 184 230 279 330
#     4  11  24  40  58  83 116 151 189 234 282 333
#
# _framework density 19.668327000000001
#
# number of rings (size 3 to 8) (size 9 to 14) (size 15 to 20)
#    0.000    1.833    0.000    4.500    0.000    5.000 
#    0.000    5.000    0.000    6.000    0.000    0.000 
#    0.000    0.000    0.000    0.000    0.000    0.000 
#
# Total GULP energy -595433.991676 kJ/mol
# GULP energy per Si atom -12404.874827 kJ/mol
# Density = 1.962356 g / cm^3
# Si number density = 19.668327 Si / 1000 Ang^3
#
#
#
# Elastic Constant Matrix: (Units=GPa)
#
#
# Indices 1 2 3 4 5 6 
#
# 1 158.7061 54.9305 77.8480 0.0000 0.0000 0.0000
# 2 54.9305 75.9574 40.5921 0.0000 0.0000 0.0000
# 3 77.8480 40.5921 119.0817 0.0000 0.0000 0.0000
# 4 0.0000 0.0000 0.0000 24.3910 0.0000 0.0000
# 5 0.0000 0.0000 0.0000 0.0000 42.6377 0.0000
# 6 0.0000 0.0000 0.0000 0.0000 0.0000 -42.8692
#
#
#
# Elastic Compliance Matrix: (Units=1/GPa)
#
#
# Indices 1 2 3 4 5 6 
#
# 1 0.010545 -0.004820 -0.005250 0.000000 0.000000 0.000000
# 2 -0.004820 0.018301 -0.003087 0.000000 0.000000 0.000000
# 3 -0.005250 -0.003087 0.012882 0.000000 0.000000 0.000000
# 4 0.000000 0.000000 0.000000 0.040999 0.000000 0.000000
# 5 0.000000 0.000000 0.000000 0.000000 0.023453 0.000000
# 6 0.000000 0.000000 0.000000 0.000000 0.000000 -0.023327
#
#
# Mechanical properties :
#
#
# Convention : Reuss Voigt Hill
#
# Bulk Modulus (GPa) = 64.88233 77.83183 71.35708
# Shear Modulus (GPa) = 43.74230 16.85686 30.29958
#
# Velocity S-wave (km/s) = 4.72104 2.93073 3.92921
# Velocity P-wave (km/s) = 7.92323 7.14915 7.54612
#
# Compressibility (1/GPa) = 0.01541252
#
# Stress axis : x y z
#
# Youngs Moduli (GPa) = 94.83562 54.64260 77.62497
#
# Poissons Ratio (x) = 0.26336 0.40757
# Poissons Ratio (y) = 0.45708 0.23966
# Poissons Ratio (z) = 0.49793 0.16871
#
# Static dielectric constant tensor:
#      x y z
#    x 3.682840 0.000000 0.000000 
#    y 0.000000 3.468990 0.000000 
#    z 0.000000 0.000000 3.715210 
# 
# 
# High freq. dielectric constant tensor:
#      x y z
#    x 1.776010 0.000000 0.000000 
#    y 0.000000 1.758870 0.000000 
#    z 0.000000 0.000000 1.780850 
# 
# From -- ./inp_files/75360.got.cif
#   From: 2010.03.12/outbox.cif.g09.slc.cpg/sg65_38_cif.got.tgz:75360.got - 2010.04.10 20:52:16.
