data_PCOD8273583
_publ_section_title
;
Structure prediction by ZEFSAII (Michael W. Deem and Ramdas Pophale) SiO2 
 PCOD8273583
Probable space group: C M M M
;
_chemical_formula_sum "Si O2"
_cell_formula_units_Z 72
_cell_length_a 9.703515
_cell_length_b 14.764233
_cell_length_c 23.293264
_cell_angle_alpha 90.000000
_cell_angle_beta 90.000000
_cell_angle_gamma 90.000000
_cell_volume 3337.108451
_symmetry_space_group_name_H-M "C M M M"
_symmetry_group_IT_number 65
_symmetry_cell_setting 'orthorhombic'
loop_
_space_group_symop_operation_xyz
x,y,z
-x,-y,z
x,-y,-z
-x,y,-z
-x,-y,-z
x,y,-z
-x,y,z
x,-y,z
1/2+x,1/2+y,z
1/2-x,1/2-y,z
1/2+x,1/2-y,-z
1/2-x,1/2+y,-z
1/2-x,1/2-y,-z
1/2+x,1/2+y,-z
1/2-x,1/2+y,z
1/2+x,1/2-y,z
loop_
_atom_site_type_symbol
_atom_site_label
_atom_site_fract_x
_atom_site_fract_y
_atom_site_fract_z
Si Si1 0.500000 0.271531 0.230257
Si Si2 0.250000 0.250000 0.307778
Si Si3 0.000000 0.607473 0.847361
Si Si4 0.500000 0.393760 0.880996
Si Si5 0.778840 0.393498 0.062731
Si Si6 0.830936 0.843875 0.500000
Si Si7 0.344303 0.899067 0.395922
O O1 0.366845 0.293353 0.268124
O O2 0.500000 0.165565 0.210997
O O3 0.500000 0.339658 0.177700
O O4 0.315040 0.171411 0.345980
O O5 0.127975 0.641164 0.885356
O O6 0.000000 0.500000 0.832468
O O7 0.500000 0.500000 0.865343
O O8 0.374140 0.365344 0.920972
O O9 0.798737 0.500000 0.058223
O O10 0.816017 0.351480 0.000000
O O11 0.750000 0.750000 0.500000
O O12 0.775619 0.895035 0.556139
O O13 0.000000 0.836838 0.500000
O O14 0.500000 0.879876 0.420463
O O15 0.338887 0.000000 0.369826
#
# Coordination Sequence:
#
# PCOD8273583 Si02
#       7
#     8   8   8   8  16   8  16
#     4  12  26  42  63  87 124 166 228 276 332 380
#     4  12  26  45  66  94 127 178 228 290 330 382
#     4  10  21  38  60  86 119 160 209 263 327 396
#     4  10  21  38  58  84 119 160 203 259 329 398
#     4   9  17  33  59  88 119 155 197 253 325 403
#     4  12  25  42  75 112 152 186 219 267 334 403
#     4  11  25  47  73 105 141 182 227 275 338 401
#
# _framework density 21.575565000000001
#
# number of rings (size 3 to 8) (size 9 to 14) (size 15 to 20)
#    0.000    1.333    2.222    3.333    1.556    6.222 
#    0.000    3.333    0.000    0.000    0.000    0.000 
#    0.000    0.000    0.000    0.000    0.000    0.000 
#
# Total GULP energy -446248.055025 kJ/mol
# GULP energy per Si atom -12395.779306 kJ/mol
# Density = 2.152646 g / cm^3
# Si number density = 21.575565 Si / 1000 Ang^3
#
#
#
# Elastic Constant Matrix: (Units=GPa)
#
#
# Indices 1 2 3 4 5 6 
#
# 1 151.6350 20.8448 26.3042 0.0000 0.0000 0.0000
# 2 20.8448 87.6427 25.7919 0.0000 0.0000 0.0000
# 3 26.3042 25.7919 90.4219 0.0000 0.0000 0.0000
# 4 0.0000 0.0000 0.0000 205.8046 0.0000 0.0000
# 5 0.0000 0.0000 0.0000 0.0000 176.1143 0.0000
# 6 0.0000 0.0000 0.0000 0.0000 0.0000 16.6810
#
#
#
# Elastic Compliance Matrix: (Units=1/GPa)
#
#
# Indices 1 2 3 4 5 6 
#
# 1 0.007054 -0.001172 -0.001718 0.000000 0.000000 0.000000
# 2 -0.001172 0.012650 -0.003267 0.000000 0.000000 0.000000
# 3 -0.001718 -0.003267 0.012491 0.000000 0.000000 0.000000
# 4 0.000000 0.000000 0.000000 0.004859 0.000000 0.000000
# 5 0.000000 0.000000 0.000000 0.000000 0.005678 0.000000
# 6 0.000000 0.000000 0.000000 0.000000 0.000000 0.059949
#
#
# Mechanical properties :
#
#
# Convention : Reuss Voigt Hill
#
# Bulk Modulus (GPa) = 50.30014 52.84238 51.57126
# Shear Modulus (GPa) = 41.11096 96.83721 68.97408
#
# Velocity S-wave (km/s) = 4.36987 6.70673 5.66021
# Velocity P-wave (km/s) = 6.98750 9.19340 8.16528
#
# Compressibility (1/GPa) = 0.01988066
#
# Stress axis : x y z
#
# Youngs Moduli (GPa) = 141.76581 79.04949 80.05814
#
# Poissons Ratio (x) = 0.09266 0.13751
# Poissons Ratio (y) = 0.16618 0.26158
# Poissons Ratio (z) = 0.24350 0.25828
#
# Static dielectric constant tensor:
#      x y z
#    x 4.180300 0.000000 0.000000 
#    y 0.000000 3.792610 0.000000 
#    z 0.000000 0.000000 3.959120 
# 
# 
# High freq. dielectric constant tensor:
#      x y z
#    x 1.863960 0.000000 0.000000 
#    y 0.000000 1.841690 0.000000 
#    z 0.000000 0.000000 1.846210 
# 
# From -- ./inp_files/72675.got.cif
#   From: 2010.03.12/outbox.cif.g09.slc.cpg/sg65_37_cif.got.tgz:72675.got - 2010.04.10 20:52:16.
