data_PCOD8273135
_publ_section_title
;
Structure prediction by ZEFSAII (Michael W. Deem and Ramdas Pophale) SiO2 
 PCOD8273135
Probable space group: C M M M
;
_chemical_formula_sum "Si O2"
_cell_formula_units_Z 80
_cell_length_a 19.069103
_cell_length_b 14.378834
_cell_length_c 14.139006
_cell_angle_alpha 90.000000
_cell_angle_beta 90.000000
_cell_angle_gamma 90.000000
_cell_volume 3876.794791
_symmetry_space_group_name_H-M "C M M M"
_symmetry_group_IT_number 65
_symmetry_cell_setting 'orthorhombic'
loop_
_space_group_symop_operation_xyz
x,y,z
-x,-y,z
x,-y,-z
-x,y,-z
-x,-y,-z
x,y,-z
-x,y,z
x,-y,z
1/2+x,1/2+y,z
1/2-x,1/2-y,z
1/2+x,1/2-y,-z
1/2-x,1/2+y,-z
1/2-x,1/2-y,-z
1/2+x,1/2+y,-z
1/2-x,1/2+y,z
1/2+x,1/2-y,z
loop_
_atom_site_type_symbol
_atom_site_label
_atom_site_fract_x
_atom_site_fract_y
_atom_site_fract_z
Si Si1 0.700050 0.107303 0.390689
Si Si2 0.169330 0.226887 0.105668
Si Si3 0.420879 0.102449 0.112379
Si Si4 0.078931 0.254296 0.610273
Si Si5 0.660166 0.391134 0.281716
O O1 0.719129 0.126797 0.500000
O O2 0.631552 0.163827 0.357901
O O3 0.766005 0.139727 0.328137
O O4 0.682202 0.000000 0.373643
O O5 0.250000 0.250000 0.099748
O O6 0.129286 0.316103 0.151209
O O7 0.157766 0.137795 0.171803
O O8 0.140921 0.203415 0.000000
O O9 0.500000 0.122682 0.146458
O O10 0.396359 0.000000 0.149319
O O11 0.416919 0.101894 0.000000
O O12 0.085914 0.233989 0.500000
O O13 0.097369 0.159018 0.663396
O O14 0.000000 0.285071 0.636871
O O15 0.647564 0.500000 0.290515
#
# Coordination Sequence:
#
# PCOD8273135 Si02
#       5
#    16  16  16  16  16
#     4   9  18  35  61  89 114 143 180 223 276 338
#     4  10  21  36  55  81 113 148 186 231 281 329
#     4   8  15  31  56  82 105 131 168 220 282 340
#     4  10  21  37  59  87 116 144 177 224 281 336
#     4  11  23  38  56  78 110 153 196 233 268 316
#
# _framework density 20.635601999999999
#
# number of rings (size 3 to 8) (size 9 to 14) (size 15 to 20)
#    0.000    2.400    0.000    3.000    0.000    5.600 
#    0.000    6.000    0.000    0.000    0.000    4.200 
#    0.000    0.000    0.000    0.000    0.000    0.000 
#
# Total GULP energy -496033.194632 kJ/mol
# GULP energy per Si atom -12400.829866 kJ/mol
# Density = 2.058863 g / cm^3
# Si number density = 20.635602 Si / 1000 Ang^3
#
#
#
# Elastic Constant Matrix: (Units=GPa)
#
#
# Indices 1 2 3 4 5 6 
#
# 1 102.9524 51.4513 35.1929 0.0000 0.0000 0.0000
# 2 51.4513 103.5085 42.8354 0.0000 0.0000 0.0000
# 3 35.1929 42.8354 75.5547 0.0000 0.0000 0.0000
# 4 0.0000 0.0000 0.0000 35.0470 0.0000 0.0000
# 5 0.0000 0.0000 0.0000 0.0000 28.5769 0.0000
# 6 0.0000 0.0000 0.0000 0.0000 0.0000 30.6339
#
#
#
# Elastic Compliance Matrix: (Units=1/GPa)
#
#
# Indices 1 2 3 4 5 6 
#
# 1 0.013507 -0.005370 -0.003247 0.000000 0.000000 0.000000
# 2 -0.005370 0.014758 -0.005865 0.000000 0.000000 0.000000
# 3 -0.003247 -0.005865 0.018073 0.000000 0.000000 0.000000
# 4 0.000000 0.000000 0.000000 0.028533 0.000000 0.000000
# 5 0.000000 0.000000 0.000000 0.000000 0.034993 0.000000
# 6 0.000000 0.000000 0.000000 0.000000 0.000000 0.032644
#
#
# Mechanical properties :
#
#
# Convention : Reuss Voigt Hill
#
# Bulk Modulus (GPa) = 57.56095 60.10830 58.83463
# Shear Modulus (GPa) = 28.20653 29.02061 28.61357
#
# Velocity S-wave (km/s) = 3.70115 3.75418 3.72776
# Velocity P-wave (km/s) = 6.79848 6.92702 6.86305
#
# Compressibility (1/GPa) = 0.01737289
#
# Stress axis : x y z
#
# Youngs Moduli (GPa) = 74.03593 67.76081 55.33078
#
# Poissons Ratio (x) = 0.36390 0.17965
# Poissons Ratio (y) = 0.39760 0.32454
# Poissons Ratio (z) = 0.24038 0.39744
#
# Static dielectric constant tensor:
#      x y z
#    x 3.785500 0.000000 0.000000 
#    y 0.000000 3.827950 0.000000 
#    z 0.000000 0.000000 3.816940 
# 
# 
# High freq. dielectric constant tensor:
#      x y z
#    x 1.799180 0.000000 0.000000 
#    y 0.000000 1.802150 0.000000 
#    z 0.000000 0.000000 1.809000 
# 
# From -- ./inp_files/43898.got.cif
#   From: 2010.03.12/outbox.cif.g09.slc.cpg/sg65_22_cif.got.tgz:43898.got - 2010.04.10 20:52:16.
