data_PCOD8273415
_publ_section_title
;
Structure prediction by ZEFSAII (Michael W. Deem and Ramdas Pophale) SiO2 
 PCOD8273415
Probable space group: C M M M
;
_chemical_formula_sum "Si O2"
_cell_formula_units_Z 104
_cell_length_a 20.525528
_cell_length_b 9.068561
_cell_length_c 29.946061
_cell_angle_alpha 90.000000
_cell_angle_beta 90.000000
_cell_angle_gamma 90.000000
_cell_volume 5574.070038
_symmetry_space_group_name_H-M "C M M M"
_symmetry_group_IT_number 65
_symmetry_cell_setting 'orthorhombic'
loop_
_space_group_symop_operation_xyz
x,y,z
-x,-y,z
x,-y,-z
-x,y,-z
-x,-y,-z
x,y,-z
-x,y,z
x,-y,z
1/2+x,1/2+y,z
1/2-x,1/2-y,z
1/2+x,1/2-y,-z
1/2-x,1/2+y,-z
1/2-x,1/2-y,-z
1/2+x,1/2+y,-z
1/2-x,1/2+y,z
1/2+x,1/2-y,z
loop_
_atom_site_type_symbol
_atom_site_label
_atom_site_fract_x
_atom_site_fract_y
_atom_site_fract_z
Si Si1 0.000000 0.835782 0.552414
Si Si2 0.926310 0.826961 0.301844
Si Si3 0.313254 0.675017 0.631628
Si Si4 0.072763 0.675916 0.116983
Si Si5 0.683852 0.826497 0.051173
Si Si6 0.422815 0.837419 0.214783
Si Si7 0.630243 0.826371 0.448275
O O1 0.937908 0.743312 0.567447
O O2 0.000000 0.857214 0.500000
O O3 0.000000 0.000000 0.575114
O O4 0.877566 0.777922 0.341007
O O5 0.898510 0.764058 0.255250
O O6 0.000000 0.770216 0.312734
O O7 0.926454 0.000000 0.296238
O O8 0.304777 0.500000 0.628628
O O9 0.250000 0.750000 0.654661
O O10 0.316370 0.745336 0.581989
O O11 0.070251 0.500000 0.116826
O O12 0.123586 0.735268 0.080285
O O13 0.096953 0.728640 0.166235
O O14 0.000000 0.737058 0.106068
O O15 0.750000 0.750000 0.067771
O O16 0.692535 0.000000 0.057588
O O17 0.668892 0.784861 0.000000
O O18 0.500000 0.848709 0.215590
O O19 0.392196 0.000000 0.221448
O O20 0.645522 0.792252 0.500000
O O21 0.628920 0.000000 0.439057
#
# Coordination Sequence:
#
# PCOD8273415 Si02
#       7
#     8  16  16  16  16  16  16
#     4   9  17  31  53  81 111 141 173 211 255 299
#     4   9  19  36  57  80 104 132 168 210 255 306
#     4  11  24  40  58  79 108 142 175 214 262 313
#     4   8  14  26  46  72  98 123 160 210 255 296
#     4   9  17  29  45  65  93 131 170 208 251 298
#     4   8  14  27  49  75 100 127 160 202 252 303
#     4  10  21  37  57  82 111 141 176 218 260 305
#
# _framework density 18.657820999999998
#
# number of rings (size 3 to 8) (size 9 to 14) (size 15 to 20)
#    0.000    2.846    0.000    2.077    1.077    3.692 
#    0.000    3.077    0.000    5.077    0.000    2.154 
#    0.000    0.000    0.000    0.000    0.000    0.000 
#
# Total GULP energy -644545.741134 kJ/mol
# GULP energy per Si atom -12395.110406 kJ/mol
# Density = 1.861535 g / cm^3
# Si number density = 18.657821 Si / 1000 Ang^3
#
#
#
# Elastic Constant Matrix: (Units=GPa)
#
#
# Indices 1 2 3 4 5 6 
#
# 1 111.8884 40.2554 69.2393 0.0000 0.0000 0.0000
# 2 40.2554 54.0541 41.0280 0.0000 0.0000 0.0000
# 3 69.2393 41.0280 116.6267 0.0000 0.0000 0.0000
# 4 0.0000 0.0000 0.0000 23.9956 0.0000 0.0000
# 5 0.0000 0.0000 0.0000 0.0000 15.2557 0.0000
# 6 0.0000 0.0000 0.0000 0.0000 0.0000 27.6377
#
#
#
# Elastic Compliance Matrix: (Units=1/GPa)
#
#
# Indices 1 2 3 4 5 6 
#
# 1 0.015527 -0.006230 -0.007026 0.000000 0.000000 0.000000
# 2 -0.006230 0.027739 -0.006060 0.000000 0.000000 0.000000
# 3 -0.007026 -0.006060 0.014878 0.000000 0.000000 0.000000
# 4 0.000000 0.000000 0.000000 0.041674 0.000000 0.000000
# 5 0.000000 0.000000 0.000000 0.000000 0.065549 0.000000
# 6 0.000000 0.000000 0.000000 0.000000 0.000000 0.036182
#
#
# Mechanical properties :
#
#
# Convention : Reuss Voigt Hill
#
# Bulk Modulus (GPa) = 51.25231 64.84605 58.04918
# Shear Modulus (GPa) = 20.26868 22.18090 21.22479
#
# Velocity S-wave (km/s) = 3.29954 3.45168 3.37646
# Velocity P-wave (km/s) = 6.48423 7.12154 6.81034
#
# Compressibility (1/GPa) = 0.01951131
#
# Stress axis : x y z
#
# Youngs Moduli (GPa) = 64.40331 36.05023 67.21538
#
# Poissons Ratio (x) = 0.22460 0.47229
# Poissons Ratio (y) = 0.40125 0.40729
# Poissons Ratio (z) = 0.45253 0.21845
#
# Static dielectric constant tensor:
#      x y z
#    x 3.539480 0.000000 0.000000 
#    y 0.000000 3.302660 0.000000 
#    z 0.000000 0.000000 3.634840 
# 
# 
# High freq. dielectric constant tensor:
#      x y z
#    x 1.709840 0.000000 0.000000 
#    y 0.000000 1.706160 0.000000 
#    z 0.000000 0.000000 1.723040 
# 
# From -- ./inp_files/78236.got.cif
#   From: 2010.03.12/outbox.cif.g09.slc.cpg/sg65_40_cif.got.tgz:78236.got - 2010.04.10 20:52:16.
