data_PCOD8273951
_publ_section_title
;
Structure prediction by ZEFSAII (Michael W. Deem and Ramdas Pophale) SiO2 
 PCOD8273951
Probable space group: C M M M
;
_chemical_formula_sum "Si O2"
_cell_formula_units_Z 112
_cell_length_a 31.288767
_cell_length_b 17.469079
_cell_length_c 10.548293
_cell_angle_alpha 90.000000
_cell_angle_beta 90.000000
_cell_angle_gamma 90.000000
_cell_volume 5765.548672
_symmetry_space_group_name_H-M "C M M M"
_symmetry_group_IT_number 65
_symmetry_cell_setting 'orthorhombic'
loop_
_space_group_symop_operation_xyz
x,y,z
-x,-y,z
x,-y,-z
-x,y,-z
-x,-y,-z
x,y,-z
-x,y,z
x,-y,z
1/2+x,1/2+y,z
1/2-x,1/2-y,z
1/2+x,1/2-y,-z
1/2-x,1/2+y,-z
1/2-x,1/2-y,-z
1/2+x,1/2+y,-z
1/2-x,1/2+y,z
1/2+x,1/2-y,z
loop_
_atom_site_type_symbol
_atom_site_label
_atom_site_fract_x
_atom_site_fract_y
_atom_site_fract_z
Si Si1 0.886246 0.692155 0.219878
Si Si2 0.162237 0.824591 0.643419
Si Si3 0.952885 0.192104 0.863053
Si Si4 0.421900 0.411516 0.642859
Si Si5 0.185857 0.412150 0.139954
Si Si6 0.047510 0.414792 0.350777
Si Si7 0.246845 0.910589 0.352266
O O1 0.852334 0.748664 0.285296
O O2 0.917979 0.741056 0.133517
O O3 0.858415 0.634053 0.137641
O O4 0.915920 0.645679 0.316615
O O5 0.168083 0.798910 0.500000
O O6 0.127906 0.892420 0.658103
O O7 0.206755 0.859571 0.692568
O O8 0.948676 0.134546 0.745915
O O9 0.000000 0.228870 0.851623
O O10 0.948290 0.149428 0.000000
O O11 0.437265 0.389642 0.500000
O O12 0.429322 0.500000 0.669519
O O13 0.173879 0.500000 0.162367
O O14 0.215770 0.384814 0.256200
O O15 0.207432 0.400973 0.000000
O O16 0.046234 0.418102 0.500000
O O17 0.058581 0.500000 0.297869
O O18 0.000000 0.390317 0.301088
O O19 0.259516 0.894928 0.500000
O O20 0.235703 0.000000 0.334130
#
# Coordination Sequence:
#
# PCOD8273951 Si02
#       7
#    16  16  16  16  16  16  16
#     4  11  20  34  54  77 104 141 180 219 262 319
#     4   9  18  32  53  82 112 141 174 215 262 309
#     4  10  22  38  54  75 106 143 180 219 266 318
#     4   9  18  34  57  83 109 139 179 224 265 309
#     4  10  22  39  57  78 105 137 174 219 269 315
#     4   9  18  32  51  78 111 144 179 223 274 323
#     4   9  18  35  58  80 104 137 176 215 256 308
#
# _framework density 19.425730999999999
#
# number of rings (size 3 to 8) (size 9 to 14) (size 15 to 20)
#    0.000    2.429    0.000    2.571    0.000    4.857 
#    0.000    8.571    0.000    3.429    0.000    6.000 
#    0.000    0.000    0.000    0.000    0.000    0.000 
#
# Total GULP energy -693940.802757 kJ/mol
# GULP energy per Si atom -12391.800049 kJ/mol
# Density = 1.938152 g / cm^3
# Si number density = 19.425731 Si / 1000 Ang^3
#
#
#
# Elastic Constant Matrix: (Units=GPa)
#
#
# Indices 1 2 3 4 5 6 
#
# 1 118.5049 57.8817 63.0603 0.0000 0.0000 0.0000
# 2 57.8817 89.1174 49.5692 0.0000 0.0000 0.0000
# 3 63.0603 49.5692 114.3296 0.0000 0.0000 0.0000
# 4 0.0000 0.0000 0.0000 17.0610 0.0000 0.0000
# 5 0.0000 0.0000 0.0000 0.0000 18.2584 0.0000
# 6 0.0000 0.0000 0.0000 0.0000 0.0000 21.0599
#
#
#
# Elastic Compliance Matrix: (Units=1/GPa)
#
#
# Indices 1 2 3 4 5 6 
#
# 1 0.014300 -0.006458 -0.005087 0.000000 0.000000 0.000000
# 2 -0.006458 0.017704 -0.004114 0.000000 0.000000 0.000000
# 3 -0.005087 -0.004114 0.013336 0.000000 0.000000 0.000000
# 4 0.000000 0.000000 0.000000 0.058613 0.000000 0.000000
# 5 0.000000 0.000000 0.000000 0.000000 0.054769 0.000000
# 6 0.000000 0.000000 0.000000 0.000000 0.000000 0.047484
#
#
# Mechanical properties :
#
#
# Convention : Reuss Voigt Hill
#
# Bulk Modulus (GPa) = 71.31808 73.66382 72.49095
# Shear Modulus (GPa) = 20.64424 21.37190 21.00807
#
# Velocity S-wave (km/s) = 3.26348 3.32050 3.29212
# Velocity P-wave (km/s) = 7.14096 7.25976 7.20060
#
# Compressibility (1/GPa) = 0.01402169
#
# Stress axis : x y z
#
# Youngs Moduli (GPa) = 69.93012 56.48500 74.98387
#
# Poissons Ratio (x) = 0.36479 0.38147
# Poissons Ratio (y) = 0.45162 0.30846
# Poissons Ratio (z) = 0.35576 0.23236
#
# Static dielectric constant tensor:
#      x y z
#    x 3.617170 0.000000 0.000000 
#    y 0.000000 3.564390 0.000000 
#    z 0.000000 0.000000 3.503560 
# 
# 
# High freq. dielectric constant tensor:
#      x y z
#    x 1.757130 0.000000 0.000000 
#    y 0.000000 1.753310 0.000000 
#    z 0.000000 0.000000 1.748780 
# 
# From -- ./inp_files/33981.got.cif
#   From: 2010.03.12/outbox.cif.g09.slc.cpg/sg65_17_cif.got.tgz:33981.got - 2010.04.10 20:52:16.
