data_PCOD8273839
_publ_section_title
;
Structure prediction by ZEFSAII (Michael W. Deem and Ramdas Pophale) SiO2 
 PCOD8273839
Probable space group: C M M M
;
_chemical_formula_sum "Si O2"
_cell_formula_units_Z 68
_cell_length_a 22.287938
_cell_length_b 16.477324
_cell_length_c 9.166055
_cell_angle_alpha 90.000000
_cell_angle_beta 90.000000
_cell_angle_gamma 90.000000
_cell_volume 3366.193146
_symmetry_space_group_name_H-M "C M M M"
_symmetry_group_IT_number 65
_symmetry_cell_setting 'orthorhombic'
loop_
_space_group_symop_operation_xyz
x,y,z
-x,-y,z
x,-y,-z
-x,y,-z
-x,-y,-z
x,y,-z
-x,y,z
x,-y,z
1/2+x,1/2+y,z
1/2-x,1/2-y,z
1/2+x,1/2-y,-z
1/2-x,1/2+y,-z
1/2-x,1/2-y,-z
1/2+x,1/2+y,-z
1/2-x,1/2+y,z
1/2+x,1/2-y,z
loop_
_atom_site_type_symbol
_atom_site_label
_atom_site_fract_x
_atom_site_fract_y
_atom_site_fract_z
Si Si1 0.322041 0.905657 0.830726
Si Si2 0.500000 0.320380 0.333020
Si Si3 0.131147 0.000000 0.160861
Si Si4 0.699866 0.631401 0.667960
Si Si5 0.114782 0.725776 0.667575
Si Si6 0.500000 0.500000 0.770105
O O1 0.262621 0.879693 0.746421
O O2 0.377621 0.855000 0.764604
O O3 0.335885 0.000000 0.806349
O O4 0.313926 0.884584 0.000000
O O5 0.500000 0.297349 0.500000
O O6 0.440286 0.278630 0.265776
O O7 0.500000 0.417681 0.324032
O O8 0.149812 0.078102 0.252161
O O9 0.059792 0.000000 0.133186
O O10 0.161915 0.000000 0.000000
O O11 0.705805 0.603616 0.500000
O O12 0.676828 0.723556 0.677903
O O13 0.103172 0.700631 0.500000
#
# Coordination Sequence:
#
# PCOD8273839 Si02
#       6
#    16   8   8  16  16   4
#     4  11  24  41  61  88 122 160 201 251 311 368
#     4  10  21  39  64  93 123 158 205 252 299 357
#     4  12  24  37  56  91 132 168 205 245 293 360
#     4  11  22  38  63  92 122 160 204 251 301 359
#     4  10  22  40  62  91 121 156 204 253 302 361
#     4  12  22  40  62  90 129 172 199 246 291 362
#
# _framework density 20.200859000000001
#
# number of rings (size 3 to 8) (size 9 to 14) (size 15 to 20)
#    0.000    1.176    3.529    2.824    0.000    7.059 
#    0.000    1.176    0.000    3.529    0.000    0.000 
#    0.000    0.000    0.000    0.000    0.000    0.000 
#
# Total GULP energy -421553.973792 kJ/mol
# GULP energy per Si atom -12398.646288 kJ/mol
# Density = 2.015488 g / cm^3
# Si number density = 20.200859 Si / 1000 Ang^3
#
#
#
# Elastic Constant Matrix: (Units=GPa)
#
#
# Indices 1 2 3 4 5 6 
#
# 1 101.4457 62.5549 42.2587 0.0000 0.0000 0.0000
# 2 62.5549 124.8743 67.1733 0.0000 0.0000 0.0000
# 3 42.2587 67.1733 132.0784 0.0000 0.0000 0.0000
# 4 0.0000 0.0000 0.0000 16.0086 0.0000 0.0000
# 5 0.0000 0.0000 0.0000 0.0000 17.1853 0.0000
# 6 0.0000 0.0000 0.0000 0.0000 0.0000 32.0579
#
#
#
# Elastic Compliance Matrix: (Units=1/GPa)
#
#
# Indices 1 2 3 4 5 6 
#
# 1 0.014422 -0.006529 -0.001294 0.000000 0.000000 0.000000
# 2 -0.006529 0.013979 -0.005021 0.000000 0.000000 0.000000
# 3 -0.001294 -0.005021 0.010539 0.000000 0.000000 0.000000
# 4 0.000000 0.000000 0.000000 0.062466 0.000000 0.000000
# 5 0.000000 0.000000 0.000000 0.000000 0.058189 0.000000
# 6 0.000000 0.000000 0.000000 0.000000 0.000000 0.031194
#
#
# Mechanical properties :
#
#
# Convention : Reuss Voigt Hill
#
# Bulk Modulus (GPa) = 75.45238 78.04136 76.74687
# Shear Modulus (GPa) = 22.63519 25.47778 24.05649
#
# Velocity S-wave (km/s) = 3.35103 3.55522 3.45463
# Velocity P-wave (km/s) = 7.23911 7.45449 7.34759
#
# Compressibility (1/GPa) = 0.01325339
#
# Stress axis : x y z
#
# Youngs Moduli (GPa) = 69.33681 71.53369 94.88699
#
# Poissons Ratio (x) = 0.46702 0.12279
# Poissons Ratio (y) = 0.45268 0.47642
# Poissons Ratio (z) = 0.08973 0.35916
#
# Static dielectric constant tensor:
#      x y z
#    x 3.770340 0.000000 0.000000 
#    y 0.000000 3.826660 0.000000 
#    z 0.000000 0.000000 3.605820 
# 
# 
# High freq. dielectric constant tensor:
#      x y z
#    x 1.784490 0.000000 0.000000 
#    y 0.000000 1.790370 0.000000 
#    z 0.000000 0.000000 1.783660 
# 
# From -- ./inp_files/10987.got.cif
#   From: 2010.03.12/outbox.cif.g09.slc.cpg/sg65_6_cif.got.tgz:10987.got - 2010.04.10 20:52:16.
