data_PCOD8273855
_publ_section_title
;
Structure prediction by ZEFSAII (Michael W. Deem and Ramdas Pophale) SiO2 
 PCOD8273855
Probable space group: C M M M
;
_chemical_formula_sum "Si O2"
_cell_formula_units_Z 104
_cell_length_a 25.124112
_cell_length_b 23.976493
_cell_length_c 9.110581
_cell_angle_alpha 90.000000
_cell_angle_beta 90.000000
_cell_angle_gamma 90.000000
_cell_volume 5488.105537
_symmetry_space_group_name_H-M "C M M M"
_symmetry_group_IT_number 65
_symmetry_cell_setting 'orthorhombic'
loop_
_space_group_symop_operation_xyz
x,y,z
-x,-y,z
x,-y,-z
-x,y,-z
-x,-y,-z
x,y,-z
-x,y,z
x,-y,z
1/2+x,1/2+y,z
1/2-x,1/2-y,z
1/2+x,1/2-y,-z
1/2-x,1/2+y,-z
1/2-x,1/2-y,-z
1/2+x,1/2+y,-z
1/2-x,1/2+y,z
1/2+x,1/2-y,z
loop_
_atom_site_type_symbol
_atom_site_label
_atom_site_fract_x
_atom_site_fract_y
_atom_site_fract_z
Si Si1 0.689187 0.741048 0.659346
Si Si2 0.840324 0.115969 0.326763
Si Si3 0.562372 0.000000 0.341929
Si Si4 0.157246 0.343775 0.829366
Si Si5 0.560915 0.435295 0.829007
Si Si6 0.758229 0.563932 0.828294
Si Si7 0.059333 0.618654 0.675039
O O1 0.660330 0.752796 0.500000
O O2 0.750000 0.750000 0.625165
O O3 0.674284 0.679362 0.714891
O O4 0.678391 0.782877 0.792519
O O5 0.839593 0.106203 0.500000
O O6 0.898950 0.102153 0.265766
O O7 0.796753 0.075248 0.255314
O O8 0.575682 0.057439 0.257969
O O9 0.500000 0.000000 0.373564
O O10 0.591909 0.000000 0.500000
O O11 0.196053 0.393309 0.771683
O O12 0.101152 0.340365 0.745801
O O13 0.147398 0.350885 0.000000
O O14 0.500000 0.418990 0.788907
O O15 0.570832 0.500000 0.791980
O O16 0.571611 0.423979 0.000000
O O17 0.776282 0.500000 0.797150
O O18 0.747720 0.573712 0.000000
O O19 0.063321 0.617667 0.500000
O O20 0.000000 0.636265 0.723966
#
# Coordination Sequence:
#
# PCOD8273855 Si02
#       7
#    16  16   8  16  16  16  16
#     4  10  21  40  60  78 108 148 189 233 281 333
#     4  11  22  36  59  88 113 143 188 240 285 326
#     4   7  12  26  49  75  99 131 177 217 254 311
#     4  11  23  36  56  83 110 144 187 232 277 329
#     4   9  19  37  60  86 120 161 194 222 273 345
#     4  10  22  38  54  78 116 154 182 218 276 341
#     4   9  18  34  55  77 105 142 181 222 271 326
#
# _framework density 18.950073
#
# number of rings (size 3 to 8) (size 9 to 14) (size 15 to 20)
#    0.000    2.231    1.538    2.769    1.077    5.231 
#    0.000    1.538    0.000    2.308    0.000    0.000 
#    0.000    0.000    0.000    0.000    0.000    0.000 
#
# Total GULP energy -644361.326713 kJ/mol
# GULP energy per Si atom -12391.563975 kJ/mol
# Density = 1.890694 g / cm^3
# Si number density = 18.950073 Si / 1000 Ang^3
#
#
#
# Elastic Constant Matrix: (Units=GPa)
#
#
# Indices 1 2 3 4 5 6 
#
# 1 111.5618 45.6248 43.5559 0.0000 0.0000 0.0000
# 2 45.6248 105.9784 35.5299 0.0000 0.0000 0.0000
# 3 43.5559 35.5299 57.0157 0.0000 0.0000 0.0000
# 4 0.0000 0.0000 0.0000 34.4813 0.0000 0.0000
# 5 0.0000 0.0000 0.0000 0.0000 42.5049 0.0000
# 6 0.0000 0.0000 0.0000 0.0000 0.0000 28.8394
#
#
#
# Elastic Compliance Matrix: (Units=1/GPa)
#
#
# Indices 1 2 3 4 5 6 
#
# 1 0.013475 -0.002971 -0.008443 0.000000 0.000000 0.000000
# 2 -0.002971 0.012583 -0.005572 0.000000 0.000000 0.000000
# 3 -0.008443 -0.005572 0.027461 0.000000 0.000000 0.000000
# 4 0.000000 0.000000 0.000000 0.029001 0.000000 0.000000
# 5 0.000000 0.000000 0.000000 0.000000 0.023527 0.000000
# 6 0.000000 0.000000 0.000000 0.000000 0.000000 0.034675
#
#
# Mechanical properties :
#
#
# Convention : Reuss Voigt Hill
#
# Bulk Modulus (GPa) = 51.15537 58.21969 54.68753
# Shear Modulus (GPa) = 27.59285 31.15481 29.37383
#
# Velocity S-wave (km/s) = 3.82000 4.05908 3.94136
# Velocity P-wave (km/s) = 6.81982 7.26344 7.04512
#
# Compressibility (1/GPa) = 0.01954829
#
# Stress axis : x y z
#
# Youngs Moduli (GPa) = 74.21360 79.47420 36.41579
#
# Poissons Ratio (x) = 0.23608 0.30744
# Poissons Ratio (y) = 0.22046 0.20290
# Poissons Ratio (z) = 0.62655 0.44281
#
# Static dielectric constant tensor:
#      x y z
#    x 3.432590 0.000000 0.000000 
#    y 0.000000 3.539880 0.000000 
#    z 0.000000 0.000000 3.272690 
# 
# 
# High freq. dielectric constant tensor:
#      x y z
#    x 1.732900 0.000000 0.000000 
#    y 0.000000 1.732010 0.000000 
#    z 0.000000 0.000000 1.724390 
# 
# From -- ./inp_files/16799.got.cif
#   From: 2010.03.12/outbox.cif.g09.slc.cpg/sg65_9_cif.got.tgz:16799.got - 2010.04.10 20:52:16.
