data_PCOD8273859
_publ_section_title
;
Structure prediction by ZEFSAII (Michael W. Deem and Ramdas Pophale) SiO2 
 PCOD8273859
Probable space group: C M M M
;
_chemical_formula_sum "Si O2"
_cell_formula_units_Z 104
_cell_length_a 20.648081
_cell_length_b 29.137194
_cell_length_c 9.177921
_cell_angle_alpha 90.000000
_cell_angle_beta 90.000000
_cell_angle_gamma 90.000000
_cell_volume 5521.686379
_symmetry_space_group_name_H-M "C M M M"
_symmetry_group_IT_number 65
_symmetry_cell_setting 'orthorhombic'
loop_
_space_group_symop_operation_xyz
x,y,z
-x,-y,z
x,-y,-z
-x,y,-z
-x,-y,-z
x,y,-z
-x,y,z
x,-y,z
1/2+x,1/2+y,z
1/2-x,1/2-y,z
1/2+x,1/2-y,-z
1/2-x,1/2+y,-z
1/2-x,1/2-y,-z
1/2+x,1/2+y,-z
1/2-x,1/2+y,z
1/2+x,1/2-y,z
loop_
_atom_site_type_symbol
_atom_site_label
_atom_site_fract_x
_atom_site_fract_y
_atom_site_fract_z
Si Si1 0.140197 0.552745 0.173813
Si Si2 0.500000 0.054091 0.841529
Si Si3 0.853801 0.127779 0.168270
Si Si4 0.925326 0.947420 0.664515
Si Si5 0.776685 0.372167 0.667593
Si Si6 0.816688 0.271448 0.666937
Si Si7 0.573056 0.719440 0.168821
O O1 0.156267 0.500000 0.214705
O O2 0.192173 0.585209 0.248639
O O3 0.068221 0.566998 0.236360
O O4 0.142185 0.559159 0.000000
O O5 0.500000 0.000000 0.864957
O O6 0.500000 0.077995 0.000000
O O7 0.882645 0.079714 0.220062
O O8 0.791780 0.140403 0.262924
O O9 0.907044 0.166862 0.195072
O O10 0.833668 0.123733 0.000000
O O11 0.913161 0.929455 0.500000
O O12 0.000000 0.941684 0.706785
O O13 0.903891 0.000000 0.676159
O O14 0.767266 0.386351 0.500000
O O15 0.819431 0.326410 0.682305
O O16 0.822021 0.255547 0.500000
O O17 0.750000 0.250000 0.732618
O O18 0.879292 0.253710 0.749964
O O19 0.500000 0.725824 0.228358
O O20 0.576764 0.732153 0.000000
#
# Coordination Sequence:
#
# PCOD8273859 Si02
#       7
#    16   8  16  16  16  16  16
#     4   9  18  35  59  85 113 146 186 230 279 337
#     4   7  12  28  55  81 105 139 181 223 269 327
#     4  11  22  36  57  83 112 146 187 233 281 333
#     4   9  19  36  56  79 110 148 188 229 275 328
#     4  11  23  38  57  82 113 148 188 231 278 332
#     4  10  21  40  62  83 112 151 193 234 278 334
#     4  10  22  39  60  88 117 144 183 235 286 338
#
# _framework density 18.834824999999999
#
# number of rings (size 3 to 8) (size 9 to 14) (size 15 to 20)
#    0.000    2.231    1.538    2.769    0.000    4.615 
#    1.385    1.154    0.000    1.385    0.000    0.000 
#    0.000    0.000    0.000    0.000    0.000    0.000 
#
# Total GULP energy -644695.174410 kJ/mol
# GULP energy per Si atom -12397.984123 kJ/mol
# Density = 1.879196 g / cm^3
# Si number density = 18.834825 Si / 1000 Ang^3
#
#
#
# Elastic Constant Matrix: (Units=GPa)
#
#
# Indices 1 2 3 4 5 6 
#
# 1 129.8522 46.8368 52.1234 0.0000 0.0000 0.0000
# 2 46.8368 82.2297 45.7496 0.0000 0.0000 0.0000
# 3 52.1234 45.7496 74.2290 0.0000 0.0000 0.0000
# 4 0.0000 0.0000 0.0000 30.5212 0.0000 0.0000
# 5 0.0000 0.0000 0.0000 0.0000 29.5099 0.0000
# 6 0.0000 0.0000 0.0000 0.0000 0.0000 32.3232
#
#
#
# Elastic Compliance Matrix: (Units=1/GPa)
#
#
# Indices 1 2 3 4 5 6 
#
# 1 0.011205 -0.003051 -0.005988 0.000000 0.000000 0.000000
# 2 -0.003051 0.019338 -0.009776 0.000000 0.000000 0.000000
# 3 -0.005988 -0.009776 0.023702 0.000000 0.000000 0.000000
# 4 0.000000 0.000000 0.000000 0.032764 0.000000 0.000000
# 5 0.000000 0.000000 0.000000 0.000000 0.033887 0.000000
# 6 0.000000 0.000000 0.000000 0.000000 0.000000 0.030938
#
#
# Mechanical properties :
#
#
# Convention : Reuss Voigt Hill
#
# Bulk Modulus (GPa) = 60.18660 63.97002 62.07831
# Shear Modulus (GPa) = 25.64084 27.91094 26.77589
#
# Velocity S-wave (km/s) = 3.69365 3.85370 3.77452
# Velocity P-wave (km/s) = 7.08626 7.33749 7.21297
#
# Compressibility (1/GPa) = 0.01661499
#
# Stress axis : x y z
#
# Youngs Moduli (GPa) = 89.24576 51.71190 42.19078
#
# Poissons Ratio (x) = 0.15776 0.25263
# Poissons Ratio (y) = 0.27227 0.41247
# Poissons Ratio (z) = 0.53439 0.50555
#
# Static dielectric constant tensor:
#      x y z
#    x 3.578710 0.000000 0.000000 
#    y 0.000000 3.323770 0.000000 
#    z 0.000000 0.000000 3.335260 
# 
# 
# High freq. dielectric constant tensor:
#      x y z
#    x 1.737140 0.000000 0.000000 
#    y 0.000000 1.726760 0.000000 
#    z 0.000000 0.000000 1.719390 
# 
# From -- ./inp_files/12808.got.cif
#   From: 2010.03.12/outbox.cif.g09.slc.cpg/sg65_7_cif.got.tgz:12808.got - 2010.04.10 20:52:16.
