data_PCOD8273078
_publ_section_title
;
Structure prediction by ZEFSAII (Michael W. Deem and Ramdas Pophale) SiO2 
 PCOD8273078
Probable space group: C M M M
;
_chemical_formula_sum "Si O2"
_cell_formula_units_Z 88
_cell_length_a 17.860512
_cell_length_b 27.315971
_cell_length_c 9.099818
_cell_angle_alpha 90.000000
_cell_angle_beta 90.000000
_cell_angle_gamma 90.000000
_cell_volume 4439.593980
_symmetry_space_group_name_H-M "C M M M"
_symmetry_group_IT_number 65
_symmetry_cell_setting 'orthorhombic'
loop_
_space_group_symop_operation_xyz
x,y,z
-x,-y,z
x,-y,-z
-x,y,-z
-x,-y,-z
x,y,-z
-x,y,z
x,-y,z
1/2+x,1/2+y,z
1/2-x,1/2-y,z
1/2+x,1/2-y,-z
1/2-x,1/2+y,-z
1/2-x,1/2-y,-z
1/2+x,1/2+y,-z
1/2-x,1/2+y,z
1/2+x,1/2-y,z
loop_
_atom_site_type_symbol
_atom_site_label
_atom_site_fract_x
_atom_site_fract_y
_atom_site_fract_z
Si Si1 0.282887 0.445473 0.663702
Si Si2 0.676433 0.222416 0.327821
Si Si3 0.500000 0.941609 0.824386
Si Si4 0.360416 0.113803 0.675798
Si Si5 0.915199 0.093629 0.827327
Si Si6 0.087317 0.187443 0.661030
O O1 0.306118 0.428845 0.500000
O O2 0.250587 0.500000 0.664406
O O3 0.216467 0.412016 0.724112
O O4 0.357575 0.445379 0.762707
O O5 0.688878 0.214650 0.500000
O O6 0.750000 0.250000 0.261428
O O7 0.652245 0.169414 0.264615
O O8 0.608744 0.258495 0.285917
O O9 0.572090 0.913907 0.757418
O O10 0.500000 0.000000 0.783152
O O11 0.500000 0.935450 0.000000
O O12 0.374753 0.111274 0.500000
O O13 0.884893 0.146526 0.774416
O O14 0.000000 0.082892 0.771372
O O15 0.912731 0.091581 0.000000
O O16 0.123969 0.177253 0.500000
O O17 0.000000 0.185220 0.647852
#
# Coordination Sequence:
#
# PCOD8273078 Si02
#       6
#    16  16   8  16  16  16
#     4  10  21  37  58  84 111 142 186 239 295 349
#     4   9  17  30  53  85 115 142 178 228 282 337
#     4  11  25  43  61  85 121 163 205 251 306 363
#     4  10  21  38  64  91 116 148 194 247 297 351
#     4  10  21  36  54  79 112 151 193 233 278 338
#     4   9  17  30  51  76 105 141 180 220 266 321
#
# _framework density 19.821634
#
# number of rings (size 3 to 8) (size 9 to 14) (size 15 to 20)
#    0.000    2.273    0.000    2.455    1.273    6.909 
#    0.000    2.727    0.000    2.182    0.000    0.000 
#    0.000    0.000    0.000    0.000    0.000    0.000 
#
# Total GULP energy -545236.247304 kJ/mol
# GULP energy per Si atom -12391.732893 kJ/mol
# Density = 1.977652 g / cm^3
# Si number density = 19.821634 Si / 1000 Ang^3
#
#
#
# Elastic Constant Matrix: (Units=GPa)
#
#
# Indices 1 2 3 4 5 6 
#
# 1 99.9760 50.6730 43.8596 0.0000 0.0000 0.0000
# 2 50.6730 120.2205 22.9261 0.0000 0.0000 0.0000
# 3 43.8596 22.9261 50.2450 0.0000 0.0000 0.0000
# 4 0.0000 0.0000 0.0000 52.9151 0.0000 0.0000
# 5 0.0000 0.0000 0.0000 0.0000 20.5536 0.0000
# 6 0.0000 0.0000 0.0000 0.0000 0.0000 39.5923
#
#
#
# Elastic Compliance Matrix: (Units=1/GPa)
#
#
# Indices 1 2 3 4 5 6 
#
# 1 0.018823 -0.005258 -0.014032 0.000000 0.000000 0.000000
# 2 -0.005258 0.010580 -0.000237 0.000000 0.000000 0.000000
# 3 -0.014032 -0.000237 0.032259 0.000000 0.000000 0.000000
# 4 0.000000 0.000000 0.000000 0.018898 0.000000 0.000000
# 5 0.000000 0.000000 0.000000 0.000000 0.048653 0.000000
# 6 0.000000 0.000000 0.000000 0.000000 0.000000 0.025257
#
#
# Mechanical properties :
#
#
# Convention : Reuss Voigt Hill
#
# Bulk Modulus (GPa) = 44.23325 56.15099 50.19212
# Shear Modulus (GPa) = 24.86795 32.81107 28.83951
#
# Velocity S-wave (km/s) = 3.54586 4.07297 3.81852
# Velocity P-wave (km/s) = 6.25526 7.10693 6.69465
#
# Compressibility (1/GPa) = 0.02260743
#
# Stress axis : x y z
#
# Youngs Moduli (GPa) = 53.12566 94.52119 30.99865
#
# Poissons Ratio (x) = 0.49700 0.43497
# Poissons Ratio (y) = 0.27934 0.00736
# Poissons Ratio (z) = 0.74545 0.02244
#
# Static dielectric constant tensor:
#      x y z
#    x 3.686810 0.000000 0.000000 
#    y 0.000000 3.955790 0.000000 
#    z 0.000000 0.000000 3.377270 
# 
# 
# High freq. dielectric constant tensor:
#      x y z
#    x 1.779160 0.000000 0.000000 
#    y 0.000000 1.787430 0.000000 
#    z 0.000000 0.000000 1.734250 
# 
# From -- ./inp_files/10083.got.cif
#   From: 2010.03.12/outbox.cif.g09.slc.cpg/sg65_6_cif.got.tgz:10083.got - 2010.04.10 20:52:16.
