data_PCOD8273800
_publ_section_title
;
Structure prediction by ZEFSAII (Michael W. Deem and Ramdas Pophale) SiO2 
 PCOD8273800
Probable space group: C M M M
;
_chemical_formula_sum "Si O2"
_cell_formula_units_Z 72
_cell_length_a 16.810368
_cell_length_b 24.402067
_cell_length_c 8.805107
_cell_angle_alpha 90.000000
_cell_angle_beta 90.000000
_cell_angle_gamma 90.000000
_cell_volume 3611.922922
_symmetry_space_group_name_H-M "C M M M"
_symmetry_group_IT_number 65
_symmetry_cell_setting 'orthorhombic'
loop_
_space_group_symop_operation_xyz
x,y,z
-x,-y,z
x,-y,-z
-x,y,-z
-x,-y,-z
x,y,-z
-x,y,z
x,-y,z
1/2+x,1/2+y,z
1/2-x,1/2-y,z
1/2+x,1/2-y,-z
1/2-x,1/2+y,-z
1/2-x,1/2-y,-z
1/2+x,1/2+y,-z
1/2-x,1/2+y,z
1/2+x,1/2-y,z
loop_
_atom_site_type_symbol
_atom_site_label
_atom_site_fract_x
_atom_site_fract_y
_atom_site_fract_z
Si Si1 0.000000 0.063620 0.679577
Si Si2 0.911868 0.736760 0.825739
Si Si3 0.127353 0.140918 0.175905
Si Si4 0.201721 0.345545 0.320675
Si Si5 0.588206 0.060411 0.680240
O O1 0.079474 0.092674 0.741290
O O2 0.000000 0.068682 0.500000
O O3 0.000000 0.000000 0.730756
O O4 0.916536 0.801629 0.797846
O O5 0.843428 0.710761 0.720929
O O6 0.000000 0.713531 0.784955
O O7 0.889896 0.724005 0.000000
O O8 0.214952 0.147825 0.240587
O O9 0.131708 0.125263 0.000000
O O10 0.214215 0.347784 0.500000
O O11 0.148258 0.394879 0.254552
O O12 0.585614 0.064412 0.500000
O O13 0.500000 0.071720 0.745540
O O14 0.617306 0.000000 0.730778
#
# Coordination Sequence:
#
# PCOD8273800 Si02
#       5
#     8  16  16  16  16
#     4  11  25  45  69  95 121 153 198 257 318 367
#     4  10  21  39  60  83 116 160 203 245 301 366
#     4  11  23  42  63  85 117 160 203 244 297 367
#     4  11  22  34  55  91 123 152 197 253 308 361
#     4   8  15  30  51  75 109 151 190 232 287 348
#
# _framework density 19.933980999999999
#
# number of rings (size 3 to 8) (size 9 to 14) (size 15 to 20)
#    0.000    1.889    1.111    3.667    0.000    7.556 
#    0.000    2.222    0.000    2.000    0.000    7.778 
#    0.000    0.000    0.000    0.000    0.000    0.000 
#
# Total GULP energy -446376.325560 kJ/mol
# GULP energy per Si atom -12399.342377 kJ/mol
# Density = 1.988861 g / cm^3
# Si number density = 19.933981 Si / 1000 Ang^3
#
#
#
# Elastic Constant Matrix: (Units=GPa)
#
#
# Indices 1 2 3 4 5 6 
#
# 1 132.3466 52.5931 38.4409 0.0000 0.0000 0.0000
# 2 52.5931 106.6027 47.5374 0.0000 0.0000 0.0000
# 3 38.4409 47.5374 64.6634 0.0000 0.0000 0.0000
# 4 0.0000 0.0000 0.0000 19.7193 0.0000 0.0000
# 5 0.0000 0.0000 0.0000 0.0000 30.9011 0.0000
# 6 0.0000 0.0000 0.0000 0.0000 0.0000 19.3726
#
#
#
# Elastic Compliance Matrix: (Units=1/GPa)
#
#
# Indices 1 2 3 4 5 6 
#
# 1 0.009878 -0.003355 -0.003406 0.000000 0.000000 0.000000
# 2 -0.003355 0.015095 -0.009103 0.000000 0.000000 0.000000
# 3 -0.003406 -0.009103 0.024182 0.000000 0.000000 0.000000
# 4 0.000000 0.000000 0.000000 0.050712 0.000000 0.000000
# 5 0.000000 0.000000 0.000000 0.000000 0.032361 0.000000
# 6 0.000000 0.000000 0.000000 0.000000 0.000000 0.051619
#
#
# Mechanical properties :
#
#
# Convention : Reuss Voigt Hill
#
# Bulk Modulus (GPa) = 57.38077 64.52838 60.95457
# Shear Modulus (GPa) = 22.58520 25.00134 23.79327
#
# Velocity S-wave (km/s) = 3.36966 3.54532 3.45860
# Velocity P-wave (km/s) = 6.63230 7.01430 6.82597
#
# Compressibility (1/GPa) = 0.01742744
#
# Stress axis : x y z
#
# Youngs Moduli (GPa) = 101.23116 66.24780 41.35366
#
# Poissons Ratio (x) = 0.22223 0.14087
# Poissons Ratio (y) = 0.33959 0.37643
# Poissons Ratio (z) = 0.34483 0.60304
#
# Static dielectric constant tensor:
#      x y z
#    x 3.827290 0.000000 0.000000 
#    y 0.000000 3.833210 0.000000 
#    z 0.000000 0.000000 3.398950 
# 
# 
# High freq. dielectric constant tensor:
#      x y z
#    x 1.790230 0.000000 0.000000 
#    y 0.000000 1.782630 0.000000 
#    z 0.000000 0.000000 1.759250 
# 
# From -- ./inp_files/7310.got.cif
#   From: 2010.03.12/outbox.cif.g09.slc.cpg/sg65_4_cif.got.tgz:7310.got - 2010.04.10 20:52:16.
