data_PCOD8273767
_publ_section_title
;
Structure prediction by ZEFSAII (Michael W. Deem and Ramdas Pophale) SiO2 
 PCOD8273767
Probable space group: C M M M
;
_chemical_formula_sum "Si O2"
_cell_formula_units_Z 72
_cell_length_a 23.407760
_cell_length_b 17.685901
_cell_length_c 8.851296
_cell_angle_alpha 90.000000
_cell_angle_beta 90.000000
_cell_angle_gamma 90.000000
_cell_volume 3664.324363
_symmetry_space_group_name_H-M "C M M M"
_symmetry_group_IT_number 65
_symmetry_cell_setting 'orthorhombic'
loop_
_space_group_symop_operation_xyz
x,y,z
-x,-y,z
x,-y,-z
-x,y,-z
-x,-y,-z
x,y,-z
-x,y,z
x,-y,z
1/2+x,1/2+y,z
1/2-x,1/2-y,z
1/2+x,1/2-y,-z
1/2-x,1/2+y,-z
1/2-x,1/2-y,-z
1/2+x,1/2+y,-z
1/2-x,1/2+y,z
1/2+x,1/2-y,z
loop_
_atom_site_type_symbol
_atom_site_label
_atom_site_fract_x
_atom_site_fract_y
_atom_site_fract_z
Si Si1 0.251225 0.666028 0.322148
Si Si2 0.432704 0.500000 0.168802
Si Si3 0.066014 0.713134 0.822007
Si Si4 0.122077 0.857934 0.677679
Si Si5 0.362424 0.086827 0.320979
O O1 0.243565 0.673281 0.500000
O O2 0.250000 0.750000 0.249956
O O3 0.311527 0.627020 0.282338
O O4 0.199066 0.615886 0.259156
O O5 0.500000 0.500000 0.161121
O O6 0.414045 0.425640 0.255600
O O7 0.406813 0.500000 0.000000
O O8 0.102794 0.778747 0.746228
O O9 0.087152 0.632825 0.759249
O O10 0.000000 0.723537 0.778135
O O11 0.075124 0.716590 0.000000
O O12 0.111918 0.854120 0.500000
O O13 0.367517 0.097520 0.500000
O O14 0.369247 0.000000 0.273519
#
# Coordination Sequence:
#
# PCOD8273767 Si02
#       5
#    16   8  16  16  16
#     4   9  17  34  60  89 119 149 187 240 301 351
#     4  11  25  43  59  83 127 169 198 241 300 353
#     4  11  24  41  60  83 118 161 199 244 305 362
#     4  11  22  38  65  93 117 153 202 250 294 353
#     4  10  21  38  62  90 120 155 198 248 297 352
#
# _framework density 19.648916
#
# number of rings (size 3 to 8) (size 9 to 14) (size 15 to 20)
#    0.000    1.667    2.222    2.333    1.556    6.222 
#    0.000    5.556    0.000    0.000    0.000    0.000 
#    0.000    0.000    0.000    0.000    0.000    0.000 
#
# Total GULP energy -446480.737601 kJ/mol
# GULP energy per Si atom -12402.242711 kJ/mol
# Density = 1.960419 g / cm^3
# Si number density = 19.648916 Si / 1000 Ang^3
#
#
#
# Elastic Constant Matrix: (Units=GPa)
#
#
# Indices 1 2 3 4 5 6 
#
# 1 64.5840 24.9356 35.4840 0.0000 0.0000 0.0000
# 2 24.9356 115.4835 39.9004 0.0000 0.0000 0.0000
# 3 35.4840 39.9004 69.2829 0.0000 0.0000 0.0000
# 4 0.0000 0.0000 0.0000 18.8026 0.0000 0.0000
# 5 0.0000 0.0000 0.0000 0.0000 -7.3624 0.0000
# 6 0.0000 0.0000 0.0000 0.0000 0.0000 41.9978
#
#
#
# Elastic Compliance Matrix: (Units=1/GPa)
#
#
# Indices 1 2 3 4 5 6 
#
# 1 0.021649 -0.001053 -0.010481 0.000000 0.000000 0.000000
# 2 -0.001053 0.010862 -0.005716 0.000000 0.000000 0.000000
# 3 -0.010481 -0.005716 0.023093 0.000000 0.000000 0.000000
# 4 0.000000 0.000000 0.000000 0.053184 0.000000 0.000000
# 5 0.000000 0.000000 0.000000 0.000000 -0.135825 0.000000
# 6 0.000000 0.000000 0.000000 0.000000 0.000000 0.023811
#
#
# Mechanical properties :
#
#
# Convention : Reuss Voigt Hill
#
# Bulk Modulus (GPa) = 47.38556 49.99893 48.69224
# Shear Modulus (GPa) = 130.51753 20.62294 75.57024
#
# Velocity S-wave (km/s) = 8.15898 3.24322 6.20836
# Velocity P-wave (km/s) = 10.62672 6.28698 8.73078
#
# Compressibility (1/GPa) = 0.02110348
#
# Stress axis : x y z
#
# Youngs Moduli (GPa) = 46.19150 92.06820 43.30231
#
# Poissons Ratio (x) = 0.09696 0.45386
# Poissons Ratio (y) = 0.04865 0.24751
# Poissons Ratio (z) = 0.48414 0.52625
#
# Static dielectric constant tensor:
#      x y z
#    x 3.768940 0.000000 0.000000 
#    y 0.000000 3.633220 0.000000 
#    z 0.000000 0.000000 3.434230 
# 
# 
# High freq. dielectric constant tensor:
#      x y z
#    x 1.779180 0.000000 0.000000 
#    y 0.000000 1.774360 0.000000 
#    z 0.000000 0.000000 1.746880 
# 
# From -- ./inp_files/9283.got.cif
#   From: 2010.03.12/outbox.cif.g09.slc.cpg/sg65_5_cif.got.tgz:9283.got - 2010.04.10 20:52:16.
