data_PCOD8273427
_publ_section_title
;
Structure prediction by ZEFSAII (Michael W. Deem and Ramdas Pophale) SiO2 
 PCOD8273427
Probable space group: C M M M
;
_chemical_formula_sum "Si O2"
_cell_formula_units_Z 112
_cell_length_a 15.237159
_cell_length_b 25.254904
_cell_length_c 14.011875
_cell_angle_alpha 90.000000
_cell_angle_beta 90.000000
_cell_angle_gamma 90.000000
_cell_volume 5391.951483
_symmetry_space_group_name_H-M "C M M M"
_symmetry_group_IT_number 65
_symmetry_cell_setting 'orthorhombic'
loop_
_space_group_symop_operation_xyz
x,y,z
-x,-y,z
x,-y,-z
-x,y,-z
-x,-y,-z
x,y,-z
-x,y,z
x,-y,z
1/2+x,1/2+y,z
1/2-x,1/2-y,z
1/2+x,1/2-y,-z
1/2-x,1/2+y,-z
1/2-x,1/2-y,-z
1/2+x,1/2+y,-z
1/2-x,1/2+y,z
1/2+x,1/2-y,z
loop_
_atom_site_type_symbol
_atom_site_label
_atom_site_fract_x
_atom_site_fract_y
_atom_site_fract_z
Si Si1 0.753963 0.406759 0.110754
Si Si2 0.897450 0.938737 0.751937
Si Si3 0.175687 0.292022 0.897105
Si Si4 0.853325 0.255242 0.297328
Si Si5 0.899706 0.852615 0.605172
Si Si6 0.099603 0.441045 0.759652
Si Si7 0.602420 0.139160 0.396037
O O1 0.661863 0.424000 0.157347
O O2 0.775205 0.345771 0.132695
O O3 0.836921 0.440195 0.149150
O O4 0.743726 0.419135 0.000000
O O5 0.862246 0.902682 0.663949
O O6 0.000000 0.926952 0.776217
O O7 0.884244 0.000000 0.723664
O O8 0.250000 0.250000 0.914991
O O9 0.112909 0.272772 0.809380
O O10 0.124828 0.298807 0.000000
O O11 0.750000 0.250000 0.291676
O O12 0.893001 0.200235 0.331624
O O13 0.879693 0.299939 0.372013
O O14 0.853399 0.847239 0.500000
O O15 0.000000 0.864488 0.586181
O O16 0.098966 0.500000 0.716160
O O17 0.141844 0.401283 0.681440
O O18 0.000000 0.424294 0.789235
O O19 0.644516 0.127935 0.500000
O O20 0.500000 0.128386 0.400592
#
# Coordination Sequence:
#
# PCOD8273427 Si02
#       7
#    16  16  16  16  16  16  16
#     4  11  22  40  64  89 121 158 198 246 299 356
#     4  10  22  40  61  88 122 158 200 249 298 353
#     4   9  18  33  56  84 115 155 196 236 293 356
#     4  11  20  34  57  85 119 151 190 245 294 350
#     4  10  22  39  59  84 116 158 202 244 297 357
#     4  10  22  40  60  85 118 154 197 247 294 349
#     4  10  21  37  57  82 115 155 195 240 296 352
#
# _framework density 20.771699999999999
#
# number of rings (size 3 to 8) (size 9 to 14) (size 15 to 20)
#    0.000    1.857    1.429    3.000    0.000    4.571 
#    0.000    4.286    0.000    4.286    0.000    4.000 
#    0.000    0.000    0.000    0.000    0.000    0.000 
#
# Total GULP energy -694018.752972 kJ/mol
# GULP energy per Si atom -12393.192017 kJ/mol
# Density = 2.072442 g / cm^3
# Si number density = 20.771700 Si / 1000 Ang^3
#
#
#
# Elastic Constant Matrix: (Units=GPa)
#
#
# Indices 1 2 3 4 5 6 
#
# 1 61.2870 18.8454 43.0069 0.0000 0.0000 0.0000
# 2 18.8454 147.9777 67.2788 0.0000 0.0000 0.0000
# 3 43.0069 67.2788 171.0946 0.0000 0.0000 0.0000
# 4 0.0000 0.0000 0.0000 24.1307 0.0000 0.0000
# 5 0.0000 0.0000 0.0000 0.0000 25.5169 0.0000
# 6 0.0000 0.0000 0.0000 0.0000 0.0000 23.7395
#
#
#
# Elastic Compliance Matrix: (Units=1/GPa)
#
#
# Indices 1 2 3 4 5 6 
#
# 1 0.019823 -0.000315 -0.004859 0.000000 0.000000 0.000000
# 2 -0.000315 0.008234 -0.003159 0.000000 0.000000 0.000000
# 3 -0.004859 -0.003159 0.008308 0.000000 0.000000 0.000000
# 4 0.000000 0.000000 0.000000 0.041441 0.000000 0.000000
# 5 0.000000 0.000000 0.000000 0.000000 0.039190 0.000000
# 6 0.000000 0.000000 0.000000 0.000000 0.000000 0.042124
#
#
# Mechanical properties :
#
#
# Convention : Reuss Voigt Hill
#
# Bulk Modulus (GPa) = 50.76212 70.95793 60.86002
# Shear Modulus (GPa) = 27.41949 31.42596 29.42273
#
# Velocity S-wave (km/s) = 3.63718 3.89385 3.76770
# Velocity P-wave (km/s) = 6.49076 7.37910 6.94914
#
# Compressibility (1/GPa) = 0.01969973
#
# Stress axis : x y z
#
# Youngs Moduli (GPa) = 50.44584 121.44785 120.36523
#
# Poissons Ratio (x) = 0.03831 0.58483
# Poissons Ratio (y) = 0.01591 0.38018
# Poissons Ratio (z) = 0.24511 0.38359
#
# Static dielectric constant tensor:
#      x y z
#    x 3.533060 0.000000 0.000000 
#    y 0.000000 4.131710 0.000000 
#    z 0.000000 0.000000 4.430120 
# 
# 
# High freq. dielectric constant tensor:
#      x y z
#    x 1.788380 0.000000 0.000000 
#    y 0.000000 1.825390 0.000000 
#    z 0.000000 0.000000 1.821420 
# 
# From -- ./inp_files/40875.got.cif
#   From: 2010.03.12/outbox.cif.g09.slc.cpg/sg65_21_cif.got.tgz:40875.got - 2010.04.10 20:52:16.
