data_PCOD8273349
_publ_section_title
;
Structure prediction by ZEFSAII (Michael W. Deem and Ramdas Pophale) SiO2 
 PCOD8273349
Probable space group: C M M M
;
_chemical_formula_sum "Si O2"
_cell_formula_units_Z 104
_cell_length_a 27.827055
_cell_length_b 9.080861
_cell_length_c 21.427233
_cell_angle_alpha 90.000000
_cell_angle_beta 90.000000
_cell_angle_gamma 90.000000
_cell_volume 5414.525041
_symmetry_space_group_name_H-M "C M M M"
_symmetry_group_IT_number 65
_symmetry_cell_setting 'orthorhombic'
loop_
_space_group_symop_operation_xyz
x,y,z
-x,-y,z
x,-y,-z
-x,y,-z
-x,-y,-z
x,y,-z
-x,y,z
x,-y,z
1/2+x,1/2+y,z
1/2-x,1/2-y,z
1/2+x,1/2-y,-z
1/2-x,1/2+y,-z
1/2-x,1/2-y,-z
1/2+x,1/2+y,-z
1/2-x,1/2+y,z
1/2+x,1/2-y,z
loop_
_atom_site_type_symbol
_atom_site_label
_atom_site_fract_x
_atom_site_fract_y
_atom_site_fract_z
Si Si1 0.199468 0.828401 0.133388
Si Si2 0.699280 0.173686 0.500000
Si Si3 0.383853 0.830938 0.070086
Si Si4 0.945699 0.167493 0.427779
Si Si5 0.640997 0.173030 0.378285
Si Si6 0.945010 0.327412 0.812532
Si Si7 0.138981 0.827977 0.745472
O O1 0.250000 0.750000 0.126228
O O2 0.163033 0.767748 0.081555
O O3 0.177877 0.794425 0.201414
O O4 0.206816 0.000000 0.121879
O O5 0.750000 0.250000 0.500000
O O6 0.671054 0.225785 0.438377
O O7 0.706238 0.000000 0.500000
O O8 0.426691 0.789628 0.117575
O O9 0.368360 0.000000 0.079531
O O10 0.402769 0.801777 0.000000
O O11 0.941908 0.210654 0.500000
O O12 0.914119 0.279586 0.387787
O O13 0.000000 0.185561 0.404149
O O14 0.928061 0.000000 0.417331
O O15 0.660716 0.254194 0.316812
O O16 0.644386 0.000000 0.368019
O O17 0.940480 0.500000 0.798384
O O18 0.912692 0.241576 0.762365
O O19 0.000000 0.273737 0.806943
O O20 0.131213 0.000000 0.734565
#
# Coordination Sequence:
#
# PCOD8273349 Si02
#       7
#    16   8  16  16  16  16  16
#     4  10  21  37  57  79 106 140 181 228 277 328
#     4  10  24  42  59  82 109 139 176 219 269 328
#     4   9  18  33  54  82 115 148 183 224 269 319
#     4   9  18  33  54  80 108 139 174 211 257 315
#     4  11  22  38  58  82 111 141 178 223 273 326
#     4   9  18  34  56  82 113 149 187 226 269 315
#     4  10  22  38  56  80 107 141 184 226 272 325
#
# _framework density 19.207595000000001
#
# number of rings (size 3 to 8) (size 9 to 14) (size 15 to 20)
#    0.000    2.308    0.769    1.846    0.000    5.846 
#    0.000    5.385    0.000    0.000    0.000    4.308 
#    0.000    0.000    0.000    0.000    0.000    0.000 
#
# Total GULP energy -644925.100291 kJ/mol
# GULP energy per Si atom -12402.405775 kJ/mol
# Density = 1.916388 g / cm^3
# Si number density = 19.207595 Si / 1000 Ang^3
#
#
#
# Elastic Constant Matrix: (Units=GPa)
#
#
# Indices 1 2 3 4 5 6 
#
# 1 82.6407 29.4702 18.4281 0.0000 0.0000 0.0000
# 2 29.4702 64.5398 31.8679 0.0000 0.0000 0.0000
# 3 18.4281 31.8679 102.4389 0.0000 0.0000 0.0000
# 4 0.0000 0.0000 0.0000 28.5775 0.0000 0.0000
# 5 0.0000 0.0000 0.0000 0.0000 13.7357 0.0000
# 6 0.0000 0.0000 0.0000 0.0000 0.0000 32.5883
#
#
#
# Elastic Compliance Matrix: (Units=1/GPa)
#
#
# Indices 1 2 3 4 5 6 
#
# 1 0.014491 -0.006297 -0.000648 0.000000 0.000000 0.000000
# 2 -0.006297 0.021043 -0.005413 0.000000 0.000000 0.000000
# 3 -0.000648 -0.005413 0.011563 0.000000 0.000000 0.000000
# 4 0.000000 0.000000 0.000000 0.034993 0.000000 0.000000
# 5 0.000000 0.000000 0.000000 0.000000 0.072803 0.000000
# 6 0.000000 0.000000 0.000000 0.000000 0.000000 0.030686
#
#
# Mechanical properties :
#
#
# Convention : Reuss Voigt Hill
#
# Bulk Modulus (GPa) = 44.68379 45.46130 45.07254
# Shear Modulus (GPa) = 22.96182 26.30386 24.63284
#
# Velocity S-wave (km/s) = 3.46129 3.70462 3.58502
# Velocity P-wave (km/s) = 6.26802 6.48219 6.37601
#
# Compressibility (1/GPa) = 0.02237948
#
# Stress axis : x y z
#
# Youngs Moduli (GPa) = 69.01072 47.52281 86.48620
#
# Poissons Ratio (x) = 0.29924 0.05603
# Poissons Ratio (y) = 0.43454 0.46819
# Poissons Ratio (z) = 0.04471 0.25726
#
# Static dielectric constant tensor:
#      x y z
#    x 3.417100 0.000000 0.000000 
#    y 0.000000 3.493430 0.000000 
#    z 0.000000 0.000000 3.622400 
# 
# 
# High freq. dielectric constant tensor:
#      x y z
#    x 1.739130 0.000000 0.000000 
#    y 0.000000 1.746700 0.000000 
#    z 0.000000 0.000000 1.751620 
# 
# From -- ./inp_files/65943.got.cif
#   From: 2010.03.12/outbox.cif.g09.slc.cpg/sg65_33_cif.got.tgz:65943.got - 2010.04.10 20:52:16.
