data_PCOD8273780
_publ_section_title
;
Structure prediction by ZEFSAII (Michael W. Deem and Ramdas Pophale) SiO2 
 PCOD8273780
Probable space group: C M M M
;
_chemical_formula_sum "Si O2"
_cell_formula_units_Z 72
_cell_length_a 15.408455
_cell_length_b 8.976148
_cell_length_c 25.893580
_cell_angle_alpha 90.000000
_cell_angle_beta 90.000000
_cell_angle_gamma 90.000000
_cell_volume 3581.304088
_symmetry_space_group_name_H-M "C M M M"
_symmetry_group_IT_number 65
_symmetry_cell_setting 'orthorhombic'
loop_
_space_group_symop_operation_xyz
x,y,z
-x,-y,z
x,-y,-z
-x,y,-z
-x,-y,-z
x,y,-z
-x,y,z
x,-y,z
1/2+x,1/2+y,z
1/2-x,1/2-y,z
1/2+x,1/2-y,-z
1/2-x,1/2+y,-z
1/2-x,1/2-y,-z
1/2+x,1/2+y,-z
1/2-x,1/2+y,z
1/2+x,1/2-y,z
loop_
_atom_site_type_symbol
_atom_site_label
_atom_site_fract_x
_atom_site_fract_y
_atom_site_fract_z
Si Si1 0.396773 0.668622 0.500000
Si Si2 0.500000 0.670478 0.764943
Si Si3 0.098980 0.673043 0.600960
Si Si4 0.500000 0.329850 0.112841
Si Si5 0.339769 0.173478 0.060085
Si Si6 0.661648 0.176063 0.287454
O O1 0.365744 0.500000 0.500000
O O2 0.500000 0.687868 0.500000
O O3 0.358981 0.743441 0.551867
O O4 0.500000 0.500000 0.745235
O O5 0.500000 0.677794 0.826064
O O6 0.584189 0.754483 0.744785
O O7 0.103014 0.500000 0.588359
O O8 0.151948 0.714771 0.652065
O O9 0.000000 0.724544 0.610422
O O10 0.500000 0.500000 0.093032
O O11 0.415274 0.247490 0.092658
O O12 0.250000 0.250000 0.076257
O O13 0.333924 0.000000 0.073825
O O14 0.359990 0.199041 0.000000
O O15 0.750000 0.250000 0.267185
O O16 0.662944 0.000000 0.277882
#
# Coordination Sequence:
#
# PCOD8273780 Si02
#       6
#     8   8  16   8  16  16
#     4   9  17  27  46  81 114 144 184 230 284 344
#     4  11  25  44  64  88 119 158 202 253 305 356
#     4   9  17  33  55  79 111 149 188 232 287 352
#     4  11  24  40  61  90 123 161 206 251 302 356
#     4  10  21  38  62  93 128 166 206 248 297 352
#     4  11  23  41  64  90 117 153 199 247 303 362
#
# _framework density 20.104407999999999
#
# number of rings (size 3 to 8) (size 9 to 14) (size 15 to 20)
#    0.000    1.889    1.111    2.667    0.000    8.444 
#    0.000    0.556    0.000    0.000    0.000    0.000 
#    0.000    0.000    0.000    0.000    0.000    0.000 
#
# Total GULP energy -446532.624029 kJ/mol
# GULP energy per Si atom -12403.684001 kJ/mol
# Density = 2.005865 g / cm^3
# Si number density = 20.104408 Si / 1000 Ang^3
#
#
#
# Elastic Constant Matrix: (Units=GPa)
#
#
# Indices 1 2 3 4 5 6 
#
# 1 140.2097 74.3377 53.5666 0.0000 0.0000 0.0000
# 2 74.3377 140.4481 64.3225 0.0000 0.0000 0.0000
# 3 53.5666 64.3225 80.8001 0.0000 0.0000 0.0000
# 4 0.0000 0.0000 0.0000 34.1306 0.0000 0.0000
# 5 0.0000 0.0000 0.0000 0.0000 -32.5477 0.0000
# 6 0.0000 0.0000 0.0000 0.0000 0.0000 32.8014
#
#
#
# Elastic Compliance Matrix: (Units=1/GPa)
#
#
# Indices 1 2 3 4 5 6 
#
# 1 0.010702 -0.003801 -0.004069 0.000000 0.000000 0.000000
# 2 -0.003801 0.012555 -0.007475 0.000000 0.000000 0.000000
# 3 -0.004069 -0.007475 0.021025 0.000000 0.000000 0.000000
# 4 0.000000 0.000000 0.000000 0.029299 0.000000 0.000000
# 5 0.000000 0.000000 0.000000 0.000000 -0.030724 0.000000
# 6 0.000000 0.000000 0.000000 0.000000 0.000000 0.030486
#
#
# Mechanical properties :
#
#
# Convention : Reuss Voigt Hill
#
# Bulk Modulus (GPa) = 73.57474 82.87906 78.22690
# Shear Modulus (GPa) = 46.05584 18.15895 32.10739
#
# Velocity S-wave (km/s) = 4.79146 3.00864 4.00062
# Velocity P-wave (km/s) = 8.20284 7.30637 7.76755
#
# Compressibility (1/GPa) = 0.01359162
#
# Stress axis : x y z
#
# Youngs Moduli (GPa) = 93.44100 79.64800 47.56350
#
# Poissons Ratio (x) = 0.30273 0.19354
# Poissons Ratio (y) = 0.35515 0.35554
# Poissons Ratio (z) = 0.38022 0.59537
#
# Static dielectric constant tensor:
#      x y z
#    x 3.485190 0.000000 0.000000 
#    y 0.000000 3.794210 0.000000 
#    z 0.000000 0.000000 3.647090 
# 
# 
# High freq. dielectric constant tensor:
#      x y z
#    x 1.783130 0.000000 0.000000 
#    y 0.000000 1.796590 0.000000 
#    z 0.000000 0.000000 1.784020 
# 
# From -- ./inp_files/74680.got.cif
#   From: 2010.03.12/outbox.cif.g09.slc.cpg/sg65_38_cif.got.tgz:74680.got - 2010.04.10 20:52:16.
