data_PCOD8273083
_publ_section_title
;
Structure prediction by ZEFSAII (Michael W. Deem and Ramdas Pophale) SiO2 
 PCOD8273083
Probable space group: C M M M
;
_chemical_formula_sum "Si O2"
_cell_formula_units_Z 88
_cell_length_a 8.877155
_cell_length_b 20.757280
_cell_length_c 24.200674
_cell_angle_alpha 90.000000
_cell_angle_beta 90.000000
_cell_angle_gamma 90.000000
_cell_volume 4459.351520
_symmetry_space_group_name_H-M "C M M M"
_symmetry_group_IT_number 65
_symmetry_cell_setting 'orthorhombic'
loop_
_space_group_symop_operation_xyz
x,y,z
-x,-y,z
x,-y,-z
-x,y,-z
-x,-y,-z
x,y,-z
-x,y,z
x,-y,z
1/2+x,1/2+y,z
1/2-x,1/2-y,z
1/2+x,1/2-y,-z
1/2-x,1/2+y,-z
1/2-x,1/2-y,-z
1/2+x,1/2+y,-z
1/2-x,1/2+y,z
1/2+x,1/2-y,z
loop_
_atom_site_type_symbol
_atom_site_label
_atom_site_fract_x
_atom_site_fract_y
_atom_site_fract_z
Si Si1 0.675795 0.926091 0.134096
Si Si2 0.322289 0.369491 0.436450
Si Si3 0.323379 0.684309 0.936359
Si Si4 0.321262 0.929082 0.740929
Si Si5 0.667709 0.000000 0.434894
Si Si6 0.320972 0.185965 0.664765
O O1 0.500000 0.910085 0.128597
O O2 0.767452 0.878539 0.095322
O O3 0.732801 0.915035 0.196767
O O4 0.707281 0.000000 0.116316
O O5 0.278304 0.355477 0.500000
O O6 0.500000 0.367757 0.428025
O O7 0.259789 0.438035 0.415709
O O8 0.241323 0.317267 0.397956
O O9 0.500000 0.690785 0.928365
O O10 0.250000 0.750000 0.912613
O O11 0.276769 0.675279 0.000000
O O12 0.500000 0.928610 0.740186
O O13 0.258600 0.874461 0.699962
O O14 0.263527 0.000000 0.721679
O O15 0.500000 0.000000 0.407565
O O16 0.650813 0.000000 0.500000
O O17 0.500000 0.190120 0.664383
O O18 0.250000 0.250000 0.691933
#
# Coordination Sequence:
#
# PCOD8273083 Si02
#       6
#    16  16  16  16   8  16
#     4   9  18  35  59  85 114 148 187 230 280 337
#     4  10  21  37  56  80 112 145 180 227 278 328
#     4  10  21  36  54  79 114 154 195 238 282 330
#     4   8  17  36  60  84 109 142 185 231 279 329
#     4   9  17  31  53  81 109 139 177 215 258 319
#     4  11  23  38  58  82 112 146 184 229 279 339
#
# _framework density 19.733809999999998
#
# number of rings (size 3 to 8) (size 9 to 14) (size 15 to 20)
#    0.000    2.455    0.000    3.000    1.273    5.091 
#    0.000    5.455    0.000    2.182    0.000    0.000 
#    0.000    0.000    0.000    0.000    0.000    0.000 
#
# Total GULP energy -545557.575066 kJ/mol
# GULP energy per Si atom -12399.035797 kJ/mol
# Density = 1.968889 g / cm^3
# Si number density = 19.733810 Si / 1000 Ang^3
#
#
#
# Elastic Constant Matrix: (Units=GPa)
#
#
# Indices 1 2 3 4 5 6 
#
# 1 74.5344 48.4132 37.3471 0.0000 0.0000 0.0000
# 2 48.4132 151.1606 72.5530 0.0000 0.0000 0.0000
# 3 37.3471 72.5530 85.1687 0.0000 0.0000 0.0000
# 4 0.0000 0.0000 0.0000 29.7306 0.0000 0.0000
# 5 0.0000 0.0000 0.0000 0.0000 21.6866 0.0000
# 6 0.0000 0.0000 0.0000 0.0000 0.0000 38.1813
#
#
#
# Elastic Compliance Matrix: (Units=1/GPa)
#
#
# Indices 1 2 3 4 5 6 
#
# 1 0.018157 -0.003373 -0.005089 0.000000 0.000000 0.000000
# 2 -0.003373 0.011818 -0.008588 0.000000 0.000000 0.000000
# 3 -0.005089 -0.008588 0.021289 0.000000 0.000000 0.000000
# 4 0.000000 0.000000 0.000000 0.033635 0.000000 0.000000
# 5 0.000000 0.000000 0.000000 0.000000 0.046111 0.000000
# 6 0.000000 0.000000 0.000000 0.000000 0.000000 0.026191
#
#
# Mechanical properties :
#
#
# Convention : Reuss Voigt Hill
#
# Bulk Modulus (GPa) = 58.26086 69.72114 63.99100
# Shear Modulus (GPa) = 25.37770 28.08973 26.73371
#
# Velocity S-wave (km/s) = 3.58998 3.77693 3.68464
# Velocity P-wave (km/s) = 6.83896 7.37752 7.11334
#
# Compressibility (1/GPa) = 0.01716418
#
# Stress axis : x y z
#
# Youngs Moduli (GPa) = 55.07414 84.61753 46.97245
#
# Poissons Ratio (x) = 0.28540 0.23904
# Poissons Ratio (y) = 0.18576 0.40341
# Poissons Ratio (z) = 0.28027 0.72672
#
# Static dielectric constant tensor:
#      x y z
#    x 3.382950 0.000000 0.000000 
#    y 0.000000 3.952030 0.000000 
#    z 0.000000 0.000000 3.601700 
# 
# 
# High freq. dielectric constant tensor:
#      x y z
#    x 1.754000 0.000000 0.000000 
#    y 0.000000 1.779380 0.000000 
#    z 0.000000 0.000000 1.761150 
# 
# From -- ./inp_files/67590.got.cif
#   From: 2010.03.12/outbox.cif.g09.slc.cpg/sg65_34_cif.got.tgz:67590.got - 2010.04.10 20:52:16.
