data_PCOD8273104
_publ_section_title
;
Structure prediction by ZEFSAII (Michael W. Deem and Ramdas Pophale) SiO2 
 PCOD8273104
Probable space group: C M M M
;
_chemical_formula_sum "Si O2"
_cell_formula_units_Z 104
_cell_length_a 8.751051
_cell_length_b 26.633506
_cell_length_c 22.743882
_cell_angle_alpha 90.000000
_cell_angle_beta 90.000000
_cell_angle_gamma 90.000000
_cell_volume 5300.943172
_symmetry_space_group_name_H-M "C M M M"
_symmetry_group_IT_number 65
_symmetry_cell_setting 'orthorhombic'
loop_
_space_group_symop_operation_xyz
x,y,z
-x,-y,z
x,-y,-z
-x,y,-z
-x,-y,-z
x,y,-z
-x,y,z
x,-y,z
1/2+x,1/2+y,z
1/2-x,1/2-y,z
1/2+x,1/2-y,-z
1/2-x,1/2+y,-z
1/2-x,1/2-y,-z
1/2+x,1/2+y,-z
1/2-x,1/2+y,z
1/2+x,1/2-y,z
loop_
_atom_site_type_symbol
_atom_site_label
_atom_site_fract_x
_atom_site_fract_y
_atom_site_fract_z
Si Si1 0.819833 0.500000 0.566977
Si Si2 0.180197 0.698361 0.173547
Si Si3 0.824283 0.556893 0.132015
Si Si4 0.679900 0.698129 0.567476
Si Si5 0.320350 0.645220 0.932982
Si Si6 0.320761 0.393250 0.763080
Si Si7 0.820843 0.903634 0.371829
O O1 0.762913 0.500000 0.500000
O O2 0.759697 0.449755 0.596953
O O3 0.000000 0.500000 0.571766
O O4 0.250000 0.750000 0.196356
O O5 0.243017 0.686606 0.108391
O O6 0.231480 0.657093 0.220372
O O7 0.000000 0.702165 0.170956
O O8 0.811284 0.500000 0.110517
O O9 0.746050 0.590471 0.082081
O O10 0.738220 0.562567 0.194408
O O11 0.000000 0.573753 0.139970
O O12 0.730681 0.690600 0.500000
O O13 0.500000 0.702791 0.574059
O O14 0.750000 0.750000 0.592822
O O15 0.740760 0.649798 0.603537
O O16 0.500000 0.644727 0.921209
O O17 0.280836 0.658660 0.000000
O O18 0.500000 0.384452 0.772436
O O19 0.281725 0.407852 0.696748
O O20 0.000000 0.908065 0.384215
#
# Coordination Sequence:
#
# PCOD8273104 Si02
#       7
#     8  16  16  16  16  16  16
#     4  11  25  41  59  87 121 157 198 247 298 347
#     4  11  22  38  60  83 113 152 190 231 284 338
#     4  10  21  36  55  79 109 147 186 226 279 338
#     4   9  18  34  56  81 110 144 183 229 280 337
#     4  10  21  37  57  83 113 144 185 235 284 337
#     4  10  21  37  57  83 112 142 186 236 282 336
#     4  10  22  39  60  86 115 153 197 238 290 352
#
# _framework density 19.619150000000001
#
# number of rings (size 3 to 8) (size 9 to 14) (size 15 to 20)
#    0.000    1.923    0.000    5.308    1.077    6.769 
#    0.000    4.615    0.000    0.000    0.000    0.000 
#    0.000    0.000    0.000    0.000    0.000    0.000 
#
# Total GULP energy -644908.559554 kJ/mol
# GULP energy per Si atom -12402.087684 kJ/mol
# Density = 1.957450 g / cm^3
# Si number density = 19.619150 Si / 1000 Ang^3
#
#
#
# Elastic Constant Matrix: (Units=GPa)
#
#
# Indices 1 2 3 4 5 6 
#
# 1 105.2319 40.9233 44.7826 0.0000 0.0000 0.0000
# 2 40.9233 110.1364 27.6651 0.0000 0.0000 0.0000
# 3 44.7826 27.6651 94.6763 0.0000 0.0000 0.0000
# 4 0.0000 0.0000 0.0000 9.9114 0.0000 0.0000
# 5 0.0000 0.0000 0.0000 0.0000 25.3016 0.0000
# 6 0.0000 0.0000 0.0000 0.0000 0.0000 36.8114
#
#
#
# Elastic Compliance Matrix: (Units=1/GPa)
#
#
# Indices 1 2 3 4 5 6 
#
# 1 0.013079 -0.003568 -0.005144 0.000000 0.000000 0.000000
# 2 -0.003568 0.010772 -0.001460 0.000000 0.000000 0.000000
# 3 -0.005144 -0.001460 0.013422 0.000000 0.000000 0.000000
# 4 0.000000 0.000000 0.000000 0.100894 0.000000 0.000000
# 5 0.000000 0.000000 0.000000 0.000000 0.039523 0.000000
# 6 0.000000 0.000000 0.000000 0.000000 0.000000 0.027166
#
#
# Mechanical properties :
#
#
# Convention : Reuss Voigt Hill
#
# Bulk Modulus (GPa) = 59.06788 59.64296 59.35542
# Shear Modulus (GPa) = 21.65971 27.51646 24.58808
#
# Velocity S-wave (km/s) = 3.32627 3.74910 3.54400
# Velocity P-wave (km/s) = 6.70259 7.01480 6.86047
#
# Compressibility (1/GPa) = 0.01692967
#
# Stress axis : x y z
#
# Youngs Moduli (GPa) = 76.45592 92.83255 74.50359
#
# Poissons Ratio (x) = 0.33120 0.38326
# Poissons Ratio (y) = 0.27278 0.10878
# Poissons Ratio (z) = 0.39330 0.13554
#
# Static dielectric constant tensor:
#      x y z
#    x 3.655820 0.000000 0.000000 
#    y 0.000000 3.651120 0.000000 
#    z 0.000000 0.000000 3.726260 
# 
# 
# High freq. dielectric constant tensor:
#      x y z
#    x 1.771870 0.000000 0.000000 
#    y 0.000000 1.772670 0.000000 
#    z 0.000000 0.000000 1.761650 
# 
# From -- ./inp_files/60442.got.cif
#   From: 2010.03.12/outbox.cif.g09.slc.cpg/sg65_31_cif.got.tgz:60442.got - 2010.04.10 20:52:16.
