data_PCOD8273403
_publ_section_title
;
Structure prediction by ZEFSAII (Michael W. Deem and Ramdas Pophale) SiO2 
 PCOD8273403
Probable space group: C M M M
;
_chemical_formula_sum "Si O2"
_cell_formula_units_Z 80
_cell_length_a 18.652984
_cell_length_b 8.844046
_cell_length_c 25.143926
_cell_angle_alpha 90.000000
_cell_angle_beta 90.000000
_cell_angle_gamma 90.000000
_cell_volume 4147.939376
_symmetry_space_group_name_H-M "C M M M"
_symmetry_group_IT_number 65
_symmetry_cell_setting 'orthorhombic'
loop_
_space_group_symop_operation_xyz
x,y,z
-x,-y,z
x,-y,-z
-x,y,-z
-x,-y,-z
x,y,-z
-x,y,z
x,-y,z
1/2+x,1/2+y,z
1/2-x,1/2-y,z
1/2+x,1/2-y,-z
1/2-x,1/2+y,-z
1/2-x,1/2-y,-z
1/2+x,1/2+y,-z
1/2-x,1/2+y,z
1/2+x,1/2-y,z
loop_
_atom_site_type_symbol
_atom_site_label
_atom_site_fract_x
_atom_site_fract_y
_atom_site_fract_z
Si Si1 0.672332 0.821976 0.850130
Si Si2 0.581945 0.673981 0.061726
Si Si3 0.824314 0.177437 0.561098
Si Si4 0.584717 0.828743 0.648246
Si Si5 0.084507 0.174914 0.243602
O O1 0.750000 0.750000 0.845586
O O2 0.635843 0.778780 0.905854
O O3 0.622707 0.765321 0.802749
O O4 0.680525 0.000000 0.846670
O O5 0.500000 0.720946 0.073852
O O6 0.593759 0.500000 0.078444
O O7 0.599554 0.697201 0.000000
O O8 0.840553 0.218695 0.500000
O O9 0.750000 0.250000 0.580016
O O10 0.887633 0.246545 0.595720
O O11 0.819991 0.000000 0.570288
O O12 0.500000 0.824587 0.645016
O O13 0.611904 0.740384 0.700316
O O14 0.613556 0.000000 0.650784
O O15 0.000000 0.198751 0.236723
O O16 0.106005 0.000000 0.240552
#
# Coordination Sequence:
#
# PCOD8273403 Si02
#       5
#    16  16  16  16  16
#     4  12  25  39  57  83 116 151 189 233 280 331
#     4   9  19  38  63  88 115 149 188 229 276 332
#     4  10  21  37  57  81 111 148 189 231 277 332
#     4  10  21  37  58  85 115 146 184 230 278 329
#     4  10  21  39  62  85 112 146 184 228 279 335
#
# _framework density 19.286683
#
# number of rings (size 3 to 8) (size 9 to 14) (size 15 to 20)
#    0.000    1.800    0.000    4.800    0.000    8.400 
#    0.000    7.000    0.000    0.000    0.000    0.000 
#    0.000    0.000    0.000    0.000    0.000    0.000 
#
# Total GULP energy -496198.053842 kJ/mol
# GULP energy per Si atom -12404.951346 kJ/mol
# Density = 1.924279 g / cm^3
# Si number density = 19.286683 Si / 1000 Ang^3
#
#
#
# Elastic Constant Matrix: (Units=GPa)
#
#
# Indices 1 2 3 4 5 6 
#
# 1 37.4823 42.4024 35.0630 0.0000 0.0000 0.0000
# 2 42.4024 144.4644 58.2803 0.0000 0.0000 0.0000
# 3 35.0630 58.2803 102.3793 0.0000 0.0000 0.0000
# 4 0.0000 0.0000 0.0000 37.8341 0.0000 0.0000
# 5 0.0000 0.0000 0.0000 0.0000 8.4362 0.0000
# 6 0.0000 0.0000 0.0000 0.0000 0.0000 32.6710
#
#
#
# Elastic Compliance Matrix: (Units=1/GPa)
#
#
# Indices 1 2 3 4 5 6 
#
# 1 0.047737 -0.009627 -0.010869 0.000000 0.000000 0.000000
# 2 -0.009627 0.010927 -0.002923 0.000000 0.000000 0.000000
# 3 -0.010869 -0.002923 0.015154 0.000000 0.000000 0.000000
# 4 0.000000 0.000000 0.000000 0.026431 0.000000 0.000000
# 5 0.000000 0.000000 0.000000 0.000000 0.118536 0.000000
# 6 0.000000 0.000000 0.000000 0.000000 0.000000 0.030608
#
#
# Mechanical properties :
#
#
# Convention : Reuss Voigt Hill
#
# Bulk Modulus (GPa) = 37.06426 61.75750 49.41088
# Shear Modulus (GPa) = 16.38133 25.69360 21.03747
#
# Velocity S-wave (km/s) = 2.91754 3.65388 3.30627
# Velocity P-wave (km/s) = 5.53251 7.06339 6.34429
#
# Compressibility (1/GPa) = 0.02698017
#
# Stress axis : x y z
#
# Youngs Moduli (GPa) = 20.94810 91.51606 65.98849
#
# Poissons Ratio (x) = 0.88100 0.71723
# Poissons Ratio (y) = 0.20166 0.19291
# Poissons Ratio (z) = 0.22768 0.26753
#
# Static dielectric constant tensor:
#      x y z
#    x 3.447350 0.000000 0.000000 
#    y 0.000000 3.722350 0.000000 
#    z 0.000000 0.000000 3.624650 
# 
# 
# High freq. dielectric constant tensor:
#      x y z
#    x 1.745190 0.000000 0.000000 
#    y 0.000000 1.762960 0.000000 
#    z 0.000000 0.000000 1.762670 
# 
# From -- ./inp_files/75022.got.cif
#   From: 2010.03.12/outbox.cif.g09.slc.cpg/sg65_38_cif.got.tgz:75022.got - 2010.04.10 20:52:16.
