data_PCOD8273417
_publ_section_title
;
Structure prediction by ZEFSAII (Michael W. Deem and Ramdas Pophale) SiO2 
 PCOD8273417
Probable space group: C M M M
;
_chemical_formula_sum "Si O2"
_cell_formula_units_Z 80
_cell_length_a 9.100320
_cell_length_b 18.682523
_cell_length_c 25.494428
_cell_angle_alpha 90.000000
_cell_angle_beta 90.000000
_cell_angle_gamma 90.000000
_cell_volume 4334.484577
_symmetry_space_group_name_H-M "C M M M"
_symmetry_group_IT_number 65
_symmetry_cell_setting 'orthorhombic'
loop_
_space_group_symop_operation_xyz
x,y,z
-x,-y,z
x,-y,-z
-x,y,-z
-x,-y,-z
x,y,-z
-x,y,z
x,-y,z
1/2+x,1/2+y,z
1/2-x,1/2-y,z
1/2+x,1/2-y,-z
1/2-x,1/2+y,-z
1/2-x,1/2-y,-z
1/2+x,1/2+y,-z
1/2-x,1/2+y,z
1/2+x,1/2-y,z
loop_
_atom_site_type_symbol
_atom_site_label
_atom_site_fract_x
_atom_site_fract_y
_atom_site_fract_z
Si Si1 0.324202 0.327763 0.000000
Si Si2 0.671216 0.917738 0.398172
Si Si3 0.166591 0.914721 0.500000
Si Si4 0.827363 0.322102 0.303199
Si Si5 0.329009 0.916686 0.089088
Si Si6 0.329940 0.178340 0.185676
O O1 0.250000 0.250000 0.000000
O O2 0.273537 0.372000 0.949477
O O3 0.500000 0.319206 0.000000
O O4 0.500000 0.905897 0.408608
O O5 0.755680 0.883818 0.447881
O O6 0.723867 0.882275 0.343987
O O7 0.712588 0.000000 0.391755
O O8 0.000000 0.888118 0.500000
O O9 0.180783 0.000000 0.500000
O O10 0.750000 0.250000 0.321165
O O11 0.777930 0.343957 0.244209
O O12 0.000000 0.310006 0.305716
O O13 0.500000 0.905797 0.073785
O O14 0.296625 0.888193 0.147600
O O15 0.285888 0.000000 0.086504
O O16 0.500000 0.198014 0.185401
O O17 0.250000 0.250000 0.165686
#
# Coordination Sequence:
#
# PCOD8273417 Si02
#       6
#     8  16   8  16  16  16
#     4  12  25  40  59  81 107 141 181 220 259 308
#     4   9  17  30  49  71  95 125 162 203 246 295
#     4   9  17  29  46  69  96 125 159 201 248 297
#     4   9  18  32  50  73 101 132 166 205 249 297
#     4  10  21  37  57  82 112 142 173 214 262 308
#     4   9  18  33  53  76 102 135 172 208 249 300
#
# _framework density 18.456634999999999
#
# number of rings (size 3 to 8) (size 9 to 14) (size 15 to 20)
#    0.000    2.500    0.000    2.100    0.000    6.800 
#    0.000    4.500    0.000    0.000    0.000    8.400 
#    0.000    0.000    0.000    0.000    0.000    0.000 
#
# Total GULP energy -495967.149392 kJ/mol
# GULP energy per Si atom -12399.178735 kJ/mol
# Density = 1.841463 g / cm^3
# Si number density = 18.456635 Si / 1000 Ang^3
#
#
#
# Elastic Constant Matrix: (Units=GPa)
#
#
# Indices 1 2 3 4 5 6 
#
# 1 67.2137 50.9355 55.3673 0.0000 0.0000 0.0000
# 2 50.9355 111.1924 74.2321 0.0000 0.0000 0.0000
# 3 55.3673 74.2321 136.3974 0.0000 0.0000 0.0000
# 4 0.0000 0.0000 0.0000 -3.0111 0.0000 0.0000
# 5 0.0000 0.0000 0.0000 0.0000 21.8209 0.0000
# 6 0.0000 0.0000 0.0000 0.0000 0.0000 26.7452
#
#
#
# Elastic Compliance Matrix: (Units=1/GPa)
#
#
# Indices 1 2 3 4 5 6 
#
# 1 0.025889 -0.007608 -0.006369 0.000000 0.000000 0.000000
# 2 -0.007608 0.016361 -0.005816 0.000000 0.000000 0.000000
# 3 -0.006369 -0.005816 0.013082 0.000000 0.000000 0.000000
# 4 0.000000 0.000000 0.000000 -0.332110 0.000000 0.000000
# 5 0.000000 0.000000 0.000000 0.000000 0.045828 0.000000
# 6 0.000000 0.000000 0.000000 0.000000 0.000000 0.037390
#
#
# Mechanical properties :
#
#
# Convention : Reuss Voigt Hill
#
# Bulk Modulus (GPa) = 63.50244 75.09703 69.29974
# Shear Modulus (GPa) = -33.61920 18.06225 -7.77847
#
# Velocity S-wave (km/s) = -4.27256 3.13170 -2.05514
# Velocity P-wave (km/s) = 3.18454 7.33849 5.65662
#
# Compressibility (1/GPa) = 0.01574743
#
# Stress axis : x y z
#
# Youngs Moduli (GPa) = 38.62571 61.11988 76.43990
#
# Poissons Ratio (x) = 0.46498 0.48683
# Poissons Ratio (y) = 0.29385 0.44459
# Poissons Ratio (z) = 0.24600 0.35549
#
# Static dielectric constant tensor:
#      x y z
#    x 3.338150 0.000000 0.000000 
#    y 0.000000 3.345670 0.000000 
#    z 0.000000 0.000000 3.772800 
# 
# 
# High freq. dielectric constant tensor:
#      x y z
#    x 1.707550 0.000000 0.000000 
#    y 0.000000 1.698960 0.000000 
#    z 0.000000 0.000000 1.732390 
# 
# From -- ./inp_files/72858.got.cif
#   From: 2010.03.12/outbox.cif.g09.slc.cpg/sg65_37_cif.got.tgz:72858.got - 2010.04.10 20:52:16.
