data_PCOD8273432
_publ_section_title
;
Structure prediction by ZEFSAII (Michael W. Deem and Ramdas Pophale) SiO2 
 PCOD8273432
Probable space group: C M M M
;
_chemical_formula_sum "Si O2"
_cell_formula_units_Z 104
_cell_length_a 20.422959
_cell_length_b 9.018324
_cell_length_c 30.333171
_cell_angle_alpha 90.000000
_cell_angle_beta 90.000000
_cell_angle_gamma 90.000000
_cell_volume 5586.789561
_symmetry_space_group_name_H-M "C M M M"
_symmetry_group_IT_number 65
_symmetry_cell_setting 'orthorhombic'
loop_
_space_group_symop_operation_xyz
x,y,z
-x,-y,z
x,-y,-z
-x,y,-z
-x,-y,-z
x,y,-z
-x,y,z
x,-y,z
1/2+x,1/2+y,z
1/2-x,1/2-y,z
1/2+x,1/2-y,-z
1/2-x,1/2+y,-z
1/2-x,1/2-y,-z
1/2+x,1/2+y,-z
1/2-x,1/2+y,z
1/2+x,1/2-y,z
loop_
_atom_site_type_symbol
_atom_site_label
_atom_site_fract_x
_atom_site_fract_y
_atom_site_fract_z
Si Si1 0.000000 0.164859 0.051806
Si Si2 0.681251 0.172595 0.546473
Si Si3 0.320581 0.175381 0.642349
Si Si4 0.574258 0.328124 0.802846
Si Si5 0.073844 0.675558 0.712371
Si Si6 0.313095 0.674917 0.130481
Si Si7 0.368766 0.825266 0.050832
O O1 0.062550 0.257244 0.066642
O O2 0.000000 0.000000 0.074154
O O3 0.000000 0.144263 0.000000
O O4 0.642412 0.212145 0.500000
O O5 0.750000 0.250000 0.544207
O O6 0.649086 0.216370 0.593571
O O7 0.695453 0.000000 0.547563
O O8 0.250000 0.250000 0.650641
O O9 0.374313 0.236884 0.676639
O O10 0.310903 0.000000 0.647861
O O11 0.500000 0.290796 0.817781
O O12 0.582149 0.500000 0.791158
O O13 0.594545 0.237755 0.759676
O O14 0.622541 0.281339 0.842051
O O15 0.076800 0.500000 0.714591
O O16 0.000000 0.728299 0.699960
O O17 0.303650 0.500000 0.126529
O O18 0.250000 0.750000 0.153863
O O19 0.315602 0.746689 0.081656
O O20 0.370046 0.000000 0.058741
O O21 0.353034 0.786911 0.000000
#
# Coordination Sequence:
#
# PCOD8273432 Si02
#       7
#     8  16  16  16  16  16  16
#     4   9  17  31  53  81 111 143 179 217 257 299
#     4   8  13  22  37  58  87 123 161 202 246 290
#     4   9  17  28  44  69  98 127 164 208 251 298
#     4   9  20  39  60  80 101 130 170 214 257 304
#     4   9  18  33  52  73  98 130 165 202 249 305
#     4  11  24  40  59  82 111 143 175 214 262 315
#     4  10  21  37  57  83 114 145 180 220 259 303
#
# _framework density 18.615341999999998
#
# number of rings (size 3 to 8) (size 9 to 14) (size 15 to 20)
#    0.000    2.692    0.000    1.154    1.077    4.615 
#    0.000    3.077    0.000    0.462    0.000    3.231 
#    0.000    0.000    0.000   28.769    0.000   15.692 
#
# Total GULP energy -644291.953115 kJ/mol
# GULP energy per Si atom -12390.229868 kJ/mol
# Density = 1.857297 g / cm^3
# Si number density = 18.615342 Si / 1000 Ang^3
#
#
#
# Elastic Constant Matrix: (Units=GPa)
#
#
# Indices 1 2 3 4 5 6 
#
# 1 98.7633 36.1177 70.1223 0.0000 0.0000 0.0000
# 2 36.1177 54.2924 43.1128 0.0000 0.0000 0.0000
# 3 70.1223 43.1128 129.1835 0.0000 0.0000 0.0000
# 4 0.0000 0.0000 0.0000 24.4966 0.0000 0.0000
# 5 0.0000 0.0000 0.0000 0.0000 32.5650 0.0000
# 6 0.0000 0.0000 0.0000 0.0000 0.0000 27.0073
#
#
#
# Elastic Compliance Matrix: (Units=1/GPa)
#
#
# Indices 1 2 3 4 5 6 
#
# 1 0.017653 -0.005625 -0.007705 0.000000 0.000000 0.000000
# 2 -0.005625 0.026852 -0.005908 0.000000 0.000000 0.000000
# 3 -0.007705 -0.005908 0.013895 0.000000 0.000000 0.000000
# 4 0.000000 0.000000 0.000000 0.040822 0.000000 0.000000
# 5 0.000000 0.000000 0.000000 0.000000 0.030708 0.000000
# 6 0.000000 0.000000 0.000000 0.000000 0.000000 0.037027
#
#
# Mechanical properties :
#
#
# Convention : Reuss Voigt Hill
#
# Bulk Modulus (GPa) = 50.19091 64.54944 57.37017
# Shear Modulus (GPa) = 23.57659 25.67286 24.62473
#
# Velocity S-wave (km/s) = 3.56267 3.71768 3.64100
# Velocity P-wave (km/s) = 6.62904 7.29239 6.96861
#
# Compressibility (1/GPa) = 0.01992393
#
# Stress axis : x y z
#
# Youngs Moduli (GPa) = 56.64824 37.24057 71.96844
#
# Poissons Ratio (x) = 0.20948 0.55451
# Poissons Ratio (y) = 0.31865 0.42520
# Poissons Ratio (z) = 0.43647 0.22002
#
# Static dielectric constant tensor:
#      x y z
#    x 3.458710 0.000000 0.000000 
#    y 0.000000 3.355500 0.000000 
#    z 0.000000 0.000000 3.845530 
# 
# 
# High freq. dielectric constant tensor:
#      x y z
#    x 1.700170 0.000000 0.000000 
#    y 0.000000 1.721030 0.000000 
#    z 0.000000 0.000000 1.729890 
# 
# From -- ./inp_files/78232.got.cif
#   From: 2010.03.12/outbox.cif.g09.slc.cpg/sg65_40_cif.got.tgz:78232.got - 2010.04.10 20:52:16.
