data_PCOD8273256
_publ_section_title
;
Structure prediction by ZEFSAII (Michael W. Deem and Ramdas Pophale) SiO2 
 PCOD8273256
Probable space group: C M M M
;
_chemical_formula_sum "Si O2"
_cell_formula_units_Z 104
_cell_length_a 28.455063
_cell_length_b 8.776736
_cell_length_c 22.665225
_cell_angle_alpha 90.000000
_cell_angle_beta 90.000000
_cell_angle_gamma 90.000000
_cell_volume 5660.471673
_symmetry_space_group_name_H-M "C M M M"
_symmetry_group_IT_number 65
_symmetry_cell_setting 'orthorhombic'
loop_
_space_group_symop_operation_xyz
x,y,z
-x,-y,z
x,-y,-z
-x,y,-z
-x,-y,-z
x,y,-z
-x,y,z
x,-y,z
1/2+x,1/2+y,z
1/2-x,1/2-y,z
1/2+x,1/2-y,-z
1/2-x,1/2+y,-z
1/2-x,1/2-y,-z
1/2+x,1/2+y,-z
1/2-x,1/2+y,z
1/2+x,1/2-y,z
loop_
_atom_site_type_symbol
_atom_site_label
_atom_site_fract_x
_atom_site_fract_y
_atom_site_fract_z
Si Si1 0.356504 0.323644 0.105393
Si Si2 0.699023 0.821203 0.000000
Si Si3 0.700566 0.321779 0.567910
Si Si4 0.299505 0.321700 0.222250
Si Si5 0.552956 0.177334 0.143106
Si Si6 0.449101 0.180789 0.723160
Si Si7 0.353348 0.818880 0.670033
O O1 0.352250 0.500000 0.088640
O O2 0.335909 0.288176 0.169929
O O3 0.410960 0.273244 0.103455
O O4 0.328363 0.227153 0.058165
O O5 0.750000 0.750000 0.000000
O O6 0.705039 0.000000 0.000000
O O7 0.689115 0.285497 0.500000
O O8 0.702968 0.500000 0.580648
O O9 0.750000 0.250000 0.586947
O O10 0.659528 0.245692 0.606033
O O11 0.293312 0.500000 0.234023
O O12 0.250000 0.250000 0.203692
O O13 0.317319 0.243128 0.281686
O O14 0.500000 0.204544 0.119523
O O15 0.557266 0.238184 0.210014
O O16 0.566406 0.000000 0.139221
O O17 0.500000 0.238756 0.698674
O O18 0.406189 0.241572 0.683456
O O19 0.448984 0.000000 0.724024
O O20 0.350755 0.000000 0.669761
#
# Coordination Sequence:
#
# PCOD8273256 Si02
#       7
#    16   8  16  16  16  16  16
#     4  11  23  39  59  84 114 147 185 230 277 329
#     4  12  26  44  65  84 109 146 190 233 277 335
#     4  10  21  37  55  75 105 144 185 227 271 324
#     4  11  23  36  52  77 110 144 178 221 271 325
#     4   9  17  33  58  85 114 148 185 225 274 332
#     4   8  15  29  51  80 111 143 179 219 266 320
#     4  11  20  32  55  82 110 141 178 225 272 322
#
# _framework density 18.373028000000001
#
# number of rings (size 3 to 8) (size 9 to 14) (size 15 to 20)
#    0.000    1.846    1.538    4.385    0.000    4.308 
#    0.000    0.385    0.000    4.615    0.000    3.231 
#    0.000    0.000    0.000    0.000    0.000    0.000 
#
# Total GULP energy -644882.426058 kJ/mol
# GULP energy per Si atom -12401.585116 kJ/mol
# Density = 1.833121 g / cm^3
# Si number density = 18.373028 Si / 1000 Ang^3
#
#
#
# Elastic Constant Matrix: (Units=GPa)
#
#
# Indices 1 2 3 4 5 6 
#
# 1 143.5672 50.3852 47.8302 0.0000 0.0000 0.0000
# 2 50.3852 93.8169 41.0962 0.0000 0.0000 0.0000
# 3 47.8302 41.0962 78.1698 0.0000 0.0000 0.0000
# 4 0.0000 0.0000 0.0000 25.7812 0.0000 0.0000
# 5 0.0000 0.0000 0.0000 0.0000 26.5430 0.0000
# 6 0.0000 0.0000 0.0000 0.0000 0.0000 28.6210
#
#
#
# Elastic Compliance Matrix: (Units=1/GPa)
#
#
# Indices 1 2 3 4 5 6 
#
# 1 0.009481 -0.003314 -0.004059 0.000000 0.000000 0.000000
# 2 -0.003314 0.015006 -0.005862 0.000000 0.000000 0.000000
# 3 -0.004059 -0.005862 0.018358 0.000000 0.000000 0.000000
# 4 0.000000 0.000000 0.000000 0.038788 0.000000 0.000000
# 5 0.000000 0.000000 0.000000 0.000000 0.037675 0.000000
# 6 0.000000 0.000000 0.000000 0.000000 0.000000 0.034939
#
#
# Mechanical properties :
#
#
# Convention : Reuss Voigt Hill
#
# Bulk Modulus (GPa) = 61.06382 66.01969 63.54176
# Shear Modulus (GPa) = 26.85658 27.93853 27.39755
#
# Velocity S-wave (km/s) = 3.82742 3.90375 3.86577
# Velocity P-wave (km/s) = 7.26911 7.50533 7.38816
#
# Compressibility (1/GPa) = 0.01637631
#
# Stress axis : x y z
#
# Youngs Moduli (GPa) = 105.47932 66.63813 54.47257
#
# Poissons Ratio (x) = 0.22082 0.22109
# Poissons Ratio (y) = 0.34952 0.31931
# Poissons Ratio (z) = 0.42812 0.39062
#
# Static dielectric constant tensor:
#      x y z
#    x 3.808840 0.000000 0.000000 
#    y 0.000000 3.313580 0.000000 
#    z 0.000000 0.000000 3.252050 
# 
# 
# High freq. dielectric constant tensor:
#      x y z
#    x 1.723350 0.000000 0.000000 
#    y 0.000000 1.709600 0.000000 
#    z 0.000000 0.000000 1.694580 
# 
# From -- ./inp_files/60793.got.cif
#   From: 2010.03.12/outbox.cif.g09.slc.cpg/sg65_31_cif.got.tgz:60793.got - 2010.04.10 20:52:16.
