data_PCOD8273792
_publ_section_title
;
Structure prediction by ZEFSAII (Michael W. Deem and Ramdas Pophale) SiO2 
 PCOD8273792
Probable space group: C M M M
;
_chemical_formula_sum "Si O2"
_cell_formula_units_Z 72
_cell_length_a 15.951057
_cell_length_b 24.798331
_cell_length_c 9.088676
_cell_angle_alpha 90.000000
_cell_angle_beta 90.000000
_cell_angle_gamma 90.000000
_cell_volume 3595.112964
_symmetry_space_group_name_H-M "C M M M"
_symmetry_group_IT_number 65
_symmetry_cell_setting 'orthorhombic'
loop_
_space_group_symop_operation_xyz
x,y,z
-x,-y,z
x,-y,-z
-x,y,-z
-x,-y,-z
x,y,-z
-x,y,z
x,-y,z
1/2+x,1/2+y,z
1/2-x,1/2-y,z
1/2+x,1/2-y,-z
1/2-x,1/2+y,-z
1/2-x,1/2-y,-z
1/2+x,1/2+y,-z
1/2-x,1/2+y,z
1/2+x,1/2-y,z
loop_
_atom_site_type_symbol
_atom_site_label
_atom_site_fract_x
_atom_site_fract_y
_atom_site_fract_z
Si Si1 0.312138 0.907073 0.831257
Si Si2 0.179371 0.294192 0.674264
Si Si3 0.626010 0.439774 0.164583
Si Si4 0.500000 0.250248 0.325668
Si Si5 0.401631 0.000000 0.335357
Si Si6 0.000000 0.869743 0.672807
O O1 0.300078 0.849595 0.754681
O O2 0.225128 0.938228 0.821202
O O3 0.377937 0.945106 0.748807
O O4 0.340888 0.898977 0.000000
O O5 0.181826 0.303405 0.500000
O O6 0.250000 0.250000 0.719469
O O7 0.085764 0.277999 0.728362
O O8 0.595767 0.500000 0.202155
O O9 0.584030 0.399300 0.277787
O O10 0.597585 0.423921 0.000000
O O11 0.500000 0.252255 0.500000
O O12 0.500000 0.310157 0.258956
O O13 0.500000 0.000000 0.348434
O O14 0.361880 0.000000 0.500000
O O15 0.000000 0.866762 0.500000
#
# Coordination Sequence:
#
# PCOD8273792 Si02
#       6
#    16  16  16   8   8   8
#     4  11  23  41  64  91 124 160 202 252 304 363
#     4  10  21  39  62  87 120 163 206 252 307 364
#     4  10  21  39  58  81 120 164 194 231 299 362
#     4   9  20  38  58  82 117 154 194 245 305 360
#     4  11  25  43  65  92 121 158 201 247 308 375
#     4  11  22  36  59  90 117 151 204 255 290 340
#
# _framework density 20.027187000000001
#
# number of rings (size 3 to 8) (size 9 to 14) (size 15 to 20)
#    0.000    1.667    1.111    3.000    1.556    6.667 
#    0.000    2.222    0.000    0.000    0.000    0.000 
#    0.000    0.000    0.000    0.000    0.000    0.000 
#
# Total GULP energy -446411.114434 kJ/mol
# GULP energy per Si atom -12400.308734 kJ/mol
# Density = 1.998160 g / cm^3
# Si number density = 20.027187 Si / 1000 Ang^3
#
#
#
# Elastic Constant Matrix: (Units=GPa)
#
#
# Indices 1 2 3 4 5 6 
#
# 1 95.3383 27.2634 25.2683 0.0000 0.0000 0.0000
# 2 27.2634 130.2442 55.6201 0.0000 0.0000 0.0000
# 3 25.2683 55.6201 85.6817 0.0000 0.0000 0.0000
# 4 0.0000 0.0000 0.0000 26.0577 0.0000 0.0000
# 5 0.0000 0.0000 0.0000 0.0000 26.1646 0.0000
# 6 0.0000 0.0000 0.0000 0.0000 0.0000 27.9724
#
#
#
# Elastic Compliance Matrix: (Units=1/GPa)
#
#
# Indices 1 2 3 4 5 6 
#
# 1 0.011543 -0.001332 -0.002540 0.000000 0.000000 0.000000
# 2 -0.001332 0.010776 -0.006603 0.000000 0.000000 0.000000
# 3 -0.002540 -0.006603 0.016706 0.000000 0.000000 0.000000
# 4 0.000000 0.000000 0.000000 0.038376 0.000000 0.000000
# 5 0.000000 0.000000 0.000000 0.000000 0.038220 0.000000
# 6 0.000000 0.000000 0.000000 0.000000 0.000000 0.035750
#
#
# Mechanical properties :
#
#
# Convention : Reuss Voigt Hill
#
# Bulk Modulus (GPa) = 55.31786 58.61866 56.96826
# Shear Modulus (GPa) = 28.03562 29.57977 28.80769
#
# Velocity S-wave (km/s) = 3.74555 3.84732 3.79678
# Velocity P-wave (km/s) = 6.81079 7.00492 6.90854
#
# Compressibility (1/GPa) = 0.01807734
#
# Stress axis : x y z
#
# Youngs Moduli (GPa) = 86.63346 92.79639 59.85807
#
# Poissons Ratio (x) = 0.12357 0.15202
# Poissons Ratio (y) = 0.11537 0.39522
# Poissons Ratio (z) = 0.22002 0.61270
#
# Static dielectric constant tensor:
#      x y z
#    x 3.725720 0.000000 0.000000 
#    y 0.000000 3.674610 0.000000 
#    z 0.000000 0.000000 3.607160 
# 
# 
# High freq. dielectric constant tensor:
#      x y z
#    x 1.792480 0.000000 0.000000 
#    y 0.000000 1.793580 0.000000 
#    z 0.000000 0.000000 1.770580 
# 
# From -- ./inp_files/9318.got.cif
#   From: 2010.03.12/outbox.cif.g09.slc.cpg/sg65_5_cif.got.tgz:9318.got - 2010.04.10 20:52:16.
