data_PCOD8273469
_publ_section_title
;
Structure prediction by ZEFSAII (Michael W. Deem and Ramdas Pophale) SiO2 
 PCOD8273469
Probable space group: C M M M
;
_chemical_formula_sum "Si O2"
_cell_formula_units_Z 96
_cell_length_a 18.820972
_cell_length_b 9.044325
_cell_length_c 30.332169
_cell_angle_alpha 90.000000
_cell_angle_beta 90.000000
_cell_angle_gamma 90.000000
_cell_volume 5163.232427
_symmetry_space_group_name_H-M "C M M M"
_symmetry_group_IT_number 65
_symmetry_cell_setting 'orthorhombic'
loop_
_space_group_symop_operation_xyz
x,y,z
-x,-y,z
x,-y,-z
-x,y,-z
-x,-y,-z
x,y,-z
-x,y,z
x,-y,z
1/2+x,1/2+y,z
1/2-x,1/2-y,z
1/2+x,1/2-y,-z
1/2-x,1/2+y,-z
1/2-x,1/2-y,-z
1/2+x,1/2+y,-z
1/2-x,1/2+y,z
1/2+x,1/2-y,z
loop_
_atom_site_type_symbol
_atom_site_label
_atom_site_fract_x
_atom_site_fract_y
_atom_site_fract_z
Si Si1 0.922202 0.825498 0.874751
Si Si2 0.826103 0.325782 0.297152
Si Si3 0.822062 0.172030 0.551293
Si Si4 0.581864 0.172523 0.618337
Si Si5 0.824269 0.827898 0.048794
Si Si6 0.583029 0.671705 0.224169
O O1 0.873683 0.757273 0.913301
O O2 0.893174 0.790523 0.825843
O O3 0.000000 0.754268 0.880200
O O4 0.928025 0.000000 0.880915
O O5 0.814683 0.500000 0.293929
O O6 0.750000 0.250000 0.301228
O O7 0.873293 0.280517 0.339060
O O8 0.867777 0.272584 0.254220
O O9 0.835051 0.203447 0.500000
O O10 0.750000 0.250000 0.567892
O O11 0.889616 0.237298 0.576553
O O12 0.814333 0.000000 0.561779
O O13 0.500000 0.215747 0.626536
O O14 0.590035 0.000000 0.607991
O O15 0.750000 0.750000 0.052793
O O16 0.812095 0.000000 0.057467
O O17 0.857584 0.801149 0.000000
O O18 0.500000 0.709968 0.231269
O O19 0.596688 0.500000 0.235028
#
# Coordination Sequence:
#
# PCOD8273469 Si02
#       6
#    16  16  16  16  16  16
#     4   8  15  29  49  73  99 126 161 206 250 295
#     4  11  23  38  56  79 107 137 174 218 260 307
#     4  10  21  37  58  84 113 145 181 220 261 306
#     4  10  22  39  58  81 109 141 176 216 263 311
#     4   9  17  29  46  68  95 128 164 203 248 296
#     4   9  18  34  55  77 103 135 169 208 258 312
#
# _framework density 18.593003
#
# number of rings (size 3 to 8) (size 9 to 14) (size 15 to 20)
#    0.000    2.500    0.000    3.000    0.000    6.333 
#    0.000    5.833    0.000    1.500    0.000    2.333 
#    0.000    0.000    0.000    0.000    0.000    0.000 
#
# Total GULP energy -595175.324997 kJ/mol
# GULP energy per Si atom -12399.485937 kJ/mol
# Density = 1.855068 g / cm^3
# Si number density = 18.593003 Si / 1000 Ang^3
#
#
#
# Elastic Constant Matrix: (Units=GPa)
#
#
# Indices 1 2 3 4 5 6 
#
# 1 126.3876 52.4645 81.1063 0.0000 0.0000 0.0000
# 2 52.4645 59.2966 52.0558 0.0000 0.0000 0.0000
# 3 81.1063 52.0558 125.9834 0.0000 0.0000 0.0000
# 4 0.0000 0.0000 0.0000 25.5413 0.0000 0.0000
# 5 0.0000 0.0000 0.0000 0.0000 38.7586 0.0000
# 6 0.0000 0.0000 0.0000 0.0000 0.0000 25.7961
#
#
#
# Elastic Compliance Matrix: (Units=1/GPa)
#
#
# Indices 1 2 3 4 5 6 
#
# 1 0.015464 -0.007756 -0.006751 0.000000 0.000000 0.000000
# 2 -0.007756 0.030354 -0.007549 0.000000 0.000000 0.000000
# 3 -0.006751 -0.007549 0.015403 0.000000 0.000000 0.000000
# 4 0.000000 0.000000 0.000000 0.039152 0.000000 0.000000
# 5 0.000000 0.000000 0.000000 0.000000 0.025801 0.000000
# 6 0.000000 0.000000 0.000000 0.000000 0.000000 0.038766
#
#
# Mechanical properties :
#
#
# Convention : Reuss Voigt Hill
#
# Bulk Modulus (GPa) = 58.44751 75.88010 67.16381
# Shear Modulus (GPa) = 23.28261 26.42192 24.85227
#
# Velocity S-wave (km/s) = 3.54252 3.77380 3.65998
# Velocity P-wave (km/s) = 6.94522 7.73876 7.35270
#
# Compressibility (1/GPa) = 0.01710937
#
# Stress axis : x y z
#
# Youngs Moduli (GPa) = 64.66757 32.94502 64.92324
#
# Poissons Ratio (x) = 0.25551 0.43828
# Poissons Ratio (y) = 0.50154 0.49011
# Poissons Ratio (z) = 0.43655 0.24870
#
# Static dielectric constant tensor:
#      x y z
#    x 3.523300 0.000000 0.000000 
#    y 0.000000 3.220370 0.000000 
#    z 0.000000 0.000000 3.640850 
# 
# 
# High freq. dielectric constant tensor:
#      x y z
#    x 1.721580 0.000000 0.000000 
#    y 0.000000 1.703360 0.000000 
#    z 0.000000 0.000000 1.734650 
# 
# From -- ./inp_files/73174.got.cif
#   From: 2010.03.12/outbox.cif.g09.slc.cpg/sg65_37_cif.got.tgz:73174.got - 2010.04.10 20:52:16.
