data_PCOD8273372
_publ_section_title
;
Structure prediction by ZEFSAII (Michael W. Deem and Ramdas Pophale) SiO2 
 PCOD8273372
Probable space group: C M M M
;
_chemical_formula_sum "Si O2"
_cell_formula_units_Z 88
_cell_length_a 8.886164
_cell_length_b 18.487029
_cell_length_c 28.559176
_cell_angle_alpha 90.000000
_cell_angle_beta 90.000000
_cell_angle_gamma 90.000000
_cell_volume 4691.666350
_symmetry_space_group_name_H-M "C M M M"
_symmetry_group_IT_number 65
_symmetry_cell_setting 'orthorhombic'
loop_
_space_group_symop_operation_xyz
x,y,z
-x,-y,z
x,-y,-z
-x,y,-z
-x,-y,-z
x,y,-z
-x,y,z
x,-y,z
1/2+x,1/2+y,z
1/2-x,1/2-y,z
1/2+x,1/2-y,-z
1/2-x,1/2+y,-z
1/2-x,1/2-y,-z
1/2+x,1/2+y,-z
1/2-x,1/2+y,z
1/2+x,1/2-y,z
loop_
_atom_site_type_symbol
_atom_site_label
_atom_site_fract_x
_atom_site_fract_y
_atom_site_fract_z
Si Si1 0.824072 0.584532 0.408259
Si Si2 0.321525 0.671852 0.326193
Si Si3 0.175926 0.826849 0.051403
Si Si4 0.176522 0.328389 0.500000
Si Si5 0.678816 0.580342 0.135819
Si Si6 0.678471 0.418646 0.238960
O O1 0.786725 0.500000 0.414099
O O2 0.726709 0.616839 0.366433
O O3 0.772673 0.625884 0.454998
O O4 0.000000 0.596686 0.397941
O O5 0.500000 0.680406 0.326564
O O6 0.250000 0.750000 0.334236
O O7 0.260597 0.637721 0.277437
O O8 0.250000 0.750000 0.054176
O O9 0.248645 0.873770 0.093217
O O10 0.000000 0.817105 0.059621
O O11 0.207039 0.862109 0.000000
O O12 0.250000 0.250000 0.500000
O O13 0.000000 0.316264 0.500000
O O14 0.500000 0.579580 0.132034
O O15 0.742972 0.500000 0.129947
O O16 0.727939 0.609600 0.187244
O O17 0.500000 0.422667 0.242028
O O18 0.742186 0.500000 0.247974
#
# Coordination Sequence:
#
# PCOD8273372 Si02
#       6
#    16  16  16   8  16  16
#     4  10  21  38  59  81 106 137 172 209 251 298
#     4  11  22  35  52  76 105 135 170 210 251 296
#     4   9  17  28  43  65  92 121 153 191 236 285
#     4  10  21  37  57  81 109 140 171 206 248 294
#     4   8  14  26  45  68  92 119 155 199 243 285
#     4   8  15  29  48  69  94 125 160 199 245 295
#
# _framework density 18.756661999999999
#
# number of rings (size 3 to 8) (size 9 to 14) (size 15 to 20)
#    0.000    2.727    0.000    3.000    0.000    5.455 
#    0.000    1.818    0.000    3.273    0.000    7.636 
#    0.000    0.000    0.000    0.000    0.000    0.000 
#
# Total GULP energy -545359.083827 kJ/mol
# GULP energy per Si atom -12394.524632 kJ/mol
# Density = 1.871397 g / cm^3
# Si number density = 18.756662 Si / 1000 Ang^3
#
#
#
# Elastic Constant Matrix: (Units=GPa)
#
#
# Indices 1 2 3 4 5 6 
#
# 1 28.6730 28.4502 35.1130 0.0000 0.0000 0.0000
# 2 28.4502 117.6631 81.0562 0.0000 0.0000 0.0000
# 3 35.1130 81.0562 177.1128 0.0000 0.0000 0.0000
# 4 0.0000 0.0000 0.0000 39.9206 0.0000 0.0000
# 5 0.0000 0.0000 0.0000 0.0000 15.2604 0.0000
# 6 0.0000 0.0000 0.0000 0.0000 0.0000 19.3238
#
#
#
# Elastic Compliance Matrix: (Units=1/GPa)
#
#
# Indices 1 2 3 4 5 6 
#
# 1 0.050481 -0.007757 -0.006458 0.000000 0.000000 0.000000
# 2 -0.007757 0.013604 -0.004688 0.000000 0.000000 0.000000
# 3 -0.006458 -0.004688 0.009072 0.000000 0.000000 0.000000
# 4 0.000000 0.000000 0.000000 0.025050 0.000000 0.000000
# 5 0.000000 0.000000 0.000000 0.000000 0.065529 0.000000
# 6 0.000000 0.000000 0.000000 0.000000 0.000000 0.051750
#
#
# Mechanical properties :
#
#
# Convention : Reuss Voigt Hill
#
# Bulk Modulus (GPa) = 28.28788 68.07640 48.18214
# Shear Modulus (GPa) = 18.86252 26.82292 22.84272
#
# Velocity S-wave (km/s) = 3.17463 3.78570 3.49355
# Velocity P-wave (km/s) = 5.34340 7.44862 6.48205
#
# Compressibility (1/GPa) = 0.03535083
#
# Stress axis : x y z
#
# Youngs Moduli (GPa) = 19.80929 73.50773 110.23060
#
# Poissons Ratio (x) = 0.57022 0.71185
# Poissons Ratio (y) = 0.15367 0.51676
# Poissons Ratio (z) = 0.12793 0.34461
#
# Static dielectric constant tensor:
#      x y z
#    x 3.051220 0.000000 0.000000 
#    y 0.000000 3.541700 0.000000 
#    z 0.000000 0.000000 4.003810 
# 
# 
# High freq. dielectric constant tensor:
#      x y z
#    x 1.685880 0.000000 0.000000 
#    y 0.000000 1.728450 0.000000 
#    z 0.000000 0.000000 1.750860 
# 
# From -- ./inp_files/76566.got.cif
#   From: 2010.03.12/outbox.cif.g09.slc.cpg/sg65_39_cif.got.tgz:76566.got - 2010.04.10 20:52:16.
