data_PCOD8273072
_publ_section_title
;
Structure prediction by ZEFSAII (Michael W. Deem and Ramdas Pophale) SiO2 
 PCOD8273072
Probable space group: C M M M
;
_chemical_formula_sum "Si O2"
_cell_formula_units_Z 56
_cell_length_a 8.976640
_cell_length_b 18.257369
_cell_length_c 17.819166
_cell_angle_alpha 90.000000
_cell_angle_beta 90.000000
_cell_angle_gamma 90.000000
_cell_volume 2920.380066
_symmetry_space_group_name_H-M "C M M M"
_symmetry_group_IT_number 65
_symmetry_cell_setting 'orthorhombic'
loop_
_space_group_symop_operation_xyz
x,y,z
-x,-y,z
x,-y,-z
-x,y,-z
-x,-y,-z
x,y,-z
-x,y,z
x,-y,z
1/2+x,1/2+y,z
1/2-x,1/2-y,z
1/2+x,1/2-y,-z
1/2-x,1/2+y,-z
1/2-x,1/2-y,-z
1/2+x,1/2+y,-z
1/2-x,1/2+y,z
1/2+x,1/2-y,z
loop_
_atom_site_type_symbol
_atom_site_label
_atom_site_fract_x
_atom_site_fract_y
_atom_site_fract_z
Si Si1 0.326535 0.175982 0.416264
Si Si2 0.673417 0.084447 0.724687
Si Si3 0.323240 0.582165 0.000000
Si Si4 0.323374 0.671230 0.855632
O O1 0.270220 0.154473 0.500000
O O2 0.500000 0.192550 0.417211
O O3 0.250000 0.250000 0.387201
O O4 0.288544 0.110065 0.359806
O O5 0.500000 0.097452 0.743495
O O6 0.774177 0.130460 0.780713
O O7 0.717811 0.000000 0.731473
O O8 0.265943 0.624330 0.073527
O O9 0.256095 0.500000 0.000000
O O10 0.500000 0.578361 0.000000
O O11 0.500000 0.680379 0.855624
O O12 0.250000 0.750000 0.860384
#
# Coordination Sequence:
#
# PCOD8273072 Si02
#       4
#    16  16   8  16
#     4   9  18  33  53  76 103 138 178 218 262 313
#     4  10  21  36  54  79 110 141 177 222 269 317
#     4   9  19  36  57  81 108 139 176 217 262 314
#     4  11  22  37  58  81 108 142 180 220 263 314
#
# _framework density 19.175585999999999
#
# number of rings (size 3 to 8) (size 9 to 14) (size 15 to 20)
#    0.000    2.143    0.000    3.000    0.000    5.714 
#    0.000    5.000    0.000    5.143    0.000    6.000 
#    0.000    0.000    0.000    0.000    0.000    0.000 
#
# Total GULP energy -347258.152511 kJ/mol
# GULP energy per Si atom -12402.076875 kJ/mol
# Density = 1.913194 g / cm^3
# Si number density = 19.175586 Si / 1000 Ang^3
#
#
#
# Elastic Constant Matrix: (Units=GPa)
#
#
# Indices 1 2 3 4 5 6 
#
# 1 50.9583 47.6400 40.7707 0.0000 0.0000 0.0000
# 2 47.6400 168.7163 77.9188 0.0000 0.0000 0.0000
# 3 40.7707 77.9188 127.6206 0.0000 0.0000 0.0000
# 4 0.0000 0.0000 0.0000 38.3474 0.0000 0.0000
# 5 0.0000 0.0000 0.0000 0.0000 22.8311 0.0000
# 6 0.0000 0.0000 0.0000 0.0000 0.0000 11.9544
#
#
#
# Elastic Compliance Matrix: (Units=1/GPa)
#
#
# Indices 1 2 3 4 5 6 
#
# 1 0.029707 -0.005578 -0.006085 0.000000 0.000000 0.000000
# 2 -0.005578 0.009302 -0.003897 0.000000 0.000000 0.000000
# 3 -0.006085 -0.003897 0.012159 0.000000 0.000000 0.000000
# 4 0.000000 0.000000 0.000000 0.026077 0.000000 0.000000
# 5 0.000000 0.000000 0.000000 0.000000 0.043800 0.000000
# 6 0.000000 0.000000 0.000000 0.000000 0.000000 0.083651
#
#
# Mechanical properties :
#
#
# Convention : Reuss Voigt Hill
#
# Bulk Modulus (GPa) = 49.88070 75.55047 62.71558
# Shear Modulus (GPa) = 20.61857 26.69096 23.65476
#
# Velocity S-wave (km/s) = 3.28266 3.73490 3.51606
# Velocity P-wave (km/s) = 6.35900 7.62129 7.01858
#
# Compressibility (1/GPa) = 0.02004784
#
# Stress axis : x y z
#
# Youngs Moduli (GPa) = 33.66202 107.50191 82.24274
#
# Poissons Ratio (x) = 0.59967 0.50042
# Poissons Ratio (y) = 0.18777 0.32053
# Poissons Ratio (z) = 0.20482 0.41898
#
# Static dielectric constant tensor:
#      x y z
#    x 3.347740 0.000000 0.000000 
#    y 0.000000 3.658570 0.000000 
#    z 0.000000 0.000000 3.817010 
# 
# 
# High freq. dielectric constant tensor:
#      x y z
#    x 1.729010 0.000000 0.000000 
#    y 0.000000 1.752810 0.000000 
#    z 0.000000 0.000000 1.761500 
# 
# From -- ./inp_files/35446.got.cif
#   From: 2010.03.12/outbox.cif.g09.slc.cpg/sg65_18_cif.got.tgz:35446.got - 2010.04.10 20:52:16.
