data_PCOD8273471
_publ_section_title
;
Structure prediction by ZEFSAII (Michael W. Deem and Ramdas Pophale) SiO2 
 PCOD8273471
Probable space group: C M M M
;
_chemical_formula_sum "Si O2"
_cell_formula_units_Z 80
_cell_length_a 9.289197
_cell_length_b 29.579134
_cell_length_c 14.308618
_cell_angle_alpha 90.000000
_cell_angle_beta 90.000000
_cell_angle_gamma 90.000000
_cell_volume 3931.527497
_symmetry_space_group_name_H-M "C M M M"
_symmetry_group_IT_number 65
_symmetry_cell_setting 'orthorhombic'
loop_
_space_group_symop_operation_xyz
x,y,z
-x,-y,z
x,-y,-z
-x,y,-z
-x,-y,-z
x,y,-z
-x,y,z
x,-y,z
1/2+x,1/2+y,z
1/2-x,1/2-y,z
1/2+x,1/2-y,-z
1/2-x,1/2+y,-z
1/2-x,1/2-y,-z
1/2+x,1/2+y,-z
1/2-x,1/2+y,z
1/2+x,1/2-y,z
loop_
_atom_site_type_symbol
_atom_site_label
_atom_site_fract_x
_atom_site_fract_y
_atom_site_fract_z
Si Si1 0.666328 0.633995 0.605316
Si Si2 0.838921 0.949997 0.110998
Si Si3 0.662068 0.950662 0.611098
Si Si4 0.163999 0.364958 0.111068
Si Si5 0.169774 0.797086 0.234912
O O1 0.721703 0.644346 0.500000
O O2 0.500000 0.622056 0.604679
O O3 0.742156 0.590101 0.651175
O O4 0.700357 0.677409 0.667879
O O5 0.726948 0.912742 0.148654
O O6 0.000000 0.938302 0.147174
O O7 0.791980 0.000000 0.146462
O O8 0.839269 0.949620 0.000000
O O9 0.669335 0.949560 0.500000
O O10 0.500000 0.943068 0.646073
O O11 0.718327 0.000000 0.645913
O O12 0.261988 0.324588 0.149380
O O13 0.000000 0.360379 0.146673
O O14 0.171516 0.362223 0.000000
O O15 0.250000 0.750000 0.242628
O O16 0.000000 0.790272 0.216596
#
# Coordination Sequence:
#
# PCOD8273471 Si02
#       5
#    16  16  16  16  16
#     4   9  19  36  57  82 111 142 178 220 267 320
#     4   8  14  27  50  80 113 148 183 219 263 316
#     4   8  14  26  47  77 111 145 180 217 259 309
#     4  10  21  37  58  84 113 145 182 225 272 322
#     4  11  24  41  60  81 107 140 179 227 279 330
#
# _framework density 20.348324000000002
#
# number of rings (size 3 to 8) (size 9 to 14) (size 15 to 20)
#    0.000    2.800    0.000    2.400    0.000    4.400 
#    0.000    5.000    0.000    1.200    0.000    0.000 
#    0.000    0.000    0.000    0.000    0.000    0.000 
#
# Total GULP energy -495864.515548 kJ/mol
# GULP energy per Si atom -12396.612889 kJ/mol
# Density = 2.030201 g / cm^3
# Si number density = 20.348324 Si / 1000 Ang^3
#
#
#
# Elastic Constant Matrix: (Units=GPa)
#
#
# Indices 1 2 3 4 5 6 
#
# 1 128.6364 99.2786 37.1563 0.0000 0.0000 0.0000
# 2 99.2786 187.5026 33.4965 0.0000 0.0000 0.0000
# 3 37.1563 33.4965 42.4400 0.0000 0.0000 0.0000
# 4 0.0000 0.0000 0.0000 152.2487 0.0000 0.0000
# 5 0.0000 0.0000 0.0000 0.0000 20.5609 0.0000
# 6 0.0000 0.0000 0.0000 0.0000 0.0000 54.5799
#
#
#
# Elastic Compliance Matrix: (Units=1/GPa)
#
#
# Indices 1 2 3 4 5 6 
#
# 1 0.015215 -0.006608 -0.008105 0.000000 0.000000 0.000000
# 2 -0.006608 0.009079 -0.001380 0.000000 0.000000 0.000000
# 3 -0.008105 -0.001380 0.031748 0.000000 0.000000 0.000000
# 4 0.000000 0.000000 0.000000 0.006568 0.000000 0.000000
# 5 0.000000 0.000000 0.000000 0.000000 0.048636 0.000000
# 6 0.000000 0.000000 0.000000 0.000000 0.000000 0.018322
#
#
# Mechanical properties :
#
#
# Convention : Reuss Voigt Hill
#
# Bulk Modulus (GPa) = 41.92001 77.60465 59.76233
# Shear Modulus (GPa) = 29.46273 58.05442 43.75858
#
# Velocity S-wave (km/s) = 3.80928 5.34717 4.64235
# Velocity P-wave (km/s) = 6.32404 8.73750 7.62684
#
# Compressibility (1/GPa) = 0.02385496
#
# Stress axis : x y z
#
# Youngs Moduli (GPa) = 65.72491 110.14887 31.49795
#
# Poissons Ratio (x) = 0.72787 0.25530
# Poissons Ratio (y) = 0.43431 0.04347
# Poissons Ratio (z) = 0.53271 0.15202
#
# Static dielectric constant tensor:
#      x y z
#    x 3.841220 0.000000 0.000000 
#    y 0.000000 3.923850 0.000000 
#    z 0.000000 0.000000 3.529820 
# 
# 
# High freq. dielectric constant tensor:
#      x y z
#    x 1.794510 0.000000 0.000000 
#    y 0.000000 1.796670 0.000000 
#    z 0.000000 0.000000 1.781540 
# 
# From -- ./inp_files/49851.got.cif
#   From: 2010.03.12/outbox.cif.g09.slc.cpg/sg65_25_cif.got.tgz:49851.got - 2010.04.10 20:52:16.
