data_PCOD8273620
_publ_section_title
;
Structure prediction by ZEFSAII (Michael W. Deem and Ramdas Pophale) SiO2 
 PCOD8273620
Probable space group: C M M M
;
_chemical_formula_sum "Si O2"
_cell_formula_units_Z 90
_cell_length_a 8.766399
_cell_length_b 19.271824
_cell_length_c 27.898988
_cell_angle_alpha 90.000000
_cell_angle_beta 90.000000
_cell_angle_gamma 90.000000
_cell_volume 4713.380540
_symmetry_space_group_name_H-M "C M M M"
_symmetry_group_IT_number 65
_symmetry_cell_setting 'orthorhombic'
loop_
_space_group_symop_operation_xyz
x,y,z
-x,-y,z
x,-y,-z
-x,y,-z
-x,-y,-z
x,y,-z
-x,y,z
x,-y,z
1/2+x,1/2+y,z
1/2-x,1/2-y,z
1/2+x,1/2-y,-z
1/2-x,1/2+y,-z
1/2-x,1/2-y,-z
1/2+x,1/2+y,-z
1/2-x,1/2+y,z
1/2+x,1/2-y,z
loop_
_atom_site_type_symbol
_atom_site_label
_atom_site_fract_x
_atom_site_fract_y
_atom_site_fract_z
Si Si1 0.819459 0.826107 0.362034
Si Si2 0.500000 0.000000 0.000000
Si Si3 0.677990 0.080094 0.718099
Si Si4 0.664837 0.137466 0.000000
Si Si5 0.824727 0.920272 0.182620
Si Si6 0.818731 0.077570 0.446586
Si Si7 0.320069 0.678383 0.902070
O O1 0.750000 0.750000 0.360175
O O2 0.773917 0.869959 0.315782
O O3 0.754415 0.866604 0.408776
O O4 0.000000 0.819182 0.363867
O O5 0.638691 0.944773 0.000000
O O6 0.500000 0.093201 0.709817
O O7 0.720411 0.100015 0.772331
O O8 0.722574 0.000000 0.707656
O O9 0.758502 0.159049 0.953761
O O10 0.500000 0.177213 0.000000
O O11 0.766880 0.878526 0.136530
O O12 0.000000 0.903367 0.195599
O O13 0.802708 0.000000 0.168774
O O14 0.762524 0.098322 0.500000
O O15 0.000000 0.077017 0.444819
O O16 0.758833 0.000000 0.433685
O O17 0.500000 0.683908 0.904613
O O18 0.250000 0.750000 0.883806
#
# Coordination Sequence:
#
# PCOD8273620 Si02
#       7
#    16   2  16   8  16  16  16
#     4  11  22  35  54  80 112 150 187 230 280 332
#     4   8  24  40  62  92 112 152 188 240 288 324
#     4  10  21  38  59  84 111 145 186 232 283 336
#     4  10  22  40  60  86 116 149 190 230 280 332
#     4   9  20  38  60  84 112 146 189 237 283 333
#     4   8  15  30  53  80 107 139 183 230 275 328
#     4  11  23  39  60  87 118 156 192 231 280 334
#
# _framework density 19.094574999999999
#
# number of rings (size 3 to 8) (size 9 to 14) (size 15 to 20)
#    0.267    1.956    0.000    3.200    1.244    4.267 
#    0.000    2.222    0.000    1.600    0.000    6.222 
#    0.000    0.000    0.000    0.000    0.000    0.000 
#
# Total GULP energy -557480.194308 kJ/mol
# GULP energy per Si atom -12388.448762 kJ/mol
# Density = 1.905111 g / cm^3
# Si number density = 19.094575 Si / 1000 Ang^3
#
#
#
# Elastic Constant Matrix: (Units=GPa)
#
#
# Indices 1 2 3 4 5 6 
#
# 1 66.5470 43.1739 41.1122 0.0000 0.0000 0.0000
# 2 43.1739 128.8860 82.9600 0.0000 0.0000 0.0000
# 3 41.1122 82.9600 141.3831 0.0000 0.0000 0.0000
# 4 0.0000 0.0000 0.0000 6.4303 0.0000 0.0000
# 5 0.0000 0.0000 0.0000 0.0000 11.1251 0.0000
# 6 0.0000 0.0000 0.0000 0.0000 0.0000 23.0949
#
#
#
# Elastic Compliance Matrix: (Units=1/GPa)
#
#
# Indices 1 2 3 4 5 6 
#
# 1 0.019973 -0.004744 -0.003024 0.000000 0.000000 0.000000
# 2 -0.004744 0.013594 -0.006597 0.000000 0.000000 0.000000
# 3 -0.003024 -0.006597 0.011824 0.000000 0.000000 0.000000
# 4 0.000000 0.000000 0.000000 0.155513 0.000000 0.000000
# 5 0.000000 0.000000 0.000000 0.000000 0.089887 0.000000
# 6 0.000000 0.000000 0.000000 0.000000 0.000000 0.043300
#
#
# Mechanical properties :
#
#
# Convention : Reuss Voigt Hill
#
# Bulk Modulus (GPa) = 60.02432 74.58983 67.30707
# Shear Modulus (GPa) = 13.57313 19.43472 16.50393
#
# Velocity S-wave (km/s) = 2.66904 3.19378 2.94313
# Velocity P-wave (km/s) = 6.40327 7.26281 6.84655
#
# Compressibility (1/GPa) = 0.01665991
#
# Stress axis : x y z
#
# Youngs Moduli (GPa) = 50.06743 73.55941 84.57651
#
# Poissons Ratio (x) = 0.34896 0.25579
# Poissons Ratio (y) = 0.23751 0.55799
# Poissons Ratio (z) = 0.15142 0.48530
#
# Static dielectric constant tensor:
#      x y z
#    x 3.366060 0.000000 0.000000 
#    y 0.000000 3.663100 0.000000 
#    z 0.000000 0.000000 3.672120 
# 
# 
# High freq. dielectric constant tensor:
#      x y z
#    x 1.733520 0.000000 0.000000 
#    y 0.000000 1.749380 0.000000 
#    z 0.000000 0.000000 1.746090 
# 
# From -- ./inp_files/67650.got.cif
#   From: 2010.03.12/outbox.cif.g09.slc.cpg/sg65_34_cif.got.tgz:67650.got - 2010.04.10 20:52:16.
