data_PCOD8273370
_publ_section_title
;
Structure prediction by ZEFSAII (Michael W. Deem and Ramdas Pophale) SiO2 
 PCOD8273370
Probable space group: C M M M
;
_chemical_formula_sum "Si O2"
_cell_formula_units_Z 80
_cell_length_a 8.921528
_cell_length_b 18.224002
_cell_length_c 26.017800
_cell_angle_alpha 90.000000
_cell_angle_beta 90.000000
_cell_angle_gamma 90.000000
_cell_volume 4230.128577
_symmetry_space_group_name_H-M "C M M M"
_symmetry_group_IT_number 65
_symmetry_cell_setting 'orthorhombic'
loop_
_space_group_symop_operation_xyz
x,y,z
-x,-y,z
x,-y,-z
-x,y,-z
-x,-y,-z
x,y,-z
-x,y,z
x,-y,z
1/2+x,1/2+y,z
1/2-x,1/2-y,z
1/2+x,1/2-y,-z
1/2-x,1/2+y,-z
1/2-x,1/2-y,-z
1/2+x,1/2+y,-z
1/2-x,1/2+y,z
1/2+x,1/2-y,z
loop_
_atom_site_type_symbol
_atom_site_label
_atom_site_fract_x
_atom_site_fract_y
_atom_site_fract_z
Si Si1 0.823494 0.671248 0.755392
Si Si2 0.171805 0.087609 0.665246
Si Si3 0.174878 0.175317 0.057319
Si Si4 0.822237 0.082028 0.445661
Si Si5 0.175354 0.915866 0.846005
O O1 0.750000 0.750000 0.749436
O O2 0.781018 0.621774 0.706873
O O3 0.769155 0.632782 0.807096
O O4 0.000000 0.680905 0.757901
O O5 0.226957 0.118174 0.608774
O O6 0.000000 0.111023 0.676682
O O7 0.185396 0.000000 0.666921
O O8 0.250000 0.250000 0.077028
O O9 0.214583 0.109670 0.096164
O O10 0.000000 0.190709 0.056669
O O11 0.232009 0.153865 0.000000
O O12 0.771787 0.121862 0.500000
O O13 0.000000 0.077692 0.443800
O O14 0.756431 0.000000 0.447455
O O15 0.000000 0.905852 0.833769
O O16 0.224483 0.000000 0.840458
#
# Coordination Sequence:
#
# PCOD8273370 Si02
#       5
#    16  16  16  16  16
#     4  12  25  39  55  74 100 135 176 220 264 313
#     4   9  17  31  53  80 109 138 169 209 256 306
#     4   9  18  33  54  80 109 142 178 213 251 298
#     4   7  10  19  40  72 105 134 165 201 243 295
#     4  10  21  37  57  81 109 139 172 213 260 309
#
# _framework density 18.911954999999999
#
# number of rings (size 3 to 8) (size 9 to 14) (size 15 to 20)
#    0.000    2.600    0.000    4.800    0.000    6.000 
#    0.000    2.000    0.000    1.200    0.000    7.000 
#    0.000    0.000    0.000    0.000    0.000    0.000 
#
# Total GULP energy -495605.815077 kJ/mol
# GULP energy per Si atom -12390.145377 kJ/mol
# Density = 1.886891 g / cm^3
# Si number density = 18.911955 Si / 1000 Ang^3
#
#
#
# Elastic Constant Matrix: (Units=GPa)
#
#
# Indices 1 2 3 4 5 6 
#
# 1 61.6013 23.4938 38.7886 0.0000 0.0000 0.0000
# 2 23.4938 51.1123 31.0333 0.0000 0.0000 0.0000
# 3 38.7886 31.0333 133.2529 0.0000 0.0000 0.0000
# 4 0.0000 0.0000 0.0000 -4.9020 0.0000 0.0000
# 5 0.0000 0.0000 0.0000 0.0000 10.5643 0.0000
# 6 0.0000 0.0000 0.0000 0.0000 0.0000 23.8254
#
#
#
# Elastic Compliance Matrix: (Units=1/GPa)
#
#
# Indices 1 2 3 4 5 6 
#
# 1 0.021956 -0.007235 -0.004706 0.000000 0.000000 0.000000
# 2 -0.007235 0.025171 -0.003756 0.000000 0.000000 0.000000
# 3 -0.004706 -0.003756 0.009749 0.000000 0.000000 0.000000
# 4 0.000000 0.000000 0.000000 -0.203999 0.000000 0.000000
# 5 0.000000 0.000000 0.000000 0.000000 0.094659 0.000000
# 6 0.000000 0.000000 0.000000 0.000000 0.000000 0.041972
#
#
# Mechanical properties :
#
#
# Convention : Reuss Voigt Hill
#
# Bulk Modulus (GPa) = 39.24349 48.06644 43.65497
# Shear Modulus (GPa) = 170.09127 16.07425 93.08276
#
# Velocity S-wave (km/s) = 9.49388 2.91856 7.02324
# Velocity P-wave (km/s) = 11.87325 6.06864 9.42874
#
# Compressibility (1/GPa) = 0.02548193
#
# Stress axis : x y z
#
# Youngs Moduli (GPa) = 45.54554 39.72868 102.57207
#
# Poissons Ratio (x) = 0.28742 0.48274
# Poissons Ratio (y) = 0.32951 0.38527
# Poissons Ratio (z) = 0.21435 0.14922
#
# Static dielectric constant tensor:
#      x y z
#    x 3.209820 0.000000 0.000000 
#    y 0.000000 3.306470 0.000000 
#    z 0.000000 0.000000 4.164580 
# 
# 
# High freq. dielectric constant tensor:
#      x y z
#    x 1.704110 0.000000 0.000000 
#    y 0.000000 1.703660 0.000000 
#    z 0.000000 0.000000 1.766190 
# 
# From -- ./inp_files/72754.got.cif
#   From: 2010.03.12/outbox.cif.g09.slc.cpg/sg65_37_cif.got.tgz:72754.got - 2010.04.10 20:52:16.
