data_PCOD8273986
_publ_section_title
;
Structure prediction by ZEFSAII (Michael W. Deem and Ramdas Pophale) SiO2 
 PCOD8273986
Probable space group: C M M M
;
_chemical_formula_sum "Si O2"
_cell_formula_units_Z 96
_cell_length_a 28.726790
_cell_length_b 8.700558
_cell_length_c 20.330803
_cell_angle_alpha 90.000000
_cell_angle_beta 90.000000
_cell_angle_gamma 90.000000
_cell_volume 5081.462656
_symmetry_space_group_name_H-M "C M M M"
_symmetry_group_IT_number 65
_symmetry_cell_setting 'orthorhombic'
loop_
_space_group_symop_operation_xyz
x,y,z
-x,-y,z
x,-y,-z
-x,y,-z
-x,-y,-z
x,y,-z
-x,y,z
x,-y,z
1/2+x,1/2+y,z
1/2-x,1/2-y,z
1/2+x,1/2-y,-z
1/2-x,1/2+y,-z
1/2-x,1/2-y,-z
1/2+x,1/2+y,-z
1/2-x,1/2+y,z
1/2+x,1/2-y,z
loop_
_atom_site_type_symbol
_atom_site_label
_atom_site_fract_x
_atom_site_fract_y
_atom_site_fract_z
Si Si1 0.797951 0.681312 0.873435
Si Si2 0.553539 0.180294 0.813374
Si Si3 0.388419 0.820896 0.686530
Si Si4 0.612364 0.676089 0.925850
Si Si5 0.946259 0.823687 0.575281
Si Si6 0.297887 0.318765 0.269370
O O1 0.793085 0.500000 0.868476
O O2 0.750000 0.750000 0.902337
O O3 0.840486 0.725611 0.920165
O O4 0.808578 0.747942 0.801691
O O5 0.500000 0.225901 0.802955
O O6 0.581324 0.234987 0.748888
O O7 0.572349 0.266245 0.877365
O O8 0.559866 0.000000 0.824914
O O9 0.416076 0.788646 0.619926
O O10 0.340245 0.727091 0.683199
O O11 0.377095 0.000000 0.691640
O O12 0.624232 0.500000 0.909415
O O13 0.593419 0.695018 0.000000
O O14 0.931419 0.796755 0.500000
O O15 0.000000 0.780427 0.585121
O O16 0.937453 0.000000 0.595627
O O17 0.293024 0.500000 0.263536
O O18 0.250000 0.250000 0.298414
#
# Coordination Sequence:
#
# PCOD8273986 Si02
#       6
#    16  16  16  16  16  16
#     4  11  21  36  58  83 111 144 181 227 283 340
#     4  10  22  39  58  81 110 145 187 235 284 336
#     4  11  21  35  58  88 118 151 190 234 281 333
#     4  11  24  40  57  79 108 145 189 235 285 342
#     4   9  19  36  57  84 120 160 199 237 280 332
#     4  11  21  35  57  85 116 149 186 230 280 333
#
# _framework density 18.892199000000002
#
# number of rings (size 3 to 8) (size 9 to 14) (size 15 to 20)
#    0.000    1.500    1.667    6.000    0.000    4.333 
#    0.000    2.500    0.000    0.500    0.000    0.000 
#    0.000    0.000    0.000    0.000    0.000    0.000 
#
# Total GULP energy -595433.866666 kJ/mol
# GULP energy per Si atom -12404.872222 kJ/mol
# Density = 1.884920 g / cm^3
# Si number density = 18.892199 Si / 1000 Ang^3
#
#
#
# Elastic Constant Matrix: (Units=GPa)
#
#
# Indices 1 2 3 4 5 6 
#
# 1 120.3702 51.6627 49.7896 0.0000 0.0000 0.0000
# 2 51.6627 118.9790 36.6115 0.0000 0.0000 0.0000
# 3 49.7896 36.6115 86.1168 0.0000 0.0000 0.0000
# 4 0.0000 0.0000 0.0000 30.0853 0.0000 0.0000
# 5 0.0000 0.0000 0.0000 0.0000 29.6800 0.0000
# 6 0.0000 0.0000 0.0000 0.0000 0.0000 33.4663
#
#
#
# Elastic Compliance Matrix: (Units=1/GPa)
#
#
# Indices 1 2 3 4 5 6 
#
# 1 0.012108 -0.003570 -0.005482 0.000000 0.000000 0.000000
# 2 -0.003570 0.010723 -0.002494 0.000000 0.000000 0.000000
# 3 -0.005482 -0.002494 0.015842 0.000000 0.000000 0.000000
# 4 0.000000 0.000000 0.000000 0.033239 0.000000 0.000000
# 5 0.000000 0.000000 0.000000 0.000000 0.033693 0.000000
# 6 0.000000 0.000000 0.000000 0.000000 0.000000 0.029881
#
#
# Mechanical properties :
#
#
# Convention : Reuss Voigt Hill
#
# Bulk Modulus (GPa) = 64.19085 66.84373 65.51729
# Shear Modulus (GPa) = 30.53018 31.13980 30.83499
#
# Velocity S-wave (km/s) = 4.02434 4.06432 4.04438
# Velocity P-wave (km/s) = 7.45955 7.58178 7.52091
#
# Compressibility (1/GPa) = 0.01557854
#
# Stress axis : x y z
#
# Youngs Moduli (GPa) = 82.59100 93.25977 63.12219
#
# Poissons Ratio (x) = 0.33298 0.34606
# Poissons Ratio (y) = 0.29489 0.15745
# Poissons Ratio (z) = 0.45280 0.23262
#
# Static dielectric constant tensor:
#      x y z
#    x 3.572720 0.000000 0.000000 
#    y 0.000000 3.503170 0.000000 
#    z 0.000000 0.000000 3.261830 
# 
# 
# High freq. dielectric constant tensor:
#      x y z
#    x 1.740570 0.000000 0.000000 
#    y 0.000000 1.743820 0.000000 
#    z 0.000000 0.000000 1.713280 
# 
# From -- ./inp_files/60290.got.cif
#   From: 2010.03.12/outbox.cif.g09.slc.cpg/sg65_31_cif.got.tgz:60290.got - 2010.04.10 20:52:16.
