data_PCOD8273763
_publ_section_title
;
Structure prediction by ZEFSAII (Michael W. Deem and Ramdas Pophale) SiO2 
 PCOD8273763
Probable space group: C M M M
;
_chemical_formula_sum "Si O2"
_cell_formula_units_Z 64
_cell_length_a 8.996134
_cell_length_b 33.152496
_cell_length_c 10.807220
_cell_angle_alpha 90.000000
_cell_angle_beta 90.000000
_cell_angle_gamma 90.000000
_cell_volume 3223.191725
_symmetry_space_group_name_H-M "C M M M"
_symmetry_group_IT_number 65
_symmetry_cell_setting 'orthorhombic'
loop_
_space_group_symop_operation_xyz
x,y,z
-x,-y,z
x,-y,-z
-x,y,-z
-x,-y,-z
x,y,-z
-x,y,z
x,-y,z
1/2+x,1/2+y,z
1/2-x,1/2-y,z
1/2+x,1/2-y,-z
1/2-x,1/2+y,-z
1/2-x,1/2-y,-z
1/2+x,1/2+y,-z
1/2-x,1/2+y,z
1/2+x,1/2-y,z
loop_
_atom_site_type_symbol
_atom_site_label
_atom_site_fract_x
_atom_site_fract_y
_atom_site_fract_z
Si Si1 0.837518 0.500000 0.641652
Si Si2 0.323759 0.205887 0.000000
Si Si3 0.674804 0.839115 0.254452
Si Si4 0.325403 0.455769 0.000000
Si Si5 0.673363 0.791943 0.500000
Si Si6 0.824064 0.923305 0.256130
O O1 0.873257 0.500000 0.500000
O O2 0.743414 0.459936 0.667095
O O3 0.000000 0.500000 0.710176
O O4 0.250000 0.250000 0.000000
O O5 0.273264 0.181553 0.875607
O O6 0.500000 0.212193 0.000000
O O7 0.500000 0.847356 0.249216
O O8 0.722469 0.812938 0.372499
O O9 0.756845 0.880387 0.288306
O O10 0.273993 0.430243 0.115894
O O11 0.249037 0.500000 0.000000
O O12 0.500000 0.462381 0.000000
O O13 0.500000 0.785528 0.500000
O O14 0.750000 0.750000 0.500000
O O15 0.000000 0.922965 0.277421
#
# Coordination Sequence:
#
# PCOD8273763 Si02
#       6
#     8   8  16   8   8  16
#     4  11  25  42  59  80 116 163 200 241 298 351
#     4  10  21  38  62  88 119 156 200 247 297 359
#     4  10  22  39  58  86 122 158 192 240 301 357
#     4   9  17  34  56  81 116 149 181 237 299 335
#     4  10  22  40  62  85 116 153 190 236 295 354
#     4  11  22  38  62  89 117 153 199 246 289 347
#
# _framework density 19.856093999999999
#
# number of rings (size 3 to 8) (size 9 to 14) (size 15 to 20)
#    0.000    1.750    1.250    2.625    1.750    3.000 
#    0.000    2.500    0.000    0.000    0.000    0.000 
#    0.000    0.000    0.000    0.000    0.000    0.000 
#
# Total GULP energy -396616.458459 kJ/mol
# GULP energy per Si atom -12394.264327 kJ/mol
# Density = 1.981090 g / cm^3
# Si number density = 19.856094 Si / 1000 Ang^3
#
#
#
# Elastic Constant Matrix: (Units=GPa)
#
#
# Indices 1 2 3 4 5 6 
#
# 1 63.4060 67.8737 38.1002 0.0000 0.0000 0.0000
# 2 67.8737 193.1991 71.0154 0.0000 0.0000 0.0000
# 3 38.1002 71.0154 145.2174 0.0000 0.0000 0.0000
# 4 0.0000 0.0000 0.0000 -3.6892 0.0000 0.0000
# 5 0.0000 0.0000 0.0000 0.0000 23.4241 0.0000
# 6 0.0000 0.0000 0.0000 0.0000 0.0000 95.6812
#
#
#
# Elastic Compliance Matrix: (Units=1/GPa)
#
#
# Indices 1 2 3 4 5 6 
#
# 1 0.026241 -0.008154 -0.002897 0.000000 0.000000 0.000000
# 2 -0.008154 0.008844 -0.002186 0.000000 0.000000 0.000000
# 3 -0.002897 -0.002186 0.008715 0.000000 0.000000 0.000000
# 4 0.000000 0.000000 0.000000 -0.271059 0.000000 0.000000
# 5 0.000000 0.000000 0.000000 0.000000 0.042691 0.000000
# 6 0.000000 0.000000 0.000000 0.000000 0.000000 0.010451
#
#
# Mechanical properties :
#
#
# Convention : Reuss Voigt Hill
#
# Bulk Modulus (GPa) = 57.71531 83.97790 70.84661
# Shear Modulus (GPa) = -35.24400 38.07208 1.41404
#
# Velocity S-wave (km/s) = -4.21761 4.38356 0.84480
# Velocity P-wave (km/s) = 2.32642 8.24657 6.05880
#
# Compressibility (1/GPa) = 0.01732642
#
# Stress axis : x y z
#
# Youngs Moduli (GPa) = 38.10892 113.07179 114.74181
#
# Poissons Ratio (x) = 0.92196 0.33244
# Poissons Ratio (y) = 0.31073 0.25079
# Poissons Ratio (z) = 0.11041 0.24714
#
# Static dielectric constant tensor:
#      x y z
#    x 3.493840 0.000000 0.000000 
#    y 0.000000 3.538850 0.000000 
#    z 0.000000 0.000000 4.048020 
# 
# 
# High freq. dielectric constant tensor:
#      x y z
#    x 1.765060 0.000000 0.000000 
#    y 0.000000 1.787230 0.000000 
#    z 0.000000 0.000000 1.788460 
# 
# From -- ./inp_files/21104.got.cif
#   From: 2010.03.12/outbox.cif.g09.slc.cpg/sg65_11_cif.got.tgz:21104.got - 2010.04.10 20:52:16.
