data_PCOD8273092
_publ_section_title
;
Structure prediction by ZEFSAII (Michael W. Deem and Ramdas Pophale) SiO2 
 PCOD8273092
Probable space group: C M M M
;
_chemical_formula_sum "Si O2"
_cell_formula_units_Z 88
_cell_length_a 8.070510
_cell_length_b 19.002338
_cell_length_c 29.863366
_cell_angle_alpha 90.000000
_cell_angle_beta 90.000000
_cell_angle_gamma 90.000000
_cell_volume 4579.802772
_symmetry_space_group_name_H-M "C M M M"
_symmetry_group_IT_number 65
_symmetry_cell_setting 'orthorhombic'
loop_
_space_group_symop_operation_xyz
x,y,z
-x,-y,z
x,-y,-z
-x,y,-z
-x,-y,-z
x,y,-z
-x,y,z
x,-y,z
1/2+x,1/2+y,z
1/2-x,1/2-y,z
1/2+x,1/2-y,-z
1/2-x,1/2+y,-z
1/2-x,1/2-y,-z
1/2+x,1/2+y,-z
1/2-x,1/2+y,z
1/2+x,1/2-y,z
loop_
_atom_site_type_symbol
_atom_site_label
_atom_site_fract_x
_atom_site_fract_y
_atom_site_fract_z
Si Si1 0.696166 0.672421 0.950476
Si Si2 0.190879 0.421376 0.778036
Si Si3 0.189448 0.082212 0.609360
Si Si4 0.809339 0.170680 0.697948
Si Si5 0.306669 0.577767 0.872153
Si Si6 0.500000 0.083151 0.549829
O O1 0.500000 0.667466 0.950404
O O2 0.750000 0.750000 0.937450
O O3 0.775380 0.622687 0.912247
O O4 0.764143 0.651553 0.000000
O O5 0.262422 0.500000 0.766425
O O6 0.214290 0.367152 0.737895
O O7 0.275314 0.389845 0.822843
O O8 0.000000 0.427838 0.788704
O O9 0.225979 0.127181 0.653214
O O10 0.329040 0.107378 0.573893
O O11 0.000000 0.095699 0.591669
O O12 0.212423 0.000000 0.621051
O O13 0.750000 0.250000 0.690899
O O14 0.000000 0.170371 0.710804
O O15 0.500000 0.574148 0.881106
O O16 0.226871 0.500000 0.873596
O O17 0.500000 0.116245 0.500000
O O18 0.500000 0.000000 0.546758
#
# Coordination Sequence:
#
# PCOD8273092 Si02
#       6
#    16  16  16  16  16   8
#     4   9  18  32  50  72  97 128 167 209 258 313
#     4  10  21  36  55  78 106 140 177 218 265 323
#     4   9  19  35  56  83 113 148 187 230 281 333
#     4  11  23  37  55  81 109 144 182 225 273 321
#     4   9  18  33  52  73  99 132 168 212 262 310
#     4   9  18  32  56  88 116 146 185 233 282 328
#
# _framework density 19.214801000000001
#
# number of rings (size 3 to 8) (size 9 to 14) (size 15 to 20)
#    0.000    2.455    0.000    1.636    2.545    4.000 
#    0.000    5.455    0.000    0.545    0.000    5.091 
#    0.000    0.000    0.000    0.000    0.000    0.000 
#
# Total GULP energy -545384.348250 kJ/mol
# GULP energy per Si atom -12395.098824 kJ/mol
# Density = 1.917107 g / cm^3
# Si number density = 19.214801 Si / 1000 Ang^3
#
#
#
# Elastic Constant Matrix: (Units=GPa)
#
#
# Indices 1 2 3 4 5 6 
#
# 1 67.4919 29.1550 50.1572 0.0000 0.0000 0.0000
# 2 29.1550 85.9758 71.1862 0.0000 0.0000 0.0000
# 3 50.1572 71.1862 151.8696 0.0000 0.0000 0.0000
# 4 0.0000 0.0000 0.0000 11.1389 0.0000 0.0000
# 5 0.0000 0.0000 0.0000 0.0000 23.5484 0.0000
# 6 0.0000 0.0000 0.0000 0.0000 0.0000 23.3933
#
#
#
# Elastic Compliance Matrix: (Units=1/GPa)
#
#
# Indices 1 2 3 4 5 6 
#
# 1 0.019872 -0.002132 -0.005564 0.000000 0.000000 0.000000
# 2 -0.002132 0.019237 -0.008313 0.000000 0.000000 0.000000
# 3 -0.005564 -0.008313 0.012319 0.000000 0.000000 0.000000
# 4 0.000000 0.000000 0.000000 0.089775 0.000000 0.000000
# 5 0.000000 0.000000 0.000000 0.000000 0.042466 0.000000
# 6 0.000000 0.000000 0.000000 0.000000 0.000000 0.042747
#
#
# Mechanical properties :
#
#
# Convention : Reuss Voigt Hill
#
# Bulk Modulus (GPa) = 51.51849 67.37045 59.44447
# Shear Modulus (GPa) = 18.87474 21.93872 20.40673
#
# Velocity S-wave (km/s) = 3.13757 3.38266 3.26242
# Velocity P-wave (km/s) = 6.32423 7.09890 6.72273
#
# Compressibility (1/GPa) = 0.01941051
#
# Stress axis : x y z
#
# Youngs Moduli (GPa) = 50.32104 51.98286 81.17811
#
# Poissons Ratio (x) = 0.11084 0.45165
# Poissons Ratio (y) = 0.10730 0.67482
# Poissons Ratio (z) = 0.27997 0.43213
#
# Static dielectric constant tensor:
#      x y z
#    x 3.572060 0.000000 0.000000 
#    y 0.000000 3.486000 0.000000 
#    z 0.000000 0.000000 3.676550 
# 
# 
# High freq. dielectric constant tensor:
#      x y z
#    x 1.748580 0.000000 0.000000 
#    y 0.000000 1.729460 0.000000 
#    z 0.000000 0.000000 1.750130 
# 
# From -- ./inp_files/67594.got.cif
#   From: 2010.03.12/outbox.cif.g09.slc.cpg/sg65_34_cif.got.tgz:67594.got - 2010.04.10 20:52:16.
