data_PCOD8273167
_publ_section_title
;
Structure prediction by ZEFSAII (Michael W. Deem and Ramdas Pophale) SiO2 
 PCOD8273167
Probable space group: C M M M
;
_chemical_formula_sum "Si O2"
_cell_formula_units_Z 80
_cell_length_a 13.096805
_cell_length_b 32.418786
_cell_length_c 10.333941
_cell_angle_alpha 90.000000
_cell_angle_beta 90.000000
_cell_angle_gamma 90.000000
_cell_volume 4387.610697
_symmetry_space_group_name_H-M "C M M M"
_symmetry_group_IT_number 65
_symmetry_cell_setting 'orthorhombic'
loop_
_space_group_symop_operation_xyz
x,y,z
-x,-y,z
x,-y,-z
-x,y,-z
-x,-y,-z
x,y,-z
-x,y,z
x,-y,z
1/2+x,1/2+y,z
1/2-x,1/2-y,z
1/2+x,1/2-y,-z
1/2-x,1/2+y,-z
1/2-x,1/2-y,-z
1/2+x,1/2+y,-z
1/2-x,1/2+y,z
1/2+x,1/2-y,z
loop_
_atom_site_type_symbol
_atom_site_label
_atom_site_fract_x
_atom_site_fract_y
_atom_site_fract_z
Si Si1 0.610689 0.364237 0.351770
Si Si2 0.387492 0.452508 0.000000
Si Si3 0.617418 0.847222 0.855196
Si Si4 0.232123 0.297839 0.349061
Si Si5 0.255310 0.075394 0.771958
Si Si6 0.380250 0.000000 0.346639
O O1 0.587344 0.359127 0.500000
O O2 0.500000 0.368566 0.280192
O O3 0.666717 0.322541 0.303879
O O4 0.683207 0.403843 0.335614
O O5 0.322402 0.442284 0.875023
O O6 0.410077 0.500000 0.000000
O O7 0.500000 0.430286 0.000000
O O8 0.500000 0.858139 0.840539
O O9 0.642672 0.813171 0.745874
O O10 0.675107 0.890110 0.836725
O O11 0.642254 0.830191 0.000000
O O12 0.204062 0.306981 0.500000
O O13 0.250000 0.250000 0.325728
O O14 0.326553 0.040449 0.710647
O O15 0.500000 0.000000 0.308026
O O16 0.366825 0.000000 0.500000
#
# Coordination Sequence:
#
# PCOD8273167 Si02
#       6
#    16   8  16  16  16   8
#     4   9  18  33  54  78 106 140 178 223 275 331
#     4  11  22  36  56  82 109 142 187 234 273 324
#     4  10  21  36  56  82 113 149 189 232 281 338
#     4   9  19  35  56  82 112 147 188 233 281 332
#     4  11  20  38  56  79 109 147 182 231 278 331
#     4  11  24  39  57  82 110 143 186 236 287 339
#
# _framework density 18.233159000000001
#
# number of rings (size 3 to 8) (size 9 to 14) (size 15 to 20)
#    0.000    2.000    2.000    1.800    0.000    2.400 
#    0.000    2.500    0.000    2.400    0.000    0.000 
#    0.000    0.000    0.000    0.000    0.000    0.000 
#
# Total GULP energy -495722.494593 kJ/mol
# GULP energy per Si atom -12393.062365 kJ/mol
# Density = 1.819166 g / cm^3
# Si number density = 18.233159 Si / 1000 Ang^3
#
#
#
# Elastic Constant Matrix: (Units=GPa)
#
#
# Indices 1 2 3 4 5 6 
#
# 1 140.3858 56.2474 51.3298 0.0000 0.0000 0.0000
# 2 56.2474 113.6658 40.4147 0.0000 0.0000 0.0000
# 3 51.3298 40.4147 82.9449 0.0000 0.0000 0.0000
# 4 0.0000 0.0000 0.0000 14.6405 0.0000 0.0000
# 5 0.0000 0.0000 0.0000 0.0000 5.7988 0.0000
# 6 0.0000 0.0000 0.0000 0.0000 0.0000 61.8062
#
#
#
# Elastic Compliance Matrix: (Units=1/GPa)
#
#
# Indices 1 2 3 4 5 6 
#
# 1 0.010179 -0.003384 -0.004651 0.000000 0.000000 0.000000
# 2 -0.003384 0.011766 -0.003639 0.000000 0.000000 0.000000
# 3 -0.004651 -0.003639 0.016707 0.000000 0.000000 0.000000
# 4 0.000000 0.000000 0.000000 0.068304 0.000000 0.000000
# 5 0.000000 0.000000 0.000000 0.000000 0.172449 0.000000
# 6 0.000000 0.000000 0.000000 0.000000 0.000000 0.016180
#
#
# Mechanical properties :
#
#
# Convention : Reuss Voigt Hill
#
# Bulk Modulus (GPa) = 65.33413 70.33114 67.83263
# Shear Modulus (GPa) = 15.43051 29.04943 22.23997
#
# Velocity S-wave (km/s) = 2.91226 3.99585 3.49629
# Velocity P-wave (km/s) = 6.87159 7.74248 7.32000
#
# Compressibility (1/GPa) = 0.01530594
#
# Stress axis : x y z
#
# Youngs Moduli (GPa) = 98.23751 84.99071 59.85377
#
# Poissons Ratio (x) = 0.28758 0.27837
# Poissons Ratio (y) = 0.33240 0.21781
# Poissons Ratio (z) = 0.45688 0.30928
#
# Static dielectric constant tensor:
#      x y z
#    x 3.995390 0.000000 0.000000 
#    y 0.000000 3.364530 0.000000 
#    z 0.000000 0.000000 3.475990 
# 
# 
# High freq. dielectric constant tensor:
#      x y z
#    x 1.722100 0.000000 0.000000 
#    y 0.000000 1.703310 0.000000 
#    z 0.000000 0.000000 1.704340 
# 
# From -- ./inp_files/22905.got.cif
#   From: 2010.03.12/outbox.cif.g09.slc.cpg/sg65_12_cif.got.tgz:22905.got - 2010.04.10 20:52:16.
