data_PCOD8273138
_publ_section_title
;
Structure prediction by ZEFSAII (Michael W. Deem and Ramdas Pophale) SiO2 
 PCOD8273138
Probable space group: C M M M
;
_chemical_formula_sum "Si O2"
_cell_formula_units_Z 112
_cell_length_a 14.138951
_cell_length_b 15.589716
_cell_length_c 24.046297
_cell_angle_alpha 90.000000
_cell_angle_beta 90.000000
_cell_angle_gamma 90.000000
_cell_volume 5300.338423
_symmetry_space_group_name_H-M "C M M M"
_symmetry_group_IT_number 65
_symmetry_cell_setting 'orthorhombic'
loop_
_space_group_symop_operation_xyz
x,y,z
-x,-y,z
x,-y,-z
-x,y,-z
-x,-y,-z
x,y,-z
-x,y,z
x,-y,z
1/2+x,1/2+y,z
1/2-x,1/2-y,z
1/2+x,1/2-y,-z
1/2-x,1/2+y,-z
1/2-x,1/2-y,-z
1/2+x,1/2+y,-z
1/2-x,1/2+y,z
1/2+x,1/2-y,z
loop_
_atom_site_type_symbol
_atom_site_label
_atom_site_fract_x
_atom_site_fract_y
_atom_site_fract_z
Si Si1 0.796774 0.594801 0.850169
Si Si2 0.726767 0.844868 0.267039
Si Si3 0.394595 0.599077 0.339901
Si Si4 0.269170 0.348900 0.438912
Si Si5 0.391379 0.219330 0.938544
Si Si6 0.393152 0.097613 0.635264
Si Si7 0.604878 0.405478 0.899339
O O1 0.834510 0.500000 0.868213
O O2 0.821808 0.609180 0.785796
O O3 0.834899 0.668149 0.891374
O O4 0.682516 0.597375 0.850936
O O5 0.750000 0.750000 0.247416
O O6 0.824073 0.887741 0.288002
O O7 0.648917 0.842851 0.315900
O O8 0.500000 0.635668 0.326690
O O9 0.400880 0.500000 0.353075
O O10 0.355323 0.641764 0.396047
O O11 0.295474 0.386391 0.500000
O O12 0.250000 0.250000 0.444323
O O13 0.173140 0.395410 0.418672
O O14 0.500000 0.196310 0.928708
O O15 0.376098 0.322754 0.938272
O O16 0.358347 0.188782 0.000000
O O17 0.500000 0.126913 0.620903
O O18 0.391216 0.000000 0.656815
O O19 0.500000 0.397157 0.872778
O O20 0.612926 0.500000 0.930175
#
# Coordination Sequence:
#
# PCOD8273138 Si02
#       7
#    16  16  16  16  16  16  16
#     4  11  23  39  60  85 116 154 194 239 290 344
#     4  11  22  37  59  84 112 146 186 236 289 343
#     4  10  21  37  58  84 114 148 185 228 281 339
#     4  10  21  36  55  81 114 151 191 236 281 329
#     4  10  22  40  61  86 117 152 192 238 286 343
#     4  10  21  37  57  81 111 148 190 237 288 342
#     4   9  19  36  58  86 118 150 187 233 286 344
#
# _framework density 21.130725999999999
#
# number of rings (size 3 to 8) (size 9 to 14) (size 15 to 20)
#    0.000    1.857    0.000    5.571    0.000    7.143 
#    0.000    7.857    0.000    0.000    0.000    0.000 
#    0.000    0.000    0.000    0.000    0.000    0.000 
#
# Total GULP energy -693956.861966 kJ/mol
# GULP energy per Si atom -12392.086821 kJ/mol
# Density = 2.108263 g / cm^3
# Si number density = 21.130726 Si / 1000 Ang^3
#
#
#
# Elastic Constant Matrix: (Units=GPa)
#
#
# Indices 1 2 3 4 5 6 
#
# 1 109.0022 23.1871 36.1883 0.0000 0.0000 0.0000
# 2 23.1871 108.9681 36.7692 0.0000 0.0000 0.0000
# 3 36.1883 36.7692 129.6497 0.0000 0.0000 0.0000
# 4 0.0000 0.0000 0.0000 24.1205 0.0000 0.0000
# 5 0.0000 0.0000 0.0000 0.0000 18.2069 0.0000
# 6 0.0000 0.0000 0.0000 0.0000 0.0000 27.1727
#
#
#
# Elastic Compliance Matrix: (Units=1/GPa)
#
#
# Indices 1 2 3 4 5 6 
#
# 1 0.010287 -0.001349 -0.002489 0.000000 0.000000 0.000000
# 2 -0.001349 0.010325 -0.002552 0.000000 0.000000 0.000000
# 3 -0.002489 -0.002552 0.009131 0.000000 0.000000 0.000000
# 4 0.000000 0.000000 0.000000 0.041459 0.000000 0.000000
# 5 0.000000 0.000000 0.000000 0.000000 0.054924 0.000000
# 6 0.000000 0.000000 0.000000 0.000000 0.000000 0.036802
#
#
# Mechanical properties :
#
#
# Convention : Reuss Voigt Hill
#
# Bulk Modulus (GPa) = 58.94636 59.98992 59.46814
# Shear Modulus (GPa) = 27.56906 30.66503 29.11704
#
# Velocity S-wave (km/s) = 3.61597 3.81360 3.71610
# Velocity P-wave (km/s) = 6.73723 6.91686 6.82763
#
# Compressibility (1/GPa) = 0.01696457
#
# Stress axis : x y z
#
# Youngs Moduli (GPa) = 97.20616 96.85134 109.51187
#
# Poissons Ratio (x) = 0.13068 0.27255
# Poissons Ratio (y) = 0.13115 0.27943
# Poissons Ratio (z) = 0.24193 0.24713
#
# Static dielectric constant tensor:
#      x y z
#    x 4.126150 0.000000 0.000000 
#    y 0.000000 3.998830 0.000000 
#    z 0.000000 0.000000 3.653670 
# 
# 
# High freq. dielectric constant tensor:
#      x y z
#    x 1.827390 0.000000 0.000000 
#    y 0.000000 1.840640 0.000000 
#    z 0.000000 0.000000 1.807540 
# 
# From -- ./inp_files/74895.got.cif
#   From: 2010.03.12/outbox.cif.g09.slc.cpg/sg65_38_cif.got.tgz:74895.got - 2010.04.10 20:52:16.
