data_PCOD8273977
_publ_section_title
;
Structure prediction by ZEFSAII (Michael W. Deem and Ramdas Pophale) SiO2 
 PCOD8273977
Probable space group: C M M M
;
_chemical_formula_sum "Si O2"
_cell_formula_units_Z 90
_cell_length_a 19.949630
_cell_length_b 17.280699
_cell_length_c 13.111665
_cell_angle_alpha 90.000000
_cell_angle_beta 90.000000
_cell_angle_gamma 90.000000
_cell_volume 4520.161954
_symmetry_space_group_name_H-M "C M M M"
_symmetry_group_IT_number 65
_symmetry_cell_setting 'orthorhombic'
loop_
_space_group_symop_operation_xyz
x,y,z
-x,-y,z
x,-y,-z
-x,y,-z
-x,-y,-z
x,y,-z
-x,y,z
x,-y,z
1/2+x,1/2+y,z
1/2-x,1/2-y,z
1/2+x,1/2-y,-z
1/2-x,1/2+y,-z
1/2-x,1/2-y,-z
1/2+x,1/2+y,-z
1/2-x,1/2+y,z
1/2+x,1/2-y,z
loop_
_atom_site_type_symbol
_atom_site_label
_atom_site_fract_x
_atom_site_fract_y
_atom_site_fract_z
Si Si1 0.000000 0.810011 0.116412
Si Si2 0.000000 0.367419 0.833262
Si Si3 0.123405 0.855262 0.750025
Si Si4 0.862708 0.411384 0.256879
Si Si5 0.000000 0.500000 0.000000
Si Si6 0.079403 0.000000 0.619883
Si Si7 0.241542 0.088935 0.884728
Si Si8 0.826048 0.275738 0.385702
O O1 0.000000 0.717463 0.117954
O O2 0.935963 0.847851 0.169716
O O3 0.000000 0.838346 0.000000
O O4 0.935250 0.376390 0.762873
O O5 0.000000 0.434082 0.915575
O O6 0.192089 0.863350 0.812864
O O7 0.127134 0.777196 0.684755
O O8 0.112164 0.925489 0.672294
O O9 0.866723 0.500000 0.291737
O O10 0.817699 0.402544 0.154797
O O11 0.829550 0.364407 0.349337
O O12 0.097720 0.000000 0.500000
O O13 0.000000 0.000000 0.636515
O O14 0.218534 0.000000 0.883045
O O15 0.239735 0.121742 0.000000
O O16 0.854005 0.270030 0.500000
O O17 0.750000 0.250000 0.379607
#
# Coordination Sequence:
#
# PCOD8273977 Si02
#       8
#     8   8  16  16   2   8  16  16
#     4  12  26  39  63  96 134 172 213 259 321 392
#     4  12  24  40  65  93 130 167 217 262 323 380
#     4  12  22  44  63  95 128 169 212 268 316 384
#     4  11  23  42  65  95 128 165 215 269 319 388
#     4  12  24  40  68  92 126 182 208 270 324 384
#     4  11  24  42  67  96 125 167 219 267 318 384
#     4  10  22  38  63  92 127 167 211 258 318 380
#     4  11  24  43  67  95 129 168 211 269 332 380
#
# _framework density 19.910791
#
# number of rings (size 3 to 8) (size 9 to 14) (size 15 to 20)
#    0.000    0.800    6.667    1.067    1.244    0.356 
#    0.000    2.667    0.000    1.067    0.000    0.000 
#    0.000    0.000    0.000    0.000    0.000    0.000 
#
# Total GULP energy -557687.974408 kJ/mol
# GULP energy per Si atom -12393.066098 kJ/mol
# Density = 1.986547 g / cm^3
# Si number density = 19.910791 Si / 1000 Ang^3
#
#
#
# Elastic Constant Matrix: (Units=GPa)
#
#
# Indices 1 2 3 4 5 6 
#
# 1 90.5829 18.5886 44.3822 0.0000 0.0000 0.0000
# 2 18.5886 97.0219 51.3595 0.0000 0.0000 0.0000
# 3 44.3822 51.3595 147.7098 0.0000 0.0000 0.0000
# 4 0.0000 0.0000 0.0000 32.8811 0.0000 0.0000
# 5 0.0000 0.0000 0.0000 0.0000 5.7878 0.0000
# 6 0.0000 0.0000 0.0000 0.0000 0.0000 14.6845
#
#
#
# Elastic Compliance Matrix: (Units=1/GPa)
#
#
# Indices 1 2 3 4 5 6 
#
# 1 0.012967 -0.000517 -0.003716 0.000000 0.000000 0.000000
# 2 -0.000517 0.012653 -0.004244 0.000000 0.000000 0.000000
# 3 -0.003716 -0.004244 0.009362 0.000000 0.000000 0.000000
# 4 0.000000 0.000000 0.000000 0.030413 0.000000 0.000000
# 5 0.000000 0.000000 0.000000 0.000000 0.172779 0.000000
# 6 0.000000 0.000000 0.000000 0.000000 0.000000 0.068099
#
#
# Mechanical properties :
#
#
# Convention : Reuss Voigt Hill
#
# Bulk Modulus (GPa) = 55.47292 62.66393 59.06842
# Shear Modulus (GPa) = 15.18670 25.40294 20.29482
#
# Velocity S-wave (km/s) = 2.76477 3.57576 3.19609
# Velocity P-wave (km/s) = 6.17358 6.97056 6.58414
#
# Compressibility (1/GPa) = 0.01802681
#
# Stress axis : x y z
#
# Youngs Moduli (GPa) = 77.12156 79.03492 106.81101
#
# Poissons Ratio (x) = 0.04086 0.39694
# Poissons Ratio (y) = 0.03988 0.45331
# Poissons Ratio (z) = 0.28660 0.33543
#
# Static dielectric constant tensor:
#      x y z
#    x 3.598940 0.000000 0.000000 
#    y 0.000000 3.749910 0.000000 
#    z 0.000000 0.000000 3.703030 
# 
# 
# High freq. dielectric constant tensor:
#      x y z
#    x 1.775570 0.000000 0.000000 
#    y 0.000000 1.788000 0.000000 
#    z 0.000000 0.000000 1.781210 
# 
# From -- ./inp_files/28797.got.cif
#   From: 2010.03.12/outbox.cif.g09.slc.cpg/sg65_15_cif.got.tgz:28797.got - 2010.04.10 20:52:16.
