data_PCOD8273202
_publ_section_title
;
Structure prediction by ZEFSAII (Michael W. Deem and Ramdas Pophale) SiO2 
 PCOD8273202
Probable space group: C M M M
;
_chemical_formula_sum "Si O2"
_cell_formula_units_Z 104
_cell_length_a 8.395073
_cell_length_b 21.880356
_cell_length_c 27.575849
_cell_angle_alpha 90.000000
_cell_angle_beta 90.000000
_cell_angle_gamma 90.000000
_cell_volume 5065.330101
_symmetry_space_group_name_H-M "C M M M"
_symmetry_group_IT_number 65
_symmetry_cell_setting 'orthorhombic'
loop_
_space_group_symop_operation_xyz
x,y,z
-x,-y,z
x,-y,-z
-x,y,-z
-x,-y,-z
x,y,-z
-x,y,z
x,-y,z
1/2+x,1/2+y,z
1/2-x,1/2-y,z
1/2+x,1/2-y,-z
1/2-x,1/2+y,-z
1/2-x,1/2-y,-z
1/2+x,1/2+y,-z
1/2-x,1/2+y,z
1/2+x,1/2-y,z
loop_
_atom_site_type_symbol
_atom_site_label
_atom_site_fract_x
_atom_site_fract_y
_atom_site_fract_z
Si Si1 0.185732 0.500000 0.258222
Si Si2 0.689060 0.568352 0.055151
Si Si3 0.318745 0.686723 0.314332
Si Si4 0.185224 0.378727 0.596916
Si Si5 0.810540 0.818500 0.500000
Si Si6 0.190005 0.000000 0.631760
Si Si7 0.189523 0.876974 0.220479
Si Si8 0.311615 0.318602 0.880108
O O1 0.275314 0.500000 0.310319
O O2 0.232238 0.556603 0.224013
O O3 0.000000 0.500000 0.270122
O O4 0.500000 0.569406 0.058737
O O5 0.746537 0.500000 0.073409
O O6 0.756847 0.626875 0.085157
O O7 0.746324 0.577328 0.000000
O O8 0.500000 0.694652 0.300988
O O9 0.250000 0.750000 0.330849
O O10 0.295749 0.644207 0.359816
O O11 0.237821 0.660054 0.266032
O O12 0.241370 0.351974 0.546419
O O13 0.222031 0.449194 0.600205
O O14 0.000000 0.363005 0.605511
O O15 0.750000 0.750000 0.500000
O O16 0.000000 0.820605 0.500000
O O17 0.000000 0.000000 0.624973
O O18 0.243876 0.839071 0.173386
O O19 0.000000 0.885658 0.221729
O O20 0.500000 0.315705 0.884637
O O21 0.250000 0.250000 0.892838
#
# Coordination Sequence:
#
# PCOD8273202 Si02
#       8
#     8  16  16  16   8   8  16  16
#     4  12  24  38  61  91 121 159 202 251 304 360
#     4   8  15  30  54  84 116 154 208 264 310 366
#     4  11  22  37  58  84 116 158 201 247 301 360
#     4  12  25  43  66  94 124 158 201 249 299 357
#     4  12  26  47  70  95 126 162 202 248 300 356
#     4  12  24  43  67  94 126 159 198 244 297 357
#     4  10  22  38  58  83 118 160 202 248 302 364
#     4  10  21  36  57  86 120 162 205 256 315 370
#
# _framework density 20.531731000000001
#
# number of rings (size 3 to 8) (size 9 to 14) (size 15 to 20)
#    0.000    1.385    1.538    5.308    1.077    1.846 
#    0.000    1.538    0.000    0.000    0.000    1.077 
#    0.000    0.000    0.000    0.000    0.000    0.000 
#
# Total GULP energy -644429.933818 kJ/mol
# GULP energy per Si atom -12392.883343 kJ/mol
# Density = 2.048500 g / cm^3
# Si number density = 20.531731 Si / 1000 Ang^3
#
#
#
# Elastic Constant Matrix: (Units=GPa)
#
#
# Indices 1 2 3 4 5 6 
#
# 1 52.9216 19.5453 8.4815 0.0000 0.0000 0.0000
# 2 19.5453 174.7002 74.2170 0.0000 0.0000 0.0000
# 3 8.4815 74.2170 130.7992 0.0000 0.0000 0.0000
# 4 0.0000 0.0000 0.0000 52.7588 0.0000 0.0000
# 5 0.0000 0.0000 0.0000 0.0000 35.9134 0.0000
# 6 0.0000 0.0000 0.0000 0.0000 0.0000 25.7243
#
#
#
# Elastic Compliance Matrix: (Units=1/GPa)
#
#
# Indices 1 2 3 4 5 6 
#
# 1 0.019710 -0.002190 -0.000035 0.000000 0.000000 0.000000
# 2 -0.002190 0.007785 -0.004276 0.000000 0.000000 0.000000
# 3 -0.000035 -0.004276 0.010074 0.000000 0.000000 0.000000
# 4 0.000000 0.000000 0.000000 0.018954 0.000000 0.000000
# 5 0.000000 0.000000 0.000000 0.000000 0.027845 0.000000
# 6 0.000000 0.000000 0.000000 0.000000 0.000000 0.038874
#
#
# Mechanical properties :
#
#
# Convention : Reuss Voigt Hill
#
# Bulk Modulus (GPa) = 40.70443 62.54541 51.62492
# Shear Modulus (GPa) = 34.61800 39.95778 37.28789
#
# Velocity S-wave (km/s) = 4.11064 4.41630 4.26621
# Velocity P-wave (km/s) = 6.51137 7.51890 7.03320
#
# Compressibility (1/GPa) = 0.02456735
#
# Stress axis : x y z
#
# Youngs Moduli (GPa) = 50.73452 128.44401 99.26936
#
# Poissons Ratio (x) = 0.28131 0.00351
# Poissons Ratio (y) = 0.11112 0.42443
# Poissons Ratio (z) = 0.00179 0.54917
#
# Static dielectric constant tensor:
#      x y z
#    x 3.526440 0.000000 0.000000 
#    y 0.000000 4.117720 0.000000 
#    z 0.000000 0.000000 3.794010 
# 
# 
# High freq. dielectric constant tensor:
#      x y z
#    x 1.783630 0.000000 0.000000 
#    y 0.000000 1.826000 0.000000 
#    z 0.000000 0.000000 1.803620 
# 
# From -- ./inp_files/73401.got.cif
#   From: 2010.03.12/outbox.cif.g09.slc.cpg/sg65_37_cif.got.tgz:73401.got - 2010.04.10 20:52:16.
