data_PCOD8273240
_publ_section_title
;
Structure prediction by ZEFSAII (Michael W. Deem and Ramdas Pophale) SiO2 
 PCOD8273240
Probable space group: C M M M
;
_chemical_formula_sum "Si O2"
_cell_formula_units_Z 80
_cell_length_a 9.089296
_cell_length_b 25.467560
_cell_length_c 22.170277
_cell_angle_alpha 90.000000
_cell_angle_beta 90.000000
_cell_angle_gamma 90.000000
_cell_volume 5132.024300
_symmetry_space_group_name_H-M "C M M M"
_symmetry_group_IT_number 65
_symmetry_cell_setting 'orthorhombic'
loop_
_space_group_symop_operation_xyz
x,y,z
-x,-y,z
x,-y,-z
-x,y,-z
-x,-y,-z
x,y,-z
-x,y,z
x,-y,z
1/2+x,1/2+y,z
1/2-x,1/2-y,z
1/2+x,1/2-y,-z
1/2-x,1/2+y,-z
1/2-x,1/2-y,-z
1/2+x,1/2+y,-z
1/2-x,1/2+y,z
1/2+x,1/2-y,z
loop_
_atom_site_type_symbol
_atom_site_label
_atom_site_fract_x
_atom_site_fract_y
_atom_site_fract_z
Si Si1 0.674471 0.000000 0.567463
Si Si2 0.826696 0.060786 0.751779
Si Si3 0.324821 0.897791 0.361118
Si Si4 0.836326 0.437267 0.000000
Si Si5 0.662689 0.562405 0.114150
Si Si6 0.671724 0.695504 0.430314
O O1 0.730842 0.948401 0.601712
O O2 0.500000 0.000000 0.565243
O O3 0.740654 0.000000 0.500000
O O4 0.731016 0.096483 0.707236
O O5 0.779792 0.078431 0.819411
O O6 0.000000 0.069910 0.741575
O O7 0.786289 0.000000 0.741077
O O8 0.500000 0.891548 0.362529
O O9 0.249734 0.847439 0.389591
O O10 0.762453 0.414458 0.939330
O O11 0.829858 0.500000 0.000000
O O12 0.000000 0.415570 0.000000
O O13 0.500000 0.585330 0.104073
O O14 0.657327 0.500000 0.110660
O O15 0.694759 0.680141 0.500000
O O16 0.500000 0.699700 0.413993
O O17 0.750000 0.750000 0.415333
#
# Coordination Sequence:
#
# PCOD8273240 Si02
#       6
#     8  16  16   8  16  16
#     4   9  18  30  43  63  91 120 149 180 219 267
#     4   9  17  29  43  60  86 119 154 190 225 267
#     4  11  20  31  48  69  94 123 152 186 228 274
#     4   9  15  21  31  51  75 101 138 187 228 257
#     4   8  14  24  37  51  72 108 148 183 220 262
#     4  10  21  37  55  73  91 114 147 188 233 279
#
# _framework density 15.588391
#
# number of rings (size 3 to 8) (size 9 to 14) (size 15 to 20)
#    0.000    2.600    1.000    3.300    0.000    4.000 
#    0.000    2.000    0.000    2.400    0.000    0.000 
#    0.000    0.000    0.000    0.900    0.000   11.900 
#
# Total GULP energy -495894.294512 kJ/mol
# GULP energy per Si atom -12397.357363 kJ/mol
# Density = 1.555291 g / cm^3
# Si number density = 15.588391 Si / 1000 Ang^3
#
#
#
# Elastic Constant Matrix: (Units=GPa)
#
#
# Indices 1 2 3 4 5 6 
#
# 1 97.3052 43.7219 70.4466 0.0000 0.0000 0.0000
# 2 43.7219 65.5839 52.9291 0.0000 0.0000 0.0000
# 3 70.4466 52.9291 144.3688 0.0000 0.0000 0.0000
# 4 0.0000 0.0000 0.0000 11.4812 0.0000 0.0000
# 5 0.0000 0.0000 0.0000 0.0000 26.7858 0.0000
# 6 0.0000 0.0000 0.0000 0.0000 0.0000 19.4677
#
#
#
# Elastic Compliance Matrix: (Units=1/GPa)
#
#
# Indices 1 2 3 4 5 6 
#
# 1 0.017859 -0.006920 -0.006177 0.000000 0.000000 0.000000
# 2 -0.006920 0.024337 -0.005546 0.000000 0.000000 0.000000
# 3 -0.006177 -0.005546 0.011974 0.000000 0.000000 0.000000
# 4 0.000000 0.000000 0.000000 0.087099 0.000000 0.000000
# 5 0.000000 0.000000 0.000000 0.000000 0.037333 0.000000
# 6 0.000000 0.000000 0.000000 0.000000 0.000000 0.051367
#
#
# Mechanical properties :
#
#
# Convention : Reuss Voigt Hill
#
# Bulk Modulus (GPa) = 59.23034 71.27256 65.25145
# Shear Modulus (GPa) = 18.32292 20.89096 19.60694
#
# Velocity S-wave (km/s) = 3.43216 3.66479 3.55038
# Velocity P-wave (km/s) = 7.33384 7.98301 7.66530
#
# Compressibility (1/GPa) = 0.01688324
#
# Stress axis : x y z
#
# Youngs Moduli (GPa) = 55.99569 41.09043 83.51384
#
# Poissons Ratio (x) = 0.28436 0.51588
# Poissons Ratio (y) = 0.38750 0.46313
# Poissons Ratio (z) = 0.34589 0.22787
#
# Static dielectric constant tensor:
#      x y z
#    x 3.015740 0.000000 0.000000 
#    y 0.000000 2.573660 0.000000 
#    z 0.000000 0.000000 3.181800 
# 
# 
# High freq. dielectric constant tensor:
#      x y z
#    x 1.601190 0.000000 0.000000 
#    y 0.000000 1.541060 0.000000 
#    z 0.000000 0.000000 1.608690 
# 
# From -- ./inp_files/60057.got.cif
#   From: 2010.03.12/outbox.cif.g09.slc.cpg/sg65_31_cif.got.tgz:60057.got - 2010.04.10 20:52:16.
