data_PCOD8273906
_publ_section_title
;
Structure prediction by ZEFSAII (Michael W. Deem and Ramdas Pophale) SiO2 
 PCOD8273906
Probable space group: C M M M
;
_chemical_formula_sum "Si O2"
_cell_formula_units_Z 72
_cell_length_a 24.811296
_cell_length_b 9.343614
_cell_length_c 17.291787
_cell_angle_alpha 90.000000
_cell_angle_beta 90.000000
_cell_angle_gamma 90.000000
_cell_volume 4008.706091
_symmetry_space_group_name_H-M "C M M M"
_symmetry_group_IT_number 65
_symmetry_cell_setting 'orthorhombic'
loop_
_space_group_symop_operation_xyz
x,y,z
-x,-y,z
x,-y,-z
-x,y,-z
-x,-y,-z
x,y,-z
-x,y,z
x,-y,z
1/2+x,1/2+y,z
1/2-x,1/2-y,z
1/2+x,1/2-y,-z
1/2-x,1/2+y,-z
1/2-x,1/2-y,-z
1/2+x,1/2+y,-z
1/2-x,1/2+y,z
1/2+x,1/2-y,z
loop_
_atom_site_type_symbol
_atom_site_label
_atom_site_fract_x
_atom_site_fract_y
_atom_site_fract_z
Si Si1 0.197119 0.333948 0.912369
Si Si2 0.500000 0.660641 0.802586
Si Si3 0.604589 0.833592 0.622230
Si Si4 0.000000 0.838123 0.619149
Si Si5 0.806294 0.666932 0.500000
Si Si6 0.602353 0.166329 0.199234
O O1 0.209978 0.500000 0.902755
O O2 0.250000 0.250000 0.888049
O O3 0.151542 0.283607 0.853439
O O4 0.179216 0.297456 0.000000
O O5 0.500000 0.500000 0.835843
O O6 0.500000 0.661475 0.710771
O O7 0.552236 0.743594 0.832532
O O8 0.553687 0.743422 0.590167
O O9 0.658402 0.791499 0.575348
O O10 0.616242 0.798879 0.711800
O O11 0.590315 0.000000 0.609690
O O12 0.000000 0.000000 0.586184
O O13 0.792086 0.500000 0.500000
O O14 0.750000 0.750000 0.500000
O O15 0.588535 0.000000 0.188270
#
# Coordination Sequence:
#
# PCOD8273906 Si02
#       6
#    16   8  16   8   8  16
#     4   9  18  32  49  70  95 122 155 196 237 275
#     4   9  17  29  47  73 101 124 151 192 236 275
#     4   9  18  33  51  70  94 126 159 190 230 280
#     4   9  17  30  50  76  99 119 151 196 239 276
#     4  10  22  37  50  67  95 128 160 196 235 274
#     4   9  17  31  51  71  93 125 160 189 226 281
#
# _framework density 17.960906999999999
#
# number of rings (size 3 to 8) (size 9 to 14) (size 15 to 20)
#    0.000    2.889    0.000    0.667    0.000    5.778 
#    0.000    2.778    0.000    3.333    0.000    0.000 
#    0.000    0.000    0.000    0.000    0.000    0.000 
#
# Total GULP energy -446378.596997 kJ/mol
# GULP energy per Si atom -12399.405472 kJ/mol
# Density = 1.792003 g / cm^3
# Si number density = 17.960907 Si / 1000 Ang^3
#
#
#
# Elastic Constant Matrix: (Units=GPa)
#
#
# Indices 1 2 3 4 5 6 
#
# 1 186.9305 87.5511 78.4496 0.0000 0.0000 0.0000
# 2 87.5511 85.4694 41.8845 0.0000 0.0000 0.0000
# 3 78.4496 41.8845 81.5253 0.0000 0.0000 0.0000
# 4 0.0000 0.0000 0.0000 14.4722 0.0000 0.0000
# 5 0.0000 0.0000 0.0000 0.0000 -16.5506 0.0000
# 6 0.0000 0.0000 0.0000 0.0000 0.0000 39.8796
#
#
#
# Elastic Compliance Matrix: (Units=1/GPa)
#
#
# Indices 1 2 3 4 5 6 
#
# 1 0.013066 -0.009653 -0.007614 0.000000 0.000000 0.000000
# 2 -0.009653 0.022769 -0.002409 0.000000 0.000000 0.000000
# 3 -0.007614 -0.002409 0.020830 0.000000 0.000000 0.000000
# 4 0.000000 0.000000 0.000000 0.069098 0.000000 0.000000
# 5 0.000000 0.000000 0.000000 0.000000 -0.060421 0.000000
# 6 0.000000 0.000000 0.000000 0.000000 0.000000 0.025075
#
#
# Mechanical properties :
#
#
# Convention : Reuss Voigt Hill
#
# Bulk Modulus (GPa) = 57.75760 85.52174 71.63967
# Shear Modulus (GPa) = 36.88964 17.29625 27.09294
#
# Velocity S-wave (km/s) = 4.53690 3.10658 3.88808
# Velocity P-wave (km/s) = 7.72475 7.78374 7.75430
#
# Compressibility (1/GPa) = 0.01731374
#
# Stress axis : x y z
#
# Youngs Moduli (GPa) = 76.53471 43.91988 48.00755
#
# Poissons Ratio (x) = 0.42396 0.36551
# Poissons Ratio (y) = 0.73880 0.11564
# Poissons Ratio (z) = 0.58271 0.10579
#
# Static dielectric constant tensor:
#      x y z
#    x 3.333610 0.000000 0.000000 
#    y 0.000000 3.380500 0.000000 
#    z 0.000000 0.000000 3.266650 
# 
# 
# High freq. dielectric constant tensor:
#      x y z
#    x 1.694360 0.000000 0.000000 
#    y 0.000000 1.692910 0.000000 
#    z 0.000000 0.000000 1.684380 
# 
# From -- ./inp_files/56491.got.cif
#   From: 2010.03.12/outbox.cif.g09.slc.cpg/sg65_29_cif.got.tgz:56491.got - 2010.04.10 20:52:16.
