data_PCOD8273058
_publ_section_title
;
Structure prediction by ZEFSAII (Michael W. Deem and Ramdas Pophale) SiO2 
 PCOD8273058
Probable space group: C M M M
;
_chemical_formula_sum "Si O2"
_cell_formula_units_Z 96
_cell_length_a 24.294254
_cell_length_b 23.360146
_cell_length_c 9.035243
_cell_angle_alpha 90.000000
_cell_angle_beta 90.000000
_cell_angle_gamma 90.000000
_cell_volume 5127.656897
_symmetry_space_group_name_H-M "C M M M"
_symmetry_group_IT_number 65
_symmetry_cell_setting 'orthorhombic'
loop_
_space_group_symop_operation_xyz
x,y,z
-x,-y,z
x,-y,-z
-x,y,-z
-x,-y,-z
x,y,-z
-x,y,z
x,-y,z
1/2+x,1/2+y,z
1/2-x,1/2-y,z
1/2+x,1/2-y,-z
1/2-x,1/2+y,-z
1/2-x,1/2-y,-z
1/2+x,1/2+y,-z
1/2-x,1/2+y,z
1/2+x,1/2-y,z
loop_
_atom_site_type_symbol
_atom_site_label
_atom_site_fract_x
_atom_site_fract_y
_atom_site_fract_z
Si Si1 0.159620 0.144531 0.675283
Si Si2 0.937884 0.349957 0.831664
Si Si3 0.656956 0.236804 0.168564
Si Si4 0.228951 0.370988 0.826756
Si Si5 0.438526 0.435563 0.675766
Si Si6 0.134107 0.566226 0.331157
O O1 0.163674 0.140006 0.500000
O O2 0.156687 0.210509 0.720647
O O3 0.213931 0.116892 0.745299
O O4 0.106646 0.109436 0.736638
O O5 0.900999 0.294203 0.806488
O O6 0.920107 0.400741 0.723126
O O7 0.000000 0.332159 0.794867
O O8 0.931012 0.371852 0.000000
O O9 0.706815 0.193272 0.206365
O O10 0.663356 0.258973 0.000000
O O11 0.185994 0.417480 0.768842
O O12 0.236824 0.380327 0.000000
O O13 0.437886 0.434463 0.500000
O O14 0.500000 0.418323 0.732024
O O15 0.424166 0.500000 0.730785
O O16 0.146978 0.583084 0.500000
O O17 0.121136 0.500000 0.313323
#
# Coordination Sequence:
#
# PCOD8273058 Si02
#       6
#    16  16  16  16  16  16
#     4  11  21  31  52  84 107 129 170 218 263 312
#     4   9  19  36  56  77 104 142 184 220 258 310
#     4   9  19  35  52  72 103 141 176 211 255 307
#     4  10  21  37  55  74 102 141 179 213 255 312
#     4   8  16  33  53  72 100 136 168 201 246 301
#     4  10  21  36  54  78 108 139 173 219 271 314
#
# _framework density 18.722003000000001
#
# number of rings (size 3 to 8) (size 9 to 14) (size 15 to 20)
#    0.000    2.500    0.000    3.500    0.000    8.667 
#    0.000    3.333    0.000    3.000    0.000    4.667 
#    0.000    0.000    0.000    0.000    0.000    0.000 
#
# Total GULP energy -595196.174263 kJ/mol
# GULP energy per Si atom -12399.920297 kJ/mol
# Density = 1.867939 g / cm^3
# Si number density = 18.722003 Si / 1000 Ang^3
#
#
#
# Elastic Constant Matrix: (Units=GPa)
#
#
# Indices 1 2 3 4 5 6 
#
# 1 118.8485 15.5784 30.6678 0.0000 0.0000 0.0000
# 2 15.5784 36.7462 23.2176 0.0000 0.0000 0.0000
# 3 30.6678 23.2176 66.7461 0.0000 0.0000 0.0000
# 4 0.0000 0.0000 0.0000 15.3613 0.0000 0.0000
# 5 0.0000 0.0000 0.0000 0.0000 28.8369 0.0000
# 6 0.0000 0.0000 0.0000 0.0000 0.0000 21.1757
#
#
#
# Elastic Compliance Matrix: (Units=1/GPa)
#
#
# Indices 1 2 3 4 5 6 
#
# 1 0.009623 -0.001648 -0.003848 0.000000 0.000000 0.000000
# 2 -0.001648 0.035162 -0.011474 0.000000 0.000000 0.000000
# 3 -0.003848 -0.011474 0.020741 0.000000 0.000000 0.000000
# 4 0.000000 0.000000 0.000000 0.065099 0.000000 0.000000
# 5 0.000000 0.000000 0.000000 0.000000 0.034678 0.000000
# 6 0.000000 0.000000 0.000000 0.000000 0.000000 0.047224
#
#
# Mechanical properties :
#
#
# Convention : Reuss Voigt Hill
#
# Bulk Modulus (GPa) = 31.65948 40.14095 35.90022
# Shear Modulus (GPa) = 19.45556 23.26657 21.36106
#
# Velocity S-wave (km/s) = 3.22713 3.52908 3.38148
# Velocity P-wave (km/s) = 5.55273 6.17194 5.87051
#
# Compressibility (1/GPa) = 0.03158611
#
# Stress axis : x y z
#
# Youngs Moduli (GPa) = 103.91647 28.43984 48.21274
#
# Poissons Ratio (x) = 0.04688 0.18553
# Poissons Ratio (y) = 0.17128 0.55318
# Poissons Ratio (z) = 0.39989 0.32631
#
# Static dielectric constant tensor:
#      x y z
#    x 3.771420 0.000000 0.000000 
#    y 0.000000 3.349820 0.000000 
#    z 0.000000 0.000000 3.367910 
# 
# 
# High freq. dielectric constant tensor:
#      x y z
#    x 1.737790 0.000000 0.000000 
#    y 0.000000 1.717780 0.000000 
#    z 0.000000 0.000000 1.715040 
# 
# From -- ./inp_files/14305.got.cif
#   From: 2010.03.12/outbox.cif.g09.slc.cpg/sg65_8_cif.got.tgz:14305.got - 2010.04.10 20:52:16.
