data_PCOD8273625
_publ_section_title
;
Structure prediction by ZEFSAII (Michael W. Deem and Ramdas Pophale) SiO2 
 PCOD8273625
Probable space group: C M M M
;
_chemical_formula_sum "Si O2"
_cell_formula_units_Z 104
_cell_length_a 21.404244
_cell_length_b 9.216140
_cell_length_c 26.884952
_cell_angle_alpha 90.000000
_cell_angle_beta 90.000000
_cell_angle_gamma 90.000000
_cell_volume 5303.446864
_symmetry_space_group_name_H-M "C M M M"
_symmetry_group_IT_number 65
_symmetry_cell_setting 'orthorhombic'
loop_
_space_group_symop_operation_xyz
x,y,z
-x,-y,z
x,-y,-z
-x,y,-z
-x,-y,-z
x,y,-z
-x,y,z
x,-y,z
1/2+x,1/2+y,z
1/2-x,1/2-y,z
1/2+x,1/2-y,-z
1/2-x,1/2+y,-z
1/2-x,1/2-y,-z
1/2+x,1/2+y,-z
1/2-x,1/2+y,z
1/2+x,1/2-y,z
loop_
_atom_site_type_symbol
_atom_site_label
_atom_site_fract_x
_atom_site_fract_y
_atom_site_fract_z
Si Si1 0.366111 0.331019 0.279412
Si Si2 0.183969 0.828325 0.388085
Si Si3 0.500000 0.330148 0.863278
Si Si4 0.108677 0.339362 0.095224
Si Si5 0.314114 0.830762 0.000000
Si Si6 0.929100 0.333977 0.558824
Si Si7 0.000000 0.171033 0.248725
Si Si8 0.806693 0.339747 0.810075
O O1 0.362067 0.500000 0.265824
O O2 0.333036 0.296485 0.331178
O O3 0.438721 0.278988 0.279413
O O4 0.330698 0.241116 0.238296
O O5 0.250000 0.750000 0.401555
O O6 0.125351 0.767734 0.419331
O O7 0.190883 0.000000 0.398841
O O8 0.500000 0.500000 0.858420
O O9 0.557299 0.280976 0.896586
O O10 0.500000 0.261509 0.807381
O O11 0.081243 0.500000 0.082891
O O12 0.143936 0.350261 0.146836
O O13 0.149480 0.283100 0.049408
O O14 0.250000 0.750000 0.000000
O O15 0.300054 0.000000 0.000000
O O16 0.924298 0.321730 0.500000
O O17 0.917437 0.500000 0.575903
O O18 0.000000 0.286047 0.575368
O O19 0.000000 0.000000 0.243104
O O20 0.785180 0.500000 0.793383
O O21 0.750000 0.250000 0.833061
#
# Coordination Sequence:
#
# PCOD8273625 Si02
#       8
#    16  16   8  16   8  16   8  16
#     4  10  21  38  59  84 118 156 194 240 294 351
#     4  11  24  39  61  90 126 166 206 255 304 359
#     4  11  21  36  62  87 112 147 185 230 282 336
#     4  10  22  39  58  82 113 146 184 231 284 342
#     4  10  22  41  62  83 111 148 184 230 285 336
#     4   9  20  41  67  93 124 162 204 254 310 366
#     4   9  18  35  58  84 114 151 192 237 290 344
#     4  11  22  35  55  81 110 146 190 236 284 343
#
# _framework density 19.609888999999999
#
# number of rings (size 3 to 8) (size 9 to 14) (size 15 to 20)
#    0.000    1.846    1.538    2.538    1.077    4.923 
#    0.000    2.692    0.000    0.000    0.000    0.000 
#    0.000    0.000    0.000    0.000    0.000    0.000 
#
# Total GULP energy -644580.021254 kJ/mol
# GULP energy per Si atom -12395.769640 kJ/mol
# Density = 1.956526 g / cm^3
# Si number density = 19.609889 Si / 1000 Ang^3
#
#
#
# Elastic Constant Matrix: (Units=GPa)
#
#
# Indices 1 2 3 4 5 6 
#
# 1 140.4022 62.9516 41.1710 0.0000 0.0000 0.0000
# 2 62.9516 90.8743 40.2403 0.0000 0.0000 0.0000
# 3 41.1710 40.2403 77.2596 0.0000 0.0000 0.0000
# 4 0.0000 0.0000 0.0000 28.3355 0.0000 0.0000
# 5 0.0000 0.0000 0.0000 0.0000 48.3029 0.0000
# 6 0.0000 0.0000 0.0000 0.0000 0.0000 49.7234
#
#
#
# Elastic Compliance Matrix: (Units=1/GPa)
#
#
# Indices 1 2 3 4 5 6 
#
# 1 0.010659 -0.006328 -0.002384 0.000000 0.000000 0.000000
# 2 -0.006328 0.018060 -0.006034 0.000000 0.000000 0.000000
# 3 -0.002384 -0.006034 0.017357 0.000000 0.000000 0.000000
# 4 0.000000 0.000000 0.000000 0.035291 0.000000 0.000000
# 5 0.000000 0.000000 0.000000 0.000000 0.020703 0.000000
# 6 0.000000 0.000000 0.000000 0.000000 0.000000 0.020111
#
#
# Mechanical properties :
#
#
# Convention : Reuss Voigt Hill
#
# Bulk Modulus (GPa) = 60.30363 66.36241 63.33302
# Shear Modulus (GPa) = 31.80645 36.21724 34.01184
#
# Velocity S-wave (km/s) = 4.03173 4.30220 4.16916
# Velocity P-wave (km/s) = 7.24510 7.65463 7.45268
#
# Compressibility (1/GPa) = 0.01658275
#
# Stress axis : x y z
#
# Youngs Moduli (GPa) = 93.81981 55.37144 57.61450
#
# Poissons Ratio (x) = 0.35039 0.13736
# Poissons Ratio (y) = 0.59369 0.34766
# Poissons Ratio (z) = 0.22367 0.33413
#
# Static dielectric constant tensor:
#      x y z
#    x 3.783230 0.000000 0.000000 
#    y 0.000000 3.759830 0.000000 
#    z 0.000000 0.000000 3.542510 
# 
# 
# High freq. dielectric constant tensor:
#      x y z
#    x 1.776260 0.000000 0.000000 
#    y 0.000000 1.759140 0.000000 
#    z 0.000000 0.000000 1.762410 
# 
# From -- ./inp_files/75568.got.cif
#   From: 2010.03.12/outbox.cif.g09.slc.cpg/sg65_38_cif.got.tgz:75568.got - 2010.04.10 20:52:16.
