data_PCOD8273959
_publ_section_title
;
Structure prediction by ZEFSAII (Michael W. Deem and Ramdas Pophale) SiO2 
 PCOD8273959
Probable space group: C M M M
;
_chemical_formula_sum "Si O2"
_cell_formula_units_Z 112
_cell_length_a 13.520608
_cell_length_b 27.654926
_cell_length_c 14.957578
_cell_angle_alpha 90.000000
_cell_angle_beta 90.000000
_cell_angle_gamma 90.000000
_cell_volume 5592.809136
_symmetry_space_group_name_H-M "C M M M"
_symmetry_group_IT_number 65
_symmetry_cell_setting 'orthorhombic'
loop_
_space_group_symop_operation_xyz
x,y,z
-x,-y,z
x,-y,-z
-x,y,-z
-x,-y,-z
x,y,-z
-x,y,z
x,-y,z
1/2+x,1/2+y,z
1/2-x,1/2-y,z
1/2+x,1/2-y,-z
1/2-x,1/2+y,-z
1/2-x,1/2-y,-z
1/2+x,1/2+y,-z
1/2-x,1/2+y,z
1/2+x,1/2-y,z
loop_
_atom_site_type_symbol
_atom_site_label
_atom_site_fract_x
_atom_site_fract_y
_atom_site_fract_z
Si Si1 0.116841 0.681997 0.098200
Si Si2 0.385624 0.872339 0.727517
Si Si3 0.607638 0.714718 0.894787
Si Si4 0.381902 0.609909 0.103025
Si Si5 0.227250 0.304337 0.395942
Si Si6 0.387788 0.382756 0.600421
Si Si7 0.284810 0.556666 0.739164
O O1 0.141175 0.641824 0.170809
O O2 0.163848 0.734473 0.127180
O O3 0.000000 0.690551 0.091658
O O4 0.157769 0.666006 0.000000
O O5 0.500000 0.886314 0.715745
O O6 0.361998 0.827974 0.660476
O O7 0.319412 0.919427 0.709875
O O8 0.500000 0.714500 0.847372
O O9 0.661251 0.663806 0.868621
O O10 0.591420 0.712137 0.000000
O O11 0.500000 0.608009 0.119848
O O12 0.324400 0.571250 0.163058
O O13 0.358612 0.597631 0.000000
O O14 0.196702 0.304873 0.500000
O O15 0.250000 0.250000 0.363258
O O16 0.325067 0.335291 0.375974
O O17 0.365350 0.400680 0.500000
O O18 0.500000 0.366401 0.612473
O O19 0.365220 0.427171 0.666026
O O20 0.269063 0.500000 0.736477
#
# Coordination Sequence:
#
# PCOD8273959 Si02
#       7
#    16  16  16  16  16  16  16
#     4   8  14  27  49  76 105 137 175 219 264 312
#     4  10  22  38  56  79 107 145 192 236 277 321
#     4   7  11  23  45  72 101 133 165 198 246 310
#     4   9  18  33  53  79 113 148 179 218 275 344
#     4   9  19  36  58  87 122 153 179 209 252 317
#     4   9  19  37  60  85 112 140 172 215 269 328
#     4  11  24  39  55  76 103 138 185 240 292 338
#
# _framework density 20.025715000000002
#
# number of rings (size 3 to 8) (size 9 to 14) (size 15 to 20)
#    0.000    3.000    0.000    2.143    0.000    5.714 
#    0.000    4.286    0.000    3.000    0.000    7.000 
#    0.000    0.000    0.000    0.000    0.000    0.000 
#
# Total GULP energy -693982.561107 kJ/mol
# GULP energy per Si atom -12392.545734 kJ/mol
# Density = 1.998014 g / cm^3
# Si number density = 20.025715 Si / 1000 Ang^3
#
#
#
# Elastic Constant Matrix: (Units=GPa)
#
#
# Indices 1 2 3 4 5 6 
#
# 1 55.1684 18.1355 21.9010 0.0000 0.0000 0.0000
# 2 18.1355 127.3849 38.2882 0.0000 0.0000 0.0000
# 3 21.9010 38.2882 81.8133 0.0000 0.0000 0.0000
# 4 0.0000 0.0000 0.0000 24.6924 0.0000 0.0000
# 5 0.0000 0.0000 0.0000 0.0000 23.4790 0.0000
# 6 0.0000 0.0000 0.0000 0.0000 0.0000 27.2406
#
#
#
# Elastic Compliance Matrix: (Units=1/GPa)
#
#
# Indices 1 2 3 4 5 6 
#
# 1 0.020518 -0.001478 -0.004801 0.000000 0.000000 0.000000
# 2 -0.001478 0.009242 -0.003929 0.000000 0.000000 0.000000
# 3 -0.004801 -0.003929 0.015347 0.000000 0.000000 0.000000
# 4 0.000000 0.000000 0.000000 0.040498 0.000000 0.000000
# 5 0.000000 0.000000 0.000000 0.000000 0.042591 0.000000
# 6 0.000000 0.000000 0.000000 0.000000 0.000000 0.036710
#
#
# Mechanical properties :
#
#
# Convention : Reuss Voigt Hill
#
# Bulk Modulus (GPa) = 40.50198 46.77955 43.64076
# Shear Modulus (GPa) = 25.83271 27.48519 26.65895
#
# Velocity S-wave (km/s) = 3.59552 3.70874 3.65257
# Velocity P-wave (km/s) = 6.12421 6.46143 6.29508
#
# Compressibility (1/GPa) = 0.02469015
#
# Stress axis : x y z
#
# Youngs Moduli (GPa) = 48.73748 108.20497 65.15914
#
# Poissons Ratio (x) = 0.15994 0.31282
# Poissons Ratio (y) = 0.07204 0.25604
# Poissons Ratio (z) = 0.23398 0.42518
#
# Static dielectric constant tensor:
#      x y z
#    x 3.528890 0.000000 0.000000 
#    y 0.000000 3.479720 0.000000 
#    z 0.000000 0.000000 3.655390 
# 
# 
# High freq. dielectric constant tensor:
#      x y z
#    x 1.782180 0.000000 0.000000 
#    y 0.000000 1.755940 0.000000 
#    z 0.000000 0.000000 1.775430 
# 
# From -- ./inp_files/41108.got.cif
#   From: 2010.03.12/outbox.cif.g09.slc.cpg/sg65_21_cif.got.tgz:41108.got - 2010.04.10 20:52:16.
