data_PCOD8273287
_publ_section_title
;
Structure prediction by ZEFSAII (Michael W. Deem and Ramdas Pophale) SiO2 
 PCOD8273287
Probable space group: C M M M
;
_chemical_formula_sum "Si O2"
_cell_formula_units_Z 72
_cell_length_a 28.537572
_cell_length_b 15.169311
_cell_length_c 8.918537
_cell_angle_alpha 90.000000
_cell_angle_beta 90.000000
_cell_angle_gamma 90.000000
_cell_volume 3860.792793
_symmetry_space_group_name_H-M "C M M M"
_symmetry_group_IT_number 65
_symmetry_cell_setting 'orthorhombic'
loop_
_space_group_symop_operation_xyz
x,y,z
-x,-y,z
x,-y,-z
-x,y,-z
-x,-y,-z
x,y,-z
-x,y,z
x,-y,z
1/2+x,1/2+y,z
1/2-x,1/2-y,z
1/2+x,1/2-y,-z
1/2-x,1/2+y,-z
1/2-x,1/2-y,-z
1/2+x,1/2+y,-z
1/2-x,1/2+y,z
1/2+x,1/2-y,z
loop_
_atom_site_type_symbol
_atom_site_label
_atom_site_fract_x
_atom_site_fract_y
_atom_site_fract_z
Si Si1 0.555542 0.500000 0.331766
Si Si2 0.304429 0.399450 0.173483
Si Si3 0.304382 0.101201 0.828847
Si Si4 0.362108 0.248256 0.324472
Si Si5 0.553448 0.678282 0.823019
O O1 0.500000 0.500000 0.337015
O O2 0.576487 0.500000 0.500000
O O3 0.572573 0.413907 0.243191
O O4 0.318316 0.500000 0.212146
O O5 0.249936 0.383733 0.207710
O O6 0.333420 0.334482 0.277262
O O7 0.315303 0.378716 0.000000
O O8 0.334960 0.159837 0.718253
O O9 0.318332 0.000000 0.802199
O O10 0.314647 0.129018 0.000000
O O11 0.370597 0.250166 0.500000
O O12 0.412892 0.246300 0.243373
O O13 0.500000 0.698070 0.773949
O O14 0.557995 0.673688 0.000000
#
# Coordination Sequence:
#
# PCOD8273287 Si02
#       5
#     8  16  16  16  16
#     4   9  17  31  51  75 105 137 169 213 269 321
#     4   9  19  36  57  80 109 146 186 226 265 315
#     4   9  19  38  61  81 104 140 186 231 272 320
#     4  12  24  34  52  82 115 147 178 222 278 330
#     4  10  21  37  56  76 102 142 188 227 264 315
#
# _framework density 18.649021000000001
#
# number of rings (size 3 to 8) (size 9 to 14) (size 15 to 20)
#    0.000    2.111    0.000    5.000    1.556    7.111 
#    0.000    2.222    0.000    0.667    0.000    4.667 
#    0.000    0.000    0.000    0.000    0.000    0.000 
#
# Total GULP energy -446479.927999 kJ/mol
# GULP energy per Si atom -12402.220222 kJ/mol
# Density = 1.860657 g / cm^3
# Si number density = 18.649021 Si / 1000 Ang^3
#
#
#
# Elastic Constant Matrix: (Units=GPa)
#
#
# Indices 1 2 3 4 5 6 
#
# 1 82.4766 45.2911 41.5410 0.0000 0.0000 0.0000
# 2 45.2911 74.4541 35.6034 0.0000 0.0000 0.0000
# 3 41.5410 35.6034 103.0089 0.0000 0.0000 0.0000
# 4 0.0000 0.0000 0.0000 18.7124 0.0000 0.0000
# 5 0.0000 0.0000 0.0000 0.0000 24.6618 0.0000
# 6 0.0000 0.0000 0.0000 0.0000 0.0000 24.4211
#
#
#
# Elastic Compliance Matrix: (Units=1/GPa)
#
#
# Indices 1 2 3 4 5 6 
#
# 1 0.019870 -0.009890 -0.004595 0.000000 0.000000 0.000000
# 2 -0.009890 0.021013 -0.003275 0.000000 0.000000 0.000000
# 3 -0.004595 -0.003275 0.012693 0.000000 0.000000 0.000000
# 4 0.000000 0.000000 0.000000 0.053440 0.000000 0.000000
# 5 0.000000 0.000000 0.000000 0.000000 0.040549 0.000000
# 6 0.000000 0.000000 0.000000 0.000000 0.000000 0.040948
#
#
# Mechanical properties :
#
#
# Convention : Reuss Voigt Hill
#
# Bulk Modulus (GPa) = 55.37921 56.09008 55.73464
# Shear Modulus (GPa) = 21.73443 22.72599 22.23021
#
# Velocity S-wave (km/s) = 3.41757 3.49466 3.45633
# Velocity P-wave (km/s) = 6.73298 6.81362 6.77342
#
# Compressibility (1/GPa) = 0.01805732
#
# Stress axis : x y z
#
# Youngs Moduli (GPa) = 50.32781 47.58962 78.78583
#
# Poissons Ratio (x) = 0.47065 0.36200
# Poissons Ratio (y) = 0.49773 0.25798
# Poissons Ratio (z) = 0.23124 0.15583
#
# Static dielectric constant tensor:
#      x y z
#    x 3.488410 0.000000 0.000000 
#    y 0.000000 3.342850 0.000000 
#    z 0.000000 0.000000 3.358050 
# 
# 
# High freq. dielectric constant tensor:
#      x y z
#    x 1.725260 0.000000 0.000000 
#    y 0.000000 1.706900 0.000000 
#    z 0.000000 0.000000 1.723920 
# 
# From -- ./inp_files/7226.got.cif
#   From: 2010.03.12/outbox.cif.g09.slc.cpg/sg65_4_cif.got.tgz:7226.got - 2010.04.10 20:52:16.
