data_PCOD8273915
_publ_section_title
;
Structure prediction by ZEFSAII (Michael W. Deem and Ramdas Pophale) SiO2 
 PCOD8273915
Probable space group: C M M M
;
_chemical_formula_sum "Si O2"
_cell_formula_units_Z 72
_cell_length_a 20.257881
_cell_length_b 9.738492
_cell_length_c 19.943280
_cell_angle_alpha 90.000000
_cell_angle_beta 90.000000
_cell_angle_gamma 90.000000
_cell_volume 3934.434451
_symmetry_space_group_name_H-M "C M M M"
_symmetry_group_IT_number 65
_symmetry_cell_setting 'orthorhombic'
loop_
_space_group_symop_operation_xyz
x,y,z
-x,-y,z
x,-y,-z
-x,y,-z
-x,-y,-z
x,y,-z
-x,y,z
x,-y,z
1/2+x,1/2+y,z
1/2-x,1/2-y,z
1/2+x,1/2-y,-z
1/2-x,1/2+y,-z
1/2-x,1/2-y,-z
1/2+x,1/2+y,-z
1/2-x,1/2+y,z
1/2+x,1/2-y,z
loop_
_atom_site_type_symbol
_atom_site_label
_atom_site_fract_x
_atom_site_fract_y
_atom_site_fract_z
Si Si1 0.078331 0.653768 0.073999
Si Si2 0.119113 0.843911 0.423830
Si Si3 0.500000 0.153760 0.579164
Si Si4 0.309474 0.655366 0.293445
Si Si5 0.424514 0.340785 0.806014
O O1 0.102683 0.500000 0.091747
O O2 0.104268 0.758563 0.130119
O O3 0.000000 0.658204 0.072716
O O4 0.105036 0.696263 0.000000
O O5 0.142222 0.811857 0.500000
O O6 0.180518 0.825955 0.373493
O O7 0.063933 0.738233 0.398195
O O8 0.091233 0.000000 0.419058
O O9 0.500000 0.142413 0.500000
O O10 0.500000 0.000000 0.610935
O O11 0.289349 0.500000 0.276128
O O12 0.250000 0.750000 0.268248
O O13 0.377984 0.694591 0.256891
O O14 0.500000 0.297659 0.787938
O O15 0.421494 0.500000 0.825124
#
# Coordination Sequence:
#
# PCOD8273915 Si02
#       5
#    16  16   8  16  16
#     4   8  14  26  46  74 106 134 161 200 249 297
#     4   9  18  33  53  74  97 132 174 211 256 313
#     4   9  17  29  47  75 105 127 154 203 260 303
#     4  10  22  37  53  73 102 137 173 215 261 307
#     4   9  18  32  51  75 102 134 170 208 250 298
#
# _framework density 18.299962000000001
#
# number of rings (size 3 to 8) (size 9 to 14) (size 15 to 20)
#    0.000    3.000    0.000    1.000    1.556    4.000 
#    0.000    2.222    0.000    0.667    0.000    0.000 
#    0.000    0.000    0.000    0.000    0.000    0.000 
#
# Total GULP energy -446200.765591 kJ/mol
# GULP energy per Si atom -12394.465711 kJ/mol
# Density = 1.825831 g / cm^3
# Si number density = 18.299962 Si / 1000 Ang^3
#
#
#
# Elastic Constant Matrix: (Units=GPa)
#
#
# Indices 1 2 3 4 5 6 
#
# 1 74.3717 48.4128 39.0412 0.0000 0.0000 0.0000
# 2 48.4128 89.6541 48.2207 0.0000 0.0000 0.0000
# 3 39.0412 48.2207 103.3355 0.0000 0.0000 0.0000
# 4 0.0000 0.0000 0.0000 26.1844 0.0000 0.0000
# 5 0.0000 0.0000 0.0000 0.0000 9.2433 0.0000
# 6 0.0000 0.0000 0.0000 0.0000 0.0000 25.0422
#
#
#
# Elastic Compliance Matrix: (Units=1/GPa)
#
#
# Indices 1 2 3 4 5 6 
#
# 1 0.021718 -0.009765 -0.003648 0.000000 0.000000 0.000000
# 2 -0.009765 0.019282 -0.005309 0.000000 0.000000 0.000000
# 3 -0.003648 -0.005309 0.013533 0.000000 0.000000 0.000000
# 4 0.000000 0.000000 0.000000 0.038191 0.000000 0.000000
# 5 0.000000 0.000000 0.000000 0.000000 0.108187 0.000000
# 6 0.000000 0.000000 0.000000 0.000000 0.000000 0.039933
#
#
# Mechanical properties :
#
#
# Convention : Reuss Voigt Hill
#
# Bulk Modulus (GPa) = 58.51812 59.85674 59.18743
# Shear Modulus (GPa) = 17.60665 20.87310 19.23987
#
# Velocity S-wave (km/s) = 3.10516 3.38095 3.24599
# Velocity P-wave (km/s) = 6.70094 6.92970 6.81628
#
# Compressibility (1/GPa) = 0.01708873
#
# Stress axis : x y z
#
# Youngs Moduli (GPa) = 46.04482 51.86063 73.89458
#
# Poissons Ratio (x) = 0.50644 0.26959
# Poissons Ratio (y) = 0.44964 0.39227
# Poissons Ratio (z) = 0.16799 0.27531
#
# Static dielectric constant tensor:
#      x y z
#    x 2.937270 0.000000 0.000000 
#    y 0.000000 3.591950 0.000000 
#    z 0.000000 0.000000 3.535340 
# 
# 
# High freq. dielectric constant tensor:
#      x y z
#    x 1.664300 0.000000 0.000000 
#    y 0.000000 1.711240 0.000000 
#    z 0.000000 0.000000 1.706720 
# 
# From -- ./inp_files/64329.got.cif
#   From: 2010.03.12/outbox.cif.g09.slc.cpg/sg65_33_cif.got.tgz:64329.got - 2010.04.10 20:52:16.
