data_PCOD8273933
_publ_section_title
;
Structure prediction by ZEFSAII (Michael W. Deem and Ramdas Pophale) SiO2 
 PCOD8273933
Probable space group: C M M M
;
_chemical_formula_sum "Si O2"
_cell_formula_units_Z 88
_cell_length_a 9.039060
_cell_length_b 20.954471
_cell_length_c 25.051249
_cell_angle_alpha 90.000000
_cell_angle_beta 90.000000
_cell_angle_gamma 90.000000
_cell_volume 4744.925023
_symmetry_space_group_name_H-M "C M M M"
_symmetry_group_IT_number 65
_symmetry_cell_setting 'orthorhombic'
loop_
_space_group_symop_operation_xyz
x,y,z
-x,-y,z
x,-y,-z
-x,y,-z
-x,-y,-z
x,y,-z
-x,y,z
x,-y,z
1/2+x,1/2+y,z
1/2-x,1/2-y,z
1/2+x,1/2-y,-z
1/2-x,1/2+y,-z
1/2-x,1/2-y,-z
1/2+x,1/2+y,-z
1/2-x,1/2+y,z
1/2+x,1/2-y,z
loop_
_atom_site_type_symbol
_atom_site_label
_atom_site_fract_x
_atom_site_fract_y
_atom_site_fract_z
Si Si1 0.334554 0.575654 0.896472
Si Si2 0.833378 0.423776 0.000000
Si Si3 0.823826 0.683722 0.705803
Si Si4 0.838603 0.188172 0.500000
Si Si5 0.675898 0.000000 0.562748
Si Si6 0.827171 0.881032 0.608282
Si Si7 0.327513 0.072955 0.789246
O O1 0.500000 0.603874 0.896618
O O2 0.338065 0.500000 0.900584
O O3 0.255190 0.596522 0.842190
O O4 0.247864 0.603535 0.947497
O O5 0.831737 0.500000 0.000000
O O6 0.000000 0.397634 0.000000
O O7 0.750000 0.750000 0.726649
O O8 0.749438 0.666750 0.649706
O O9 0.785111 0.623854 0.743931
O O10 0.000000 0.693169 0.700099
O O11 0.750000 0.250000 0.500000
O O12 0.804494 0.147077 0.449318
O O13 0.000000 0.215660 0.500000
O O14 0.735454 0.944965 0.601311
O O15 0.500000 0.000000 0.562058
O O16 0.733047 0.000000 0.500000
O O17 0.000000 0.892433 0.623018
O O18 0.500000 0.074539 0.802138
O O19 0.280807 0.000000 0.772746
#
# Coordination Sequence:
#
# PCOD8273933 Si02
#       7
#    16   8  16   8   8  16  16
#     4   9  16  26  43  71 106 141 181 229 278 328
#     4   9  15  23  39  65 102 147 186 221 270 329
#     4  11  24  41  61  85 114 149 192 239 287 342
#     4  10  22  37  56  79 107 140 178 222 275 332
#     4  11  23  39  61  89 117 149 183 220 273 338
#     4  11  23  40  60  84 114 147 184 230 280 334
#     4   9  19  36  56  78 108 146 187 232 282 337
#
# _framework density 18.546130000000002
#
# number of rings (size 3 to 8) (size 9 to 14) (size 15 to 20)
#    0.000    2.000    0.909    2.727    1.273    8.000 
#    0.000    0.000    0.000    0.000    0.000    0.636 
#    0.000    0.000    0.000    0.000    0.000    0.000 
#
# Total GULP energy -545300.864595 kJ/mol
# GULP energy per Si atom -12393.201468 kJ/mol
# Density = 1.850392 g / cm^3
# Si number density = 18.546130 Si / 1000 Ang^3
#
#
#
# Elastic Constant Matrix: (Units=GPa)
#
#
# Indices 1 2 3 4 5 6 
#
# 1 107.4348 50.0625 66.3091 0.0000 0.0000 0.0000
# 2 50.0625 89.6174 34.1499 0.0000 0.0000 0.0000
# 3 66.3091 34.1499 112.8660 0.0000 0.0000 0.0000
# 4 0.0000 0.0000 0.0000 2.3891 0.0000 0.0000
# 5 0.0000 0.0000 0.0000 0.0000 12.8830 0.0000
# 6 0.0000 0.0000 0.0000 0.0000 0.0000 28.7836
#
#
#
# Elastic Compliance Matrix: (Units=1/GPa)
#
#
# Indices 1 2 3 4 5 6 
#
# 1 0.017505 -0.006623 -0.008280 0.000000 0.000000 0.000000
# 2 -0.006623 0.015119 -0.000683 0.000000 0.000000 0.000000
# 3 -0.008280 -0.000683 0.013931 0.000000 0.000000 0.000000
# 4 0.000000 0.000000 0.000000 0.418571 0.000000 0.000000
# 5 0.000000 0.000000 0.000000 0.000000 0.077622 0.000000
# 6 0.000000 0.000000 0.000000 0.000000 0.000000 0.034742
#
#
# Mechanical properties :
#
#
# Convention : Reuss Voigt Hill
#
# Bulk Modulus (GPa) = 65.01272 67.88456 66.44864
# Shear Modulus (GPa) = 8.14610 19.43759 13.79184
#
# Velocity S-wave (km/s) = 2.09807 3.24090 2.72995
# Velocity P-wave (km/s) = 6.40311 7.11949 6.77078
#
# Compressibility (1/GPa) = 0.01538161
#
# Stress axis : x y z
#
# Youngs Moduli (GPa) = 57.12707 66.14233 71.78040
#
# Poissons Ratio (x) = 0.43809 0.59435
# Poissons Ratio (y) = 0.37838 0.04905
# Poissons Ratio (z) = 0.47302 0.04519
#
# Static dielectric constant tensor:
#      x y z
#    x 3.610200 0.000000 0.000000 
#    y 0.000000 24.144500 0.000000 
#    z 0.000000 0.000000 3.499970 
# 
# 
# High freq. dielectric constant tensor:
#      x y z
#    x 1.733830 0.000000 0.000000 
#    y 0.000000 1.689660 0.000000 
#    z 0.000000 0.000000 1.723940 
# 
# From -- ./inp_files/67637.got.cif
#   From: 2010.03.12/outbox.cif.g09.slc.cpg/sg65_34_cif.got.tgz:67637.got - 2010.04.10 20:52:16.
