data_PCOD8273947
_publ_section_title
;
Structure prediction by ZEFSAII (Michael W. Deem and Ramdas Pophale) SiO2 
 PCOD8273947
Probable space group: C M M M
;
_chemical_formula_sum "Si O2"
_cell_formula_units_Z 88
_cell_length_a 14.393046
_cell_length_b 32.543833
_cell_length_c 10.340562
_cell_angle_alpha 90.000000
_cell_angle_beta 90.000000
_cell_angle_gamma 90.000000
_cell_volume 4843.569758
_symmetry_space_group_name_H-M "C M M M"
_symmetry_group_IT_number 65
_symmetry_cell_setting 'orthorhombic'
loop_
_space_group_symop_operation_xyz
x,y,z
-x,-y,z
x,-y,-z
-x,y,-z
-x,-y,-z
x,y,-z
-x,y,z
x,-y,z
1/2+x,1/2+y,z
1/2-x,1/2-y,z
1/2+x,1/2-y,-z
1/2-x,1/2+y,-z
1/2-x,1/2-y,-z
1/2+x,1/2+y,-z
1/2-x,1/2+y,z
1/2+x,1/2-y,z
loop_
_atom_site_type_symbol
_atom_site_label
_atom_site_fract_x
_atom_site_fract_y
_atom_site_fract_z
Si Si1 0.106506 0.185662 0.856893
Si Si2 0.602413 0.900893 0.653832
Si Si3 0.891207 0.119490 0.354063
Si Si4 0.250000 0.750000 0.224386
Si Si5 0.767498 0.045364 0.652791
Si Si6 0.396805 0.190732 0.347738
O O1 0.141271 0.154138 0.746809
O O2 0.178036 0.223659 0.860861
O O3 0.000000 0.199908 0.826885
O O4 0.109873 0.165270 0.000000
O O5 0.607767 0.900815 0.500000
O O6 0.500000 0.913759 0.701266
O O7 0.674246 0.934031 0.711026
O O8 0.627160 0.855075 0.704540
O O9 0.856584 0.131359 0.500000
O O10 0.852207 0.075303 0.310882
O O11 0.000000 0.114609 0.351343
O O12 0.315056 0.778655 0.310792
O O13 0.758851 0.040868 0.500000
O O14 0.782394 0.000000 0.714351
O O15 0.402673 0.189677 0.500000
O O16 0.500000 0.203903 0.295155
#
# Coordination Sequence:
#
# PCOD8273947 Si02
#       6
#    16  16  16   8  16  16
#     4  10  22  38  53  71  98 131 165 202 246 295
#     4   8  14  25  38  54  86 130 164 189 227 283
#     4   9  18  33  52  72  95 126 162 196 233 283
#     4  12  20  30  50  72  93 126 167 210 249 292
#     4   9  16  25  41  69  99 122 150 192 239 283
#     4   9  18  30  44  68 102 135 166 203 248 294
#
# _framework density 18.168417999999999
#
# number of rings (size 3 to 8) (size 9 to 14) (size 15 to 20)
#    0.000    2.727    0.000    3.273    0.000    3.636 
#    0.000    5.455    0.000    0.545    0.000    2.545 
#    0.000    0.000    0.000    6.545    0.000    3.455 
#
# Total GULP energy -545141.287491 kJ/mol
# GULP energy per Si atom -12389.574716 kJ/mol
# Density = 1.812707 g / cm^3
# Si number density = 18.168418 Si / 1000 Ang^3
#
#
#
# Elastic Constant Matrix: (Units=GPa)
#
#
# Indices 1 2 3 4 5 6 
#
# 1 78.9907 57.2310 28.3728 0.0000 0.0000 0.0000
# 2 57.2310 126.0983 40.9670 0.0000 0.0000 0.0000
# 3 28.3728 40.9670 52.0460 0.0000 0.0000 0.0000
# 4 0.0000 0.0000 0.0000 6.6489 0.0000 0.0000
# 5 0.0000 0.0000 0.0000 0.0000 10.8965 0.0000
# 6 0.0000 0.0000 0.0000 0.0000 0.0000 29.1561
#
#
#
# Elastic Compliance Matrix: (Units=1/GPa)
#
#
# Indices 1 2 3 4 5 6 
#
# 1 0.019784 -0.007356 -0.004995 0.000000 0.000000 0.000000
# 2 -0.007356 0.013390 -0.006530 0.000000 0.000000 0.000000
# 3 -0.004995 -0.006530 0.027076 0.000000 0.000000 0.000000
# 4 0.000000 0.000000 0.000000 0.150400 0.000000 0.000000
# 5 0.000000 0.000000 0.000000 0.000000 0.091773 0.000000
# 6 0.000000 0.000000 0.000000 0.000000 0.000000 0.034298
#
#
# Mechanical properties :
#
#
# Convention : Reuss Voigt Hill
#
# Bulk Modulus (GPa) = 44.46616 56.69742 50.58179
# Shear Modulus (GPa) = 13.08972 18.04459 15.56715
#
# Velocity S-wave (km/s) = 2.68706 3.15490 2.93033
# Velocity P-wave (km/s) = 5.84420 6.67424 6.27296
#
# Compressibility (1/GPa) = 0.02248901
#
# Stress axis : x y z
#
# Youngs Moduli (GPa) = 50.54686 74.68003 36.93261
#
# Poissons Ratio (x) = 0.54937 0.18446
# Poissons Ratio (y) = 0.37184 0.24116
# Poissons Ratio (z) = 0.25246 0.48764
#
# Static dielectric constant tensor:
#      x y z
#    x 3.740330 0.000000 0.000000 
#    y 0.000000 3.618150 0.000000 
#    z 0.000000 0.000000 2.887970 
# 
# 
# High freq. dielectric constant tensor:
#      x y z
#    x 1.725850 0.000000 0.000000 
#    y 0.000000 1.699020 0.000000 
#    z 0.000000 0.000000 1.640680 
# 
# From -- ./inp_files/25113.got.cif
#   From: 2010.03.12/outbox.cif.g09.slc.cpg/sg65_13_cif.got.tgz:25113.got - 2010.04.10 20:52:16.
