data_PCOD8273706
_publ_section_title
;
Structure prediction by ZEFSAII (Michael W. Deem and Ramdas Pophale) SiO2 
 PCOD8273706
Probable space group: C M M M
;
_chemical_formula_sum "Si O2"
_cell_formula_units_Z 48
_cell_length_a 37.913811
_cell_length_b 8.942618
_cell_length_c 7.479648
_cell_angle_alpha 90.000000
_cell_angle_beta 90.000000
_cell_angle_gamma 90.000000
_cell_volume 2535.965146
_symmetry_space_group_name_H-M "C M M M"
_symmetry_group_IT_number 65
_symmetry_cell_setting 'orthorhombic'
loop_
_space_group_symop_operation_xyz
x,y,z
-x,-y,z
x,-y,-z
-x,y,-z
-x,-y,-z
x,y,-z
-x,y,z
x,-y,z
1/2+x,1/2+y,z
1/2-x,1/2-y,z
1/2+x,1/2-y,-z
1/2-x,1/2+y,-z
1/2-x,1/2-y,-z
1/2+x,1/2+y,-z
1/2-x,1/2+y,z
1/2+x,1/2-y,z
loop_
_atom_site_type_symbol
_atom_site_label
_atom_site_fract_x
_atom_site_fract_y
_atom_site_fract_z
Si Si1 0.460096 0.173764 0.294512
Si Si2 0.713144 0.174713 0.292922
Si Si3 0.666575 0.322932 0.000000
Si Si4 0.414770 0.325197 0.000000
O O1 0.451398 0.207505 0.500000
O O2 0.500000 0.224067 0.249114
O O3 0.432651 0.264261 0.178012
O O4 0.455712 0.000000 0.251123
O O5 0.703977 0.202001 0.500000
O O6 0.750000 0.250000 0.240599
O O7 0.682870 0.252177 0.178192
O O8 0.715479 0.000000 0.246683
O O9 0.672648 0.500000 0.000000
O O10 0.625816 0.277801 0.000000
O O11 0.419476 0.500000 0.000000
#
# Coordination Sequence:
#
# PCOD8273706 Si02
#       4
#    16  16   8   8
#     4   9  19  37  60  83 107 140 183 228 273 323
#     4  10  21  38  61  86 110 140 181 227 273 322
#     4  11  24  39  54  77 114 153 184 221 270 323
#     4  11  24  37  52  80 115 149 182 221 274 327
#
# _framework density 18.927706000000001
#
# number of rings (size 3 to 8) (size 9 to 14) (size 15 to 20)
#    0.000    2.000    0.000    4.000    0.000    9.333 
#    0.000    8.333    0.000    0.000    0.000    0.000 
#    0.000    0.000    0.000    0.000    0.000    0.000 
#
# Total GULP energy -297693.932840 kJ/mol
# GULP energy per Si atom -12403.913868 kJ/mol
# Density = 1.888463 g / cm^3
# Si number density = 18.927706 Si / 1000 Ang^3
#
#
#
# Elastic Constant Matrix: (Units=GPa)
#
#
# Indices 1 2 3 4 5 6 
#
# 1 167.9380 89.7115 93.7667 0.0000 0.0000 0.0000
# 2 89.7115 96.8811 57.8368 0.0000 0.0000 0.0000
# 3 93.7667 57.8368 115.7046 0.0000 0.0000 0.0000
# 4 0.0000 0.0000 0.0000 -402.8895 0.0000 0.0000
# 5 0.0000 0.0000 0.0000 0.0000 -53.5845 0.0000
# 6 0.0000 0.0000 0.0000 0.0000 0.0000 35.8182
#
#
#
# Elastic Compliance Matrix: (Units=1/GPa)
#
#
# Indices 1 2 3 4 5 6 
#
# 1 0.015397 -0.009704 -0.007627 0.000000 0.000000 0.000000
# 2 -0.009704 0.020829 -0.002547 0.000000 0.000000 0.000000
# 3 -0.007627 -0.002547 0.016097 0.000000 0.000000 0.000000
# 4 0.000000 0.000000 0.000000 -0.002482 0.000000 0.000000
# 5 0.000000 0.000000 0.000000 0.000000 -0.018662 0.000000
# 6 0.000000 0.000000 0.000000 0.000000 0.000000 0.027919
#
#
# Mechanical properties :
#
#
# Convention : Reuss Voigt Hill
#
# Bulk Modulus (GPa) = 79.58155 95.90596 87.74375
# Shear Modulus (GPa) = 48.52376 -74.85058 -13.16341
#
# Velocity S-wave (km/s) = 5.06873 -6.29534 -2.64001
# Velocity P-wave (km/s) = 8.74027 1.43604 6.09631
#
# Compressibility (1/GPa) = 0.01256573
#
# Stress axis : x y z
#
# Youngs Moduli (GPa) = 64.94783 48.01036 62.12488
#
# Poissons Ratio (x) = 0.46592 0.47381
# Poissons Ratio (y) = 0.63028 0.15824
# Poissons Ratio (z) = 0.49534 0.12229
#
# Static dielectric constant tensor:
#      x y z
#    x 3.489330 0.000000 0.000000 
#    y 0.000000 3.511630 0.000000 
#    z 0.000000 0.000000 0.068020 
# 
# 
# High freq. dielectric constant tensor:
#      x y z
#    x 1.734500 0.000000 0.000000 
#    y 0.000000 1.742510 0.000000 
#    z 0.000000 0.000000 1.751150 
# 
# From -- ./inp_files/17537.got.cif
#   From: 2010.03.12/outbox.cif.g09.slc.cpg/sg65_9_cif.got.tgz:17537.got - 2010.04.10 20:52:16.
