data_PCOD8273374
_publ_section_title
;
Structure prediction by ZEFSAII (Michael W. Deem and Ramdas Pophale) SiO2 
 PCOD8273374
Probable space group: C M M M
;
_chemical_formula_sum "Si O2"
_cell_formula_units_Z 72
_cell_length_a 8.896648
_cell_length_b 26.691848
_cell_length_c 15.928772
_cell_angle_alpha 90.000000
_cell_angle_beta 90.000000
_cell_angle_gamma 90.000000
_cell_volume 3782.573249
_symmetry_space_group_name_H-M "C M M M"
_symmetry_group_IT_number 65
_symmetry_cell_setting 'orthorhombic'
loop_
_space_group_symop_operation_xyz
x,y,z
-x,-y,z
x,-y,-z
-x,y,-z
-x,-y,-z
x,y,-z
-x,y,z
x,-y,z
1/2+x,1/2+y,z
1/2-x,1/2-y,z
1/2+x,1/2-y,-z
1/2-x,1/2+y,-z
1/2-x,1/2-y,-z
1/2+x,1/2+y,-z
1/2-x,1/2+y,z
1/2+x,1/2-y,z
loop_
_atom_site_type_symbol
_atom_site_label
_atom_site_fract_x
_atom_site_fract_y
_atom_site_fract_z
Si Si1 0.677840 0.695497 0.000000
Si Si2 0.323590 0.903761 0.595298
Si Si3 0.827093 0.943059 0.752535
Si Si4 0.824573 0.646628 0.158764
Si Si5 0.327428 0.800988 0.669651
O O1 0.750000 0.750000 0.000000
O O2 0.727942 0.664437 0.080611
O O3 0.500000 0.701808 0.000000
O O4 0.288121 0.919379 0.500000
O O5 0.500000 0.908872 0.616436
O O6 0.232165 0.939976 0.656859
O O7 0.271019 0.846517 0.611099
O O8 0.728997 0.908551 0.814020
O O9 0.000000 0.925615 0.755288
O O10 0.809982 0.000000 0.783771
O O11 0.794203 0.685751 0.233541
O O12 0.000000 0.644238 0.135064
O O13 0.500000 0.791511 0.653681
O O14 0.250000 0.750000 0.642186
#
# Coordination Sequence:
#
# PCOD8273374 Si02
#       5
#     8  16  16  16  16
#     4  12  24  38  59  88 121 152 182 219 265 315
#     4   9  19  35  52  73 104 141 183 228 271 323
#     4  10  21  37  57  81 109 140 176 224 281 334
#     4  10  21  38  58  81 110 144 184 226 268 320
#     4   9  18  31  49  73 102 138 177 218 264 315
#
# _framework density 19.034661
#
# number of rings (size 3 to 8) (size 9 to 14) (size 15 to 20)
#    0.000    2.222    0.000    4.333    0.000    9.333 
#    0.000    2.778    0.000    3.333    0.000    0.000 
#    0.000    0.000    0.000    0.000    0.000    0.000 
#
# Total GULP energy -446450.898775 kJ/mol
# GULP energy per Si atom -12401.413855 kJ/mol
# Density = 1.899134 g / cm^3
# Si number density = 19.034661 Si / 1000 Ang^3
#
#
#
# Elastic Constant Matrix: (Units=GPa)
#
#
# Indices 1 2 3 4 5 6 
#
# 1 93.8523 35.8894 36.8886 0.0000 0.0000 0.0000
# 2 35.8894 88.3857 21.8272 0.0000 0.0000 0.0000
# 3 36.8886 21.8272 80.1576 0.0000 0.0000 0.0000
# 4 0.0000 0.0000 0.0000 6.1292 0.0000 0.0000
# 5 0.0000 0.0000 0.0000 0.0000 28.8140 0.0000
# 6 0.0000 0.0000 0.0000 0.0000 0.0000 34.7187
#
#
#
# Elastic Compliance Matrix: (Units=1/GPa)
#
#
# Indices 1 2 3 4 5 6 
#
# 1 0.014540 -0.004558 -0.005450 0.000000 0.000000 0.000000
# 2 -0.004558 0.013559 -0.001594 0.000000 0.000000 0.000000
# 3 -0.005450 -0.001594 0.015418 0.000000 0.000000 0.000000
# 4 0.000000 0.000000 0.000000 0.163154 0.000000 0.000000
# 5 0.000000 0.000000 0.000000 0.000000 0.034705 0.000000
# 6 0.000000 0.000000 0.000000 0.000000 0.000000 0.028803
#
#
# Mechanical properties :
#
#
# Convention : Reuss Voigt Hill
#
# Bulk Modulus (GPa) = 49.23414 50.17843 49.70629
# Shear Modulus (GPa) = 16.65808 25.11843 20.88826
#
# Velocity S-wave (km/s) = 2.96149 3.63659 3.31627
# Velocity P-wave (km/s) = 6.13316 6.63716 6.39013
#
# Compressibility (1/GPa) = 0.02031111
#
# Stress axis : x y z
#
# Youngs Moduli (GPa) = 68.77426 73.75361 64.86011
#
# Poissons Ratio (x) = 0.33618 0.35350
# Poissons Ratio (y) = 0.31349 0.10341
# Poissons Ratio (z) = 0.37484 0.11759
#
# Static dielectric constant tensor:
#      x y z
#    x 3.518130 0.000000 0.000000 
#    y 0.000000 3.469940 0.000000 
#    z 0.000000 0.000000 3.445580 
# 
# 
# High freq. dielectric constant tensor:
#      x y z
#    x 1.744050 0.000000 0.000000 
#    y 0.000000 1.740690 0.000000 
#    z 0.000000 0.000000 1.731140 
# 
# From -- ./inp_files/36516.got.cif
#   From: 2010.03.12/outbox.cif.g09.slc.cpg/sg65_19_cif.got.tgz:36516.got - 2010.04.10 20:52:16.
