data_PCOD8273395
_publ_section_title
;
Structure prediction by ZEFSAII (Michael W. Deem and Ramdas Pophale) SiO2 
 PCOD8273395
Probable space group: C M M M
;
_chemical_formula_sum "Si O2"
_cell_formula_units_Z 96
_cell_length_a 18.865108
_cell_length_b 8.763487
_cell_length_c 31.097191
_cell_angle_alpha 90.000000
_cell_angle_beta 90.000000
_cell_angle_gamma 90.000000
_cell_volume 5141.116007
_symmetry_space_group_name_H-M "C M M M"
_symmetry_group_IT_number 65
_symmetry_cell_setting 'orthorhombic'
loop_
_space_group_symop_operation_xyz
x,y,z
-x,-y,z
x,-y,-z
-x,y,-z
-x,-y,-z
x,y,-z
-x,y,z
x,-y,z
1/2+x,1/2+y,z
1/2-x,1/2-y,z
1/2+x,1/2-y,-z
1/2-x,1/2+y,-z
1/2-x,1/2-y,-z
1/2+x,1/2+y,-z
1/2-x,1/2+y,z
1/2+x,1/2-y,z
loop_
_atom_site_type_symbol
_atom_site_label
_atom_site_fract_x
_atom_site_fract_y
_atom_site_fract_z
Si Si1 0.827432 0.680494 0.783311
Si Si2 0.417396 0.677926 0.708397
Si Si3 0.584179 0.829180 0.954500
Si Si4 0.916622 0.327034 0.619841
Si Si5 0.079940 0.317342 0.137697
Si Si6 0.176099 0.179056 0.450535
O O1 0.821158 0.500000 0.784690
O O2 0.750000 0.750000 0.781127
O O3 0.872263 0.727163 0.742089
O O4 0.867554 0.744239 0.825635
O O5 0.500000 0.715575 0.715749
O O6 0.401229 0.500000 0.713745
O O7 0.392611 0.730419 0.661251
O O8 0.500000 0.836269 0.952583
O O9 0.607956 0.752583 0.909038
O O10 0.615005 0.000000 0.956247
O O11 0.607683 0.746400 0.000000
O O12 0.889317 0.500000 0.625186
O O13 0.885890 0.252151 0.577145
O O14 0.000000 0.321664 0.614291
O O15 0.079546 0.500000 0.136091
O O16 0.000000 0.258751 0.147601
O O17 0.160693 0.220470 0.500000
O O18 0.250000 0.250000 0.435175
O O19 0.178717 0.000000 0.442785
#
# Coordination Sequence:
#
# PCOD8273395 Si02
#       6
#    16  16  16  16  16  16
#     4  11  22  35  51  72 101 135 172 213 256 304
#     4  10  21  38  59  81 105 132 166 210 259 312
#     4   7   9  15  31  58  90 119 150 194 246 296
#     4  10  21  37  58  84 112 141 174 213 258 308
#     4   8  14  25  43  67  93 124 162 204 252 303
#     4  10  21  37  57  81 111 147 185 223 262 305
#
# _framework density 18.672988
#
# number of rings (size 3 to 8) (size 9 to 14) (size 15 to 20)
#    0.000    2.667    0.000    4.000    0.000    4.667 
#    0.000    5.000    0.000    0.500    0.000    0.000 
#    0.000    2.000    0.000   18.833    0.000   15.500 
#
# Total GULP energy -594841.045165 kJ/mol
# GULP energy per Si atom -12392.521774 kJ/mol
# Density = 1.863049 g / cm^3
# Si number density = 18.672988 Si / 1000 Ang^3
#
#
#
# Elastic Constant Matrix: (Units=GPa)
#
#
# Indices 1 2 3 4 5 6 
#
# 1 55.4608 28.8341 56.7772 0.0000 0.0000 0.0000
# 2 28.8341 56.2496 33.1505 0.0000 0.0000 0.0000
# 3 56.7772 33.1505 138.3121 0.0000 0.0000 0.0000
# 4 0.0000 0.0000 0.0000 11.4886 0.0000 0.0000
# 5 0.0000 0.0000 0.0000 0.0000 3.9542 0.0000
# 6 0.0000 0.0000 0.0000 0.0000 0.0000 18.3801
#
#
#
# Elastic Compliance Matrix: (Units=1/GPa)
#
#
# Indices 1 2 3 4 5 6 
#
# 1 0.036557 -0.011523 -0.012245 0.000000 0.000000 0.000000
# 2 -0.011523 0.024334 -0.001102 0.000000 0.000000 0.000000
# 3 -0.012245 -0.001102 0.012521 0.000000 0.000000 0.000000
# 4 0.000000 0.000000 0.000000 0.087043 0.000000 0.000000
# 5 0.000000 0.000000 0.000000 0.000000 0.252898 0.000000
# 6 0.000000 0.000000 0.000000 0.000000 0.000000 0.054407
#
#
# Mechanical properties :
#
#
# Convention : Reuss Voigt Hill
#
# Bulk Modulus (GPa) = 42.24422 54.17179 48.20800
# Shear Modulus (GPa) = 9.51671 15.51527 12.51599
#
# Velocity S-wave (km/s) = 2.26000 2.88565 2.59177
# Velocity P-wave (km/s) = 5.42977 6.33848 5.90164
#
# Compressibility (1/GPa) = 0.02367188
#
# Stress axis : x y z
#
# Youngs Moduli (GPa) = 27.35442 41.09417 79.86756
#
# Poissons Ratio (x) = 0.47353 0.97797
# Poissons Ratio (y) = 0.31521 0.08803
# Poissons Ratio (z) = 0.33495 0.04529
#
# Static dielectric constant tensor:
#      x y z
#    x 3.215360 0.000000 0.000000 
#    y 0.000000 3.205950 0.000000 
#    z 0.000000 0.000000 3.928160 
# 
# 
# High freq. dielectric constant tensor:
#      x y z
#    x 1.697640 0.000000 0.000000 
#    y 0.000000 1.698700 0.000000 
#    z 0.000000 0.000000 1.750310 
# 
# From -- ./inp_files/75373.got.cif
#   From: 2010.03.12/outbox.cif.g09.slc.cpg/sg65_38_cif.got.tgz:75373.got - 2010.04.10 20:52:16.
