data_PCOD8273613
_publ_section_title
;
Structure prediction by ZEFSAII (Michael W. Deem and Ramdas Pophale) SiO2 
 PCOD8273613
Probable space group: C M M M
;
_chemical_formula_sum "Si O2"
_cell_formula_units_Z 72
_cell_length_a 8.635814
_cell_length_b 18.654899
_cell_length_c 23.013081
_cell_angle_alpha 90.000000
_cell_angle_beta 90.000000
_cell_angle_gamma 90.000000
_cell_volume 3707.412825
_symmetry_space_group_name_H-M "C M M M"
_symmetry_group_IT_number 65
_symmetry_cell_setting 'orthorhombic'
loop_
_space_group_symop_operation_xyz
x,y,z
-x,-y,z
x,-y,-z
-x,y,-z
-x,-y,-z
x,y,-z
-x,y,z
x,-y,z
1/2+x,1/2+y,z
1/2-x,1/2-y,z
1/2+x,1/2-y,-z
1/2-x,1/2+y,-z
1/2-x,1/2-y,-z
1/2+x,1/2+y,-z
1/2-x,1/2+y,z
1/2+x,1/2-y,z
loop_
_atom_site_type_symbol
_atom_site_label
_atom_site_fract_x
_atom_site_fract_y
_atom_site_fract_z
Si Si1 0.183332 0.326481 0.435700
Si Si2 0.680222 0.417078 0.207876
Si Si3 0.676410 0.916781 0.671518
Si Si4 0.182031 0.670695 0.894051
Si Si5 0.316668 0.417439 0.000000
O O1 0.241244 0.350826 0.500000
O O2 0.250000 0.250000 0.419206
O O3 0.244373 0.380304 0.386430
O O4 0.000000 0.322886 0.435048
O O5 0.500000 0.404559 0.195291
O O6 0.726599 0.500000 0.196515
O O7 0.717993 0.395076 0.273872
O O8 0.779900 0.365356 0.167386
O O9 0.500000 0.892893 0.684534
O O10 0.686062 0.000000 0.658856
O O11 0.250000 0.750000 0.897889
O O12 0.253285 0.620881 0.943256
O O13 0.000000 0.675866 0.902936
O O14 0.261609 0.500000 0.000000
O O15 0.500000 0.412194 0.000000
#
# Coordination Sequence:
#
# PCOD8273613 Si02
#       5
#    16  16  16  16   8
#     4   9  18  32  50  73 102 137 176 220 272 329
#     4  10  21  38  59  83 113 148 186 229 279 334
#     4   9  18  33  53  77 105 139 181 227 273 324
#     4  12  25  41  62  88 119 152 190 234 279 328
#     4  11  24  43  66  91 121 155 190 229 276 329
#
# _framework density 19.420552000000001
#
# number of rings (size 3 to 8) (size 9 to 14) (size 15 to 20)
#    0.000    1.889    0.000    4.000    0.000    7.111 
#    0.000    4.444    0.000    0.000    0.000    6.222 
#    0.000    0.000    0.000    0.000    0.000    0.000 
#
# Total GULP energy -446458.779765 kJ/mol
# GULP energy per Si atom -12401.632771 kJ/mol
# Density = 1.937635 g / cm^3
# Si number density = 19.420552 Si / 1000 Ang^3
#
#
#
# Elastic Constant Matrix: (Units=GPa)
#
#
# Indices 1 2 3 4 5 6 
#
# 1 64.8425 45.2823 33.8669 0.0000 0.0000 0.0000
# 2 45.2823 119.9883 82.2081 0.0000 0.0000 0.0000
# 3 33.8669 82.2081 136.9108 0.0000 0.0000 0.0000
# 4 0.0000 0.0000 0.0000 57.5136 0.0000 0.0000
# 5 0.0000 0.0000 0.0000 0.0000 28.1892 0.0000
# 6 0.0000 0.0000 0.0000 0.0000 0.0000 31.3798
#
#
#
# Elastic Compliance Matrix: (Units=1/GPa)
#
#
# Indices 1 2 3 4 5 6 
#
# 1 0.020985 -0.007412 -0.000740 0.000000 0.000000 0.000000
# 2 -0.007412 0.016777 -0.008240 0.000000 0.000000 0.000000
# 3 -0.000740 -0.008240 0.012435 0.000000 0.000000 0.000000
# 4 0.000000 0.000000 0.000000 0.017387 0.000000 0.000000
# 5 0.000000 0.000000 0.000000 0.000000 0.035475 0.000000
# 6 0.000000 0.000000 0.000000 0.000000 0.000000 0.031868
#
#
# Mechanical properties :
#
#
# Convention : Reuss Voigt Hill
#
# Bulk Modulus (GPa) = 57.43348 71.60626 64.51987
# Shear Modulus (GPa) = 28.81575 34.10880 31.46228
#
# Velocity S-wave (km/s) = 3.85616 4.19540 4.02935
# Velocity P-wave (km/s) = 7.03309 7.77303 7.41230
#
# Compressibility (1/GPa) = 0.01741145
#
# Stress axis : x y z
#
# Youngs Moduli (GPa) = 47.65315 59.60457 80.41805
#
# Poissons Ratio (x) = 0.44181 0.05952
# Poissons Ratio (y) = 0.35322 0.66267
# Poissons Ratio (z) = 0.03527 0.49116
#
# Static dielectric constant tensor:
#      x y z
#    x 3.558730 0.000000 0.000000 
#    y 0.000000 3.602930 0.000000 
#    z 0.000000 0.000000 3.885200 
# 
# 
# High freq. dielectric constant tensor:
#      x y z
#    x 1.755430 0.000000 0.000000 
#    y 0.000000 1.755150 0.000000 
#    z 0.000000 0.000000 1.772830 
# 
# From -- ./inp_files/66993.got.cif
#   From: 2010.03.12/outbox.cif.g09.slc.cpg/sg65_34_cif.got.tgz:66993.got - 2010.04.10 20:52:16.
