data_PCOD8273118
_publ_section_title
;
Structure prediction by ZEFSAII (Michael W. Deem and Ramdas Pophale) SiO2 
 PCOD8273118
Probable space group: C M M M
;
_chemical_formula_sum "Si O2"
_cell_formula_units_Z 96
_cell_length_a 18.574273
_cell_length_b 9.057060
_cell_length_c 30.256720
_cell_angle_alpha 90.000000
_cell_angle_beta 90.000000
_cell_angle_gamma 90.000000
_cell_volume 5090.036721
_symmetry_space_group_name_H-M "C M M M"
_symmetry_group_IT_number 65
_symmetry_cell_setting 'orthorhombic'
loop_
_space_group_symop_operation_xyz
x,y,z
-x,-y,z
x,-y,-z
-x,y,-z
-x,-y,-z
x,y,-z
-x,y,z
x,-y,z
1/2+x,1/2+y,z
1/2-x,1/2-y,z
1/2+x,1/2-y,-z
1/2-x,1/2+y,-z
1/2-x,1/2-y,-z
1/2+x,1/2+y,-z
1/2-x,1/2+y,z
1/2+x,1/2-y,z
loop_
_atom_site_type_symbol
_atom_site_label
_atom_site_fract_x
_atom_site_fract_y
_atom_site_fract_z
Si Si1 0.417169 0.328224 0.208598
Si Si2 0.172952 0.174317 0.705788
Si Si3 0.178089 0.328407 0.549505
Si Si4 0.085112 0.332928 0.879221
Si Si5 0.583142 0.828113 0.630775
Si Si6 0.823430 0.172495 0.050954
O O1 0.500000 0.288587 0.219553
O O2 0.408941 0.500000 0.197384
O O3 0.368971 0.280560 0.249882
O O4 0.387953 0.237329 0.166692
O O5 0.250000 0.250000 0.705966
O O6 0.126512 0.229187 0.664848
O O7 0.183203 0.000000 0.701849
O O8 0.157913 0.273728 0.500000
O O9 0.195694 0.500000 0.549556
O O10 0.250000 0.250000 0.567204
O O11 0.111769 0.291835 0.581659
O O12 0.114117 0.500000 0.882141
O O13 0.112433 0.238841 0.920458
O O14 0.000000 0.326941 0.881404
O O15 0.500000 0.782546 0.632473
O O16 0.594188 0.000000 0.642495
O O17 0.750000 0.250000 0.065788
O O18 0.815953 0.000000 0.060148
O O19 0.841160 0.206301 0.000000
#
# Coordination Sequence:
#
# PCOD8273118 Si02
#       6
#    16  16  16  16  16  16
#     4   9  19  37  58  78 104 140 180 221 267 319
#     4  11  23  38  57  81 109 142 180 222 269 320
#     4   9  18  33  53  77 106 141 180 221 266 317
#     4  10  21  36  56  83 113 145 180 220 267 318
#     4  10  21  36  55  80 109 142 180 223 271 321
#     4  10  21  37  57  80 108 144 184 226 272 321
#
# _framework density 18.860374
#
# number of rings (size 3 to 8) (size 9 to 14) (size 15 to 20)
#    0.000    2.167    0.000    2.500    0.000    7.667 
#    0.000    6.667    0.000    0.000    0.000    3.500 
#    0.000    0.000    0.000    0.000    0.000    0.000 
#
# Total GULP energy -595367.391112 kJ/mol
# GULP energy per Si atom -12403.487315 kJ/mol
# Density = 1.881745 g / cm^3
# Si number density = 18.860374 Si / 1000 Ang^3
#
#
#
# Elastic Constant Matrix: (Units=GPa)
#
#
# Indices 1 2 3 4 5 6 
#
# 1 102.9014 47.7876 65.6431 0.0000 0.0000 0.0000
# 2 47.7876 84.5826 61.4055 0.0000 0.0000 0.0000
# 3 65.6431 61.4055 122.3087 0.0000 0.0000 0.0000
# 4 0.0000 0.0000 0.0000 31.7483 0.0000 0.0000
# 5 0.0000 0.0000 0.0000 0.0000 33.6104 0.0000
# 6 0.0000 0.0000 0.0000 0.0000 0.0000 26.1232
#
#
#
# Elastic Compliance Matrix: (Units=1/GPa)
#
#
# Indices 1 2 3 4 5 6 
#
# 1 0.015729 -0.004340 -0.006263 0.000000 0.000000 0.000000
# 2 -0.004340 0.019801 -0.007612 0.000000 0.000000 0.000000
# 3 -0.006263 -0.007612 0.015359 0.000000 0.000000 0.000000
# 4 0.000000 0.000000 0.000000 0.031498 0.000000 0.000000
# 5 0.000000 0.000000 0.000000 0.000000 0.029753 0.000000
# 6 0.000000 0.000000 0.000000 0.000000 0.000000 0.038280
#
#
# Mechanical properties :
#
#
# Convention : Reuss Voigt Hill
#
# Bulk Modulus (GPa) = 69.15916 73.27390 71.21653
# Shear Modulus (GPa) = 26.08688 27.29349 26.69018
#
# Velocity S-wave (km/s) = 3.72312 3.80825 3.76592
# Velocity P-wave (km/s) = 7.43174 7.63361 7.53335
#
# Compressibility (1/GPa) = 0.01445940
#
# Stress axis : x y z
#
# Youngs Moduli (GPa) = 63.57867 50.50318 65.10905
#
# Poissons Ratio (x) = 0.21917 0.40776
# Poissons Ratio (y) = 0.27591 0.49560
# Poissons Ratio (z) = 0.39818 0.38443
#
# Static dielectric constant tensor:
#      x y z
#    x 3.443330 0.000000 0.000000 
#    y 0.000000 3.541550 0.000000 
#    z 0.000000 0.000000 3.618510 
# 
# 
# High freq. dielectric constant tensor:
#      x y z
#    x 1.729990 0.000000 0.000000 
#    y 0.000000 1.737360 0.000000 
#    z 0.000000 0.000000 1.743110 
# 
# From -- ./inp_files/75336.got.cif
#   From: 2010.03.12/outbox.cif.g09.slc.cpg/sg65_38_cif.got.tgz:75336.got - 2010.04.10 20:52:16.
