data_PCOD8273071
_publ_section_title
;
Structure prediction by ZEFSAII (Michael W. Deem and Ramdas Pophale) SiO2 
 PCOD8273071
Probable space group: C M M M
;
_chemical_formula_sum "Si O2"
_cell_formula_units_Z 72
_cell_length_a 23.339722
_cell_length_b 17.683657
_cell_length_c 9.226638
_cell_angle_alpha 90.000000
_cell_angle_beta 90.000000
_cell_angle_gamma 90.000000
_cell_volume 3808.125418
_symmetry_space_group_name_H-M "C M M M"
_symmetry_group_IT_number 65
_symmetry_cell_setting 'orthorhombic'
loop_
_space_group_symop_operation_xyz
x,y,z
-x,-y,z
x,-y,-z
-x,y,-z
-x,-y,-z
x,y,-z
-x,y,z
x,-y,z
1/2+x,1/2+y,z
1/2-x,1/2-y,z
1/2+x,1/2-y,-z
1/2-x,1/2+y,-z
1/2-x,1/2-y,-z
1/2+x,1/2+y,-z
1/2-x,1/2+y,z
1/2+x,1/2-y,z
loop_
_atom_site_type_symbol
_atom_site_label
_atom_site_fract_x
_atom_site_fract_y
_atom_site_fract_z
Si Si1 0.935336 0.000000 0.826792
Si Si2 0.866059 0.587699 0.669075
Si Si3 0.066230 0.291900 0.831333
Si Si4 0.631178 0.644462 0.828295
Si Si5 0.252344 0.087973 0.166660
O O1 0.904203 0.074164 0.763037
O O2 0.000000 0.000000 0.769606
O O3 0.932976 0.000000 0.000000
O O4 0.864613 0.605190 0.500000
O O5 0.877534 0.500000 0.702067
O O6 0.917535 0.633352 0.742651
O O7 0.805566 0.613536 0.736127
O O8 0.104429 0.222588 0.770449
O O9 0.000000 0.272295 0.804465
O O10 0.078436 0.306996 0.000000
O O11 0.697732 0.637347 0.782954
O O12 0.625333 0.641636 0.000000
O O13 0.236874 0.000000 0.188130
O O14 0.268159 0.104654 0.000000
#
# Coordination Sequence:
#
# PCOD8273071 Si02
#       5
#     8  16  16  16  16
#     4   9  14  22  42  74 111 147 178 207 244 295
#     4  10  22  39  57  76 100 134 177 224 273 320
#     4  10  21  36  54  79 110 140 173 215 262 313
#     4   9  16  28  48  78 112 143 173 209 254 302
#     4   9  16  30  54  81 109 139 174 214 256 306
#
# _framework density 18.906939999999999
#
# number of rings (size 3 to 8) (size 9 to 14) (size 15 to 20)
#    0.000    2.556    1.111    1.333    0.000    5.778 
#    0.000    7.778    0.000    0.000    0.000    0.000 
#    0.000    3.556    0.000    0.000    0.000    0.000 
#
# Total GULP energy -446440.231374 kJ/mol
# GULP energy per Si atom -12401.117538 kJ/mol
# Density = 1.886391 g / cm^3
# Si number density = 18.906940 Si / 1000 Ang^3
#
#
#
# Elastic Constant Matrix: (Units=GPa)
#
#
# Indices 1 2 3 4 5 6 
#
# 1 87.0141 51.4221 37.2536 0.0000 0.0000 0.0000
# 2 51.4221 94.3568 39.0271 0.0000 0.0000 0.0000
# 3 37.2536 39.0271 53.5418 0.0000 0.0000 0.0000
# 4 0.0000 0.0000 0.0000 14.4495 0.0000 0.0000
# 5 0.0000 0.0000 0.0000 0.0000 2.2822 0.0000
# 6 0.0000 0.0000 0.0000 0.0000 0.0000 38.7588
#
#
#
# Elastic Compliance Matrix: (Units=1/GPa)
#
#
# Indices 1 2 3 4 5 6 
#
# 1 0.019172 -0.007059 -0.008194 0.000000 0.000000 0.000000
# 2 -0.007059 0.017771 -0.008042 0.000000 0.000000 0.000000
# 3 -0.008194 -0.008042 0.030240 0.000000 0.000000 0.000000
# 4 0.000000 0.000000 0.000000 0.069206 0.000000 0.000000
# 5 0.000000 0.000000 0.000000 0.000000 0.438166 0.000000
# 6 0.000000 0.000000 0.000000 0.000000 0.000000 0.025801
#
#
# Mechanical properties :
#
#
# Convention : Reuss Voigt Hill
#
# Bulk Modulus (GPa) = 48.56012 54.47979 51.51996
# Shear Modulus (GPa) = 7.64744 18.24546 12.94645
#
# Velocity S-wave (km/s) = 2.01335 3.10984 2.61960
# Velocity P-wave (km/s) = 5.58070 6.46313 6.03806
#
# Compressibility (1/GPa) = 0.02059303
#
# Stress axis : x y z
#
# Youngs Moduli (GPa) = 52.15841 56.27005 33.06832
#
# Poissons Ratio (x) = 0.39722 0.27097
# Poissons Ratio (y) = 0.36820 0.26594
# Poissons Ratio (z) = 0.42740 0.45253
#
# Static dielectric constant tensor:
#      x y z
#    x 3.512000 0.000000 0.000000 
#    y 0.000000 3.530920 0.000000 
#    z 0.000000 0.000000 3.032890 
# 
# 
# High freq. dielectric constant tensor:
#      x y z
#    x 1.744880 0.000000 0.000000 
#    y 0.000000 1.735510 0.000000 
#    z 0.000000 0.000000 1.684810 
# 
# From -- ./inp_files/9284.got.cif
#   From: 2010.03.12/outbox.cif.g09.slc.cpg/sg65_5_cif.got.tgz:9284.got - 2010.04.10 20:52:16.
