data_PCOD8273162
_publ_section_title
;
Structure prediction by ZEFSAII (Michael W. Deem and Ramdas Pophale) SiO2 
 PCOD8273162
Probable space group: C M M M
;
_chemical_formula_sum "Si O2"
_cell_formula_units_Z 80
_cell_length_a 8.903917
_cell_length_b 19.133981
_cell_length_c 24.768953
_cell_angle_alpha 90.000000
_cell_angle_beta 90.000000
_cell_angle_gamma 90.000000
_cell_volume 4219.821596
_symmetry_space_group_name_H-M "C M M M"
_symmetry_group_IT_number 65
_symmetry_cell_setting 'orthorhombic'
loop_
_space_group_symop_operation_xyz
x,y,z
-x,-y,z
x,-y,-z
-x,y,-z
-x,-y,-z
x,y,-z
-x,y,z
x,-y,z
1/2+x,1/2+y,z
1/2-x,1/2-y,z
1/2+x,1/2-y,-z
1/2-x,1/2+y,-z
1/2-x,1/2-y,-z
1/2+x,1/2+y,-z
1/2-x,1/2+y,z
1/2+x,1/2-y,z
loop_
_atom_site_type_symbol
_atom_site_label
_atom_site_fract_x
_atom_site_fract_y
_atom_site_fract_z
Si Si1 0.670637 0.917931 0.060636
Si Si2 0.822131 0.177309 0.265099
Si Si3 0.676176 0.081902 0.648203
Si Si4 0.174801 0.177332 0.562902
Si Si5 0.174674 0.820534 0.858009
O O1 0.500000 0.895979 0.073480
O O2 0.780468 0.883804 0.103668
O O3 0.690920 0.000000 0.066095
O O4 0.713682 0.893958 0.000000
O O5 0.750000 0.250000 0.285147
O O6 0.754532 0.114124 0.299258
O O7 0.775912 0.162641 0.203204
O O8 0.000000 0.181167 0.273439
O O9 0.500000 0.097758 0.649914
O O10 0.746467 0.114361 0.594205
O O11 0.710626 0.000000 0.647750
O O12 0.200170 0.162695 0.500000
O O13 0.250000 0.250000 0.580637
O O14 0.000000 0.180870 0.578185
O O15 0.250000 0.750000 0.879487
O O16 0.000000 0.808322 0.861336
#
# Coordination Sequence:
#
# PCOD8273162 Si02
#       5
#    16  16  16  16  16
#     4   9  19  36  56  78 107 144 182 220 267 323
#     4  10  21  38  59  81 108 142 181 225 271 323
#     4  11  24  39  56  81 113 148 184 223 270 322
#     4  10  21  38  61  86 112 145 184 225 270 321
#     4  10  21  36  56  82 109 140 179 224 273 321
#
# _framework density 18.958148000000001
#
# number of rings (size 3 to 8) (size 9 to 14) (size 15 to 20)
#    0.000    2.000    0.000    3.600    0.000    7.600 
#    0.000    7.000    0.000    0.000    0.000    0.000 
#    0.000    0.000    0.000    0.000    0.000    0.000 
#
# Total GULP energy -496169.982458 kJ/mol
# GULP energy per Si atom -12404.249561 kJ/mol
# Density = 1.891500 g / cm^3
# Si number density = 18.958148 Si / 1000 Ang^3
#
#
#
# Elastic Constant Matrix: (Units=GPa)
#
#
# Indices 1 2 3 4 5 6 
#
# 1 103.3937 61.1854 49.5270 0.0000 0.0000 0.0000
# 2 61.1854 110.7722 62.7752 0.0000 0.0000 0.0000
# 3 49.5270 62.7752 101.8444 0.0000 0.0000 0.0000
# 4 0.0000 0.0000 0.0000 27.7603 0.0000 0.0000
# 5 0.0000 0.0000 0.0000 0.0000 34.7135 0.0000
# 6 0.0000 0.0000 0.0000 0.0000 0.0000 37.6507
#
#
#
# Elastic Compliance Matrix: (Units=1/GPa)
#
#
# Indices 1 2 3 4 5 6 
#
# 1 0.015090 -0.006418 -0.003382 0.000000 0.000000 0.000000
# 2 -0.006418 0.016604 -0.007113 0.000000 0.000000 0.000000
# 3 -0.003382 -0.007113 0.015848 0.000000 0.000000 0.000000
# 4 0.000000 0.000000 0.000000 0.036023 0.000000 0.000000
# 5 0.000000 0.000000 0.000000 0.000000 0.028807 0.000000
# 6 0.000000 0.000000 0.000000 0.000000 0.000000 0.026560
#
#
# Mechanical properties :
#
#
# Convention : Reuss Voigt Hill
#
# Bulk Modulus (GPa) = 72.91421 73.66505 73.28963
# Shear Modulus (GPa) = 28.19602 29.52644 28.86123
#
# Velocity S-wave (km/s) = 3.86071 3.95074 3.90598
# Velocity P-wave (km/s) = 7.64314 7.72995 7.68667
#
# Compressibility (1/GPa) = 0.01371475
#
# Stress axis : x y z
#
# Youngs Moduli (GPa) = 66.26882 60.22752 63.09963
#
# Poissons Ratio (x) = 0.38656 0.21341
# Poissons Ratio (y) = 0.42534 0.44883
# Poissons Ratio (z) = 0.22413 0.42840
#
# Static dielectric constant tensor:
#      x y z
#    x 3.594670 0.000000 0.000000 
#    y 0.000000 3.371650 0.000000 
#    z 0.000000 0.000000 3.574450 
# 
# 
# High freq. dielectric constant tensor:
#      x y z
#    x 1.749090 0.000000 0.000000 
#    y 0.000000 1.732330 0.000000 
#    z 0.000000 0.000000 1.747130 
# 
# From -- ./inp_files/72811.got.cif
#   From: 2010.03.12/outbox.cif.g09.slc.cpg/sg65_37_cif.got.tgz:72811.got - 2010.04.10 20:52:16.
