data_PCOD8273760
_publ_section_title
;
Structure prediction by ZEFSAII (Michael W. Deem and Ramdas Pophale) SiO2 
 PCOD8273760
Probable space group: C M M M
;
_chemical_formula_sum "Si O2"
_cell_formula_units_Z 88
_cell_length_a 30.658180
_cell_length_b 12.698920
_cell_length_c 11.610502
_cell_angle_alpha 90.000000
_cell_angle_beta 90.000000
_cell_angle_gamma 90.000000
_cell_volume 4520.267691
_symmetry_space_group_name_H-M "C M M M"
_symmetry_group_IT_number 65
_symmetry_cell_setting 'orthorhombic'
loop_
_space_group_symop_operation_xyz
x,y,z
-x,-y,z
x,-y,-z
-x,y,-z
-x,-y,-z
x,y,-z
-x,y,z
x,-y,z
1/2+x,1/2+y,z
1/2-x,1/2-y,z
1/2+x,1/2-y,-z
1/2-x,1/2+y,-z
1/2-x,1/2-y,-z
1/2+x,1/2+y,-z
1/2-x,1/2+y,z
1/2+x,1/2-y,z
loop_
_atom_site_type_symbol
_atom_site_label
_atom_site_fract_x
_atom_site_fract_y
_atom_site_fract_z
Si Si1 0.831539 0.618890 0.500000
Si Si2 0.127416 0.776885 0.872158
Si Si3 0.249908 0.000000 0.865670
Si Si4 0.928160 0.629335 0.500000
Si Si5 0.207701 0.682991 0.261862
Si Si6 0.583394 0.500000 0.631849
Si Si7 0.548812 0.275216 0.292102
Si Si8 0.848689 0.000000 0.818798
O O1 0.845780 0.500000 0.500000
O O2 0.878523 0.674564 0.500000
O O3 0.803770 0.640430 0.613027
O O4 0.167152 0.743849 0.790967
O O5 0.082155 0.746835 0.810648
O O6 0.133250 0.901161 0.889637
O O7 0.128391 0.724777 0.000000
O O8 0.279694 0.097321 0.832090
O O9 0.203507 0.000000 0.801112
O O10 0.239656 0.000000 0.000000
O O11 0.934370 0.500000 0.500000
O O12 0.949323 0.682864 0.612258
O O13 0.250000 0.750000 0.283795
O O14 0.595186 0.500000 0.500000
O O15 0.556985 0.606576 0.660866
O O16 0.630545 0.500000 0.691883
O O17 0.500000 0.273707 0.240830
#
# Coordination Sequence:
#
# PCOD8273760 Si02
#       8
#     8  16   8   8  16   8  16   8
#     4  11  23  44  62  85 126 160 196 256 313 363
#     4  11  23  41  63  90 125 161 203 252 303 359
#     4  12  24  39  60  89 121 163 214 251 293 356
#     4  11  23  40  66  90 119 159 205 251 310 372
#     4  12  24  40  63  91 120 163 206 250 302 365
#     4  10  21  38  61  94 130 161 199 252 313 372
#     4  11  23  40  65  93 123 160 204 252 311 374
#     4  10  22  39  59  91 126 164 201 247 304 357
#
# _framework density 19.467872
#
# number of rings (size 3 to 8) (size 9 to 14) (size 15 to 20)
#    0.000    0.909    5.455    2.182    0.000    2.182 
#    1.636    0.000    0.000    3.273    0.000    1.273 
#    0.000    0.000    0.000    0.000    0.000    0.000 
#
# Total GULP energy -545392.712398 kJ/mol
# GULP energy per Si atom -12395.288918 kJ/mol
# Density = 1.942356 g / cm^3
# Si number density = 19.467872 Si / 1000 Ang^3
#
#
#
# Elastic Constant Matrix: (Units=GPa)
#
#
# Indices 1 2 3 4 5 6 
#
# 1 157.7493 25.2346 53.6773 0.0000 0.0000 0.0000
# 2 25.2346 75.9241 9.9588 0.0000 0.0000 0.0000
# 3 53.6773 9.9588 112.2591 0.0000 0.0000 0.0000
# 4 0.0000 0.0000 0.0000 18.9337 0.0000 0.0000
# 5 0.0000 0.0000 0.0000 0.0000 19.9696 0.0000
# 6 0.0000 0.0000 0.0000 0.0000 0.0000 18.7681
#
#
#
# Elastic Compliance Matrix: (Units=1/GPa)
#
#
# Indices 1 2 3 4 5 6 
#
# 1 0.007905 -0.002157 -0.003589 0.000000 0.000000 0.000000
# 2 -0.002157 0.013915 -0.000203 0.000000 0.000000 0.000000
# 3 -0.003589 -0.000203 0.010642 0.000000 0.000000 0.000000
# 4 0.000000 0.000000 0.000000 0.052816 0.000000 0.000000
# 5 0.000000 0.000000 0.000000 0.000000 0.050076 0.000000
# 6 0.000000 0.000000 0.000000 0.000000 0.000000 0.053282
#
#
# Mechanical properties :
#
#
# Convention : Reuss Voigt Hill
#
# Bulk Modulus (GPa) = 48.62700 58.18599 53.40650
# Shear Modulus (GPa) = 24.10947 28.67174 26.39060
#
# Velocity S-wave (km/s) = 3.52294 3.84183 3.68584
# Velocity P-wave (km/s) = 6.44829 7.04505 6.75326
#
# Compressibility (1/GPa) = 0.02056471
#
# Stress axis : x y z
#
# Youngs Moduli (GPa) = 126.49785 71.86739 93.96815
#
# Poissons Ratio (x) = 0.15500 0.33722
# Poissons Ratio (y) = 0.27282 0.01909
# Poissons Ratio (z) = 0.45395 0.01460
#
# Static dielectric constant tensor:
#      x y z
#    x 3.615590 0.000000 0.000000 
#    y 0.000000 3.671800 0.000000 
#    z 0.000000 0.000000 3.448270 
# 
# 
# High freq. dielectric constant tensor:
#      x y z
#    x 1.769800 0.000000 0.000000 
#    y 0.000000 1.758600 0.000000 
#    z 0.000000 0.000000 1.756970 
# 
# From -- ./inp_files/33698.got.cif
#   From: 2010.03.12/outbox.cif.g09.slc.cpg/sg65_17_cif.got.tgz:33698.got - 2010.04.10 20:52:16.
