data_PCOD8273878
_publ_section_title
;
Structure prediction by ZEFSAII (Michael W. Deem and Ramdas Pophale) SiO2 
 PCOD8273878
Probable space group: C M M M
;
_chemical_formula_sum "Si O2"
_cell_formula_units_Z 72
_cell_length_a 17.540392
_cell_length_b 11.053559
_cell_length_c 18.045880
_cell_angle_alpha 90.000000
_cell_angle_beta 90.000000
_cell_angle_gamma 90.000000
_cell_volume 3498.803028
_symmetry_space_group_name_H-M "C M M M"
_symmetry_group_IT_number 65
_symmetry_cell_setting 'orthorhombic'
loop_
_space_group_symop_operation_xyz
x,y,z
-x,-y,z
x,-y,-z
-x,y,-z
-x,-y,-z
x,y,-z
-x,y,z
x,-y,z
1/2+x,1/2+y,z
1/2-x,1/2-y,z
1/2+x,1/2-y,-z
1/2-x,1/2+y,-z
1/2-x,1/2-y,-z
1/2+x,1/2+y,-z
1/2-x,1/2+y,z
1/2+x,1/2-y,z
loop_
_atom_site_type_symbol
_atom_site_label
_atom_site_fract_x
_atom_site_fract_y
_atom_site_fract_z
Si Si1 0.591038 0.759065 0.868046
Si Si2 0.160310 0.754095 0.417076
Si Si3 0.915242 0.638389 0.714587
Si Si4 0.186605 0.358081 0.000000
Si Si5 0.914614 0.000000 0.587739
Si Si6 0.090017 0.000000 0.918023
O O1 0.500000 0.776872 0.878214
O O2 0.618672 0.792239 0.785507
O O3 0.617623 0.620019 0.876407
O O4 0.633821 0.842085 0.927633
O O5 0.127328 0.728935 0.500000
O O6 0.250000 0.750000 0.420916
O O7 0.133885 0.652744 0.359719
O O8 0.130887 0.882181 0.385094
O O9 0.916486 0.500000 0.737518
O O10 0.000000 0.686668 0.697054
O O11 0.250000 0.250000 0.000000
O O12 0.216875 0.500000 0.000000
O O13 0.917902 0.000000 0.500000
O O14 0.000000 0.000000 0.621579
O O15 0.000000 0.000000 0.924034
O O16 0.126029 0.000000 0.000000
#
# Coordination Sequence:
#
# PCOD8273878 Si02
#       6
#    16  16  16   8   8   8
#     4  10  21  40  66  92 123 164 211 258 312 375
#     4  10  22  38  61  89 121 163 206 255 317 381
#     4  10  22  39  60  89 124 160 205 260 310 371
#     4  12  27  41  62  92 126 169 208 257 319 379
#     4   9  18  35  59  87 118 152 200 258 307 367
#     4   9  16  31  63  99 122 151 197 257 307 356
#
# _framework density 20.578465999999999
#
# number of rings (size 3 to 8) (size 9 to 14) (size 15 to 20)
#    0.000    2.000    1.111    1.667    3.111    5.333 
#    0.000    3.333    0.000    0.000    0.000    0.000 
#    0.000    0.000    0.000    0.000    0.000    0.000 
#
# Total GULP energy -446284.685009 kJ/mol
# GULP energy per Si atom -12396.796806 kJ/mol
# Density = 2.053163 g / cm^3
# Si number density = 20.578466 Si / 1000 Ang^3
#
#
#
# Elastic Constant Matrix: (Units=GPa)
#
#
# Indices 1 2 3 4 5 6 
#
# 1 68.4546 32.4657 35.2856 0.0000 0.0000 0.0000
# 2 32.4657 125.2677 50.1062 0.0000 0.0000 0.0000
# 3 35.2856 50.1062 153.2377 0.0000 0.0000 0.0000
# 4 0.0000 0.0000 0.0000 36.4112 0.0000 0.0000
# 5 0.0000 0.0000 0.0000 0.0000 22.9299 0.0000
# 6 0.0000 0.0000 0.0000 0.0000 0.0000 29.7154
#
#
#
# Elastic Compliance Matrix: (Units=1/GPa)
#
#
# Indices 1 2 3 4 5 6 
#
# 1 0.017760 -0.003414 -0.002973 0.000000 0.000000 0.000000
# 2 -0.003414 0.009840 -0.002432 0.000000 0.000000 0.000000
# 3 -0.002973 -0.002432 0.008006 0.000000 0.000000 0.000000
# 4 0.000000 0.000000 0.000000 0.027464 0.000000 0.000000
# 5 0.000000 0.000000 0.000000 0.000000 0.043611 0.000000
# 6 0.000000 0.000000 0.000000 0.000000 0.000000 0.033653
#
#
# Mechanical properties :
#
#
# Convention : Reuss Voigt Hill
#
# Bulk Modulus (GPa) = 55.65228 64.74165 60.19697
# Shear Modulus (GPa) = 30.49528 33.08479 31.79004
#
# Velocity S-wave (km/s) = 3.85373 4.01401 3.93468
# Velocity P-wave (km/s) = 6.84867 7.28095 7.06811
#
# Compressibility (1/GPa) = 0.01796872
#
# Stress axis : x y z
#
# Youngs Moduli (GPa) = 56.30708 101.62401 124.91333
#
# Poissons Ratio (x) = 0.34689 0.37141
# Poissons Ratio (y) = 0.19220 0.30373
# Poissons Ratio (z) = 0.16742 0.24711
#
# Static dielectric constant tensor:
#      x y z
#    x 3.575030 0.000000 0.000000 
#    y 0.000000 3.894000 0.000000 
#    z 0.000000 0.000000 3.703590 
# 
# 
# High freq. dielectric constant tensor:
#      x y z
#    x 1.789250 0.000000 0.000000 
#    y 0.000000 1.810340 0.000000 
#    z 0.000000 0.000000 1.801580 
# 
# From -- ./inp_files/54132.got.cif
#   From: 2010.03.12/outbox.cif.g09.slc.cpg/sg65_28_cif.got.tgz:54132.got - 2010.04.10 20:52:16.
