data_PCOD8273087
_publ_section_title
;
Structure prediction by ZEFSAII (Michael W. Deem and Ramdas Pophale) SiO2 
 PCOD8273087
Probable space group: C M M M
;
_chemical_formula_sum "Si O2"
_cell_formula_units_Z 56
_cell_length_a 9.185192
_cell_length_b 29.142457
_cell_length_c 10.451742
_cell_angle_alpha 90.000000
_cell_angle_beta 90.000000
_cell_angle_gamma 90.000000
_cell_volume 2797.712504
_symmetry_space_group_name_H-M "C M M M"
_symmetry_group_IT_number 65
_symmetry_cell_setting 'orthorhombic'
loop_
_space_group_symop_operation_xyz
x,y,z
-x,-y,z
x,-y,-z
-x,y,-z
-x,-y,-z
x,y,-z
-x,y,z
x,-y,z
1/2+x,1/2+y,z
1/2-x,1/2-y,z
1/2+x,1/2-y,-z
1/2-x,1/2+y,-z
1/2-x,1/2-y,-z
1/2+x,1/2+y,-z
1/2-x,1/2+y,z
1/2+x,1/2-y,z
loop_
_atom_site_type_symbol
_atom_site_label
_atom_site_fract_x
_atom_site_fract_y
_atom_site_fract_z
Si Si1 0.662054 0.054164 0.000000
Si Si2 0.171048 0.052793 0.251680
Si Si3 0.330259 0.797303 0.144561
Si Si4 0.332959 0.868122 0.641862
O O1 0.750886 0.070243 0.877012
O O2 0.500000 0.076639 0.000000
O O3 0.648038 0.000000 0.000000
O O4 0.236057 0.085542 0.360675
O O5 0.000000 0.059704 0.236088
O O6 0.208010 0.000000 0.284748
O O7 0.500000 0.788002 0.164104
O O8 0.250000 0.750000 0.170866
O O9 0.273267 0.833436 0.249965
O O10 0.297646 0.815395 0.000000
O O11 0.318488 0.845989 0.500000
O O12 0.500000 0.881433 0.671033
#
# Coordination Sequence:
#
# PCOD8273087 Si02
#       4
#     8  16  16  16
#     4   9  17  31  53  79 106 141 186 233 283 335
#     4  10  21  36  54  80 115 152 193 241 289 337
#     4   9  19  37  60  85 112 143 182 232 288 344
#     4  10  22  38  56  82 115 152 195 239 284 339
#
# _framework density 20.016352000000001
#
# number of rings (size 3 to 8) (size 9 to 14) (size 15 to 20)
#    0.000    2.429    0.000    1.286    2.000    6.286 
#    0.000    2.857    0.000    0.000    0.000    0.000 
#    0.000    0.000    0.000    0.000    0.000    0.000 
#
# Total GULP energy -347168.565023 kJ/mol
# GULP energy per Si atom -12398.877322 kJ/mol
# Density = 1.997079 g / cm^3
# Si number density = 20.016352 Si / 1000 Ang^3
#
#
#
# Elastic Constant Matrix: (Units=GPa)
#
#
# Indices 1 2 3 4 5 6 
#
# 1 79.7465 47.4509 42.5820 0.0000 0.0000 0.0000
# 2 47.4509 100.2205 71.3556 0.0000 0.0000 0.0000
# 3 42.5820 71.3556 130.5675 0.0000 0.0000 0.0000
# 4 0.0000 0.0000 0.0000 27.1755 0.0000 0.0000
# 5 0.0000 0.0000 0.0000 0.0000 22.7653 0.0000
# 6 0.0000 0.0000 0.0000 0.0000 0.0000 33.5837
#
#
#
# Elastic Compliance Matrix: (Units=1/GPa)
#
#
# Indices 1 2 3 4 5 6 
#
# 1 0.017759 -0.007014 -0.001959 0.000000 0.000000 0.000000
# 2 -0.007014 0.019103 -0.008153 0.000000 0.000000 0.000000
# 3 -0.001959 -0.008153 0.012753 0.000000 0.000000 0.000000
# 4 0.000000 0.000000 0.000000 0.036798 0.000000 0.000000
# 5 0.000000 0.000000 0.000000 0.000000 0.043926 0.000000
# 6 0.000000 0.000000 0.000000 0.000000 0.000000 0.029776
#
#
# Mechanical properties :
#
#
# Convention : Reuss Voigt Hill
#
# Bulk Modulus (GPa) = 65.08185 70.36795 67.72490
# Shear Modulus (GPa) = 25.06420 26.64797 25.85608
#
# Velocity S-wave (km/s) = 3.54246 3.65267 3.59799
# Velocity P-wave (km/s) = 7.02261 7.28154 7.15325
#
# Compressibility (1/GPa) = 0.01536527
#
# Stress axis : x y z
#
# Youngs Moduli (GPa) = 56.30982 52.34704 78.41217
#
# Poissons Ratio (x) = 0.36714 0.15359
# Poissons Ratio (y) = 0.39494 0.63927
# Poissons Ratio (z) = 0.11030 0.42677
#
# Static dielectric constant tensor:
#      x y z
#    x 3.584490 0.000000 0.000000 
#    y 0.000000 3.463030 0.000000 
#    z 0.000000 0.000000 3.737380 
# 
# 
# High freq. dielectric constant tensor:
#      x y z
#    x 1.777600 0.000000 0.000000 
#    y 0.000000 1.767280 0.000000 
#    z 0.000000 0.000000 1.783930 
# 
# From -- ./inp_files/20450.got.cif
#   From: 2010.03.12/outbox.cif.g09.slc.cpg/sg65_11_cif.got.tgz:20450.got - 2010.04.10 20:52:16.
