data_PCOD8273154
_publ_section_title
;
Structure prediction by ZEFSAII (Michael W. Deem and Ramdas Pophale) SiO2 
 PCOD8273154
Probable space group: C M M M
;
_chemical_formula_sum "Si O2"
_cell_formula_units_Z 72
_cell_length_a 27.426616
_cell_length_b 9.681969
_cell_length_c 13.796234
_cell_angle_alpha 90.000000
_cell_angle_beta 90.000000
_cell_angle_gamma 90.000000
_cell_volume 3663.502276
_symmetry_space_group_name_H-M "C M M M"
_symmetry_group_IT_number 65
_symmetry_cell_setting 'orthorhombic'
loop_
_space_group_symop_operation_xyz
x,y,z
-x,-y,z
x,-y,-z
-x,y,-z
-x,-y,-z
x,y,-z
-x,y,z
x,-y,z
1/2+x,1/2+y,z
1/2-x,1/2-y,z
1/2+x,1/2-y,-z
1/2-x,1/2+y,-z
1/2-x,1/2-y,-z
1/2+x,1/2+y,-z
1/2-x,1/2+y,z
1/2+x,1/2-y,z
loop_
_atom_site_type_symbol
_atom_site_label
_atom_site_fract_x
_atom_site_fract_y
_atom_site_fract_z
Si Si1 0.442445 0.156618 0.000000
Si Si2 0.208551 0.000000 0.614073
Si Si3 0.354803 0.270351 0.711594
Si Si4 0.556027 0.341794 0.181522
Si Si5 0.797384 0.159004 0.890596
Si Si6 0.320760 0.000000 0.615606
O O1 0.426255 0.240274 0.904267
O O2 0.500000 0.146364 0.000000
O O3 0.420162 0.000000 0.000000
O O4 0.180007 0.867022 0.649080
O O5 0.209365 0.000000 0.500000
O O6 0.264506 0.000000 0.651544
O O7 0.411563 0.314948 0.721009
O O8 0.337859 0.273236 0.823127
O O9 0.350795 0.125232 0.660014
O O10 0.500000 0.314098 0.210526
O O11 0.563234 0.500000 0.146416
O O12 0.750000 0.250000 0.876831
O O13 0.786626 0.000000 0.860241
O O14 0.817054 0.166976 0.000000
O O15 0.324177 0.000000 0.500000
#
# Coordination Sequence:
#
# PCOD8273154 Si02
#       6
#     8   8  16  16  16   8
#     4   9  19  35  59  91 126 165 212 262 306 352
#     4  11  22  42  68  92 119 154 206 266 319 373
#     4  12  23  39  63  93 122 165 206 255 313 376
#     4  10  21  39  62  90 126 168 213 259 304 361
#     4  10  21  36  55  84 124 164 201 241 294 366
#     4  11  26  44  66  94 123 156 204 266 327 383
#
# _framework density 19.653324000000001
#
# number of rings (size 3 to 8) (size 9 to 14) (size 15 to 20)
#    0.000    1.444    2.222    3.000    4.667    3.111 
#    0.000    0.000    0.000    4.000    0.000    0.000 
#    0.000    0.000    0.000    0.000    0.000    0.000 
#
# Total GULP energy -446300.490264 kJ/mol
# GULP energy per Si atom -12397.235841 kJ/mol
# Density = 1.960859 g / cm^3
# Si number density = 19.653324 Si / 1000 Ang^3
#
#
#
# Elastic Constant Matrix: (Units=GPa)
#
#
# Indices 1 2 3 4 5 6 
#
# 1 98.3026 38.2544 45.4221 0.0000 0.0000 0.0000
# 2 38.2544 142.3868 45.7316 0.0000 0.0000 0.0000
# 3 45.4221 45.7316 76.3534 0.0000 0.0000 0.0000
# 4 0.0000 0.0000 0.0000 49.9009 0.0000 0.0000
# 5 0.0000 0.0000 0.0000 0.0000 31.7518 0.0000
# 6 0.0000 0.0000 0.0000 0.0000 0.0000 27.8325
#
#
#
# Elastic Compliance Matrix: (Units=1/GPa)
#
#
# Indices 1 2 3 4 5 6 
#
# 1 0.014241 -0.001368 -0.007652 0.000000 0.000000 0.000000
# 2 -0.001368 0.008827 -0.004473 0.000000 0.000000 0.000000
# 3 -0.007652 -0.004473 0.020329 0.000000 0.000000 0.000000
# 4 0.000000 0.000000 0.000000 0.020040 0.000000 0.000000
# 5 0.000000 0.000000 0.000000 0.000000 0.031494 0.000000
# 6 0.000000 0.000000 0.000000 0.000000 0.000000 0.035929
#
#
# Mechanical properties :
#
#
# Convention : Reuss Voigt Hill
#
# Bulk Modulus (GPa) = 60.94091 63.98432 62.46261
# Shear Modulus (GPa) = 30.61521 34.40602 32.51061
#
# Velocity S-wave (km/s) = 3.95113 4.18861 4.07160
# Velocity P-wave (km/s) = 7.20351 7.48464 7.34542
#
# Compressibility (1/GPa) = 0.01640934
#
# Stress axis : x y z
#
# Youngs Moduli (GPa) = 70.21972 113.28339 49.19201
#
# Poissons Ratio (x) = 0.15501 0.37643
# Poissons Ratio (y) = 0.09608 0.22004
# Poissons Ratio (z) = 0.53735 0.50673
#
# Static dielectric constant tensor:
#      x y z
#    x 3.745890 0.000000 0.000000 
#    y 0.000000 2.212380 0.000000 
#    z 0.000000 0.000000 3.571540 
# 
# 
# High freq. dielectric constant tensor:
#      x y z
#    x 1.763170 0.000000 0.000000 
#    y 0.000000 1.777590 0.000000 
#    z 0.000000 0.000000 1.754090 
# 
# From -- ./inp_files/46522.got.cif
#   From: 2010.03.12/outbox.cif.g09.slc.cpg/sg65_24_cif.got.tgz:46522.got - 2010.04.10 20:52:16.
