data_PCOD8273630
_publ_section_title
;
Structure prediction by ZEFSAII (Michael W. Deem and Ramdas Pophale) SiO2 
 PCOD8273630
Probable space group: C M M M
;
_chemical_formula_sum "Si O2"
_cell_formula_units_Z 88
_cell_length_a 23.396588
_cell_length_b 8.528687
_cell_length_c 22.521184
_cell_angle_alpha 90.000000
_cell_angle_beta 90.000000
_cell_angle_gamma 90.000000
_cell_volume 4493.926060
_symmetry_space_group_name_H-M "C M M M"
_symmetry_group_IT_number 65
_symmetry_cell_setting 'orthorhombic'
loop_
_space_group_symop_operation_xyz
x,y,z
-x,-y,z
x,-y,-z
-x,y,-z
-x,-y,-z
x,y,-z
-x,y,z
x,-y,z
1/2+x,1/2+y,z
1/2-x,1/2-y,z
1/2+x,1/2-y,-z
1/2-x,1/2+y,-z
1/2-x,1/2-y,-z
1/2+x,1/2+y,-z
1/2-x,1/2+y,z
1/2+x,1/2-y,z
loop_
_atom_site_type_symbol
_atom_site_label
_atom_site_fract_x
_atom_site_fract_y
_atom_site_fract_z
Si Si1 0.312764 0.181743 0.000000
Si Si2 0.188774 0.683806 0.431409
Si Si3 0.878246 0.183650 0.110704
Si Si4 0.500000 0.685571 0.281948
Si Si5 0.312879 0.184456 0.220518
Si Si6 0.000000 0.185364 0.850986
Si Si7 0.121321 0.815285 0.671608
O O1 0.250000 0.250000 0.000000
O O2 0.346842 0.228019 0.941639
O O3 0.304081 0.000000 0.000000
O O4 0.177378 0.723018 0.500000
O O5 0.187400 0.500000 0.418497
O O6 0.250000 0.750000 0.411060
O O7 0.138676 0.770519 0.395257
O O8 0.852415 0.225810 0.174047
O O9 0.944394 0.238445 0.112107
O O10 0.872341 0.000000 0.099016
O O11 0.500000 0.500000 0.277931
O O12 0.500000 0.758852 0.215480
O O13 0.556408 0.742269 0.317039
O O14 0.250000 0.250000 0.212747
O O15 0.335754 0.221775 0.285809
O O16 0.313529 0.000000 0.208093
O O17 0.000000 0.000000 0.843008
O O18 0.127882 0.000000 0.682854
#
# Coordination Sequence:
#
# PCOD8273630 Si02
#       7
#     8  16  16   8  16   8  16
#     4  12  26  45  64  89 123 160 200 246 299 358
#     4  10  21  38  59  85 119 157 198 245 299 356
#     4  11  22  41  66  91 119 157 200 244 292 351
#     4   9  18  36  60  88 118 156 196 241 292 349
#     4  12  24  38  57  86 120 155 195 244 300 355
#     4   9  18  37  65  91 120 155 198 240 292 353
#     4  11  21  37  61  87 117 154 199 246 293 350
#
# _framework density 19.581986000000001
#
# number of rings (size 3 to 8) (size 9 to 14) (size 15 to 20)
#    0.000    1.273    1.818    5.182    0.000    1.455 
#    0.000    6.818    0.000    2.727    0.000    0.000 
#    0.000    0.000    0.000    0.000    0.000    0.000 
#
# Total GULP energy -545783.167448 kJ/mol
# GULP energy per Si atom -12404.162897 kJ/mol
# Density = 1.953742 g / cm^3
# Si number density = 19.581986 Si / 1000 Ang^3
#
#
#
# Elastic Constant Matrix: (Units=GPa)
#
#
# Indices 1 2 3 4 5 6 
#
# 1 163.0873 51.4717 59.6625 0.0000 0.0000 0.0000
# 2 51.4717 77.6612 27.7890 0.0000 0.0000 0.0000
# 3 59.6625 27.7890 101.5692 0.0000 0.0000 0.0000
# 4 0.0000 0.0000 0.0000 37.0371 0.0000 0.0000
# 5 0.0000 0.0000 0.0000 0.0000 112.6116 0.0000
# 6 0.0000 0.0000 0.0000 0.0000 0.0000 22.6175
#
#
#
# Elastic Compliance Matrix: (Units=1/GPa)
#
#
# Indices 1 2 3 4 5 6 
#
# 1 0.009057 -0.004544 -0.004077 0.000000 0.000000 0.000000
# 2 -0.004544 0.016554 -0.001860 0.000000 0.000000 0.000000
# 3 -0.004077 -0.001860 0.012749 0.000000 0.000000 0.000000
# 4 0.000000 0.000000 0.000000 0.027000 0.000000 0.000000
# 5 0.000000 0.000000 0.000000 0.000000 0.008880 0.000000
# 6 0.000000 0.000000 0.000000 0.000000 0.000000 0.044214
#
#
# Mechanical properties :
#
#
# Convention : Reuss Voigt Hill
#
# Bulk Modulus (GPa) = 57.47696 68.90710 63.19203
# Shear Modulus (GPa) = 34.43163 48.01287 41.22225
#
# Velocity S-wave (km/s) = 4.19780 4.95703 4.59313
# Velocity P-wave (km/s) = 7.27399 8.24792 7.77622
#
# Compressibility (1/GPa) = 0.01739828
#
# Stress axis : x y z
#
# Youngs Moduli (GPa) = 110.40722 60.40976 78.43588
#
# Poissons Ratio (x) = 0.27451 0.31979
# Poissons Ratio (y) = 0.50170 0.14587
# Poissons Ratio (z) = 0.45014 0.11235
#
# Static dielectric constant tensor:
#      x y z
#    x 3.351740 0.000000 0.000000 
#    y 0.000000 3.512320 0.000000 
#    z 0.000000 0.000000 3.912380 
# 
# 
# High freq. dielectric constant tensor:
#      x y z
#    x 1.774260 0.000000 0.000000 
#    y 0.000000 1.759790 0.000000 
#    z 0.000000 0.000000 1.764970 
# 
# From -- ./inp_files/71074.got.cif
#   From: 2010.03.12/outbox.cif.g09.slc.cpg/sg65_36_cif.got.tgz:71074.got - 2010.04.10 20:52:16.
