data_PCOD8273897
_publ_section_title
;
Structure prediction by ZEFSAII (Michael W. Deem and Ramdas Pophale) SiO2 
 PCOD8273897
Probable space group: C M M M
;
_chemical_formula_sum "Si O2"
_cell_formula_units_Z 72
_cell_length_a 8.595303
_cell_length_b 23.407124
_cell_length_c 21.043722
_cell_angle_alpha 90.000000
_cell_angle_beta 90.000000
_cell_angle_gamma 90.000000
_cell_volume 4233.814273
_symmetry_space_group_name_H-M "C M M M"
_symmetry_group_IT_number 65
_symmetry_cell_setting 'orthorhombic'
loop_
_space_group_symop_operation_xyz
x,y,z
-x,-y,z
x,-y,-z
-x,y,-z
-x,-y,-z
x,y,-z
-x,y,z
x,-y,z
1/2+x,1/2+y,z
1/2-x,1/2-y,z
1/2+x,1/2-y,-z
1/2-x,1/2+y,-z
1/2-x,1/2-y,-z
1/2+x,1/2+y,-z
1/2-x,1/2+y,z
1/2+x,1/2-y,z
loop_
_atom_site_type_symbol
_atom_site_label
_atom_site_fract_x
_atom_site_fract_y
_atom_site_fract_z
Si Si1 0.316044 0.186805 0.864390
Si Si2 0.681514 0.812279 0.000000
Si Si3 0.315764 0.500000 0.572781
Si Si4 0.815416 0.616402 0.619955
Si Si5 0.816514 0.813855 0.735504
Si Si6 0.316433 0.187546 0.500000
O O1 0.500000 0.187629 0.851338
O O2 0.250000 0.250000 0.869455
O O3 0.274799 0.155938 0.932851
O O4 0.231004 0.158441 0.803885
O O5 0.750000 0.750000 0.000000
O O6 0.500000 0.802210 0.000000
O O7 0.500000 0.500000 0.572911
O O8 0.252196 0.500000 0.500000
O O9 0.253700 0.446156 0.611498
O O10 0.753956 0.643733 0.684272
O O11 0.754472 0.654947 0.561882
O O12 0.000000 0.612657 0.621529
O O13 0.750000 0.750000 0.727066
O O14 0.000000 0.811019 0.728083
O O15 0.500000 0.190849 0.500000
O O16 0.250000 0.250000 0.500000
#
# Coordination Sequence:
#
# PCOD8273897 Si02
#       6
#    16   8   8  16  16   8
#     4   9  15  25  40  61  90 127 165 203 243 289
#     4   8  14  22  36  58  86 121 164 203 238 282
#     4  11  23  39  59  81 101 126 159 202 251 299
#     4  11  22  38  56  75  98 130 166 206 249 297
#     4  11  21  33  48  71 101 135 170 207 251 302
#     4  10  22  35  52  75  99 126 160 198 241 290
#
# _framework density 17.005942000000001
#
# number of rings (size 3 to 8) (size 9 to 14) (size 15 to 20)
#    0.000    1.889    1.111    5.667    0.000    4.889 
#    0.000    0.000    0.000    0.000    0.000    0.000 
#    0.000    0.889    0.000    9.556    0.000    4.889 
#
# Total GULP energy -446063.057357 kJ/mol
# GULP energy per Si atom -12390.640482 kJ/mol
# Density = 1.696724 g / cm^3
# Si number density = 17.005942 Si / 1000 Ang^3
#
#
#
# Elastic Constant Matrix: (Units=GPa)
#
#
# Indices 1 2 3 4 5 6 
#
# 1 63.2639 25.7045 30.4218 0.0000 0.0000 0.0000
# 2 25.7045 90.4340 59.2324 0.0000 0.0000 0.0000
# 3 30.4218 59.2324 173.1044 0.0000 0.0000 0.0000
# 4 0.0000 0.0000 0.0000 0.4693 0.0000 0.0000
# 5 0.0000 0.0000 0.0000 0.0000 15.1479 0.0000
# 6 0.0000 0.0000 0.0000 0.0000 0.0000 23.6094
#
#
#
# Elastic Compliance Matrix: (Units=1/GPa)
#
#
# Indices 1 2 3 4 5 6 
#
# 1 0.018321 -0.003994 -0.001853 0.000000 0.000000 0.000000
# 2 -0.003994 0.015122 -0.004473 0.000000 0.000000 0.000000
# 3 -0.001853 -0.004473 0.007633 0.000000 0.000000 0.000000
# 4 0.000000 0.000000 0.000000 2.130955 0.000000 0.000000
# 5 0.000000 0.000000 0.000000 0.000000 0.066016 0.000000
# 6 0.000000 0.000000 0.000000 0.000000 0.000000 0.042356
#
#
# Mechanical properties :
#
#
# Convention : Reuss Voigt Hill
#
# Bulk Modulus (GPa) = 48.93065 61.94662 55.43864
# Shear Modulus (GPa) = 2.16652 21.94158 12.05405
#
# Velocity S-wave (km/s) = 1.12993 3.59587 2.66524
# Velocity P-wave (km/s) = 5.52607 7.33116 6.49166
#
# Compressibility (1/GPa) = 0.02043709
#
# Stress axis : x y z
#
# Youngs Moduli (GPa) = 54.58352 66.12697 131.00996
#
# Poissons Ratio (x) = 0.26408 0.24279
# Poissons Ratio (y) = 0.21798 0.58597
# Poissons Ratio (z) = 0.10115 0.29577
#
# Static dielectric constant tensor:
#      x y z
#    x 4.145360 0.000000 0.000000 
#    y 0.000000 2.736930 0.000000 
#    z 0.000000 0.000000 4.188990 
# 
# 
# High freq. dielectric constant tensor:
#      x y z
#    x 1.671240 0.000000 0.000000 
#    y 0.000000 1.595880 0.000000 
#    z 0.000000 0.000000 1.684010 
# 
# From -- ./inp_files/59423.got.cif
#   From: 2010.03.12/outbox.cif.g09.slc.cpg/sg65_30_cif.got.tgz:59423.got - 2010.04.10 20:52:16.
