data_PCOD8273348
_publ_section_title
;
Structure prediction by ZEFSAII (Michael W. Deem and Ramdas Pophale) SiO2 
 PCOD8273348
Probable space group: C M M M
;
_chemical_formula_sum "Si O2"
_cell_formula_units_Z 88
_cell_length_a 20.271553
_cell_length_b 9.156181
_cell_length_c 25.049631
_cell_angle_alpha 90.000000
_cell_angle_beta 90.000000
_cell_angle_gamma 90.000000
_cell_volume 4649.462221
_symmetry_space_group_name_H-M "C M M M"
_symmetry_group_IT_number 65
_symmetry_cell_setting 'orthorhombic'
loop_
_space_group_symop_operation_xyz
x,y,z
-x,-y,z
x,-y,-z
-x,y,-z
-x,-y,-z
x,y,-z
-x,y,z
x,-y,z
1/2+x,1/2+y,z
1/2-x,1/2-y,z
1/2+x,1/2-y,-z
1/2-x,1/2+y,-z
1/2-x,1/2-y,-z
1/2+x,1/2+y,-z
1/2-x,1/2+y,z
1/2+x,1/2-y,z
loop_
_atom_site_type_symbol
_atom_site_label
_atom_site_fract_x
_atom_site_fract_y
_atom_site_fract_z
Si Si1 0.078174 0.163053 0.159270
Si Si2 0.921540 0.335940 0.058925
Si Si3 0.422935 0.171513 0.265546
Si Si4 0.684918 0.331075 0.667759
Si Si5 0.500000 0.160584 0.436845
Si Si6 0.873613 0.166042 0.559396
O O1 0.107944 0.230383 0.104557
O O2 0.098927 0.265968 0.208191
O O3 0.000000 0.155824 0.155095
O O4 0.107167 0.000000 0.167262
O O5 0.895167 0.500000 0.068667
O O6 0.000000 0.337069 0.062443
O O7 0.899360 0.280584 0.000000
O O8 0.500000 0.202763 0.277321
O O9 0.380341 0.254617 0.309708
O O10 0.407557 0.000000 0.266563
O O11 0.686745 0.500000 0.685625
O O12 0.750000 0.250000 0.689304
O O13 0.684140 0.317219 0.603002
O O14 0.500000 0.150966 0.500000
O O15 0.434677 0.241951 0.417937
O O16 0.500000 0.000000 0.410394
O O17 0.850014 0.218270 0.500000
O O18 0.898055 0.000000 0.555988
#
# Coordination Sequence:
#
# PCOD8273348 Si02
#       6
#    16  16  16  16   8  16
#     4   9  16  26  42  66  96 130 171 218 264 313
#     4   8  13  21  34  55  88 131 173 211 256 311
#     4  10  21  37  57  79 104 138 179 224 270 319
#     4  11  24  40  58  80 108 140 175 218 266 319
#     4   9  17  29  49  79 109 135 167 209 250 293
#     4   9  19  36  56  78 106 140 173 207 256 316
#
# _framework density 18.926919999999999
#
# number of rings (size 3 to 8) (size 9 to 14) (size 15 to 20)
#    0.000    2.636    0.000    2.455    1.273    6.545 
#    0.000    1.818    0.000    0.000    0.000    0.000 
#    0.000    0.727    0.000    2.727    0.000    6.364 
#
# Total GULP energy -545378.198701 kJ/mol
# GULP energy per Si atom -12394.959061 kJ/mol
# Density = 1.888384 g / cm^3
# Si number density = 18.926920 Si / 1000 Ang^3
#
#
#
# Elastic Constant Matrix: (Units=GPa)
#
#
# Indices 1 2 3 4 5 6 
#
# 1 50.9462 41.5007 29.5648 0.0000 0.0000 0.0000
# 2 41.5007 135.4006 56.4114 0.0000 0.0000 0.0000
# 3 29.5648 56.4114 110.1922 0.0000 0.0000 0.0000
# 4 0.0000 0.0000 0.0000 31.0049 0.0000 0.0000
# 5 0.0000 0.0000 0.0000 0.0000 6.0408 0.0000
# 6 0.0000 0.0000 0.0000 0.0000 0.0000 19.9523
#
#
#
# Elastic Compliance Matrix: (Units=1/GPa)
#
#
# Indices 1 2 3 4 5 6 
#
# 1 0.027406 -0.006783 -0.003880 0.000000 0.000000 0.000000
# 2 -0.006783 0.011067 -0.003845 0.000000 0.000000 0.000000
# 3 -0.003880 -0.003845 0.012085 0.000000 0.000000 0.000000
# 4 0.000000 0.000000 0.000000 0.032253 0.000000 0.000000
# 5 0.000000 0.000000 0.000000 0.000000 0.165540 0.000000
# 6 0.000000 0.000000 0.000000 0.000000 0.000000 0.050119
#
#
# Mechanical properties :
#
#
# Convention : Reuss Voigt Hill
#
# Bulk Modulus (GPa) = 46.42722 61.27700 53.85211
# Shear Modulus (GPa) = 14.94014 22.67042 18.80528
#
# Velocity S-wave (km/s) = 2.81260 3.46466 3.15552
# Velocity P-wave (km/s) = 5.92711 6.96068 6.46458
#
# Compressibility (1/GPa) = 0.02153909
#
# Stress axis : x y z
#
# Youngs Moduli (GPa) = 36.48815 90.36087 82.74832
#
# Poissons Ratio (x) = 0.61295 0.32110
# Poissons Ratio (y) = 0.24751 0.31821
# Poissons Ratio (z) = 0.14159 0.34748
#
# Static dielectric constant tensor:
#      x y z
#    x 2.872380 0.000000 0.000000 
#    y 0.000000 3.708780 0.000000 
#    z 0.000000 0.000000 3.656540 
# 
# 
# High freq. dielectric constant tensor:
#      x y z
#    x 1.669810 0.000000 0.000000 
#    y 0.000000 1.746080 0.000000 
#    z 0.000000 0.000000 1.742940 
# 
# From -- ./inp_files/70996.got.cif
#   From: 2010.03.12/outbox.cif.g09.slc.cpg/sg65_36_cif.got.tgz:70996.got - 2010.04.10 20:52:16.
