data_PCOD8273962
_publ_section_title
;
Structure prediction by ZEFSAII (Michael W. Deem and Ramdas Pophale) SiO2 
 PCOD8273962
Probable space group: C M M M
;
_chemical_formula_sum "Si O2"
_cell_formula_units_Z 56
_cell_length_a 29.149006
_cell_length_b 9.234292
_cell_length_c 10.327658
_cell_angle_alpha 90.000000
_cell_angle_beta 90.000000
_cell_angle_gamma 90.000000
_cell_volume 2779.900175
_symmetry_space_group_name_H-M "C M M M"
_symmetry_group_IT_number 65
_symmetry_cell_setting 'orthorhombic'
loop_
_space_group_symop_operation_xyz
x,y,z
-x,-y,z
x,-y,-z
-x,y,-z
-x,-y,-z
x,y,-z
-x,y,z
x,-y,z
1/2+x,1/2+y,z
1/2-x,1/2-y,z
1/2+x,1/2-y,-z
1/2-x,1/2+y,-z
1/2-x,1/2-y,-z
1/2+x,1/2+y,-z
1/2-x,1/2+y,z
1/2+x,1/2-y,z
loop_
_atom_site_type_symbol
_atom_site_label
_atom_site_fract_x
_atom_site_fract_y
_atom_site_fract_z
Si Si1 0.144613 0.834060 0.144185
Si Si2 0.551022 0.335154 0.746222
Si Si3 0.297420 0.830677 0.352519
Si Si4 0.554287 0.840362 0.500000
O O1 0.089050 0.816766 0.142288
O O2 0.165948 0.729171 0.250809
O O3 0.157947 0.000000 0.176840
O O4 0.161888 0.792392 0.000000
O O5 0.500000 0.284435 0.793566
O O6 0.548003 0.500000 0.698368
O O7 0.570462 0.242471 0.627174
O O8 0.314604 0.802477 0.500000
O O9 0.250000 0.750000 0.326830
O O10 0.289926 0.000000 0.327083
O O11 0.500000 0.850429 0.500000
O O12 0.576893 0.000000 0.500000
#
# Coordination Sequence:
#
# PCOD8273962 Si02
#       4
#    16  16  16   8
#     4  10  22  38  57  85 119 156 196 237 286 341
#     4   9  18  33  53  78 111 152 196 239 283 332
#     4  10  22  41  65  91 116 146 187 235 289 347
#     4   9  17  29  47  73 104 139 184 237 287 333
#
# _framework density 20.144607000000001
#
# number of rings (size 3 to 8) (size 9 to 14) (size 15 to 20)
#    0.000    2.429    0.000    1.286    2.000    6.286 
#    0.000    2.857    0.000    0.000    0.000    6.000 
#    0.000    0.000    0.000    0.000    0.000    0.000 
#
# Total GULP energy -347066.506333 kJ/mol
# GULP energy per Si atom -12395.232369 kJ/mol
# Density = 2.009876 g / cm^3
# Si number density = 20.144607 Si / 1000 Ang^3
#
#
#
# Elastic Constant Matrix: (Units=GPa)
#
#
# Indices 1 2 3 4 5 6 
#
# 1 89.8410 46.1599 55.8420 0.0000 0.0000 0.0000
# 2 46.1599 108.5435 57.8391 0.0000 0.0000 0.0000
# 3 55.8420 57.8391 108.6643 0.0000 0.0000 0.0000
# 4 0.0000 0.0000 0.0000 23.7475 0.0000 0.0000
# 5 0.0000 0.0000 0.0000 0.0000 23.2522 0.0000
# 6 0.0000 0.0000 0.0000 0.0000 0.0000 26.8188
#
#
#
# Elastic Compliance Matrix: (Units=1/GPa)
#
#
# Indices 1 2 3 4 5 6 
#
# 1 0.017340 -0.003665 -0.006960 0.000000 0.000000 0.000000
# 2 -0.003665 0.013635 -0.005374 0.000000 0.000000 0.000000
# 3 -0.006960 -0.005374 0.015640 0.000000 0.000000 0.000000
# 4 0.000000 0.000000 0.000000 0.042110 0.000000 0.000000
# 5 0.000000 0.000000 0.000000 0.000000 0.043007 0.000000
# 6 0.000000 0.000000 0.000000 0.000000 0.000000 0.037287
#
#
# Mechanical properties :
#
#
# Convention : Reuss Voigt Hill
#
# Bulk Modulus (GPa) = 68.41676 69.63677 69.02677
# Shear Modulus (GPa) = 24.28479 24.57755 24.43117
#
# Velocity S-wave (km/s) = 3.47583 3.49672 3.48629
# Velocity P-wave (km/s) = 7.08132 7.13766 7.10955
#
# Compressibility (1/GPa) = 0.01461630
#
# Stress axis : x y z
#
# Youngs Moduli (GPa) = 57.66954 73.33880 63.93919
#
# Poissons Ratio (x) = 0.26882 0.44502
# Poissons Ratio (y) = 0.21138 0.34361
# Poissons Ratio (z) = 0.40138 0.39413
#
# Static dielectric constant tensor:
#      x y z
#    x 3.591490 0.000000 0.000000 
#    y 0.000000 3.768560 0.000000 
#    z 0.000000 0.000000 3.527050 
# 
# 
# High freq. dielectric constant tensor:
#      x y z
#    x 1.785110 0.000000 0.000000 
#    y 0.000000 1.783320 0.000000 
#    z 0.000000 0.000000 1.773320 
# 
# From -- ./inp_files/33114.got.cif
#   From: 2010.03.12/outbox.cif.g09.slc.cpg/sg65_17_cif.got.tgz:33114.got - 2010.04.10 20:52:16.
