data_PCOD8273963
_publ_section_title
;
Structure prediction by ZEFSAII (Michael W. Deem and Ramdas Pophale) SiO2 
 PCOD8273963
Probable space group: C M M M
;
_chemical_formula_sum "Si O2"
_cell_formula_units_Z 88
_cell_length_a 22.769762
_cell_length_b 19.456037
_cell_length_c 10.223305
_cell_angle_alpha 90.000000
_cell_angle_beta 90.000000
_cell_angle_gamma 90.000000
_cell_volume 4529.019518
_symmetry_space_group_name_H-M "C M M M"
_symmetry_group_IT_number 65
_symmetry_cell_setting 'orthorhombic'
loop_
_space_group_symop_operation_xyz
x,y,z
-x,-y,z
x,-y,-z
-x,y,-z
-x,-y,-z
x,y,-z
-x,y,z
x,-y,z
1/2+x,1/2+y,z
1/2-x,1/2-y,z
1/2+x,1/2-y,-z
1/2-x,1/2+y,-z
1/2-x,1/2-y,-z
1/2+x,1/2+y,-z
1/2-x,1/2+y,z
1/2+x,1/2-y,z
loop_
_atom_site_type_symbol
_atom_site_label
_atom_site_fract_x
_atom_site_fract_y
_atom_site_fract_z
Si Si1 0.159439 0.296993 0.500000
Si Si2 0.099026 0.686522 0.771928
Si Si3 0.658267 0.578794 0.255909
Si Si4 0.935392 0.827740 0.147203
Si Si5 0.231971 0.076609 0.000000
Si Si6 0.191674 0.299838 0.000000
Si Si7 0.500000 0.079969 0.845661
Si Si8 0.289755 0.351102 0.500000
O O1 0.123550 0.321495 0.373776
O O2 0.221822 0.333537 0.500000
O O3 0.168380 0.215210 0.500000
O O4 0.058037 0.752901 0.786953
O O5 0.059875 0.618669 0.800241
O O6 0.153099 0.705782 0.868967
O O7 0.640141 0.500000 0.273976
O O8 0.599726 0.623409 0.245322
O O9 0.693714 0.592716 0.125467
O O10 0.698187 0.602829 0.374483
O O11 0.000000 0.859579 0.136685
O O12 0.907669 0.823534 0.000000
O O13 0.289316 0.121730 0.000000
O O14 0.256308 0.000000 0.000000
O O15 0.250000 0.250000 0.000000
O O16 0.500000 0.000000 0.795426
O O17 0.500000 0.081253 0.000000
#
# Coordination Sequence:
#
# PCOD8273963 Si02
#       8
#     8  16  16  16   8   8   8   8
#     4  11  26  39  67  96 130 167 226 263 331 387
#     4  12  23  43  65  99 134 169 217 278 324 391
#     4  11  22  40  61  88 128 171 212 262 324 382
#     4  11  21  37  64  94 127 163 214 269 325 378
#     4  10  22  38  57  86 122 161 210 260 314 380
#     4  12  24  35  65  95 130 167 220 273 331 387
#     4  11  24  47  75 103 134 175 220 274 344 404
#     4  11  23  42  61  92 129 177 210 268 319 401
#
# _framework density 19.430254000000001
#
# number of rings (size 3 to 8) (size 9 to 14) (size 15 to 20)
#    0.000    0.818    5.455    2.455    2.545    1.455 
#    0.000    5.000    0.000    1.091    0.000    0.000 
#    0.000    0.000    0.000    0.000    0.000    0.000 
#
# Total GULP energy -545483.927750 kJ/mol
# GULP energy per Si atom -12397.361994 kJ/mol
# Density = 1.938603 g / cm^3
# Si number density = 19.430254 Si / 1000 Ang^3
#
#
#
# Elastic Constant Matrix: (Units=GPa)
#
#
# Indices 1 2 3 4 5 6 
#
# 1 92.4585 49.9834 46.8135 0.0000 0.0000 0.0000
# 2 49.9834 114.1100 46.3079 0.0000 0.0000 0.0000
# 3 46.8135 46.3079 143.3931 0.0000 0.0000 0.0000
# 4 0.0000 0.0000 0.0000 38.6542 0.0000 0.0000
# 5 0.0000 0.0000 0.0000 0.0000 44.4590 0.0000
# 6 0.0000 0.0000 0.0000 0.0000 0.0000 32.1413
#
#
#
# Elastic Compliance Matrix: (Units=1/GPa)
#
#
# Indices 1 2 3 4 5 6 
#
# 1 0.015405 -0.005417 -0.003280 0.000000 0.000000 0.000000
# 2 -0.005417 0.011990 -0.002104 0.000000 0.000000 0.000000
# 3 -0.003280 -0.002104 0.008724 0.000000 0.000000 0.000000
# 4 0.000000 0.000000 0.000000 0.025870 0.000000 0.000000
# 5 0.000000 0.000000 0.000000 0.000000 0.022493 0.000000
# 6 0.000000 0.000000 0.000000 0.000000 0.000000 0.031113
#
#
# Mechanical properties :
#
#
# Convention : Reuss Voigt Hill
#
# Bulk Modulus (GPa) = 68.87972 70.68568 69.78270
# Shear Modulus (GPa) = 35.20292 36.84135 36.02214
#
# Velocity S-wave (km/s) = 4.26109 4.35913 4.31039
# Velocity P-wave (km/s) = 7.72890 7.86092 7.79519
#
# Compressibility (1/GPa) = 0.01451806
#
# Stress axis : x y z
#
# Youngs Moduli (GPa) = 64.91583 83.40410 114.62660
#
# Poissons Ratio (x) = 0.45177 0.37596
# Poissons Ratio (y) = 0.35162 0.24114
# Poissons Ratio (z) = 0.21291 0.17545
#
# Static dielectric constant tensor:
#      x y z
#    x 3.537640 0.000000 0.000000 
#    y 0.000000 3.687020 0.000000 
#    z 0.000000 0.000000 3.605900 
# 
# 
# High freq. dielectric constant tensor:
#      x y z
#    x 1.759660 0.000000 0.000000 
#    y 0.000000 1.759980 0.000000 
#    z 0.000000 0.000000 1.758770 
# 
# From -- ./inp_files/14102.got.cif
#   From: 2010.03.12/outbox.cif.g09.slc.cpg/sg65_8_cif.got.tgz:14102.got - 2010.04.10 20:52:16.
