data_PCOD8273880
_publ_section_title
;
Structure prediction by ZEFSAII (Michael W. Deem and Ramdas Pophale) SiO2 
 PCOD8273880
Probable space group: C M M M
;
_chemical_formula_sum "Si O2"
_cell_formula_units_Z 48
_cell_length_a 9.110790
_cell_length_b 33.918702
_cell_length_c 7.617301
_cell_angle_alpha 90.000000
_cell_angle_beta 90.000000
_cell_angle_gamma 90.000000
_cell_volume 2353.945361
_symmetry_space_group_name_H-M "C M M M"
_symmetry_group_IT_number 65
_symmetry_cell_setting 'orthorhombic'
loop_
_space_group_symop_operation_xyz
x,y,z
-x,-y,z
x,-y,-z
-x,y,-z
-x,-y,-z
x,y,-z
-x,y,z
x,-y,z
1/2+x,1/2+y,z
1/2-x,1/2-y,z
1/2+x,1/2-y,-z
1/2-x,1/2+y,-z
1/2-x,1/2-y,-z
1/2+x,1/2+y,-z
1/2-x,1/2+y,z
1/2+x,1/2-y,z
loop_
_atom_site_type_symbol
_atom_site_label
_atom_site_fract_x
_atom_site_fract_y
_atom_site_fract_z
Si Si1 0.668829 0.424183 0.702237
Si Si2 0.674554 0.207935 0.500000
Si Si3 0.334203 0.000000 0.291062
Si Si4 0.831297 0.162068 0.197466
O O1 0.710053 0.416957 0.500000
O O2 0.500000 0.435545 0.725043
O O3 0.759349 0.460493 0.784387
O O4 0.708535 0.384200 0.803889
O O5 0.500000 0.212584 0.500000
O O6 0.750000 0.250000 0.500000
O O7 0.723053 0.185109 0.325383
O O8 0.500000 0.000000 0.226051
O O9 0.317858 0.000000 0.500000
O O10 0.000000 0.167804 0.260533
O O11 0.809896 0.178328 0.000000
#
# Coordination Sequence:
#
# PCOD8273880 Si02
#       4
#    16   8   8  16
#     4   9  16  30  53  80 113 154 199 245 296 352
#     4  12  26  44  68  93 124 159 196 242 297 362
#     4   9  17  27  44  75 112 153 203 250 293 342
#     4  10  21  40  66  94 124 158 200 250 302 359
#
# _framework density 20.391296000000001
#
# number of rings (size 3 to 8) (size 9 to 14) (size 15 to 20)
#    0.000    2.167    1.667    2.000    0.000    4.667 
#    0.000    0.833    0.000    5.000    0.000    0.000 
#    0.000    0.000    0.000    0.000    0.000    0.000 
#
# Total GULP energy -297620.770776 kJ/mol
# GULP energy per Si atom -12400.865449 kJ/mol
# Density = 2.034488 g / cm^3
# Si number density = 20.391296 Si / 1000 Ang^3
#
#
#
# Elastic Constant Matrix: (Units=GPa)
#
#
# Indices 1 2 3 4 5 6 
#
# 1 136.0134 78.0841 46.7605 0.0000 0.0000 0.0000
# 2 78.0841 122.9600 41.4275 0.0000 0.0000 0.0000
# 3 46.7605 41.4275 85.4647 0.0000 0.0000 0.0000
# 4 0.0000 0.0000 0.0000 -4.3329 0.0000 0.0000
# 5 0.0000 0.0000 0.0000 0.0000 14.3577 0.0000
# 6 0.0000 0.0000 0.0000 0.0000 0.0000 35.9969
#
#
#
# Elastic Compliance Matrix: (Units=1/GPa)
#
#
# Indices 1 2 3 4 5 6 
#
# 1 0.012410 -0.006685 -0.003550 0.000000 0.000000 0.000000
# 2 -0.006685 0.013321 -0.002800 0.000000 0.000000 0.000000
# 3 -0.003550 -0.002800 0.015000 0.000000 0.000000 0.000000
# 4 0.000000 0.000000 0.000000 -0.230790 0.000000 0.000000
# 5 0.000000 0.000000 0.000000 0.000000 0.069649 0.000000
# 6 0.000000 0.000000 0.000000 0.000000 0.000000 0.027780
#
#
# Mechanical properties :
#
#
# Convention : Reuss Voigt Hill
#
# Bulk Modulus (GPa) = 68.19953 75.22026 71.70990
# Shear Modulus (GPa) = -81.07288 21.08206 -29.99541
#
# Velocity S-wave (km/s) = -6.31228 3.21888 -3.83951
# Velocity P-wave (km/s) = 4.42815 7.12625 3.94810
#
# Compressibility (1/GPa) = 0.01466286
#
# Stress axis : x y z
#
# Youngs Moduli (GPa) = 80.57730 75.06795 66.66706
#
# Poissons Ratio (x) = 0.50184 0.23664
# Poissons Ratio (y) = 0.53867 0.18664
# Poissons Ratio (z) = 0.28602 0.21016
#
# Static dielectric constant tensor:
#      x y z
#    x 3.609610 0.000000 0.000000 
#    y 0.000000 3.802760 0.000000 
#    z 0.000000 0.000000 3.884870 
# 
# 
# High freq. dielectric constant tensor:
#      x y z
#    x 1.783660 0.000000 0.000000 
#    y 0.000000 1.800420 0.000000 
#    z 0.000000 0.000000 1.786550 
# 
# From -- ./inp_files/3063.got.cif
#   From: 2010.03.12/outbox.cif.g09.slc.cpg/sg65_2_cif.got.tgz:3063.got - 2010.04.10 20:52:16.
