data_PCOD8273957
_publ_section_title
;
Structure prediction by ZEFSAII (Michael W. Deem and Ramdas Pophale) SiO2 
 PCOD8273957
Probable space group: C M M M
;
_chemical_formula_sum "Si O2"
_cell_formula_units_Z 72
_cell_length_a 9.736315
_cell_length_b 28.587712
_cell_length_c 13.562379
_cell_angle_alpha 90.000000
_cell_angle_beta 90.000000
_cell_angle_gamma 90.000000
_cell_volume 3774.938590
_symmetry_space_group_name_H-M "C M M M"
_symmetry_group_IT_number 65
_symmetry_cell_setting 'orthorhombic'
loop_
_space_group_symop_operation_xyz
x,y,z
-x,-y,z
x,-y,-z
-x,y,-z
-x,-y,-z
x,y,-z
-x,y,z
x,-y,z
1/2+x,1/2+y,z
1/2-x,1/2-y,z
1/2+x,1/2-y,-z
1/2-x,1/2+y,-z
1/2-x,1/2-y,-z
1/2+x,1/2+y,-z
1/2-x,1/2+y,z
1/2+x,1/2-y,z
loop_
_atom_site_type_symbol
_atom_site_label
_atom_site_fract_x
_atom_site_fract_y
_atom_site_fract_z
Si Si1 0.000000 0.947850 0.885318
Si Si2 0.250299 0.388596 0.809331
Si Si3 0.153665 0.500000 0.614692
Si Si4 0.654168 0.790817 0.115782
Si Si5 0.000000 0.555693 0.884866
Si Si6 0.161318 0.912165 0.388454
O O1 0.127899 0.917018 0.856691
O O2 0.000000 0.000000 0.835554
O O3 0.000000 0.956093 0.000000
O O4 0.225137 0.340065 0.863545
O O5 0.288355 0.375480 0.694693
O O6 0.125166 0.423605 0.823913
O O7 0.126529 0.500000 0.500000
O O8 0.246947 0.456182 0.642932
O O9 0.000000 0.500000 0.665722
O O10 0.500000 0.788757 0.162060
O O11 0.750000 0.750000 0.161707
O O12 0.642305 0.783569 0.000000
O O13 0.000000 0.500000 0.879207
O O14 0.000000 0.572032 0.000000
O O15 0.192757 0.894442 0.500000
O O16 0.000000 0.924404 0.378126
#
# Coordination Sequence:
#
# PCOD8273957 Si02
#       6
#     8  16   8  16   8  16
#     4  11  24  38  54  84 124 163 208 248 286 356
#     4  12  23  38  62  87 117 163 206 247 299 360
#     4   9  19  33  53  79 108 147 200 257 302 343
#     4  10  22  40  63  91 121 153 194 247 306 363
#     4  11  24  40  58  84 124 165 200 244 302 364
#     4  10  22  38  55  80 117 159 203 251 300 353
#
# _framework density 19.073157999999999
#
# number of rings (size 3 to 8) (size 9 to 14) (size 15 to 20)
#    0.000    1.444    2.222    3.000    6.222    3.111 
#    0.000    0.000    0.000    0.667    0.000    0.000 
#    0.000    0.000    0.000    0.000    0.000    0.000 
#
# Total GULP energy -446068.248365 kJ/mol
# GULP energy per Si atom -12390.784677 kJ/mol
# Density = 1.902975 g / cm^3
# Si number density = 19.073158 Si / 1000 Ang^3
#
#
#
# Elastic Constant Matrix: (Units=GPa)
#
#
# Indices 1 2 3 4 5 6 
#
# 1 160.5538 59.5340 31.9185 0.0000 0.0000 0.0000
# 2 59.5340 110.5694 8.3276 0.0000 0.0000 0.0000
# 3 31.9185 8.3276 81.8742 0.0000 0.0000 0.0000
# 4 0.0000 0.0000 0.0000 8.7050 0.0000 0.0000
# 5 0.0000 0.0000 0.0000 0.0000 55.1729 0.0000
# 6 0.0000 0.0000 0.0000 0.0000 0.0000 26.3542
#
#
#
# Elastic Compliance Matrix: (Units=1/GPa)
#
#
# Indices 1 2 3 4 5 6 
#
# 1 0.008387 -0.004302 -0.002832 0.000000 0.000000 0.000000
# 2 -0.004302 0.011321 0.000526 0.000000 0.000000 0.000000
# 3 -0.002832 0.000526 0.013264 0.000000 0.000000 0.000000
# 4 0.000000 0.000000 0.000000 0.114877 0.000000 0.000000
# 5 0.000000 0.000000 0.000000 0.000000 0.018125 0.000000
# 6 0.000000 0.000000 0.000000 0.000000 0.000000 0.037945
#
#
# Mechanical properties :
#
#
# Convention : Reuss Voigt Hill
#
# Bulk Modulus (GPa) = 50.61985 61.39529 56.00757
# Shear Modulus (GPa) = 22.34926 34.92756 28.63841
#
# Velocity S-wave (km/s) = 3.42682 4.28394 3.87913
# Velocity P-wave (km/s) = 6.50038 7.53185 7.03505
#
# Compressibility (1/GPa) = 0.01975510
#
# Stress axis : x y z
#
# Youngs Moduli (GPa) = 119.23500 88.33104 75.38963
#
# Poissons Ratio (x) = 0.38004 0.21350
# Poissons Ratio (y) = 0.51300 -0.03964
# Poissons Ratio (z) = 0.33767 -0.04644
#
# Static dielectric constant tensor:
#      x y z
#    x 1.986310 0.000000 0.000000 
#    y 0.000000 3.355490 0.000000 
#    z 0.000000 0.000000 3.734600 
# 
# 
# High freq. dielectric constant tensor:
#      x y z
#    x 1.768120 0.000000 0.000000 
#    y 0.000000 1.709980 0.000000 
#    z 0.000000 0.000000 1.738970 
# 
# From -- ./inp_files/36669.got.cif
#   From: 2010.03.12/outbox.cif.g09.slc.cpg/sg65_19_cif.got.tgz:36669.got - 2010.04.10 20:52:16.
