data_PCOD8273283
_publ_section_title
;
Structure prediction by ZEFSAII (Michael W. Deem and Ramdas Pophale) SiO2 
 PCOD8273283
Probable space group: C M M M
;
_chemical_formula_sum "Si O2"
_cell_formula_units_Z 72
_cell_length_a 9.888442
_cell_length_b 17.438318
_cell_length_c 21.602274
_cell_angle_alpha 90.000000
_cell_angle_beta 90.000000
_cell_angle_gamma 90.000000
_cell_volume 3725.048520
_symmetry_space_group_name_H-M "C M M M"
_symmetry_group_IT_number 65
_symmetry_cell_setting 'orthorhombic'
loop_
_space_group_symop_operation_xyz
x,y,z
-x,-y,z
x,-y,-z
-x,y,-z
-x,-y,-z
x,y,-z
-x,y,z
x,-y,z
1/2+x,1/2+y,z
1/2-x,1/2-y,z
1/2+x,1/2-y,-z
1/2-x,1/2+y,-z
1/2-x,1/2-y,-z
1/2+x,1/2+y,-z
1/2-x,1/2+y,z
1/2+x,1/2-y,z
loop_
_atom_site_type_symbol
_atom_site_label
_atom_site_fract_x
_atom_site_fract_y
_atom_site_fract_z
Si Si1 0.846426 0.590283 0.124892
Si Si2 0.273701 0.412498 0.368237
Si Si3 0.843615 0.676943 0.000000
Si Si4 0.000000 0.363160 0.574073
Si Si5 0.847574 0.909464 0.231702
Si Si6 0.500000 0.312172 0.427415
O O1 0.827882 0.500000 0.117585
O O2 0.807593 0.627003 0.059748
O O3 0.745550 0.624585 0.176925
O O4 0.000000 0.610419 0.144403
O O5 0.326264 0.500000 0.375078
O O6 0.125890 0.406739 0.396446
O O7 0.277777 0.387257 0.296545
O O8 0.367004 0.355041 0.405711
O O9 0.750000 0.750000 0.000000
O O10 0.000000 0.702236 0.000000
O O11 0.000000 0.275080 0.596368
O O12 0.000000 0.371776 0.500000
O O13 0.000000 0.875116 0.228178
O O14 0.854466 0.000000 0.224538
O O15 0.500000 0.311595 0.500000
#
# Coordination Sequence:
#
# PCOD8273283 Si02
#       6
#    16  16   8   8  16   8
#     4   9  18  34  60  86 110 146 191 232 276 334
#     4  11  22  38  62  89 116 148 194 248 296 344
#     4  10  21  37  55  81 119 154 188 232 280 326
#     4  11  25  41  57  83 121 156 191 240 299 357
#     4   9  18  34  56  85 115 142 181 236 287 334
#     4  11  23  41  61  81 113 158 197 234 291 361
#
# _framework density 19.328607000000002
#
# number of rings (size 3 to 8) (size 9 to 14) (size 15 to 20)
#    0.000    2.000    1.111    2.333    1.556    6.667 
#    0.000    2.222    0.000    3.333    0.000    0.000 
#    0.000    0.000    0.000    0.000    0.000    0.000 
#
# Total GULP energy -446437.863874 kJ/mol
# GULP energy per Si atom -12401.051774 kJ/mol
# Density = 1.928461 g / cm^3
# Si number density = 19.328607 Si / 1000 Ang^3
#
#
#
# Elastic Constant Matrix: (Units=GPa)
#
#
# Indices 1 2 3 4 5 6 
#
# 1 118.1293 17.7362 63.3784 0.0000 0.0000 0.0000
# 2 17.7362 53.2660 33.2645 0.0000 0.0000 0.0000
# 3 63.3784 33.2645 115.1131 0.0000 0.0000 0.0000
# 4 0.0000 0.0000 0.0000 -2.2393 0.0000 0.0000
# 5 0.0000 0.0000 0.0000 0.0000 44.4033 0.0000
# 6 0.0000 0.0000 0.0000 0.0000 0.0000 32.5117
#
#
#
# Elastic Compliance Matrix: (Units=1/GPa)
#
#
# Indices 1 2 3 4 5 6 
#
# 1 0.012015 0.000159 -0.006661 0.000000 0.000000 0.000000
# 2 0.000159 0.022910 -0.006708 0.000000 0.000000 0.000000
# 3 -0.006661 -0.006708 0.014293 0.000000 0.000000 0.000000
# 4 0.000000 0.000000 0.000000 -0.446563 0.000000 0.000000
# 5 0.000000 0.000000 0.000000 0.000000 0.022521 0.000000
# 6 0.000000 0.000000 0.000000 0.000000 0.000000 0.030758
#
#
# Mechanical properties :
#
#
# Convention : Reuss Voigt Hill
#
# Bulk Modulus (GPa) = 43.86342 57.25185 50.55763
# Shear Modulus (GPa) = -16.12666 26.41041 5.14188
#
# Velocity S-wave (km/s) = -2.89163 3.70048 1.63279
# Velocity P-wave (km/s) = 3.40501 6.92406 5.45604
#
# Compressibility (1/GPa) = 0.02279804
#
# Stress axis : x y z
#
# Youngs Moduli (GPa) = 83.22708 43.64939 69.96380
#
# Poissons Ratio (x) = -0.00695 0.46605
# Poissons Ratio (y) = -0.01325 0.46932
# Poissons Ratio (z) = 0.55440 0.29280
#
# Static dielectric constant tensor:
#      x y z
#    x 3.956340 0.000000 0.000000 
#    y 0.000000 3.460790 0.000000 
#    z 0.000000 0.000000 3.734630 
# 
# 
# High freq. dielectric constant tensor:
#      x y z
#    x 1.761100 0.000000 0.000000 
#    y 0.000000 1.732720 0.000000 
#    z 0.000000 0.000000 1.763540 
# 
# From -- ./inp_files/59335.got.cif
#   From: 2010.03.12/outbox.cif.g09.slc.cpg/sg65_30_cif.got.tgz:59335.got - 2010.04.10 20:52:16.
