data_PCOD8273007
_publ_section_title
;
Structure prediction by ZEFSAII (Michael W. Deem and Ramdas Pophale) SiO2 
 PCOD8273007
Probable space group: C M M M
;
_chemical_formula_sum "Si O2"
_cell_formula_units_Z 112
_cell_length_a 17.630246
_cell_length_b 14.459889
_cell_length_c 23.783133
_cell_angle_alpha 90.000000
_cell_angle_beta 90.000000
_cell_angle_gamma 90.000000
_cell_volume 6063.067397
_symmetry_space_group_name_H-M "C M M M"
_symmetry_group_IT_number 65
_symmetry_cell_setting 'orthorhombic'
loop_
_space_group_symop_operation_xyz
x,y,z
-x,-y,z
x,-y,-z
-x,y,-z
-x,-y,-z
x,y,-z
-x,y,z
x,-y,z
1/2+x,1/2+y,z
1/2-x,1/2-y,z
1/2+x,1/2-y,-z
1/2-x,1/2+y,-z
1/2-x,1/2-y,-z
1/2+x,1/2+y,-z
1/2-x,1/2+y,z
1/2+x,1/2-y,z
loop_
_atom_site_type_symbol
_atom_site_label
_atom_site_fract_x
_atom_site_fract_y
_atom_site_fract_z
Si Si1 0.146754 0.107148 0.851754
Si Si2 0.585401 0.748977 0.063113
Si Si3 0.413340 0.892640 0.768992
Si Si4 0.089236 0.104154 0.729901
Si Si5 0.590312 0.895777 0.562561
Si Si6 0.410329 0.777937 0.335737
Si Si7 0.679720 0.107082 0.122588
O O1 0.094367 0.164975 0.893463
O O2 0.131876 0.134614 0.786895
O O3 0.232852 0.129874 0.867783
O O4 0.126631 0.000000 0.860415
O O5 0.500000 0.788141 0.069556
O O6 0.645520 0.831631 0.072620
O O7 0.599126 0.711403 0.000000
O O8 0.500000 0.864580 0.781365
O O9 0.380118 0.840370 0.715193
O O10 0.364495 0.861696 0.821860
O O11 0.404802 0.000000 0.756054
O O12 0.113386 0.171806 0.678200
O O13 0.000000 0.112732 0.742051
O O14 0.111663 0.000000 0.712058
O O15 0.620130 0.870858 0.500000
O O16 0.500000 0.892755 0.563162
O O17 0.624202 0.819360 0.606194
O O18 0.616629 0.000000 0.579188
O O19 0.500000 0.786783 0.339803
O O20 0.666286 0.000000 0.107993
#
# Coordination Sequence:
#
# PCOD8273007 Si02
#       7
#    16  16  16  16  16  16  16
#     4  10  21  37  56  76  99 127 160 202 250 295
#     4  11  24  39  55  75  98 127 164 202 239 286
#     4   9  16  26  43  68  96 123 151 185 228 283
#     4   9  17  29  46  67  90 118 154 197 243 289
#     4   8  13  21  34  55  86 123 159 193 232 281
#     4   9  15  23  38  60  87 120 156 192 232 279
#     4  10  21  36  54  76 102 130 158 193 242 298
#
# _framework density 18.472498000000002
#
# number of rings (size 3 to 8) (size 9 to 14) (size 15 to 20)
#    0.000    2.571    0.000    3.000    0.000    6.286 
#    0.000    2.857    0.000    0.429    0.000    3.000 
#    0.000    2.286    0.000    7.429    0.000    7.429 
#
# Total GULP energy -694194.917072 kJ/mol
# GULP energy per Si atom -12396.337805 kJ/mol
# Density = 1.843045 g / cm^3
# Si number density = 18.472498 Si / 1000 Ang^3
#
#
#
# Elastic Constant Matrix: (Units=GPa)
#
#
# Indices 1 2 3 4 5 6 
#
# 1 45.3922 20.9783 23.5649 0.0000 0.0000 0.0000
# 2 20.9783 97.8468 72.7982 0.0000 0.0000 0.0000
# 3 23.5649 72.7982 119.2904 0.0000 0.0000 0.0000
# 4 0.0000 0.0000 0.0000 32.3438 0.0000 0.0000
# 5 0.0000 0.0000 0.0000 0.0000 5.9581 0.0000
# 6 0.0000 0.0000 0.0000 0.0000 0.0000 19.3890
#
#
#
# Elastic Compliance Matrix: (Units=1/GPa)
#
#
# Indices 1 2 3 4 5 6 
#
# 1 0.025049 -0.003094 -0.003060 0.000000 0.000000 0.000000
# 2 -0.003094 0.019101 -0.011046 0.000000 0.000000 0.000000
# 3 -0.003060 -0.011046 0.015728 0.000000 0.000000 0.000000
# 4 0.000000 0.000000 0.000000 0.030918 0.000000 0.000000
# 5 0.000000 0.000000 0.000000 0.000000 0.167839 0.000000
# 6 0.000000 0.000000 0.000000 0.000000 0.000000 0.051576
#
#
# Mechanical properties :
#
#
# Convention : Reuss Voigt Hill
#
# Bulk Modulus (GPa) = 39.24786 55.24582 47.24684
# Shear Modulus (GPa) = 14.16019 21.21738 17.68878
#
# Velocity S-wave (km/s) = 2.77168 3.39277 3.09783
# Velocity P-wave (km/s) = 5.61567 6.73200 6.19901
#
# Compressibility (1/GPa) = 0.02547909
#
# Stress axis : x y z
#
# Youngs Moduli (GPa) = 39.92232 52.35244 63.58014
#
# Poissons Ratio (x) = 0.16196 0.19457
# Poissons Ratio (y) = 0.12350 0.70229
# Poissons Ratio (z) = 0.12217 0.57827
#
# Static dielectric constant tensor:
#      x y z
#    x 3.120180 0.000000 0.000000 
#    y 0.000000 3.570640 0.000000 
#    z 0.000000 0.000000 3.539580 
# 
# 
# High freq. dielectric constant tensor:
#      x y z
#    x 1.680810 0.000000 0.000000 
#    y 0.000000 1.723510 0.000000 
#    z 0.000000 0.000000 1.705130 
# 
# From -- ./inp_files/70021.got.cif
#   From: 2010.03.12/outbox.cif.g09.slc.cpg/sg65_36_cif.got.tgz:70021.got - 2010.04.10 20:52:16.
