data_PCOD8273697
_publ_section_title
;
Structure prediction by ZEFSAII (Michael W. Deem and Ramdas Pophale) SiO2 
 PCOD8273697
Probable space group: C M M M
;
_chemical_formula_sum "Si O2"
_cell_formula_units_Z 96
_cell_length_a 8.768379
_cell_length_b 28.654343
_cell_length_c 20.143740
_cell_angle_alpha 90.000000
_cell_angle_beta 90.000000
_cell_angle_gamma 90.000000
_cell_volume 5061.157771
_symmetry_space_group_name_H-M "C M M M"
_symmetry_group_IT_number 65
_symmetry_cell_setting 'orthorhombic'
loop_
_space_group_symop_operation_xyz
x,y,z
-x,-y,z
x,-y,-z
-x,y,-z
-x,-y,-z
x,y,-z
-x,y,z
x,-y,z
1/2+x,1/2+y,z
1/2-x,1/2-y,z
1/2+x,1/2-y,-z
1/2-x,1/2+y,-z
1/2-x,1/2-y,-z
1/2+x,1/2+y,-z
1/2-x,1/2+y,z
1/2+x,1/2-y,z
loop_
_atom_site_type_symbol
_atom_site_label
_atom_site_fract_x
_atom_site_fract_y
_atom_site_fract_z
Si Si1 0.821656 0.857261 0.687983
Si Si2 0.674579 0.947473 0.271489
Si Si3 0.822187 0.701024 0.423002
Si Si4 0.679691 0.800873 0.191411
Si Si5 0.324889 0.947652 0.115530
Si Si6 0.325877 0.356427 0.075214
O O1 0.785620 0.912301 0.690156
O O2 0.760707 0.839285 0.617718
O O3 0.737512 0.831773 0.748006
O O4 0.000000 0.848213 0.694083
O O5 0.500000 0.936850 0.290974
O O6 0.697111 0.940602 0.193506
O O7 0.718972 0.000000 0.292518
O O8 0.791989 0.690610 0.500000
O O9 0.750000 0.750000 0.401311
O O10 0.000000 0.702321 0.405737
O O11 0.500000 0.796481 0.196616
O O12 0.750000 0.750000 0.195667
O O13 0.720797 0.824945 0.121854
O O14 0.500000 0.939029 0.095611
O O15 0.220319 0.910768 0.077565
O O16 0.275418 0.000000 0.094720
O O17 0.500000 0.351493 0.099074
O O18 0.306336 0.338439 0.000000
#
# Coordination Sequence:
#
# PCOD8273697 Si02
#       6
#    16  16  16  16  16  16
#     4  12  23  36  59  90 122 153 189 233 284 336
#     4   9  18  34  57  85 116 150 189 234 283 336
#     4  10  21  38  60  87 121 159 197 236 281 333
#     4  12  25  42  62  83 110 144 189 238 285 338
#     4   9  18  34  57  83 111 146 187 232 283 339
#     4  11  24  40  57  81 113 147 186 233 288 346
#
# _framework density 18.967991999999999
#
# number of rings (size 3 to 8) (size 9 to 14) (size 15 to 20)
#    0.000    1.500    1.667    5.500    0.000    3.667 
#    0.000    3.333    0.000    0.500    0.000    3.500 
#    0.000    0.000    0.000    0.000    0.000    0.000 
#
# Total GULP energy -595398.681023 kJ/mol
# GULP energy per Si atom -12404.139188 kJ/mol
# Density = 1.892482 g / cm^3
# Si number density = 18.967992 Si / 1000 Ang^3
#
#
#
# Elastic Constant Matrix: (Units=GPa)
#
#
# Indices 1 2 3 4 5 6 
#
# 1 136.1924 53.8323 46.7007 0.0000 0.0000 0.0000
# 2 53.8323 117.3723 43.8209 0.0000 0.0000 0.0000
# 3 46.7007 43.8209 73.7307 0.0000 0.0000 0.0000
# 4 0.0000 0.0000 0.0000 27.6171 0.0000 0.0000
# 5 0.0000 0.0000 0.0000 0.0000 28.7521 0.0000
# 6 0.0000 0.0000 0.0000 0.0000 0.0000 38.3426
#
#
#
# Elastic Compliance Matrix: (Units=1/GPa)
#
#
# Indices 1 2 3 4 5 6 
#
# 1 0.010084 -0.002879 -0.004676 0.000000 0.000000 0.000000
# 2 -0.002879 0.011772 -0.005173 0.000000 0.000000 0.000000
# 3 -0.004676 -0.005173 0.019599 0.000000 0.000000 0.000000
# 4 0.000000 0.000000 0.000000 0.036209 0.000000 0.000000
# 5 0.000000 0.000000 0.000000 0.000000 0.034780 0.000000
# 6 0.000000 0.000000 0.000000 0.000000 0.000000 0.026081
#
#
# Mechanical properties :
#
#
# Convention : Reuss Voigt Hill
#
# Bulk Modulus (GPa) = 62.50416 68.44479 65.47448
# Shear Modulus (GPa) = 29.53107 31.13847 30.33477
#
# Velocity S-wave (km/s) = 3.95002 4.05610 4.00341
# Velocity P-wave (km/s) = 7.33673 7.62225 7.48085
#
# Compressibility (1/GPa) = 0.01599894
#
# Stress axis : x y z
#
# Youngs Moduli (GPa) = 99.16695 84.94987 51.02329
#
# Poissons Ratio (x) = 0.24459 0.23858
# Poissons Ratio (y) = 0.28552 0.26393
# Poissons Ratio (z) = 0.46370 0.43942
#
# Static dielectric constant tensor:
#      x y z
#    x 3.529620 0.000000 0.000000 
#    y 0.000000 3.668240 0.000000 
#    z 0.000000 0.000000 3.333710 
# 
# 
# High freq. dielectric constant tensor:
#      x y z
#    x 1.744660 0.000000 0.000000 
#    y 0.000000 1.743580 0.000000 
#    z 0.000000 0.000000 1.722260 
# 
# From -- ./inp_files/60264.got.cif
#   From: 2010.03.12/outbox.cif.g09.slc.cpg/sg65_31_cif.got.tgz:60264.got - 2010.04.10 20:52:16.
