data_PCOD8273953
_publ_section_title
;
Structure prediction by ZEFSAII (Michael W. Deem and Ramdas Pophale) SiO2 
 PCOD8273953
Probable space group: C M M M
;
_chemical_formula_sum "Si O2"
_cell_formula_units_Z 88
_cell_length_a 8.653647
_cell_length_b 28.738635
_cell_length_c 18.219894
_cell_angle_alpha 90.000000
_cell_angle_beta 90.000000
_cell_angle_gamma 90.000000
_cell_volume 4531.178365
_symmetry_space_group_name_H-M "C M M M"
_symmetry_group_IT_number 65
_symmetry_cell_setting 'orthorhombic'
loop_
_space_group_symop_operation_xyz
x,y,z
-x,-y,z
x,-y,-z
-x,y,-z
-x,-y,-z
x,y,-z
-x,y,z
x,-y,z
1/2+x,1/2+y,z
1/2-x,1/2-y,z
1/2+x,1/2-y,-z
1/2-x,1/2+y,-z
1/2-x,1/2-y,-z
1/2+x,1/2+y,-z
1/2-x,1/2+y,z
1/2+x,1/2-y,z
loop_
_atom_site_type_symbol
_atom_site_label
_atom_site_fract_x
_atom_site_fract_y
_atom_site_fract_z
Si Si1 0.315476 0.301363 0.718879
Si Si2 0.183228 0.351695 0.860280
Si Si3 0.682892 0.050304 0.810020
Si Si4 0.820625 0.447493 0.354673
Si Si5 0.681975 0.640695 0.419460
Si Si6 0.682026 0.698857 0.000000
O O1 0.500000 0.301000 0.725489
O O2 0.250000 0.250000 0.720818
O O3 0.243508 0.329345 0.785931
O O4 0.254129 0.325205 0.643842
O O5 0.231773 0.406442 0.861245
O O6 0.000000 0.344935 0.866155
O O7 0.264043 0.328249 0.928648
O O8 0.500000 0.048201 0.803857
O O9 0.746948 0.057867 0.727779
O O10 0.743094 0.000000 0.841063
O O11 0.793455 0.500000 0.383159
O O12 0.731705 0.412418 0.407308
O O13 0.000000 0.434310 0.356486
O O14 0.742748 0.656811 0.500000
O O15 0.500000 0.642694 0.417578
O O16 0.750000 0.750000 0.000000
O O17 0.500000 0.702986 0.000000
#
# Coordination Sequence:
#
# PCOD8273953 Si02
#       6
#    16  16  16  16  16   8
#     4  11  23  39  59  82 110 146 192 240 292 346
#     4  11  21  38  65  92 119 151 191 233 283 338
#     4   8  15  30  56  88 118 148 186 231 275 327
#     4   9  17  32  55  83 113 147 190 237 282 332
#     4  10  22  38  54  77 113 152 191 238 291 346
#     4  12  26  44  63  88 123 155 192 237 287 336
#
# _framework density 19.420995999999999
#
# number of rings (size 3 to 8) (size 9 to 14) (size 15 to 20)
#    0.000    2.000    1.818    3.545    0.000    2.182 
#    0.000    2.273    0.000    4.909    0.000    0.000 
#    0.000    0.000    0.000    0.000    0.000    0.000 
#
# Total GULP energy -545431.126472 kJ/mol
# GULP energy per Si atom -12396.161965 kJ/mol
# Density = 1.937679 g / cm^3
# Si number density = 19.420996 Si / 1000 Ang^3
#
#
#
# Elastic Constant Matrix: (Units=GPa)
#
#
# Indices 1 2 3 4 5 6 
#
# 1 57.6059 41.1895 45.2420 0.0000 0.0000 0.0000
# 2 41.1895 162.6186 80.4359 0.0000 0.0000 0.0000
# 3 45.2420 80.4359 135.5353 0.0000 0.0000 0.0000
# 4 0.0000 0.0000 0.0000 28.9142 0.0000 0.0000
# 5 0.0000 0.0000 0.0000 0.0000 163.8793 0.0000
# 6 0.0000 0.0000 0.0000 0.0000 0.0000 25.3784
#
#
#
# Elastic Compliance Matrix: (Units=1/GPa)
#
#
# Indices 1 2 3 4 5 6 
#
# 1 0.024562 -0.003066 -0.006379 0.000000 0.000000 0.000000
# 2 -0.003066 0.009087 -0.004370 0.000000 0.000000 0.000000
# 3 -0.006379 -0.004370 0.012101 0.000000 0.000000 0.000000
# 4 0.000000 0.000000 0.000000 0.034585 0.000000 0.000000
# 5 0.000000 0.000000 0.000000 0.000000 0.006102 0.000000
# 6 0.000000 0.000000 0.000000 0.000000 0.000000 0.039404
#
#
# Mechanical properties :
#
#
# Convention : Reuss Voigt Hill
#
# Bulk Modulus (GPa) = 55.18693 76.61049 65.89871
# Shear Modulus (GPa) = 31.34607 56.22721 43.78664
#
# Velocity S-wave (km/s) = 4.02186 5.38652 4.75342
# Velocity P-wave (km/s) = 7.07424 8.84415 8.00824
#
# Compressibility (1/GPa) = 0.01812023
#
# Stress axis : x y z
#
# Youngs Moduli (GPa) = 40.71409 110.04456 82.63930
#
# Poissons Ratio (x) = 0.33738 0.52718
# Poissons Ratio (y) = 0.12482 0.36110
# Poissons Ratio (z) = 0.25972 0.48085
#
# Static dielectric constant tensor:
#      x y z
#    x 3.398050 0.000000 0.000000 
#    y 0.000000 4.166230 0.000000 
#    z 0.000000 0.000000 3.655830 
# 
# 
# High freq. dielectric constant tensor:
#      x y z
#    x 1.738630 0.000000 0.000000 
#    y 0.000000 1.773230 0.000000 
#    z 0.000000 0.000000 1.748660 
# 
# From -- ./inp_files/50410.got.cif
#   From: 2010.03.12/outbox.cif.g09.slc.cpg/sg65_26_cif.got.tgz:50410.got - 2010.04.10 20:52:16.
