data_PCOD8273014
_publ_section_title
;
Structure prediction by ZEFSAII (Michael W. Deem and Ramdas Pophale) SiO2 
 PCOD8273014
Probable space group: C M M M
;
_chemical_formula_sum "Si O2"
_cell_formula_units_Z 112
_cell_length_a 15.040633
_cell_length_b 24.562349
_cell_length_c 15.016883
_cell_angle_alpha 90.000000
_cell_angle_beta 90.000000
_cell_angle_gamma 90.000000
_cell_volume 5547.736296
_symmetry_space_group_name_H-M "C M M M"
_symmetry_group_IT_number 65
_symmetry_cell_setting 'orthorhombic'
loop_
_space_group_symop_operation_xyz
x,y,z
-x,-y,z
x,-y,-z
-x,y,-z
-x,-y,-z
x,y,-z
-x,y,z
x,-y,z
1/2+x,1/2+y,z
1/2-x,1/2-y,z
1/2+x,1/2-y,-z
1/2-x,1/2+y,-z
1/2-x,1/2-y,-z
1/2+x,1/2+y,-z
1/2-x,1/2+y,z
1/2+x,1/2-y,z
loop_
_atom_site_type_symbol
_atom_site_label
_atom_site_fract_x
_atom_site_fract_y
_atom_site_fract_z
Si Si1 0.230138 0.060319 0.104935
Si Si2 0.597906 0.061573 0.792163
Si Si3 0.098020 0.659744 0.334758
Si Si4 0.790502 0.162275 0.398913
Si Si5 0.599377 0.439884 0.394541
Si Si6 0.400563 0.652258 0.898809
Si Si7 0.346326 0.737528 0.759306
O O1 0.329358 0.076547 0.133863
O O2 0.161543 0.104946 0.142465
O O3 0.204122 0.000000 0.140487
O O4 0.226314 0.060975 0.000000
O O5 0.500000 0.068804 0.835710
O O6 0.608508 0.100719 0.708433
O O7 0.610875 0.000000 0.757025
O O8 0.182766 0.665435 0.399689
O O9 0.101003 0.706726 0.259267
O O10 0.000000 0.663466 0.382123
O O11 0.822444 0.173717 0.500000
O O12 0.826987 0.103941 0.363481
O O13 0.834423 0.207028 0.335386
O O14 0.598551 0.442514 0.500000
O O15 0.500000 0.423284 0.361009
O O16 0.624807 0.500000 0.356947
O O17 0.500000 0.628874 0.899559
O O18 0.398359 0.704005 0.833918
O O19 0.372185 0.668570 0.000000
O O20 0.250000 0.750000 0.800636
#
# Coordination Sequence:
#
# PCOD8273014 Si02
#       7
#    16  16  16  16  16  16  16
#     4   9  17  30  51  80 111 142 178 220 267 320
#     4   9  18  34  55  77 103 137 179 227 275 321
#     4  10  21  36  54  76 105 142 180 221 270 320
#     4  10  21  36  55  81 111 143 180 222 270 322
#     4   8  15  30  52  77 105 137 174 218 267 314
#     4  10  21  37  57  81 111 147 182 217 263 319
#     4  10  21  37  57  78 106 142 181 228 272 314
#
# _framework density 20.188414999999999
#
# number of rings (size 3 to 8) (size 9 to 14) (size 15 to 20)
#    0.000    2.571    0.000    2.571    0.000    5.429 
#    0.000    4.286    0.000    0.857    0.000    4.000 
#    0.000    0.000    0.000    0.000    0.000    0.000 
#
# Total GULP energy -694034.740294 kJ/mol
# GULP energy per Si atom -12393.477505 kJ/mol
# Density = 2.014247 g / cm^3
# Si number density = 20.188415 Si / 1000 Ang^3
#
#
#
# Elastic Constant Matrix: (Units=GPa)
#
#
# Indices 1 2 3 4 5 6 
#
# 1 98.8964 40.0276 27.0908 0.0000 0.0000 0.0000
# 2 40.0276 98.1806 33.4391 0.0000 0.0000 0.0000
# 3 27.0908 33.4391 45.5491 0.0000 0.0000 0.0000
# 4 0.0000 0.0000 0.0000 20.1127 0.0000 0.0000
# 5 0.0000 0.0000 0.0000 0.0000 10.5835 0.0000
# 6 0.0000 0.0000 0.0000 0.0000 0.0000 31.4805
#
#
#
# Elastic Compliance Matrix: (Units=1/GPa)
#
#
# Indices 1 2 3 4 5 6 
#
# 1 0.012941 -0.003539 -0.005098 0.000000 0.000000 0.000000
# 2 -0.003539 0.014549 -0.008576 0.000000 0.000000 0.000000
# 3 -0.005098 -0.008576 0.031282 0.000000 0.000000 0.000000
# 4 0.000000 0.000000 0.000000 0.049720 0.000000 0.000000
# 5 0.000000 0.000000 0.000000 0.000000 0.094486 0.000000
# 6 0.000000 0.000000 0.000000 0.000000 0.000000 0.031766
#
#
# Mechanical properties :
#
#
# Convention : Reuss Voigt Hill
#
# Bulk Modulus (GPa) = 41.07589 49.30456 45.19023
# Shear Modulus (GPa) = 18.03190 21.90659 19.96925
#
# Velocity S-wave (km/s) = 2.99186 3.29767 3.14848
# Velocity P-wave (km/s) = 5.68554 6.24297 5.97077
#
# Compressibility (1/GPa) = 0.02434518
#
# Stress axis : x y z
#
# Youngs Moduli (GPa) = 77.27540 68.73248 31.96689
#
# Poissons Ratio (x) = 0.24328 0.16297
# Poissons Ratio (y) = 0.27351 0.27414
# Poissons Ratio (z) = 0.39396 0.58944
#
# Static dielectric constant tensor:
#      x y z
#    x 3.906100 0.000000 0.000000 
#    y 0.000000 4.036140 0.000000 
#    z 0.000000 0.000000 3.216840 
# 
# 
# High freq. dielectric constant tensor:
#      x y z
#    x 1.797130 0.000000 0.000000 
#    y 0.000000 1.797350 0.000000 
#    z 0.000000 0.000000 1.752700 
# 
# From -- ./inp_files/40856.got.cif
#   From: 2010.03.12/outbox.cif.g09.slc.cpg/sg65_21_cif.got.tgz:40856.got - 2010.04.10 20:52:16.
