data_PCOD8273822
_publ_section_title
;
Structure prediction by ZEFSAII (Michael W. Deem and Ramdas Pophale) SiO2 
 PCOD8273822
Probable space group: C M M M
;
_chemical_formula_sum "Si O2"
_cell_formula_units_Z 72
_cell_length_a 16.709114
_cell_length_b 24.385879
_cell_length_c 8.755344
_cell_angle_alpha 90.000000
_cell_angle_beta 90.000000
_cell_angle_gamma 90.000000
_cell_volume 3567.508782
_symmetry_space_group_name_H-M "C M M M"
_symmetry_group_IT_number 65
_symmetry_cell_setting 'orthorhombic'
loop_
_space_group_symop_operation_xyz
x,y,z
-x,-y,z
x,-y,-z
-x,y,-z
-x,-y,-z
x,y,-z
-x,y,z
x,-y,z
1/2+x,1/2+y,z
1/2-x,1/2-y,z
1/2+x,1/2-y,-z
1/2-x,1/2+y,-z
1/2-x,1/2-y,-z
1/2+x,1/2+y,-z
1/2-x,1/2+y,z
1/2+x,1/2-y,z
loop_
_atom_site_type_symbol
_atom_site_label
_atom_site_fract_x
_atom_site_fract_y
_atom_site_fract_z
Si Si1 0.592304 0.062729 0.827508
Si Si2 0.628626 0.358863 0.178605
Si Si3 0.089179 0.746447 0.325059
Si Si4 0.200415 0.352713 0.677292
Si Si5 0.000000 0.063267 0.680624
O O1 0.500000 0.069228 0.783848
O O2 0.642848 0.096155 0.705091
O O3 0.619297 0.000000 0.815013
O O4 0.607621 0.084174 0.000000
O O5 0.593191 0.300058 0.221893
O O6 0.720913 0.361221 0.224099
O O7 0.579913 0.407403 0.259157
O O8 0.619604 0.367830 0.000000
O O9 0.106327 0.763369 0.500000
O O10 0.154604 0.702449 0.269641
O O11 0.000000 0.720962 0.308871
O O12 0.223166 0.349445 0.500000
O O13 0.000000 0.067564 0.500000
O O14 0.000000 0.000000 0.735006
#
# Coordination Sequence:
#
# PCOD8273822 Si02
#       5
#    16  16  16  16   8
#     4   9  19  37  59  84 119 161 201 249 309 365
#     4  12  25  41  63  92 124 160 201 253 312 368
#     4  10  21  39  63  89 124 166 205 250 306 366
#     4  11  23  38  60  91 124 164 209 253 305 364
#     4  11  25  47  73  95 119 159 208 259 316 377
#
# _framework density 20.182151000000001
#
# number of rings (size 3 to 8) (size 9 to 14) (size 15 to 20)
#    0.000    1.444    1.111    5.000    0.000    8.000 
#    0.000    1.111    0.000    0.000    0.000    0.000 
#    0.000    0.000    0.000    0.000    0.000    0.000 
#
# Total GULP energy -446537.912687 kJ/mol
# GULP energy per Si atom -12403.830908 kJ/mol
# Density = 2.013622 g / cm^3
# Si number density = 20.182151 Si / 1000 Ang^3
#
#
#
# Elastic Constant Matrix: (Units=GPa)
#
#
# Indices 1 2 3 4 5 6 
#
# 1 117.9643 68.4602 37.9862 0.0000 0.0000 0.0000
# 2 68.4602 127.0079 46.3536 0.0000 0.0000 0.0000
# 3 37.9862 46.3536 79.4510 0.0000 0.0000 0.0000
# 4 0.0000 0.0000 0.0000 23.9994 0.0000 0.0000
# 5 0.0000 0.0000 0.0000 0.0000 33.9572 0.0000
# 6 0.0000 0.0000 0.0000 0.0000 0.0000 15.4828
#
#
#
# Elastic Compliance Matrix: (Units=1/GPa)
#
#
# Indices 1 2 3 4 5 6 
#
# 1 0.012762 -0.005911 -0.002653 0.000000 0.000000 0.000000
# 2 -0.005911 0.012741 -0.004608 0.000000 0.000000 0.000000
# 3 -0.002653 -0.004608 0.016543 0.000000 0.000000 0.000000
# 4 0.000000 0.000000 0.000000 0.041668 0.000000 0.000000
# 5 0.000000 0.000000 0.000000 0.000000 0.029449 0.000000
# 6 0.000000 0.000000 0.000000 0.000000 0.000000 0.064588
#
#
# Mechanical properties :
#
#
# Convention : Reuss Voigt Hill
#
# Bulk Modulus (GPa) = 63.68085 70.00258 66.84171
# Shear Modulus (GPa) = 23.88611 26.12943 25.00777
#
# Velocity S-wave (km/s) = 3.44397 3.60207 3.52391
# Velocity P-wave (km/s) = 6.88739 7.21530 7.05325
#
# Compressibility (1/GPa) = 0.01570331
#
# Stress axis : x y z
#
# Youngs Moduli (GPa) = 78.35989 78.48653 60.44853
#
# Poissons Ratio (x) = 0.46390 0.16038
# Poissons Ratio (y) = 0.46315 0.27852
# Poissons Ratio (z) = 0.20790 0.36163
#
# Static dielectric constant tensor:
#      x y z
#    x 3.798190 0.000000 0.000000 
#    y 0.000000 3.666620 0.000000 
#    z 0.000000 0.000000 3.602210 
# 
# 
# High freq. dielectric constant tensor:
#      x y z
#    x 1.801870 0.000000 0.000000 
#    y 0.000000 1.788490 0.000000 
#    z 0.000000 0.000000 1.786010 
# 
# From -- ./inp_files/9266.got.cif
#   From: 2010.03.12/outbox.cif.g09.slc.cpg/sg65_5_cif.got.tgz:9266.got - 2010.04.10 20:52:16.
