data_PCOD8273868
_publ_section_title
;
Structure prediction by ZEFSAII (Michael W. Deem and Ramdas Pophale) SiO2 
 PCOD8273868
Probable space group: C M M M
;
_chemical_formula_sum "Si O2"
_cell_formula_units_Z 72
_cell_length_a 16.547180
_cell_length_b 24.441701
_cell_length_c 8.757624
_cell_angle_alpha 90.000000
_cell_angle_beta 90.000000
_cell_angle_gamma 90.000000
_cell_volume 3541.944187
_symmetry_space_group_name_H-M "C M M M"
_symmetry_group_IT_number 65
_symmetry_cell_setting 'orthorhombic'
loop_
_space_group_symop_operation_xyz
x,y,z
-x,-y,z
x,-y,-z
-x,y,-z
-x,-y,-z
x,y,-z
-x,y,z
x,-y,z
1/2+x,1/2+y,z
1/2-x,1/2-y,z
1/2+x,1/2-y,-z
1/2-x,1/2+y,-z
1/2-x,1/2-y,-z
1/2+x,1/2+y,-z
1/2-x,1/2+y,z
1/2+x,1/2-y,z
loop_
_atom_site_type_symbol
_atom_site_label
_atom_site_fract_x
_atom_site_fract_y
_atom_site_fract_z
Si Si1 0.801581 0.149096 0.823546
Si Si2 0.629889 0.860251 0.321389
Si Si3 0.590962 0.738276 0.323400
Si Si4 0.094064 0.938307 0.672453
Si Si5 0.500000 0.937424 0.180341
O O1 0.722975 0.137656 0.724115
O O2 0.844626 0.205556 0.776810
O O3 0.861941 0.099124 0.795188
O O4 0.777806 0.152350 0.000000
O O5 0.620942 0.870582 0.500000
O O6 0.593737 0.801522 0.274761
O O7 0.580740 0.907759 0.238007
O O8 0.615198 0.731248 0.500000
O O9 0.500000 0.716178 0.294310
O O10 0.110130 0.916795 0.500000
O O11 0.000000 0.936306 0.709661
O O12 0.126636 0.000000 0.689058
O O13 0.500000 0.000000 0.239771
O O14 0.500000 0.935661 0.000000
#
# Coordination Sequence:
#
# PCOD8273868 Si02
#       5
#    16  16  16  16   8
#     4  12  25  37  56  92 129 163 201 249 313 373
#     4  11  23  43  67  90 118 161 211 257 304 360
#     4  10  21  40  64  90 121 160 207 255 304 364
#     4   9  19  38  62  85 113 155 205 253 301 359
#     4  11  25  45  69  97 129 163 200 255 324 381
#
# _framework density 20.327819000000002
#
# number of rings (size 3 to 8) (size 9 to 14) (size 15 to 20)
#    0.000    1.444    1.111    5.000    0.000   10.222 
#    0.000    1.111    0.000    0.000    0.000    0.000 
#    0.000    0.000    0.000    0.000    0.000    0.000 
#
# Total GULP energy -446570.438210 kJ/mol
# GULP energy per Si atom -12404.734395 kJ/mol
# Density = 2.028155 g / cm^3
# Si number density = 20.327819 Si / 1000 Ang^3
#
#
#
# Elastic Constant Matrix: (Units=GPa)
#
#
# Indices 1 2 3 4 5 6 
#
# 1 95.7450 50.3044 23.2542 0.0000 0.0000 0.0000
# 2 50.3044 128.4968 43.2001 0.0000 0.0000 0.0000
# 3 23.2542 43.2001 57.0010 0.0000 0.0000 0.0000
# 4 0.0000 0.0000 0.0000 26.9804 0.0000 0.0000
# 5 0.0000 0.0000 0.0000 0.0000 30.5993 0.0000
# 6 0.0000 0.0000 0.0000 0.0000 0.0000 2.7289
#
#
#
# Elastic Compliance Matrix: (Units=1/GPa)
#
#
# Indices 1 2 3 4 5 6 
#
# 1 0.013315 -0.004544 -0.001988 0.000000 0.000000 0.000000
# 2 -0.004544 0.011994 -0.007236 0.000000 0.000000 0.000000
# 3 -0.001988 -0.007236 0.023839 0.000000 0.000000 0.000000
# 4 0.000000 0.000000 0.000000 0.037064 0.000000 0.000000
# 5 0.000000 0.000000 0.000000 0.000000 0.032681 0.000000
# 6 0.000000 0.000000 0.000000 0.000000 0.000000 0.366450
#
#
# Mechanical properties :
#
#
# Convention : Reuss Voigt Hill
#
# Bulk Modulus (GPa) = 46.27304 57.19556 51.73430
# Shear Modulus (GPa) = 9.61385 23.02732 16.32058
#
# Velocity S-wave (km/s) = 2.17708 3.36936 2.83657
# Velocity P-wave (km/s) = 5.39744 6.58289 6.01942
#
# Compressibility (1/GPa) = 0.02161086
#
# Stress axis : x y z
#
# Youngs Moduli (GPa) = 75.10477 83.37460 41.94846
#
# Poissons Ratio (x) = 0.37887 0.08339
# Poissons Ratio (y) = 0.34129 0.30355
# Poissons Ratio (z) = 0.14930 0.60332
#
# Static dielectric constant tensor:
#      x y z
#    x 3.718770 0.000000 0.000000 
#    y 0.000000 3.815320 0.000000 
#    z 0.000000 0.000000 3.547720 
# 
# 
# High freq. dielectric constant tensor:
#      x y z
#    x 1.801330 0.000000 0.000000 
#    y 0.000000 1.802830 0.000000 
#    z 0.000000 0.000000 1.786200 
# 
# From -- ./inp_files/7321.got.cif
#   From: 2010.03.12/outbox.cif.g09.slc.cpg/sg65_4_cif.got.tgz:7321.got - 2010.04.10 20:52:16.
