data_PCOD8273443
_publ_section_title
;
Structure prediction by ZEFSAII (Michael W. Deem and Ramdas Pophale) SiO2 
 PCOD8273443
Probable space group: C M M M
;
_chemical_formula_sum "Si O2"
_cell_formula_units_Z 80
_cell_length_a 8.785921
_cell_length_b 18.379808
_cell_length_c 25.169259
_cell_angle_alpha 90.000000
_cell_angle_beta 90.000000
_cell_angle_gamma 90.000000
_cell_volume 4064.421070
_symmetry_space_group_name_H-M "C M M M"
_symmetry_group_IT_number 65
_symmetry_cell_setting 'orthorhombic'
loop_
_space_group_symop_operation_xyz
x,y,z
-x,-y,z
x,-y,-z
-x,y,-z
-x,-y,-z
x,y,-z
-x,y,z
x,-y,z
1/2+x,1/2+y,z
1/2-x,1/2-y,z
1/2+x,1/2-y,-z
1/2-x,1/2+y,-z
1/2-x,1/2-y,-z
1/2+x,1/2+y,-z
1/2-x,1/2+y,z
1/2+x,1/2-y,z
loop_
_atom_site_type_symbol
_atom_site_label
_atom_site_fract_x
_atom_site_fract_y
_atom_site_fract_z
Si Si1 0.679273 0.329095 0.746938
Si Si2 0.822762 0.415705 0.158883
Si Si3 0.322032 0.326188 0.438387
Si Si4 0.321816 0.175023 0.940888
Si Si5 0.678688 0.915704 0.650322
O O1 0.500000 0.321560 0.741935
O O2 0.750000 0.250000 0.751475
O O3 0.720285 0.374183 0.799067
O O4 0.741134 0.369475 0.695501
O O5 0.782768 0.500000 0.162214
O O6 0.778600 0.388832 0.099863
O O7 0.000000 0.401063 0.171543
O O8 0.288397 0.340942 0.500000
O O9 0.500000 0.323770 0.425798
O O10 0.250000 0.250000 0.419835
O O11 0.243352 0.391480 0.406614
O O12 0.500000 0.187445 0.942480
O O13 0.250000 0.250000 0.920376
O O14 0.261078 0.154436 0.000000
O O15 0.500000 0.901197 0.652483
O O16 0.717509 0.000000 0.659087
#
# Coordination Sequence:
#
# PCOD8273443 Si02
#       5
#    16  16  16  16  16
#     4  12  25  41  62  85 112 147 189 235 283 339
#     4  10  21  37  57  83 116 150 186 232 284 337
#     4  10  21  38  61  88 119 155 195 238 282 332
#     4   9  18  33  54  80 110 147 190 233 278 330
#     4  11  24  41  61  86 118 153 189 233 285 339
#
# _framework density 19.682998000000001
#
# number of rings (size 3 to 8) (size 9 to 14) (size 15 to 20)
#    0.000    1.600    0.000    4.800    0.000    8.800 
#    0.000    4.000    0.000    0.000    0.000    4.200 
#    0.000    0.000    0.000    0.000    0.000    0.000 
#
# Total GULP energy -496185.980571 kJ/mol
# GULP energy per Si atom -12404.649514 kJ/mol
# Density = 1.963820 g / cm^3
# Si number density = 19.682998 Si / 1000 Ang^3
#
#
#
# Elastic Constant Matrix: (Units=GPa)
#
#
# Indices 1 2 3 4 5 6 
#
# 1 89.3647 56.8853 44.9338 0.0000 0.0000 0.0000
# 2 56.8853 133.3376 65.4558 0.0000 0.0000 0.0000
# 3 44.9338 65.4558 108.6186 0.0000 0.0000 0.0000
# 4 0.0000 0.0000 0.0000 -5.9537 0.0000 0.0000
# 5 0.0000 0.0000 0.0000 0.0000 27.4016 0.0000
# 6 0.0000 0.0000 0.0000 0.0000 0.0000 33.3212
#
#
#
# Elastic Compliance Matrix: (Units=1/GPa)
#
#
# Indices 1 2 3 4 5 6 
#
# 1 0.016310 -0.005178 -0.003627 0.000000 0.000000 0.000000
# 2 -0.005178 0.012294 -0.005267 0.000000 0.000000 0.000000
# 3 -0.003627 -0.005267 0.013881 0.000000 0.000000 0.000000
# 4 0.000000 0.000000 0.000000 -0.167962 0.000000 0.000000
# 5 0.000000 0.000000 0.000000 0.000000 0.036494 0.000000
# 6 0.000000 0.000000 0.000000 0.000000 0.000000 0.030011
#
#
# Mechanical properties :
#
#
# Convention : Reuss Voigt Hill
#
# Bulk Modulus (GPa) = 69.72575 73.98563 71.85569
# Shear Modulus (GPa) = -191.94204 21.89023 -85.02591
#
# Velocity S-wave (km/s) = -9.88577 3.33849 -6.57962
# Velocity P-wave (km/s) = 9.73670 7.24782 4.59741
#
# Compressibility (1/GPa) = 0.01434190
#
# Stress axis : x y z
#
# Youngs Moduli (GPa) = 61.31367 81.33938 72.04208
#
# Poissons Ratio (x) = 0.42115 0.26129
# Poissons Ratio (y) = 0.31746 0.37943
# Poissons Ratio (z) = 0.22238 0.42840
#
# Static dielectric constant tensor:
#      x y z
#    x 3.596080 0.000000 0.000000 
#    y 0.000000 82.680090 0.000000 
#    z 0.000000 0.000000 3.895520 
# 
# 
# High freq. dielectric constant tensor:
#      x y z
#    x 1.770880 0.000000 0.000000 
#    y 0.000000 1.771000 0.000000 
#    z 0.000000 0.000000 1.782990 
# 
# From -- ./inp_files/72706.got.cif
#   From: 2010.03.12/outbox.cif.g09.slc.cpg/sg65_37_cif.got.tgz:72706.got - 2010.04.10 20:52:16.
