data_PCOD8273119
_publ_section_title
;
Structure prediction by ZEFSAII (Michael W. Deem and Ramdas Pophale) SiO2 
 PCOD8273119
Probable space group: C M M M
;
_chemical_formula_sum "Si O2"
_cell_formula_units_Z 88
_cell_length_a 18.323812
_cell_length_b 9.005088
_cell_length_c 27.640751
_cell_angle_alpha 90.000000
_cell_angle_beta 90.000000
_cell_angle_gamma 90.000000
_cell_volume 4560.932314
_symmetry_space_group_name_H-M "C M M M"
_symmetry_group_IT_number 65
_symmetry_cell_setting 'orthorhombic'
loop_
_space_group_symop_operation_xyz
x,y,z
-x,-y,z
x,-y,-z
-x,y,-z
-x,-y,-z
x,y,-z
-x,y,z
x,-y,z
1/2+x,1/2+y,z
1/2-x,1/2-y,z
1/2+x,1/2-y,-z
1/2-x,1/2+y,-z
1/2-x,1/2-y,-z
1/2+x,1/2+y,-z
1/2-x,1/2+y,z
1/2+x,1/2-y,z
loop_
_atom_site_type_symbol
_atom_site_label
_atom_site_fract_x
_atom_site_fract_y
_atom_site_fract_z
Si Si1 0.176637 0.327134 0.629709
Si Si2 0.586098 0.333759 0.446357
Si Si3 0.171136 0.175563 0.913686
Si Si4 0.083507 0.171520 0.817387
Si Si5 0.324967 0.825447 0.739745
Si Si6 0.413801 0.826074 0.000000
O O1 0.189259 0.500000 0.626180
O O2 0.250000 0.250000 0.611629
O O3 0.112526 0.280206 0.594029
O O4 0.157201 0.280036 0.684534
O O5 0.614199 0.287564 0.500000
O O6 0.500000 0.329109 0.445752
O O7 0.613722 0.500000 0.434125
O O8 0.250000 0.250000 0.915714
O O9 0.134511 0.211159 0.862475
O O10 0.178156 0.000000 0.923193
O O11 0.119471 0.248262 0.953300
O O12 0.108075 0.268899 0.771822
O O13 0.000000 0.211570 0.830222
O O14 0.091211 0.000000 0.803092
O O15 0.250000 0.750000 0.757332
O O16 0.315823 0.000000 0.746309
O O17 0.500000 0.799581 0.000000
O O18 0.394047 0.000000 0.000000
#
# Coordination Sequence:
#
# PCOD8273119 Si02
#       6
#    16  16  16  16  16   8
#     4  10  21  36  55  80 109 142 182 226 273 326
#     4   9  19  36  56  78 106 141 180 222 271 327
#     4  11  23  40  62  87 117 152 191 233 278 330
#     4  10  22  39  59  85 115 148 187 229 276 330
#     4  10  21  37  57  81 110 145 184 227 275 327
#     4  11  24  41  62  89 119 151 190 235 282 331
#
# _framework density 19.294301999999998
#
# number of rings (size 3 to 8) (size 9 to 14) (size 15 to 20)
#    0.000    1.909    0.000    3.818    0.000    8.727 
#    0.000    4.545    0.000    0.000    0.000    0.000 
#    0.000    0.000    0.000    0.000    0.000    0.000 
#
# Total GULP energy -545743.326037 kJ/mol
# GULP energy per Si atom -12403.257410 kJ/mol
# Density = 1.925039 g / cm^3
# Si number density = 19.294302 Si / 1000 Ang^3
#
#
#
# Elastic Constant Matrix: (Units=GPa)
#
#
# Indices 1 2 3 4 5 6 
#
# 1 100.7791 50.0449 55.0462 0.0000 0.0000 0.0000
# 2 50.0449 91.7156 57.6471 0.0000 0.0000 0.0000
# 3 55.0462 57.6471 111.2448 0.0000 0.0000 0.0000
# 4 0.0000 0.0000 0.0000 21.4381 0.0000 0.0000
# 5 0.0000 0.0000 0.0000 0.0000 35.8788 0.0000
# 6 0.0000 0.0000 0.0000 0.0000 0.0000 34.9204
#
#
#
# Elastic Compliance Matrix: (Units=1/GPa)
#
#
# Indices 1 2 3 4 5 6 
#
# 1 0.015139 -0.005268 -0.004761 0.000000 0.000000 0.000000
# 2 -0.005268 0.018003 -0.006722 0.000000 0.000000 0.000000
# 3 -0.004761 -0.006722 0.014829 0.000000 0.000000 0.000000
# 4 0.000000 0.000000 0.000000 0.046646 0.000000 0.000000
# 5 0.000000 0.000000 0.000000 0.000000 0.027872 0.000000
# 6 0.000000 0.000000 0.000000 0.000000 0.000000 0.028637
#
#
# Mechanical properties :
#
#
# Convention : Reuss Voigt Hill
#
# Bulk Modulus (GPa) = 69.12061 69.91288 69.51675
# Shear Modulus (GPa) = 26.39192 27.84756 27.11974
#
# Velocity S-wave (km/s) = 3.70247 3.80321 3.75318
# Velocity P-wave (km/s) = 7.36070 7.45651 7.40876
#
# Compressibility (1/GPa) = 0.01446747
#
# Stress axis : x y z
#
# Youngs Moduli (GPa) = 66.05261 55.54564 67.43648
#
# Poissons Ratio (x) = 0.29262 0.32109
# Poissons Ratio (y) = 0.34798 0.45334
# Poissons Ratio (z) = 0.31450 0.37340
#
# Static dielectric constant tensor:
#      x y z
#    x 3.482180 0.000000 0.000000 
#    y 0.000000 3.680790 0.000000 
#    z 0.000000 0.000000 3.686840 
# 
# 
# High freq. dielectric constant tensor:
#      x y z
#    x 1.751840 0.000000 0.000000 
#    y 0.000000 1.757610 0.000000 
#    z 0.000000 0.000000 1.761260 
# 
# From -- ./inp_files/71000.got.cif
#   From: 2010.03.12/outbox.cif.g09.slc.cpg/sg65_36_cif.got.tgz:71000.got - 2010.04.10 20:52:16.
