data_PCOD8273773
_publ_section_title
;
Structure prediction by ZEFSAII (Michael W. Deem and Ramdas Pophale) SiO2 
 PCOD8273773
Probable space group: C M M M
;
_chemical_formula_sum "Si O2"
_cell_formula_units_Z 104
_cell_length_a 28.628389
_cell_length_b 9.011456
_cell_length_c 20.122212
_cell_angle_alpha 90.000000
_cell_angle_beta 90.000000
_cell_angle_gamma 90.000000
_cell_volume 5191.198032
_symmetry_space_group_name_H-M "C M M M"
_symmetry_group_IT_number 65
_symmetry_cell_setting 'orthorhombic'
loop_
_space_group_symop_operation_xyz
x,y,z
-x,-y,z
x,-y,-z
-x,y,-z
-x,-y,-z
x,y,-z
-x,y,z
x,-y,z
1/2+x,1/2+y,z
1/2-x,1/2-y,z
1/2+x,1/2-y,-z
1/2-x,1/2+y,-z
1/2-x,1/2-y,-z
1/2+x,1/2+y,-z
1/2-x,1/2+y,z
1/2+x,1/2-y,z
loop_
_atom_site_type_symbol
_atom_site_label
_atom_site_fract_x
_atom_site_fract_y
_atom_site_fract_z
Si Si1 0.445096 0.670149 0.575724
Si Si2 0.610742 0.826258 0.923000
Si Si3 0.704542 0.667142 0.920906
Si Si4 0.798651 0.673026 0.500000
Si Si5 0.798798 0.327534 0.643428
Si Si6 0.554045 0.327598 0.184603
Si Si7 0.895927 0.326214 0.305617
O O1 0.430389 0.708209 0.500000
O O2 0.500000 0.694536 0.585102
O O3 0.432101 0.500000 0.592604
O O4 0.418481 0.780691 0.624498
O O5 0.658605 0.753270 0.896822
O O6 0.567825 0.758304 0.882425
O O7 0.614453 0.000000 0.909688
O O8 0.601740 0.790167 0.000000
O O9 0.703353 0.500000 0.892869
O O10 0.750000 0.750000 0.891704
O O11 0.706860 0.666413 0.000000
O O12 0.790806 0.500000 0.500000
O O13 0.750000 0.750000 0.500000
O O14 0.821086 0.720540 0.429124
O O15 0.786808 0.500000 0.643344
O O16 0.750000 0.250000 0.662564
O O17 0.840253 0.291321 0.694946
O O18 0.500000 0.298130 0.198964
O O19 0.564967 0.500000 0.174506
O O20 0.582753 0.268078 0.246570
O O21 0.905440 0.500000 0.294129
#
# Coordination Sequence:
#
# PCOD8273773 Si02
#       7
#    16  16  16   8  16  16  16
#     4   9  19  36  56  80 112 149 191 238 286 340
#     4  10  21  38  62  92 123 153 191 242 297 355
#     4   9  16  28  50  82 121 161 197 233 277 332
#     4   8  14  28  48  72 105 142 181 225 274 325
#     4   9  19  34  54  80 113 151 190 236 285 339
#     4  11  25  44  64  85 113 152 196 241 293 358
#     4  11  23  37  58  86 116 150 191 240 293 348
#
# _framework density 20.033911
#
# number of rings (size 3 to 8) (size 9 to 14) (size 15 to 20)
#    0.000    2.308    0.000    2.769    1.077    8.000 
#    0.000    3.077    0.000    1.846    0.000    0.000 
#    0.000    0.000    0.000    0.000    0.000    0.000 
#
# Total GULP energy -644577.887530 kJ/mol
# GULP energy per Si atom -12395.728606 kJ/mol
# Density = 1.998831 g / cm^3
# Si number density = 20.033911 Si / 1000 Ang^3
#
#
#
# Elastic Constant Matrix: (Units=GPa)
#
#
# Indices 1 2 3 4 5 6 
#
# 1 99.6460 50.1449 51.9165 0.0000 0.0000 0.0000
# 2 50.1449 91.9429 43.0267 0.0000 0.0000 0.0000
# 3 51.9165 43.0267 78.3142 0.0000 0.0000 0.0000
# 4 0.0000 0.0000 0.0000 30.5340 0.0000 0.0000
# 5 0.0000 0.0000 0.0000 0.0000 27.1483 0.0000
# 6 0.0000 0.0000 0.0000 0.0000 0.0000 36.2768
#
#
#
# Elastic Compliance Matrix: (Units=1/GPa)
#
#
# Indices 1 2 3 4 5 6 
#
# 1 0.017128 -0.005422 -0.008376 0.000000 0.000000 0.000000
# 2 -0.005422 0.016357 -0.005392 0.000000 0.000000 0.000000
# 3 -0.008376 -0.005392 0.021284 0.000000 0.000000 0.000000
# 4 0.000000 0.000000 0.000000 0.032750 0.000000 0.000000
# 5 0.000000 0.000000 0.000000 0.000000 0.036835 0.000000
# 6 0.000000 0.000000 0.000000 0.000000 0.000000 0.027566
#
#
# Mechanical properties :
#
#
# Convention : Reuss Voigt Hill
#
# Bulk Modulus (GPa) = 61.01615 62.23102 61.62359
# Shear Modulus (GPa) = 25.54122 27.11282 26.32702
#
# Velocity S-wave (km/s) = 3.57445 3.68278 3.62902
# Velocity P-wave (km/s) = 6.89624 7.01527 6.95601
#
# Compressibility (1/GPa) = 0.01638910
#
# Stress axis : x y z
#
# Youngs Moduli (GPa) = 58.38505 61.13678 46.98339
#
# Poissons Ratio (x) = 0.33147 0.39351
# Poissons Ratio (y) = 0.31655 0.25335
# Poissons Ratio (z) = 0.48901 0.32967
#
# Static dielectric constant tensor:
#      x y z
#    x 3.623420 0.000000 0.000000 
#    y 0.000000 3.679840 0.000000 
#    z 0.000000 0.000000 3.421130 
# 
# 
# High freq. dielectric constant tensor:
#      x y z
#    x 1.783010 0.000000 0.000000 
#    y 0.000000 1.787870 0.000000 
#    z 0.000000 0.000000 1.767650 
# 
# From -- ./inp_files/65902.got.cif
#   From: 2010.03.12/outbox.cif.g09.slc.cpg/sg65_33_cif.got.tgz:65902.got - 2010.04.10 20:52:16.
