data_PCOD8273949
_publ_section_title
;
Structure prediction by ZEFSAII (Michael W. Deem and Ramdas Pophale) SiO2 
 PCOD8273949
Probable space group: C M M M
;
_chemical_formula_sum "Si O2"
_cell_formula_units_Z 48
_cell_length_a 34.652576
_cell_length_b 9.823526
_cell_length_c 7.467972
_cell_angle_alpha 90.000000
_cell_angle_beta 90.000000
_cell_angle_gamma 90.000000
_cell_volume 2542.175943
_symmetry_space_group_name_H-M "C M M M"
_symmetry_group_IT_number 65
_symmetry_cell_setting 'orthorhombic'
loop_
_space_group_symop_operation_xyz
x,y,z
-x,-y,z
x,-y,-z
-x,y,-z
-x,-y,-z
x,y,-z
-x,y,z
x,-y,z
1/2+x,1/2+y,z
1/2-x,1/2-y,z
1/2+x,1/2-y,-z
1/2-x,1/2+y,-z
1/2-x,1/2-y,-z
1/2+x,1/2+y,-z
1/2-x,1/2+y,z
1/2+x,1/2-y,z
loop_
_atom_site_type_symbol
_atom_site_label
_atom_site_fract_x
_atom_site_fract_y
_atom_site_fract_z
Si Si1 0.500000 0.838621 0.304494
Si Si2 0.151037 0.156767 0.293898
Si Si3 0.082630 0.652584 0.713689
Si Si4 0.712876 0.656909 0.000000
O O1 0.500000 0.768698 0.500000
O O2 0.540572 0.799397 0.206762
O O3 0.500000 0.000000 0.327648
O O4 0.160653 0.192291 0.500000
O O5 0.115575 0.245595 0.218300
O O6 0.139008 0.000000 0.270703
O O7 0.188557 0.191123 0.177739
O O8 0.079818 0.654911 0.500000
O O9 0.092793 0.500000 0.780356
O O10 0.750000 0.750000 0.000000
O O11 0.725913 0.500000 0.000000
#
# Coordination Sequence:
#
# PCOD8273949 Si02
#       4
#     8  16  16   8
#     4   7  10  18  35  62  95 126 157 195 232 263
#     4   9  18  33  51  71  97 126 154 189 234 279
#     4   8  13  23  42  68  96 127 162 196 230 270
#     4  10  22  38  54  73  96 121 151 190 237 286
#
# _framework density 18.881464000000001
#
# number of rings (size 3 to 8) (size 9 to 14) (size 15 to 20)
#    0.000    3.500    0.000    2.000    0.000    2.000 
#    0.000    0.833    0.000    6.000    0.000    7.000 
#    0.000    0.000    0.000    0.000    0.000    0.000 
#
# Total GULP energy -297322.925040 kJ/mol
# GULP energy per Si atom -12388.455210 kJ/mol
# Density = 1.883849 g / cm^3
# Si number density = 18.881464 Si / 1000 Ang^3
#
#
#
# Elastic Constant Matrix: (Units=GPa)
#
#
# Indices 1 2 3 4 5 6 
#
# 1 197.0888 100.9413 48.0287 0.0000 0.0000 0.0000
# 2 100.9413 89.9639 29.9206 0.0000 0.0000 0.0000
# 3 48.0287 29.9206 61.3130 0.0000 0.0000 0.0000
# 4 0.0000 0.0000 0.0000 9.1003 0.0000 0.0000
# 5 0.0000 0.0000 0.0000 0.0000 -55.4519 0.0000
# 6 0.0000 0.0000 0.0000 0.0000 0.0000 37.2263
#
#
#
# Elastic Compliance Matrix: (Units=1/GPa)
#
#
# Indices 1 2 3 4 5 6 
#
# 1 0.012537 -0.012894 -0.003529 0.000000 0.000000 0.000000
# 2 -0.012894 0.026529 -0.002846 0.000000 0.000000 0.000000
# 3 -0.003529 -0.002846 0.020463 0.000000 0.000000 0.000000
# 4 0.000000 0.000000 0.000000 0.109886 0.000000 0.000000
# 5 0.000000 0.000000 0.000000 0.000000 -0.018034 0.000000
# 6 0.000000 0.000000 0.000000 0.000000 0.000000 0.026863
#
#
# Mechanical properties :
#
#
# Convention : Reuss Voigt Hill
#
# Bulk Modulus (GPa) = 47.63683 78.46077 63.04880
# Shear Modulus (GPa) = 22.34342 9.47329 15.90835
#
# Velocity S-wave (km/s) = 3.44372 2.24235 2.90580
# Velocity P-wave (km/s) = 6.41065 6.95333 6.68750
#
# Compressibility (1/GPa) = 0.02099216
#
# Stress axis : x y z
#
# Youngs Moduli (GPa) = 79.76120 37.69463 48.86859
#
# Poissons Ratio (x) = 0.48602 0.17246
# Poissons Ratio (y) = 1.02841 0.13908
# Poissons Ratio (z) = 0.28148 0.10728
#
# Static dielectric constant tensor:
#      x y z
#    x 3.675680 0.000000 0.000000 
#    y 0.000000 3.342740 0.000000 
#    z 0.000000 0.000000 3.269300 
# 
# 
# High freq. dielectric constant tensor:
#      x y z
#    x 1.736710 0.000000 0.000000 
#    y 0.000000 1.705160 0.000000 
#    z 0.000000 0.000000 1.715180 
# 
# From -- ./inp_files/3079.got.cif
#   From: 2010.03.12/outbox.cif.g09.slc.cpg/sg65_2_cif.got.tgz:3079.got - 2010.04.10 20:52:16.
