data_PCOD8273420
_publ_section_title
;
Structure prediction by ZEFSAII (Michael W. Deem and Ramdas Pophale) SiO2 
 PCOD8273420
Probable space group: C M M M
;
_chemical_formula_sum "Si O2"
_cell_formula_units_Z 96
_cell_length_a 29.110550
_cell_length_b 8.752080
_cell_length_c 20.512303
_cell_angle_alpha 90.000000
_cell_angle_beta 90.000000
_cell_angle_gamma 90.000000
_cell_volume 5226.080712
_symmetry_space_group_name_H-M "C M M M"
_symmetry_group_IT_number 65
_symmetry_cell_setting 'orthorhombic'
loop_
_space_group_symop_operation_xyz
x,y,z
-x,-y,z
x,-y,-z
-x,y,-z
-x,-y,-z
x,y,-z
-x,y,z
x,-y,z
1/2+x,1/2+y,z
1/2-x,1/2-y,z
1/2+x,1/2-y,-z
1/2-x,1/2+y,-z
1/2-x,1/2-y,-z
1/2+x,1/2+y,-z
1/2-x,1/2+y,z
1/2+x,1/2-y,z
loop_
_atom_site_type_symbol
_atom_site_label
_atom_site_fract_x
_atom_site_fract_y
_atom_site_fract_z
Si Si1 0.798033 0.179206 0.075059
Si Si2 0.449424 0.826387 0.760481
Si Si3 0.300059 0.318412 0.695780
Si Si4 0.645505 0.177398 0.184969
Si Si5 0.644140 0.681777 0.428283
Si Si6 0.549960 0.679777 0.375310
O O1 0.750000 0.250000 0.098670
O O2 0.838647 0.252591 0.116691
O O3 0.795966 0.000000 0.087415
O O4 0.807661 0.220116 0.000000
O O5 0.500000 0.796107 0.791853
O O6 0.409558 0.796583 0.813306
O O7 0.441030 0.715111 0.700105
O O8 0.446140 0.000000 0.734446
O O9 0.297226 0.500000 0.697354
O O10 0.250000 0.250000 0.703908
O O11 0.331406 0.263395 0.754833
O O12 0.321487 0.257261 0.627475
O O13 0.658905 0.000000 0.188508
O O14 0.660861 0.736901 0.500000
O O15 0.642759 0.500000 0.424594
O O16 0.592397 0.746981 0.416994
O O17 0.500000 0.747732 0.397452
O O18 0.548704 0.500000 0.384101
#
# Coordination Sequence:
#
# PCOD8273420 Si02
#       6
#    16  16  16  16  16  16
#     4  10  21  37  57  82 113 145 176 211 254 304
#     4   9  18  32  51  76 106 137 169 209 256 304
#     4  11  22  36  53  73 100 133 173 221 266 312
#     4  11  21  34  56  82 108 138 174 214 256 304
#     4   9  18  32  49  71 100 133 169 213 264 314
#     4   9  16  28  49  75 100 128 165 209 259 314
#
# _framework density 18.369406999999999
#
# number of rings (size 3 to 8) (size 9 to 14) (size 15 to 20)
#    0.000    2.167    1.667    2.000    0.000    2.333 
#    0.000    1.667    0.000    4.500    0.000    5.833 
#    0.000    0.000    0.000    0.000    0.000    0.000 
#
# Total GULP energy -595010.925848 kJ/mol
# GULP energy per Si atom -12396.060955 kJ/mol
# Density = 1.832760 g / cm^3
# Si number density = 18.369407 Si / 1000 Ang^3
#
#
#
# Elastic Constant Matrix: (Units=GPa)
#
#
# Indices 1 2 3 4 5 6 
#
# 1 127.0227 30.0836 56.5938 0.0000 0.0000 0.0000
# 2 30.0836 47.7623 25.0193 0.0000 0.0000 0.0000
# 3 56.5938 25.0193 94.4228 0.0000 0.0000 0.0000
# 4 0.0000 0.0000 0.0000 15.9596 0.0000 0.0000
# 5 0.0000 0.0000 0.0000 0.0000 30.3716 0.0000
# 6 0.0000 0.0000 0.0000 0.0000 0.0000 17.5026
#
#
#
# Elastic Compliance Matrix: (Units=1/GPa)
#
#
# Indices 1 2 3 4 5 6 
#
# 1 0.011420 -0.004189 -0.005735 0.000000 0.000000 0.000000
# 2 -0.004189 0.025848 -0.004338 0.000000 0.000000 0.000000
# 3 -0.005735 -0.004338 0.015177 0.000000 0.000000 0.000000
# 4 0.000000 0.000000 0.000000 0.062658 0.000000 0.000000
# 5 0.000000 0.000000 0.000000 0.000000 0.032926 0.000000
# 6 0.000000 0.000000 0.000000 0.000000 0.000000 0.057134
#
#
# Mechanical properties :
#
#
# Convention : Reuss Voigt Hill
#
# Bulk Modulus (GPa) = 41.80361 54.73348 48.26855
# Shear Modulus (GPa) = 20.69016 23.26748 21.97882
#
# Velocity S-wave (km/s) = 3.35974 3.56285 3.46279
# Velocity P-wave (km/s) = 6.15281 6.84002 6.50550
#
# Compressibility (1/GPa) = 0.02392138
#
# Stress axis : x y z
#
# Youngs Moduli (GPa) = 87.56795 38.68778 65.88766
#
# Poissons Ratio (x) = 0.16206 0.37784
# Poissons Ratio (y) = 0.36681 0.28584
# Poissons Ratio (z) = 0.50217 0.16784
#
# Static dielectric constant tensor:
#      x y z
#    x 3.756610 0.000000 0.000000 
#    y 0.000000 3.298170 0.000000 
#    z 0.000000 0.000000 3.312590 
# 
# 
# High freq. dielectric constant tensor:
#      x y z
#    x 1.724030 0.000000 0.000000 
#    y 0.000000 1.700450 0.000000 
#    z 0.000000 0.000000 1.691870 
# 
# From -- ./inp_files/60235.got.cif
#   From: 2010.03.12/outbox.cif.g09.slc.cpg/sg65_31_cif.got.tgz:60235.got - 2010.04.10 20:52:16.
