data_PCOD8273430
_publ_section_title
;
Structure prediction by ZEFSAII (Michael W. Deem and Ramdas Pophale) SiO2 
 PCOD8273430
Probable space group: C M M M
;
_chemical_formula_sum "Si O2"
_cell_formula_units_Z 104
_cell_length_a 8.776685
_cell_length_b 27.974478
_cell_length_c 21.642271
_cell_angle_alpha 90.000000
_cell_angle_beta 90.000000
_cell_angle_gamma 90.000000
_cell_volume 5313.679230
_symmetry_space_group_name_H-M "C M M M"
_symmetry_group_IT_number 65
_symmetry_cell_setting 'orthorhombic'
loop_
_space_group_symop_operation_xyz
x,y,z
-x,-y,z
x,-y,-z
-x,y,-z
-x,-y,-z
x,y,-z
-x,y,z
x,-y,z
1/2+x,1/2+y,z
1/2-x,1/2-y,z
1/2+x,1/2-y,-z
1/2-x,1/2+y,-z
1/2-x,1/2-y,-z
1/2+x,1/2+y,-z
1/2-x,1/2+y,z
1/2+x,1/2-y,z
loop_
_atom_site_type_symbol
_atom_site_label
_atom_site_fract_x
_atom_site_fract_y
_atom_site_fract_z
Si Si1 0.680420 0.801822 0.000000
Si Si2 0.820582 0.052762 0.683322
Si Si3 0.680004 0.800513 0.361673
Si Si4 0.319696 0.646387 0.249127
Si Si5 0.322825 0.385253 0.569966
Si Si6 0.673809 0.446178 0.071605
Si Si7 0.322361 0.857787 0.120944
O O1 0.750000 0.750000 0.000000
O O2 0.738285 0.829170 0.061118
O O3 0.500000 0.798863 0.000000
O O4 0.765410 0.092175 0.733565
O O5 0.774699 0.071205 0.614890
O O6 0.000000 0.047486 0.688398
O O7 0.746430 0.000000 0.694781
O O8 0.500000 0.796321 0.357480
O O9 0.750000 0.750000 0.381076
O O10 0.744799 0.816011 0.295318
O O11 0.725966 0.838332 0.414258
O O12 0.500000 0.651087 0.254810
O O13 0.266815 0.660675 0.180764
O O14 0.288916 0.401303 0.500000
O O15 0.500000 0.372497 0.580223
O O16 0.500000 0.429414 0.082282
O O17 0.694913 0.500000 0.095732
O O18 0.787060 0.413590 0.110863
O O19 0.717661 0.442903 0.000000
O O20 0.500000 0.850111 0.131831
#
# Coordination Sequence:
#
# PCOD8273430 Si02
#       7
#     8  16  16  16  16  16  16
#     4  10  24  42  59  80 107 139 178 225 277 338
#     4   8  15  30  53  81 113 148 187 230 271 313
#     4  11  22  38  59  81 108 144 185 233 285 339
#     4  10  21  37  57  83 112 146 187 232 278 331
#     4   9  18  33  54  83 117 150 188 232 277 329
#     4   9  18  33  54  80 108 141 182 223 267 326
#     4  11  22  38  57  82 113 145 182 229 284 341
#
# _framework density 19.572126000000001
#
# number of rings (size 3 to 8) (size 9 to 14) (size 15 to 20)
#    0.000    2.308    0.769    3.692    0.000    3.692 
#    0.000    5.385    0.000   11.077    0.000    4.308 
#    0.000    0.000    0.000    0.000    0.000    0.000 
#
# Total GULP energy -644775.980786 kJ/mol
# GULP energy per Si atom -12399.538092 kJ/mol
# Density = 1.952758 g / cm^3
# Si number density = 19.572126 Si / 1000 Ang^3
#
#
#
# Elastic Constant Matrix: (Units=GPa)
#
#
# Indices 1 2 3 4 5 6 
#
# 1 70.3776 20.3680 23.8265 0.0000 0.0000 0.0000
# 2 20.3680 82.4228 15.9831 0.0000 0.0000 0.0000
# 3 23.8265 15.9831 107.0842 0.0000 0.0000 0.0000
# 4 0.0000 0.0000 0.0000 10.7424 0.0000 0.0000
# 5 0.0000 0.0000 0.0000 0.0000 29.3897 0.0000
# 6 0.0000 0.0000 0.0000 0.0000 0.0000 28.8355
#
#
#
# Elastic Compliance Matrix: (Units=1/GPa)
#
#
# Indices 1 2 3 4 5 6 
#
# 1 0.016248 -0.003413 -0.003106 0.000000 0.000000 0.000000
# 2 -0.003413 0.013211 -0.001212 0.000000 0.000000 0.000000
# 3 -0.003106 -0.001212 0.010210 0.000000 0.000000 0.000000
# 4 0.000000 0.000000 0.000000 0.093089 0.000000 0.000000
# 5 0.000000 0.000000 0.000000 0.000000 0.034025 0.000000
# 6 0.000000 0.000000 0.000000 0.000000 0.000000 0.034679
#
#
# Mechanical properties :
#
#
# Convention : Reuss Voigt Hill
#
# Bulk Modulus (GPa) = 41.30985 42.24887 41.77936
# Shear Modulus (GPa) = 22.22265 27.10732 24.66499
#
# Velocity S-wave (km/s) = 3.37326 3.72559 3.55379
# Velocity P-wave (km/s) = 6.02695 6.33560 6.18320
#
# Compressibility (1/GPa) = 0.02420730
#
# Stress axis : x y z
#
# Youngs Moduli (GPa) = 61.54486 75.69406 97.93854
#
# Poissons Ratio (x) = 0.25834 0.30419
# Poissons Ratio (y) = 0.21005 0.11875
# Poissons Ratio (z) = 0.19115 0.09178
#
# Static dielectric constant tensor:
#      x y z
#    x 3.360280 0.000000 0.000000 
#    y 0.000000 3.756010 0.000000 
#    z 0.000000 0.000000 3.612630 
# 
# 
# High freq. dielectric constant tensor:
#      x y z
#    x 1.742690 0.000000 0.000000 
#    y 0.000000 1.761590 0.000000 
#    z 0.000000 0.000000 1.763390 
# 
# From -- ./inp_files/60423.got.cif
#   From: 2010.03.12/outbox.cif.g09.slc.cpg/sg65_31_cif.got.tgz:60423.got - 2010.04.10 20:52:16.
