data_PCOD8273224
_publ_section_title
;
Structure prediction by ZEFSAII (Michael W. Deem and Ramdas Pophale) SiO2 
 PCOD8273224
Probable space group: C M M M
;
_chemical_formula_sum "Si O2"
_cell_formula_units_Z 64
_cell_length_a 23.651467
_cell_length_b 14.314052
_cell_length_c 9.127063
_cell_angle_alpha 90.000000
_cell_angle_beta 90.000000
_cell_angle_gamma 90.000000
_cell_volume 3089.951923
_symmetry_space_group_name_H-M "C M M M"
_symmetry_group_IT_number 65
_symmetry_cell_setting 'orthorhombic'
loop_
_space_group_symop_operation_xyz
x,y,z
-x,-y,z
x,-y,-z
-x,y,-z
-x,-y,-z
x,y,-z
-x,y,z
x,-y,z
1/2+x,1/2+y,z
1/2-x,1/2-y,z
1/2+x,1/2-y,-z
1/2-x,1/2+y,-z
1/2-x,1/2-y,-z
1/2+x,1/2+y,-z
1/2-x,1/2+y,z
1/2+x,1/2-y,z
loop_
_atom_site_type_symbol
_atom_site_label
_atom_site_fract_x
_atom_site_fract_y
_atom_site_fract_z
Si Si1 0.000000 0.897591 0.258590
Si Si2 0.104514 0.608677 0.172341
Si Si3 0.500000 0.195951 0.338370
Si Si4 0.684746 0.763299 0.329036
Si Si5 0.123551 0.895211 0.837733
O O1 0.000000 0.807895 0.364981
O O2 0.055666 0.890264 0.159048
O O3 0.000000 0.000000 0.340627
O O4 0.098784 0.500000 0.208339
O O5 0.054453 0.664693 0.248685
O O6 0.163191 0.646977 0.238115
O O7 0.102226 0.628117 0.000000
O O8 0.500000 0.149739 0.500000
O O9 0.674343 0.781480 0.500000
O O10 0.750000 0.750000 0.291197
O O11 0.650436 0.671244 0.283803
O O12 0.143963 0.000000 0.800719
O O13 0.144395 0.865447 0.000000
#
# Coordination Sequence:
#
# PCOD8273224 Si02
#       5
#     8  16   8  16  16
#     4  10  21  36  61  99 135 164 197 243 307 377
#     4  11  25  44  67  94 125 166 214 264 317 374
#     4  12  24  39  65  99 133 169 206 253 317 382
#     4  11  25  43  63  90 125 166 210 260 319 374
#     4  10  21  38  63  94 127 163 203 250 308 374
#
# _framework density 20.712295999999998
#
# number of rings (size 3 to 8) (size 9 to 14) (size 15 to 20)
#    0.000    1.250    2.500    2.625    0.000    9.750 
#    0.000    7.500    0.000    0.000    0.000    0.000 
#    0.000    0.000    0.000    0.000    0.000    0.000 
#
# Total GULP energy -396757.767145 kJ/mol
# GULP energy per Si atom -12398.680223 kJ/mol
# Density = 2.066515 g / cm^3
# Si number density = 20.712296 Si / 1000 Ang^3
#
#
#
# Elastic Constant Matrix: (Units=GPa)
#
#
# Indices 1 2 3 4 5 6 
#
# 1 122.0125 55.3213 54.8641 0.0000 0.0000 0.0000
# 2 55.3213 148.9662 57.0601 0.0000 0.0000 0.0000
# 3 54.8641 57.0601 117.7033 0.0000 0.0000 0.0000
# 4 0.0000 0.0000 0.0000 16.9798 0.0000 0.0000
# 5 0.0000 0.0000 0.0000 0.0000 18.0619 0.0000
# 6 0.0000 0.0000 0.0000 0.0000 0.0000 15.2010
#
#
#
# Elastic Compliance Matrix: (Units=1/GPa)
#
#
# Indices 1 2 3 4 5 6 
#
# 1 0.011156 -0.002642 -0.003919 0.000000 0.000000 0.000000
# 2 -0.002642 0.008869 -0.003068 0.000000 0.000000 0.000000
# 3 -0.003919 -0.003068 0.011810 0.000000 0.000000 0.000000
# 4 0.000000 0.000000 0.000000 0.058894 0.000000 0.000000
# 5 0.000000 0.000000 0.000000 0.000000 0.055365 0.000000
# 6 0.000000 0.000000 0.000000 0.000000 0.000000 0.065785
#
#
# Mechanical properties :
#
#
# Convention : Reuss Voigt Hill
#
# Bulk Modulus (GPa) = 79.51155 80.35256 79.93205
# Shear Modulus (GPa) = 21.24672 24.81098 23.02885
#
# Velocity S-wave (km/s) = 3.20629 3.46480 3.33805
# Velocity P-wave (km/s) = 7.22350 7.40846 7.31657
#
# Compressibility (1/GPa) = 0.01257679
#
# Stress axis : x y z
#
# Youngs Moduli (GPa) = 89.63742 112.74908 84.67180
#
# Poissons Ratio (x) = 0.29785 0.33187
# Poissons Ratio (y) = 0.23680 0.25980
# Poissons Ratio (z) = 0.35133 0.34595
#
# Static dielectric constant tensor:
#      x y z
#    x 3.811130 0.000000 0.000000 
#    y 0.000000 4.004470 0.000000 
#    z 0.000000 0.000000 3.638050 
# 
# 
# High freq. dielectric constant tensor:
#      x y z
#    x 1.805950 0.000000 0.000000 
#    y 0.000000 1.824860 0.000000 
#    z 0.000000 0.000000 1.810470 
# 
# From -- ./inp_files/13394.got.cif
#   From: 2010.03.12/outbox.cif.g09.slc.cpg/sg65_7_cif.got.tgz:13394.got - 2010.04.10 20:52:16.
