data_PCOD8273609
_publ_section_title
;
Structure prediction by ZEFSAII (Michael W. Deem and Ramdas Pophale) SiO2 
 PCOD8273609
Probable space group: C M M M
;
_chemical_formula_sum "Si O2"
_cell_formula_units_Z 72
_cell_length_a 7.432614
_cell_length_b 28.103687
_cell_length_c 15.823041
_cell_angle_alpha 90.000000
_cell_angle_beta 90.000000
_cell_angle_gamma 90.000000
_cell_volume 3305.177841
_symmetry_space_group_name_H-M "C M M M"
_symmetry_group_IT_number 65
_symmetry_cell_setting 'orthorhombic'
loop_
_space_group_symop_operation_xyz
x,y,z
-x,-y,z
x,-y,-z
-x,y,-z
-x,-y,-z
x,y,-z
-x,y,z
x,-y,z
1/2+x,1/2+y,z
1/2-x,1/2-y,z
1/2+x,1/2-y,-z
1/2-x,1/2+y,-z
1/2-x,1/2-y,-z
1/2+x,1/2+y,-z
1/2-x,1/2+y,z
1/2+x,1/2-y,z
loop_
_atom_site_type_symbol
_atom_site_label
_atom_site_fract_x
_atom_site_fract_y
_atom_site_fract_z
Si Si1 0.711072 0.805022 0.000000
Si Si2 0.208446 0.694558 0.500000
Si Si3 0.783355 0.630387 0.652227
Si Si4 0.302590 0.852574 0.834774
Si Si5 0.210455 0.947624 0.097039
Si Si6 0.000000 0.055205 0.399577
O O1 0.750000 0.750000 0.000000
O O2 0.800338 0.827553 0.085686
O O3 0.500000 0.817121 0.000000
O O4 0.250000 0.750000 0.500000
O O5 0.285003 0.668677 0.416797
O O6 0.000000 0.685828 0.500000
O O7 0.716684 0.653384 0.741722
O O8 0.680176 0.580720 0.636046
O O9 0.000000 0.621345 0.651296
O O10 0.500000 0.829597 0.830985
O O11 0.318267 0.909130 0.849468
O O12 0.000000 0.938328 0.108470
O O13 0.262750 0.000000 0.130294
O O14 0.267021 0.942470 0.000000
O O15 0.000000 0.058321 0.500000
O O16 0.000000 0.000000 0.369586
#
# Coordination Sequence:
#
# PCOD8273609 Si02
#       6
#     8   8  16  16  16   8
#     4  10  22  40  59  84 119 159 212 263 313 378
#     4  10  22  40  66  93 121 158 200 260 327 382
#     4  10  23  43  63  92 134 169 209 264 321 388
#     4  10  21  38  59  82 117 162 201 248 305 362
#     4   9  18  32  51  79 113 148 192 242 290 345
#     4  11  24  42  70  99 129 173 219 264 322 395
#
# _framework density 21.784001
#
# number of rings (size 3 to 8) (size 9 to 14) (size 15 to 20)
#    0.000    2.111    2.222    0.667    3.111    3.556 
#    0.000    4.444    0.000    0.000    0.000    0.000 
#    0.000    0.000    0.000    0.000    0.000    0.000 
#
# Total GULP energy -446060.706640 kJ/mol
# GULP energy per Si atom -12390.575184 kJ/mol
# Density = 2.173442 g / cm^3
# Si number density = 21.784001 Si / 1000 Ang^3
#
#
#
# Elastic Constant Matrix: (Units=GPa)
#
#
# Indices 1 2 3 4 5 6 
#
# 1 57.3866 16.0442 19.9336 0.0000 0.0000 0.0000
# 2 16.0442 156.1483 90.0003 0.0000 0.0000 0.0000
# 3 19.9336 90.0003 204.0392 0.0000 0.0000 0.0000
# 4 0.0000 0.0000 0.0000 17.4957 0.0000 0.0000
# 5 0.0000 0.0000 0.0000 0.0000 13.7693 0.0000
# 6 0.0000 0.0000 0.0000 0.0000 0.0000 30.3796
#
#
#
# Elastic Compliance Matrix: (Units=1/GPa)
#
#
# Indices 1 2 3 4 5 6 
#
# 1 0.018186 -0.001132 -0.001277 0.000000 0.000000 0.000000
# 2 -0.001132 0.008658 -0.003708 0.000000 0.000000 0.000000
# 3 -0.001277 -0.003708 0.006661 0.000000 0.000000 0.000000
# 4 0.000000 0.000000 0.000000 0.057157 0.000000 0.000000
# 5 0.000000 0.000000 0.000000 0.000000 0.072625 0.000000
# 6 0.000000 0.000000 0.000000 0.000000 0.000000 0.032917
#
#
# Mechanical properties :
#
#
# Convention : Reuss Voigt Hill
#
# Bulk Modulus (GPa) = 47.01577 74.39226 60.70402
# Shear Modulus (GPa) = 23.19862 31.76866 27.48364
#
# Velocity S-wave (km/s) = 3.26688 3.82298 3.55582
# Velocity P-wave (km/s) = 5.98829 7.32877 6.69218
#
# Compressibility (1/GPa) = 0.02126946
#
# Stress axis : x y z
#
# Youngs Moduli (GPa) = 54.98761 115.50130 150.11646
#
# Poissons Ratio (x) = 0.13080 0.19172
# Poissons Ratio (y) = 0.06227 0.55668
# Poissons Ratio (z) = 0.07023 0.42831
#
# Static dielectric constant tensor:
#      x y z
#    x 3.770500 0.000000 0.000000 
#    y 0.000000 3.720700 0.000000 
#    z 0.000000 0.000000 4.345280 
# 
# 
# High freq. dielectric constant tensor:
#      x y z
#    x 1.841500 0.000000 0.000000 
#    y 0.000000 1.843450 0.000000 
#    z 0.000000 0.000000 1.867960 
# 
# From -- ./inp_files/36638.got.cif
#   From: 2010.03.12/outbox.cif.g09.slc.cpg/sg65_19_cif.got.tgz:36638.got - 2010.04.10 20:52:16.
