data_PCOD8273412
_publ_section_title
;
Structure prediction by ZEFSAII (Michael W. Deem and Ramdas Pophale) SiO2 
 PCOD8273412
Probable space group: C M M M
;
_chemical_formula_sum "Si O2"
_cell_formula_units_Z 88
_cell_length_a 9.236735
_cell_length_b 18.614043
_cell_length_c 28.205322
_cell_angle_alpha 90.000000
_cell_angle_beta 90.000000
_cell_angle_gamma 90.000000
_cell_volume 4849.425133
_symmetry_space_group_name_H-M "C M M M"
_symmetry_group_IT_number 65
_symmetry_cell_setting 'orthorhombic'
loop_
_space_group_symop_operation_xyz
x,y,z
-x,-y,z
x,-y,-z
-x,y,-z
-x,-y,-z
x,y,-z
-x,y,z
x,-y,z
1/2+x,1/2+y,z
1/2-x,1/2-y,z
1/2+x,1/2-y,-z
1/2-x,1/2+y,-z
1/2-x,1/2-y,-z
1/2+x,1/2+y,-z
1/2-x,1/2+y,z
1/2+x,1/2-y,z
loop_
_atom_site_type_symbol
_atom_site_label
_atom_site_fract_x
_atom_site_fract_y
_atom_site_fract_z
Si Si1 0.833265 0.179125 0.833076
Si Si2 0.667972 0.416136 0.079433
Si Si3 0.669352 0.581818 0.641224
Si Si4 0.669860 0.321581 0.273357
Si Si5 0.674509 0.827668 0.000000
Si Si6 0.835989 0.585403 0.551799
O O1 0.750000 0.250000 0.850706
O O2 0.802890 0.112007 0.867429
O O3 0.785286 0.155568 0.780117
O O4 0.000000 0.201208 0.833950
O O5 0.500000 0.404089 0.064697
O O6 0.708065 0.500000 0.077139
O O7 0.773929 0.372033 0.045577
O O8 0.500000 0.589890 0.633921
O O9 0.718900 0.500000 0.646085
O O10 0.721746 0.618131 0.689886
O O11 0.741824 0.618110 0.594790
O O12 0.500000 0.308030 0.276935
O O13 0.750000 0.250000 0.288790
O O14 0.750000 0.750000 0.000000
O O15 0.500000 0.819510 0.000000
O O16 0.780948 0.613007 0.500000
O O17 0.824084 0.500000 0.552417
O O18 0.000000 0.610515 0.559685
#
# Coordination Sequence:
#
# PCOD8273412 Si02
#       6
#    16  16  16  16   8  16
#     4   9  18  33  53  75  99 131 169 206 244 290
#     4  10  21  37  57  82 111 140 171 210 256 303
#     4   9  17  28  44  68  95 121 152 194 241 287
#     4   9  18  32  49  70  97 129 164 200 240 288
#     4  12  25  40  59  81 107 141 179 216 255 300
#     4   8  14  25  41  62  89 120 153 190 234 285
#
# _framework density 18.146481999999999
#
# number of rings (size 3 to 8) (size 9 to 14) (size 15 to 20)
#    0.000    2.727    0.000    2.182    0.000    5.455 
#    0.000    5.455    0.000    0.545    0.000    7.636 
#    0.000    0.000    0.000    0.000    0.000    0.000 
#
# Total GULP energy -545413.067134 kJ/mol
# GULP energy per Si atom -12395.751526 kJ/mol
# Density = 1.810518 g / cm^3
# Si number density = 18.146482 Si / 1000 Ang^3
#
#
#
# Elastic Constant Matrix: (Units=GPa)
#
#
# Indices 1 2 3 4 5 6 
#
# 1 60.0897 46.0701 54.3529 0.0000 0.0000 0.0000
# 2 46.0701 96.1652 69.2608 0.0000 0.0000 0.0000
# 3 54.3529 69.2608 141.5082 0.0000 0.0000 0.0000
# 4 0.0000 0.0000 0.0000 15.2163 0.0000 0.0000
# 5 0.0000 0.0000 0.0000 0.0000 28.0580 0.0000
# 6 0.0000 0.0000 0.0000 0.0000 0.0000 24.2956
#
#
#
# Elastic Compliance Matrix: (Units=1/GPa)
#
#
# Indices 1 2 3 4 5 6 
#
# 1 0.030187 -0.009438 -0.006975 0.000000 0.000000 0.000000
# 2 -0.009438 0.019011 -0.005680 0.000000 0.000000 0.000000
# 3 -0.006975 -0.005680 0.012526 0.000000 0.000000 0.000000
# 4 0.000000 0.000000 0.000000 0.065719 0.000000 0.000000
# 5 0.000000 0.000000 0.000000 0.000000 0.035640 0.000000
# 6 0.000000 0.000000 0.000000 0.000000 0.000000 0.041160
#
#
# Mechanical properties :
#
#
# Convention : Reuss Voigt Hill
#
# Bulk Modulus (GPa) = 57.01978 70.79231 63.90604
# Shear Modulus (GPa) = 19.66367 22.05258 20.85812
#
# Velocity S-wave (km/s) = 3.29539 3.48983 3.39400
# Velocity P-wave (km/s) = 6.78009 7.43874 7.11704
#
# Compressibility (1/GPa) = 0.01753778
#
# Stress axis : x y z
#
# Youngs Moduli (GPa) = 33.12647 52.60121 79.83438
#
# Poissons Ratio (x) = 0.49645 0.55688
# Poissons Ratio (y) = 0.31265 0.45344
# Poissons Ratio (z) = 0.23107 0.29876
#
# Static dielectric constant tensor:
#      x y z
#    x 3.316830 0.000000 0.000000 
#    y 0.000000 3.224460 0.000000 
#    z 0.000000 0.000000 3.833250 
# 
# 
# High freq. dielectric constant tensor:
#      x y z
#    x 1.693410 0.000000 0.000000 
#    y 0.000000 1.675030 0.000000 
#    z 0.000000 0.000000 1.722300 
# 
# From -- ./inp_files/76647.got.cif
#   From: 2010.03.12/outbox.cif.g09.slc.cpg/sg65_39_cif.got.tgz:76647.got - 2010.04.10 20:52:16.
