data_PCOD8273064
_publ_section_title
;
Structure prediction by ZEFSAII (Michael W. Deem and Ramdas Pophale) SiO2 
 PCOD8273064
Probable space group: C M M M
;
_chemical_formula_sum "Si O2"
_cell_formula_units_Z 72
_cell_length_a 15.363938
_cell_length_b 29.445726
_cell_length_c 8.079916
_cell_angle_alpha 90.000000
_cell_angle_beta 90.000000
_cell_angle_gamma 90.000000
_cell_volume 3655.372652
_symmetry_space_group_name_H-M "C M M M"
_symmetry_group_IT_number 65
_symmetry_cell_setting 'orthorhombic'
loop_
_space_group_symop_operation_xyz
x,y,z
-x,-y,z
x,-y,-z
-x,y,-z
-x,-y,-z
x,y,-z
-x,y,z
x,-y,z
1/2+x,1/2+y,z
1/2-x,1/2-y,z
1/2+x,1/2-y,-z
1/2-x,1/2+y,-z
1/2-x,1/2-y,-z
1/2+x,1/2+y,-z
1/2-x,1/2+y,z
1/2+x,1/2-y,z
loop_
_atom_site_type_symbol
_atom_site_label
_atom_site_fract_x
_atom_site_fract_y
_atom_site_fract_z
Si Si1 0.401503 0.197050 0.195080
Si Si2 0.759157 0.862417 0.189683
Si Si3 0.093702 0.446953 0.000000
Si Si4 0.206743 0.448924 0.685937
Si Si5 0.401287 0.296337 0.690550
O O1 0.500000 0.181981 0.244392
O O2 0.330538 0.160466 0.256465
O O3 0.376245 0.244082 0.282599
O O4 0.393411 0.204593 0.000000
O O5 0.778711 0.908916 0.295082
O O6 0.839605 0.828518 0.202946
O O7 0.747213 0.876603 0.000000
O O8 0.138538 0.433418 0.827071
O O9 0.080606 0.500000 0.000000
O O10 0.000000 0.421990 0.000000
O O11 0.166825 0.448097 0.500000
O O12 0.243410 0.500000 0.722201
O O13 0.389077 0.308971 0.500000
O O14 0.500000 0.304823 0.750331
#
# Coordination Sequence:
#
# PCOD8273064 Si02
#       5
#    16  16   8  16  16
#     4   9  19  35  53  77 111 147 183 225 275 333
#     4  11  21  34  56  84 109 147 190 233 283 338
#     4   9  18  34  54  76 106 143 185 233 280 330
#     4  10  21  37  56  80 111 148 190 236 285 335
#     4  10  21  36  54  78 110 145 184 234 286 337
#
# _framework density 19.697033999999999
#
# number of rings (size 3 to 8) (size 9 to 14) (size 15 to 20)
#    0.000    2.111    1.111    2.000    0.000    7.111 
#    0.000    2.222    0.000    0.667    0.000    4.667 
#    0.000    0.000    0.000    0.000    0.000    0.000 
#
# Total GULP energy -446124.825315 kJ/mol
# GULP energy per Si atom -12392.356259 kJ/mol
# Density = 1.965220 g / cm^3
# Si number density = 19.697034 Si / 1000 Ang^3
#
#
#
# Elastic Constant Matrix: (Units=GPa)
#
#
# Indices 1 2 3 4 5 6 
#
# 1 75.6944 61.5406 24.0330 0.0000 0.0000 0.0000
# 2 61.5406 134.6906 36.4331 0.0000 0.0000 0.0000
# 3 24.0330 36.4331 85.3674 0.0000 0.0000 0.0000
# 4 0.0000 0.0000 0.0000 30.5897 0.0000 0.0000
# 5 0.0000 0.0000 0.0000 0.0000 15.5646 0.0000
# 6 0.0000 0.0000 0.0000 0.0000 0.0000 12.4969
#
#
#
# Elastic Compliance Matrix: (Units=1/GPa)
#
#
# Indices 1 2 3 4 5 6 
#
# 1 0.021343 -0.009187 -0.002088 0.000000 0.000000 0.000000
# 2 -0.009187 0.012348 -0.002683 0.000000 0.000000 0.000000
# 3 -0.002088 -0.002683 0.013447 0.000000 0.000000 0.000000
# 4 0.000000 0.000000 0.000000 0.032691 0.000000 0.000000
# 5 0.000000 0.000000 0.000000 0.000000 0.064248 0.000000
# 6 0.000000 0.000000 0.000000 0.000000 0.000000 0.080020
#
#
# Mechanical properties :
#
#
# Convention : Reuss Voigt Hill
#
# Bulk Modulus (GPa) = 52.02495 59.97399 55.99947
# Shear Modulus (GPa) = 19.34833 23.31330 21.33082
#
# Velocity S-wave (km/s) = 3.13756 3.44407 3.29438
# Velocity P-wave (km/s) = 6.29251 6.80660 6.55460
#
# Compressibility (1/GPa) = 0.01922155
#
# Stress axis : x y z
#
# Youngs Moduli (GPa) = 46.85376 80.98583 74.36567
#
# Poissons Ratio (x) = 0.74401 0.15526
# Poissons Ratio (y) = 0.43044 0.19956
# Poissons Ratio (z) = 0.09782 0.21732
#
# Static dielectric constant tensor:
#      x y z
#    x 3.521840 0.000000 0.000000 
#    y 0.000000 3.720220 0.000000 
#    z 0.000000 0.000000 3.580420 
# 
# 
# High freq. dielectric constant tensor:
#      x y z
#    x 1.730440 0.000000 0.000000 
#    y 0.000000 1.779250 0.000000 
#    z 0.000000 0.000000 1.774290 
# 
# From -- ./inp_files/7694.got.cif
#   From: 2010.03.12/outbox.cif.g09.slc.cpg/sg65_4_cif.got.tgz:7694.got - 2010.04.10 20:52:16.
