data_PCOD8273896
_publ_section_title
;
Structure prediction by ZEFSAII (Michael W. Deem and Ramdas Pophale) SiO2 
 PCOD8273896
Probable space group: C M M M
;
_chemical_formula_sum "Si O2"
_cell_formula_units_Z 72
_cell_length_a 8.736675
_cell_length_b 28.214605
_cell_length_c 18.307110
_cell_angle_alpha 90.000000
_cell_angle_beta 90.000000
_cell_angle_gamma 90.000000
_cell_volume 4512.736193
_symmetry_space_group_name_H-M "C M M M"
_symmetry_group_IT_number 65
_symmetry_cell_setting 'orthorhombic'
loop_
_space_group_symop_operation_xyz
x,y,z
-x,-y,z
x,-y,-z
-x,y,-z
-x,-y,-z
x,y,-z
-x,y,z
x,-y,z
1/2+x,1/2+y,z
1/2-x,1/2-y,z
1/2+x,1/2-y,-z
1/2-x,1/2+y,-z
1/2-x,1/2-y,-z
1/2+x,1/2+y,-z
1/2-x,1/2+y,z
1/2+x,1/2-y,z
loop_
_atom_site_type_symbol
_atom_site_label
_atom_site_fract_x
_atom_site_fract_y
_atom_site_fract_z
Si Si1 0.679168 0.301624 0.079068
Si Si2 0.179473 0.143135 0.356578
Si Si3 0.319615 0.698462 0.500000
Si Si4 0.319623 0.802169 0.775990
Si Si5 0.322445 0.946297 0.415888
O O1 0.500000 0.297756 0.095501
O O2 0.750000 0.250000 0.074057
O O3 0.760725 0.326651 0.148151
O O4 0.707848 0.327311 0.000000
O O5 0.237044 0.170656 0.428556
O O6 0.270668 0.163476 0.288498
O O7 0.220137 0.087865 0.365781
O O8 0.000000 0.149384 0.343166
O O9 0.500000 0.702980 0.500000
O O10 0.250000 0.750000 0.500000
O O11 0.500000 0.797278 0.777717
O O12 0.250000 0.750000 0.764302
O O13 0.273010 0.940333 0.500000
O O14 0.500000 0.933333 0.406211
O O15 0.291142 0.000000 0.390129
#
# Coordination Sequence:
#
# PCOD8273896 Si02
#       5
#    16  16   8  16  16
#     4   9  16  27  44  65  89 119 154 191 230 272
#     4  11  21  34  48  67  92 121 159 196 236 279
#     4  10  22  34  45  62  85 119 158 195 229 268
#     4  11  21  32  46  66  93 127 161 195 235 275
#     4   9  18  33  52  72  92 116 149 190 238 287
#
# _framework density 15.954844
#
# number of rings (size 3 to 8) (size 9 to 14) (size 15 to 20)
#    0.000    2.000    1.111    6.000    0.000    5.333 
#    0.000    1.111    0.000    0.000    0.000    0.000 
#    0.000    0.889    0.000    9.333    0.000    4.000 
#
# Total GULP energy -446267.817623 kJ/mol
# GULP energy per Si atom -12396.328267 kJ/mol
# Density = 1.591853 g / cm^3
# Si number density = 15.954844 Si / 1000 Ang^3
#
#
#
# Elastic Constant Matrix: (Units=GPa)
#
#
# Indices 1 2 3 4 5 6 
#
# 1 94.2956 30.0665 52.8793 0.0000 0.0000 0.0000
# 2 30.0665 72.0180 42.3955 0.0000 0.0000 0.0000
# 3 52.8793 42.3955 134.0102 0.0000 0.0000 0.0000
# 4 0.0000 0.0000 0.0000 4.6091 0.0000 0.0000
# 5 0.0000 0.0000 0.0000 0.0000 15.2036 0.0000
# 6 0.0000 0.0000 0.0000 0.0000 0.0000 24.6844
#
#
#
# Elastic Compliance Matrix: (Units=1/GPa)
#
#
# Indices 1 2 3 4 5 6 
#
# 1 0.014206 -0.003233 -0.004583 0.000000 0.000000 0.000000
# 2 -0.003233 0.017799 -0.004355 0.000000 0.000000 0.000000
# 3 -0.004583 -0.004355 0.010648 0.000000 0.000000 0.000000
# 4 0.000000 0.000000 0.000000 0.216961 0.000000 0.000000
# 5 0.000000 0.000000 0.000000 0.000000 0.065774 0.000000
# 6 0.000000 0.000000 0.000000 0.000000 0.000000 0.040511
#
#
# Mechanical properties :
#
#
# Convention : Reuss Voigt Hill
#
# Bulk Modulus (GPa) = 54.61133 61.22293 57.91713
# Shear Modulus (GPa) = 12.61528 20.56494 16.59011
#
# Velocity S-wave (km/s) = 2.81497 3.59408 3.22812
# Velocity P-wave (km/s) = 6.69839 7.46185 7.09040
#
# Compressibility (1/GPa) = 0.01831122
#
# Stress axis : x y z
#
# Youngs Moduli (GPa) = 70.39452 56.18315 93.91254
#
# Poissons Ratio (x) = 0.18164 0.43037
# Poissons Ratio (y) = 0.22758 0.40901
# Poissons Ratio (z) = 0.32259 0.24469
#
# Static dielectric constant tensor:
#      x y z
#    x 3.127490 0.000000 0.000000 
#    y 0.000000 2.728670 0.000000 
#    z 0.000000 0.000000 3.594720 
# 
# 
# High freq. dielectric constant tensor:
#      x y z
#    x 1.626950 0.000000 0.000000 
#    y 0.000000 1.570390 0.000000 
#    z 0.000000 0.000000 1.615920 
# 
# From -- ./inp_files/49476.got.cif
#   From: 2010.03.12/outbox.cif.g09.slc.cpg/sg65_25_cif.got.tgz:49476.got - 2010.04.10 20:52:16.
