data_PCOD8273759
_publ_section_title
;
Structure prediction by ZEFSAII (Michael W. Deem and Ramdas Pophale) SiO2 
 PCOD8273759
Probable space group: C M M M
;
_chemical_formula_sum "Si O2"
_cell_formula_units_Z 56
_cell_length_a 12.396700
_cell_length_b 24.661868
_cell_length_c 8.821005
_cell_angle_alpha 90.000000
_cell_angle_beta 90.000000
_cell_angle_gamma 90.000000
_cell_volume 2696.808626
_symmetry_space_group_name_H-M "C M M M"
_symmetry_group_IT_number 65
_symmetry_cell_setting 'orthorhombic'
loop_
_space_group_symop_operation_xyz
x,y,z
-x,-y,z
x,-y,-z
-x,y,-z
-x,-y,-z
x,y,-z
-x,y,z
x,-y,z
1/2+x,1/2+y,z
1/2-x,1/2-y,z
1/2+x,1/2-y,-z
1/2-x,1/2+y,-z
1/2-x,1/2-y,-z
1/2+x,1/2+y,-z
1/2-x,1/2+y,z
1/2+x,1/2-y,z
loop_
_atom_site_type_symbol
_atom_site_label
_atom_site_fract_x
_atom_site_fract_y
_atom_site_fract_z
Si Si1 0.127407 0.000000 0.680208
Si Si2 0.500000 0.764008 0.672592
Si Si3 0.722877 0.090689 0.820076
Si Si4 0.000000 0.386111 0.318355
Si Si5 0.673746 0.701871 0.838683
O O1 0.186673 0.051916 0.749926
O O2 0.140567 0.000000 0.500000
O O3 0.000000 0.000000 0.724985
O O4 0.500000 0.778872 0.500000
O O5 0.500000 0.823947 0.749627
O O6 0.598329 0.724945 0.709336
O O7 0.605295 0.082377 0.744734
O O8 0.761028 0.150808 0.775205
O O9 0.713661 0.081179 0.000000
O O10 0.000000 0.388934 0.500000
O O11 0.750000 0.750000 0.883104
O O12 0.615146 0.686243 0.000000
#
# Coordination Sequence:
#
# PCOD8273759 Si02
#       5
#     8   8  16   8  16
#     4  11  27  50  71  94 129 167 209 265 326 385
#     4  11  23  35  56  91 132 173 211 257 313 382
#     4  11  24  43  69  97 127 169 221 269 315 377
#     4  11  23  40  64  97 136 172 210 263 324 382
#     4  10  21  38  61  91 128 169 210 256 314 376
#
# _framework density 20.765284999999999
#
# number of rings (size 3 to 8) (size 9 to 14) (size 15 to 20)
#    0.000    1.286    2.857    2.143    2.000    5.714 
#    0.000    2.857    0.000    0.000    0.000    0.000 
#    0.000    0.000    0.000    0.000    0.000    0.000 
#
# Total GULP energy -346930.829754 kJ/mol
# GULP energy per Si atom -12390.386777 kJ/mol
# Density = 2.071802 g / cm^3
# Si number density = 20.765285 Si / 1000 Ang^3
#
#
#
# Elastic Constant Matrix: (Units=GPa)
#
#
# Indices 1 2 3 4 5 6 
#
# 1 165.3034 60.8540 64.6878 0.0000 0.0000 0.0000
# 2 60.8540 116.8241 36.3264 0.0000 0.0000 0.0000
# 3 64.6878 36.3264 108.6969 0.0000 0.0000 0.0000
# 4 0.0000 0.0000 0.0000 34.5670 0.0000 0.0000
# 5 0.0000 0.0000 0.0000 0.0000 38.0623 0.0000
# 6 0.0000 0.0000 0.0000 0.0000 0.0000 34.3461
#
#
#
# Elastic Compliance Matrix: (Units=1/GPa)
#
#
# Indices 1 2 3 4 5 6 
#
# 1 0.008921 -0.003343 -0.004191 0.000000 0.000000 0.000000
# 2 -0.003343 0.010806 -0.001622 0.000000 0.000000 0.000000
# 3 -0.004191 -0.001622 0.012236 0.000000 0.000000 0.000000
# 4 0.000000 0.000000 0.000000 0.028929 0.000000 0.000000
# 5 0.000000 0.000000 0.000000 0.000000 0.026273 0.000000
# 6 0.000000 0.000000 0.000000 0.000000 0.000000 0.029115
#
#
# Mechanical properties :
#
#
# Convention : Reuss Voigt Hill
#
# Bulk Modulus (GPa) = 73.26162 79.39565 76.32863
# Shear Modulus (GPa) = 35.93440 36.65883 36.29661
#
# Velocity S-wave (km/s) = 4.16445 4.20621 4.18538
# Velocity P-wave (km/s) = 7.64728 7.86813 7.75849
#
# Compressibility (1/GPa) = 0.01364971
#
# Stress axis : x y z
#
# Youngs Moduli (GPa) = 112.10099 92.54392 81.72472
#
# Poissons Ratio (x) = 0.30941 0.34254
# Poissons Ratio (y) = 0.37480 0.13252
# Poissons Ratio (z) = 0.46986 0.15006
#
# Static dielectric constant tensor:
#      x y z
#    x 3.673330 0.000000 0.000000 
#    y 0.000000 3.715180 0.000000 
#    z 0.000000 0.000000 3.663320 
# 
# 
# High freq. dielectric constant tensor:
#      x y z
#    x 1.816260 0.000000 0.000000 
#    y 0.000000 1.812860 0.000000 
#    z 0.000000 0.000000 1.817720 
# 
# From -- ./inp_files/4455.got.cif
#   From: 2010.03.12/outbox.cif.g09.slc.cpg/sg65_3_cif.got.tgz:4455.got - 2010.04.10 20:52:16.
