data_PCOD8273407
_publ_section_title
;
Structure prediction by ZEFSAII (Michael W. Deem and Ramdas Pophale) SiO2 
 PCOD8273407
Probable space group: C M M M
;
_chemical_formula_sum "Si O2"
_cell_formula_units_Z 96
_cell_length_a 14.714841
_cell_length_b 15.583836
_cell_length_c 20.168709
_cell_angle_alpha 90.000000
_cell_angle_beta 90.000000
_cell_angle_gamma 90.000000
_cell_volume 4624.960658
_symmetry_space_group_name_H-M "C M M M"
_symmetry_group_IT_number 65
_symmetry_cell_setting 'orthorhombic'
loop_
_space_group_symop_operation_xyz
x,y,z
-x,-y,z
x,-y,-z
-x,y,-z
-x,-y,-z
x,y,-z
-x,y,z
x,-y,z
1/2+x,1/2+y,z
1/2-x,1/2-y,z
1/2+x,1/2-y,-z
1/2-x,1/2+y,-z
1/2-x,1/2-y,-z
1/2+x,1/2+y,-z
1/2-x,1/2+y,z
1/2+x,1/2-y,z
loop_
_atom_site_type_symbol
_atom_site_label
_atom_site_fract_x
_atom_site_fract_y
_atom_site_fract_z
Si Si1 0.278771 0.343227 0.308893
Si Si2 0.608033 0.728425 0.926597
Si Si3 0.105261 0.098186 0.814236
Si Si4 0.393544 0.904455 0.871960
Si Si5 0.604758 0.599248 0.424497
Si Si6 0.403492 0.901998 0.723436
O O1 0.250000 0.250000 0.284459
O O2 0.336986 0.389622 0.252420
O O3 0.335092 0.341376 0.376930
O O4 0.181729 0.387918 0.324864
O O5 0.500000 0.731119 0.921179
O O6 0.643890 0.659655 0.872522
O O7 0.646943 0.825635 0.915382
O O8 0.639133 0.698937 0.000000
O O9 0.000000 0.118745 0.797855
O O10 0.116494 0.000000 0.838025
O O11 0.500000 0.913113 0.885241
O O12 0.374456 0.872648 0.797088
O O13 0.349990 0.000000 0.886616
O O14 0.634252 0.616950 0.500000
O O15 0.500000 0.623597 0.414334
O O16 0.620906 0.500000 0.405914
O O17 0.500000 0.856109 0.701739
O O18 0.427566 0.000000 0.727183
#
# Coordination Sequence:
#
# PCOD8273407 Si02
#       6
#    16  16  16  16  16  16
#     4  12  23  33  55  86 116 147 181 230 288 342
#     4   9  17  29  47  74 108 143 181 231 293 358
#     4  10  21  37  57  81 111 149 196 247 292 340
#     4   8  14  26  45  69 100 140 185 234 287 343
#     4   9  19  38  63  88 116 152 192 232 273 324
#     4   9  18  33  52  74 103 140 183 230 277 330
#
# _framework density 20.756933
#
# number of rings (size 3 to 8) (size 9 to 14) (size 15 to 20)
#    0.000    2.500    0.000    4.500    0.000    5.000 
#    0.000    3.333    0.000    5.000    0.000    7.000 
#    0.000    0.000    0.000    0.000    0.000    0.000 
#
# Total GULP energy -594698.513304 kJ/mol
# GULP energy per Si atom -12389.552360 kJ/mol
# Density = 2.070969 g / cm^3
# Si number density = 20.756933 Si / 1000 Ang^3
#
#
#
# Elastic Constant Matrix: (Units=GPa)
#
#
# Indices 1 2 3 4 5 6 
#
# 1 91.2559 26.1030 50.8449 0.0000 0.0000 0.0000
# 2 26.1030 93.7726 43.5949 0.0000 0.0000 0.0000
# 3 50.8449 43.5949 100.1081 0.0000 0.0000 0.0000
# 4 0.0000 0.0000 0.0000 -58.2660 0.0000 0.0000
# 5 0.0000 0.0000 0.0000 0.0000 15.0890 0.0000
# 6 0.0000 0.0000 0.0000 0.0000 0.0000 19.5850
#
#
#
# Elastic Compliance Matrix: (Units=1/GPa)
#
#
# Indices 1 2 3 4 5 6 
#
# 1 0.015332 -0.000812 -0.007434 0.000000 0.000000 0.000000
# 2 -0.000812 0.013414 -0.005429 0.000000 0.000000 0.000000
# 3 -0.007434 -0.005429 0.016129 0.000000 0.000000 0.000000
# 4 0.000000 0.000000 0.000000 -0.017163 0.000000 0.000000
# 5 0.000000 0.000000 0.000000 0.000000 0.066273 0.000000
# 6 0.000000 0.000000 0.000000 0.000000 0.000000 0.051059
#
#
# Mechanical properties :
#
#
# Convention : Reuss Voigt Hill
#
# Bulk Modulus (GPa) = 57.05875 58.46913 57.76394
# Shear Modulus (GPa) = 28.05251 6.25453 17.15352
#
# Velocity S-wave (km/s) = 3.68023 1.73775 2.87784
# Velocity P-wave (km/s) = 6.75333 5.67944 6.23953
#
# Compressibility (1/GPa) = 0.01752579
#
# Stress axis : x y z
#
# Youngs Moduli (GPa) = 65.22194 74.54817 62.00009
#
# Poissons Ratio (x) = 0.06054 0.46089
# Poissons Ratio (y) = 0.05296 0.33661
# Poissons Ratio (z) = 0.48484 0.40473
#
# Static dielectric constant tensor:
#      x y z
#    x 3.663130 0.000000 0.000000 
#    y 0.000000 4.034640 0.000000 
#    z 0.000000 0.000000 3.632190 
# 
# 
# High freq. dielectric constant tensor:
#      x y z
#    x 1.809390 0.000000 0.000000 
#    y 0.000000 1.808670 0.000000 
#    z 0.000000 0.000000 1.780030 
# 
# From -- ./inp_files/62614.got.cif
#   From: 2010.03.12/outbox.cif.g09.slc.cpg/sg65_32_cif.got.tgz:62614.got - 2010.04.10 20:52:16.
