data_PCOD8273079
_publ_section_title
;
Structure prediction by ZEFSAII (Michael W. Deem and Ramdas Pophale) SiO2 
 PCOD8273079
Probable space group: C M M M
;
_chemical_formula_sum "Si O2"
_cell_formula_units_Z 88
_cell_length_a 9.069123
_cell_length_b 28.508106
_cell_length_c 17.719188
_cell_angle_alpha 90.000000
_cell_angle_beta 90.000000
_cell_angle_gamma 90.000000
_cell_volume 4581.181234
_symmetry_space_group_name_H-M "C M M M"
_symmetry_group_IT_number 65
_symmetry_cell_setting 'orthorhombic'
loop_
_space_group_symop_operation_xyz
x,y,z
-x,-y,z
x,-y,-z
-x,y,-z
-x,-y,-z
x,y,-z
-x,y,z
x,-y,z
1/2+x,1/2+y,z
1/2-x,1/2-y,z
1/2+x,1/2-y,-z
1/2-x,1/2+y,-z
1/2-x,1/2-y,-z
1/2+x,1/2+y,-z
1/2-x,1/2+y,z
1/2+x,1/2-y,z
loop_
_atom_site_type_symbol
_atom_site_label
_atom_site_fract_x
_atom_site_fract_y
_atom_site_fract_z
Si Si1 0.326181 0.200009 0.500000
Si Si2 0.673803 0.948810 0.152673
Si Si3 0.328817 0.298073 0.216015
Si Si4 0.827440 0.647031 0.085773
Si Si5 0.832001 0.851927 0.368763
Si Si6 0.168329 0.051885 0.692745
O O1 0.500000 0.207271 0.500000
O O2 0.250000 0.250000 0.500000
O O3 0.280482 0.171818 0.425745
O O4 0.500000 0.950193 0.157139
O O5 0.724742 0.907009 0.097494
O O6 0.730212 0.938141 0.236035
O O7 0.732643 0.000000 0.124180
O O8 0.500000 0.288117 0.202285
O O9 0.250000 0.250000 0.238259
O O10 0.262296 0.318434 0.139218
O O11 0.302406 0.333958 0.284277
O O12 0.000000 0.652296 0.104378
O O13 0.792595 0.661254 0.000000
O O14 0.801529 0.908028 0.369800
O O15 0.000000 0.840702 0.393802
O O16 0.000000 0.055831 0.720835
O O17 0.199777 0.000000 0.658100
#
# Coordination Sequence:
#
# PCOD8273079 Si02
#       6
#     8  16  16  16  16  16
#     4  12  26  42  63  90 119 153 188 233 287 336
#     4   9  17  30  51  80 113 149 188 231 279 332
#     4  11  23  39  60  84 108 144 189 237 289 342
#     4  10  21  36  54  79 113 151 191 237 286 337
#     4  10  21  39  62  89 119 151 188 231 279 335
#     4   9  17  32  57  87 117 150 188 228 273 329
#
# _framework density 19.209018
#
# number of rings (size 3 to 8) (size 9 to 14) (size 15 to 20)
#    0.000    2.000    1.818    1.909    0.000    4.727 
#    0.000    2.273    0.000    2.727    0.000    3.818 
#    0.000    0.000    0.000    0.000    0.000    0.000 
#
# Total GULP energy -545541.604804 kJ/mol
# GULP energy per Si atom -12398.672836 kJ/mol
# Density = 1.916530 g / cm^3
# Si number density = 19.209018 Si / 1000 Ang^3
#
#
#
# Elastic Constant Matrix: (Units=GPa)
#
#
# Indices 1 2 3 4 5 6 
#
# 1 53.5774 45.6185 29.3827 0.0000 0.0000 0.0000
# 2 45.6185 125.8960 41.6572 0.0000 0.0000 0.0000
# 3 29.3827 41.6572 78.3506 0.0000 0.0000 0.0000
# 4 0.0000 0.0000 0.0000 25.4160 0.0000 0.0000
# 5 0.0000 0.0000 0.0000 0.0000 29.4622 0.0000
# 6 0.0000 0.0000 0.0000 0.0000 0.0000 26.1977
#
#
#
# Elastic Compliance Matrix: (Units=1/GPa)
#
#
# Indices 1 2 3 4 5 6 
#
# 1 0.029511 -0.008532 -0.006531 0.000000 0.000000 0.000000
# 2 -0.008532 0.012106 -0.003237 0.000000 0.000000 0.000000
# 3 -0.006531 -0.003237 0.016933 0.000000 0.000000 0.000000
# 4 0.000000 0.000000 0.000000 0.039345 0.000000 0.000000
# 5 0.000000 0.000000 0.000000 0.000000 0.033942 0.000000
# 6 0.000000 0.000000 0.000000 0.000000 0.000000 0.038171
#
#
# Mechanical properties :
#
#
# Convention : Reuss Voigt Hill
#
# Bulk Modulus (GPa) = 45.55683 54.57121 50.06402
# Shear Modulus (GPa) = 23.37276 25.62622 24.49949
#
# Velocity S-wave (km/s) = 3.49199 3.65646 3.57517
# Velocity P-wave (km/s) = 6.32665 6.80420 6.56977
#
# Compressibility (1/GPa) = 0.02195061
#
# Stress axis : x y z
#
# Youngs Moduli (GPa) = 33.88563 82.60548 59.05629
#
# Poissons Ratio (x) = 0.70483 0.38567
# Poissons Ratio (y) = 0.28913 0.19114
# Poissons Ratio (z) = 0.22129 0.26735
#
# Static dielectric constant tensor:
#      x y z
#    x 3.483090 0.000000 0.000000 
#    y 0.000000 4.015530 0.000000 
#    z 0.000000 0.000000 3.246510 
# 
# 
# High freq. dielectric constant tensor:
#      x y z
#    x 1.741520 0.000000 0.000000 
#    y 0.000000 1.768870 0.000000 
#    z 0.000000 0.000000 1.723830 
# 
# From -- ./inp_files/50288.got.cif
#   From: 2010.03.12/outbox.cif.g09.slc.cpg/sg65_26_cif.got.tgz:50288.got - 2010.04.10 20:52:16.
