data_PCOD8273593
_publ_section_title
;
Structure prediction by ZEFSAII (Michael W. Deem and Ramdas Pophale) SiO2 
 PCOD8273593
Probable space group: C M M M
;
_chemical_formula_sum "Si O2"
_cell_formula_units_Z 72
_cell_length_a 15.529515
_cell_length_b 8.914587
_cell_length_c 27.826554
_cell_angle_alpha 90.000000
_cell_angle_beta 90.000000
_cell_angle_gamma 90.000000
_cell_volume 3852.286223
_symmetry_space_group_name_H-M "C M M M"
_symmetry_group_IT_number 65
_symmetry_cell_setting 'orthorhombic'
loop_
_space_group_symop_operation_xyz
x,y,z
-x,-y,z
x,-y,-z
-x,y,-z
-x,-y,-z
x,y,-z
-x,y,z
x,-y,z
1/2+x,1/2+y,z
1/2-x,1/2-y,z
1/2+x,1/2-y,-z
1/2-x,1/2+y,-z
1/2-x,1/2-y,-z
1/2+x,1/2+y,-z
1/2-x,1/2+y,z
1/2+x,1/2-y,z
loop_
_atom_site_type_symbol
_atom_site_label
_atom_site_fract_x
_atom_site_fract_y
_atom_site_fract_z
Si Si1 0.000000 0.822186 0.282443
Si Si2 0.661049 0.174044 0.443608
Si Si3 0.837837 0.823143 0.223730
Si Si4 0.162193 0.823256 0.886295
Si Si5 0.500000 0.678758 0.945722
Si Si6 0.500000 0.321806 0.392491
O O1 0.084680 0.758363 0.256022
O O2 0.000000 0.769746 0.337325
O O3 0.000000 0.000000 0.277858
O O4 0.645942 0.195307 0.500000
O O5 0.750000 0.250000 0.427203
O O6 0.584410 0.256306 0.416836
O O7 0.663162 0.000000 0.429176
O O8 0.750000 0.750000 0.242758
O O9 0.856104 0.776906 0.168710
O O10 0.828919 0.000000 0.229239
O O11 0.250000 0.750000 0.905333
O O12 0.084393 0.760063 0.918542
O O13 0.171278 0.000000 0.891619
O O14 0.500000 0.500000 0.944588
O O15 0.500000 0.740362 0.000000
O O16 0.500000 0.500000 0.398158
#
# Coordination Sequence:
#
# PCOD8273593 Si02
#       6
#     8  16  16  16   8   8
#     4   9  19  34  51  72 100 134 167 200 242 295
#     4  10  21  38  59  81 105 136 175 216 256 300
#     4   9  17  32  52  72  95 125 164 205 244 288
#     4   9  17  30  50  72  93 123 162 203 244 287
#     4   9  17  29  46  69  96 127 162 196 236 293
#     4  11  22  35  53  79 110 141 171 207 256 309
#
# _framework density 18.690200000000001
#
# number of rings (size 3 to 8) (size 9 to 14) (size 15 to 20)
#    0.000    2.556    0.000    2.000    0.000    6.667 
#    0.000    5.556    0.000    6.000    0.000    0.000 
#    0.000    0.000    0.000    0.000    0.000    0.000 
#
# Total GULP energy -446458.359758 kJ/mol
# GULP energy per Si atom -12401.621104 kJ/mol
# Density = 1.864766 g / cm^3
# Si number density = 18.690200 Si / 1000 Ang^3
#
#
#
# Elastic Constant Matrix: (Units=GPa)
#
#
# Indices 1 2 3 4 5 6 
#
# 1 211.5391 53.7977 98.4745 0.0000 0.0000 0.0000
# 2 53.7977 52.7392 40.2841 0.0000 0.0000 0.0000
# 3 98.4745 40.2841 99.6957 0.0000 0.0000 0.0000
# 4 0.0000 0.0000 0.0000 17.4528 0.0000 0.0000
# 5 0.0000 0.0000 0.0000 0.0000 43.3008 0.0000
# 6 0.0000 0.0000 0.0000 0.0000 0.0000 36.5728
#
#
#
# Elastic Compliance Matrix: (Units=1/GPa)
#
#
# Indices 1 2 3 4 5 6 
#
# 1 0.009184 -0.003528 -0.007646 0.000000 0.000000 0.000000
# 2 -0.003528 0.028781 -0.008145 0.000000 0.000000 0.000000
# 3 -0.007646 -0.008145 0.020874 0.000000 0.000000 0.000000
# 4 0.000000 0.000000 0.000000 0.057297 0.000000 0.000000
# 5 0.000000 0.000000 0.000000 0.000000 0.023094 0.000000
# 6 0.000000 0.000000 0.000000 0.000000 0.000000 0.027343
#
#
# Mechanical properties :
#
#
# Convention : Reuss Voigt Hill
#
# Bulk Modulus (GPa) = 49.50102 83.23186 66.36644
# Shear Modulus (GPa) = 23.59116 30.89312 27.24214
#
# Velocity S-wave (km/s) = 3.55663 4.07000 3.82195
# Velocity P-wave (km/s) = 6.58852 8.16796 7.42039
#
# Compressibility (1/GPa) = 0.02020160
#
# Stress axis : x y z
#
# Youngs Moduli (GPa) = 108.88990 34.74461 47.90748
#
# Poissons Ratio (x) = 0.12258 0.36628
# Poissons Ratio (y) = 0.38416 0.39021
# Poissons Ratio (z) = 0.83252 0.28299
#
# Static dielectric constant tensor:
#      x y z
#    x 3.679750 0.000000 0.000000 
#    y 0.000000 3.205690 0.000000 
#    z 0.000000 0.000000 3.503010 
# 
# 
# High freq. dielectric constant tensor:
#      x y z
#    x 1.743720 0.000000 0.000000 
#    y 0.000000 1.701950 0.000000 
#    z 0.000000 0.000000 1.721270 
# 
# From -- ./inp_files/72577.got.cif
#   From: 2010.03.12/outbox.cif.g09.slc.cpg/sg65_37_cif.got.tgz:72577.got - 2010.04.10 20:52:16.
