data_PCOD8273207
_publ_section_title
;
Structure prediction by ZEFSAII (Michael W. Deem and Ramdas Pophale) SiO2 
 PCOD8273207
Probable space group: C M M M
;
_chemical_formula_sum "Si O2"
_cell_formula_units_Z 112
_cell_length_a 14.165891
_cell_length_b 14.238283
_cell_length_c 27.413530
_cell_angle_alpha 90.000000
_cell_angle_beta 90.000000
_cell_angle_gamma 90.000000
_cell_volume 5529.253215
_symmetry_space_group_name_H-M "C M M M"
_symmetry_group_IT_number 65
_symmetry_cell_setting 'orthorhombic'
loop_
_space_group_symop_operation_xyz
x,y,z
-x,-y,z
x,-y,-z
-x,y,-z
-x,-y,-z
x,y,-z
-x,y,z
x,-y,z
1/2+x,1/2+y,z
1/2-x,1/2-y,z
1/2+x,1/2-y,-z
1/2-x,1/2+y,-z
1/2-x,1/2-y,-z
1/2+x,1/2+y,-z
1/2-x,1/2+y,z
1/2+x,1/2-y,z
loop_
_atom_site_type_symbol
_atom_site_label
_atom_site_fract_x
_atom_site_fract_y
_atom_site_fract_z
Si Si1 0.766729 0.392555 0.095441
Si Si2 0.887692 0.226261 0.750392
Si Si3 0.201079 0.107241 0.552995
Si Si4 0.394925 0.286419 0.640366
Si Si5 0.107927 0.234185 0.056881
Si Si6 0.602196 0.896622 0.588392
Si Si7 0.229287 0.392434 0.209086
O O1 0.764727 0.500000 0.077122
O O2 0.847492 0.336749 0.066212
O O3 0.664676 0.345698 0.086162
O O4 0.792734 0.386756 0.152068
O O5 0.860053 0.196346 0.695137
O O6 0.848284 0.330124 0.762428
O O7 0.834896 0.148758 0.783174
O O8 0.000000 0.223762 0.759291
O O9 0.161958 0.142271 0.500000
O O10 0.167909 0.166105 0.599017
O O11 0.314426 0.118241 0.549485
O O12 0.170094 0.000000 0.561200
O O13 0.500000 0.326571 0.633556
O O14 0.390298 0.174663 0.633387
O O15 0.000000 0.233610 0.075177
O O16 0.114763 0.210866 0.000000
O O17 0.500000 0.883765 0.561865
O O18 0.610636 0.000000 0.611970
O O19 0.224113 0.500000 0.227661
#
# Coordination Sequence:
#
# PCOD8273207 Si02
#       7
#    16  16  16  16  16  16  16
#     4  10  21  38  58  84 120 159 201 249 301 354
#     4  10  22  40  61  86 117 152 193 242 297 356
#     4  10  22  38  57  82 110 144 183 222 270 329
#     4  10  22  38  57  82 109 142 181 223 275 333
#     4  10  21  36  57  87 121 161 207 251 298 351
#     4   9  19  35  55  81 110 139 174 216 265 322
#     4  10  23  39  60  91 119 153 200 246 298 357
#
# _framework density 20.255898999999999
#
# number of rings (size 3 to 8) (size 9 to 14) (size 15 to 20)
#    0.000    2.143    0.000    3.000    4.000    7.714 
#    0.000   10.714    0.000    0.000    0.000    0.000 
#    0.000    0.000    0.000    0.000    0.000    0.000 
#
# Total GULP energy -694075.572318 kJ/mol
# GULP energy per Si atom -12394.206649 kJ/mol
# Density = 2.020980 g / cm^3
# Si number density = 20.255899 Si / 1000 Ang^3
#
#
#
# Elastic Constant Matrix: (Units=GPa)
#
#
# Indices 1 2 3 4 5 6 
#
# 1 118.2182 33.4491 25.3168 0.0000 0.0000 0.0000
# 2 33.4491 113.7702 25.0878 0.0000 0.0000 0.0000
# 3 25.3168 25.0878 73.1539 0.0000 0.0000 0.0000
# 4 0.0000 0.0000 0.0000 22.6570 0.0000 0.0000
# 5 0.0000 0.0000 0.0000 0.0000 21.9488 0.0000
# 6 0.0000 0.0000 0.0000 0.0000 0.0000 20.4435
#
#
#
# Elastic Compliance Matrix: (Units=1/GPa)
#
#
# Indices 1 2 3 4 5 6 
#
# 1 0.009650 -0.002273 -0.002560 0.000000 0.000000 0.000000
# 2 -0.002273 0.010044 -0.002658 0.000000 0.000000 0.000000
# 3 -0.002560 -0.002658 0.015467 0.000000 0.000000 0.000000
# 4 0.000000 0.000000 0.000000 0.044136 0.000000 0.000000
# 5 0.000000 0.000000 0.000000 0.000000 0.045560 0.000000
# 6 0.000000 0.000000 0.000000 0.000000 0.000000 0.048915
#
#
# Mechanical properties :
#
#
# Convention : Reuss Voigt Hill
#
# Bulk Modulus (GPa) = 49.55486 52.53886 51.04686
# Shear Modulus (GPa) = 25.57776 27.76245 26.67011
#
# Velocity S-wave (km/s) = 3.55735 3.70616 3.63252
# Velocity P-wave (km/s) = 6.43354 6.65643 6.54593
#
# Compressibility (1/GPa) = 0.02017965
#
# Stress axis : x y z
#
# Youngs Moduli (GPa) = 103.62408 99.56240 64.65200
#
# Poissons Ratio (x) = 0.22627 0.16553
# Poissons Ratio (y) = 0.23550 0.17185
# Poissons Ratio (z) = 0.26531 0.26464
#
# Static dielectric constant tensor:
#      x y z
#    x 3.808560 0.000000 0.000000 
#    y 0.000000 3.809390 0.000000 
#    z 0.000000 0.000000 3.548250 
# 
# 
# High freq. dielectric constant tensor:
#      x y z
#    x 1.794740 0.000000 0.000000 
#    y 0.000000 1.792760 0.000000 
#    z 0.000000 0.000000 1.785130 
# 
# From -- ./inp_files/70018.got.cif
#   From: 2010.03.12/outbox.cif.g09.slc.cpg/sg65_36_cif.got.tgz:70018.got - 2010.04.10 20:52:16.
