data_PCOD8273463
_publ_section_title
;
Structure prediction by ZEFSAII (Michael W. Deem and Ramdas Pophale) SiO2 
 PCOD8273463
Probable space group: C M M M
;
_chemical_formula_sum "Si O2"
_cell_formula_units_Z 88
_cell_length_a 16.262183
_cell_length_b 8.859731
_cell_length_c 29.350733
_cell_angle_alpha 90.000000
_cell_angle_beta 90.000000
_cell_angle_gamma 90.000000
_cell_volume 4228.811547
_symmetry_space_group_name_H-M "C M M M"
_symmetry_group_IT_number 65
_symmetry_cell_setting 'orthorhombic'
loop_
_space_group_symop_operation_xyz
x,y,z
-x,-y,z
x,-y,-z
-x,y,-z
-x,-y,-z
x,y,-z
-x,y,z
x,-y,z
1/2+x,1/2+y,z
1/2-x,1/2-y,z
1/2+x,1/2-y,-z
1/2-x,1/2+y,-z
1/2-x,1/2-y,-z
1/2+x,1/2+y,-z
1/2-x,1/2+y,z
1/2+x,1/2-y,z
loop_
_atom_site_type_symbol
_atom_site_label
_atom_site_fract_x
_atom_site_fract_y
_atom_site_fract_z
Si Si1 0.593095 0.831513 0.867011
Si Si2 0.500000 0.820859 0.448424
Si Si3 0.664083 0.820212 0.227111
Si Si4 0.593440 0.326271 0.310972
Si Si5 0.335842 0.323143 0.949237
Si Si6 0.664456 0.820416 0.396624
O O1 0.500000 0.832479 0.850088
O O2 0.645414 0.768026 0.824661
O O3 0.598720 0.727965 0.911771
O O4 0.622468 0.000000 0.880062
O O5 0.500000 0.760469 0.500000
O O6 0.584649 0.762318 0.425051
O O7 0.500000 0.000000 0.446343
O O8 0.750000 0.750000 0.242161
O O9 0.597493 0.750096 0.261298
O O10 0.663337 0.000000 0.230965
O O11 0.500000 0.313235 0.328356
O O12 0.621965 0.500000 0.308506
O O13 0.652854 0.235990 0.345012
O O14 0.325407 0.500000 0.947558
O O15 0.250000 0.250000 0.935414
O O16 0.363767 0.271108 0.000000
O O17 0.750000 0.750000 0.416087
O O18 0.671898 0.000000 0.398099
#
# Coordination Sequence:
#
# PCOD8273463 Si02
#       6
#    16   8  16  16  16  16
#     4  10  22  39  58  82 112 147 186 232 286 345
#     4   9  20  40  65  93 127 169 215 261 314 375
#     4  11  23  39  59  84 116 152 195 241 292 353
#     4  11  23  39  61  89 122 158 202 253 303 359
#     4  10  21  37  58  83 110 143 184 230 281 339
#     4  11  22  39  64  93 127 168 212 259 314 371
#
# _framework density 20.809629000000001
#
# number of rings (size 3 to 8) (size 9 to 14) (size 15 to 20)
#    0.000    1.545    0.909    3.818    0.000    6.909 
#    0.000    1.818    0.000    3.818    0.000    0.000 
#    0.000    0.000    0.000    0.000    0.000    0.000 
#
# Total GULP energy -545670.215333 kJ/mol
# GULP energy per Si atom -12401.595803 kJ/mol
# Density = 2.076227 g / cm^3
# Si number density = 20.809629 Si / 1000 Ang^3
#
#
#
# Elastic Constant Matrix: (Units=GPa)
#
#
# Indices 1 2 3 4 5 6 
#
# 1 111.6038 37.4754 46.5149 0.0000 0.0000 0.0000
# 2 37.4754 84.5996 42.4375 0.0000 0.0000 0.0000
# 3 46.5149 42.4375 121.3925 0.0000 0.0000 0.0000
# 4 0.0000 0.0000 0.0000 23.2036 0.0000 0.0000
# 5 0.0000 0.0000 0.0000 0.0000 27.4518 0.0000
# 6 0.0000 0.0000 0.0000 0.0000 0.0000 32.1245
#
#
#
# Elastic Compliance Matrix: (Units=1/GPa)
#
#
# Indices 1 2 3 4 5 6 
#
# 1 0.011451 -0.003482 -0.003170 0.000000 0.000000 0.000000
# 2 -0.003482 0.015393 -0.004047 0.000000 0.000000 0.000000
# 3 -0.003170 -0.004047 0.010867 0.000000 0.000000 0.000000
# 4 0.000000 0.000000 0.000000 0.043097 0.000000 0.000000
# 5 0.000000 0.000000 0.000000 0.000000 0.036427 0.000000
# 6 0.000000 0.000000 0.000000 0.000000 0.000000 0.031129
#
#
# Mechanical properties :
#
#
# Convention : Reuss Voigt Hill
#
# Bulk Modulus (GPa) = 61.30358 63.38350 62.34354
# Shear Modulus (GPa) = 28.53873 29.30053 28.91963
#
# Velocity S-wave (km/s) = 3.70729 3.75644 3.73194
# Velocity P-wave (km/s) = 6.91726 7.02420 6.97093
#
# Compressibility (1/GPa) = 0.01631226
#
# Stress axis : x y z
#
# Youngs Moduli (GPa) = 87.32936 64.96504 92.01879
#
# Poissons Ratio (x) = 0.22621 0.29174
# Poissons Ratio (y) = 0.30409 0.37239
# Poissons Ratio (z) = 0.27687 0.26291
#
# Static dielectric constant tensor:
#      x y z
#    x 3.776700 0.000000 0.000000 
#    y 0.000000 3.716050 0.000000 
#    z 0.000000 0.000000 3.765450 
# 
# 
# High freq. dielectric constant tensor:
#      x y z
#    x 1.817840 0.000000 0.000000 
#    y 0.000000 1.808670 0.000000 
#    z 0.000000 0.000000 1.816290 
# 
# From -- ./inp_files/77802.got.cif
#   From: 2010.03.12/outbox.cif.g09.slc.cpg/sg65_39_cif.got.tgz:77802.got - 2010.04.10 20:52:16.
