data_PCOD8273393
_publ_section_title
;
Structure prediction by ZEFSAII (Michael W. Deem and Ramdas Pophale) SiO2 
 PCOD8273393
Probable space group: C M M M
;
_chemical_formula_sum "Si O2"
_cell_formula_units_Z 104
_cell_length_a 25.588911
_cell_length_b 8.732952
_cell_length_c 25.952786
_cell_angle_alpha 90.000000
_cell_angle_beta 90.000000
_cell_angle_gamma 90.000000
_cell_volume 5799.584261
_symmetry_space_group_name_H-M "C M M M"
_symmetry_group_IT_number 65
_symmetry_cell_setting 'orthorhombic'
loop_
_space_group_symop_operation_xyz
x,y,z
-x,-y,z
x,-y,-z
-x,y,-z
-x,-y,-z
x,y,-z
-x,y,z
x,-y,z
1/2+x,1/2+y,z
1/2-x,1/2-y,z
1/2+x,1/2-y,-z
1/2-x,1/2+y,-z
1/2-x,1/2-y,-z
1/2+x,1/2+y,-z
1/2-x,1/2+y,z
1/2+x,1/2-y,z
loop_
_atom_site_type_symbol
_atom_site_label
_atom_site_fract_x
_atom_site_fract_y
_atom_site_fract_z
Si Si1 0.194305 0.181134 0.664006
Si Si2 0.439798 0.318352 0.500000
Si Si3 0.602009 0.180062 0.844139
Si Si4 0.804909 0.820460 0.218361
Si Si5 0.000000 0.318219 0.669989
Si Si6 0.598223 0.182132 0.395314
Si Si7 0.940012 0.178277 0.058344
Si Si8 0.000000 0.317752 0.214676
O O1 0.250000 0.250000 0.648169
O O2 0.180882 0.225756 0.722999
O O3 0.152287 0.258329 0.627192
O O4 0.194901 0.000000 0.655683
O O5 0.436358 0.500000 0.500000
O O6 0.500000 0.262240 0.500000
O O7 0.409593 0.252117 0.548706
O O8 0.652289 0.258461 0.820456
O O9 0.596906 0.224069 0.904105
O O10 0.551170 0.243938 0.814341
O O11 0.607931 0.000000 0.837959
O O12 0.750000 0.750000 0.201646
O O13 0.800528 0.000000 0.212406
O O14 0.948679 0.257844 0.640908
O O15 0.000000 0.250324 0.727584
O O16 0.000000 0.500000 0.671734
O O17 0.598931 0.000000 0.398913
O O18 0.000000 0.229661 0.065775
O O19 0.933810 0.000000 0.071149
O O20 0.922054 0.212577 0.000000
O O21 0.000000 0.500000 0.215116
#
# Coordination Sequence:
#
# PCOD8273393 Si02
#       8
#    16   8  16  16   8  16  16   8
#     4  10  21  38  59  84 113 146 185 227 275 327
#     4  11  23  39  58  81 114 149 185 230 274 324
#     4  11  20  32  52  79 113 146 182 229 276 326
#     4  10  21  37  57  81 110 147 188 228 271 327
#     4   9  18  31  50  76 109 144 179 216 263 324
#     4  11  21  36  59  84 111 146 186 228 273 326
#     4   9  18  33  52  74 105 146 188 229 276 329
#     4   9  18  30  45  75 113 145 173 212 269 324
#
# _framework density 17.932319
#
# number of rings (size 3 to 8) (size 9 to 14) (size 15 to 20)
#    0.000    1.923    1.538    3.462    0.000    3.692 
#    0.000    1.154    0.000    4.154    0.000    0.000 
#    0.000    0.000    0.000    0.000    0.000    0.000 
#
# Total GULP energy -644987.072645 kJ/mol
# GULP energy per Si atom -12403.597551 kJ/mol
# Density = 1.789150 g / cm^3
# Si number density = 17.932319 Si / 1000 Ang^3
#
#
#
# Elastic Constant Matrix: (Units=GPa)
#
#
# Indices 1 2 3 4 5 6 
#
# 1 135.1755 43.7244 76.3168 0.0000 0.0000 0.0000
# 2 43.7244 61.8836 37.1028 0.0000 0.0000 0.0000
# 3 76.3168 37.1028 132.4932 0.0000 0.0000 0.0000
# 4 0.0000 0.0000 0.0000 27.7511 0.0000 0.0000
# 5 0.0000 0.0000 0.0000 0.0000 31.6182 0.0000
# 6 0.0000 0.0000 0.0000 0.0000 0.0000 27.4998
#
#
#
# Elastic Compliance Matrix: (Units=1/GPa)
#
#
# Indices 1 2 3 4 5 6 
#
# 1 0.012268 -0.005325 -0.005575 0.000000 0.000000 0.000000
# 2 -0.005325 0.021732 -0.003018 0.000000 0.000000 0.000000
# 3 -0.005575 -0.003018 0.011604 0.000000 0.000000 0.000000
# 4 0.000000 0.000000 0.000000 0.036035 0.000000 0.000000
# 5 0.000000 0.000000 0.000000 0.000000 0.031627 0.000000
# 6 0.000000 0.000000 0.000000 0.000000 0.000000 0.036364
#
#
# Mechanical properties :
#
#
# Convention : Reuss Voigt Hill
#
# Bulk Modulus (GPa) = 56.28642 71.53780 63.91211
# Shear Modulus (GPa) = 27.26446 28.86771 28.06609
#
# Velocity S-wave (km/s) = 3.90347 4.01660 3.96044
# Velocity P-wave (km/s) = 7.19531 7.84160 7.52540
#
# Compressibility (1/GPa) = 0.01776628
#
# Stress axis : x y z
#
# Youngs Moduli (GPa) = 81.51340 46.01580 86.17700
#
# Poissons Ratio (x) = 0.24505 0.48044
# Poissons Ratio (y) = 0.43409 0.26010
# Poissons Ratio (z) = 0.45444 0.13888
#
# Static dielectric constant tensor:
#      x y z
#    x 3.301030 0.000000 0.000000 
#    y 0.000000 3.226180 0.000000 
#    z 0.000000 0.000000 3.312330 
# 
# 
# High freq. dielectric constant tensor:
#      x y z
#    x 1.688320 0.000000 0.000000 
#    y 0.000000 1.692830 0.000000 
#    z 0.000000 0.000000 1.697330 
# 
# From -- ./inp_files/71936.got.cif
#   From: 2010.03.12/outbox.cif.g09.slc.cpg/sg65_36_cif.got.tgz:71936.got - 2010.04.10 20:52:16.
