data_PCOD8273546
_publ_section_title
;
Structure prediction by ZEFSAII (Michael W. Deem and Ramdas Pophale) SiO2 
 PCOD8273546
Probable space group: C M M M
;
_chemical_formula_sum "Si O2"
_cell_formula_units_Z 64
_cell_length_a 16.690299
_cell_length_b 23.504756
_cell_length_c 7.814664
_cell_angle_alpha 90.000000
_cell_angle_beta 90.000000
_cell_angle_gamma 90.000000
_cell_volume 3065.703671
_symmetry_space_group_name_H-M "C M M M"
_symmetry_group_IT_number 65
_symmetry_cell_setting 'orthorhombic'
loop_
_space_group_symop_operation_xyz
x,y,z
-x,-y,z
x,-y,-z
-x,y,-z
-x,-y,-z
x,y,-z
-x,y,z
x,-y,z
1/2+x,1/2+y,z
1/2-x,1/2-y,z
1/2+x,1/2-y,-z
1/2-x,1/2+y,-z
1/2-x,1/2-y,-z
1/2+x,1/2+y,-z
1/2-x,1/2+y,z
1/2+x,1/2-y,z
loop_
_atom_site_type_symbol
_atom_site_label
_atom_site_fract_x
_atom_site_fract_y
_atom_site_fract_z
Si Si1 0.677897 0.873332 0.307479
Si Si2 0.500000 0.436344 0.702979
Si Si3 0.090565 0.266850 0.805083
Si Si4 0.640120 0.354673 0.300172
Si Si5 0.909225 0.432947 0.000000
O O1 0.665163 0.897136 0.500000
O O2 0.646426 0.808478 0.304699
O O3 0.771064 0.875772 0.258009
O O4 0.631447 0.912011 0.173753
O O5 0.500000 0.500000 0.782086
O O6 0.500000 0.440459 0.500000
O O7 0.421063 0.402907 0.766512
O O8 0.124226 0.203356 0.799578
O O9 0.000000 0.268318 0.732853
O O10 0.092850 0.288612 0.000000
O O11 0.627569 0.342433 0.500000
O O12 0.905043 0.500000 0.000000
O O13 0.000000 0.410281 0.000000
#
# Coordination Sequence:
#
# PCOD8273546 Si02
#       5
#    16   8  16  16   8
#     4  11  24  41  66  98 129 165 214 268 323 382
#     4   9  18  36  61  87 125 173 215 262 313 371
#     4  11  22  36  60  93 131 168 212 266 327 388
#     4  10  21  37  60  93 127 166 217 263 316 383
#     4  11  26  48  69  93 127 165 210 263 324 389
#
# _framework density 20.876121999999999
#
# number of rings (size 3 to 8) (size 9 to 14) (size 15 to 20)
#    0.000    1.500    2.500    2.250    1.750    7.500 
#    0.000    3.750    0.000    0.750    0.000    0.000 
#    0.000    0.000    0.000    0.000    0.000    0.000 
#
# Total GULP energy -396937.178777 kJ/mol
# GULP energy per Si atom -12404.286837 kJ/mol
# Density = 2.082861 g / cm^3
# Si number density = 20.876122 Si / 1000 Ang^3
#
#
#
# Elastic Constant Matrix: (Units=GPa)
#
#
# Indices 1 2 3 4 5 6 
#
# 1 187.2114 62.6521 64.3429 0.0000 0.0000 0.0000
# 2 62.6521 101.2909 30.8306 0.0000 0.0000 0.0000
# 3 64.3429 30.8306 81.1262 0.0000 0.0000 0.0000
# 4 0.0000 0.0000 0.0000 23.5342 0.0000 0.0000
# 5 0.0000 0.0000 0.0000 0.0000 28.1441 0.0000
# 6 0.0000 0.0000 0.0000 0.0000 0.0000 18.5487
#
#
#
# Elastic Compliance Matrix: (Units=1/GPa)
#
#
# Indices 1 2 3 4 5 6 
#
# 1 0.008341 -0.003557 -0.005264 0.000000 0.000000 0.000000
# 2 -0.003557 0.012681 -0.001998 0.000000 0.000000 0.000000
# 3 -0.005264 -0.001998 0.017260 0.000000 0.000000 0.000000
# 4 0.000000 0.000000 0.000000 0.042491 0.000000 0.000000
# 5 0.000000 0.000000 0.000000 0.000000 0.035531 0.000000
# 6 0.000000 0.000000 0.000000 0.000000 0.000000 0.053912
#
#
# Mechanical properties :
#
#
# Convention : Reuss Voigt Hill
#
# Bulk Modulus (GPa) = 60.07800 76.14217 68.11008
# Shear Modulus (GPa) = 25.32891 28.16560 26.74726
#
# Velocity S-wave (km/s) = 3.48702 3.67710 3.58332
# Velocity P-wave (km/s) = 6.71217 7.38787 7.05811
#
# Compressibility (1/GPa) = 0.01664503
#
# Stress axis : x y z
#
# Youngs Moduli (GPa) = 119.88909 78.85887 57.93589
#
# Poissons Ratio (x) = 0.28051 0.30495
# Poissons Ratio (y) = 0.42646 0.11575
# Poissons Ratio (z) = 0.63105 0.15755
#
# Static dielectric constant tensor:
#      x y z
#    x 3.986520 0.000000 0.000000 
#    y 0.000000 3.711030 0.000000 
#    z 0.000000 0.000000 3.607770 
# 
# 
# High freq. dielectric constant tensor:
#      x y z
#    x 1.832380 0.000000 0.000000 
#    y 0.000000 1.810890 0.000000 
#    z 0.000000 0.000000 1.811270 
# 
# From -- ./inp_files/6806.got.cif
#   From: 2010.03.12/outbox.cif.g09.slc.cpg/sg65_4_cif.got.tgz:6806.got - 2010.04.10 20:52:16.
