data_PCOD8273090
_publ_section_title
;
Structure prediction by ZEFSAII (Michael W. Deem and Ramdas Pophale) SiO2 
 PCOD8273090
Probable space group: C M M M
;
_chemical_formula_sum "Si O2"
_cell_formula_units_Z 120
_cell_length_a 26.914799
_cell_length_b 27.446732
_cell_length_c 9.450560
_cell_angle_alpha 90.000000
_cell_angle_beta 90.000000
_cell_angle_gamma 90.000000
_cell_volume 6981.348634
_symmetry_space_group_name_H-M "C M M M"
_symmetry_group_IT_number 65
_symmetry_cell_setting 'orthorhombic'
loop_
_space_group_symop_operation_xyz
x,y,z
-x,-y,z
x,-y,-z
-x,y,-z
-x,-y,-z
x,y,-z
-x,y,z
x,-y,z
1/2+x,1/2+y,z
1/2-x,1/2-y,z
1/2+x,1/2-y,-z
1/2-x,1/2+y,-z
1/2-x,1/2-y,-z
1/2+x,1/2+y,-z
1/2-x,1/2+y,z
1/2+x,1/2-y,z
loop_
_atom_site_type_symbol
_atom_site_label
_atom_site_fract_x
_atom_site_fract_y
_atom_site_fract_z
Si Si1 0.945068 0.804497 0.836183
Si Si2 0.097845 0.719470 0.662868
Si Si3 0.911950 0.607374 0.666020
Si Si4 0.000000 0.557552 0.165876
Si Si5 0.847233 0.855288 0.835845
Si Si6 0.714971 0.554743 0.835577
Si Si7 0.198138 0.771220 0.335960
Si Si8 0.310426 0.056164 0.662872
O O1 0.937357 0.754358 0.753049
O O2 0.904712 0.845625 0.791904
O O3 0.000000 0.825223 0.802049
O O4 0.939500 0.791259 0.000000
O O5 0.085037 0.729070 0.500000
O O6 0.086221 0.664204 0.704761
O O7 0.155574 0.731200 0.693575
O O8 0.923122 0.598229 0.500000
O O9 0.951574 0.579544 0.760683
O O10 0.857770 0.587763 0.707511
O O11 0.000000 0.500000 0.189901
O O12 0.000000 0.570840 0.000000
O O13 0.832235 0.910906 0.800619
O O14 0.811289 0.820324 0.749237
O O15 0.839025 0.843620 0.000000
O O16 0.700517 0.500000 0.787819
O O17 0.763316 0.573765 0.753070
O O18 0.728595 0.556563 0.000000
O O19 0.201014 0.785416 0.500000
O O20 0.250000 0.750000 0.281250
O O21 0.296748 0.064805 0.500000
O O22 0.323105 0.000000 0.694171
#
# Coordination Sequence:
#
# PCOD8273090 Si02
#       8
#    16  16  16   8  16  16  16  16
#     4   9  18  33  52  71  95 128 164 203 244 290
#     4   9  19  33  48  73 101 126 159 197 241 289
#     4  10  21  36  55  75  97 127 163 206 253 300
#     4  11  25  41  55  73  97 127 167 215 260 301
#     4   9  18  32  49  71  98 130 166 200 242 295
#     4   9  18  32  50  73 102 134 165 200 244 292
#     4   9  18  31  49  72 100 131 160 195 238 285
#     4   9  18  32  51  74  97 125 163 204 245 292
#
# _framework density 17.188655000000001
#
# number of rings (size 3 to 8) (size 9 to 14) (size 15 to 20)
#    0.000    2.733    0.000    0.600    2.800    3.200 
#    0.000    1.333    0.000    0.400    0.000    2.800 
#    0.000    0.000    0.000   10.000    0.000   10.400 
#
# Total GULP energy -743981.122849 kJ/mol
# GULP energy per Si atom -12399.685381 kJ/mol
# Density = 1.714953 g / cm^3
# Si number density = 17.188655 Si / 1000 Ang^3
#
#
#
# Elastic Constant Matrix: (Units=GPa)
#
#
# Indices 1 2 3 4 5 6 
#
# 1 134.1649 75.3737 52.3386 0.0000 0.0000 0.0000
# 2 75.3737 108.2837 48.4771 0.0000 0.0000 0.0000
# 3 52.3386 48.4771 53.3483 0.0000 0.0000 0.0000
# 4 0.0000 0.0000 0.0000 24.1791 0.0000 0.0000
# 5 0.0000 0.0000 0.0000 0.0000 23.8523 0.0000
# 6 0.0000 0.0000 0.0000 0.0000 0.0000 23.6463
#
#
#
# Elastic Compliance Matrix: (Units=1/GPa)
#
#
# Indices 1 2 3 4 5 6 
#
# 1 0.014130 -0.006118 -0.008303 0.000000 0.000000 0.000000
# 2 -0.006118 0.018218 -0.010552 0.000000 0.000000 0.000000
# 3 -0.008303 -0.010552 0.036478 0.000000 0.000000 0.000000
# 4 0.000000 0.000000 0.000000 0.041358 0.000000 0.000000
# 5 0.000000 0.000000 0.000000 0.000000 0.041925 0.000000
# 6 0.000000 0.000000 0.000000 0.000000 0.000000 0.042290
#
#
# Mechanical properties :
#
#
# Convention : Reuss Voigt Hill
#
# Bulk Modulus (GPa) = 52.96457 72.01953 62.49205
# Shear Modulus (GPa) = 19.94916 22.30937 21.12926
#
# Velocity S-wave (km/s) = 3.41045 3.60656 3.50988
# Velocity P-wave (km/s) = 6.81093 7.70282 7.27057
#
# Compressibility (1/GPa) = 0.01888055
#
# Stress axis : x y z
#
# Youngs Moduli (GPa) = 70.77280 54.89163 27.41352
#
# Poissons Ratio (x) = 0.33585 0.22760
# Poissons Ratio (y) = 0.43302 0.28926
# Poissons Ratio (z) = 0.58759 0.57920
#
# Static dielectric constant tensor:
#      x y z
#    x 3.329530 0.000000 0.000000 
#    y 0.000000 3.247840 0.000000 
#    z 0.000000 0.000000 3.222730 
# 
# 
# High freq. dielectric constant tensor:
#      x y z
#    x 1.664430 0.000000 0.000000 
#    y 0.000000 1.655650 0.000000 
#    z 0.000000 0.000000 1.661070 
# 
# From -- ./inp_files/17108.got.cif
#   From: 2010.03.12/outbox.cif.g09.slc.cpg/sg65_9_cif.got.tgz:17108.got - 2010.04.10 20:52:16.
