data_PCOD8273451
_publ_section_title
;
Structure prediction by ZEFSAII (Michael W. Deem and Ramdas Pophale) SiO2 
 PCOD8273451
Probable space group: C M M M
;
_chemical_formula_sum "Si O2"
_cell_formula_units_Z 104
_cell_length_a 26.828991
_cell_length_b 21.821350
_cell_length_c 8.464090
_cell_angle_alpha 90.000000
_cell_angle_beta 90.000000
_cell_angle_gamma 90.000000
_cell_volume 4955.257501
_symmetry_space_group_name_H-M "C M M M"
_symmetry_group_IT_number 65
_symmetry_cell_setting 'orthorhombic'
loop_
_space_group_symop_operation_xyz
x,y,z
-x,-y,z
x,-y,-z
-x,y,-z
-x,-y,-z
x,y,-z
-x,y,z
x,-y,z
1/2+x,1/2+y,z
1/2-x,1/2-y,z
1/2+x,1/2-y,-z
1/2-x,1/2+y,-z
1/2-x,1/2-y,-z
1/2+x,1/2+y,-z
1/2-x,1/2+y,z
1/2+x,1/2-y,z
loop_
_atom_site_type_symbol
_atom_site_label
_atom_site_fract_x
_atom_site_fract_y
_atom_site_fract_z
Si Si1 0.444445 0.345311 0.813443
Si Si2 0.058568 0.386439 0.828631
Si Si3 0.445323 0.929425 0.500000
Si Si4 0.868149 0.071564 0.674865
Si Si5 0.116326 0.268112 0.822919
Si Si6 0.763325 0.069823 0.814836
Si Si7 0.782208 0.307520 0.316486
O O1 0.500000 0.341563 0.739467
O O2 0.418390 0.408147 0.763115
O O3 0.407843 0.292524 0.747114
O O4 0.448512 0.339881 0.000000
O O5 0.083104 0.413440 0.666028
O O6 0.070480 0.315022 0.828505
O O7 0.000000 0.398222 0.822654
O O8 0.078292 0.414063 0.000000
O O9 0.500000 0.896585 0.500000
O O10 0.453774 0.000000 0.500000
O O11 0.864487 0.100911 0.500000
O O12 0.819194 0.090566 0.772031
O O13 0.872194 0.000000 0.661868
O O14 0.160196 0.292663 0.712927
O O15 0.137362 0.256500 0.000000
O O16 0.728047 0.124793 0.754924
O O17 0.751455 0.000000 0.747062
O O18 0.757211 0.066563 0.000000
O O19 0.770817 0.313101 0.500000
O O20 0.750000 0.250000 0.245890
#
# Coordination Sequence:
#
# PCOD8273451 Si02
#       7
#    16  16   8  16  16  16  16
#     4  10  21  37  58  85 117 154 198 246 294 347
#     4   9  18  34  56  81 111 147 186 232 285 341
#     4   9  18  32  52  80 109 140 183 227 272 333
#     4  10  21  37  57  83 118 157 195 238 291 351
#     4  10  21  37  58  82 111 147 189 238 291 347
#     4  10  21  39  64  90 116 152 201 251 300 359
#     4  11  24  39  58  87 121 154 193 242 297 360
#
# _framework density 20.987808999999999
#
# number of rings (size 3 to 8) (size 9 to 14) (size 15 to 20)
#    0.000    2.077    0.000    2.769    1.077    8.923 
#    0.000    3.846    0.000    0.923    0.000    0.000 
#    0.000    0.000    0.000    0.000    0.000    0.000 
#
# Total GULP energy -644227.692630 kJ/mol
# GULP energy per Si atom -12388.994089 kJ/mol
# Density = 2.094004 g / cm^3
# Si number density = 20.987809 Si / 1000 Ang^3
#
#
#
# Elastic Constant Matrix: (Units=GPa)
#
#
# Indices 1 2 3 4 5 6 
#
# 1 89.1628 31.2216 15.2957 0.0000 0.0000 0.0000
# 2 31.2216 55.6960 26.4932 0.0000 0.0000 0.0000
# 3 15.2957 26.4932 106.4353 0.0000 0.0000 0.0000
# 4 0.0000 0.0000 0.0000 28.2230 0.0000 0.0000
# 5 0.0000 0.0000 0.0000 0.0000 -92.8269 0.0000
# 6 0.0000 0.0000 0.0000 0.0000 0.0000 30.2157
#
#
#
# Elastic Compliance Matrix: (Units=1/GPa)
#
#
# Indices 1 2 3 4 5 6 
#
# 1 0.013955 -0.007791 -0.000066 0.000000 0.000000 0.000000
# 2 -0.007791 0.024716 -0.005032 0.000000 0.000000 0.000000
# 3 -0.000066 -0.005032 0.010658 0.000000 0.000000 0.000000
# 4 0.000000 0.000000 0.000000 0.035432 0.000000 0.000000
# 5 0.000000 0.000000 0.000000 0.000000 -0.010773 0.000000
# 6 0.000000 0.000000 0.000000 0.000000 0.000000 0.033095
#
#
# Mechanical properties :
#
#
# Convention : Reuss Voigt Hill
#
# Bulk Modulus (GPa) = 42.46507 44.14613 43.30560
# Shear Modulus (GPa) = 35.53337 5.00794 20.27066
#
# Velocity S-wave (km/s) = 4.11913 1.54638 3.11115
# Velocity P-wave (km/s) = 6.54982 4.92628 5.79519
#
# Compressibility (1/GPa) = 0.02354876
#
# Stress axis : x y z
#
# Youngs Moduli (GPa) = 71.65879 40.45953 93.83042
#
# Poissons Ratio (x) = 0.31523 0.00620
# Poissons Ratio (y) = 0.55832 0.47220
# Poissons Ratio (z) = 0.00474 0.20361
#
# Static dielectric constant tensor:
#      x y z
#    x 3.727960 0.000000 0.000000 
#    y 0.000000 3.942140 0.000000 
#    z 0.000000 0.000000 4.203440 
# 
# 
# High freq. dielectric constant tensor:
#      x y z
#    x 1.800770 0.000000 0.000000 
#    y 0.000000 1.821860 0.000000 
#    z 0.000000 0.000000 1.828180 
# 
# From -- ./inp_files/16441.got.cif
#   From: 2010.03.12/outbox.cif.g09.slc.cpg/sg65_9_cif.got.tgz:16441.got - 2010.04.10 20:52:16.
