data_PCOD8273673
_publ_section_title
;
Structure prediction by ZEFSAII (Michael W. Deem and Ramdas Pophale) SiO2 
 PCOD8273673
Probable space group: C M M M
;
_chemical_formula_sum "Si O2"
_cell_formula_units_Z 80
_cell_length_a 28.292310
_cell_length_b 15.895153
_cell_length_c 9.069482
_cell_angle_alpha 90.000000
_cell_angle_beta 90.000000
_cell_angle_gamma 90.000000
_cell_volume 4078.642157
_symmetry_space_group_name_H-M "C M M M"
_symmetry_group_IT_number 65
_symmetry_cell_setting 'orthorhombic'
loop_
_space_group_symop_operation_xyz
x,y,z
-x,-y,z
x,-y,-z
-x,y,-z
-x,-y,-z
x,y,-z
-x,y,z
x,-y,z
1/2+x,1/2+y,z
1/2-x,1/2-y,z
1/2+x,1/2-y,-z
1/2-x,1/2+y,-z
1/2-x,1/2-y,-z
1/2+x,1/2+y,-z
1/2-x,1/2+y,z
1/2+x,1/2-y,z
loop_
_atom_site_type_symbol
_atom_site_label
_atom_site_fract_x
_atom_site_fract_y
_atom_site_fract_z
Si Si1 0.109953 0.500000 0.830006
Si Si2 0.221140 0.500000 0.170633
Si Si3 0.445971 0.142856 0.328619
Si Si4 0.446538 0.315863 0.830721
Si Si5 0.732814 0.341514 0.672187
Si Si6 0.868022 0.095625 0.666588
O O1 0.165430 0.500000 0.805930
O O2 0.088983 0.582316 0.755838
O O3 0.095437 0.500000 0.000000
O O4 0.240827 0.415076 0.241707
O O5 0.235437 0.500000 0.000000
O O6 0.433362 0.140393 0.500000
O O7 0.500000 0.114825 0.300323
O O8 0.436794 0.235743 0.270112
O O9 0.500000 0.349079 0.809747
O O10 0.410828 0.387914 0.778629
O O11 0.436880 0.292052 0.000000
O O12 0.743903 0.354232 0.500000
O O13 0.750000 0.250000 0.727677
O O14 0.676737 0.345678 0.703241
O O15 0.885871 0.111590 0.500000
O O16 0.851019 0.000000 0.687192
#
# Coordination Sequence:
#
# PCOD8273673 Si02
#       6
#     8   8  16  16  16  16
#     4  11  24  38  55  86 124 159 197 242 297 352
#     4  11  25  42  60  91 129 161 200 250 301 363
#     4  10  21  38  60  86 116 155 204 248 291 349
#     4  10  22  39  59  86 121 157 194 241 297 356
#     4  10  22  42  67  92 120 159 205 253 304 359
#     4  10  21  39  62  89 120 153 196 246 297 356
#
# _framework density 19.614370999999998
#
# number of rings (size 3 to 8) (size 9 to 14) (size 15 to 20)
#    0.000    1.800    1.000    2.100    2.800    7.200 
#    0.000    2.000    0.000    0.000    0.000    0.000 
#    0.000    0.000    0.000    0.000    0.000    0.000 
#
# Total GULP energy -496161.512791 kJ/mol
# GULP energy per Si atom -12404.037820 kJ/mol
# Density = 1.956973 g / cm^3
# Si number density = 19.614371 Si / 1000 Ang^3
#
#
#
# Elastic Constant Matrix: (Units=GPa)
#
#
# Indices 1 2 3 4 5 6 
#
# 1 102.9615 62.1196 66.1762 0.0000 0.0000 0.0000
# 2 62.1196 116.0747 54.9849 0.0000 0.0000 0.0000
# 3 66.1762 54.9849 112.9227 0.0000 0.0000 0.0000
# 4 0.0000 0.0000 0.0000 37.3680 0.0000 0.0000
# 5 0.0000 0.0000 0.0000 0.0000 35.0548 0.0000
# 6 0.0000 0.0000 0.0000 0.0000 0.0000 38.9408
#
#
#
# Elastic Compliance Matrix: (Units=1/GPa)
#
#
# Indices 1 2 3 4 5 6 
#
# 1 0.018460 -0.006180 -0.007809 0.000000 0.000000 0.000000
# 2 -0.006180 0.013267 -0.002838 0.000000 0.000000 0.000000
# 3 -0.007809 -0.002838 0.014814 0.000000 0.000000 0.000000
# 4 0.000000 0.000000 0.000000 0.026761 0.000000 0.000000
# 5 0.000000 0.000000 0.000000 0.000000 0.028527 0.000000
# 6 0.000000 0.000000 0.000000 0.000000 0.000000 0.025680
#
#
# Mechanical properties :
#
#
# Convention : Reuss Voigt Hill
#
# Bulk Modulus (GPa) = 77.60164 77.61338 77.60751
# Shear Modulus (GPa) = 30.21902 32.18460 31.20181
#
# Velocity S-wave (km/s) = 3.92938 4.05516 3.99276
# Velocity P-wave (km/s) = 7.76120 7.84737 7.80441
#
# Compressibility (1/GPa) = 0.01288633
#
# Stress axis : x y z
#
# Youngs Moduli (GPa) = 54.17120 75.37456 67.50417
#
# Poissons Ratio (x) = 0.46583 0.52713
# Poissons Ratio (y) = 0.33479 0.19160
# Poissons Ratio (z) = 0.42302 0.21394
#
# Static dielectric constant tensor:
#      x y z
#    x 3.604000 0.000000 0.000000 
#    y 0.000000 3.593130 0.000000 
#    z 0.000000 0.000000 3.640260 
# 
# 
# High freq. dielectric constant tensor:
#      x y z
#    x 1.770640 0.000000 0.000000 
#    y 0.000000 1.766440 0.000000 
#    z 0.000000 0.000000 1.769620 
# 
# From -- ./inp_files/16118.got.cif
#   From: 2010.03.12/outbox.cif.g09.slc.cpg/sg65_9_cif.got.tgz:16118.got - 2010.04.10 20:52:16.
