data_PCOD8273204
_publ_section_title
;
Structure prediction by ZEFSAII (Michael W. Deem and Ramdas Pophale) SiO2 
 PCOD8273204
Probable space group: C M M M
;
_chemical_formula_sum "Si O2"
_cell_formula_units_Z 88
_cell_length_a 8.768927
_cell_length_b 21.805837
_cell_length_c 23.976332
_cell_angle_alpha 90.000000
_cell_angle_beta 90.000000
_cell_angle_gamma 90.000000
_cell_volume 4584.605380
_symmetry_space_group_name_H-M "C M M M"
_symmetry_group_IT_number 65
_symmetry_cell_setting 'orthorhombic'
loop_
_space_group_symop_operation_xyz
x,y,z
-x,-y,z
x,-y,-z
-x,y,-z
-x,-y,-z
x,y,-z
-x,y,z
x,-y,z
1/2+x,1/2+y,z
1/2-x,1/2-y,z
1/2+x,1/2-y,-z
1/2-x,1/2+y,-z
1/2-x,1/2-y,-z
1/2+x,1/2+y,-z
1/2-x,1/2+y,z
1/2+x,1/2-y,z
loop_
_atom_site_type_symbol
_atom_site_label
_atom_site_fract_x
_atom_site_fract_y
_atom_site_fract_z
Si Si1 0.822814 0.101507 0.862701
Si Si2 0.325038 0.812913 0.940097
Si Si3 0.329361 0.571349 0.258291
Si Si4 0.176601 0.813858 0.565528
Si Si5 0.321118 0.000000 0.062107
Si Si6 0.178966 0.429441 0.627201
O O1 0.784239 0.166101 0.889669
O O2 0.768211 0.102704 0.798305
O O3 0.726235 0.057993 0.902214
O O4 0.000000 0.083513 0.864933
O O5 0.500000 0.808847 0.919514
O O6 0.250000 0.750000 0.955846
O O7 0.319160 0.850329 0.000000
O O8 0.500000 0.594262 0.273871
O O9 0.331485 0.500000 0.245053
O O10 0.217118 0.587159 0.308928
O O11 0.205084 0.817168 0.500000
O O12 0.250000 0.750000 0.588833
O O13 0.245640 0.877101 0.589325
O O14 0.000000 0.811839 0.581507
O O15 0.500000 0.000000 0.055853
O O16 0.246329 0.000000 0.000000
O O17 0.235939 0.500000 0.613426
O O18 0.000000 0.426020 0.617755
#
# Coordination Sequence:
#
# PCOD8273204 Si02
#       6
#    16  16  16  16   8  16
#     4  11  21  35  55  79 105 137 176 221 273 327
#     4  10  21  37  55  75 100 133 173 218 271 330
#     4   9  18  35  55  77 108 145 185 228 275 328
#     4  10  21  38  61  88 120 159 198 239 291 346
#     4  11  23  35  49  75 109 141 174 217 268 325
#     4  10  21  36  57  87 119 154 197 242 288 339
#
# _framework density 19.194673000000002
#
# number of rings (size 3 to 8) (size 9 to 14) (size 15 to 20)
#    0.000    1.909    0.909    3.000    0.000    8.000 
#    0.000    2.727    0.000    4.364    0.000    0.000 
#    0.000    0.000    0.000    0.000    0.000    0.000 
#
# Total GULP energy -545145.901402 kJ/mol
# GULP energy per Si atom -12389.679577 kJ/mol
# Density = 1.915099 g / cm^3
# Si number density = 19.194673 Si / 1000 Ang^3
#
#
#
# Elastic Constant Matrix: (Units=GPa)
#
#
# Indices 1 2 3 4 5 6 
#
# 1 86.4799 42.0718 45.5524 0.0000 0.0000 0.0000
# 2 42.0718 97.3896 48.8252 0.0000 0.0000 0.0000
# 3 45.5524 48.8252 80.6289 0.0000 0.0000 0.0000
# 4 0.0000 0.0000 0.0000 39.6561 0.0000 0.0000
# 5 0.0000 0.0000 0.0000 0.0000 31.7493 0.0000
# 6 0.0000 0.0000 0.0000 0.0000 0.0000 35.1105
#
#
#
# Elastic Compliance Matrix: (Units=1/GPa)
#
#
# Indices 1 2 3 4 5 6 
#
# 1 0.017346 -0.003705 -0.007556 0.000000 0.000000 0.000000
# 2 -0.003705 0.015536 -0.007314 0.000000 0.000000 0.000000
# 3 -0.007556 -0.007314 0.021101 0.000000 0.000000 0.000000
# 4 0.000000 0.000000 0.000000 0.025217 0.000000 0.000000
# 5 0.000000 0.000000 0.000000 0.000000 0.031497 0.000000
# 6 0.000000 0.000000 0.000000 0.000000 0.000000 0.028482
#
#
# Mechanical properties :
#
#
# Convention : Reuss Voigt Hill
#
# Bulk Modulus (GPa) = 59.41452 59.71079 59.56266
# Shear Modulus (GPa) = 27.48167 29.83977 28.66072
#
# Velocity S-wave (km/s) = 3.78793 3.94710 3.86834
# Velocity P-wave (km/s) = 7.08181 7.20752 7.14494
#
# Compressibility (1/GPa) = 0.01683090
#
# Stress axis : x y z
#
# Youngs Moduli (GPa) = 57.64983 64.36808 47.39170
#
# Poissons Ratio (x) = 0.23850 0.35810
# Poissons Ratio (y) = 0.21360 0.34664
# Poissons Ratio (z) = 0.43561 0.47081
#
# Static dielectric constant tensor:
#      x y z
#    x 3.502640 0.000000 0.000000 
#    y 0.000000 3.888950 0.000000 
#    z 0.000000 0.000000 3.547310 
# 
# 
# High freq. dielectric constant tensor:
#      x y z
#    x 1.750020 0.000000 0.000000 
#    y 0.000000 1.737570 0.000000 
#    z 0.000000 0.000000 1.747010 
# 
# From -- ./inp_files/67554.got.cif
#   From: 2010.03.12/outbox.cif.g09.slc.cpg/sg65_34_cif.got.tgz:67554.got - 2010.04.10 20:52:16.
