data_PCOD8273595
_publ_section_title
;
Structure prediction by ZEFSAII (Michael W. Deem and Ramdas Pophale) SiO2 
 PCOD8273595
Probable space group: C M M M
;
_chemical_formula_sum "Si O2"
_cell_formula_units_Z 64
_cell_length_a 8.822858
_cell_length_b 28.021369
_cell_length_c 13.995177
_cell_angle_alpha 90.000000
_cell_angle_beta 90.000000
_cell_angle_gamma 90.000000
_cell_volume 3460.007452
_symmetry_space_group_name_H-M "C M M M"
_symmetry_group_IT_number 65
_symmetry_cell_setting 'orthorhombic'
loop_
_space_group_symop_operation_xyz
x,y,z
-x,-y,z
x,-y,-z
-x,y,-z
-x,-y,-z
x,y,-z
-x,y,z
x,-y,z
1/2+x,1/2+y,z
1/2-x,1/2-y,z
1/2+x,1/2-y,-z
1/2-x,1/2+y,-z
1/2-x,1/2-y,-z
1/2+x,1/2+y,-z
1/2-x,1/2+y,z
1/2+x,1/2-y,z
loop_
_atom_site_type_symbol
_atom_site_label
_atom_site_fract_x
_atom_site_fract_y
_atom_site_fract_z
Si Si1 0.166198 0.552356 0.389756
Si Si2 0.674500 0.620121 0.735849
Si Si3 0.677211 0.945983 0.110235
Si Si4 0.677672 0.198543 0.608144
O O1 0.197622 0.548100 0.500000
O O2 0.163734 0.500000 0.343038
O O3 0.304999 0.580893 0.346150
O O4 0.000000 0.576604 0.370303
O O5 0.500000 0.632257 0.753416
O O6 0.743243 0.596789 0.831647
O O7 0.757484 0.666929 0.695109
O O8 0.500000 0.943230 0.132556
O O9 0.735160 0.000000 0.135483
O O10 0.711519 0.935362 0.000000
O O11 0.712590 0.178212 0.500000
O O12 0.500000 0.203331 0.623163
O O13 0.750000 0.250000 0.618858
#
# Coordination Sequence:
#
# PCOD8273595 Si02
#       4
#    16  16  16  16
#     4   9  18  32  48  67  96 136 178 216 255 303
#     4  12  23  32  49  78 109 140 174 214 263 319
#     4   9  19  37  59  80 104 139 183 227 270 318
#     4  10  21  38  59  81 107 140 179 223 268 315
#
# _framework density 18.497070000000001
#
# number of rings (size 3 to 8) (size 9 to 14) (size 15 to 20)
#    0.000    2.000    0.000    6.000    0.000    9.500 
#    0.000    2.500    0.000    0.750    0.000    0.000 
#    0.000    0.000    0.000    0.000    0.000    0.000 
#
# Total GULP energy -396442.583024 kJ/mol
# GULP energy per Si atom -12388.830719 kJ/mol
# Density = 1.845497 g / cm^3
# Si number density = 18.497070 Si / 1000 Ang^3
#
#
#
# Elastic Constant Matrix: (Units=GPa)
#
#
# Indices 1 2 3 4 5 6 
#
# 1 104.6895 52.3683 50.8549 0.0000 0.0000 0.0000
# 2 52.3683 91.7308 58.2244 0.0000 0.0000 0.0000
# 3 50.8549 58.2244 106.1242 0.0000 0.0000 0.0000
# 4 0.0000 0.0000 0.0000 28.5468 0.0000 0.0000
# 5 0.0000 0.0000 0.0000 0.0000 23.8632 0.0000
# 6 0.0000 0.0000 0.0000 0.0000 0.0000 30.3895
#
#
#
# Elastic Compliance Matrix: (Units=1/GPa)
#
#
# Indices 1 2 3 4 5 6 
#
# 1 0.014223 -0.005821 -0.003622 0.000000 0.000000 0.000000
# 2 -0.005821 0.019108 -0.007694 0.000000 0.000000 0.000000
# 3 -0.003622 -0.007694 0.015380 0.000000 0.000000 0.000000
# 4 0.000000 0.000000 0.000000 0.035030 0.000000 0.000000
# 5 0.000000 0.000000 0.000000 0.000000 0.041906 0.000000
# 6 0.000000 0.000000 0.000000 0.000000 0.000000 0.032906
#
#
# Mechanical properties :
#
#
# Convention : Reuss Voigt Hill
#
# Bulk Modulus (GPa) = 69.26647 69.49329 69.37988
# Shear Modulus (GPa) = 25.29840 25.96636 25.63238
#
# Velocity S-wave (km/s) = 3.70225 3.75081 3.72661
# Velocity P-wave (km/s) = 7.47022 7.51063 7.49045
#
# Compressibility (1/GPa) = 0.01443700
#
# Stress axis : x y z
#
# Youngs Moduli (GPa) = 70.30679 52.33320 65.01866
#
# Poissons Ratio (x) = 0.30462 0.23552
# Poissons Ratio (y) = 0.40924 0.50027
# Poissons Ratio (z) = 0.25467 0.40267
#
# Static dielectric constant tensor:
#      x y z
#    x 3.316200 0.000000 0.000000 
#    y 0.000000 3.462960 0.000000 
#    z 0.000000 0.000000 3.440880 
# 
# 
# High freq. dielectric constant tensor:
#      x y z
#    x 1.709540 0.000000 0.000000 
#    y 0.000000 1.708750 0.000000 
#    z 0.000000 0.000000 1.713370 
# 
# From -- ./inp_files/36813.got.cif
#   From: 2010.03.12/outbox.cif.g09.slc.cpg/sg65_19_cif.got.tgz:36813.got - 2010.04.10 20:52:16.
