data_PCOD8273066
_publ_section_title
;
Structure prediction by ZEFSAII (Michael W. Deem and Ramdas Pophale) SiO2 
 PCOD8273066
Probable space group: C M M M
;
_chemical_formula_sum "Si O2"
_cell_formula_units_Z 88
_cell_length_a 16.148058
_cell_length_b 8.683243
_cell_length_c 30.102065
_cell_angle_alpha 90.000000
_cell_angle_beta 90.000000
_cell_angle_gamma 90.000000
_cell_volume 4220.836648
_symmetry_space_group_name_H-M "C M M M"
_symmetry_group_IT_number 65
_symmetry_cell_setting 'orthorhombic'
loop_
_space_group_symop_operation_xyz
x,y,z
-x,-y,z
x,-y,-z
-x,y,-z
-x,-y,-z
x,y,-z
-x,y,z
x,-y,z
1/2+x,1/2+y,z
1/2-x,1/2-y,z
1/2+x,1/2-y,-z
1/2-x,1/2+y,-z
1/2-x,1/2-y,-z
1/2+x,1/2+y,-z
1/2-x,1/2+y,z
1/2+x,1/2-y,z
loop_
_atom_site_type_symbol
_atom_site_label
_atom_site_fract_x
_atom_site_fract_y
_atom_site_fract_z
Si Si1 0.163409 0.180674 0.806734
Si Si2 0.000000 0.175885 0.947468
Si Si3 0.904502 0.667458 0.275239
Si Si4 0.840146 0.182675 0.547979
Si Si5 0.403778 0.330040 0.639426
Si Si6 0.841028 0.316831 0.099032
O O1 0.250000 0.250000 0.790963
O O2 0.102311 0.216129 0.766221
O O3 0.134164 0.265721 0.851392
O O4 0.168490 0.000000 0.816575
O O5 0.084702 0.258246 0.932059
O O6 0.000000 0.000000 0.930030
O O7 0.000000 0.182504 0.000000
O O8 0.864379 0.500000 0.264296
O O9 0.862312 0.732849 0.320422
O O10 0.000000 0.644523 0.285294
O O11 0.879285 0.233842 0.500000
O O12 0.750000 0.250000 0.552221
O O13 0.890545 0.246105 0.590634
O O14 0.836922 0.000000 0.549485
O O15 0.500000 0.343641 0.648705
O O16 0.363239 0.500000 0.640662
O O17 0.835607 0.500000 0.095870
O O18 0.750000 0.250000 0.085551
#
# Coordination Sequence:
#
# PCOD8273066 Si02
#       6
#    16   8  16  16  16  16
#     4  11  22  38  60  86 118 153 196 242 292 351
#     4  11  25  45  69  99 133 173 223 271 320 379
#     4  10  21  36  54  78 110 146 186 229 280 338
#     4   9  18  32  50  72  97 127 165 212 266 326
#     4   9  18  33  51  72 100 134 175 220 270 327
#     4  11  23  42  67  96 133 172 215 267 322 380
#
# _framework density 20.848948
#
# number of rings (size 3 to 8) (size 9 to 14) (size 15 to 20)
#    0.000    1.909    0.000    5.182    1.273    4.000 
#    0.000    3.636    0.000    0.000    0.000    5.091 
#    0.000    0.000    0.000    0.000    0.000    0.000 
#
# Total GULP energy -545243.958949 kJ/mol
# GULP energy per Si atom -12391.908158 kJ/mol
# Density = 2.080149 g / cm^3
# Si number density = 20.848948 Si / 1000 Ang^3
#
#
#
# Elastic Constant Matrix: (Units=GPa)
#
#
# Indices 1 2 3 4 5 6 
#
# 1 63.6434 38.7773 44.8699 0.0000 0.0000 0.0000
# 2 38.7773 134.6041 53.1766 0.0000 0.0000 0.0000
# 3 44.8699 53.1766 130.6658 0.0000 0.0000 0.0000
# 4 0.0000 0.0000 0.0000 28.0788 0.0000 0.0000
# 5 0.0000 0.0000 0.0000 0.0000 22.6608 0.0000
# 6 0.0000 0.0000 0.0000 0.0000 0.0000 28.7764
#
#
#
# Elastic Compliance Matrix: (Units=1/GPa)
#
#
# Indices 1 2 3 4 5 6 
#
# 1 0.022467 -0.004081 -0.006054 0.000000 0.000000 0.000000
# 2 -0.004081 0.009594 -0.002503 0.000000 0.000000 0.000000
# 3 -0.006054 -0.002503 0.010751 0.000000 0.000000 0.000000
# 4 0.000000 0.000000 0.000000 0.035614 0.000000 0.000000
# 5 0.000000 0.000000 0.000000 0.000000 0.044129 0.000000
# 6 0.000000 0.000000 0.000000 0.000000 0.000000 0.034751
#
#
# Mechanical properties :
#
#
# Convention : Reuss Voigt Hill
#
# Bulk Modulus (GPa) = 57.02701 66.95123 61.98912
# Shear Modulus (GPa) = 26.53545 28.70914 27.62229
#
# Velocity S-wave (km/s) = 3.57143 3.71483 3.64383
# Velocity P-wave (km/s) = 6.66473 7.11212 6.89205
#
# Compressibility (1/GPa) = 0.01753555
#
# Stress axis : x y z
#
# Youngs Moduli (GPa) = 44.50902 104.23621 93.01599
#
# Poissons Ratio (x) = 0.42535 0.56316
# Poissons Ratio (y) = 0.18162 0.23282
# Poissons Ratio (z) = 0.26948 0.26091
#
# Static dielectric constant tensor:
#      x y z
#    x 3.608380 0.000000 0.000000 
#    y 0.000000 4.019080 0.000000 
#    z 0.000000 0.000000 4.029110 
# 
# 
# High freq. dielectric constant tensor:
#      x y z
#    x 1.793240 0.000000 0.000000 
#    y 0.000000 1.820500 0.000000 
#    z 0.000000 0.000000 1.831490 
# 
# From -- ./inp_files/77880.got.cif
#   From: 2010.03.12/outbox.cif.g09.slc.cpg/sg65_39_cif.got.tgz:77880.got - 2010.04.10 20:52:16.
