data_PCOD8273622
_publ_section_title
;
Structure prediction by ZEFSAII (Michael W. Deem and Ramdas Pophale) SiO2 
 PCOD8273622
Probable space group: C M M M
;
_chemical_formula_sum "Si O2"
_cell_formula_units_Z 64
_cell_length_a 21.197974
_cell_length_b 9.055274
_cell_length_c 16.945314
_cell_angle_alpha 90.000000
_cell_angle_beta 90.000000
_cell_angle_gamma 90.000000
_cell_volume 3252.711701
_symmetry_space_group_name_H-M "C M M M"
_symmetry_group_IT_number 65
_symmetry_cell_setting 'orthorhombic'
loop_
_space_group_symop_operation_xyz
x,y,z
-x,-y,z
x,-y,-z
-x,y,-z
-x,-y,-z
x,y,-z
-x,y,z
x,-y,z
1/2+x,1/2+y,z
1/2-x,1/2-y,z
1/2+x,1/2-y,-z
1/2-x,1/2+y,-z
1/2-x,1/2-y,-z
1/2+x,1/2+y,-z
1/2-x,1/2+y,z
1/2+x,1/2-y,z
loop_
_atom_site_type_symbol
_atom_site_label
_atom_site_fract_x
_atom_site_fract_y
_atom_site_fract_z
Si Si1 0.316647 0.174193 0.684088
Si Si2 0.631875 0.170309 0.854639
Si Si3 0.814313 0.828960 0.000000
Si Si4 0.500000 0.168880 0.911644
Si Si5 0.428567 0.669282 0.406954
O O1 0.250000 0.250000 0.661276
O O2 0.333863 0.213498 0.773951
O O3 0.374730 0.230021 0.631521
O O4 0.309462 0.000000 0.670794
O O5 0.557563 0.203617 0.852799
O O6 0.646596 0.000000 0.877004
O O7 0.651500 0.282606 0.921289
O O8 0.750000 0.750000 0.000000
O O9 0.803509 0.000000 0.000000
O O10 0.500000 0.000000 0.935128
O O11 0.500000 0.248871 0.000000
O O12 0.421312 0.686077 0.500000
O O13 0.500000 0.718530 0.382064
O O14 0.417526 0.500000 0.381213
#
# Coordination Sequence:
#
# PCOD8273622 Si02
#       5
#    16  16   8   8  16
#     4  11  24  39  61  90 124 161 204 252 299 356
#     4  10  21  38  59  84 116 154 195 240 295 355
#     4  12  24  37  56  79 109 150 198 246 295 350
#     4   9  16  32  60  84 109 148 189 235 294 354
#     4   9  20  41  67  93 124 161 197 239 298 363
#
# _framework density 19.675891
#
# number of rings (size 3 to 8) (size 9 to 14) (size 15 to 20)
#    0.000    1.875    1.250    3.375    1.750    5.500 
#    0.000    2.500    0.000    0.000    0.000    0.000 
#    0.000    0.000    0.000    0.000    0.000    0.000 
#
# Total GULP energy -396518.336712 kJ/mol
# GULP energy per Si atom -12391.198022 kJ/mol
# Density = 1.963111 g / cm^3
# Si number density = 19.675891 Si / 1000 Ang^3
#
#
#
# Elastic Constant Matrix: (Units=GPa)
#
#
# Indices 1 2 3 4 5 6 
#
# 1 166.2098 67.2727 50.2894 0.0000 0.0000 0.0000
# 2 67.2727 109.4441 47.3697 0.0000 0.0000 0.0000
# 3 50.2894 47.3697 71.1824 0.0000 0.0000 0.0000
# 4 0.0000 0.0000 0.0000 32.0210 0.0000 0.0000
# 5 0.0000 0.0000 0.0000 0.0000 54.2311 0.0000
# 6 0.0000 0.0000 0.0000 0.0000 0.0000 31.3912
#
#
#
# Elastic Compliance Matrix: (Units=1/GPa)
#
#
# Indices 1 2 3 4 5 6 
#
# 1 0.008620 -0.003740 -0.003601 0.000000 0.000000 0.000000
# 2 -0.003740 0.014456 -0.006978 0.000000 0.000000 0.000000
# 3 -0.003601 -0.006978 0.021236 0.000000 0.000000 0.000000
# 4 0.000000 0.000000 0.000000 0.031230 0.000000 0.000000
# 5 0.000000 0.000000 0.000000 0.000000 0.018440 0.000000
# 6 0.000000 0.000000 0.000000 0.000000 0.000000 0.031856
#
#
# Mechanical properties :
#
#
# Convention : Reuss Voigt Hill
#
# Bulk Modulus (GPa) = 63.79836 75.18890 69.49363
# Shear Modulus (GPa) = 31.30886 35.65563 33.48224
#
# Velocity S-wave (km/s) = 3.99335 4.26155 4.12963
# Velocity P-wave (km/s) = 7.33195 7.90640 7.62458
#
# Compressibility (1/GPa) = 0.01567438
#
# Stress axis : x y z
#
# Youngs Moduli (GPa) = 116.01371 69.17532 47.08959
#
# Poissons Ratio (x) = 0.25870 0.16957
# Poissons Ratio (y) = 0.43386 0.32859
# Poissons Ratio (z) = 0.41777 0.48270
#
# Static dielectric constant tensor:
#      x y z
#    x 4.166470 0.000000 0.000000 
#    y 0.000000 3.334280 0.000000 
#    z 0.000000 0.000000 3.502590 
# 
# 
# High freq. dielectric constant tensor:
#      x y z
#    x 1.788450 0.000000 0.000000 
#    y 0.000000 1.751980 0.000000 
#    z 0.000000 0.000000 1.761790 
# 
# From -- ./inp_files/36066.got.cif
#   From: 2010.03.12/outbox.cif.g09.slc.cpg/sg65_19_cif.got.tgz:36066.got - 2010.04.10 20:52:16.
