data_PCOD8273123
_publ_section_title
;
Structure prediction by ZEFSAII (Michael W. Deem and Ramdas Pophale) SiO2 
 PCOD8273123
Probable space group: C M M M
;
_chemical_formula_sum "Si O2"
_cell_formula_units_Z 112
_cell_length_a 14.810003
_cell_length_b 27.805196
_cell_length_c 14.653072
_cell_angle_alpha 90.000000
_cell_angle_beta 90.000000
_cell_angle_gamma 90.000000
_cell_volume 6034.062314
_symmetry_space_group_name_H-M "C M M M"
_symmetry_group_IT_number 65
_symmetry_cell_setting 'orthorhombic'
loop_
_space_group_symop_operation_xyz
x,y,z
-x,-y,z
x,-y,-z
-x,y,-z
-x,-y,-z
x,y,-z
-x,y,z
x,-y,z
1/2+x,1/2+y,z
1/2-x,1/2-y,z
1/2+x,1/2-y,-z
1/2-x,1/2+y,-z
1/2-x,1/2-y,-z
1/2+x,1/2+y,-z
1/2-x,1/2+y,z
1/2+x,1/2-y,z
loop_
_atom_site_type_symbol
_atom_site_label
_atom_site_fract_x
_atom_site_fract_y
_atom_site_fract_z
Si Si1 0.104010 0.695223 0.893889
Si Si2 0.103248 0.267211 0.598904
Si Si3 0.341714 0.125960 0.399286
Si Si4 0.000000 0.445553 0.856172
Si Si5 0.694335 0.945620 0.102294
Si Si6 0.249969 0.135891 0.215838
Si Si7 0.395631 0.713996 0.224424
Si Si8 0.500000 0.944556 0.641198
O O1 0.165206 0.662558 0.829595
O O2 0.116223 0.750174 0.860791
O O3 0.000000 0.678959 0.880035
O O4 0.133151 0.691923 0.000000
O O5 0.148212 0.253912 0.500000
O O6 0.106559 0.324003 0.616742
O O7 0.147357 0.238091 0.683277
O O8 0.000000 0.251807 0.596136
O O9 0.296111 0.124952 0.500000
O O10 0.265433 0.122716 0.321818
O O11 0.411078 0.081746 0.395399
O O12 0.907341 0.422307 0.894569
O O13 0.000000 0.500000 0.891830
O O14 0.000000 0.441234 0.748776
O O15 0.762480 0.914663 0.163603
O O16 0.692235 0.000000 0.141254
O O17 0.731181 0.944316 0.000000
O O18 0.158911 0.165810 0.203310
O O19 0.500000 0.700155 0.237725
O O20 0.500000 0.000000 0.607639
#
# Coordination Sequence:
#
# PCOD8273123 Si02
#       8
#    16  16  16   8  16  16  16   8
#     4  10  22  37  54  79 112 146 179 220 270 330
#     4   9  17  32  54  77 106 144 183 223 268 320
#     4  11  22  33  50  77 111 151 190 221 262 319
#     4   9  17  31  53  78 109 147 180 215 261 315
#     4  10  21  36  55  80 111 144 178 221 270 321
#     4  12  23  35  57  82 107 143 186 230 272 329
#     4  10  22  39  57  78 107 141 182 234 285 330
#     4  11  21  35  53  78 117 159 192 223 264 323
#
# _framework density 18.561292999999999
#
# number of rings (size 3 to 8) (size 9 to 14) (size 15 to 20)
#    0.000    1.714    3.571    1.286    2.000    3.714 
#    0.000    1.429    0.000    0.429    0.000    1.000 
#    0.000    0.000    0.000    6.143    0.000    0.000 
#
# Total GULP energy -694188.835785 kJ/mol
# GULP energy per Si atom -12396.229210 kJ/mol
# Density = 1.851905 g / cm^3
# Si number density = 18.561293 Si / 1000 Ang^3
#
#
#
# Elastic Constant Matrix: (Units=GPa)
#
#
# Indices 1 2 3 4 5 6 
#
# 1 47.9790 39.7583 27.3445 0.0000 0.0000 0.0000
# 2 39.7583 93.2639 36.6730 0.0000 0.0000 0.0000
# 3 27.3445 36.6730 121.8520 0.0000 0.0000 0.0000
# 4 0.0000 0.0000 0.0000 19.8807 0.0000 0.0000
# 5 0.0000 0.0000 0.0000 0.0000 11.0641 0.0000
# 6 0.0000 0.0000 0.0000 0.0000 0.0000 29.7465
#
#
#
# Elastic Compliance Matrix: (Units=1/GPa)
#
#
# Indices 1 2 3 4 5 6 
#
# 1 0.033610 -0.012887 -0.003664 0.000000 0.000000 0.000000
# 2 -0.012887 0.017103 -0.002255 0.000000 0.000000 0.000000
# 3 -0.003664 -0.002255 0.009708 0.000000 0.000000 0.000000
# 4 0.000000 0.000000 0.000000 0.050300 0.000000 0.000000
# 5 0.000000 0.000000 0.000000 0.000000 0.090383 0.000000
# 6 0.000000 0.000000 0.000000 0.000000 0.000000 0.033617
#
#
# Mechanical properties :
#
#
# Convention : Reuss Voigt Hill
#
# Bulk Modulus (GPa) = 43.84485 52.29407 48.06946
# Shear Modulus (GPa) = 17.86129 22.75953 20.31041
#
# Velocity S-wave (km/s) = 3.10544 3.50549 3.31151
# Velocity P-wave (km/s) = 6.04411 6.67978 6.36988
#
# Compressibility (1/GPa) = 0.02280770
#
# Stress axis : x y z
#
# Youngs Moduli (GPa) = 29.75349 58.46972 103.01178
#
# Poissons Ratio (x) = 0.75350 0.37740
# Poissons Ratio (y) = 0.38344 0.23233
# Poissons Ratio (z) = 0.10901 0.13187
#
# Static dielectric constant tensor:
#      x y z
#    x 2.968140 0.000000 0.000000 
#    y 0.000000 3.409690 0.000000 
#    z 0.000000 0.000000 3.829450 
# 
# 
# High freq. dielectric constant tensor:
#      x y z
#    x 1.668630 0.000000 0.000000 
#    y 0.000000 1.708610 0.000000 
#    z 0.000000 0.000000 1.741590 
# 
# From -- ./inp_files/41192.got.cif
#   From: 2010.03.12/outbox.cif.g09.slc.cpg/sg65_21_cif.got.tgz:41192.got - 2010.04.10 20:52:16.
