data_PCOD8273980
_publ_section_title
;
Structure prediction by ZEFSAII (Michael W. Deem and Ramdas Pophale) SiO2 
 PCOD8273980
Probable space group: C M M M
;
_chemical_formula_sum "Si O2"
_cell_formula_units_Z 80
_cell_length_a 9.367658
_cell_length_b 19.245494
_cell_length_c 22.526997
_cell_angle_alpha 90.000000
_cell_angle_beta 90.000000
_cell_angle_gamma 90.000000
_cell_volume 4061.284291
_symmetry_space_group_name_H-M "C M M M"
_symmetry_group_IT_number 65
_symmetry_cell_setting 'orthorhombic'
loop_
_space_group_symop_operation_xyz
x,y,z
-x,-y,z
x,-y,-z
-x,y,-z
-x,-y,-z
x,y,-z
-x,y,z
x,-y,z
1/2+x,1/2+y,z
1/2-x,1/2-y,z
1/2+x,1/2-y,-z
1/2-x,1/2+y,-z
1/2-x,1/2-y,-z
1/2+x,1/2+y,-z
1/2-x,1/2+y,z
1/2+x,1/2-y,z
loop_
_atom_site_type_symbol
_atom_site_label
_atom_site_fract_x
_atom_site_fract_y
_atom_site_fract_z
Si Si1 0.163969 0.815776 0.188733
Si Si2 0.832930 0.418959 0.736056
Si Si3 0.337269 0.181232 0.500000
Si Si4 0.156377 0.500000 0.069885
Si Si5 0.665886 0.821846 0.628622
Si Si6 0.839182 0.870624 0.933930
O O1 0.250000 0.750000 0.214821
O O2 0.238107 0.886189 0.211487
O O3 0.171647 0.811819 0.116591
O O4 0.000000 0.812248 0.210412
O O5 0.794599 0.500000 0.730279
O O6 0.787596 0.380361 0.675395
O O7 0.000000 0.408485 0.750380
O O8 0.500000 0.204338 0.500000
O O9 0.250000 0.250000 0.500000
O O10 0.303280 0.143416 0.562990
O O11 0.239195 0.568161 0.089777
O O12 0.000000 0.500000 0.100408
O O13 0.141221 0.500000 0.000000
O O14 0.500000 0.803376 0.636086
O O15 0.750000 0.750000 0.638987
O O16 0.000000 0.899798 0.937221
O O17 0.793946 0.842954 0.000000
#
# Coordination Sequence:
#
# PCOD8273980 Si02
#       6
#    16  16   8   8  16  16
#     4  11  24  40  59  82 108 141 182 225 275 333
#     4  10  22  39  57  79 110 147 185 229 277 324
#     4   8  14  26  47  77 109 141 179 222 263 314
#     4   9  17  29  49  79 109 137 171 210 255 310
#     4   9  17  31  53  80 110 144 183 224 270 318
#     4   9  19  36  56  78 107 141 175 216 269 328
#
# _framework density 19.698202999999999
#
# number of rings (size 3 to 8) (size 9 to 14) (size 15 to 20)
#    0.000    2.500    0.000    1.500    1.400    6.000 
#    0.000    0.500    0.000    3.000    0.000    0.000 
#    0.000    9.600    0.000    0.000    0.000    0.000 
#
# Total GULP energy -495603.214810 kJ/mol
# GULP energy per Si atom -12390.080370 kJ/mol
# Density = 1.965337 g / cm^3
# Si number density = 19.698203 Si / 1000 Ang^3
#
#
#
# Elastic Constant Matrix: (Units=GPa)
#
#
# Indices 1 2 3 4 5 6 
#
# 1 89.9935 49.6946 38.1454 0.0000 0.0000 0.0000
# 2 49.6946 105.3338 43.4017 0.0000 0.0000 0.0000
# 3 38.1454 43.4017 120.2736 0.0000 0.0000 0.0000
# 4 0.0000 0.0000 0.0000 23.9299 0.0000 0.0000
# 5 0.0000 0.0000 0.0000 0.0000 23.7265 0.0000
# 6 0.0000 0.0000 0.0000 0.0000 0.0000 29.6010
#
#
#
# Elastic Compliance Matrix: (Units=1/GPa)
#
#
# Indices 1 2 3 4 5 6 
#
# 1 0.015748 -0.006310 -0.002718 0.000000 0.000000 0.000000
# 2 -0.006310 0.013680 -0.002935 0.000000 0.000000 0.000000
# 3 -0.002718 -0.002935 0.010236 0.000000 0.000000 0.000000
# 4 0.000000 0.000000 0.000000 0.041789 0.000000 0.000000
# 5 0.000000 0.000000 0.000000 0.000000 0.042147 0.000000
# 6 0.000000 0.000000 0.000000 0.000000 0.000000 0.033783
#
#
# Mechanical properties :
#
#
# Convention : Reuss Voigt Hill
#
# Bulk Modulus (GPa) = 63.54064 64.23159 63.88612
# Shear Modulus (GPa) = 26.80194 27.74212 27.27203
#
# Velocity S-wave (km/s) = 3.69267 3.75688 3.72491
# Velocity P-wave (km/s) = 7.10691 7.17618 7.14163
#
# Compressibility (1/GPa) = 0.01573796
#
# Stress axis : x y z
#
# Youngs Moduli (GPa) = 63.49938 73.09941 97.69906
#
# Poissons Ratio (x) = 0.46125 0.26551
# Poissons Ratio (y) = 0.40068 0.28678
# Poissons Ratio (z) = 0.17257 0.21457
#
# Static dielectric constant tensor:
#      x y z
#    x 3.685310 0.000000 0.000000 
#    y 0.000000 3.184880 0.000000 
#    z 0.000000 0.000000 4.220040 
# 
# 
# High freq. dielectric constant tensor:
#      x y z
#    x 1.769310 0.000000 0.000000 
#    y 0.000000 1.731190 0.000000 
#    z 0.000000 0.000000 1.783790 
# 
# From -- ./inp_files/67285.got.cif
#   From: 2010.03.12/outbox.cif.g09.slc.cpg/sg65_34_cif.got.tgz:67285.got - 2010.04.10 20:52:16.
