data_PCOD8273304
_publ_section_title
;
Structure prediction by ZEFSAII (Michael W. Deem and Ramdas Pophale) SiO2 
 PCOD8273304
Probable space group: C M M M
;
_chemical_formula_sum "Si O2"
_cell_formula_units_Z 96
_cell_length_a 22.580060
_cell_length_b 24.721844
_cell_length_c 9.046545
_cell_angle_alpha 90.000000
_cell_angle_beta 90.000000
_cell_angle_gamma 90.000000
_cell_volume 5049.968871
_symmetry_space_group_name_H-M "C M M M"
_symmetry_group_IT_number 65
_symmetry_cell_setting 'orthorhombic'
loop_
_space_group_symop_operation_xyz
x,y,z
-x,-y,z
x,-y,-z
-x,y,-z
-x,-y,-z
x,y,-z
-x,y,z
x,-y,z
1/2+x,1/2+y,z
1/2-x,1/2-y,z
1/2+x,1/2-y,-z
1/2-x,1/2+y,-z
1/2-x,1/2-y,-z
1/2+x,1/2+y,-z
1/2-x,1/2+y,z
1/2+x,1/2-y,z
loop_
_atom_site_type_symbol
_atom_site_label
_atom_site_fract_x
_atom_site_fract_y
_atom_site_fract_z
Si Si1 0.733189 0.914874 0.332916
Si Si2 0.103755 0.560607 0.324977
Si Si3 0.785355 0.197627 0.334245
Si Si4 0.500000 0.737558 0.675371
Si Si5 0.601151 0.329757 0.827783
Si Si6 0.500000 0.862292 0.676296
Si Si7 0.851362 0.940944 0.170219
O O1 0.735479 0.936892 0.500000
O O2 0.669940 0.930287 0.259623
O O3 0.738193 0.850438 0.326894
O O4 0.788374 0.941550 0.250656
O O5 0.106746 0.567601 0.500000
O O6 0.082064 0.500000 0.282610
O O7 0.057807 0.605489 0.262476
O O8 0.813466 0.200831 0.500000
O O9 0.750000 0.250000 0.291639
O O10 0.834214 0.192688 0.207810
O O11 0.500000 0.737288 0.500000
O O12 0.443781 0.704804 0.732160
O O13 0.500000 0.799934 0.733536
O O14 0.603069 0.393566 0.778039
O O15 0.585399 0.323187 0.000000
O O16 0.500000 0.862996 0.500000
O O17 0.881330 0.000000 0.195338
O O18 0.836858 0.930078 0.000000
#
# Coordination Sequence:
#
# PCOD8273304 Si02
#       7
#    16  16  16   8  16   8  16
#     4   9  17  28  47  77 108 137 170 211 259 306
#     4   9  16  27  45  72 104 134 169 214 260 303
#     4   9  18  31  51  77 109 143 176 215 259 311
#     4  11  23  38  58  77 102 139 182 221 266 318
#     4  10  21  37  56  78 106 138 175 219 266 313
#     4   9  19  31  48  70  97 136 176 215 258 310
#     4   9  18  34  55  78 105 137 171 207 255 318
#
# _framework density 19.010019
#
# number of rings (size 3 to 8) (size 9 to 14) (size 15 to 20)
#    0.000    2.667    0.000    1.500    2.333    3.000 
#    0.000    0.417    0.000    2.500    0.000    0.000 
#    0.000    5.333    0.000    0.000    0.000    0.000 
#
# Total GULP energy -594832.370114 kJ/mol
# GULP energy per Si atom -12392.341044 kJ/mol
# Density = 1.896675 g / cm^3
# Si number density = 19.010019 Si / 1000 Ang^3
#
#
#
# Elastic Constant Matrix: (Units=GPa)
#
#
# Indices 1 2 3 4 5 6 
#
# 1 87.7962 62.9759 20.8012 0.0000 0.0000 0.0000
# 2 62.9759 169.8396 32.3315 0.0000 0.0000 0.0000
# 3 20.8012 32.3315 36.0138 0.0000 0.0000 0.0000
# 4 0.0000 0.0000 0.0000 19.3859 0.0000 0.0000
# 5 0.0000 0.0000 0.0000 0.0000 5.9161 0.0000
# 6 0.0000 0.0000 0.0000 0.0000 0.0000 19.6473
#
#
#
# Elastic Compliance Matrix: (Units=1/GPa)
#
#
# Indices 1 2 3 4 5 6 
#
# 1 0.016170 -0.005087 -0.004772 0.000000 0.000000 0.000000
# 2 -0.005087 0.008702 -0.004874 0.000000 0.000000 0.000000
# 3 -0.004772 -0.004874 0.034899 0.000000 0.000000 0.000000
# 4 0.000000 0.000000 0.000000 0.051584 0.000000 0.000000
# 5 0.000000 0.000000 0.000000 0.000000 0.169031 0.000000
# 6 0.000000 0.000000 0.000000 0.000000 0.000000 0.050898
#
#
# Mechanical properties :
#
#
# Convention : Reuss Voigt Hill
#
# Bulk Modulus (GPa) = 32.99910 58.42963 45.71437
# Shear Modulus (GPa) = 13.48247 20.82593 17.15420
#
# Velocity S-wave (km/s) = 2.66603 3.31346 3.00722
# Velocity P-wave (km/s) = 5.18396 6.74104 6.01311
#
# Compressibility (1/GPa) = 0.03030386
#
# Stress axis : x y z
#
# Youngs Moduli (GPa) = 61.84393 114.91545 28.65389
#
# Poissons Ratio (x) = 0.58459 0.13675
# Poissons Ratio (y) = 0.31461 0.13966
# Poissons Ratio (z) = 0.29515 0.56010
#
# Static dielectric constant tensor:
#      x y z
#    x 3.488400 0.000000 0.000000 
#    y 0.000000 3.846100 0.000000 
#    z 0.000000 0.000000 3.188790 
# 
# 
# High freq. dielectric constant tensor:
#      x y z
#    x 1.724970 0.000000 0.000000 
#    y 0.000000 1.760680 0.000000 
#    z 0.000000 0.000000 1.701630 
# 
# From -- ./inp_files/14347.got.cif
#   From: 2010.03.12/outbox.cif.g09.slc.cpg/sg65_8_cif.got.tgz:14347.got - 2010.04.10 20:52:16.
