data_PCOD8273849
_publ_section_title
;
Structure prediction by ZEFSAII (Michael W. Deem and Ramdas Pophale) SiO2 
 PCOD8273849
Probable space group: C M M M
;
_chemical_formula_sum "Si O2"
_cell_formula_units_Z 64
_cell_length_a 10.890656
_cell_length_b 28.730521
_cell_length_c 10.374278
_cell_angle_alpha 90.000000
_cell_angle_beta 90.000000
_cell_angle_gamma 90.000000
_cell_volume 3246.051632
_symmetry_space_group_name_H-M "C M M M"
_symmetry_group_IT_number 65
_symmetry_cell_setting 'orthorhombic'
loop_
_space_group_symop_operation_xyz
x,y,z
-x,-y,z
x,-y,-z
-x,y,-z
-x,-y,-z
x,y,-z
-x,y,z
x,-y,z
1/2+x,1/2+y,z
1/2-x,1/2-y,z
1/2+x,1/2-y,-z
1/2-x,1/2+y,-z
1/2-x,1/2-y,-z
1/2+x,1/2+y,-z
1/2-x,1/2+y,z
1/2+x,1/2-y,z
loop_
_atom_site_type_symbol
_atom_site_label
_atom_site_fract_x
_atom_site_fract_y
_atom_site_fract_z
Si Si1 0.000000 0.108857 0.151615
Si Si2 0.368667 0.945024 0.000000
Si Si3 0.859150 0.421917 0.500000
Si Si4 0.278529 0.553406 0.756038
Si Si5 0.357881 0.811954 0.500000
Si Si6 0.250000 0.750000 0.287083
Si Si7 0.500000 0.281044 0.147667
O O1 0.890628 0.088301 0.236176
O O2 0.000000 0.163799 0.162895
O O3 0.000000 0.092823 0.000000
O O4 0.304899 0.927709 0.871334
O O5 0.500000 0.920426 0.000000
O O6 0.380431 0.000000 0.000000
O O7 0.793207 0.443357 0.623147
O O8 0.849446 0.366900 0.500000
O O9 0.000000 0.438542 0.500000
O O10 0.320821 0.500000 0.778019
O O11 0.500000 0.794795 0.500000
O O12 0.286178 0.794032 0.374443
O O13 0.372572 0.738416 0.205996
O O14 0.500000 0.265516 0.000000
#
# Coordination Sequence:
#
# PCOD8273849 Si02
#       7
#     8   8   8  16   8   8   8
#     4  11  23  41  63  92 128 166 212 268 317 375
#     4   9  18  33  57  85 115 160 216 258 300 363
#     4  11  24  40  60  91 131 165 211 267 323 365
#     4  11  22  38  61  88 124 173 216 257 309 372
#     4  10  21  39  66  90 123 166 211 268 309 388
#     4  11  21  42  66  96 123 167 214 252 322 401
#     4  11  24  40  67  95 134 163 207 266 326 381
#
# _framework density 19.716259999999998
#
# number of rings (size 3 to 8) (size 9 to 14) (size 15 to 20)
#    0.000    1.375    2.500    3.375    0.000    3.000 
#    0.000    3.750    0.000    0.000    0.000    0.000 
#    0.000    0.000    0.000    0.000    0.000    0.000 
#
# Total GULP energy -396681.157151 kJ/mol
# GULP energy per Si atom -12396.286161 kJ/mol
# Density = 1.967139 g / cm^3
# Si number density = 19.716260 Si / 1000 Ang^3
#
#
#
# Elastic Constant Matrix: (Units=GPa)
#
#
# Indices 1 2 3 4 5 6 
#
# 1 166.6218 38.6873 73.2784 0.0000 0.0000 0.0000
# 2 38.6873 70.2171 28.3375 0.0000 0.0000 0.0000
# 3 73.2784 28.3375 153.0660 0.0000 0.0000 0.0000
# 4 0.0000 0.0000 0.0000 20.2478 0.0000 0.0000
# 5 0.0000 0.0000 0.0000 0.0000 67.2209 0.0000
# 6 0.0000 0.0000 0.0000 0.0000 0.0000 28.6372
#
#
#
# Elastic Compliance Matrix: (Units=1/GPa)
#
#
# Indices 1 2 3 4 5 6 
#
# 1 0.008208 -0.003174 -0.003342 0.000000 0.000000 0.000000
# 2 -0.003174 0.016619 -0.001557 0.000000 0.000000 0.000000
# 3 -0.003342 -0.001557 0.008421 0.000000 0.000000 0.000000
# 4 0.000000 0.000000 0.000000 0.049388 0.000000 0.000000
# 5 0.000000 0.000000 0.000000 0.000000 0.014876 0.000000
# 6 0.000000 0.000000 0.000000 0.000000 0.000000 0.034920
#
#
# Mechanical properties :
#
#
# Convention : Reuss Voigt Hill
#
# Bulk Modulus (GPa) = 58.47197 74.50125 66.48661
# Shear Modulus (GPa) = 32.40878 39.86131 36.13505
#
# Velocity S-wave (km/s) = 4.05873 4.50126 4.28571
# Velocity P-wave (km/s) = 7.18926 8.05505 7.63444
#
# Compressibility (1/GPa) = 0.01710221
#
# Stress axis : x y z
#
# Youngs Moduli (GPa) = 121.82762 60.17339 118.74512
#
# Poissons Ratio (x) = 0.19098 0.39685
# Poissons Ratio (y) = 0.38665 0.18492
# Poissons Ratio (z) = 0.40716 0.09371
#
# Static dielectric constant tensor:
#      x y z
#    x 4.862840 0.000000 0.000000 
#    y 0.000000 3.413200 0.000000 
#    z 0.000000 0.000000 3.691120 
# 
# 
# High freq. dielectric constant tensor:
#      x y z
#    x 1.786280 0.000000 0.000000 
#    y 0.000000 1.760460 0.000000 
#    z 0.000000 0.000000 1.778760 
# 
# From -- ./inp_files/5071.got.cif
#   From: 2010.03.12/outbox.cif.g09.slc.cpg/sg65_3_cif.got.tgz:5071.got - 2010.04.10 20:52:16.
