data_PCOD8273233
_publ_section_title
;
Structure prediction by ZEFSAII (Michael W. Deem and Ramdas Pophale) SiO2 
 PCOD8273233
Probable space group: C M M M
;
_chemical_formula_sum "Si O2"
_cell_formula_units_Z 64
_cell_length_a 8.762032
_cell_length_b 25.850352
_cell_length_c 17.181893
_cell_angle_alpha 90.000000
_cell_angle_beta 90.000000
_cell_angle_gamma 90.000000
_cell_volume 3891.726452
_symmetry_space_group_name_H-M "C M M M"
_symmetry_group_IT_number 65
_symmetry_cell_setting 'orthorhombic'
loop_
_space_group_symop_operation_xyz
x,y,z
-x,-y,z
x,-y,-z
-x,y,-z
-x,-y,-z
x,y,-z
-x,y,z
x,-y,z
1/2+x,1/2+y,z
1/2-x,1/2-y,z
1/2+x,1/2-y,-z
1/2-x,1/2+y,-z
1/2-x,1/2-y,-z
1/2+x,1/2+y,-z
1/2-x,1/2+y,z
1/2+x,1/2-y,z
loop_
_atom_site_type_symbol
_atom_site_label
_atom_site_fract_x
_atom_site_fract_y
_atom_site_fract_z
Si Si1 0.668196 0.061720 0.000000
Si Si2 0.319198 0.901265 0.672084
Si Si3 0.824538 0.000000 0.407935
Si Si4 0.820610 0.195843 0.589468
Si Si5 0.681789 0.942217 0.834148
O O1 0.749673 0.078260 0.082037
O O2 0.500000 0.086656 0.000000
O O3 0.656324 0.000000 0.000000
O O4 0.500000 0.900759 0.662785
O O5 0.250340 0.848225 0.642297
O O6 0.268806 0.905891 0.762664
O O7 0.256325 0.949009 0.623364
O O8 0.809484 0.000000 0.500000
O O9 0.000000 0.000000 0.381381
O O10 0.778150 0.184312 0.500000
O O11 0.750000 0.250000 0.616628
O O12 0.000000 0.197720 0.602272
O O13 0.500000 0.944214 0.841899
O O14 0.743121 0.000000 0.816130
#
# Coordination Sequence:
#
# PCOD8273233 Si02
#       5
#     8  16   8  16  16
#     4   7  10  18  36  60  91 126 155 186 225 267
#     4  11  20  31  49  73  99 125 157 197 241 285
#     4  11  23  35  45  62  93 132 168 197 231 281
#     4  10  21  37  54  71  92 121 160 202 242 284
#     4   8  13  23  39  65  97 126 156 190 227 274
#
# _framework density 16.445143999999999
#
# number of rings (size 3 to 8) (size 9 to 14) (size 15 to 20)
#    0.000    2.500    1.250    4.125    0.000    5.500 
#    0.000    0.000    0.000    0.000    0.000    5.250 
#    0.000    0.000    0.000    0.000    0.000    0.000 
#
# Total GULP energy -396522.453335 kJ/mol
# GULP energy per Si atom -12391.326667 kJ/mol
# Density = 1.640771 g / cm^3
# Si number density = 16.445144 Si / 1000 Ang^3
#
#
#
# Elastic Constant Matrix: (Units=GPa)
#
#
# Indices 1 2 3 4 5 6 
#
# 1 51.2588 40.9583 39.5778 0.0000 0.0000 0.0000
# 2 40.9583 119.3947 80.5412 0.0000 0.0000 0.0000
# 3 39.5778 80.5412 139.1918 0.0000 0.0000 0.0000
# 4 0.0000 0.0000 0.0000 15.7459 0.0000 0.0000
# 5 0.0000 0.0000 0.0000 0.0000 8.3474 0.0000
# 6 0.0000 0.0000 0.0000 0.0000 0.0000 26.1644
#
#
#
# Elastic Compliance Matrix: (Units=1/GPa)
#
#
# Indices 1 2 3 4 5 6 
#
# 1 0.028149 -0.006983 -0.003963 0.000000 0.000000 0.000000
# 2 -0.006983 0.015470 -0.006966 0.000000 0.000000 0.000000
# 3 -0.003963 -0.006966 0.012342 0.000000 0.000000 0.000000
# 4 0.000000 0.000000 0.000000 0.063508 0.000000 0.000000
# 5 0.000000 0.000000 0.000000 0.000000 0.119798 0.000000
# 6 0.000000 0.000000 0.000000 0.000000 0.000000 0.038220
#
#
# Mechanical properties :
#
#
# Convention : Reuss Voigt Hill
#
# Bulk Modulus (GPa) = 49.66112 70.22222 59.94167
# Shear Modulus (GPa) = 15.62384 19.96942 17.79663
#
# Velocity S-wave (km/s) = 3.08565 3.48847 3.29322
# Velocity P-wave (km/s) = 6.55428 7.68241 7.14066
#
# Compressibility (1/GPa) = 0.02013648
#
# Stress axis : x y z
#
# Youngs Moduli (GPa) = 35.52577 64.64026 81.02363
#
# Poissons Ratio (x) = 0.45137 0.32112
# Poissons Ratio (y) = 0.24807 0.56442
# Poissons Ratio (z) = 0.14080 0.45029
#
# Static dielectric constant tensor:
#      x y z
#    x 2.951900 0.000000 0.000000 
#    y 0.000000 2.930660 0.000000 
#    z 0.000000 0.000000 3.639430 
# 
# 
# High freq. dielectric constant tensor:
#      x y z
#    x 1.613050 0.000000 0.000000 
#    y 0.000000 1.600660 0.000000 
#    z 0.000000 0.000000 1.649050 
# 
# From -- ./inp_files/49363.got.cif
#   From: 2010.03.12/outbox.cif.g09.slc.cpg/sg65_25_cif.got.tgz:49363.got - 2010.04.10 20:52:16.
