data_PCOD8273607
_publ_section_title
;
Structure prediction by ZEFSAII (Michael W. Deem and Ramdas Pophale) SiO2 
 PCOD8273607
Probable space group: C M M M
;
_chemical_formula_sum "Si O2"
_cell_formula_units_Z 80
_cell_length_a 28.785506
_cell_length_b 17.328586
_cell_length_c 7.955761
_cell_angle_alpha 90.000000
_cell_angle_beta 90.000000
_cell_angle_gamma 90.000000
_cell_volume 3968.429981
_symmetry_space_group_name_H-M "C M M M"
_symmetry_group_IT_number 65
_symmetry_cell_setting 'orthorhombic'
loop_
_space_group_symop_operation_xyz
x,y,z
-x,-y,z
x,-y,-z
-x,y,-z
-x,-y,-z
x,y,-z
-x,y,z
x,-y,z
1/2+x,1/2+y,z
1/2-x,1/2-y,z
1/2+x,1/2-y,-z
1/2-x,1/2+y,-z
1/2-x,1/2-y,-z
1/2+x,1/2+y,-z
1/2-x,1/2+y,z
1/2+x,1/2-y,z
loop_
_atom_site_type_symbol
_atom_site_label
_atom_site_fract_x
_atom_site_fract_y
_atom_site_fract_z
Si Si1 0.053068 0.818826 0.807798
Si Si2 0.731641 0.332883 0.305827
Si Si3 0.947230 0.708463 0.500000
Si Si4 0.683797 0.089732 0.181379
Si Si5 0.370654 0.092123 0.500000
Si Si6 0.857722 0.086385 0.194845
O O1 0.065210 0.753940 0.670795
O O2 0.088933 0.888444 0.774354
O O3 0.000000 0.848602 0.780983
O O4 0.059011 0.787212 0.000000
O O5 0.743392 0.339774 0.500000
O O6 0.750000 0.250000 0.238375
O O7 0.761381 0.396827 0.207316
O O8 0.677231 0.351024 0.277210
O O9 0.921635 0.626797 0.500000
O O10 0.000000 0.684105 0.500000
O O11 0.655239 0.126596 0.335456
O O12 0.674005 0.000000 0.180046
O O13 0.668188 0.124649 0.000000
O O14 0.372989 0.000000 0.500000
O O15 0.851548 0.000000 0.271686
O O16 0.846027 0.084579 0.000000
#
# Coordination Sequence:
#
# PCOD8273607 Si02
#       6
#    16  16   8  16   8  16
#     4   9  20  39  62  88 118 154 195 242 296 349
#     4  11  24  37  54  82 117 156 197 241 289 346
#     4  10  22  39  62  89 120 153 191 239 291 355
#     4  10  21  38  59  82 112 151 192 235 285 342
#     4  10  22  39  60  87 118 151 193 242 292 344
#     4  10  22  38  57  84 117 154 197 245 297 352
#
# _framework density 20.159106000000001
#
# number of rings (size 3 to 8) (size 9 to 14) (size 15 to 20)
#    0.000    2.000    1.000    1.200    4.200    5.800 
#    0.000    2.000    0.000    1.800    0.000    5.600 
#    0.000    0.000    0.000    0.000    0.000    0.000 
#
# Total GULP energy -495771.593098 kJ/mol
# GULP energy per Si atom -12394.289827 kJ/mol
# Density = 2.011322 g / cm^3
# Si number density = 20.159106 Si / 1000 Ang^3
#
#
#
# Elastic Constant Matrix: (Units=GPa)
#
#
# Indices 1 2 3 4 5 6 
#
# 1 120.5264 59.7672 47.3507 0.0000 0.0000 0.0000
# 2 59.7672 56.5645 37.9701 0.0000 0.0000 0.0000
# 3 47.3507 37.9701 133.2184 0.0000 0.0000 0.0000
# 4 0.0000 0.0000 0.0000 15.9757 0.0000 0.0000
# 5 0.0000 0.0000 0.0000 0.0000 23.4770 0.0000
# 6 0.0000 0.0000 0.0000 0.0000 0.0000 37.5903
#
#
#
# Elastic Compliance Matrix: (Units=1/GPa)
#
#
# Indices 1 2 3 4 5 6 
#
# 1 0.017578 -0.017781 -0.001180 0.000000 0.000000 0.000000
# 2 -0.017781 0.039848 -0.005038 0.000000 0.000000 0.000000
# 3 -0.001180 -0.005038 0.009362 0.000000 0.000000 0.000000
# 4 0.000000 0.000000 0.000000 0.062595 0.000000 0.000000
# 5 0.000000 0.000000 0.000000 0.000000 0.042595 0.000000
# 6 0.000000 0.000000 0.000000 0.000000 0.000000 0.026603
#
#
# Mechanical properties :
#
#
# Convention : Reuss Voigt Hill
#
# Bulk Modulus (GPa) = 53.21734 66.72056 59.96895
# Shear Modulus (GPa) = 19.77526 26.42336 23.09931
#
# Velocity S-wave (km/s) = 3.13542 3.62434 3.38871
# Velocity P-wave (km/s) = 6.28998 7.11922 6.71741
#
# Compressibility (1/GPa) = 0.01879087
#
# Stress axis : x y z
#
# Youngs Moduli (GPa) = 56.88977 25.09506 106.81896
#
# Poissons Ratio (x) = 0.44622 0.12603
# Poissons Ratio (y) = 1.01157 0.53811
# Poissons Ratio (z) = 0.06712 0.12642
#
# Static dielectric constant tensor:
#      x y z
#    x 3.611910 0.000000 0.000000 
#    y 0.000000 3.432760 0.000000 
#    z 0.000000 0.000000 4.143680 
# 
# 
# High freq. dielectric constant tensor:
#      x y z
#    x 1.786150 0.000000 0.000000 
#    y 0.000000 1.762800 0.000000 
#    z 0.000000 0.000000 1.803390 
# 
# From -- ./inp_files/16100.got.cif
#   From: 2010.03.12/outbox.cif.g09.slc.cpg/sg65_9_cif.got.tgz:16100.got - 2010.04.10 20:52:16.
