data_PCOD8273592
_publ_section_title
;
Structure prediction by ZEFSAII (Michael W. Deem and Ramdas Pophale) SiO2 
 PCOD8273592
Probable space group: C M M M
;
_chemical_formula_sum "Si O2"
_cell_formula_units_Z 96
_cell_length_a 18.920945
_cell_length_b 8.605441
_cell_length_c 31.050217
_cell_angle_alpha 90.000000
_cell_angle_beta 90.000000
_cell_angle_gamma 90.000000
_cell_volume 5055.691838
_symmetry_space_group_name_H-M "C M M M"
_symmetry_group_IT_number 65
_symmetry_cell_setting 'orthorhombic'
loop_
_space_group_symop_operation_xyz
x,y,z
-x,-y,z
x,-y,-z
-x,y,-z
-x,-y,-z
x,y,-z
-x,y,z
x,-y,z
1/2+x,1/2+y,z
1/2-x,1/2-y,z
1/2+x,1/2-y,-z
1/2-x,1/2+y,-z
1/2-x,1/2-y,-z
1/2+x,1/2+y,-z
1/2-x,1/2+y,z
1/2+x,1/2-y,z
loop_
_atom_site_type_symbol
_atom_site_label
_atom_site_fract_x
_atom_site_fract_y
_atom_site_fract_z
Si Si1 0.828773 0.183332 0.867245
Si Si2 0.579156 0.184804 0.547806
Si Si3 0.918486 0.680286 0.790368
Si Si4 0.672574 0.182425 0.374869
Si Si5 0.081693 0.819215 0.699927
Si Si6 0.827476 0.318343 0.953359
O O1 0.750000 0.250000 0.865178
O O2 0.873558 0.259602 0.829874
O O3 0.864913 0.230911 0.913232
O O4 0.828222 0.000000 0.861620
O O5 0.603050 0.239545 0.500000
O O6 0.500000 0.246960 0.557587
O O7 0.632859 0.253884 0.583222
O O8 0.578484 0.000000 0.550084
O O9 0.903243 0.500000 0.782036
O O10 0.895267 0.774421 0.748068
O O11 0.000000 0.711591 0.801286
O O12 0.750000 0.250000 0.371312
O O13 0.628609 0.221042 0.332519
O O14 0.678976 0.000000 0.379491
O O15 0.000000 0.775036 0.692247
O O16 0.095969 0.000000 0.692429
O O17 0.823152 0.500000 0.942392
O O18 0.750000 0.250000 0.957576
O O19 0.866092 0.291681 0.000000
#
# Coordination Sequence:
#
# PCOD8273592 Si02
#       6
#    16  16  16  16  16  16
#     4  11  21  33  52  78 109 141 176 218 264 314
#     4   8  15  30  53  79 105 137 180 225 265 310
#     4  10  21  38  59  81 106 137 174 215 262 318
#     4  11  22  35  53  79 111 145 180 218 265 316
#     4  10  21  38  59  81 105 134 172 217 263 314
#     4   9  16  27  45  70 101 136 175 218 263 311
#
# _framework density 18.988499999999998
#
# number of rings (size 3 to 8) (size 9 to 14) (size 15 to 20)
#    0.000    2.167    0.000    5.500    0.000    4.667 
#    0.000    3.333    0.000    2.000    0.000    9.333 
#    0.000    0.000    0.000    0.000    0.000    0.000 
#
# Total GULP energy -595045.261348 kJ/mol
# GULP energy per Si atom -12396.776278 kJ/mol
# Density = 1.894528 g / cm^3
# Si number density = 18.988500 Si / 1000 Ang^3
#
#
#
# Elastic Constant Matrix: (Units=GPa)
#
#
# Indices 1 2 3 4 5 6 
#
# 1 72.4722 19.1723 63.7604 0.0000 0.0000 0.0000
# 2 19.1723 37.6619 5.9538 0.0000 0.0000 0.0000
# 3 63.7604 5.9538 138.5816 0.0000 0.0000 0.0000
# 4 0.0000 0.0000 0.0000 20.0604 0.0000 0.0000
# 5 0.0000 0.0000 0.0000 0.0000 35.0595 0.0000
# 6 0.0000 0.0000 0.0000 0.0000 0.0000 16.6668
#
#
#
# Elastic Compliance Matrix: (Units=1/GPa)
#
#
# Indices 1 2 3 4 5 6 
#
# 1 0.027842 -0.012231 -0.012284 0.000000 0.000000 0.000000
# 2 -0.012231 0.032107 0.004248 0.000000 0.000000 0.000000
# 3 -0.012284 0.004248 0.012685 0.000000 0.000000 0.000000
# 4 0.000000 0.000000 0.000000 0.049849 0.000000 0.000000
# 5 0.000000 0.000000 0.000000 0.000000 0.028523 0.000000
# 6 0.000000 0.000000 0.000000 0.000000 0.000000 0.059999
#
#
# Mechanical properties :
#
#
# Convention : Reuss Voigt Hill
#
# Bulk Modulus (GPa) = 31.15340 47.38763 39.27052
# Shear Modulus (GPa) = 19.06647 25.01263 22.03955
#
# Velocity S-wave (km/s) = 3.17220 3.63333 3.41057
# Velocity P-wave (km/s) = 5.46436 6.52776 6.01959
#
# Compressibility (1/GPa) = 0.03209922
#
# Stress axis : x y z
#
# Youngs Moduli (GPa) = 35.91727 31.14587 78.83093
#
# Poissons Ratio (x) = 0.38095 0.96838
# Poissons Ratio (y) = 0.43931 -0.33488
# Poissons Ratio (z) = 0.44122 -0.13231
#
# Static dielectric constant tensor:
#      x y z
#    x 3.297740 0.000000 0.000000 
#    y 0.000000 3.475240 0.000000 
#    z 0.000000 0.000000 4.067620 
# 
# 
# High freq. dielectric constant tensor:
#      x y z
#    x 1.707210 0.000000 0.000000 
#    y 0.000000 1.736650 0.000000 
#    z 0.000000 0.000000 1.762260 
# 
# From -- ./inp_files/75396.got.cif
#   From: 2010.03.12/outbox.cif.g09.slc.cpg/sg65_38_cif.got.tgz:75396.got - 2010.04.10 20:52:16.
