data_PCOD8273110
_publ_section_title
;
Structure prediction by ZEFSAII (Michael W. Deem and Ramdas Pophale) SiO2 
 PCOD8273110
Probable space group: C M M M
;
_chemical_formula_sum "Si O2"
_cell_formula_units_Z 104
_cell_length_a 9.124356
_cell_length_b 18.379090
_cell_length_c 33.363581
_cell_angle_alpha 90.000000
_cell_angle_beta 90.000000
_cell_angle_gamma 90.000000
_cell_volume 5594.984458
_symmetry_space_group_name_H-M "C M M M"
_symmetry_group_IT_number 65
_symmetry_cell_setting 'orthorhombic'
loop_
_space_group_symop_operation_xyz
x,y,z
-x,-y,z
x,-y,-z
-x,y,-z
-x,-y,-z
x,y,-z
-x,y,z
x,-y,z
1/2+x,1/2+y,z
1/2-x,1/2-y,z
1/2+x,1/2-y,-z
1/2-x,1/2+y,-z
1/2-x,1/2-y,-z
1/2+x,1/2+y,-z
1/2-x,1/2+y,z
1/2+x,1/2-y,z
loop_
_atom_site_type_symbol
_atom_site_label
_atom_site_fract_x
_atom_site_fract_y
_atom_site_fract_z
Si Si1 0.665759 0.586739 0.000000
Si Si2 0.669989 0.677787 0.544856
Si Si3 0.334640 0.586636 0.155680
Si Si4 0.329530 0.916382 0.234398
Si Si5 0.669926 0.415859 0.619415
Si Si6 0.327005 0.827169 0.312759
Si Si7 0.834269 0.413199 0.921921
O O1 0.748939 0.616519 0.039204
O O2 0.665431 0.500000 0.000000
O O3 0.500000 0.616662 0.000000
O O4 0.723009 0.656188 0.500000
O O5 0.500000 0.696684 0.544931
O O6 0.750000 0.750000 0.560511
O O7 0.705303 0.611467 0.574542
O O8 0.500000 0.616578 0.153915
O O9 0.332255 0.500000 0.154598
O O10 0.259467 0.614366 0.196440
O O11 0.246003 0.617517 0.117612
O O12 0.500000 0.908765 0.224169
O O13 0.282983 0.869310 0.272471
O O14 0.288425 0.000000 0.243615
O O15 0.500000 0.402423 0.630413
O O16 0.711578 0.500000 0.621291
O O17 0.772266 0.373496 0.649921
O O18 0.500000 0.816390 0.316504
O O19 0.250000 0.750000 0.312385
O O20 0.833723 0.500000 0.921727
O O21 0.000000 0.383480 0.922778
#
# Coordination Sequence:
#
# PCOD8273110 Si02
#       7
#     8  16  16  16  16  16  16
#     4   9  15  21  29  43  67 101 144 193 238 281
#     4   9  18  33  53  77 106 141 179 217 258 305
#     4   9  16  25  39  60  84 111 146 190 238 286
#     4   9  18  33  51  70  93 123 159 198 243 296
#     4  10  21  36  55  80 108 138 174 216 260 306
#     4  11  23  38  56  77 103 135 170 209 255 307
#     4   9  15  22  32  47  71 106 147 188 232 285
#
# _framework density 18.588076000000001
#
# number of rings (size 3 to 8) (size 9 to 14) (size 15 to 20)
#    0.000    2.538    0.000    2.538    0.000    8.923 
#    0.000    3.077    0.000    0.000    0.000    3.231 
#    0.000    0.000    0.000    0.692    0.000   10.154 
#
# Total GULP energy -644845.348807 kJ/mol
# GULP energy per Si atom -12400.872092 kJ/mol
# Density = 1.854577 g / cm^3
# Si number density = 18.588076 Si / 1000 Ang^3
#
#
#
# Elastic Constant Matrix: (Units=GPa)
#
#
# Indices 1 2 3 4 5 6 
#
# 1 114.2794 40.6190 80.1874 0.0000 0.0000 0.0000
# 2 40.6190 74.5016 57.0365 0.0000 0.0000 0.0000
# 3 80.1874 57.0365 159.2221 0.0000 0.0000 0.0000
# 4 0.0000 0.0000 0.0000 1.3827 0.0000 0.0000
# 5 0.0000 0.0000 0.0000 0.0000 34.8358 0.0000
# 6 0.0000 0.0000 0.0000 0.0000 0.0000 12.4114
#
#
#
# Elastic Compliance Matrix: (Units=1/GPa)
#
#
# Indices 1 2 3 4 5 6 
#
# 1 0.014029 -0.003086 -0.005960 0.000000 0.000000 0.000000
# 2 -0.003086 0.019173 -0.005314 0.000000 0.000000 0.000000
# 3 -0.005960 -0.005314 0.011186 0.000000 0.000000 0.000000
# 4 0.000000 0.000000 0.000000 0.723212 0.000000 0.000000
# 5 0.000000 0.000000 0.000000 0.000000 0.028706 0.000000
# 6 0.000000 0.000000 0.000000 0.000000 0.000000 0.080571
#
#
# Mechanical properties :
#
#
# Convention : Reuss Voigt Hill
#
# Bulk Modulus (GPa) = 63.82371 78.18766 71.00568
# Shear Modulus (GPa) = 5.48955 21.07000 13.27978
#
# Velocity S-wave (km/s) = 1.72037 3.37044 2.67577
# Velocity P-wave (km/s) = 6.19327 7.56975 6.91584
#
# Compressibility (1/GPa) = 0.01566816
#
# Stress axis : x y z
#
# Youngs Moduli (GPa) = 71.27894 52.15550 89.40004
#
# Poissons Ratio (x) = 0.16096 0.53282
# Poissons Ratio (y) = 0.21998 0.47508
# Poissons Ratio (z) = 0.42482 0.27716
#
# Static dielectric constant tensor:
#      x y z
#    x 3.527050 0.000000 0.000000 
#    y 0.000000 3.006370 0.000000 
#    z 0.000000 0.000000 3.672870 
# 
# 
# High freq. dielectric constant tensor:
#      x y z
#    x 1.728860 0.000000 0.000000 
#    y 0.000000 1.670400 0.000000 
#    z 0.000000 0.000000 1.739030 
# 
# From -- ./inp_files/76852.got.cif
#   From: 2010.03.12/outbox.cif.g09.slc.cpg/sg65_39_cif.got.tgz:76852.got - 2010.04.10 20:52:16.
