data_PCOD8273875
_publ_section_title
;
Structure prediction by ZEFSAII (Michael W. Deem and Ramdas Pophale) SiO2 
 PCOD8273875
Probable space group: C M M M
;
_chemical_formula_sum "Si O2"
_cell_formula_units_Z 72
_cell_length_a 29.956967
_cell_length_b 14.690264
_cell_length_c 7.958841
_cell_angle_alpha 90.000000
_cell_angle_beta 90.000000
_cell_angle_gamma 90.000000
_cell_volume 3502.492953
_symmetry_space_group_name_H-M "C M M M"
_symmetry_group_IT_number 65
_symmetry_cell_setting 'orthorhombic'
loop_
_space_group_symop_operation_xyz
x,y,z
-x,-y,z
x,-y,-z
-x,y,-z
-x,-y,-z
x,y,-z
-x,y,z
x,-y,z
1/2+x,1/2+y,z
1/2-x,1/2-y,z
1/2+x,1/2-y,-z
1/2-x,1/2+y,-z
1/2-x,1/2-y,-z
1/2+x,1/2+y,-z
1/2-x,1/2+y,z
1/2+x,1/2-y,z
loop_
_atom_site_type_symbol
_atom_site_label
_atom_site_fract_x
_atom_site_fract_y
_atom_site_fract_z
Si Si1 0.705325 0.199158 0.194450
Si Si2 0.630249 0.325631 0.306998
Si Si3 0.052641 0.400567 0.500000
Si Si4 0.819867 0.000000 0.811050
Si Si5 0.551195 0.221265 0.810367
Si Si6 0.275599 0.000000 0.689801
O O1 0.750000 0.250000 0.261334
O O2 0.663169 0.239047 0.294017
O O3 0.706930 0.090709 0.219218
O O4 0.698549 0.222009 0.000000
O O5 0.620848 0.348375 0.500000
O O6 0.650737 0.411536 0.214913
O O7 0.583198 0.307776 0.213671
O O8 0.075167 0.500000 0.500000
O O9 0.067868 0.351081 0.328900
O O10 0.000000 0.409788 0.500000
O O11 0.778076 0.000000 0.686397
O O12 0.800689 0.000000 0.000000
O O13 0.500000 0.250782 0.777462
O O14 0.556276 0.181338 0.000000
O O15 0.293105 0.000000 0.500000
#
# Coordination Sequence:
#
# PCOD8273875 Si02
#       6
#    16  16   8   8  16   8
#     4  11  23  40  63  88 122 163 204 253 310 372
#     4  12  24  41  65  94 125 163 210 262 317 377
#     4   9  18  36  62  91 122 159 207 261 313 371
#     4  12  24  40  63  91 124 163 211 258 312 382
#     4  10  21  40  65  92 127 170 212 261 321 380
#     4  12  24  40  62  91 124 163 210 260 316 375
#
# _framework density 20.556787
#
# number of rings (size 3 to 8) (size 9 to 14) (size 15 to 20)
#    0.000    1.000    3.333    4.667    0.000    1.333 
#    2.000    2.778    0.000    3.333    0.000    0.000 
#    0.000    0.000    0.000    0.000    0.000    0.000 
#
# Total GULP energy -446483.805382 kJ/mol
# GULP energy per Si atom -12402.327927 kJ/mol
# Density = 2.051000 g / cm^3
# Si number density = 20.556787 Si / 1000 Ang^3
#
#
#
# Elastic Constant Matrix: (Units=GPa)
#
#
# Indices 1 2 3 4 5 6 
#
# 1 88.6137 36.3094 17.5541 0.0000 0.0000 0.0000
# 2 36.3094 128.2097 13.5978 0.0000 0.0000 0.0000
# 3 17.5541 13.5978 119.8912 0.0000 0.0000 0.0000
# 4 0.0000 0.0000 0.0000 30.0046 0.0000 0.0000
# 5 0.0000 0.0000 0.0000 0.0000 29.5132 0.0000
# 6 0.0000 0.0000 0.0000 0.0000 0.0000 49.0550
#
#
#
# Elastic Compliance Matrix: (Units=1/GPa)
#
#
# Indices 1 2 3 4 5 6 
#
# 1 0.013030 -0.003530 -0.001507 0.000000 0.000000 0.000000
# 2 -0.003530 0.008851 -0.000487 0.000000 0.000000 0.000000
# 3 -0.001507 -0.000487 0.008617 0.000000 0.000000 0.000000
# 4 0.000000 0.000000 0.000000 0.033328 0.000000 0.000000
# 5 0.000000 0.000000 0.000000 0.000000 0.033883 0.000000
# 6 0.000000 0.000000 0.000000 0.000000 0.000000 0.020385
#
#
# Mechanical properties :
#
#
# Convention : Reuss Voigt Hill
#
# Bulk Modulus (GPa) = 51.41736 52.40414 51.91075
# Shear Modulus (GPa) = 36.86583 39.66480 38.26532
#
# Velocity S-wave (km/s) = 4.23941 4.39740 4.31913
# Velocity P-wave (km/s) = 7.00215 7.16453 7.08381
#
# Compressibility (1/GPa) = 0.01944868
#
# Stress axis : x y z
#
# Youngs Moduli (GPa) = 76.74541 112.97952 116.05183
#
# Poissons Ratio (x) = 0.39885 0.17494
# Poissons Ratio (y) = 0.27093 0.05652
# Poissons Ratio (z) = 0.11569 0.05502
#
# Static dielectric constant tensor:
#      x y z
#    x 3.688940 0.000000 0.000000 
#    y 0.000000 3.582240 0.000000 
#    z 0.000000 0.000000 3.813600 
# 
# 
# High freq. dielectric constant tensor:
#      x y z
#    x 1.797750 0.000000 0.000000 
#    y 0.000000 1.793580 0.000000 
#    z 0.000000 0.000000 1.820660 
# 
# From -- ./inp_files/15829.got.cif
#   From: 2010.03.12/outbox.cif.g09.slc.cpg/sg65_8_cif.got.tgz:15829.got - 2010.04.10 20:52:16.
