data_PCOD8273713
_publ_section_title
;
Structure prediction by ZEFSAII (Michael W. Deem and Ramdas Pophale) SiO2 
 PCOD8273713
Probable space group: C M M M
;
_chemical_formula_sum "Si O2"
_cell_formula_units_Z 48
_cell_length_a 8.731010
_cell_length_b 38.038340
_cell_length_c 7.419705
_cell_angle_alpha 90.000000
_cell_angle_beta 90.000000
_cell_angle_gamma 90.000000
_cell_volume 2464.181428
_symmetry_space_group_name_H-M "C M M M"
_symmetry_group_IT_number 65
_symmetry_cell_setting 'orthorhombic'
loop_
_space_group_symop_operation_xyz
x,y,z
-x,-y,z
x,-y,-z
-x,y,-z
-x,-y,-z
x,y,-z
-x,y,z
x,-y,z
1/2+x,1/2+y,z
1/2-x,1/2-y,z
1/2+x,1/2-y,-z
1/2-x,1/2+y,-z
1/2-x,1/2-y,-z
1/2+x,1/2+y,-z
1/2-x,1/2+y,z
1/2+x,1/2-y,z
loop_
_atom_site_type_symbol
_atom_site_label
_atom_site_fract_x
_atom_site_fract_y
_atom_site_fract_z
Si Si1 0.321317 0.541079 0.000000
Si Si2 0.180671 0.711632 0.000000
Si Si3 0.321329 0.088743 0.292151
Si Si4 0.178742 0.162482 0.708990
O O1 0.245135 0.556672 0.178840
O O2 0.287644 0.500000 0.000000
O O3 0.500000 0.549772 0.000000
O O4 0.250000 0.750000 0.000000
O O5 0.234221 0.692009 0.179698
O O6 0.000000 0.714398 0.000000
O O7 0.287746 0.080184 0.500000
O O8 0.500000 0.093369 0.252998
O O9 0.238299 0.124375 0.230933
O O10 0.215000 0.169339 0.500000
O O11 0.000000 0.164587 0.752247
#
# Coordination Sequence:
#
# PCOD8273713 Si02
#       4
#     8   8  16  16
#     4  11  24  39  56  81 115 154 192 233 284 341
#     4  12  25  40  59  84 118 155 191 234 283 338
#     4  10  21  38  61  87 114 147 189 236 284 335
#     4  10  21  39  63  88 115 149 190 235 282 335
#
# _framework density 19.479085000000001
#
# number of rings (size 3 to 8) (size 9 to 14) (size 15 to 20)
#    0.000    1.500    0.000    5.000    0.000    6.667 
#    0.000    3.333    0.000    0.000    0.000    0.000 
#    0.000    0.000    0.000    0.000    0.000    0.000 
#
# Total GULP energy -297763.434546 kJ/mol
# GULP energy per Si atom -12406.809773 kJ/mol
# Density = 1.943475 g / cm^3
# Si number density = 19.479085 Si / 1000 Ang^3
#
#
#
# Elastic Constant Matrix: (Units=GPa)
#
#
# Indices 1 2 3 4 5 6 
#
# 1 146.3540 74.1181 62.4643 0.0000 0.0000 0.0000
# 2 74.1181 137.5231 76.4136 0.0000 0.0000 0.0000
# 3 62.4643 76.4136 111.1295 0.0000 0.0000 0.0000
# 4 0.0000 0.0000 0.0000 16.3003 0.0000 0.0000
# 5 0.0000 0.0000 0.0000 0.0000 35.1629 0.0000
# 6 0.0000 0.0000 0.0000 0.0000 0.0000 37.3307
#
#
#
# Elastic Compliance Matrix: (Units=1/GPa)
#
#
# Indices 1 2 3 4 5 6 
#
# 1 0.010019 -0.003674 -0.003105 0.000000 0.000000 0.000000
# 2 -0.003674 0.013115 -0.006953 0.000000 0.000000 0.000000
# 3 -0.003105 -0.006953 0.015524 0.000000 0.000000 0.000000
# 4 0.000000 0.000000 0.000000 0.061349 0.000000 0.000000
# 5 0.000000 0.000000 0.000000 0.000000 0.028439 0.000000
# 6 0.000000 0.000000 0.000000 0.000000 0.000000 0.026788
#
#
# Mechanical properties :
#
#
# Convention : Reuss Voigt Hill
#
# Bulk Modulus (GPa) = 89.33088 91.22207 90.27647
# Shear Modulus (GPa) = 26.81988 29.89282 28.35635
#
# Velocity S-wave (km/s) = 3.71463 3.92166 3.81955
# Velocity P-wave (km/s) = 8.02231 8.21209 8.11775
#
# Compressibility (1/GPa) = 0.01119434
#
# Stress axis : x y z
#
# Youngs Moduli (GPa) = 99.81296 76.24831 64.41472
#
# Poissons Ratio (x) = 0.28017 0.20000
# Poissons Ratio (y) = 0.36676 0.44785
# Poissons Ratio (z) = 0.30990 0.53013
#
# Static dielectric constant tensor:
#      x y z
#    x 3.744480 0.000000 0.000000 
#    y 0.000000 3.486570 0.000000 
#    z 0.000000 0.000000 3.648090 
# 
# 
# High freq. dielectric constant tensor:
#      x y z
#    x 1.778770 0.000000 0.000000 
#    y 0.000000 1.757010 0.000000 
#    z 0.000000 0.000000 1.773380 
# 
# From -- ./inp_files/3030.got.cif
#   From: 2010.03.12/outbox.cif.g09.slc.cpg/sg65_2_cif.got.tgz:3030.got - 2010.04.10 20:52:16.
