data_PCOD8273439
_publ_section_title
;
Structure prediction by ZEFSAII (Michael W. Deem and Ramdas Pophale) SiO2 
 PCOD8273439
Probable space group: C M M M
;
_chemical_formula_sum "Si O2"
_cell_formula_units_Z 64
_cell_length_a 9.120053
_cell_length_b 17.875703
_cell_length_c 20.547928
_cell_angle_alpha 90.000000
_cell_angle_beta 90.000000
_cell_angle_gamma 90.000000
_cell_volume 3349.874430
_symmetry_space_group_name_H-M "C M M M"
_symmetry_group_IT_number 65
_symmetry_cell_setting 'orthorhombic'
loop_
_space_group_symop_operation_xyz
x,y,z
-x,-y,z
x,-y,-z
-x,y,-z
-x,-y,-z
x,y,-z
-x,y,z
x,-y,z
1/2+x,1/2+y,z
1/2-x,1/2-y,z
1/2+x,1/2-y,-z
1/2-x,1/2+y,-z
1/2-x,1/2-y,-z
1/2+x,1/2+y,-z
1/2-x,1/2+y,z
1/2+x,1/2-y,z
loop_
_atom_site_type_symbol
_atom_site_label
_atom_site_fract_x
_atom_site_fract_y
_atom_site_fract_z
Si Si1 0.328206 0.828535 0.000000
Si Si2 0.668567 0.912444 0.130066
Si Si3 0.326785 0.670941 0.242757
Si Si4 0.671213 0.414200 0.627245
Si Si5 0.665340 0.088964 0.500000
O O1 0.250000 0.750000 0.000000
O O2 0.279600 0.874204 0.063438
O O3 0.500000 0.814328 0.000000
O O4 0.500000 0.892473 0.146532
O O5 0.772773 0.884928 0.187383
O O6 0.690272 0.000000 0.121030
O O7 0.500000 0.681178 0.236601
O O8 0.250000 0.750000 0.233832
O O9 0.281599 0.635698 0.311722
O O10 0.500000 0.408568 0.612543
O O11 0.716701 0.500000 0.641503
O O12 0.754888 0.380991 0.564632
O O13 0.500000 0.119230 0.500000
O O14 0.672721 0.000000 0.500000
#
# Coordination Sequence:
#
# PCOD8273439 Si02
#       5
#     8  16  16  16   8
#     4  10  21  37  57  83 115 150 185 222 270 326
#     4  10  21  38  60  84 111 145 185 229 275 324
#     4  11  23  38  56  80 111 146 185 228 276 330
#     4   9  18  34  55  77 104 140 179 220 269 325
#     4   9  17  29  50  81 110 135 171 221 270 319
#
# _framework density 19.105193
#
# number of rings (size 3 to 8) (size 9 to 14) (size 15 to 20)
#    0.000    2.125    0.000    3.000    0.000    9.500 
#    0.000    3.125    0.000    2.250    0.000    0.000 
#    0.000    0.000    0.000    0.000    0.000    0.000 
#
# Total GULP energy -396924.800780 kJ/mol
# GULP energy per Si atom -12403.900024 kJ/mol
# Density = 1.906171 g / cm^3
# Si number density = 19.105193 Si / 1000 Ang^3
#
#
#
# Elastic Constant Matrix: (Units=GPa)
#
#
# Indices 1 2 3 4 5 6 
#
# 1 69.6830 35.3213 65.9408 0.0000 0.0000 0.0000
# 2 35.3213 90.8275 52.5521 0.0000 0.0000 0.0000
# 3 65.9408 52.5521 162.4890 0.0000 0.0000 0.0000
# 4 0.0000 0.0000 0.0000 2.1518 0.0000 0.0000
# 5 0.0000 0.0000 0.0000 0.0000 39.7106 0.0000
# 6 0.0000 0.0000 0.0000 0.0000 0.0000 26.0672
#
#
#
# Elastic Compliance Matrix: (Units=1/GPa)
#
#
# Indices 1 2 3 4 5 6 
#
# 1 0.024832 -0.004707 -0.008555 0.000000 0.000000 0.000000
# 2 -0.004707 0.014437 -0.002759 0.000000 0.000000 0.000000
# 3 -0.008555 -0.002759 0.010518 0.000000 0.000000 0.000000
# 4 0.000000 0.000000 0.000000 0.464738 0.000000 0.000000
# 5 0.000000 0.000000 0.000000 0.000000 0.025182 0.000000
# 6 0.000000 0.000000 0.000000 0.000000 0.000000 0.038362
#
#
# Mechanical properties :
#
#
# Convention : Reuss Voigt Hill
#
# Bulk Modulus (GPa) = 56.35277 70.06976 63.21127
# Shear Modulus (GPa) = 8.11654 24.86493 16.49073
#
# Velocity S-wave (km/s) = 2.06339 3.61151 2.94114
# Velocity P-wave (km/s) = 5.93606 7.35840 6.68517
#
# Compressibility (1/GPa) = 0.01774536
#
# Stress axis : x y z
#
# Youngs Moduli (GPa) = 40.27040 69.26826 95.07227
#
# Poissons Ratio (x) = 0.32604 0.81334
# Poissons Ratio (y) = 0.18955 0.26230
# Poissons Ratio (z) = 0.34451 0.19111
#
# Static dielectric constant tensor:
#      x y z
#    x 3.554050 0.000000 0.000000 
#    y 0.000000 3.357120 0.000000 
#    z 0.000000 0.000000 3.699420 
# 
# 
# High freq. dielectric constant tensor:
#      x y z
#    x 1.741240 0.000000 0.000000 
#    y 0.000000 1.735200 0.000000 
#    z 0.000000 0.000000 1.759810 
# 
# From -- ./inp_files/55297.got.cif
#   From: 2010.03.12/outbox.cif.g09.slc.cpg/sg65_28_cif.got.tgz:55297.got - 2010.04.10 20:52:16.
