data_PCOD8273360
_publ_section_title
;
Structure prediction by ZEFSAII (Michael W. Deem and Ramdas Pophale) SiO2 
 PCOD8273360
Probable space group: C M M M
;
_chemical_formula_sum "Si O2"
_cell_formula_units_Z 96
_cell_length_a 27.299453
_cell_length_b 19.977969
_cell_length_c 8.971248
_cell_angle_alpha 90.000000
_cell_angle_beta 90.000000
_cell_angle_gamma 90.000000
_cell_volume 4892.807647
_symmetry_space_group_name_H-M "C M M M"
_symmetry_group_IT_number 65
_symmetry_cell_setting 'orthorhombic'
loop_
_space_group_symop_operation_xyz
x,y,z
-x,-y,z
x,-y,-z
-x,y,-z
-x,-y,-z
x,y,-z
-x,y,z
x,-y,z
1/2+x,1/2+y,z
1/2-x,1/2-y,z
1/2+x,1/2-y,-z
1/2-x,1/2+y,-z
1/2-x,1/2-y,-z
1/2+x,1/2+y,-z
1/2-x,1/2+y,z
1/2+x,1/2-y,z
loop_
_atom_site_type_symbol
_atom_site_label
_atom_site_fract_x
_atom_site_fract_y
_atom_site_fract_z
Si Si1 0.443653 0.923095 0.827583
Si Si2 0.208869 0.303769 0.172127
Si Si3 0.942932 0.817346 0.171812
Si Si4 0.892631 0.695539 0.675650
Si Si5 0.224243 0.075934 0.828487
Si Si6 0.624628 0.422198 0.327016
O O1 0.500000 0.908446 0.787021
O O2 0.408461 0.878207 0.727206
O O3 0.430684 0.000000 0.794110
O O4 0.433952 0.906180 0.000000
O O5 0.250000 0.250000 0.212800
O O6 0.162410 0.288932 0.273898
O O7 0.229499 0.377569 0.208686
O O8 0.193054 0.297621 0.000000
O O9 0.929257 0.749457 0.255535
O O10 0.915688 0.881181 0.238430
O O11 0.000000 0.830786 0.192865
O O12 0.928298 0.809134 0.000000
O O13 0.895683 0.700523 0.500000
O O14 0.178556 0.098128 0.728127
O O15 0.240311 0.000000 0.793634
O O16 0.208133 0.084909 0.000000
O O17 0.620799 0.404178 0.500000
O O18 0.614614 0.500000 0.295370
#
# Coordination Sequence:
#
# PCOD8273360 Si02
#       6
#    16  16  16  16  16  16
#     4   9  19  38  63  87 113 150 194 236 278 329
#     4  10  21  37  57  80 108 146 191 235 278 329
#     4  11  24  41  61  83 110 149 196 241 281 329
#     4  12  25  38  57  86 119 152 185 231 291 346
#     4   9  18  34  57  83 111 147 190 231 272 325
#     4  10  21  37  59  88 121 153 183 225 285 344
#
# _framework density 19.620636999999999
#
# number of rings (size 3 to 8) (size 9 to 14) (size 15 to 20)
#    0.000    1.833    0.000    4.500    0.000    8.333 
#    0.000    4.167    0.000    0.000    0.000    0.000 
#    0.000    0.000    0.000    0.000    0.000    0.000 
#
# Total GULP energy -595467.698234 kJ/mol
# GULP energy per Si atom -12405.577047 kJ/mol
# Density = 1.957598 g / cm^3
# Si number density = 19.620637 Si / 1000 Ang^3
#
#
#
# Elastic Constant Matrix: (Units=GPa)
#
#
# Indices 1 2 3 4 5 6 
#
# 1 55.1121 17.8939 35.0811 0.0000 0.0000 0.0000
# 2 17.8939 70.2819 31.4690 0.0000 0.0000 0.0000
# 3 35.0811 31.4690 109.0732 0.0000 0.0000 0.0000
# 4 0.0000 0.0000 0.0000 27.7461 0.0000 0.0000
# 5 0.0000 0.0000 0.0000 0.0000 0.7251 0.0000
# 6 0.0000 0.0000 0.0000 0.0000 0.0000 35.2510
#
#
#
# Elastic Compliance Matrix: (Units=1/GPa)
#
#
# Indices 1 2 3 4 5 6 
#
# 1 0.023342 -0.002964 -0.006652 0.000000 0.000000 0.000000
# 2 -0.002964 0.016716 -0.003869 0.000000 0.000000 0.000000
# 3 -0.006652 -0.003869 0.012424 0.000000 0.000000 0.000000
# 4 0.000000 0.000000 0.000000 0.036041 0.000000 0.000000
# 5 0.000000 0.000000 0.000000 0.000000 1.379041 0.000000
# 6 0.000000 0.000000 0.000000 0.000000 0.000000 0.028368
#
#
# Mechanical properties :
#
#
# Convention : Reuss Voigt Hill
#
# Bulk Modulus (GPa) = 39.20051 44.81726 42.00888
# Shear Modulus (GPa) = 3.26497 22.74598 13.00548
#
# Velocity S-wave (km/s) = 1.29138 3.40853 2.57737
# Velocity P-wave (km/s) = 4.71658 6.19534 5.50583
#
# Compressibility (1/GPa) = 0.02550987
#
# Stress axis : x y z
#
# Youngs Moduli (GPa) = 42.84196 59.82432 80.48945
#
# Poissons Ratio (x) = 0.17734 0.53542
# Poissons Ratio (y) = 0.12700 0.31143
# Poissons Ratio (z) = 0.28499 0.23148
#
# Static dielectric constant tensor:
#      x y z
#    x 3.476000 0.000000 0.000000 
#    y 0.000000 3.784810 0.000000 
#    z 0.000000 0.000000 3.575070 
# 
# 
# High freq. dielectric constant tensor:
#      x y z
#    x 1.762720 0.000000 0.000000 
#    y 0.000000 1.779540 0.000000 
#    z 0.000000 0.000000 1.761280 
# 
# From -- ./inp_files/16310.got.cif
#   From: 2010.03.12/outbox.cif.g09.slc.cpg/sg65_9_cif.got.tgz:16310.got - 2010.04.10 20:52:16.
