data_PCOD8273243
_publ_section_title
;
Structure prediction by ZEFSAII (Michael W. Deem and Ramdas Pophale) SiO2 
 PCOD8273243
Probable space group: C M M M
;
_chemical_formula_sum "Si O2"
_cell_formula_units_Z 80
_cell_length_a 19.632423
_cell_length_b 8.753323
_cell_length_c 25.627321
_cell_angle_alpha 90.000000
_cell_angle_beta 90.000000
_cell_angle_gamma 90.000000
_cell_volume 4404.027944
_symmetry_space_group_name_H-M "C M M M"
_symmetry_group_IT_number 65
_symmetry_cell_setting 'orthorhombic'
loop_
_space_group_symop_operation_xyz
x,y,z
-x,-y,z
x,-y,-z
-x,y,-z
-x,-y,-z
x,y,-z
-x,y,z
x,-y,z
1/2+x,1/2+y,z
1/2-x,1/2-y,z
1/2+x,1/2-y,-z
1/2-x,1/2+y,-z
1/2-x,1/2-y,-z
1/2+x,1/2+y,-z
1/2-x,1/2+y,z
1/2+x,1/2-y,z
loop_
_atom_site_type_symbol
_atom_site_label
_atom_site_fract_x
_atom_site_fract_y
_atom_site_fract_z
Si Si1 0.578147 0.676448 0.647155
Si Si2 0.824119 0.678893 0.056468
Si Si3 0.675097 0.679865 0.159873
Si Si4 0.679255 0.680410 0.441521
Si Si5 0.578827 0.822298 0.244334
O O1 0.500000 0.700086 0.631717
O O2 0.593864 0.500000 0.660334
O O3 0.620869 0.736258 0.597809
O O4 0.598339 0.777700 0.696831
O O5 0.818611 0.500000 0.067932
O O6 0.750000 0.750000 0.052999
O O7 0.860260 0.759067 0.105948
O O8 0.861072 0.707835 0.000000
O O9 0.682722 0.500000 0.157168
O O10 0.750000 0.750000 0.168451
O O11 0.625595 0.724089 0.206502
O O12 0.661576 0.738709 0.500000
O O13 0.685804 0.500000 0.440858
O O14 0.750000 0.750000 0.421870
O O15 0.500000 0.782057 0.233210
O O16 0.593785 0.000000 0.235651
#
# Coordination Sequence:
#
# PCOD8273243 Si02
#       5
#    16  16  16  16  16
#     4   9  18  33  52  73  97 127 166 208 247 292
#     4   9  16  27  45  70 101 134 167 205 250 298
#     4  11  21  33  52  77 105 134 169 212 254 300
#     4   9  18  32  50  73 101 132 163 198 244 295
#     4  10  21  37  55  74 100 134 170 209 256 308
#
# _framework density 18.165189999999999
#
# number of rings (size 3 to 8) (size 9 to 14) (size 15 to 20)
#    0.000    2.400    0.000    4.200    0.000    4.400 
#    0.000    4.000    0.000    0.600    0.000    9.800 
#    0.000    0.000    0.000    0.000    0.000    0.000 
#
# Total GULP energy -495843.030624 kJ/mol
# GULP energy per Si atom -12396.075766 kJ/mol
# Density = 1.812385 g / cm^3
# Si number density = 18.165190 Si / 1000 Ang^3
#
#
#
# Elastic Constant Matrix: (Units=GPa)
#
#
# Indices 1 2 3 4 5 6 
#
# 1 72.2576 36.8639 71.6969 0.0000 0.0000 0.0000
# 2 36.8639 94.6168 50.3452 0.0000 0.0000 0.0000
# 3 71.6969 50.3452 136.8070 0.0000 0.0000 0.0000
# 4 0.0000 0.0000 0.0000 30.8577 0.0000 0.0000
# 5 0.0000 0.0000 0.0000 0.0000 -2.5820 0.0000
# 6 0.0000 0.0000 0.0000 0.0000 0.0000 25.2314
#
#
#
# Elastic Compliance Matrix: (Units=1/GPa)
#
#
# Indices 1 2 3 4 5 6 
#
# 1 0.030084 -0.004143 -0.014242 0.000000 0.000000 0.000000
# 2 -0.004143 0.013713 -0.002875 0.000000 0.000000 0.000000
# 3 -0.014242 -0.002875 0.015831 0.000000 0.000000 0.000000
# 4 0.000000 0.000000 0.000000 0.032407 0.000000 0.000000
# 5 0.000000 0.000000 0.000000 0.000000 -0.387303 0.000000
# 6 0.000000 0.000000 0.000000 0.000000 0.000000 0.039633
#
#
# Mechanical properties :
#
#
# Convention : Reuss Voigt Hill
#
# Bulk Modulus (GPa) = 58.44999 69.05482 63.75240
# Shear Modulus (GPa) = -24.10666 20.35311 -1.87677
#
# Velocity S-wave (km/s) = -3.64686 3.35094 -1.01755
# Velocity P-wave (km/s) = 3.80972 7.28486 5.81305
#
# Compressibility (1/GPa) = 0.01710864
#
# Stress axis : x y z
#
# Youngs Moduli (GPa) = 33.23994 72.92344 63.16619
#
# Poissons Ratio (x) = 0.30214 0.89959
# Poissons Ratio (y) = 0.13772 0.18160
# Poissons Ratio (z) = 0.47339 0.20966
#
# Static dielectric constant tensor:
#      x y z
#    x 2.987240 0.000000 0.000000 
#    y 0.000000 3.415300 0.000000 
#    z 0.000000 0.000000 3.950200 
# 
# 
# High freq. dielectric constant tensor:
#      x y z
#    x 1.669700 0.000000 0.000000 
#    y 0.000000 1.710530 0.000000 
#    z 0.000000 0.000000 1.721510 
# 
# From -- ./inp_files/72783.got.cif
#   From: 2010.03.12/outbox.cif.g09.slc.cpg/sg65_37_cif.got.tgz:72783.got - 2010.04.10 20:52:16.
