data_PCOD8273481
_publ_section_title
;
Structure prediction by ZEFSAII (Michael W. Deem and Ramdas Pophale) SiO2 
 PCOD8273481
Probable space group: C M M M
;
_chemical_formula_sum "Si O2"
_cell_formula_units_Z 96
_cell_length_a 19.695393
_cell_length_b 27.686563
_cell_length_c 8.986243
_cell_angle_alpha 90.000000
_cell_angle_beta 90.000000
_cell_angle_gamma 90.000000
_cell_volume 4900.177991
_symmetry_space_group_name_H-M "C M M M"
_symmetry_group_IT_number 65
_symmetry_cell_setting 'orthorhombic'
loop_
_space_group_symop_operation_xyz
x,y,z
-x,-y,z
x,-y,-z
-x,y,-z
-x,-y,-z
x,y,-z
-x,y,z
x,-y,z
1/2+x,1/2+y,z
1/2-x,1/2-y,z
1/2+x,1/2-y,-z
1/2-x,1/2+y,-z
1/2-x,1/2-y,-z
1/2+x,1/2+y,-z
1/2-x,1/2+y,z
1/2+x,1/2-y,z
loop_
_atom_site_type_symbol
_atom_site_label
_atom_site_fract_x
_atom_site_fract_y
_atom_site_fract_z
Si Si1 0.578790 0.725638 0.826133
Si Si2 0.689632 0.785821 0.675158
Si Si3 0.190882 0.614198 0.172319
Si Si4 0.578543 0.627318 0.327648
Si Si5 0.078557 0.555293 0.328897
Si Si6 0.824706 0.944315 0.171327
O O1 0.500000 0.734549 0.790256
O O2 0.619743 0.768731 0.749814
O O3 0.603313 0.674499 0.760756
O O4 0.594112 0.725307 0.000000
O O5 0.678668 0.787970 0.500000
O O6 0.750000 0.750000 0.720731
O O7 0.708738 0.838319 0.734833
O O8 0.120575 0.590819 0.224396
O O9 0.250207 0.576099 0.202924
O O10 0.184508 0.628124 0.000000
O O11 0.592979 0.637084 0.500000
O O12 0.500000 0.616398 0.296024
O O13 0.619945 0.581226 0.273767
O O14 0.099472 0.563630 0.500000
O O15 0.092684 0.500000 0.282827
O O16 0.000000 0.568018 0.305135
O O17 0.823857 0.000000 0.216947
O O18 0.845523 0.936853 0.000000
#
# Coordination Sequence:
#
# PCOD8273481 Si02
#       6
#    16  16  16  16  16  16
#     4  10  21  38  61  87 114 147 187 229 277 333
#     4  11  24  40  59  84 113 147 188 232 280 334
#     4  11  23  38  58  84 114 148 187 232 281 333
#     4  10  21  37  58  85 116 149 186 229 278 332
#     4   9  19  37  60  85 114 149 188 230 278 331
#     4  10  22  39  58  82 113 149 189 233 281 332
#
# _framework density 19.591124000000001
#
# number of rings (size 3 to 8) (size 9 to 14) (size 15 to 20)
#    0.000    1.833    0.000    4.000    0.000   10.000 
#    0.000    2.500    0.000    0.000    0.000    0.000 
#    0.000    0.000    0.000    0.000    0.000    0.000 
#
# Total GULP energy -595535.597911 kJ/mol
# GULP energy per Si atom -12406.991623 kJ/mol
# Density = 1.954653 g / cm^3
# Si number density = 19.591124 Si / 1000 Ang^3
#
#
#
# Elastic Constant Matrix: (Units=GPa)
#
#
# Indices 1 2 3 4 5 6 
#
# 1 64.9204 22.7135 40.9955 0.0000 0.0000 0.0000
# 2 22.7135 71.9398 32.5731 0.0000 0.0000 0.0000
# 3 40.9955 32.5731 81.8964 0.0000 0.0000 0.0000
# 4 0.0000 0.0000 0.0000 35.8851 0.0000 0.0000
# 5 0.0000 0.0000 0.0000 0.0000 34.1904 0.0000
# 6 0.0000 0.0000 0.0000 0.0000 0.0000 39.8143
#
#
#
# Elastic Compliance Matrix: (Units=1/GPa)
#
#
# Indices 1 2 3 4 5 6 
#
# 1 0.022882 -0.002486 -0.010465 0.000000 0.000000 0.000000
# 2 -0.002486 0.017224 -0.005606 0.000000 0.000000 0.000000
# 3 -0.010465 -0.005606 0.019679 0.000000 0.000000 0.000000
# 4 0.000000 0.000000 0.000000 0.027867 0.000000 0.000000
# 5 0.000000 0.000000 0.000000 0.000000 0.029248 0.000000
# 6 0.000000 0.000000 0.000000 0.000000 0.000000 0.025117
#
#
# Mechanical properties :
#
#
# Convention : Reuss Voigt Hill
#
# Bulk Modulus (GPa) = 44.11159 45.70232 44.90696
# Shear Modulus (GPa) = 26.78274 30.14292 28.46283
#
# Velocity S-wave (km/s) = 3.70142 3.92676 3.81575
# Velocity P-wave (km/s) = 6.39002 6.62857 6.51039
#
# Compressibility (1/GPa) = 0.02266978
#
# Stress axis : x y z
#
# Youngs Moduli (GPa) = 43.70277 58.05946 50.81547
#
# Poissons Ratio (x) = 0.14433 0.53180
# Poissons Ratio (y) = 0.10864 0.28488
# Poissons Ratio (z) = 0.45737 0.32549
#
# Static dielectric constant tensor:
#      x y z
#    x 3.546420 0.000000 0.000000 
#    y 0.000000 3.567330 0.000000 
#    z 0.000000 0.000000 3.608000 
# 
# 
# High freq. dielectric constant tensor:
#      x y z
#    x 1.769590 0.000000 0.000000 
#    y 0.000000 1.766940 0.000000 
#    z 0.000000 0.000000 1.770350 
# 
# From -- ./inp_files/12322.got.cif
#   From: 2010.03.12/outbox.cif.g09.slc.cpg/sg65_7_cif.got.tgz:12322.got - 2010.04.10 20:52:16.
