data_PCOD8273776
_publ_section_title
;
Structure prediction by ZEFSAII (Michael W. Deem and Ramdas Pophale) SiO2 
 PCOD8273776
Probable space group: C M M M
;
_chemical_formula_sum "Si O2"
_cell_formula_units_Z 72
_cell_length_a 9.541971
_cell_length_b 18.721267
_cell_length_c 19.418581
_cell_angle_alpha 90.000000
_cell_angle_beta 90.000000
_cell_angle_gamma 90.000000
_cell_volume 3468.892333
_symmetry_space_group_name_H-M "C M M M"
_symmetry_group_IT_number 65
_symmetry_cell_setting 'orthorhombic'
loop_
_space_group_symop_operation_xyz
x,y,z
-x,-y,z
x,-y,-z
-x,y,-z
-x,-y,-z
x,y,-z
-x,y,z
x,-y,z
1/2+x,1/2+y,z
1/2-x,1/2-y,z
1/2+x,1/2-y,-z
1/2-x,1/2+y,-z
1/2-x,1/2-y,-z
1/2+x,1/2+y,-z
1/2-x,1/2+y,z
1/2+x,1/2-y,z
loop_
_atom_site_type_symbol
_atom_site_label
_atom_site_fract_x
_atom_site_fract_y
_atom_site_fract_z
Si Si1 0.848690 0.419688 0.301207
Si Si2 0.500000 0.421641 0.419597
Si Si3 0.337130 0.180377 0.918935
Si Si4 0.339150 0.584529 0.823407
Si Si5 0.269208 0.833696 0.579024
O O1 0.811561 0.500000 0.327084
O O2 0.729262 0.391336 0.249251
O O3 0.875840 0.366908 0.366432
O O4 0.000000 0.420509 0.262898
O O5 0.500000 0.500000 0.383086
O O6 0.500000 0.433720 0.500000
O O7 0.369305 0.375036 0.397492
O O8 0.500000 0.186419 0.895052
O O9 0.250000 0.250000 0.896233
O O10 0.256699 0.114416 0.884573
O O11 0.329471 0.168220 0.000000
O O12 0.500000 0.612341 0.827117
O O13 0.333971 0.500000 0.830543
O O14 0.314672 0.849299 0.500000
O O15 0.250000 0.750000 0.589744
#
# Coordination Sequence:
#
# PCOD8273776 Si02
#       5
#    16   8  16  16  16
#     4  10  22  39  59  83 114 153 196 246 304 369
#     4   9  18  34  56  80 107 147 194 238 293 364
#     4  10  21  38  62  92 127 165 203 246 297 356
#     4  10  22  40  62  88 120 160 205 252 301 358
#     4  10  22  37  57  84 116 150 191 248 311 370
#
# _framework density 20.755904999999998
#
# number of rings (size 3 to 8) (size 9 to 14) (size 15 to 20)
#    0.000    2.111    0.000    2.000    3.111    5.778 
#    0.000    5.556    0.000    0.000    0.000    0.000 
#    0.000    0.000    0.000    0.000    0.000    0.000 
#
# Total GULP energy -446129.891996 kJ/mol
# GULP energy per Si atom -12392.497000 kJ/mol
# Density = 2.070866 g / cm^3
# Si number density = 20.755905 Si / 1000 Ang^3
#
#
#
# Elastic Constant Matrix: (Units=GPa)
#
#
# Indices 1 2 3 4 5 6 
#
# 1 161.0743 47.4076 47.3357 0.0000 0.0000 0.0000
# 2 47.4076 94.3634 40.9898 0.0000 0.0000 0.0000
# 3 47.3357 40.9898 74.0023 0.0000 0.0000 0.0000
# 4 0.0000 0.0000 0.0000 35.5795 0.0000 0.0000
# 5 0.0000 0.0000 0.0000 0.0000 29.8758 0.0000
# 6 0.0000 0.0000 0.0000 0.0000 0.0000 32.9953
#
#
#
# Elastic Compliance Matrix: (Units=1/GPa)
#
#
# Indices 1 2 3 4 5 6 
#
# 1 0.008030 -0.002374 -0.003821 0.000000 0.000000 0.000000
# 2 -0.002374 0.014657 -0.006600 0.000000 0.000000 0.000000
# 3 -0.003821 -0.006600 0.019613 0.000000 0.000000 0.000000
# 4 0.000000 0.000000 0.000000 0.028106 0.000000 0.000000
# 5 0.000000 0.000000 0.000000 0.000000 0.033472 0.000000
# 6 0.000000 0.000000 0.000000 0.000000 0.000000 0.030307
#
#
# Mechanical properties :
#
#
# Convention : Reuss Voigt Hill
#
# Bulk Modulus (GPa) = 59.84701 66.76737 63.30719
# Shear Modulus (GPa) = 30.23960 32.60391 31.42176
#
# Velocity S-wave (km/s) = 3.82110 3.96766 3.89507
# Velocity P-wave (km/s) = 6.95443 7.29572 7.12712
#
# Compressibility (1/GPa) = 0.01670927
#
# Stress axis : x y z
#
# Youngs Moduli (GPa) = 124.53089 68.22668 50.98658
#
# Poissons Ratio (x) = 0.16200 0.19484
# Poissons Ratio (y) = 0.29568 0.33650
# Poissons Ratio (z) = 0.47587 0.45028
#
# Static dielectric constant tensor:
#      x y z
#    x 4.172350 0.000000 0.000000 
#    y 0.000000 3.671080 0.000000 
#    z 0.000000 0.000000 3.526590 
# 
# 
# High freq. dielectric constant tensor:
#      x y z
#    x 1.831290 0.000000 0.000000 
#    y 0.000000 1.807740 0.000000 
#    z 0.000000 0.000000 1.798040 
# 
# From -- ./inp_files/59260.got.cif
#   From: 2010.03.12/outbox.cif.g09.slc.cpg/sg65_30_cif.got.tgz:59260.got - 2010.04.10 20:52:16.
