data_PCOD8273971
_publ_section_title
;
Structure prediction by ZEFSAII (Michael W. Deem and Ramdas Pophale) SiO2 
 PCOD8273971
Probable space group: C M M M
;
_chemical_formula_sum "Si O2"
_cell_formula_units_Z 84
_cell_length_a 25.850948
_cell_length_b 13.902545
_cell_length_c 12.669081
_cell_angle_alpha 90.000000
_cell_angle_beta 90.000000
_cell_angle_gamma 90.000000
_cell_volume 4553.191290
_symmetry_space_group_name_H-M "C M M M"
_symmetry_group_IT_number 65
_symmetry_cell_setting 'orthorhombic'
loop_
_space_group_symop_operation_xyz
x,y,z
-x,-y,z
x,-y,-z
-x,y,-z
-x,-y,-z
x,y,-z
-x,y,z
x,-y,z
1/2+x,1/2+y,z
1/2-x,1/2-y,z
1/2+x,1/2-y,-z
1/2-x,1/2+y,-z
1/2-x,1/2-y,-z
1/2+x,1/2+y,-z
1/2-x,1/2+y,z
1/2+x,1/2-y,z
loop_
_atom_site_type_symbol
_atom_site_label
_atom_site_fract_x
_atom_site_fract_y
_atom_site_fract_z
Si Si1 0.819235 0.000000 0.384263
Si Si2 0.726771 0.000000 0.219294
Si Si3 0.500000 0.609524 0.625761
Si Si4 0.308495 0.715794 0.000000
Si Si5 0.281580 0.500000 0.000000
Si Si6 0.389242 0.316429 0.619690
Si Si7 0.944396 0.387579 0.115132
Si Si8 0.154198 0.318709 0.788523
O O1 0.858050 0.913433 0.372234
O O2 0.792304 0.000000 0.500000
O O3 0.775350 0.000000 0.296175
O O4 0.695033 0.097832 0.237388
O O5 0.743830 0.000000 0.098943
O O6 0.500000 0.500000 0.670876
O O7 0.500000 0.603818 0.500000
O O8 0.552138 0.665753 0.663818
O O9 0.250000 0.750000 0.000000
O O10 0.333056 0.756926 0.107262
O O11 0.315164 0.598916 0.000000
O O12 0.392285 0.277317 0.500000
O O13 0.352703 0.245732 0.685959
O O14 0.948879 0.500000 0.103170
O O15 0.901913 0.364533 0.200535
O O16 0.000000 0.345410 0.151953
O O17 0.929660 0.344120 0.000000
#
# Coordination Sequence:
#
# PCOD8273971 Si02
#       8
#     8   8   8   8   4  16  16  16
#     4  10  22  41  60  81 112 152 200 249 295 351
#     4  12  24  38  60  85 116 161 200 243 290 354
#     4   9  16  36  66  90 112 147 200 254 299 352
#     4  12  24  40  61  87 115 161 199 244 295 344
#     4  12  24  40  60  84 122 144 206 250 286 344
#     4  10  22  38  60  89 118 151 197 248 299 354
#     4   9  18  34  57  83 112 149 197 245 284 334
#     4  12  23  37  60  86 122 157 197 241 300 354
#
# _framework density 18.448598
#
# number of rings (size 3 to 8) (size 9 to 14) (size 15 to 20)
#    0.000    1.429    4.762    1.714    1.333    0.762 
#    0.000    1.905    0.000    0.000    0.000    4.667 
#    0.000    0.000    0.000    0.000    0.000    0.000 
#
# Total GULP energy -520428.750500 kJ/mol
# GULP energy per Si atom -12391.160726 kJ/mol
# Density = 1.840661 g / cm^3
# Si number density = 18.448598 Si / 1000 Ang^3
#
#
#
# Elastic Constant Matrix: (Units=GPa)
#
#
# Indices 1 2 3 4 5 6 
#
# 1 109.0296 33.9676 54.2274 0.0000 0.0000 0.0000
# 2 33.9676 96.3727 41.0853 0.0000 0.0000 0.0000
# 3 54.2274 41.0853 99.1567 0.0000 0.0000 0.0000
# 4 0.0000 0.0000 0.0000 186.9456 0.0000 0.0000
# 5 0.0000 0.0000 0.0000 0.0000 29.3066 0.0000
# 6 0.0000 0.0000 0.0000 0.0000 0.0000 27.5040
#
#
#
# Elastic Compliance Matrix: (Units=1/GPa)
#
#
# Indices 1 2 3 4 5 6 
#
# 1 0.012869 -0.001865 -0.006265 0.000000 0.000000 0.000000
# 2 -0.001865 0.012873 -0.004314 0.000000 0.000000 0.000000
# 3 -0.006265 -0.004314 0.015299 0.000000 0.000000 0.000000
# 4 0.000000 0.000000 0.000000 0.005349 0.000000 0.000000
# 5 0.000000 0.000000 0.000000 0.000000 0.034122 0.000000
# 6 0.000000 0.000000 0.000000 0.000000 0.000000 0.036358
#
#
# Mechanical properties :
#
#
# Convention : Reuss Voigt Hill
#
# Bulk Modulus (GPa) = 61.90931 62.56885 62.23908
# Shear Modulus (GPa) = 33.98082 60.43650 47.20866
#
# Velocity S-wave (km/s) = 4.29641 5.72979 5.06407
# Velocity P-wave (km/s) = 7.63170 8.81833 8.24638
#
# Compressibility (1/GPa) = 0.01615266
#
# Stress axis : x y z
#
# Youngs Moduli (GPa) = 77.70706 77.68340 65.36458
#
# Poissons Ratio (x) = 0.14487 0.40952
# Poissons Ratio (y) = 0.14491 0.28198
# Poissons Ratio (z) = 0.48684 0.33512
#
# Static dielectric constant tensor:
#      x y z
#    x 3.655850 0.000000 0.000000 
#    y 0.000000 3.442200 0.000000 
#    z 0.000000 0.000000 3.524020 
# 
# 
# High freq. dielectric constant tensor:
#      x y z
#    x 1.729370 0.000000 0.000000 
#    y 0.000000 1.712280 0.000000 
#    z 0.000000 0.000000 1.701050 
# 
# From -- ./inp_files/30619.got.cif
#   From: 2010.03.12/outbox.cif.g09.slc.cpg/sg65_16_cif.got.tgz:30619.got - 2010.04.10 20:52:16.
