data_PCOD8273645
_publ_section_title
;
Structure prediction by ZEFSAII (Michael W. Deem and Ramdas Pophale) SiO2 
 PCOD8273645
Probable space group: C M M M
;
_chemical_formula_sum "Si O2"
_cell_formula_units_Z 72
_cell_length_a 31.219907
_cell_length_b 8.836150
_cell_length_c 14.259791
_cell_angle_alpha 90.000000
_cell_angle_beta 90.000000
_cell_angle_gamma 90.000000
_cell_volume 3933.759865
_symmetry_space_group_name_H-M "C M M M"
_symmetry_group_IT_number 65
_symmetry_cell_setting 'orthorhombic'
loop_
_space_group_symop_operation_xyz
x,y,z
-x,-y,z
x,-y,-z
-x,y,-z
-x,-y,-z
x,y,-z
-x,y,z
x,-y,z
1/2+x,1/2+y,z
1/2-x,1/2-y,z
1/2+x,1/2-y,-z
1/2-x,1/2+y,-z
1/2-x,1/2-y,-z
1/2+x,1/2+y,-z
1/2-x,1/2+y,z
1/2+x,1/2-y,z
loop_
_atom_site_type_symbol
_atom_site_label
_atom_site_fract_x
_atom_site_fract_y
_atom_site_fract_z
Si Si1 0.294806 0.177827 0.607569
Si Si2 0.500000 0.821221 0.102818
Si Si3 0.371615 0.678859 0.719797
Si Si4 0.907192 0.677603 0.109386
Si Si5 0.452878 0.679801 0.394052
O O1 0.305463 0.219275 0.500000
O O2 0.250000 0.250000 0.638289
O O3 0.330828 0.246641 0.673019
O O4 0.292063 0.000000 0.623267
O O5 0.545262 0.772774 0.149097
O O6 0.500000 0.000000 0.091491
O O7 0.500000 0.747653 0.000000
O O8 0.367524 0.500000 0.711450
O O9 0.373251 0.729112 0.828777
O O10 0.414456 0.743649 0.669479
O O11 0.899433 0.500000 0.123798
O O12 0.901685 0.720458 0.000000
O O13 0.445723 0.738526 0.500000
O O14 0.500000 0.735558 0.357903
O O15 0.451792 0.500000 0.392564
#
# Coordination Sequence:
#
# PCOD8273645 Si02
#       5
#    16   8  16  16  16
#     4  10  21  38  60  84 110 138 172 216 265 318
#     4   7  12  26  47  67  90 129 180 227 269 310
#     4  11  21  31  51  80 109 141 178 220 268 321
#     4   9  18  33  51  71 100 141 186 229 272 317
#     4   8  15  28  44  65  99 141 178 210 249 303
#
# _framework density 18.303097999999999
#
# number of rings (size 3 to 8) (size 9 to 14) (size 15 to 20)
#    0.000    2.778    0.000    4.000    1.556    2.667 
#    0.000    0.000    0.000    2.667    0.000    4.667 
#    0.000    0.000    0.000    0.000    0.000    0.000 
#
# Total GULP energy -446105.104059 kJ/mol
# GULP energy per Si atom -12391.808446 kJ/mol
# Density = 1.826144 g / cm^3
# Si number density = 18.303098 Si / 1000 Ang^3
#
#
#
# Elastic Constant Matrix: (Units=GPa)
#
#
# Indices 1 2 3 4 5 6 
#
# 1 141.3780 47.1844 78.2453 0.0000 0.0000 0.0000
# 2 47.1844 51.5877 35.2811 0.0000 0.0000 0.0000
# 3 78.2453 35.2811 90.5288 0.0000 0.0000 0.0000
# 4 0.0000 0.0000 0.0000 23.5805 0.0000 0.0000
# 5 0.0000 0.0000 0.0000 0.0000 12.6177 0.0000
# 6 0.0000 0.0000 0.0000 0.0000 0.0000 22.3126
#
#
#
# Elastic Compliance Matrix: (Units=1/GPa)
#
#
# Indices 1 2 3 4 5 6 
#
# 1 0.015063 -0.006644 -0.010430 0.000000 0.000000 0.000000
# 2 -0.006644 0.029359 -0.005699 0.000000 0.000000 0.000000
# 3 -0.010430 -0.005699 0.022282 0.000000 0.000000 0.000000
# 4 0.000000 0.000000 0.000000 0.042408 0.000000 0.000000
# 5 0.000000 0.000000 0.000000 0.000000 0.079254 0.000000
# 6 0.000000 0.000000 0.000000 0.000000 0.000000 0.044818
#
#
# Mechanical properties :
#
#
# Convention : Reuss Voigt Hill
#
# Bulk Modulus (GPa) = 47.26406 67.21289 57.23848
# Shear Modulus (GPa) = 17.49578 19.88773 18.69176
#
# Velocity S-wave (km/s) = 3.09510 3.29990 3.19914
# Velocity P-wave (km/s) = 6.21707 7.16387 6.70720
#
# Compressibility (1/GPa) = 0.02115772
#
# Stress axis : x y z
#
# Youngs Moduli (GPa) = 66.38733 34.06063 44.87947
#
# Poissons Ratio (x) = 0.22631 0.46808
# Poissons Ratio (y) = 0.44110 0.25578
# Poissons Ratio (z) = 0.69241 0.19412
#
# Static dielectric constant tensor:
#      x y z
#    x 3.513180 0.000000 0.000000 
#    y 0.000000 3.048950 0.000000 
#    z 0.000000 0.000000 3.302960 
# 
# 
# High freq. dielectric constant tensor:
#      x y z
#    x 1.702300 0.000000 0.000000 
#    y 0.000000 1.685050 0.000000 
#    z 0.000000 0.000000 1.702940 
# 
# From -- ./inp_files/36612.got.cif
#   From: 2010.03.12/outbox.cif.g09.slc.cpg/sg65_19_cif.got.tgz:36612.got - 2010.04.10 20:52:16.
