data_PCOD8273254
_publ_section_title
;
Structure prediction by ZEFSAII (Michael W. Deem and Ramdas Pophale) SiO2 
 PCOD8273254
Probable space group: C M M M
;
_chemical_formula_sum "Si O2"
_cell_formula_units_Z 104
_cell_length_a 25.382806
_cell_length_b 23.659185
_cell_length_c 9.562584
_cell_angle_alpha 90.000000
_cell_angle_beta 90.000000
_cell_angle_gamma 90.000000
_cell_volume 5742.680755
_symmetry_space_group_name_H-M "C M M M"
_symmetry_group_IT_number 65
_symmetry_cell_setting 'orthorhombic'
loop_
_space_group_symop_operation_xyz
x,y,z
-x,-y,z
x,-y,-z
-x,y,-z
-x,-y,-z
x,y,-z
-x,y,z
x,-y,z
1/2+x,1/2+y,z
1/2-x,1/2-y,z
1/2+x,1/2-y,-z
1/2-x,1/2+y,-z
1/2-x,1/2-y,-z
1/2+x,1/2+y,-z
1/2-x,1/2+y,z
1/2+x,1/2-y,z
loop_
_atom_site_type_symbol
_atom_site_label
_atom_site_fract_x
_atom_site_fract_y
_atom_site_fract_z
Si Si1 0.208075 0.292699 0.655991
Si Si2 0.790166 0.500000 0.162263
Si Si3 0.558343 0.817482 0.161223
Si Si4 0.839055 0.382549 0.837755
Si Si5 0.898819 0.225345 0.346210
Si Si6 0.399310 0.596851 0.663025
Si Si7 0.500000 0.566095 0.843171
Si Si8 0.817317 0.000000 0.336645
O O1 0.226011 0.311591 0.500000
O O2 0.250000 0.250000 0.723150
O O3 0.204550 0.347368 0.753252
O O4 0.153634 0.260891 0.650121
O O5 0.828121 0.552501 0.198567
O O6 0.736867 0.500000 0.251224
O O7 0.773336 0.500000 0.000000
O O8 0.500000 0.842938 0.189063
O O9 0.601607 0.864284 0.208883
O O10 0.562328 0.757307 0.240256
O O11 0.566756 0.802665 0.000000
O O12 0.830402 0.369663 0.000000
O O13 0.925438 0.224837 0.500000
O O14 0.884126 0.161521 0.302452
O O15 0.413888 0.587585 0.500000
O O16 0.449069 0.584217 0.757970
O O17 0.350819 0.555907 0.703600
O O18 0.500000 0.500000 0.858862
O O19 0.500000 0.593055 0.000000
O O20 0.802943 0.000000 0.500000
#
# Coordination Sequence:
#
# PCOD8273254 Si02
#       8
#    16   8  16  16  16  16   8   8
#     4   9  18  32  53  77 104 135 171 216 259 306
#     4  10  22  38  56  79 110 144 177 221 270 319
#     4   9  18  34  55  78 106 138 173 216 263 316
#     4   9  19  36  54  76 107 141 176 215 267 322
#     4   9  19  33  50  76 105 134 169 211 260 313
#     4  10  21  37  55  75 102 137 179 221 266 317
#     4  11  23  37  53  73 101 137 177 222 267 310
#     4  10  22  37  57  79 102 139 184 227 266 315
#
# _framework density 18.110008000000001
#
# number of rings (size 3 to 8) (size 9 to 14) (size 15 to 20)
#    0.000    2.538    0.769    0.231    3.231    2.769 
#    0.000    0.385    0.000    2.308    0.000    0.000 
#    0.000    5.538    0.000    0.000    0.000    0.000 
#
# Total GULP energy -644569.931086 kJ/mol
# GULP energy per Si atom -12395.575598 kJ/mol
# Density = 1.806879 g / cm^3
# Si number density = 18.110008 Si / 1000 Ang^3
#
#
#
# Elastic Constant Matrix: (Units=GPa)
#
#
# Indices 1 2 3 4 5 6 
#
# 1 86.3971 55.3836 44.5993 0.0000 0.0000 0.0000
# 2 55.3836 142.8219 54.1538 0.0000 0.0000 0.0000
# 3 44.5993 54.1538 65.5890 0.0000 0.0000 0.0000
# 4 0.0000 0.0000 0.0000 24.6441 0.0000 0.0000
# 5 0.0000 0.0000 0.0000 0.0000 27.3778 0.0000
# 6 0.0000 0.0000 0.0000 0.0000 0.0000 13.4031
#
#
#
# Elastic Compliance Matrix: (Units=1/GPa)
#
#
# Indices 1 2 3 4 5 6 
#
# 1 0.019026 -0.003599 -0.009966 0.000000 0.000000 0.000000
# 2 -0.003599 0.010874 -0.006530 0.000000 0.000000 0.000000
# 3 -0.009966 -0.006530 0.027415 0.000000 0.000000 0.000000
# 4 0.000000 0.000000 0.000000 0.040578 0.000000 0.000000
# 5 0.000000 0.000000 0.000000 0.000000 0.036526 0.000000
# 6 0.000000 0.000000 0.000000 0.000000 0.000000 0.074610
#
#
# Mechanical properties :
#
#
# Convention : Reuss Voigt Hill
#
# Bulk Modulus (GPa) = 58.39809 67.00902 62.70356
# Shear Modulus (GPa) = 19.61353 22.46310 21.03831
#
# Velocity S-wave (km/s) = 3.29450 3.52571 3.41206
# Velocity P-wave (km/s) = 6.84017 7.32500 7.08673
#
# Compressibility (1/GPa) = 0.01712385
#
# Stress axis : x y z
#
# Youngs Moduli (GPa) = 52.55929 91.96609 36.47677
#
# Poissons Ratio (x) = 0.33101 0.36351
# Poissons Ratio (y) = 0.18918 0.23821
# Poissons Ratio (z) = 0.52379 0.60057
#
# Static dielectric constant tensor:
#      x y z
#    x 3.378860 0.000000 0.000000 
#    y 0.000000 3.550420 0.000000 
#    z 0.000000 0.000000 3.624900 
# 
# 
# High freq. dielectric constant tensor:
#      x y z
#    x 1.698580 0.000000 0.000000 
#    y 0.000000 1.699810 0.000000 
#    z 0.000000 0.000000 1.698740 
# 
# From -- ./inp_files/16853.got.cif
#   From: 2010.03.12/outbox.cif.g09.slc.cpg/sg65_9_cif.got.tgz:16853.got - 2010.04.10 20:52:16.
