data_PCOD8273694
_publ_section_title
;
Structure prediction by ZEFSAII (Michael W. Deem and Ramdas Pophale) SiO2 
 PCOD8273694
Probable space group: C M M M
;
_chemical_formula_sum "Si O2"
_cell_formula_units_Z 96
_cell_length_a 8.640392
_cell_length_b 25.606364
_cell_length_c 23.239007
_cell_angle_alpha 90.000000
_cell_angle_beta 90.000000
_cell_angle_gamma 90.000000
_cell_volume 5141.607586
_symmetry_space_group_name_H-M "C M M M"
_symmetry_group_IT_number 65
_symmetry_cell_setting 'orthorhombic'
loop_
_space_group_symop_operation_xyz
x,y,z
-x,-y,z
x,-y,-z
-x,y,-z
-x,-y,-z
x,y,-z
-x,y,z
x,-y,z
1/2+x,1/2+y,z
1/2-x,1/2-y,z
1/2+x,1/2-y,-z
1/2-x,1/2+y,-z
1/2-x,1/2-y,-z
1/2+x,1/2+y,-z
1/2-x,1/2+y,z
1/2+x,1/2-y,z
loop_
_atom_site_type_symbol
_atom_site_label
_atom_site_fract_x
_atom_site_fract_y
_atom_site_fract_z
Si Si1 0.682651 0.195924 0.064867
Si Si2 0.184232 0.500000 0.435521
Si Si3 0.681775 0.560360 0.251753
Si Si4 0.175691 0.000000 0.067947
Si Si5 0.182475 0.805302 0.434883
Si Si6 0.183029 0.405480 0.866822
Si Si7 0.317374 0.099801 0.366661
O O1 0.500000 0.199695 0.064135
O O2 0.750000 0.250000 0.089519
O O3 0.737058 0.149507 0.106464
O O4 0.745399 0.185795 0.000000
O O5 0.251020 0.500000 0.500000
O O6 0.247926 0.449002 0.403205
O O7 0.000000 0.500000 0.435548
O O8 0.500000 0.564892 0.262269
O O9 0.735873 0.500000 0.251212
O O10 0.726754 0.587350 0.192372
O O11 0.770943 0.592027 0.300779
O O12 0.267998 0.949611 0.088495
O O13 0.000000 0.000000 0.092932
O O14 0.172860 0.000000 0.000000
O O15 0.237494 0.818746 0.500000
O O16 0.250000 0.750000 0.415102
O O17 0.242814 0.847960 0.390714
O O18 0.000000 0.802334 0.431293
O O19 0.000000 0.408152 0.856133
O O20 0.500000 0.104379 0.372211
#
# Coordination Sequence:
#
# PCOD8273694 Si02
#       7
#    16   8  16   8  16  16  16
#     4   9  19  36  58  85 115 148 185 228 281 338
#     4   9  18  31  51  82 115 144 178 225 280 337
#     4  11  23  39  58  81 115 154 195 240 288 344
#     4  11  23  36  53  82 117 150 186 231 288 349
#     4  10  21  38  60  87 119 155 194 238 292 349
#     4  11  22  37  59  84 113 148 193 240 286 342
#     4  11  21  36  59  85 116 152 195 239 286 344
#
# _framework density 18.671202999999998
#
# number of rings (size 3 to 8) (size 9 to 14) (size 15 to 20)
#    0.000    1.667    1.667    3.250    0.000    5.000 
#    0.000    2.500    0.000    4.000    0.000    0.000 
#    0.000    0.000    0.000    0.000    0.000    0.000 
#
# Total GULP energy -595410.359848 kJ/mol
# GULP energy per Si atom -12404.382497 kJ/mol
# Density = 1.862871 g / cm^3
# Si number density = 18.671203 Si / 1000 Ang^3
#
#
#
# Elastic Constant Matrix: (Units=GPa)
#
#
# Indices 1 2 3 4 5 6 
#
# 1 42.4668 29.7752 11.3062 0.0000 0.0000 0.0000
# 2 29.7752 157.8424 63.4445 0.0000 0.0000 0.0000
# 3 11.3062 63.4445 100.1745 0.0000 0.0000 0.0000
# 4 0.0000 0.0000 0.0000 32.9901 0.0000 0.0000
# 5 0.0000 0.0000 0.0000 0.0000 29.8148 0.0000
# 6 0.0000 0.0000 0.0000 0.0000 0.0000 31.2835
#
#
#
# Elastic Compliance Matrix: (Units=1/GPa)
#
#
# Indices 1 2 3 4 5 6 
#
# 1 0.027141 -0.005217 0.000241 0.000000 0.000000 0.000000
# 2 -0.005217 0.009502 -0.005429 0.000000 0.000000 0.000000
# 3 0.000241 -0.005429 0.013394 0.000000 0.000000 0.000000
# 4 0.000000 0.000000 0.000000 0.030312 0.000000 0.000000
# 5 0.000000 0.000000 0.000000 0.000000 0.033540 0.000000
# 6 0.000000 0.000000 0.000000 0.000000 0.000000 0.031966
#
#
# Mechanical properties :
#
#
# Convention : Reuss Voigt Hill
#
# Bulk Modulus (GPa) = 34.21524 56.61506 45.41515
# Shear Modulus (GPa) = 28.34348 31.88153 30.11251
#
# Velocity S-wave (km/s) = 3.90042 4.13670 4.02030
# Velocity P-wave (km/s) = 6.21686 7.29413 6.77693
#
# Compressibility (1/GPa) = 0.02922674
#
# Stress axis : x y z
#
# Youngs Moduli (GPa) = 36.84419 105.24464 74.66115
#
# Poissons Ratio (x) = 0.54902 -0.01796
# Poissons Ratio (y) = 0.19220 0.40534
# Poissons Ratio (z) = -0.00886 0.57137
#
# Static dielectric constant tensor:
#      x y z
#    x 3.415640 0.000000 0.000000 
#    y 0.000000 3.516120 0.000000 
#    z 0.000000 0.000000 3.459540 
# 
# 
# High freq. dielectric constant tensor:
#      x y z
#    x 1.727190 0.000000 0.000000 
#    y 0.000000 1.729000 0.000000 
#    z 0.000000 0.000000 1.725860 
# 
# From -- ./inp_files/67869.got.cif
#   From: 2010.03.12/outbox.cif.g09.slc.cpg/sg65_34_cif.got.tgz:67869.got - 2010.04.10 20:52:16.
