data_PCOD8273018
_publ_section_title
;
Structure prediction by ZEFSAII (Michael W. Deem and Ramdas Pophale) SiO2 
 PCOD8273018
Probable space group: C M M M
;
_chemical_formula_sum "Si O2"
_cell_formula_units_Z 88
_cell_length_a 17.657278
_cell_length_b 15.024770
_cell_length_c 17.477819
_cell_angle_alpha 90.000000
_cell_angle_beta 90.000000
_cell_angle_gamma 90.000000
_cell_volume 4636.804921
_symmetry_space_group_name_H-M "C M M M"
_symmetry_group_IT_number 65
_symmetry_cell_setting 'orthorhombic'
loop_
_space_group_symop_operation_xyz
x,y,z
-x,-y,z
x,-y,-z
-x,y,-z
-x,-y,-z
x,y,-z
-x,y,z
x,-y,z
1/2+x,1/2+y,z
1/2-x,1/2-y,z
1/2+x,1/2-y,-z
1/2-x,1/2+y,-z
1/2-x,1/2-y,-z
1/2+x,1/2+y,-z
1/2-x,1/2+y,z
1/2+x,1/2-y,z
loop_
_atom_site_type_symbol
_atom_site_label
_atom_site_fract_x
_atom_site_fract_y
_atom_site_fract_z
Si Si1 0.584456 0.605311 0.000000
Si Si2 0.418548 0.500000 0.589386
Si Si3 0.914497 0.605559 0.000000
Si Si4 0.410744 0.245704 0.256908
Si Si5 0.341228 0.396628 0.843375
Si Si6 0.410079 0.310275 0.584101
Si Si7 0.836985 0.602879 0.845560
O O1 0.627689 0.638191 0.924625
O O2 0.581925 0.500000 0.000000
O O3 0.500000 0.645820 0.000000
O O4 0.500000 0.500000 0.632922
O O5 0.434001 0.500000 0.500000
O O6 0.374511 0.407441 0.607873
O O7 0.870783 0.640203 0.074890
O O8 0.914303 0.500000 0.000000
O O9 0.000000 0.643249 0.000000
O O10 0.500000 0.243407 0.242423
O O11 0.377988 0.336769 0.222105
O O12 0.389989 0.242338 0.347717
O O13 0.373255 0.157768 0.223193
O O14 0.362285 0.500000 0.827840
O O15 0.252011 0.382201 0.845521
O O16 0.379943 0.277800 0.500000
O O17 0.500000 0.323323 0.578930
O O18 0.858672 0.500000 0.833360
#
# Coordination Sequence:
#
# PCOD8273018 Si02
#       7
#     8   8   8  16  16  16  16
#     4   9  17  32  53  78 110 143 175 214 265 322
#     4   7  10  20  40  66  98 133 161 193 245 307
#     4   9  17  32  57  82 100 125 175 240 283 302
#     4  11  22  33  53  83 109 136 174 224 273 315
#     4  10  21  36  54  76 108 148 180 210 256 324
#     4   8  15  28  47  74 107 138 169 211 266 321
#     4  10  21  38  56  75 105 144 184 223 266 317
#
# _framework density 18.978587000000001
#
# number of rings (size 3 to 8) (size 9 to 14) (size 15 to 20)
#    0.000    2.636    0.000    3.273    1.273    5.091 
#    0.000    3.636    0.000    2.727    0.000    5.091 
#    0.000    0.000    0.000    0.000    0.000    0.000 
#
# Total GULP energy -545245.354442 kJ/mol
# GULP energy per Si atom -12391.939874 kJ/mol
# Density = 1.893539 g / cm^3
# Si number density = 18.978587 Si / 1000 Ang^3
#
#
#
# Elastic Constant Matrix: (Units=GPa)
#
#
# Indices 1 2 3 4 5 6 
#
# 1 93.0056 38.4816 50.7457 0.0000 0.0000 0.0000
# 2 38.4816 77.9837 59.9946 0.0000 0.0000 0.0000
# 3 50.7457 59.9946 154.2050 0.0000 0.0000 0.0000
# 4 0.0000 0.0000 0.0000 36.7967 0.0000 0.0000
# 5 0.0000 0.0000 0.0000 0.0000 3.0240 0.0000
# 6 0.0000 0.0000 0.0000 0.0000 0.0000 22.0982
#
#
#
# Elastic Compliance Matrix: (Units=1/GPa)
#
#
# Indices 1 2 3 4 5 6 
#
# 1 0.014310 -0.004907 -0.002800 0.000000 0.000000 0.000000
# 2 -0.004907 0.019984 -0.006160 0.000000 0.000000 0.000000
# 3 -0.002800 -0.006160 0.009803 0.000000 0.000000 0.000000
# 4 0.000000 0.000000 0.000000 0.027176 0.000000 0.000000
# 5 0.000000 0.000000 0.000000 0.000000 0.330684 0.000000
# 6 0.000000 0.000000 0.000000 0.000000 0.000000 0.045253
#
#
# Mechanical properties :
#
#
# Convention : Reuss Voigt Hill
#
# Bulk Modulus (GPa) = 61.11614 69.29312 65.20463
# Shear Modulus (GPa) = 10.40803 24.11528 17.26166
#
# Velocity S-wave (km/s) = 2.34435 3.56850 3.01912
# Velocity P-wave (km/s) = 6.29290 7.31911 6.82532
#
# Compressibility (1/GPa) = 0.01636229
#
# Stress axis : x y z
#
# Youngs Moduli (GPa) = 69.88015 50.04068 102.01148
#
# Poissons Ratio (x) = 0.24557 0.28562
# Poissons Ratio (y) = 0.34293 0.62838
# Poissons Ratio (z) = 0.19566 0.30824
#
# Static dielectric constant tensor:
#      x y z
#    x 3.291840 0.000000 0.000000 
#    y 0.000000 3.424510 0.000000 
#    z 0.000000 0.000000 3.637880 
# 
# 
# High freq. dielectric constant tensor:
#      x y z
#    x 1.713270 0.000000 0.000000 
#    y 0.000000 1.725140 0.000000 
#    z 0.000000 0.000000 1.739060 
# 
# From -- ./inp_files/54359.got.cif
#   From: 2010.03.12/outbox.cif.g09.slc.cpg/sg65_28_cif.got.tgz:54359.got - 2010.04.10 20:52:16.
