data_PCOD8273707
_publ_section_title
;
Structure prediction by ZEFSAII (Michael W. Deem and Ramdas Pophale) SiO2 
 PCOD8273707
Probable space group: C M M M
;
_chemical_formula_sum "Si O2"
_cell_formula_units_Z 112
_cell_length_a 14.266396
_cell_length_b 13.917225
_cell_length_c 26.627217
_cell_angle_alpha 90.000000
_cell_angle_beta 90.000000
_cell_angle_gamma 90.000000
_cell_volume 5286.797804
_symmetry_space_group_name_H-M "C M M M"
_symmetry_group_IT_number 65
_symmetry_cell_setting 'orthorhombic'
loop_
_space_group_symop_operation_xyz
x,y,z
-x,-y,z
x,-y,-z
-x,y,-z
-x,-y,-z
x,y,-z
-x,y,z
x,-y,z
1/2+x,1/2+y,z
1/2-x,1/2-y,z
1/2+x,1/2-y,-z
1/2-x,1/2+y,-z
1/2-x,1/2-y,-z
1/2+x,1/2+y,-z
1/2-x,1/2+y,z
1/2+x,1/2-y,z
loop_
_atom_site_type_symbol
_atom_site_label
_atom_site_fract_x
_atom_site_fract_y
_atom_site_fract_z
Si Si1 0.893673 0.104012 0.647798
Si Si2 0.109764 0.391595 0.379648
Si Si3 0.281705 0.112386 0.903351
Si Si4 0.650561 0.776025 0.714481
Si Si5 0.392146 0.718329 0.057608
Si Si6 0.889352 0.218464 0.555153
Si Si7 0.897662 0.607506 0.192632
O O1 0.894423 0.177349 0.694411
O O2 0.844181 0.148299 0.597644
O O3 0.000000 0.086427 0.632852
O O4 0.847305 0.000000 0.661117
O O5 0.140347 0.500000 0.391366
O O6 0.164424 0.352235 0.330846
O O7 0.133568 0.327891 0.428499
O O8 0.000000 0.382912 0.366102
O O9 0.350422 0.173580 0.939406
O O10 0.173655 0.146873 0.909499
O O11 0.315908 0.134185 0.846581
O O12 0.290803 0.000000 0.916877
O O13 0.750000 0.750000 0.737491
O O14 0.594036 0.820919 0.760373
O O15 0.500000 0.713954 0.077215
O O16 0.388155 0.684649 0.000000
O O17 0.845062 0.199161 0.500000
O O18 0.000000 0.203495 0.552621
O O19 0.878951 0.500000 0.213213
O O20 0.000000 0.612424 0.165738
#
# Coordination Sequence:
#
# PCOD8273707 Si02
#       7
#    16  16  16  16  16  16  16
#     4   9  18  33  51  71  99 136 178 222 268 328
#     4   9  17  31  51  73  99 132 172 220 274 335
#     4  10  21  38  62  91 125 165 211 262 312 366
#     4  11  22  33  52  77 103 138 178 225 281 340
#     4  10  22  39  62  94 132 174 217 261 310 362
#     4   8  14  25  44  74 105 129 162 214 277 337
#     4  10  21  38  61  86 111 143 187 242 304 363
#
# _framework density 21.184846
#
# number of rings (size 3 to 8) (size 9 to 14) (size 15 to 20)
#    0.000    2.429    0.000    3.857    2.000    5.143 
#    0.000    4.286    0.000    6.857    0.000    8.000 
#    0.000    0.000    0.000    0.000    0.000    0.000 
#
# Total GULP energy -693936.018770 kJ/mol
# GULP energy per Si atom -12391.714621 kJ/mol
# Density = 2.113663 g / cm^3
# Si number density = 21.184846 Si / 1000 Ang^3
#
#
#
# Elastic Constant Matrix: (Units=GPa)
#
#
# Indices 1 2 3 4 5 6 
#
# 1 94.9960 28.1626 32.7101 0.0000 0.0000 0.0000
# 2 28.1626 165.0474 59.9937 0.0000 0.0000 0.0000
# 3 32.7101 59.9937 112.5344 0.0000 0.0000 0.0000
# 4 0.0000 0.0000 0.0000 24.8764 0.0000 0.0000
# 5 0.0000 0.0000 0.0000 0.0000 16.9192 0.0000
# 6 0.0000 0.0000 0.0000 0.0000 0.0000 18.3903
#
#
#
# Elastic Compliance Matrix: (Units=1/GPa)
#
#
# Indices 1 2 3 4 5 6 
#
# 1 0.011817 -0.000952 -0.002927 0.000000 0.000000 0.000000
# 2 -0.000952 0.007592 -0.003771 0.000000 0.000000 0.000000
# 3 -0.002927 -0.003771 0.011747 0.000000 0.000000 0.000000
# 4 0.000000 0.000000 0.000000 0.040199 0.000000 0.000000
# 5 0.000000 0.000000 0.000000 0.000000 0.059105 0.000000
# 6 0.000000 0.000000 0.000000 0.000000 0.000000 0.054376
#
#
# Mechanical properties :
#
#
# Convention : Reuss Voigt Hill
#
# Bulk Modulus (GPa) = 63.06758 68.25673 65.66215
# Shear Modulus (GPa) = 24.34023 28.81794 26.57909
#
# Velocity S-wave (km/s) = 3.39329 3.69224 3.54591
# Velocity P-wave (km/s) = 6.72215 7.10397 6.91569
#
# Compressibility (1/GPa) = 0.01585601
#
# Stress axis : x y z
#
# Youngs Moduli (GPa) = 84.62393 131.71856 85.12738
#
# Poissons Ratio (x) = 0.12545 0.24917
# Poissons Ratio (y) = 0.08060 0.32098
# Poissons Ratio (z) = 0.24770 0.49665
#
# Static dielectric constant tensor:
#      x y z
#    x 3.824630 0.000000 0.000000 
#    y 0.000000 4.028450 0.000000 
#    z 0.000000 0.000000 3.614420 
# 
# 
# High freq. dielectric constant tensor:
#      x y z
#    x 1.827780 0.000000 0.000000 
#    y 0.000000 1.830560 0.000000 
#    z 0.000000 0.000000 1.809170 
# 
# From -- ./inp_files/74873.got.cif
#   From: 2010.03.12/outbox.cif.g09.slc.cpg/sg65_38_cif.got.tgz:74873.got - 2010.04.10 20:52:16.
