data_PCOD8273183
_publ_section_title
;
Structure prediction by ZEFSAII (Michael W. Deem and Ramdas Pophale) SiO2 
 PCOD8273183
Probable space group: C M M M
;
_chemical_formula_sum "Si O2"
_cell_formula_units_Z 96
_cell_length_a 18.990543
_cell_length_b 15.867852
_cell_length_c 14.366667
_cell_angle_alpha 90.000000
_cell_angle_beta 90.000000
_cell_angle_gamma 90.000000
_cell_volume 4329.238873
_symmetry_space_group_name_H-M "C M M M"
_symmetry_group_IT_number 65
_symmetry_cell_setting 'orthorhombic'
loop_
_space_group_symop_operation_xyz
x,y,z
-x,-y,z
x,-y,-z
-x,y,-z
-x,-y,-z
x,y,-z
-x,y,z
x,-y,z
1/2+x,1/2+y,z
1/2-x,1/2-y,z
1/2+x,1/2-y,-z
1/2-x,1/2+y,-z
1/2-x,1/2-y,-z
1/2+x,1/2+y,-z
1/2-x,1/2+y,z
1/2+x,1/2-y,z
loop_
_atom_site_type_symbol
_atom_site_label
_atom_site_fract_x
_atom_site_fract_y
_atom_site_fract_z
Si Si1 0.082888 0.762050 0.897762
Si Si2 0.839505 0.155161 0.606409
Si Si3 0.791000 0.594415 0.699489
Si Si4 0.081302 0.669395 0.606972
Si Si5 0.161255 0.594877 0.895212
Si Si6 0.581068 0.591897 0.232487
O O1 0.103119 0.666108 0.873218
O O2 0.115164 0.832640 0.828840
O O3 0.000000 0.768656 0.894154
O O4 0.111403 0.785267 0.000000
O O5 0.838108 0.125565 0.500000
O O6 0.758843 0.160287 0.644254
O O7 0.882343 0.240666 0.619133
O O8 0.879470 0.086538 0.668848
O O9 0.768591 0.500000 0.671395
O O10 0.872871 0.606253 0.670020
O O11 0.781766 0.605488 0.811945
O O12 0.083766 0.639711 0.500000
O O13 0.000000 0.672515 0.642032
O O14 0.128426 0.500000 0.888595
O O15 0.193433 0.607774 0.000000
O O16 0.500000 0.610996 0.251930
O O17 0.590503 0.500000 0.183745
#
# Coordination Sequence:
#
# PCOD8273183 Si02
#       6
#    16  16  16  16  16  16
#     4   9  18  34  57  84 115 152 194 243 297 352
#     4  11  23  40  61  85 116 155 201 250 299 354
#     4  11  23  38  60  90 122 157 197 245 304 365
#     4  10  22  40  62  88 119 159 205 250 299 357
#     4   9  19  36  57  83 116 152 192 240 295 359
#     4  10  21  36  56  84 117 156 202 249 299 355
#
# _framework density 22.174799
#
# number of rings (size 3 to 8) (size 9 to 14) (size 15 to 20)
#    0.000    2.000    0.000    3.000    0.000    7.667 
#    0.000    7.500    0.000    6.000    0.000    0.000 
#    0.000    0.000    0.000    0.000    0.000    0.000 
#
# Total GULP energy -594760.446453 kJ/mol
# GULP energy per Si atom -12390.842634 kJ/mol
# Density = 2.212433 g / cm^3
# Si number density = 22.174799 Si / 1000 Ang^3
#
#
#
# Elastic Constant Matrix: (Units=GPa)
#
#
# Indices 1 2 3 4 5 6 
#
# 1 99.0475 37.4179 46.4454 0.0000 0.0000 0.0000
# 2 37.4179 114.1314 68.7004 0.0000 0.0000 0.0000
# 3 46.4454 68.7004 140.1810 0.0000 0.0000 0.0000
# 4 0.0000 0.0000 0.0000 28.1531 0.0000 0.0000
# 5 0.0000 0.0000 0.0000 0.0000 27.3663 0.0000
# 6 0.0000 0.0000 0.0000 0.0000 0.0000 28.4849
#
#
#
# Elastic Compliance Matrix: (Units=1/GPa)
#
#
# Indices 1 2 3 4 5 6 
#
# 1 0.012347 -0.002249 -0.002989 0.000000 0.000000 0.000000
# 2 -0.002249 0.012838 -0.005546 0.000000 0.000000 0.000000
# 3 -0.002989 -0.005546 0.010842 0.000000 0.000000 0.000000
# 4 0.000000 0.000000 0.000000 0.035520 0.000000 0.000000
# 5 0.000000 0.000000 0.000000 0.000000 0.036541 0.000000
# 6 0.000000 0.000000 0.000000 0.000000 0.000000 0.035106
#
#
# Mechanical properties :
#
#
# Convention : Reuss Voigt Hill
#
# Bulk Modulus (GPa) = 69.16214 73.16527 71.16371
# Shear Modulus (GPa) = 29.48411 30.18727 29.83569
#
# Velocity S-wave (km/s) = 3.65035 3.69363 3.67205
# Velocity P-wave (km/s) = 7.00172 7.15939 7.08099
#
# Compressibility (1/GPa) = 0.01445878
#
# Stress axis : x y z
#
# Youngs Moduli (GPa) = 80.98956 77.89502 92.23294
#
# Poissons Ratio (x) = 0.17518 0.27566
# Poissons Ratio (y) = 0.18214 0.51157
# Poissons Ratio (z) = 0.24206 0.43204
#
# Static dielectric constant tensor:
#      x y z
#    x 3.796550 0.000000 0.000000 
#    y 0.000000 4.049330 0.000000 
#    z 0.000000 0.000000 4.339560 
# 
# 
# High freq. dielectric constant tensor:
#      x y z
#    x 1.849650 0.000000 0.000000 
#    y 0.000000 1.876570 0.000000 
#    z 0.000000 0.000000 1.882100 
# 
# From -- ./inp_files/44091.got.cif
#   From: 2010.03.12/outbox.cif.g09.slc.cpg/sg65_23_cif.got.tgz:44091.got - 2010.04.10 20:52:16.
