data_PCOD8273467
_publ_section_title
;
Structure prediction by ZEFSAII (Michael W. Deem and Ramdas Pophale) SiO2 
 PCOD8273467
Probable space group: C M M M
;
_chemical_formula_sum "Si O2"
_cell_formula_units_Z 88
_cell_length_a 8.916101
_cell_length_b 26.319530
_cell_length_c 18.884495
_cell_angle_alpha 90.000000
_cell_angle_beta 90.000000
_cell_angle_gamma 90.000000
_cell_volume 4431.578888
_symmetry_space_group_name_H-M "C M M M"
_symmetry_group_IT_number 65
_symmetry_cell_setting 'orthorhombic'
loop_
_space_group_symop_operation_xyz
x,y,z
-x,-y,z
x,-y,-z
-x,y,-z
-x,-y,-z
x,y,-z
-x,y,z
x,-y,z
1/2+x,1/2+y,z
1/2-x,1/2-y,z
1/2+x,1/2-y,-z
1/2-x,1/2+y,-z
1/2-x,1/2-y,-z
1/2+x,1/2+y,-z
1/2-x,1/2+y,z
1/2+x,1/2-y,z
loop_
_atom_site_type_symbol
_atom_site_label
_atom_site_fract_x
_atom_site_fract_y
_atom_site_fract_z
Si Si1 0.677977 0.904395 0.343664
Si Si2 0.676330 0.198524 0.419012
Si Si3 0.176910 0.402390 0.919296
Si Si4 0.670655 0.557426 0.789650
Si Si5 0.671642 0.500000 0.416221
Si Si6 0.167525 0.201027 0.916253
O O1 0.500000 0.910202 0.345347
O O2 0.730957 0.850336 0.374841
O O3 0.736359 0.906740 0.263124
O O4 0.748145 0.949390 0.389357
O O5 0.727469 0.190044 0.500000
O O6 0.500000 0.205098 0.412971
O O7 0.750000 0.250000 0.388180
O O8 0.255562 0.442464 0.867604
O O9 0.233570 0.347208 0.895301
O O10 0.000000 0.405053 0.910382
O O11 0.224456 0.414857 0.000000
O O12 0.500000 0.576653 0.794569
O O13 0.677896 0.500000 0.760452
O O14 0.500000 0.500000 0.389201
O O15 0.681068 0.500000 0.500000
O O16 0.250000 0.250000 0.883167
O O17 0.000000 0.196110 0.884278
O O18 0.157052 0.206897 0.000000
#
# Coordination Sequence:
#
# PCOD8273467 Si02
#       6
#    16  16  16  16   8  16
#     4  11  22  38  61  87 119 158 201 248 296 354
#     4   9  19  36  59  89 123 160 201 243 291 346
#     4  10  21  37  58  84 112 145 192 245 296 357
#     4  11  24  41  60  82 113 151 193 243 302 365
#     4  11  23  37  57  89 124 157 196 241 291 347
#     4   9  16  28  49  77 109 142 176 220 279 341
#
# _framework density 19.857482000000001
#
# number of rings (size 3 to 8) (size 9 to 14) (size 15 to 20)
#    0.000    1.909    0.909    3.000    0.000    7.636 
#    0.000    4.545    0.000    2.182    0.000    0.000 
#    0.000    0.000    0.000    0.000    0.000    0.000 
#
# Total GULP energy -545692.075618 kJ/mol
# GULP energy per Si atom -12402.092628 kJ/mol
# Density = 1.981229 g / cm^3
# Si number density = 19.857482 Si / 1000 Ang^3
#
#
#
# Elastic Constant Matrix: (Units=GPa)
#
#
# Indices 1 2 3 4 5 6 
#
# 1 109.8530 52.6766 46.7368 0.0000 0.0000 0.0000
# 2 52.6766 131.6292 53.7969 0.0000 0.0000 0.0000
# 3 46.7368 53.7969 93.6012 0.0000 0.0000 0.0000
# 4 0.0000 0.0000 0.0000 27.8676 0.0000 0.0000
# 5 0.0000 0.0000 0.0000 0.0000 30.5085 0.0000
# 6 0.0000 0.0000 0.0000 0.0000 0.0000 36.6075
#
#
#
# Elastic Compliance Matrix: (Units=1/GPa)
#
#
# Indices 1 2 3 4 5 6 
#
# 1 0.012516 -0.003208 -0.004405 0.000000 0.000000 0.000000
# 2 -0.003208 0.010752 -0.004578 0.000000 0.000000 0.000000
# 3 -0.004405 -0.004578 0.015514 0.000000 0.000000 0.000000
# 4 0.000000 0.000000 0.000000 0.035884 0.000000 0.000000
# 5 0.000000 0.000000 0.000000 0.000000 0.032778 0.000000
# 6 0.000000 0.000000 0.000000 0.000000 0.000000 0.027317
#
#
# Mechanical properties :
#
#
# Convention : Reuss Voigt Hill
#
# Bulk Modulus (GPa) = 69.44764 71.27824 70.36294
# Shear Modulus (GPa) = 30.49839 31.12157 30.80998
#
# Velocity S-wave (km/s) = 3.92326 3.96314 3.94325
# Velocity P-wave (km/s) = 7.45464 7.54419 7.49955
#
# Compressibility (1/GPa) = 0.01439934
#
# Stress axis : x y z
#
# Youngs Moduli (GPa) = 79.89931 93.00700 64.45627
#
# Poissons Ratio (x) = 0.29838 0.28396
# Poissons Ratio (y) = 0.25633 0.29506
# Poissons Ratio (z) = 0.35199 0.42576
#
# Static dielectric constant tensor:
#      x y z
#    x 3.703420 0.000000 0.000000 
#    y 0.000000 3.659270 0.000000 
#    z 0.000000 0.000000 3.488480 
# 
# 
# High freq. dielectric constant tensor:
#      x y z
#    x 1.785330 0.000000 0.000000 
#    y 0.000000 1.776760 0.000000 
#    z 0.000000 0.000000 1.757570 
# 
# From -- ./inp_files/59817.got.cif
#   From: 2010.03.12/outbox.cif.g09.slc.cpg/sg65_30_cif.got.tgz:59817.got - 2010.04.10 20:52:16.
