data_PCOD8273902
_publ_section_title
;
Structure prediction by ZEFSAII (Michael W. Deem and Ramdas Pophale) SiO2 
 PCOD8273902
Probable space group: C M M M
;
_chemical_formula_sum "Si O2"
_cell_formula_units_Z 104
_cell_length_a 19.756002
_cell_length_b 19.092371
_cell_length_c 14.752566
_cell_angle_alpha 90.000000
_cell_angle_beta 90.000000
_cell_angle_gamma 90.000000
_cell_volume 5564.504432
_symmetry_space_group_name_H-M "C M M M"
_symmetry_group_IT_number 65
_symmetry_cell_setting 'orthorhombic'
loop_
_space_group_symop_operation_xyz
x,y,z
-x,-y,z
x,-y,-z
-x,y,-z
-x,-y,-z
x,y,-z
-x,y,z
x,-y,z
1/2+x,1/2+y,z
1/2-x,1/2-y,z
1/2+x,1/2-y,-z
1/2-x,1/2+y,-z
1/2-x,1/2-y,-z
1/2+x,1/2+y,-z
1/2-x,1/2+y,z
1/2+x,1/2-y,z
loop_
_atom_site_type_symbol
_atom_site_label
_atom_site_fract_x
_atom_site_fract_y
_atom_site_fract_z
Si Si1 0.922707 0.163895 0.673309
Si Si2 0.180237 0.417569 0.606393
Si Si3 0.718698 0.641636 0.901186
Si Si4 0.641564 0.221720 0.899665
Si Si5 0.420678 0.577554 0.500000
Si Si6 0.306843 0.577972 0.274162
Si Si7 0.077286 0.320306 0.285972
O O1 0.897724 0.123156 0.584306
O O2 0.869370 0.131080 0.742361
O O3 0.913209 0.246673 0.661460
O O4 0.000000 0.145958 0.700778
O O5 0.179526 0.396647 0.500000
O O6 0.166300 0.500000 0.618934
O O7 0.252902 0.397383 0.649576
O O8 0.122828 0.376751 0.662266
O O9 0.657099 0.696271 0.883430
O O10 0.788369 0.682244 0.897278
O O11 0.725379 0.580757 0.826074
O O12 0.708851 0.606529 0.000000
O O13 0.593846 0.191254 0.820203
O O14 0.607578 0.211422 0.000000
O O15 0.385950 0.500000 0.500000
O O16 0.500000 0.567276 0.500000
O O17 0.332346 0.500000 0.296572
O O18 0.000000 0.346176 0.292966
#
# Coordination Sequence:
#
# PCOD8273902 Si02
#       7
#    16  16  16  16   8  16  16
#     4  10  22  36  53  84 117 147 190 237 279 335
#     4  10  24  43  60  84 115 147 189 237 290 351
#     4   9  17  32  56  83 113 148 187 235 287 337
#     4   9  17  33  57  83 114 147 183 235 291 341
#     4   9  18  34  52  71 107 153 188 225 275 325
#     4  11  21  35  59  83 113 155 193 234 281 335
#     4  11  22  37  61  86 113 150 192 239 284 337
#
# _framework density 18.689895
#
# number of rings (size 3 to 8) (size 9 to 14) (size 15 to 20)
#    0.000    2.077    3.077    1.385    2.154    2.769 
#    0.000    1.538    0.000    0.923    0.000    2.154 
#    0.000    0.000    0.000    0.000    0.000    0.000 
#
# Total GULP energy -644239.624678 kJ/mol
# GULP energy per Si atom -12389.223552 kJ/mol
# Density = 1.864736 g / cm^3
# Si number density = 18.689895 Si / 1000 Ang^3
#
#
#
# Elastic Constant Matrix: (Units=GPa)
#
#
# Indices 1 2 3 4 5 6 
#
# 1 99.1147 46.5211 38.4266 0.0000 0.0000 0.0000
# 2 46.5211 70.9400 42.2406 0.0000 0.0000 0.0000
# 3 38.4266 42.2406 130.8968 0.0000 0.0000 0.0000
# 4 0.0000 0.0000 0.0000 23.5447 0.0000 0.0000
# 5 0.0000 0.0000 0.0000 0.0000 20.2111 0.0000
# 6 0.0000 0.0000 0.0000 0.0000 0.0000 25.2838
#
#
#
# Elastic Compliance Matrix: (Units=1/GPa)
#
#
# Indices 1 2 3 4 5 6 
#
# 1 0.014811 -0.008818 -0.001502 0.000000 0.000000 0.000000
# 2 -0.008818 0.022699 -0.004736 0.000000 0.000000 0.000000
# 3 -0.001502 -0.004736 0.009609 0.000000 0.000000 0.000000
# 4 0.000000 0.000000 0.000000 0.042472 0.000000 0.000000
# 5 0.000000 0.000000 0.000000 0.000000 0.049478 0.000000
# 6 0.000000 0.000000 0.000000 0.000000 0.000000 0.039551
#
#
# Mechanical properties :
#
#
# Convention : Reuss Voigt Hill
#
# Bulk Modulus (GPa) = 58.80426 61.70314 60.25370
# Shear Modulus (GPa) = 23.32063 25.39213 24.35638
#
# Velocity S-wave (km/s) = 3.53621 3.68992 3.61388
# Velocity P-wave (km/s) = 6.94294 7.15820 7.05139
#
# Compressibility (1/GPa) = 0.01700557
#
# Stress axis : x y z
#
# Youngs Moduli (GPa) = 67.51908 44.05402 104.06806
#
# Poissons Ratio (x) = 0.38847 0.15634
# Poissons Ratio (y) = 0.59538 0.49292
# Poissons Ratio (z) = 0.10143 0.20866
#
# Static dielectric constant tensor:
#      x y z
#    x 3.288640 0.000000 0.000000 
#    y 0.000000 3.319220 0.000000 
#    z 0.000000 0.000000 3.901970 
# 
# 
# High freq. dielectric constant tensor:
#      x y z
#    x 1.711960 0.000000 0.000000 
#    y 0.000000 1.712160 0.000000 
#    z 0.000000 0.000000 1.739350 
# 
# From -- ./inp_files/42856.got.cif
#   From: 2010.03.12/outbox.cif.g09.slc.cpg/sg65_22_cif.got.tgz:42856.got - 2010.04.10 20:52:16.
