data_PCOD8273719
_publ_section_title
;
Structure prediction by ZEFSAII (Michael W. Deem and Ramdas Pophale) SiO2 
 PCOD8273719
Probable space group: C M M M
;
_chemical_formula_sum "Si O2"
_cell_formula_units_Z 80
_cell_length_a 19.086557
_cell_length_b 8.669017
_cell_length_c 24.955358
_cell_angle_alpha 90.000000
_cell_angle_beta 90.000000
_cell_angle_gamma 90.000000
_cell_volume 4129.155637
_symmetry_space_group_name_H-M "C M M M"
_symmetry_group_IT_number 65
_symmetry_cell_setting 'orthorhombic'
loop_
_space_group_symop_operation_xyz
x,y,z
-x,-y,z
x,-y,-z
-x,y,-z
-x,-y,-z
x,y,-z
-x,y,z
x,-y,z
1/2+x,1/2+y,z
1/2-x,1/2-y,z
1/2+x,1/2-y,-z
1/2-x,1/2+y,-z
1/2-x,1/2-y,-z
1/2+x,1/2+y,-z
1/2-x,1/2+y,z
1/2+x,1/2-y,z
loop_
_atom_site_type_symbol
_atom_site_label
_atom_site_fract_x
_atom_site_fract_y
_atom_site_fract_z
Si Si1 0.418058 0.175833 0.560825
Si Si2 0.323976 0.179643 0.937580
Si Si3 0.081548 0.180355 0.149440
Si Si4 0.325125 0.818098 0.240489
Si Si5 0.176502 0.179803 0.646641
O O1 0.395939 0.214345 0.500000
O O2 0.500000 0.201603 0.568414
O O3 0.379409 0.292316 0.600193
O O4 0.397585 0.000000 0.574771
O O5 0.250000 0.250000 0.919229
O O6 0.386011 0.264877 0.906636
O O7 0.323769 0.000000 0.922991
O O8 0.337368 0.209399 0.000000
O O9 0.116501 0.270955 0.198118
O O10 0.000000 0.221917 0.148572
O O11 0.094712 0.000000 0.157232
O O12 0.250000 0.750000 0.223611
O O13 0.349370 0.757457 0.298413
O O14 0.318193 0.000000 0.242481
O O15 0.250000 0.250000 0.627673
O O16 0.185684 0.000000 0.657150
#
# Coordination Sequence:
#
# PCOD8273719 Si02
#       5
#    16  16  16  16  16
#     4   9  19  37  59  82 111 148 188 229 276 332
#     4  10  21  38  61  87 115 149 190 233 277 330
#     4  11  24  40  58  83 116 151 188 231 279 331
#     4  11  22  39  62  84 111 146 186 231 279 334
#     4  11  22  37  58  84 114 146 185 232 280 331
#
# _framework density 19.374421000000002
#
# number of rings (size 3 to 8) (size 9 to 14) (size 15 to 20)
#    0.000    1.600    0.000    7.200    0.000    5.200 
#    0.000    3.000    0.000    0.000    0.000    0.000 
#    0.000    0.000    0.000    0.000    0.000    0.000 
#
# Total GULP energy -496221.226551 kJ/mol
# GULP energy per Si atom -12405.530664 kJ/mol
# Density = 1.933032 g / cm^3
# Si number density = 19.374421 Si / 1000 Ang^3
#
#
#
# Elastic Constant Matrix: (Units=GPa)
#
#
# Indices 1 2 3 4 5 6 
#
# 1 104.8375 61.2506 68.4740 0.0000 0.0000 0.0000
# 2 61.2506 147.2522 53.5385 0.0000 0.0000 0.0000
# 3 68.4740 53.5385 107.9779 0.0000 0.0000 0.0000
# 4 0.0000 0.0000 0.0000 36.1093 0.0000 0.0000
# 5 0.0000 0.0000 0.0000 0.0000 25.3577 0.0000
# 6 0.0000 0.0000 0.0000 0.0000 0.0000 32.2367
#
#
#
# Elastic Compliance Matrix: (Units=1/GPa)
#
#
# Indices 1 2 3 4 5 6 
#
# 1 0.018103 -0.004094 -0.009450 0.000000 0.000000 0.000000
# 2 -0.004094 0.009211 -0.001971 0.000000 0.000000 0.000000
# 3 -0.009450 -0.001971 0.016231 0.000000 0.000000 0.000000
# 4 0.000000 0.000000 0.000000 0.027694 0.000000 0.000000
# 5 0.000000 0.000000 0.000000 0.000000 0.039436 0.000000
# 6 0.000000 0.000000 0.000000 0.000000 0.000000 0.031021
#
#
# Mechanical properties :
#
#
# Convention : Reuss Voigt Hill
#
# Bulk Modulus (GPa) = 79.90407 80.73265 80.31836
# Shear Modulus (GPa) = 28.26547 30.52772 29.39660
#
# Velocity S-wave (km/s) = 3.82371 3.97378 3.89947
# Velocity P-wave (km/s) = 7.79910 7.92557 7.86259
#
# Compressibility (1/GPa) = 0.01251501
#
# Stress axis : x y z
#
# Youngs Moduli (GPa) = 55.24075 108.57156 61.61148
#
# Poissons Ratio (x) = 0.44451 0.58221
# Poissons Ratio (y) = 0.22616 0.12141
# Poissons Ratio (z) = 0.52201 0.21394
#
# Static dielectric constant tensor:
#      x y z
#    x 3.583280 0.000000 0.000000 
#    y 0.000000 3.658640 0.000000 
#    z 0.000000 0.000000 3.567440 
# 
# 
# High freq. dielectric constant tensor:
#      x y z
#    x 1.749590 0.000000 0.000000 
#    y 0.000000 1.768250 0.000000 
#    z 0.000000 0.000000 1.764760 
# 
# From -- ./inp_files/72726.got.cif
#   From: 2010.03.12/outbox.cif.g09.slc.cpg/sg65_37_cif.got.tgz:72726.got - 2010.04.10 20:52:16.
