data_PCOD8273344
_publ_section_title
;
Structure prediction by ZEFSAII (Michael W. Deem and Ramdas Pophale) SiO2 
 PCOD8273344
Probable space group: C M M M
;
_chemical_formula_sum "Si O2"
_cell_formula_units_Z 104
_cell_length_a 25.921420
_cell_length_b 23.651546
_cell_length_c 8.964337
_cell_angle_alpha 90.000000
_cell_angle_beta 90.000000
_cell_angle_gamma 90.000000
_cell_volume 5495.870586
_symmetry_space_group_name_H-M "C M M M"
_symmetry_group_IT_number 65
_symmetry_cell_setting 'orthorhombic'
loop_
_space_group_symop_operation_xyz
x,y,z
-x,-y,z
x,-y,-z
-x,y,-z
-x,-y,-z
x,y,-z
-x,y,z
x,-y,z
1/2+x,1/2+y,z
1/2-x,1/2-y,z
1/2+x,1/2-y,-z
1/2-x,1/2+y,-z
1/2-x,1/2-y,-z
1/2+x,1/2+y,-z
1/2-x,1/2+y,z
1/2+x,1/2-y,z
loop_
_atom_site_type_symbol
_atom_site_label
_atom_site_fract_x
_atom_site_fract_y
_atom_site_fract_z
Si Si1 0.324779 0.343074 0.175858
Si Si2 0.388577 0.432947 0.328228
Si Si3 0.441136 0.847112 0.826543
Si Si4 0.717192 0.852049 0.672242
Si Si5 0.855245 0.435395 0.174217
Si Si6 0.000000 0.061627 0.676108
Si Si7 0.128513 0.261656 0.672086
O O1 0.346164 0.404274 0.223486
O O2 0.268258 0.334217 0.241771
O O3 0.363568 0.295980 0.238437
O O4 0.321579 0.338415 0.000000
O O5 0.376610 0.417765 0.500000
O O6 0.386136 0.500000 0.303571
O O7 0.445713 0.408566 0.280424
O O8 0.500000 0.860428 0.783231
O O9 0.407784 0.902426 0.784544
O O10 0.422068 0.793026 0.733928
O O11 0.435140 0.832361 0.000000
O O12 0.730476 0.861998 0.500000
O O13 0.693189 0.909610 0.737560
O O14 0.677986 0.800914 0.696376
O O15 0.862775 0.500000 0.224220
O O16 0.842673 0.430377 0.000000
O O17 0.000000 0.053017 0.500000
O O18 0.000000 0.000000 0.752496
O O19 0.119551 0.246919 0.500000
#
# Coordination Sequence:
#
# PCOD8273344 Si02
#       7
#    16  16  16  16  16   8  16
#     4  12  24  36  54  81 110 141 177 220 272 329
#     4   9  18  35  58  81 106 137 174 216 261 311
#     4   9  18  34  56  82 114 149 184 227 277 325
#     4  10  21  37  57  78 104 140 181 228 275 321
#     4   9  18  33  54  82 115 150 187 225 270 327
#     4   7  12  28  55  79  97 125 165 205 246 293
#     4  10  21  38  58  79 104 138 183 228 273 325
#
# _framework density 18.923300000000001
#
# number of rings (size 3 to 8) (size 9 to 14) (size 15 to 20)
#    0.000    2.385    0.000    3.692    0.000    5.538 
#    1.385    1.923    0.000    1.385    0.000    4.308 
#    0.000    0.000    0.000    0.000    0.000    0.000 
#
# Total GULP energy -644770.106247 kJ/mol
# GULP energy per Si atom -12399.425120 kJ/mol
# Density = 1.888023 g / cm^3
# Si number density = 18.923300 Si / 1000 Ang^3
#
#
#
# Elastic Constant Matrix: (Units=GPa)
#
#
# Indices 1 2 3 4 5 6 
#
# 1 56.7747 26.5609 29.1199 0.0000 0.0000 0.0000
# 2 26.5609 88.4037 41.1335 0.0000 0.0000 0.0000
# 3 29.1199 41.1335 93.3172 0.0000 0.0000 0.0000
# 4 0.0000 0.0000 0.0000 26.4483 0.0000 0.0000
# 5 0.0000 0.0000 0.0000 0.0000 25.8471 0.0000
# 6 0.0000 0.0000 0.0000 0.0000 0.0000 17.7178
#
#
#
# Elastic Compliance Matrix: (Units=1/GPa)
#
#
# Indices 1 2 3 4 5 6 
#
# 1 0.022219 -0.004340 -0.005021 0.000000 0.000000 0.000000
# 2 -0.004340 0.015078 -0.005292 0.000000 0.000000 0.000000
# 3 -0.005021 -0.005292 0.014616 0.000000 0.000000 0.000000
# 4 0.000000 0.000000 0.000000 0.037810 0.000000 0.000000
# 5 0.000000 0.000000 0.000000 0.000000 0.038689 0.000000
# 6 0.000000 0.000000 0.000000 0.000000 0.000000 0.056440
#
#
# Mechanical properties :
#
#
# Convention : Reuss Voigt Hill
#
# Bulk Modulus (GPa) = 44.23260 48.01379 46.12320
# Shear Modulus (GPa) = 22.55387 23.44807 23.00097
#
# Velocity S-wave (km/s) = 3.45607 3.52392 3.49016
# Velocity P-wave (km/s) = 6.27307 6.47960 6.37717
#
# Compressibility (1/GPa) = 0.02260776
#
# Stress axis : x y z
#
# Youngs Moduli (GPa) = 45.00704 66.32212 68.42051
#
# Poissons Ratio (x) = 0.28781 0.34351
# Poissons Ratio (y) = 0.19531 0.36208
# Poissons Ratio (z) = 0.22596 0.35098
#
# Static dielectric constant tensor:
#      x y z
#    x 3.602700 0.000000 0.000000 
#    y 0.000000 3.392490 0.000000 
#    z 0.000000 0.000000 3.393570 
# 
# 
# High freq. dielectric constant tensor:
#      x y z
#    x 1.739950 0.000000 0.000000 
#    y 0.000000 1.727360 0.000000 
#    z 0.000000 0.000000 1.726170 
# 
# From -- ./inp_files/16434.got.cif
#   From: 2010.03.12/outbox.cif.g09.slc.cpg/sg65_9_cif.got.tgz:16434.got - 2010.04.10 20:52:16.
