data_PCOD8273413
_publ_section_title
;
Structure prediction by ZEFSAII (Michael W. Deem and Ramdas Pophale) SiO2 
 PCOD8273413
Probable space group: C M M M
;
_chemical_formula_sum "Si O2"
_cell_formula_units_Z 88
_cell_length_a 20.599460
_cell_length_b 9.141415
_cell_length_c 25.063161
_cell_angle_alpha 90.000000
_cell_angle_beta 90.000000
_cell_angle_gamma 90.000000
_cell_volume 4719.599051
_symmetry_space_group_name_H-M "C M M M"
_symmetry_group_IT_number 65
_symmetry_cell_setting 'orthorhombic'
loop_
_space_group_symop_operation_xyz
x,y,z
-x,-y,z
x,-y,-z
-x,y,-z
-x,-y,-z
x,y,-z
-x,y,z
x,-y,z
1/2+x,1/2+y,z
1/2-x,1/2-y,z
1/2+x,1/2-y,-z
1/2-x,1/2+y,-z
1/2-x,1/2-y,-z
1/2+x,1/2+y,-z
1/2-x,1/2+y,z
1/2+x,1/2-y,z
loop_
_atom_site_type_symbol
_atom_site_label
_atom_site_fract_x
_atom_site_fract_y
_atom_site_fract_z
Si Si1 0.077164 0.162974 0.159073
Si Si2 0.922809 0.335701 0.058630
Si Si3 0.426204 0.170233 0.264293
Si Si4 0.687615 0.172928 0.655605
Si Si5 0.500000 0.163277 0.437341
Si Si6 0.870914 0.171925 0.562010
O O1 0.106861 0.236122 0.105639
O O2 0.099251 0.249281 0.211513
O O3 0.000000 0.162471 0.155534
O O4 0.105370 0.000000 0.162809
O O5 0.896629 0.500000 0.066566
O O6 0.000000 0.335941 0.062365
O O7 0.901457 0.276379 0.000000
O O8 0.500000 0.217548 0.280087
O O9 0.377443 0.211303 0.311780
O O10 0.423902 0.000000 0.251026
O O11 0.750000 0.250000 0.683466
O O12 0.683313 0.247376 0.597110
O O13 0.698508 0.000000 0.650236
O O14 0.500000 0.142192 0.500000
O O15 0.438129 0.255196 0.419403
O O16 0.500000 0.000000 0.410380
O O17 0.855838 0.201618 0.500000
O O18 0.873478 0.000000 0.574329
#
# Coordination Sequence:
#
# PCOD8273413 Si02
#       6
#    16  16  16  16   8  16
#     4   9  16  25  40  65  95 127 165 211 260 306
#     4   8  13  21  34  54  85 128 171 207 248 301
#     4   9  19  36  56  76  99 133 176 218 260 311
#     4  11  24  40  59  81 108 140 175 219 269 321
#     4   9  17  31  53  81 111 141 173 209 250 301
#     4  10  21  37  57  82 111 141 174 214 262 315
#
# _framework density 18.645651999999998
#
# number of rings (size 3 to 8) (size 9 to 14) (size 15 to 20)
#    0.000    2.636    0.000    2.455    1.273    6.545 
#    0.000    1.818    0.000    0.000    0.000    0.000 
#    0.000    0.727    0.000    2.364    0.000    4.727 
#
# Total GULP energy -545426.250105 kJ/mol
# GULP energy per Si atom -12396.051139 kJ/mol
# Density = 1.860321 g / cm^3
# Si number density = 18.645652 Si / 1000 Ang^3
#
#
#
# Elastic Constant Matrix: (Units=GPa)
#
#
# Indices 1 2 3 4 5 6 
#
# 1 66.1955 40.9576 41.6735 0.0000 0.0000 0.0000
# 2 40.9576 115.9059 70.5368 0.0000 0.0000 0.0000
# 3 41.6735 70.5368 118.3662 0.0000 0.0000 0.0000
# 4 0.0000 0.0000 0.0000 24.0028 0.0000 0.0000
# 5 0.0000 0.0000 0.0000 0.0000 4.7854 0.0000
# 6 0.0000 0.0000 0.0000 0.0000 0.0000 23.6247
#
#
#
# Elastic Compliance Matrix: (Units=1/GPa)
#
#
# Indices 1 2 3 4 5 6 
#
# 1 0.020831 -0.004547 -0.004625 0.000000 0.000000 0.000000
# 2 -0.004547 0.014529 -0.007058 0.000000 0.000000 0.000000
# 3 -0.004625 -0.007058 0.014282 0.000000 0.000000 0.000000
# 4 0.000000 0.000000 0.000000 0.041662 0.000000 0.000000
# 5 0.000000 0.000000 0.000000 0.000000 0.208970 0.000000
# 6 0.000000 0.000000 0.000000 0.000000 0.000000 0.042329
#
#
# Mechanical properties :
#
#
# Convention : Reuss Voigt Hill
#
# Bulk Modulus (GPa) = 58.18967 67.42258 62.80613
# Shear Modulus (GPa) = 13.13061 20.30255 16.71658
#
# Velocity S-wave (km/s) = 2.65659 3.30337 2.99748
# Velocity P-wave (km/s) = 6.37855 7.12658 6.76291
#
# Compressibility (1/GPa) = 0.01718518
#
# Stress axis : x y z
#
# Youngs Moduli (GPa) = 48.00425 68.82597 70.01658
#
# Poissons Ratio (x) = 0.31294 0.32380
# Poissons Ratio (y) = 0.21826 0.49415
# Poissons Ratio (z) = 0.22200 0.48574
#
# Static dielectric constant tensor:
#      x y z
#    x 3.100980 0.000000 0.000000 
#    y 0.000000 3.572290 0.000000 
#    z 0.000000 0.000000 3.530020 
# 
# 
# High freq. dielectric constant tensor:
#      x y z
#    x 1.671340 0.000000 0.000000 
#    y 0.000000 1.731650 0.000000 
#    z 0.000000 0.000000 1.725530 
# 
# From -- ./inp_files/70997.got.cif
#   From: 2010.03.12/outbox.cif.g09.slc.cpg/sg65_36_cif.got.tgz:70997.got - 2010.04.10 20:52:16.
