data_PCOD8273970
_publ_section_title
;
Structure prediction by ZEFSAII (Michael W. Deem and Ramdas Pophale) SiO2 
 PCOD8273970
Probable space group: C M M M
;
_chemical_formula_sum "Si O2"
_cell_formula_units_Z 104
_cell_length_a 27.141578
_cell_length_b 19.660309
_cell_length_c 9.280208
_cell_angle_alpha 90.000000
_cell_angle_beta 90.000000
_cell_angle_gamma 90.000000
_cell_volume 4952.028590
_symmetry_space_group_name_H-M "C M M M"
_symmetry_group_IT_number 65
_symmetry_cell_setting 'orthorhombic'
loop_
_space_group_symop_operation_xyz
x,y,z
-x,-y,z
x,-y,-z
-x,y,-z
-x,-y,-z
x,y,-z
-x,y,z
x,-y,z
1/2+x,1/2+y,z
1/2-x,1/2-y,z
1/2+x,1/2-y,-z
1/2-x,1/2+y,-z
1/2-x,1/2-y,-z
1/2+x,1/2+y,-z
1/2-x,1/2+y,z
1/2+x,1/2-y,z
loop_
_atom_site_type_symbol
_atom_site_label
_atom_site_fract_x
_atom_site_fract_y
_atom_site_fract_z
Si Si1 0.760839 0.829899 0.833179
Si Si2 0.811502 0.576192 0.335325
Si Si3 0.000000 0.576980 0.655642
Si Si4 0.444914 0.747210 0.158897
Si Si5 0.055817 0.884053 0.669342
Si Si6 0.648696 0.575336 0.164137
Si Si7 0.094155 0.387634 0.164670
O O1 0.750000 0.750000 0.803473
O O2 0.726072 0.869817 0.726349
O O3 0.815348 0.860603 0.796289
O O4 0.748566 0.846399 0.000000
O O5 0.823768 0.595489 0.500000
O O6 0.789429 0.500000 0.325701
O O7 0.860004 0.578301 0.240357
O O8 0.046919 0.590673 0.750293
O O9 0.000000 0.500000 0.611444
O O10 0.000000 0.617177 0.500000
O O11 0.500000 0.779083 0.176568
O O12 0.435395 0.693432 0.283514
O O13 0.403566 0.805445 0.171330
O O14 0.440448 0.712823 0.000000
O O15 0.062465 0.890188 0.500000
O O16 0.098651 0.927508 0.742811
O O17 0.000000 0.907575 0.713739
O O18 0.673804 0.500000 0.185826
O O19 0.632306 0.584714 0.000000
O O20 0.091667 0.413054 0.000000
#
# Coordination Sequence:
#
# PCOD8273970 Si02
#       7
#    16  16   8  16  16  16  16
#     4  10  23  44  70  99 127 160 207 266 323 380
#     4  11  25  43  62  89 127 167 207 257 319 382
#     4  11  23  37  53  79 119 161 204 259 320 381
#     4   9  18  35  56  81 116 158 204 255 308 364
#     4  10  22  38  59  92 131 169 209 254 311 378
#     4  10  22  41  66  95 129 170 213 259 316 381
#     4  11  22  37  59  86 116 159 213 264 315 376
#
# _framework density 21.001493
#
# number of rings (size 3 to 8) (size 9 to 14) (size 15 to 20)
#    0.000    1.769    0.769    2.538    2.154    8.000 
#    0.000    1.538    0.000    0.000    0.000    0.000 
#    0.000    0.000    0.000    0.000    0.000    0.000 
#
# Total GULP energy -644360.183047 kJ/mol
# GULP energy per Si atom -12391.541982 kJ/mol
# Density = 2.095369 g / cm^3
# Si number density = 21.001493 Si / 1000 Ang^3
#
#
#
# Elastic Constant Matrix: (Units=GPa)
#
#
# Indices 1 2 3 4 5 6 
#
# 1 111.9926 44.5020 72.3540 0.0000 0.0000 0.0000
# 2 44.5020 111.0725 44.5040 0.0000 0.0000 0.0000
# 3 72.3540 44.5040 143.4367 0.0000 0.0000 0.0000
# 4 0.0000 0.0000 0.0000 28.4055 0.0000 0.0000
# 5 0.0000 0.0000 0.0000 0.0000 41.4679 0.0000
# 6 0.0000 0.0000 0.0000 0.0000 0.0000 42.7762
#
#
#
# Elastic Compliance Matrix: (Units=1/GPa)
#
#
# Indices 1 2 3 4 5 6 
#
# 1 0.014185 -0.003216 -0.006158 0.000000 0.000000 0.000000
# 2 -0.003216 0.011010 -0.001794 0.000000 0.000000 0.000000
# 3 -0.006158 -0.001794 0.010634 0.000000 0.000000 0.000000
# 4 0.000000 0.000000 0.000000 0.035204 0.000000 0.000000
# 5 0.000000 0.000000 0.000000 0.000000 0.024115 0.000000
# 6 0.000000 0.000000 0.000000 0.000000 0.000000 0.023378
#
#
# Mechanical properties :
#
#
# Convention : Reuss Voigt Hill
#
# Bulk Modulus (GPa) = 74.10265 76.58019 75.34142
# Shear Modulus (GPa) = 34.39710 36.20603 35.30156
#
# Velocity S-wave (km/s) = 4.05141 4.15658 4.10433
# Velocity P-wave (km/s) = 7.56613 7.71878 7.64284
#
# Compressibility (1/GPa) = 0.01349479
#
# Stress axis : x y z
#
# Youngs Moduli (GPa) = 70.49491 90.82245 94.03438
#
# Poissons Ratio (x) = 0.29211 0.57903
# Poissons Ratio (y) = 0.22673 0.16868
# Poissons Ratio (z) = 0.43408 0.16292
#
# Static dielectric constant tensor:
#      x y z
#    x 3.400510 0.000000 0.000000 
#    y 0.000000 3.912670 0.000000 
#    z 0.000000 0.000000 3.904720 
# 
# 
# High freq. dielectric constant tensor:
#      x y z
#    x 1.815190 0.000000 0.000000 
#    y 0.000000 1.824410 0.000000 
#    z 0.000000 0.000000 1.828810 
# 
# From -- ./inp_files/16460.got.cif
#   From: 2010.03.12/outbox.cif.g09.slc.cpg/sg65_9_cif.got.tgz:16460.got - 2010.04.10 20:52:16.
