data_PCOD8273582
_publ_section_title
;
Structure prediction by ZEFSAII (Michael W. Deem and Ramdas Pophale) SiO2 
 PCOD8273582
Probable space group: C M M M
;
_chemical_formula_sum "Si O2"
_cell_formula_units_Z 88
_cell_length_a 14.221249
_cell_length_b 29.164057
_cell_length_c 10.314465
_cell_angle_alpha 90.000000
_cell_angle_beta 90.000000
_cell_angle_gamma 90.000000
_cell_volume 4277.917308
_symmetry_space_group_name_H-M "C M M M"
_symmetry_group_IT_number 65
_symmetry_cell_setting 'orthorhombic'
loop_
_space_group_symop_operation_xyz
x,y,z
-x,-y,z
x,-y,-z
-x,y,-z
-x,-y,-z
x,y,-z
-x,y,z
x,-y,z
1/2+x,1/2+y,z
1/2-x,1/2-y,z
1/2+x,1/2-y,-z
1/2-x,1/2+y,-z
1/2-x,1/2-y,-z
1/2+x,1/2+y,-z
1/2-x,1/2+y,z
1/2+x,1/2-y,z
loop_
_atom_site_type_symbol
_atom_site_label
_atom_site_fract_x
_atom_site_fract_y
_atom_site_fract_z
Si Si1 0.610563 0.209925 0.352715
Si Si2 0.391687 0.617889 0.228064
Si Si3 0.206470 0.614500 0.354622
Si Si4 0.110679 0.051001 0.000000
Si Si5 0.609390 0.720005 0.140890
Si Si6 0.892549 0.553641 0.854822
O O1 0.631268 0.225942 0.500000
O O2 0.500000 0.200800 0.333618
O O3 0.665778 0.163931 0.317486
O O4 0.651889 0.249064 0.256798
O O5 0.500000 0.612453 0.274811
O O6 0.320482 0.614688 0.348919
O O7 0.359989 0.578403 0.128271
O O8 0.374117 0.666393 0.160617
O O9 0.175945 0.600717 0.500000
O O10 0.168189 0.578139 0.253430
O O11 0.000000 0.046120 0.000000
O O12 0.157445 0.000000 0.000000
O O13 0.500000 0.730650 0.139259
O O14 0.652531 0.733647 0.000000
O O15 0.885331 0.500000 0.828802
O O16 0.000000 0.570125 0.843281
O O17 0.854584 0.565329 0.000000
#
# Coordination Sequence:
#
# PCOD8273582 Si02
#       6
#    16  16  16   8  16  16
#     4   9  19  36  56  80 114 155 197 241 292 354
#     4  10  21  38  58  83 117 153 197 250 300 352
#     4  11  24  38  56  86 122 161 203 245 293 351
#     4   9  18  36  62  85 105 139 187 238 295 352
#     4   9  17  33  57  82 111 148 193 248 303 353
#     4   9  20  40  65  92 120 151 191 242 299 358
#
# _framework density 20.570757
#
# number of rings (size 3 to 8) (size 9 to 14) (size 15 to 20)
#    0.000    2.455    0.909    1.091    1.273    4.727 
#    0.000    7.273    0.000    0.000    0.000    3.818 
#    0.000    0.000    0.000    0.000    0.000    0.000 
#
# Total GULP energy -545427.103867 kJ/mol
# GULP energy per Si atom -12396.070542 kJ/mol
# Density = 2.052394 g / cm^3
# Si number density = 20.570757 Si / 1000 Ang^3
#
#
#
# Elastic Constant Matrix: (Units=GPa)
#
#
# Indices 1 2 3 4 5 6 
#
# 1 66.9913 40.9821 43.3348 0.0000 0.0000 0.0000
# 2 40.9821 107.5844 66.5253 0.0000 0.0000 0.0000
# 3 43.3348 66.5253 128.6213 0.0000 0.0000 0.0000
# 4 0.0000 0.0000 0.0000 49.1469 0.0000 0.0000
# 5 0.0000 0.0000 0.0000 0.0000 23.4166 0.0000
# 6 0.0000 0.0000 0.0000 0.0000 0.0000 -2.0517
#
#
#
# Elastic Compliance Matrix: (Units=1/GPa)
#
#
# Indices 1 2 3 4 5 6 
#
# 1 0.020973 -0.005322 -0.004314 0.000000 0.000000 0.000000
# 2 -0.005322 0.015016 -0.005974 0.000000 0.000000 0.000000
# 3 -0.004314 -0.005974 0.012318 0.000000 0.000000 0.000000
# 4 0.000000 0.000000 0.000000 0.020347 0.000000 0.000000
# 5 0.000000 0.000000 0.000000 0.000000 0.042705 0.000000
# 6 0.000000 0.000000 0.000000 0.000000 0.000000 -0.487406
#
#
# Mechanical properties :
#
#
# Convention : Reuss Voigt Hill
#
# Bulk Modulus (GPa) = 58.51775 67.20907 62.86341
# Shear Modulus (GPa) = -14.74353 24.25935 4.75791
#
# Velocity S-wave (km/s) = -2.68007 3.43784 1.52249
# Velocity P-wave (km/s) = 4.35106 6.96429 5.80660
#
# Compressibility (1/GPa) = 0.01708883
#
# Stress axis : x y z
#
# Youngs Moduli (GPa) = 47.67929 66.59520 81.18377
#
# Poissons Ratio (x) = 0.35442 0.35020
# Poissons Ratio (y) = 0.25375 0.48495
# Poissons Ratio (z) = 0.20567 0.39781
#
# Static dielectric constant tensor:
#      x y z
#    x 3.749470 0.000000 0.000000 
#    y 0.000000 3.761080 0.000000 
#    z 0.000000 0.000000 3.770290 
# 
# 
# High freq. dielectric constant tensor:
#      x y z
#    x 1.807390 0.000000 0.000000 
#    y 0.000000 1.797990 0.000000 
#    z 0.000000 0.000000 1.798420 
# 
# From -- ./inp_files/25096.got.cif
#   From: 2010.03.12/outbox.cif.g09.slc.cpg/sg65_13_cif.got.tgz:25096.got - 2010.04.10 20:52:16.
