data_PCOD8273019
_publ_section_title
;
Structure prediction by ZEFSAII (Michael W. Deem and Ramdas Pophale) SiO2 
 PCOD8273019
Probable space group: C M M M
;
_chemical_formula_sum "Si O2"
_cell_formula_units_Z 80
_cell_length_a 8.951933
_cell_length_b 18.545804
_cell_length_c 26.090129
_cell_angle_alpha 90.000000
_cell_angle_beta 90.000000
_cell_angle_gamma 90.000000
_cell_volume 4331.503954
_symmetry_space_group_name_H-M "C M M M"
_symmetry_group_IT_number 65
_symmetry_cell_setting 'orthorhombic'
loop_
_space_group_symop_operation_xyz
x,y,z
-x,-y,z
x,-y,-z
-x,y,-z
-x,-y,-z
x,y,-z
-x,y,z
x,-y,z
1/2+x,1/2+y,z
1/2-x,1/2-y,z
1/2+x,1/2-y,-z
1/2-x,1/2+y,-z
1/2-x,1/2-y,-z
1/2+x,1/2+y,-z
1/2-x,1/2+y,z
1/2+x,1/2-y,z
loop_
_atom_site_type_symbol
_atom_site_label
_atom_site_fract_x
_atom_site_fract_y
_atom_site_fract_z
Si Si1 0.174212 0.677036 0.057261
Si Si2 0.821351 0.081191 0.335962
Si Si3 0.823018 0.827466 0.240125
Si Si4 0.167288 0.085646 0.554235
Si Si5 0.826442 0.416425 0.847853
O O1 0.250000 0.750000 0.077469
O O2 0.214105 0.612096 0.095461
O O3 0.000000 0.692496 0.056703
O O4 0.231144 0.656676 0.000000
O O5 0.763260 0.134547 0.291985
O O6 0.757755 0.109989 0.391575
O O7 0.000000 0.080216 0.338208
O O8 0.763175 0.000000 0.324213
O O9 0.750000 0.750000 0.235118
O O10 0.776435 0.876194 0.192609
O O11 0.000000 0.819110 0.240479
O O12 0.248294 0.109565 0.500000
O O13 0.000000 0.116891 0.552097
O O14 0.160689 0.000000 0.556588
O O15 0.785694 0.500000 0.846404
O O16 0.000000 0.402437 0.834885
#
# Coordination Sequence:
#
# PCOD8273019 Si02
#       5
#    16  16  16  16  16
#     4   9  18  33  53  76 102 133 166 198 235 281
#     4   8  14  25  42  65  91 119 154 196 241 288
#     4  11  22  35  51  70  96 131 168 205 246 293
#     4   7   9  15  31  57  87 115 144 184 234 283
#     4  10  21  36  54  77 103 129 161 203 247 291
#
# _framework density 18.469335000000001
#
# number of rings (size 3 to 8) (size 9 to 14) (size 15 to 20)
#    0.000    3.000    0.000    3.600    0.000    4.000 
#    0.000    2.000    0.000    0.600    0.000    4.200 
#    0.000    2.400    0.000   22.600    0.000   18.600 
#
# Total GULP energy -495536.482926 kJ/mol
# GULP energy per Si atom -12388.412073 kJ/mol
# Density = 1.842730 g / cm^3
# Si number density = 18.469335 Si / 1000 Ang^3
#
#
#
# Elastic Constant Matrix: (Units=GPa)
#
#
# Indices 1 2 3 4 5 6 
#
# 1 30.4451 28.5727 34.6518 0.0000 0.0000 0.0000
# 2 28.5727 108.5171 71.9333 0.0000 0.0000 0.0000
# 3 34.6518 71.9333 156.8758 0.0000 0.0000 0.0000
# 4 0.0000 0.0000 0.0000 11.2707 0.0000 0.0000
# 5 0.0000 0.0000 0.0000 0.0000 3.3389 0.0000
# 6 0.0000 0.0000 0.0000 0.0000 0.0000 10.6245
#
#
#
# Elastic Compliance Matrix: (Units=1/GPa)
#
#
# Indices 1 2 3 4 5 6 
#
# 1 0.048400 -0.008127 -0.006964 0.000000 0.000000 0.000000
# 2 -0.008127 0.014604 -0.004901 0.000000 0.000000 0.000000
# 3 -0.006964 -0.004901 0.010160 0.000000 0.000000 0.000000
# 4 0.000000 0.000000 0.000000 0.088726 0.000000 0.000000
# 5 0.000000 0.000000 0.000000 0.000000 0.299498 0.000000
# 6 0.000000 0.000000 0.000000 0.000000 0.000000 0.094122
#
#
# Mechanical properties :
#
#
# Convention : Reuss Voigt Hill
#
# Bulk Modulus (GPa) = 30.14000 62.90594 46.52297
# Shear Modulus (GPa) = 8.24327 15.75884 12.00106
#
# Velocity S-wave (km/s) = 2.11493 2.92420 2.55185
# Velocity P-wave (km/s) = 4.72422 6.74795 5.82465
#
# Compressibility (1/GPa) = 0.03317850
#
# Stress axis : x y z
#
# Youngs Moduli (GPa) = 20.66117 68.47449 98.42359
#
# Poissons Ratio (x) = 0.55652 0.68544
# Poissons Ratio (y) = 0.16792 0.48240
# Poissons Ratio (z) = 0.14389 0.33561
#
# Static dielectric constant tensor:
#      x y z
#    x 2.969420 0.000000 0.000000 
#    y 0.000000 3.226890 0.000000 
#    z 0.000000 0.000000 4.154770 
# 
# 
# High freq. dielectric constant tensor:
#      x y z
#    x 1.667620 0.000000 0.000000 
#    y 0.000000 1.690090 0.000000 
#    z 0.000000 0.000000 1.747340 
# 
# From -- ./inp_files/72801.got.cif
#   From: 2010.03.12/outbox.cif.g09.slc.cpg/sg65_37_cif.got.tgz:72801.got - 2010.04.10 20:52:16.
