data_PCOD8273038
_publ_section_title
;
Structure prediction by ZEFSAII (Michael W. Deem and Ramdas Pophale) SiO2 
 PCOD8273038
Probable space group: C M M M
;
_chemical_formula_sum "Si O2"
_cell_formula_units_Z 88
_cell_length_a 8.885189
_cell_length_b 19.655136
_cell_length_c 28.063128
_cell_angle_alpha 90.000000
_cell_angle_beta 90.000000
_cell_angle_gamma 90.000000
_cell_volume 4900.933398
_symmetry_space_group_name_H-M "C M M M"
_symmetry_group_IT_number 65
_symmetry_cell_setting 'orthorhombic'
loop_
_space_group_symop_operation_xyz
x,y,z
-x,-y,z
x,-y,-z
-x,y,-z
-x,-y,-z
x,y,-z
-x,y,z
x,-y,z
1/2+x,1/2+y,z
1/2-x,1/2-y,z
1/2+x,1/2-y,-z
1/2-x,1/2+y,-z
1/2-x,1/2-y,-z
1/2+x,1/2+y,-z
1/2-x,1/2+y,z
1/2+x,1/2-y,z
loop_
_atom_site_type_symbol
_atom_site_label
_atom_site_fract_x
_atom_site_fract_y
_atom_site_fract_z
Si Si1 0.826048 0.578394 0.231151
Si Si2 0.822234 0.824179 0.695488
Si Si3 0.670776 0.921251 0.121401
Si Si4 0.177828 0.675905 0.601862
Si Si5 0.175973 0.181184 0.946234
Si Si6 0.825553 0.677745 0.500000
O O1 0.789559 0.500000 0.243129
O O2 0.718172 0.626873 0.261114
O O3 0.790449 0.593911 0.176196
O O4 0.000000 0.594238 0.242754
O O5 0.750000 0.750000 0.703538
O O6 0.757437 0.860066 0.647003
O O7 0.000000 0.816009 0.691711
O O8 0.500000 0.899284 0.110443
O O9 0.782335 0.880842 0.087598
O O10 0.694353 0.000000 0.109998
O O11 0.250000 0.750000 0.599247
O O12 0.212961 0.638974 0.550260
O O13 0.000000 0.679995 0.611492
O O14 0.250000 0.250000 0.926403
O O15 0.000000 0.191952 0.945025
O O16 0.232679 0.165830 0.000000
O O17 0.750000 0.750000 0.500000
O O18 0.000000 0.694532 0.500000
#
# Coordination Sequence:
#
# PCOD8273038 Si02
#       6
#    16  16  16  16  16   8
#     4   9  19  37  57  75  98 129 165 205 250 299
#     4  11  21  32  48  72 101 132 167 205 247 294
#     4   9  19  36  57  79 102 130 165 205 249 297
#     4   9  15  25  40  61  91 124 159 199 244 291
#     4  10  21  36  54  77 106 139 172 206 245 290
#     4   8  14  22  36  58  85 120 157 194 239 291
#
# _framework density 17.955763999999999
#
# number of rings (size 3 to 8) (size 9 to 14) (size 15 to 20)
#    0.000    2.545    0.000    4.909    0.000    4.364 
#    0.000    3.636    0.000    0.000    0.000    0.636 
#    0.000    5.091    0.000    0.000    0.000    0.000 
#
# Total GULP energy -545233.431171 kJ/mol
# GULP energy per Si atom -12391.668890 kJ/mol
# Density = 1.791490 g / cm^3
# Si number density = 17.955764 Si / 1000 Ang^3
#
#
#
# Elastic Constant Matrix: (Units=GPa)
#
#
# Indices 1 2 3 4 5 6 
#
# 1 97.3358 36.0871 50.7805 0.0000 0.0000 0.0000
# 2 36.0871 58.0866 54.5148 0.0000 0.0000 0.0000
# 3 50.7805 54.5148 112.3944 0.0000 0.0000 0.0000
# 4 0.0000 0.0000 0.0000 -7.8332 0.0000 0.0000
# 5 0.0000 0.0000 0.0000 0.0000 31.4688 0.0000
# 6 0.0000 0.0000 0.0000 0.0000 0.0000 26.7416
#
#
#
# Elastic Compliance Matrix: (Units=1/GPa)
#
#
# Indices 1 2 3 4 5 6 
#
# 1 0.014236 -0.005154 -0.003932 0.000000 0.000000 0.000000
# 2 -0.005154 0.033466 -0.013904 0.000000 0.000000 0.000000
# 3 -0.003932 -0.013904 0.017417 0.000000 0.000000 0.000000
# 4 0.000000 0.000000 0.000000 -0.127662 0.000000 0.000000
# 5 0.000000 0.000000 0.000000 0.000000 0.031778 0.000000
# 6 0.000000 0.000000 0.000000 0.000000 0.000000 0.037395
#
#
# Mechanical properties :
#
#
# Convention : Reuss Voigt Hill
#
# Bulk Modulus (GPa) = 52.24549 61.17574 56.71062
# Shear Modulus (GPa) = 84.76096 18.50439 51.63267
#
# Velocity S-wave (km/s) = 6.87807 3.21371 5.36823
# Velocity P-wave (km/s) = 9.60402 6.92205 8.37114
#
# Compressibility (1/GPa) = 0.01914041
#
# Stress axis : x y z
#
# Youngs Moduli (GPa) = 70.24489 29.88071 57.41376
#
# Poissons Ratio (x) = 0.15401 0.22575
# Poissons Ratio (y) = 0.36205 0.79826
# Poissons Ratio (z) = 0.27620 0.41545
#
# Static dielectric constant tensor:
#      x y z
#    x 3.152290 0.000000 0.000000 
#    y 0.000000 2.909490 0.000000 
#    z 0.000000 0.000000 3.941140 
# 
# 
# High freq. dielectric constant tensor:
#      x y z
#    x 1.701210 0.000000 0.000000 
#    y 0.000000 1.649290 0.000000 
#    z 0.000000 0.000000 1.716550 
# 
# From -- ./inp_files/73095.got.cif
#   From: 2010.03.12/outbox.cif.g09.slc.cpg/sg65_37_cif.got.tgz:73095.got - 2010.04.10 20:52:16.
