data_PCOD8273234
_publ_section_title
;
Structure prediction by ZEFSAII (Michael W. Deem and Ramdas Pophale) SiO2 
 PCOD8273234
Probable space group: C M M M
;
_chemical_formula_sum "Si O2"
_cell_formula_units_Z 72
_cell_length_a 8.855675
_cell_length_b 15.492765
_cell_length_c 27.789412
_cell_angle_alpha 90.000000
_cell_angle_beta 90.000000
_cell_angle_gamma 90.000000
_cell_volume 3812.676527
_symmetry_space_group_name_H-M "C M M M"
_symmetry_group_IT_number 65
_symmetry_cell_setting 'orthorhombic'
loop_
_space_group_symop_operation_xyz
x,y,z
-x,-y,z
x,-y,-z
-x,y,-z
-x,-y,-z
x,y,-z
-x,y,z
x,-y,z
1/2+x,1/2+y,z
1/2-x,1/2-y,z
1/2+x,1/2-y,-z
1/2-x,1/2+y,-z
1/2-x,1/2-y,-z
1/2+x,1/2+y,-z
1/2-x,1/2+y,z
1/2+x,1/2-y,z
loop_
_atom_site_type_symbol
_atom_site_label
_atom_site_fract_x
_atom_site_fract_y
_atom_site_fract_z
Si Si1 0.175332 0.339876 0.056306
Si Si2 0.678694 0.838355 0.614593
Si Si3 0.322650 0.837740 0.276053
Si Si4 0.178830 0.000000 0.109519
Si Si5 0.678694 0.000000 0.787088
Si Si6 0.679948 0.000000 0.445716
O O1 0.250000 0.250000 0.072082
O O2 0.256653 0.415476 0.084463
O O3 0.000000 0.337819 0.070465
O O4 0.198322 0.356817 0.000000
O O5 0.500000 0.831197 0.611022
O O6 0.750000 0.750000 0.594958
O O7 0.731146 0.856029 0.669388
O O8 0.741421 0.915611 0.581666
O O9 0.500000 0.826049 0.274261
O O10 0.250000 0.750000 0.255789
O O11 0.270629 0.916533 0.242959
O O12 0.227092 0.000000 0.164536
O O13 0.000000 0.000000 0.104713
O O14 0.500000 0.000000 0.797759
O O15 0.500000 0.000000 0.445052
O O16 0.742767 0.000000 0.500000
#
# Coordination Sequence:
#
# PCOD8273234 Si02
#       6
#    16  16  16   8   8   8
#     4  10  21  39  63  88 113 144 184 228 271 316
#     4   9  17  31  51  74  98 127 168 212 255 305
#     4   9  18  33  54  76  98 129 169 215 262 309
#     4  12  25  38  55  82 116 151 184 220 267 322
#     4  10  21  37  54  73 102 139 176 215 264 317
#     4   9  17  29  47  71 100 135 170 203 245 304
#
# _framework density 18.884371999999999
#
# number of rings (size 3 to 8) (size 9 to 14) (size 15 to 20)
#    0.000    2.333    0.000    2.667    0.000    7.556 
#    0.000    2.778    0.000    6.000    0.000    0.000 
#    0.000    0.000    0.000    0.000    0.000    0.000 
#
# Total GULP energy -446483.388002 kJ/mol
# GULP energy per Si atom -12402.316333 kJ/mol
# Density = 1.884139 g / cm^3
# Si number density = 18.884372 Si / 1000 Ang^3
#
#
#
# Elastic Constant Matrix: (Units=GPa)
#
#
# Indices 1 2 3 4 5 6 
#
# 1 71.8733 66.2472 51.9737 0.0000 0.0000 0.0000
# 2 66.2472 209.3639 102.4055 0.0000 0.0000 0.0000
# 3 51.9737 102.4055 108.4011 0.0000 0.0000 0.0000
# 4 0.0000 0.0000 0.0000 12.1432 0.0000 0.0000
# 5 0.0000 0.0000 0.0000 0.0000 20.7158 0.0000
# 6 0.0000 0.0000 0.0000 0.0000 0.0000 36.4702
#
#
#
# Elastic Compliance Matrix: (Units=1/GPa)
#
#
# Indices 1 2 3 4 5 6 
#
# 1 0.022551 -0.003434 -0.007569 0.000000 0.000000 0.000000
# 2 -0.003434 0.009402 -0.007236 0.000000 0.000000 0.000000
# 3 -0.007569 -0.007236 0.019689 0.000000 0.000000 0.000000
# 4 0.000000 0.000000 0.000000 0.082350 0.000000 0.000000
# 5 0.000000 0.000000 0.000000 0.000000 0.048272 0.000000
# 6 0.000000 0.000000 0.000000 0.000000 0.000000 0.027420
#
#
# Mechanical properties :
#
#
# Convention : Reuss Voigt Hill
#
# Bulk Modulus (GPa) = 65.93401 92.32122 79.12761
# Shear Modulus (GPa) = 19.90312 25.13331 22.51822
#
# Velocity S-wave (km/s) = 3.24998 3.65212 3.45690
# Velocity P-wave (km/s) = 7.00525 8.17176 7.61089
#
# Compressibility (1/GPa) = 0.01516668
#
# Stress axis : x y z
#
# Youngs Moduli (GPa) = 44.34314 106.35977 50.78896
#
# Poissons Ratio (x) = 0.36521 0.38440
# Poissons Ratio (y) = 0.15226 0.36749
# Poissons Ratio (z) = 0.33562 0.76959
#
# Static dielectric constant tensor:
#      x y z
#    x 3.300870 0.000000 0.000000 
#    y 0.000000 3.690470 0.000000 
#    z 0.000000 0.000000 3.545610 
# 
# 
# High freq. dielectric constant tensor:
#      x y z
#    x 1.718130 0.000000 0.000000 
#    y 0.000000 1.751210 0.000000 
#    z 0.000000 0.000000 1.730720 
# 
# From -- ./inp_files/72565.got.cif
#   From: 2010.03.12/outbox.cif.g09.slc.cpg/sg65_37_cif.got.tgz:72565.got - 2010.04.10 20:52:16.
