data_PCOD8273997
_publ_section_title
;
Structure prediction by ZEFSAII (Michael W. Deem and Ramdas Pophale) SiO2 
 PCOD8273997
Probable space group: C M M M
;
_chemical_formula_sum "Si O2"
_cell_formula_units_Z 72
_cell_length_a 10.015892
_cell_length_b 26.678874
_cell_length_c 14.159641
_cell_angle_alpha 90.000000
_cell_angle_beta 90.000000
_cell_angle_gamma 90.000000
_cell_volume 3783.636195
_symmetry_space_group_name_H-M "C M M M"
_symmetry_group_IT_number 65
_symmetry_cell_setting 'orthorhombic'
loop_
_space_group_symop_operation_xyz
x,y,z
-x,-y,z
x,-y,-z
-x,y,-z
-x,-y,-z
x,y,-z
-x,y,z
x,-y,z
1/2+x,1/2+y,z
1/2-x,1/2-y,z
1/2+x,1/2-y,-z
1/2-x,1/2+y,-z
1/2-x,1/2-y,-z
1/2+x,1/2+y,-z
1/2-x,1/2+y,z
1/2+x,1/2-y,z
loop_
_atom_site_type_symbol
_atom_site_label
_atom_site_fract_x
_atom_site_fract_y
_atom_site_fract_z
Si Si1 0.500000 0.441375 0.112392
Si Si2 0.148511 0.294222 0.500000
Si Si3 0.343422 0.798773 0.706904
Si Si4 0.254732 0.102156 0.788130
Si Si5 0.500000 0.058625 0.104022
Si Si6 0.151608 0.940805 0.395610
O O1 0.500000 0.500000 0.146113
O O2 0.624396 0.410793 0.152256
O O3 0.500000 0.439050 0.000000
O O4 0.250000 0.250000 0.500000
O O5 0.169188 0.322947 0.399766
O O6 0.000000 0.270915 0.500000
O O7 0.500000 0.786360 0.728733
O O8 0.250000 0.750000 0.716959
O O9 0.286420 0.838610 0.782508
O O10 0.371851 0.073994 0.839067
O O11 0.248566 0.082638 0.681193
O O12 0.500000 0.000000 0.091585
O O13 0.500000 0.083859 0.000000
O O14 0.192834 0.921364 0.500000
O O15 0.000000 0.924239 0.372931
O O16 0.163673 0.000000 0.391943
#
# Coordination Sequence:
#
# PCOD8273997 Si02
#       6
#     8   8  16  16   8  16
#     4  11  24  42  66  94 121 156 210 266 307 357
#     4   8  16  34  56  82 117 156 202 250 293 344
#     4  10  22  39  61  88 122 162 206 254 300 357
#     4  12  22  38  63  93 122 162 205 252 308 371
#     4  11  24  42  64  90 123 160 200 256 319 371
#     4   9  18  33  54  84 124 165 204 243 291 362
#
# _framework density 19.029313999999999
#
# number of rings (size 3 to 8) (size 9 to 14) (size 15 to 20)
#    0.000    1.778    2.222    3.333    3.111    1.778 
#    0.000    0.556    0.000    6.000    0.000    0.000 
#    0.000    0.000    0.000    0.000    0.000    0.000 
#
# Total GULP energy -446085.861022 kJ/mol
# GULP energy per Si atom -12391.273917 kJ/mol
# Density = 1.898600 g / cm^3
# Si number density = 19.029314 Si / 1000 Ang^3
#
#
#
# Elastic Constant Matrix: (Units=GPa)
#
#
# Indices 1 2 3 4 5 6 
#
# 1 142.8481 50.6187 66.8879 0.0000 0.0000 0.0000
# 2 50.6187 79.0523 49.8042 0.0000 0.0000 0.0000
# 3 66.8879 49.8042 110.7742 0.0000 0.0000 0.0000
# 4 0.0000 0.0000 0.0000 10.0024 0.0000 0.0000
# 5 0.0000 0.0000 0.0000 0.0000 52.0037 0.0000
# 6 0.0000 0.0000 0.0000 0.0000 0.0000 36.6549
#
#
#
# Elastic Compliance Matrix: (Units=1/GPa)
#
#
# Indices 1 2 3 4 5 6 
#
# 1 0.010525 -0.003817 -0.004639 0.000000 0.000000 0.000000
# 2 -0.003817 0.019033 -0.006253 0.000000 0.000000 0.000000
# 3 -0.004639 -0.006253 0.014640 0.000000 0.000000 0.000000
# 4 0.000000 0.000000 0.000000 0.099976 0.000000 0.000000
# 5 0.000000 0.000000 0.000000 0.000000 0.019229 0.000000
# 6 0.000000 0.000000 0.000000 0.000000 0.000000 0.027281
#
#
# Mechanical properties :
#
#
# Convention : Reuss Voigt Hill
#
# Bulk Modulus (GPa) = 67.65552 74.14401 70.89977
# Shear Modulus (GPa) = 22.21926 30.75643 26.48785
#
# Velocity S-wave (km/s) = 3.42077 4.02464 3.73493
# Velocity P-wave (km/s) = 7.15770 7.78747 7.47922
#
# Compressibility (1/GPa) = 0.01478076
#
# Stress axis : x y z
#
# Youngs Moduli (GPa) = 95.00952 52.54027 68.30596
#
# Poissons Ratio (x) = 0.20053 0.31690
# Poissons Ratio (y) = 0.36261 0.42710
# Poissons Ratio (z) = 0.44079 0.32852
#
# Static dielectric constant tensor:
#      x y z
#    x 3.462510 0.000000 0.000000 
#    y 0.000000 3.256080 0.000000 
#    z 0.000000 0.000000 4.008260 
# 
# 
# High freq. dielectric constant tensor:
#      x y z
#    x 1.748800 0.000000 0.000000 
#    y 0.000000 1.715960 0.000000 
#    z 0.000000 0.000000 1.747670 
# 
# From -- ./inp_files/36647.got.cif
#   From: 2010.03.12/outbox.cif.g09.slc.cpg/sg65_19_cif.got.tgz:36647.got - 2010.04.10 20:52:16.
