data_PCOD8273165
_publ_section_title
;
Structure prediction by ZEFSAII (Michael W. Deem and Ramdas Pophale) SiO2 
 PCOD8273165
Probable space group: C M M M
;
_chemical_formula_sum "Si O2"
_cell_formula_units_Z 96
_cell_length_a 18.723672
_cell_length_b 8.824800
_cell_length_c 30.332493
_cell_angle_alpha 90.000000
_cell_angle_beta 90.000000
_cell_angle_gamma 90.000000
_cell_volume 5011.918523
_symmetry_space_group_name_H-M "C M M M"
_symmetry_group_IT_number 65
_symmetry_cell_setting 'orthorhombic'
loop_
_space_group_symop_operation_xyz
x,y,z
-x,-y,z
x,-y,-z
-x,y,-z
-x,-y,-z
x,y,-z
-x,y,z
x,-y,z
1/2+x,1/2+y,z
1/2-x,1/2-y,z
1/2+x,1/2-y,-z
1/2-x,1/2+y,-z
1/2-x,1/2-y,-z
1/2+x,1/2+y,-z
1/2-x,1/2+y,z
1/2+x,1/2-y,z
loop_
_atom_site_type_symbol
_atom_site_label
_atom_site_fract_x
_atom_site_fract_y
_atom_site_fract_z
Si Si1 0.827782 0.180280 0.870169
Si Si2 0.420184 0.679942 0.048921
Si Si3 0.677887 0.675803 0.618298
Si Si4 0.915813 0.670883 0.450956
Si Si5 0.916121 0.322723 0.208183
Si Si6 0.174902 0.180150 0.281445
O O1 0.750000 0.250000 0.865623
O O2 0.863682 0.241261 0.915438
O O3 0.877010 0.233900 0.830512
O O4 0.821918 0.000000 0.869090
O O5 0.500000 0.740860 0.059942
O O6 0.421661 0.500000 0.050276
O O7 0.397175 0.735905 0.000000
O O8 0.690766 0.500000 0.617517
O O9 0.750000 0.750000 0.600354
O O10 0.614156 0.717805 0.585845
O O11 0.660393 0.728369 0.668025
O O12 0.890203 0.719805 0.500000
O O13 0.890077 0.500000 0.441162
O O14 0.000000 0.681455 0.448275
O O15 0.898020 0.500000 0.205429
O O16 0.889156 0.255059 0.254319
O O17 0.000000 0.291901 0.204423
O O18 0.250000 0.250000 0.265063
O O19 0.176268 0.000000 0.274448
#
# Coordination Sequence:
#
# PCOD8273165 Si02
#       6
#    16  16  16  16  16  16
#     4  11  22  36  56  81 111 147 184 224 271 320
#     4   8  15  30  53  80 108 140 181 226 270 318
#     4  10  21  36  56  82 110 142 179 221 268 318
#     4   9  19  36  56  78 107 144 183 223 269 320
#     4  11  24  40  58  81 109 141 179 223 270 322
#     4  10  21  38  59  82 110 142 178 220 267 321
#
# _framework density 19.154342
#
# number of rings (size 3 to 8) (size 9 to 14) (size 15 to 20)
#    0.000    2.167    0.000    4.000    0.000    6.000 
#    0.000    4.167    0.000    1.500    0.000    5.833 
#    0.000    0.000    0.000    0.000    0.000    0.000 
#
# Total GULP energy -595233.237197 kJ/mol
# GULP energy per Si atom -12400.692442 kJ/mol
# Density = 1.911075 g / cm^3
# Si number density = 19.154342 Si / 1000 Ang^3
#
#
#
# Elastic Constant Matrix: (Units=GPa)
#
#
# Indices 1 2 3 4 5 6 
#
# 1 103.6372 40.6255 64.6374 0.0000 0.0000 0.0000
# 2 40.6255 66.8746 39.7471 0.0000 0.0000 0.0000
# 3 64.6374 39.7471 121.6512 0.0000 0.0000 0.0000
# 4 0.0000 0.0000 0.0000 20.1442 0.0000 0.0000
# 5 0.0000 0.0000 0.0000 0.0000 35.4944 0.0000
# 6 0.0000 0.0000 0.0000 0.0000 0.0000 26.6401
#
#
#
# Elastic Compliance Matrix: (Units=1/GPa)
#
#
# Indices 1 2 3 4 5 6 
#
# 1 0.016069 -0.005817 -0.006637 0.000000 0.000000 0.000000
# 2 -0.005817 0.020663 -0.003660 0.000000 0.000000 0.000000
# 3 -0.006637 -0.003660 0.012943 0.000000 0.000000 0.000000
# 4 0.000000 0.000000 0.000000 0.049642 0.000000 0.000000
# 5 0.000000 0.000000 0.000000 0.000000 0.028173 0.000000
# 6 0.000000 0.000000 0.000000 0.000000 0.000000 0.037537
#
#
# Mechanical properties :
#
#
# Convention : Reuss Voigt Hill
#
# Bulk Modulus (GPa) = 57.32260 64.68699 61.00479
# Shear Modulus (GPa) = 24.62187 26.26594 25.44390
#
# Velocity S-wave (km/s) = 3.58920 3.70710 3.64862
# Velocity P-wave (km/s) = 6.86791 7.22275 7.04756
#
# Compressibility (1/GPa) = 0.01744513
#
# Stress axis : x y z
#
# Youngs Moduli (GPa) = 62.23211 48.39678 77.26232
#
# Poissons Ratio (x) = 0.28151 0.51283
# Poissons Ratio (y) = 0.36198 0.28282
# Poissons Ratio (z) = 0.41306 0.17716
#
# Static dielectric constant tensor:
#      x y z
#    x 3.510930 0.000000 0.000000 
#    y 0.000000 3.452780 0.000000 
#    z 0.000000 0.000000 3.803210 
# 
# 
# High freq. dielectric constant tensor:
#      x y z
#    x 1.744020 0.000000 0.000000 
#    y 0.000000 1.736580 0.000000 
#    z 0.000000 0.000000 1.758360 
# 
# From -- ./inp_files/75389.got.cif
#   From: 2010.03.12/outbox.cif.g09.slc.cpg/sg65_38_cif.got.tgz:75389.got - 2010.04.10 20:52:16.
