data_PCOD8273381
_publ_section_title
;
Structure prediction by ZEFSAII (Michael W. Deem and Ramdas Pophale) SiO2 
 PCOD8273381
Probable space group: C M M M
;
_chemical_formula_sum "Si O2"
_cell_formula_units_Z 104
_cell_length_a 18.711062
_cell_length_b 8.977308
_cell_length_c 32.417040
_cell_angle_alpha 90.000000
_cell_angle_beta 90.000000
_cell_angle_gamma 90.000000
_cell_volume 5445.251211
_symmetry_space_group_name_H-M "C M M M"
_symmetry_group_IT_number 65
_symmetry_cell_setting 'orthorhombic'
loop_
_space_group_symop_operation_xyz
x,y,z
-x,-y,z
x,-y,-z
-x,y,-z
-x,-y,-z
x,y,-z
-x,y,z
x,-y,z
1/2+x,1/2+y,z
1/2-x,1/2-y,z
1/2+x,1/2-y,-z
1/2-x,1/2+y,-z
1/2-x,1/2-y,-z
1/2+x,1/2+y,-z
1/2-x,1/2+y,z
1/2+x,1/2-y,z
loop_
_atom_site_type_symbol
_atom_site_label
_atom_site_fract_x
_atom_site_fract_y
_atom_site_fract_z
Si Si1 0.823081 0.174194 0.260836
Si Si2 0.823211 0.173749 0.356386
Si Si3 0.326992 0.824358 0.500000
Si Si4 0.582352 0.825283 0.578847
Si Si5 0.084638 0.330501 0.195515
Si Si6 0.915355 0.169562 0.886640
Si Si7 0.676595 0.174033 0.047723
O O1 0.750000 0.250000 0.246007
O O2 0.837784 0.208540 0.308632
O O3 0.887746 0.244781 0.235584
O O4 0.818169 0.000000 0.251862
O O5 0.750000 0.250000 0.371580
O O6 0.890182 0.239076 0.380998
O O7 0.815680 0.000000 0.365262
O O8 0.250000 0.750000 0.500000
O O9 0.371613 0.772075 0.460261
O O10 0.316294 0.000000 0.500000
O O11 0.500000 0.783010 0.570957
O O12 0.591136 0.000000 0.586677
O O13 0.112350 0.500000 0.195433
O O14 0.113816 0.249995 0.154444
O O15 0.000000 0.323415 0.197225
O O16 0.887550 0.255057 0.926676
O O17 0.000000 0.176947 0.888412
O O18 0.887756 0.000000 0.886515
O O19 0.750000 0.250000 0.061828
O O20 0.681947 0.000000 0.056967
O O21 0.660433 0.206999 0.000000
#
# Coordination Sequence:
#
# PCOD8273381 Si02
#       7
#    16  16   8  16  16  16  16
#     4  10  21  37  57  81 110 143 181 225 271 321
#     4  10  21  37  57  81 110 144 182 225 271 322
#     4  10  21  37  57  81 109 144 185 226 272 324
#     4  10  21  37  57  81 111 146 183 225 272 323
#     4  10  21  37  57  81 110 143 180 223 270 322
#     4  10  21  37  57  81 110 144 182 224 270 322
#     4  10  21  37  57  81 110 143 180 224 272 322
#
# _framework density 19.099211
#
# number of rings (size 3 to 8) (size 9 to 14) (size 15 to 20)
#    0.000    2.000    0.000    3.000    0.000    9.231 
#    0.000    7.692    0.000    1.385    0.000    0.000 
#    0.000    0.000    0.000    0.000    0.000    0.000 
#
# Total GULP energy -645083.606534 kJ/mol
# GULP energy per Si atom -12405.453972 kJ/mol
# Density = 1.905574 g / cm^3
# Si number density = 19.099211 Si / 1000 Ang^3
#
#
#
# Elastic Constant Matrix: (Units=GPa)
#
#
# Indices 1 2 3 4 5 6 
#
# 1 79.7127 47.2947 53.3018 0.0000 0.0000 0.0000
# 2 47.2947 116.0098 62.4847 0.0000 0.0000 0.0000
# 3 53.3018 62.4847 101.7041 0.0000 0.0000 0.0000
# 4 0.0000 0.0000 0.0000 34.4241 0.0000 0.0000
# 5 0.0000 0.0000 0.0000 0.0000 30.8912 0.0000
# 6 0.0000 0.0000 0.0000 0.0000 0.0000 37.0321
#
#
#
# Elastic Compliance Matrix: (Units=1/GPa)
#
#
# Indices 1 2 3 4 5 6 
#
# 1 0.020387 -0.003821 -0.008337 0.000000 0.000000 0.000000
# 2 -0.003821 0.013599 -0.006353 0.000000 0.000000 0.000000
# 3 -0.008337 -0.006353 0.018105 0.000000 0.000000 0.000000
# 4 0.000000 0.000000 0.000000 0.029049 0.000000 0.000000
# 5 0.000000 0.000000 0.000000 0.000000 0.032372 0.000000
# 6 0.000000 0.000000 0.000000 0.000000 0.000000 0.027004
#
#
# Mechanical properties :
#
#
# Convention : Reuss Voigt Hill
#
# Bulk Modulus (GPa) = 66.35801 69.28766 67.82284
# Shear Modulus (GPa) = 27.38835 29.42586 28.40710
#
# Velocity S-wave (km/s) = 3.79093 3.92941 3.86079
# Velocity P-wave (km/s) = 7.34717 7.54610 7.44730
#
# Compressibility (1/GPa) = 0.01506977
#
# Stress axis : x y z
#
# Youngs Moduli (GPa) = 49.05160 73.53344 55.23432
#
# Poissons Ratio (x) = 0.28095 0.46049
# Poissons Ratio (y) = 0.18742 0.35088
# Poissons Ratio (z) = 0.40894 0.46713
#
# Static dielectric constant tensor:
#      x y z
#    x 3.376090 0.000000 0.000000 
#    y 0.000000 3.642680 0.000000 
#    z 0.000000 0.000000 3.539440 
# 
# 
# High freq. dielectric constant tensor:
#      x y z
#    x 1.738390 0.000000 0.000000 
#    y 0.000000 1.754830 0.000000 
#    z 0.000000 0.000000 1.749890 
# 
# From -- ./inp_files/75472.got.cif
#   From: 2010.03.12/outbox.cif.g09.slc.cpg/sg65_38_cif.got.tgz:75472.got - 2010.04.10 20:52:16.
