data_PCOD8273945
_publ_section_title
;
Structure prediction by ZEFSAII (Michael W. Deem and Ramdas Pophale) SiO2 
 PCOD8273945
Probable space group: C M M M
;
_chemical_formula_sum "Si O2"
_cell_formula_units_Z 88
_cell_length_a 9.870387
_cell_length_b 29.628325
_cell_length_c 17.206713
_cell_angle_alpha 90.000000
_cell_angle_beta 90.000000
_cell_angle_gamma 90.000000
_cell_volume 5031.983353
_symmetry_space_group_name_H-M "C M M M"
_symmetry_group_IT_number 65
_symmetry_cell_setting 'orthorhombic'
loop_
_space_group_symop_operation_xyz
x,y,z
-x,-y,z
x,-y,-z
-x,y,-z
-x,-y,-z
x,y,-z
-x,y,z
x,-y,z
1/2+x,1/2+y,z
1/2-x,1/2-y,z
1/2+x,1/2-y,-z
1/2-x,1/2+y,-z
1/2-x,1/2-y,-z
1/2+x,1/2+y,-z
1/2-x,1/2+y,z
1/2+x,1/2-y,z
loop_
_atom_site_type_symbol
_atom_site_label
_atom_site_fract_x
_atom_site_fract_y
_atom_site_fract_z
Si Si1 0.156544 0.129885 0.122196
Si Si2 0.842510 0.205595 0.000000
Si Si3 0.152299 0.550076 0.880365
Si Si4 0.655924 0.627204 0.698121
Si Si5 0.650857 0.950206 0.696055
Si Si6 0.344947 0.291180 0.588555
O O1 0.191322 0.175668 0.076054
O O2 0.244937 0.088252 0.088302
O O3 0.190104 0.138853 0.212498
O O4 0.000000 0.116613 0.109645
O O5 0.750000 0.250000 0.000000
O O6 0.000000 0.220431 0.000000
O O7 0.193199 0.500000 0.911631
O O8 0.157872 0.549048 0.788269
O O9 0.000000 0.561928 0.908580
O O10 0.500000 0.614025 0.687889
O O11 0.741379 0.585474 0.664238
O O12 0.697455 0.669319 0.646156
O O13 0.500000 0.936315 0.668723
O O14 0.687183 0.000000 0.663737
O O15 0.321025 0.307065 0.500000
O O16 0.500000 0.276372 0.601692
O O17 0.250000 0.250000 0.610978
#
# Coordination Sequence:
#
# PCOD8273945 Si02
#       6
#    16   8  16  16  16  16
#     4   9  18  32  48  67  91 118 151 187 221 262
#     4  10  22  38  51  64  87 119 152 189 231 268
#     4   8  14  26  45  69  95 120 147 181 221 264
#     4   9  17  29  47  70  92 116 149 186 220 260
#     4   8  14  25  42  66  95 123 150 182 219 258
#     4   9  18  32  48  67  92 118 144 180 227 273
#
# _framework density 17.488135
#
# number of rings (size 3 to 8) (size 9 to 14) (size 15 to 20)
#    0.000    3.273    0.000    1.091    0.000    2.909 
#    0.000    4.091    0.000    3.273    0.000    3.818 
#    0.000    0.000    0.000    0.000    0.000    0.000 
#
# Total GULP energy -545388.156648 kJ/mol
# GULP energy per Si atom -12395.185378 kJ/mol
# Density = 1.744833 g / cm^3
# Si number density = 17.488135 Si / 1000 Ang^3
#
#
#
# Elastic Constant Matrix: (Units=GPa)
#
#
# Indices 1 2 3 4 5 6 
#
# 1 102.1806 103.3163 40.1865 0.0000 0.0000 0.0000
# 2 103.3163 165.0868 56.3471 0.0000 0.0000 0.0000
# 3 40.1865 56.3471 56.7615 0.0000 0.0000 0.0000
# 4 0.0000 0.0000 0.0000 -21.6576 0.0000 0.0000
# 5 0.0000 0.0000 0.0000 0.0000 12.3370 0.0000
# 6 0.0000 0.0000 0.0000 0.0000 0.0000 43.0059
#
#
#
# Elastic Compliance Matrix: (Units=1/GPa)
#
#
# Indices 1 2 3 4 5 6 
#
# 1 0.027118 -0.015757 -0.003557 0.000000 0.000000 0.000000
# 2 -0.015757 0.018317 -0.007028 0.000000 0.000000 0.000000
# 3 -0.003557 -0.007028 0.027112 0.000000 0.000000 0.000000
# 4 0.000000 0.000000 0.000000 -0.046173 0.000000 0.000000
# 5 0.000000 0.000000 0.000000 0.000000 0.081057 0.000000
# 6 0.000000 0.000000 0.000000 0.000000 0.000000 0.023253
#
#
# Mechanical properties :
#
#
# Convention : Reuss Voigt Hill
#
# Bulk Modulus (GPa) = 50.34314 80.41433 65.37873
# Shear Modulus (GPa) = 26.31739 15.01566 20.66652
#
# Velocity S-wave (km/s) = 3.88348 2.93340 3.44138
# Velocity P-wave (km/s) = 6.99700 7.58651 7.29771
#
# Compressibility (1/GPa) = 0.01986368
#
# Stress axis : x y z
#
# Youngs Moduli (GPa) = 36.87647 54.59326 36.88339
#
# Poissons Ratio (x) = 0.86022 0.13120
# Poissons Ratio (y) = 0.58106 0.25921
# Poissons Ratio (z) = 0.13117 0.38367
#
# Static dielectric constant tensor:
#      x y z
#    x 3.395690 0.000000 0.000000 
#    y 0.000000 3.400220 0.000000 
#    z 0.000000 0.000000 3.045770 
# 
# 
# High freq. dielectric constant tensor:
#      x y z
#    x 1.677350 0.000000 0.000000 
#    y 0.000000 1.672030 0.000000 
#    z 0.000000 0.000000 1.652080 
# 
# From -- ./inp_files/50327.got.cif
#   From: 2010.03.12/outbox.cif.g09.slc.cpg/sg65_26_cif.got.tgz:50327.got - 2010.04.10 20:52:16.
