data_PCOD8273452
_publ_section_title
;
Structure prediction by ZEFSAII (Michael W. Deem and Ramdas Pophale) SiO2 
 PCOD8273452
Probable space group: C M M M
;
_chemical_formula_sum "Si O2"
_cell_formula_units_Z 104
_cell_length_a 8.767369
_cell_length_b 27.894062
_cell_length_c 21.445095
_cell_angle_alpha 90.000000
_cell_angle_beta 90.000000
_cell_angle_gamma 90.000000
_cell_volume 5244.559560
_symmetry_space_group_name_H-M "C M M M"
_symmetry_group_IT_number 65
_symmetry_cell_setting 'orthorhombic'
loop_
_space_group_symop_operation_xyz
x,y,z
-x,-y,z
x,-y,-z
-x,y,-z
-x,-y,-z
x,y,-z
-x,y,z
x,-y,z
1/2+x,1/2+y,z
1/2-x,1/2-y,z
1/2+x,1/2-y,-z
1/2-x,1/2+y,-z
1/2-x,1/2-y,-z
1/2+x,1/2+y,-z
1/2-x,1/2+y,z
1/2+x,1/2-y,z
loop_
_atom_site_type_symbol
_atom_site_label
_atom_site_fract_x
_atom_site_fract_y
_atom_site_fract_z
Si Si1 0.821125 0.609861 0.252457
Si Si2 0.320214 0.147892 0.070865
Si Si3 0.679592 0.601903 0.619570
Si Si4 0.319014 0.698643 0.185508
Si Si5 0.821700 0.797264 0.569923
Si Si6 0.170886 0.556401 0.500000
Si Si7 0.821374 0.447492 0.131544
O O1 0.760264 0.586687 0.316467
O O2 0.737823 0.659635 0.235640
O O3 0.782184 0.569850 0.201122
O O4 0.000000 0.620310 0.256509
O O5 0.500000 0.151588 0.085684
O O6 0.233380 0.184647 0.115671
O O7 0.262882 0.093208 0.083339
O O8 0.282402 0.161926 0.000000
O O9 0.500000 0.593390 0.624173
O O10 0.723456 0.657449 0.611012
O O11 0.740281 0.571916 0.561648
O O12 0.500000 0.701568 0.188055
O O13 0.250000 0.750000 0.203621
O O14 0.755935 0.804815 0.500000
O O15 0.750000 0.750000 0.601205
O O16 0.000000 0.790264 0.566997
O O17 0.163087 0.500000 0.500000
O O18 0.000000 0.578216 0.500000
O O19 0.744786 0.500000 0.119418
O O20 0.000000 0.453343 0.122794
#
# Coordination Sequence:
#
# PCOD8273452 Si02
#       7
#    16  16  16  16  16   8  16
#     4  10  21  37  57  84 115 148 189 235 282 337
#     4   9  18  33  54  83 117 150 188 234 283 339
#     4  11  22  39  60  84 115 149 187 233 288 346
#     4  11  22  38  59  82 112 152 195 239 285 335
#     4   9  18  33  52  77 106 137 171 211 260 322
#     4  11  25  43  62  85 112 147 194 243 292 349
#     4   8  15  30  53  80 110 144 183 230 279 327
#
# _framework density 19.830072999999999
#
# number of rings (size 3 to 8) (size 9 to 14) (size 15 to 20)
#    0.000    2.231    0.769    3.462    0.000    4.000 
#    0.000    4.615    0.000   11.077    0.000    4.308 
#    0.000    0.000    0.000    0.000    0.000    0.000 
#
# Total GULP energy -644716.721089 kJ/mol
# GULP energy per Si atom -12398.398482 kJ/mol
# Density = 1.978494 g / cm^3
# Si number density = 19.830073 Si / 1000 Ang^3
#
#
#
# Elastic Constant Matrix: (Units=GPa)
#
#
# Indices 1 2 3 4 5 6 
#
# 1 82.7061 26.8910 31.3914 0.0000 0.0000 0.0000
# 2 26.8910 70.5504 2.2955 0.0000 0.0000 0.0000
# 3 31.3914 2.2955 96.4144 0.0000 0.0000 0.0000
# 4 0.0000 0.0000 0.0000 12.8438 0.0000 0.0000
# 5 0.0000 0.0000 0.0000 0.0000 32.0657 0.0000
# 6 0.0000 0.0000 0.0000 0.0000 0.0000 24.5740
#
#
#
# Elastic Compliance Matrix: (Units=1/GPa)
#
#
# Indices 1 2 3 4 5 6 
#
# 1 0.015926 -0.005906 -0.005045 0.000000 0.000000 0.000000
# 2 -0.005906 0.016376 0.001533 0.000000 0.000000 0.000000
# 3 -0.005045 0.001533 0.011978 0.000000 0.000000 0.000000
# 4 0.000000 0.000000 0.000000 0.077859 0.000000 0.000000
# 5 0.000000 0.000000 0.000000 0.000000 0.031186 0.000000
# 6 0.000000 0.000000 0.000000 0.000000 0.000000 0.040693
#
#
# Mechanical properties :
#
#
# Convention : Reuss Voigt Hill
#
# Bulk Modulus (GPa) = 39.30217 41.20296 40.25257
# Shear Modulus (GPa) = 22.59020 26.50288 24.54654
#
# Velocity S-wave (km/s) = 3.37885 3.65978 3.52212
# Velocity P-wave (km/s) = 5.92323 6.21947 6.07316
#
# Compressibility (1/GPa) = 0.02544389
#
# Stress axis : x y z
#
# Youngs Moduli (GPa) = 62.78999 61.06643 83.48711
#
# Poissons Ratio (x) = 0.36067 0.42117
# Poissons Ratio (y) = 0.37085 -0.12800
# Poissons Ratio (z) = 0.31676 -0.09362
#
# Static dielectric constant tensor:
#      x y z
#    x 3.479060 0.000000 0.000000 
#    y 0.000000 3.687030 0.000000 
#    z 0.000000 0.000000 3.592740 
# 
# 
# High freq. dielectric constant tensor:
#      x y z
#    x 1.758910 0.000000 0.000000 
#    y 0.000000 1.775170 0.000000 
#    z 0.000000 0.000000 1.772050 
# 
# From -- ./inp_files/60447.got.cif
#   From: 2010.03.12/outbox.cif.g09.slc.cpg/sg65_31_cif.got.tgz:60447.got - 2010.04.10 20:52:16.
