data_PCOD8273942
_publ_section_title
;
Structure prediction by ZEFSAII (Michael W. Deem and Ramdas Pophale) SiO2 
 PCOD8273942
Probable space group: C M M M
;
_chemical_formula_sum "Si O2"
_cell_formula_units_Z 88
_cell_length_a 21.374742
_cell_length_b 8.272238
_cell_length_c 26.440464
_cell_angle_alpha 90.000000
_cell_angle_beta 90.000000
_cell_angle_gamma 90.000000
_cell_volume 4675.122281
_symmetry_space_group_name_H-M "C M M M"
_symmetry_group_IT_number 65
_symmetry_cell_setting 'orthorhombic'
loop_
_space_group_symop_operation_xyz
x,y,z
-x,-y,z
x,-y,-z
-x,y,-z
-x,-y,-z
x,y,-z
-x,y,z
x,-y,z
1/2+x,1/2+y,z
1/2-x,1/2-y,z
1/2+x,1/2-y,-z
1/2-x,1/2+y,-z
1/2-x,1/2-y,-z
1/2+x,1/2+y,-z
1/2-x,1/2+y,z
1/2+x,1/2-y,z
loop_
_atom_site_type_symbol
_atom_site_label
_atom_site_fract_x
_atom_site_fract_y
_atom_site_fract_z
Si Si1 0.181623 0.687444 0.201277
Si Si2 0.317801 0.690300 0.000000
Si Si3 0.877844 0.809936 0.100021
Si Si4 0.574336 0.000000 0.558093
Si Si5 0.572901 0.320668 0.387221
Si Si6 0.929058 0.186693 0.730577
Si Si7 0.000000 0.313051 0.942004
O O1 0.188755 0.500000 0.193012
O O2 0.250000 0.750000 0.219701
O O3 0.162868 0.764804 0.148310
O O4 0.125799 0.718944 0.240903
O O5 0.250000 0.750000 0.000000
O O6 0.347294 0.765604 0.949989
O O7 0.324283 0.500000 0.000000
O O8 0.946116 0.736443 0.096966
O O9 0.882872 0.000000 0.097864
O O10 0.602227 0.166273 0.582839
O O11 0.500000 0.000000 0.565291
O O12 0.594701 0.000000 0.500000
O O13 0.500000 0.328387 0.399549
O O14 0.601046 0.500000 0.402309
O O15 0.584490 0.289024 0.328367
O O16 0.000000 0.249900 0.743367
O O17 0.924849 0.000000 0.746283
O O18 0.000000 0.500000 0.952008
O O19 0.000000 0.232680 0.000000
#
# Coordination Sequence:
#
# PCOD8273942 Si02
#       7
#    16   8  16   8  16  16   8
#     4  12  26  42  60  85 117 151 189 240 293 348
#     4  10  22  37  58  81 101 136 178 216 269 340
#     4  11  23  41  61  82 111 146 182 225 281 339
#     4   9  16  24  40  70 110 154 196 237 286 342
#     4   8  15  28  46  70 105 148 193 239 287 341
#     4   9  19  37  60  84 111 151 196 240 292 348
#     4  11  23  39  61  89 115 143 181 229 273 330
#
# _framework density 18.823038
#
# number of rings (size 3 to 8) (size 9 to 14) (size 15 to 20)
#    0.000    2.000    0.909    4.091    2.545    4.000 
#    0.000    1.818    0.000    0.000    0.000    0.000 
#    0.000    0.727    0.364    0.000    0.000    0.000 
#
# Total GULP energy -545085.997347 kJ/mol
# GULP energy per Si atom -12388.318122 kJ/mol
# Density = 1.878020 g / cm^3
# Si number density = 18.823038 Si / 1000 Ang^3
#
#
#
# Elastic Constant Matrix: (Units=GPa)
#
#
# Indices 1 2 3 4 5 6 
#
# 1 103.2270 24.6862 31.0191 0.0000 0.0000 0.0000
# 2 24.6862 94.2632 37.6555 0.0000 0.0000 0.0000
# 3 31.0191 37.6555 82.7976 0.0000 0.0000 0.0000
# 4 0.0000 0.0000 0.0000 38.8919 0.0000 0.0000
# 5 0.0000 0.0000 0.0000 0.0000 1.6724 0.0000
# 6 0.0000 0.0000 0.0000 0.0000 0.0000 25.7826
#
#
#
# Elastic Compliance Matrix: (Units=1/GPa)
#
#
# Indices 1 2 3 4 5 6 
#
# 1 0.011092 -0.001521 -0.003464 0.000000 0.000000 0.000000
# 2 -0.001521 0.013172 -0.005421 0.000000 0.000000 0.000000
# 3 -0.003464 -0.005421 0.015841 0.000000 0.000000 0.000000
# 4 0.000000 0.000000 0.000000 0.025712 0.000000 0.000000
# 5 0.000000 0.000000 0.000000 0.000000 0.597941 0.000000
# 6 0.000000 0.000000 0.000000 0.000000 0.000000 0.038786
#
#
# Mechanical properties :
#
#
# Convention : Reuss Voigt Hill
#
# Bulk Modulus (GPa) = 51.83036 51.88994 51.86015
# Shear Modulus (GPa) = 6.85132 25.73118 16.29125
#
# Velocity S-wave (km/s) = 1.90991 3.70131 2.94512
# Velocity P-wave (km/s) = 5.69728 6.77447 6.25909
#
# Compressibility (1/GPa) = 0.01929371
#
# Stress axis : x y z
#
# Youngs Moduli (GPa) = 90.15526 75.91608 63.12896
#
# Poissons Ratio (x) = 0.11548 0.21866
# Poissons Ratio (y) = 0.13714 0.34221
# Poissons Ratio (z) = 0.31227 0.41153
#
# Static dielectric constant tensor:
#      x y z
#    x 3.343160 0.000000 0.000000 
#    y 0.000000 3.554320 0.000000 
#    z 0.000000 0.000000 3.469150 
# 
# 
# High freq. dielectric constant tensor:
#      x y z
#    x 1.701470 0.000000 0.000000 
#    y 0.000000 1.742950 0.000000 
#    z 0.000000 0.000000 1.724610 
# 
# From -- ./inp_files/71068.got.cif
#   From: 2010.03.12/outbox.cif.g09.slc.cpg/sg65_36_cif.got.tgz:71068.got - 2010.04.10 20:52:16.
