data_PCOD8273775
_publ_section_title
;
Structure prediction by ZEFSAII (Michael W. Deem and Ramdas Pophale) SiO2 
 PCOD8273775
Probable space group: C M M M
;
_chemical_formula_sum "Si O2"
_cell_formula_units_Z 72
_cell_length_a 8.708527
_cell_length_b 15.147653
_cell_length_c 26.933406
_cell_angle_alpha 90.000000
_cell_angle_beta 90.000000
_cell_angle_gamma 90.000000
_cell_volume 3552.886455
_symmetry_space_group_name_H-M "C M M M"
_symmetry_group_IT_number 65
_symmetry_cell_setting 'orthorhombic'
loop_
_space_group_symop_operation_xyz
x,y,z
-x,-y,z
x,-y,-z
-x,y,-z
-x,-y,-z
x,y,-z
-x,y,z
x,-y,z
1/2+x,1/2+y,z
1/2-x,1/2-y,z
1/2+x,1/2-y,-z
1/2-x,1/2+y,-z
1/2-x,1/2-y,-z
1/2+x,1/2+y,-z
1/2-x,1/2+y,z
1/2+x,1/2-y,z
loop_
_atom_site_type_symbol
_atom_site_label
_atom_site_fract_x
_atom_site_fract_y
_atom_site_fract_z
Si Si1 0.676903 0.500000 0.767836
Si Si2 0.824257 0.000000 0.114998
Si Si3 0.678832 0.654698 0.500000
Si Si4 0.819217 0.342839 0.943704
Si Si5 0.318387 0.652940 0.394063
Si Si6 0.181933 0.652019 0.705652
O O1 0.500000 0.500000 0.750887
O O2 0.693967 0.500000 0.826442
O O3 0.759063 0.411518 0.748828
O O4 0.743192 0.914220 0.093919
O O5 0.000000 0.000000 0.098085
O O6 0.500000 0.672396 0.500000
O O7 0.750000 0.750000 0.500000
O O8 0.720165 0.605035 0.552385
O O9 0.750000 0.250000 0.927210
O O10 0.000000 0.337652 0.938852
O O11 0.769843 0.366881 0.000000
O O12 0.500000 0.655165 0.384016
O O13 0.250000 0.750000 0.397487
O O14 0.236524 0.607784 0.346841
O O15 0.250000 0.750000 0.712927
O O16 0.000000 0.657869 0.707295
#
# Coordination Sequence:
#
# PCOD8273775 Si02
#       6
#     8   8   8  16  16  16
#     4  11  25  44  62  84 113 150 196 245 295 344
#     4  11  24  40  61  88 119 155 196 243 294 344
#     4   8  14  22  38  67 102 137 175 218 270 331
#     4  10  21  38  62  92 126 163 200 237 281 335
#     4   9  15  26  45  72 105 141 180 225 276 335
#     4  11  22  38  60  85 112 148 191 237 290 347
#
# _framework density 20.265212999999999
#
# number of rings (size 3 to 8) (size 9 to 14) (size 15 to 20)
#    0.000    2.000    0.000    5.667    0.000    6.222 
#    0.000    0.000    0.000    0.667    0.000    4.667 
#    0.000    0.000    0.000    0.000    0.000    0.000 
#
# Total GULP energy -446092.699467 kJ/mol
# GULP energy per Si atom -12391.463874 kJ/mol
# Density = 2.021909 g / cm^3
# Si number density = 20.265213 Si / 1000 Ang^3
#
#
#
# Elastic Constant Matrix: (Units=GPa)
#
#
# Indices 1 2 3 4 5 6 
#
# 1 131.0469 51.5210 55.5663 0.0000 0.0000 0.0000
# 2 51.5210 99.8201 56.5278 0.0000 0.0000 0.0000
# 3 55.5663 56.5278 103.4743 0.0000 0.0000 0.0000
# 4 0.0000 0.0000 0.0000 -130.4160 0.0000 0.0000
# 5 0.0000 0.0000 0.0000 0.0000 33.0008 0.0000
# 6 0.0000 0.0000 0.0000 0.0000 0.0000 27.5863
#
#
#
# Elastic Compliance Matrix: (Units=1/GPa)
#
#
# Indices 1 2 3 4 5 6 
#
# 1 0.010559 -0.003242 -0.003899 0.000000 0.000000 0.000000
# 2 -0.003242 0.015501 -0.006727 0.000000 0.000000 0.000000
# 3 -0.003899 -0.006727 0.015433 0.000000 0.000000 0.000000
# 4 0.000000 0.000000 0.000000 -0.007668 0.000000 0.000000
# 5 0.000000 0.000000 0.000000 0.000000 0.030302 0.000000
# 6 0.000000 0.000000 0.000000 0.000000 0.000000 0.036250
#
#
# Mechanical properties :
#
#
# Convention : Reuss Voigt Hill
#
# Bulk Modulus (GPa) = 72.69292 73.50795 73.10043
# Shear Modulus (GPa) = 37.67937 -2.58404 17.54767
#
# Velocity S-wave (km/s) = 4.31665 -1.13043 2.94581
# Velocity P-wave (km/s) = 7.79701 5.88624 6.90801
#
# Compressibility (1/GPa) = 0.01375650
#
# Stress axis : x y z
#
# Youngs Moduli (GPa) = 94.70943 64.51280 64.79542
#
# Poissons Ratio (x) = 0.20913 0.25265
# Poissons Ratio (y) = 0.30701 0.43590
# Poissons Ratio (z) = 0.36928 0.43400
#
# Static dielectric constant tensor:
#      x y z
#    x 4.005310 0.000000 0.000000 
#    y 0.000000 3.419320 0.000000 
#    z 0.000000 0.000000 4.285450 
# 
# 
# High freq. dielectric constant tensor:
#      x y z
#    x 1.805440 0.000000 0.000000 
#    y 0.000000 1.766650 0.000000 
#    z 0.000000 0.000000 1.807290 
# 
# From -- ./inp_files/72608.got.cif
#   From: 2010.03.12/outbox.cif.g09.slc.cpg/sg65_37_cif.got.tgz:72608.got - 2010.04.10 20:52:16.
