data_PCOD8273725
_publ_section_title
;
Structure prediction by ZEFSAII (Michael W. Deem and Ramdas Pophale) SiO2 
 PCOD8273725
Probable space group: C M M M
;
_chemical_formula_sum "Si O2"
_cell_formula_units_Z 80
_cell_length_a 18.284386
_cell_length_b 8.904341
_cell_length_c 25.636099
_cell_angle_alpha 90.000000
_cell_angle_beta 90.000000
_cell_angle_gamma 90.000000
_cell_volume 4173.823736
_symmetry_space_group_name_H-M "C M M M"
_symmetry_group_IT_number 65
_symmetry_cell_setting 'orthorhombic'
loop_
_space_group_symop_operation_xyz
x,y,z
-x,-y,z
x,-y,-z
-x,y,-z
-x,-y,-z
x,y,-z
-x,y,z
x,-y,z
1/2+x,1/2+y,z
1/2-x,1/2-y,z
1/2+x,1/2-y,-z
1/2-x,1/2+y,-z
1/2-x,1/2-y,-z
1/2+x,1/2+y,-z
1/2-x,1/2+y,z
1/2+x,1/2-y,z
loop_
_atom_site_type_symbol
_atom_site_label
_atom_site_fract_x
_atom_site_fract_y
_atom_site_fract_z
Si Si1 0.413145 0.829958 0.443257
Si Si2 0.414068 0.173573 0.146859
Si Si3 0.829033 0.178482 0.759505
Si Si4 0.082620 0.822915 0.659450
Si Si5 0.326145 0.675133 0.060694
O O1 0.384627 0.770742 0.500000
O O2 0.500000 0.819919 0.443207
O O3 0.382101 0.733060 0.395153
O O4 0.386800 0.000000 0.435139
O O5 0.500000 0.192755 0.153108
O O6 0.375980 0.267812 0.191899
O O7 0.390918 0.242883 0.091439
O O8 0.390295 0.000000 0.149926
O O9 0.750000 0.250000 0.762418
O O10 0.868233 0.236527 0.706893
O O11 0.822683 0.000000 0.760985
O O12 0.000000 0.760337 0.666876
O O13 0.081586 0.000000 0.658254
O O14 0.323114 0.500000 0.075016
O O15 0.250000 0.750000 0.077746
O O16 0.342019 0.701287 0.000000
#
# Coordination Sequence:
#
# PCOD8273725 Si02
#       5
#    16  16  16  16  16
#     4   8  14  25  43  70 103 136 169 208 257 312
#     4  11  24  40  59  84 113 145 182 225 273 323
#     4  11  23  39  58  79 107 142 181 225 272 326
#     4   9  18  32  51  76 104 135 172 216 266 316
#     4  10  21  38  61  87 116 151 188 225 267 317
#
# _framework density 19.167078
#
# number of rings (size 3 to 8) (size 9 to 14) (size 15 to 20)
#    0.000    2.200    0.000    3.600    0.000    6.000 
#    0.000    6.000    0.000    0.600    0.000    0.000 
#    0.000    0.000    0.000    0.000    0.000    0.000 
#
# Total GULP energy -495990.043464 kJ/mol
# GULP energy per Si atom -12399.751087 kJ/mol
# Density = 1.912345 g / cm^3
# Si number density = 19.167078 Si / 1000 Ang^3
#
#
#
# Elastic Constant Matrix: (Units=GPa)
#
#
# Indices 1 2 3 4 5 6 
#
# 1 76.6256 38.0472 52.2122 0.0000 0.0000 0.0000
# 2 38.0472 73.2195 44.6170 0.0000 0.0000 0.0000
# 3 52.2122 44.6170 130.9215 0.0000 0.0000 0.0000
# 4 0.0000 0.0000 0.0000 36.0449 0.0000 0.0000
# 5 0.0000 0.0000 0.0000 0.0000 14.0490 0.0000
# 6 0.0000 0.0000 0.0000 0.0000 0.0000 20.0408
#
#
#
# Elastic Compliance Matrix: (Units=1/GPa)
#
#
# Indices 1 2 3 4 5 6 
#
# 1 0.020520 -0.007164 -0.005742 0.000000 0.000000 0.000000
# 2 -0.007164 0.019738 -0.003870 0.000000 0.000000 0.000000
# 3 -0.005742 -0.003870 0.011247 0.000000 0.000000 0.000000
# 4 0.000000 0.000000 0.000000 0.027743 0.000000 0.000000
# 5 0.000000 0.000000 0.000000 0.000000 0.071180 0.000000
# 6 0.000000 0.000000 0.000000 0.000000 0.000000 0.049898
#
#
# Mechanical properties :
#
#
# Convention : Reuss Voigt Hill
#
# Bulk Modulus (GPa) = 55.69818 61.16883 58.43351
# Shear Modulus (GPa) = 20.84528 23.75295 22.29912
#
# Velocity S-wave (km/s) = 3.30139 3.52413 3.41458
# Velocity P-wave (km/s) = 6.60716 6.96721 6.78958
#
# Compressibility (1/GPa) = 0.01795391
#
# Stress axis : x y z
#
# Youngs Moduli (GPa) = 48.73225 50.66331 88.91339
#
# Poissons Ratio (x) = 0.36295 0.51056
# Poissons Ratio (y) = 0.34912 0.34406
# Poissons Ratio (z) = 0.27983 0.19605
#
# Static dielectric constant tensor:
#      x y z
#    x 3.340400 0.000000 0.000000 
#    y 0.000000 3.578640 0.000000 
#    z 0.000000 0.000000 3.950480 
# 
# 
# High freq. dielectric constant tensor:
#      x y z
#    x 1.719320 0.000000 0.000000 
#    y 0.000000 1.748490 0.000000 
#    z 0.000000 0.000000 1.765930 
# 
# From -- ./inp_files/72766.got.cif
#   From: 2010.03.12/outbox.cif.g09.slc.cpg/sg65_37_cif.got.tgz:72766.got - 2010.04.10 20:52:16.
