data_PCOD8273303
_publ_section_title
;
Structure prediction by ZEFSAII (Michael W. Deem and Ramdas Pophale) SiO2 
 PCOD8273303
Probable space group: C M M M
;
_chemical_formula_sum "Si O2"
_cell_formula_units_Z 96
_cell_length_a 8.846381
_cell_length_b 18.866587
_cell_length_c 30.628997
_cell_angle_alpha 90.000000
_cell_angle_beta 90.000000
_cell_angle_gamma 90.000000
_cell_volume 5112.010742
_symmetry_space_group_name_H-M "C M M M"
_symmetry_group_IT_number 65
_symmetry_cell_setting 'orthorhombic'
loop_
_space_group_symop_operation_xyz
x,y,z
-x,-y,z
x,-y,-z
-x,y,-z
-x,-y,-z
x,y,-z
-x,y,z
x,-y,z
1/2+x,1/2+y,z
1/2-x,1/2-y,z
1/2+x,1/2-y,-z
1/2-x,1/2+y,-z
1/2-x,1/2-y,-z
1/2+x,1/2+y,-z
1/2-x,1/2+y,z
1/2+x,1/2-y,z
loop_
_atom_site_type_symbol
_atom_site_label
_atom_site_fract_x
_atom_site_fract_y
_atom_site_fract_z
Si Si1 0.820789 0.327445 0.292119
Si Si2 0.320434 0.920574 0.373194
Si Si3 0.321728 0.823782 0.450822
Si Si4 0.676544 0.582111 0.782816
Si Si5 0.321631 0.823962 0.048577
Si Si6 0.327435 0.917905 0.127739
O O1 0.750000 0.250000 0.294210
O O2 0.760877 0.373038 0.333220
O O3 0.771235 0.368118 0.248858
O O4 0.000000 0.319731 0.292593
O O5 0.500000 0.924492 0.371918
O O6 0.264854 0.885601 0.418575
O O7 0.252212 0.000000 0.369849
O O8 0.270599 0.843695 0.500000
O O9 0.500000 0.814448 0.447760
O O10 0.250000 0.750000 0.435581
O O11 0.500000 0.596190 0.776064
O O12 0.718654 0.500000 0.773736
O O13 0.722267 0.603765 0.831772
O O14 0.500000 0.815896 0.049627
O O15 0.250000 0.750000 0.062056
O O16 0.265734 0.880261 0.084237
O O17 0.267901 0.847552 0.000000
O O18 0.500000 0.896187 0.138653
O O19 0.314659 0.000000 0.117447
#
# Coordination Sequence:
#
# PCOD8273303 Si02
#       6
#    16  16  16  16  16  16
#     4  11  22  36  55  77 103 135 172 214 259 308
#     4   9  18  32  51  76 103 132 169 212 256 302
#     4   9  17  30  50  75 103 135 169 207 251 299
#     4  10  21  37  56  78 105 135 169 211 258 309
#     4   9  18  32  50  73 101 133 168 207 251 298
#     4   9  18  33  53  76 102 134 171 209 251 300
#
# _framework density 18.779302999999999
#
# number of rings (size 3 to 8) (size 9 to 14) (size 15 to 20)
#    0.000    2.500    0.000    2.000    0.000    3.667 
#    0.000    5.833    0.000    2.500    0.000    7.000 
#    0.000    0.000    0.000    0.000    0.000    0.000 
#
# Total GULP energy -595202.365155 kJ/mol
# GULP energy per Si atom -12400.049274 kJ/mol
# Density = 1.873656 g / cm^3
# Si number density = 18.779303 Si / 1000 Ang^3
#
#
#
# Elastic Constant Matrix: (Units=GPa)
#
#
# Indices 1 2 3 4 5 6 
#
# 1 38.1250 34.3965 29.5159 0.0000 0.0000 0.0000
# 2 34.3965 135.8825 92.5108 0.0000 0.0000 0.0000
# 3 29.5159 92.5108 138.5657 0.0000 0.0000 0.0000
# 4 0.0000 0.0000 0.0000 38.3353 0.0000 0.0000
# 5 0.0000 0.0000 0.0000 0.0000 19.1870 0.0000
# 6 0.0000 0.0000 0.0000 0.0000 0.0000 26.7889
#
#
#
# Elastic Compliance Matrix: (Units=1/GPa)
#
#
# Indices 1 2 3 4 5 6 
#
# 1 0.034571 -0.006852 -0.002789 0.000000 0.000000 0.000000
# 2 -0.006852 0.014850 -0.008455 0.000000 0.000000 0.000000
# 3 -0.002789 -0.008455 0.013456 0.000000 0.000000 0.000000
# 4 0.000000 0.000000 0.000000 0.026086 0.000000 0.000000
# 5 0.000000 0.000000 0.000000 0.000000 0.052119 0.000000
# 6 0.000000 0.000000 0.000000 0.000000 0.000000 0.037329
#
#
# Mechanical properties :
#
#
# Convention : Reuss Voigt Hill
#
# Bulk Modulus (GPa) = 37.47529 69.49105 53.48317
# Shear Modulus (GPa) = 22.37174 27.27226 24.82200
#
# Velocity S-wave (km/s) = 3.45526 3.81498 3.63957
# Velocity P-wave (km/s) = 5.99311 7.51597 6.79732
#
# Compressibility (1/GPa) = 0.02668425
#
# Stress axis : x y z
#
# Youngs Moduli (GPa) = 28.92603 67.34073 74.31880
#
# Poissons Ratio (x) = 0.46142 0.20730
# Poissons Ratio (y) = 0.19820 0.62834
# Poissons Ratio (z) = 0.08068 0.56934
#
# Static dielectric constant tensor:
#      x y z
#    x 3.245460 0.000000 0.000000 
#    y 0.000000 3.545780 0.000000 
#    z 0.000000 0.000000 3.723970 
# 
# 
# High freq. dielectric constant tensor:
#      x y z
#    x 1.708990 0.000000 0.000000 
#    y 0.000000 1.729040 0.000000 
#    z 0.000000 0.000000 1.743280 
# 
# From -- ./inp_files/73215.got.cif
#   From: 2010.03.12/outbox.cif.g09.slc.cpg/sg65_37_cif.got.tgz:73215.got - 2010.04.10 20:52:16.
