data_PCOD8273396
_publ_section_title
;
Structure prediction by ZEFSAII (Michael W. Deem and Ramdas Pophale) SiO2 
 PCOD8273396
Probable space group: C M M M
;
_chemical_formula_sum "Si O2"
_cell_formula_units_Z 80
_cell_length_a 18.972546
_cell_length_b 8.754887
_cell_length_c 25.345094
_cell_angle_alpha 90.000000
_cell_angle_beta 90.000000
_cell_angle_gamma 90.000000
_cell_volume 4209.883383
_symmetry_space_group_name_H-M "C M M M"
_symmetry_group_IT_number 65
_symmetry_cell_setting 'orthorhombic'
loop_
_space_group_symop_operation_xyz
x,y,z
-x,-y,z
x,-y,-z
-x,y,-z
-x,-y,-z
x,y,-z
-x,y,z
x,-y,z
1/2+x,1/2+y,z
1/2-x,1/2-y,z
1/2+x,1/2-y,-z
1/2-x,1/2+y,-z
1/2-x,1/2-y,-z
1/2+x,1/2+y,-z
1/2-x,1/2+y,z
1/2+x,1/2-y,z
loop_
_atom_site_type_symbol
_atom_site_label
_atom_site_fract_x
_atom_site_fract_y
_atom_site_fract_z
Si Si1 0.421154 0.818477 0.441352
Si Si2 0.417241 0.173475 0.146538
Si Si3 0.917924 0.178072 0.744587
Si Si4 0.173027 0.680650 0.653507
Si Si5 0.323524 0.679082 0.060799
O O1 0.398557 0.763156 0.500000
O O2 0.500000 0.757635 0.428284
O O3 0.365917 0.753543 0.398761
O O4 0.422004 0.000000 0.439140
O O5 0.500000 0.180991 0.138601
O O6 0.393842 0.270949 0.197289
O O7 0.385172 0.246152 0.094308
O O8 0.391104 0.000000 0.154010
O O9 0.872580 0.274092 0.703767
O O10 0.000000 0.216277 0.735297
O O11 0.901990 0.000000 0.737533
O O12 0.179683 0.500000 0.651276
O O13 0.250000 0.750000 0.657245
O O14 0.321315 0.500000 0.070900
O O15 0.250000 0.750000 0.079604
O O16 0.338550 0.719205 0.000000
#
# Coordination Sequence:
#
# PCOD8273396 Si02
#       5
#    16  16  16  16  16
#     4   8  15  30  53  79 105 137 179 223 267 318
#     4  10  21  37  58  84 112 142 179 223 270 321
#     4  10  21  38  59  81 107 139 177 223 273 325
#     4  11  22  35  53  79 111 145 182 223 268 319
#     4  10  21  37  57  81 111 147 185 224 268 320
#
# _framework density 19.002901000000001
#
# number of rings (size 3 to 8) (size 9 to 14) (size 15 to 20)
#    0.000    2.200    0.000    3.600    0.000    6.000 
#    0.000    6.000    0.000    1.800    0.000    7.000 
#    0.000    0.000    0.000    0.000    0.000    0.000 
#
# Total GULP energy -496073.646201 kJ/mol
# GULP energy per Si atom -12401.841155 kJ/mol
# Density = 1.895965 g / cm^3
# Si number density = 19.002901 Si / 1000 Ang^3
#
#
#
# Elastic Constant Matrix: (Units=GPa)
#
#
# Indices 1 2 3 4 5 6 
#
# 1 75.6542 38.1884 63.9624 0.0000 0.0000 0.0000
# 2 38.1884 69.6474 35.4237 0.0000 0.0000 0.0000
# 3 63.9624 35.4237 116.2232 0.0000 0.0000 0.0000
# 4 0.0000 0.0000 0.0000 22.2893 0.0000 0.0000
# 5 0.0000 0.0000 0.0000 0.0000 13.9003 0.0000
# 6 0.0000 0.0000 0.0000 0.0000 0.0000 23.5026
#
#
#
# Elastic Compliance Matrix: (Units=1/GPa)
#
#
# Indices 1 2 3 4 5 6 
#
# 1 0.028973 -0.009203 -0.013140 0.000000 0.000000 0.000000
# 2 -0.009203 0.019915 -0.001005 0.000000 0.000000 0.000000
# 3 -0.013140 -0.001005 0.016142 0.000000 0.000000 0.000000
# 4 0.000000 0.000000 0.000000 0.044864 0.000000 0.000000
# 5 0.000000 0.000000 0.000000 0.000000 0.071941 0.000000
# 6 0.000000 0.000000 0.000000 0.000000 0.000000 0.042548
#
#
# Mechanical properties :
#
#
# Convention : Reuss Voigt Hill
#
# Bulk Modulus (GPa) = 54.54386 59.63042 57.08714
# Shear Modulus (GPa) = 18.03807 20.20179 19.11993
#
# Velocity S-wave (km/s) = 3.08430 3.26404 3.17544
# Velocity P-wave (km/s) = 6.43809 6.75671 6.59932
#
# Compressibility (1/GPa) = 0.01833387
#
# Stress axis : x y z
#
# Youngs Moduli (GPa) = 34.51528 50.21249 61.95028
#
# Poissons Ratio (x) = 0.46210 0.81402
# Poissons Ratio (y) = 0.31764 0.06228
# Poissons Ratio (z) = 0.45353 0.05048
#
# Static dielectric constant tensor:
#      x y z
#    x 3.482200 0.000000 0.000000 
#    y 0.000000 3.415910 0.000000 
#    z 0.000000 0.000000 3.668440 
# 
# 
# High freq. dielectric constant tensor:
#      x y z
#    x 1.735660 0.000000 0.000000 
#    y 0.000000 1.733030 0.000000 
#    z 0.000000 0.000000 1.750340 
# 
# From -- ./inp_files/72761.got.cif
#   From: 2010.03.12/outbox.cif.g09.slc.cpg/sg65_37_cif.got.tgz:72761.got - 2010.04.10 20:52:16.
