data_PCOD8273989
_publ_section_title
;
Structure prediction by ZEFSAII (Michael W. Deem and Ramdas Pophale) SiO2 
 PCOD8273989
Probable space group: C M M M
;
_chemical_formula_sum "Si O2"
_cell_formula_units_Z 64
_cell_length_a 34.788574
_cell_length_b 8.872768
_cell_length_c 10.646678
_cell_angle_alpha 90.000000
_cell_angle_beta 90.000000
_cell_angle_gamma 90.000000
_cell_volume 3286.320172
_symmetry_space_group_name_H-M "C M M M"
_symmetry_group_IT_number 65
_symmetry_cell_setting 'orthorhombic'
loop_
_space_group_symop_operation_xyz
x,y,z
-x,-y,z
x,-y,-z
-x,y,-z
-x,-y,-z
x,y,-z
-x,y,z
x,-y,z
1/2+x,1/2+y,z
1/2-x,1/2-y,z
1/2+x,1/2-y,-z
1/2-x,1/2+y,-z
1/2-x,1/2-y,-z
1/2+x,1/2+y,-z
1/2-x,1/2+y,z
1/2+x,1/2-y,z
loop_
_atom_site_type_symbol
_atom_site_label
_atom_site_fract_x
_atom_site_fract_y
_atom_site_fract_z
Si Si1 0.850394 0.823338 0.355297
Si Si2 0.576607 0.178765 0.762201
Si Si3 0.955085 0.178032 0.000000
Si Si4 0.500000 0.821611 0.634215
Si Si5 0.790737 0.822942 0.141756
O O1 0.837528 0.788145 0.500000
O O2 0.888679 0.731618 0.325166
O O3 0.819230 0.767410 0.252244
O O4 0.858344 0.000000 0.338655
O O5 0.573265 0.263886 0.892395
O O6 0.537726 0.236585 0.700148
O O7 0.578896 0.000000 0.781490
O O8 0.000000 0.241709 0.000000
O O9 0.957442 0.000000 0.000000
O O10 0.500000 0.744161 0.500000
O O11 0.500000 0.000000 0.625567
O O12 0.750000 0.750000 0.170779
O O13 0.785293 0.000000 0.149961
O O14 0.805150 0.777378 0.000000
#
# Coordination Sequence:
#
# PCOD8273989 Si02
#       5
#    16  16   8   8  16
#     4  10  22  39  58  85 121 158 196 241 295 354
#     4  11  22  37  58  84 116 151 196 247 293 345
#     4  11  23  39  59  83 114 151 194 243 301 359
#     4   9  18  33  53  76 108 149 188 235 294 341
#     4   9  19  37  60  85 115 152 192 239 293 349
#
# _framework density 19.474668999999999
#
# number of rings (size 3 to 8) (size 9 to 14) (size 15 to 20)
#    0.000    2.000    1.250    1.875    1.750    3.500 
#    0.000    0.000    0.000    3.000    0.000    0.000 
#    0.000    0.000    0.000    0.000    0.000    0.000 
#
# Total GULP energy -396499.823586 kJ/mol
# GULP energy per Si atom -12390.619487 kJ/mol
# Density = 1.943034 g / cm^3
# Si number density = 19.474669 Si / 1000 Ang^3
#
#
#
# Elastic Constant Matrix: (Units=GPa)
#
#
# Indices 1 2 3 4 5 6 
#
# 1 127.3936 33.9193 76.4968 0.0000 0.0000 0.0000
# 2 33.9193 49.5219 37.1746 0.0000 0.0000 0.0000
# 3 76.4968 37.1746 172.6128 0.0000 0.0000 0.0000
# 4 0.0000 0.0000 0.0000 21.3538 0.0000 0.0000
# 5 0.0000 0.0000 0.0000 0.0000 13.8131 0.0000
# 6 0.0000 0.0000 0.0000 0.0000 0.0000 40.5402
#
#
#
# Elastic Compliance Matrix: (Units=1/GPa)
#
#
# Indices 1 2 3 4 5 6 
#
# 1 0.011606 -0.004877 -0.004093 0.000000 0.000000 0.000000
# 2 -0.004877 0.026136 -0.003468 0.000000 0.000000 0.000000
# 3 -0.004093 -0.003468 0.008354 0.000000 0.000000 0.000000
# 4 0.000000 0.000000 0.000000 0.046830 0.000000 0.000000
# 5 0.000000 0.000000 0.000000 0.000000 0.072395 0.000000
# 6 0.000000 0.000000 0.000000 0.000000 0.000000 0.024667
#
#
# Mechanical properties :
#
#
# Convention : Reuss Voigt Hill
#
# Bulk Modulus (GPa) = 47.12217 71.63441 59.37829
# Shear Modulus (GPa) = 22.52886 28.60391 25.56638
#
# Velocity S-wave (km/s) = 3.40491 3.83662 3.62719
# Velocity P-wave (km/s) = 6.30135 7.51594 6.93529
#
# Compressibility (1/GPa) = 0.02122143
#
# Stress axis : x y z
#
# Youngs Moduli (GPa) = 86.16240 38.26082 119.70204
#
# Poissons Ratio (x) = 0.18659 0.48996
# Poissons Ratio (y) = 0.42019 0.41508
# Poissons Ratio (z) = 0.35268 0.13267
#
# Static dielectric constant tensor:
#      x y z
#    x 3.566390 0.000000 0.000000 
#    y 0.000000 3.338730 0.000000 
#    z 0.000000 0.000000 2.478040 
# 
# 
# High freq. dielectric constant tensor:
#      x y z
#    x 1.754330 0.000000 0.000000 
#    y 0.000000 1.743190 0.000000 
#    z 0.000000 0.000000 1.779670 
# 
# From -- ./inp_files/33257.got.cif
#   From: 2010.03.12/outbox.cif.g09.slc.cpg/sg65_17_cif.got.tgz:33257.got - 2010.04.10 20:52:16.
