data_PCOD8273921
_publ_section_title
;
Structure prediction by ZEFSAII (Michael W. Deem and Ramdas Pophale) SiO2 
 PCOD8273921
Probable space group: C M M M
;
_chemical_formula_sum "Si O2"
_cell_formula_units_Z 88
_cell_length_a 20.480344
_cell_length_b 9.529912
_cell_length_c 25.052424
_cell_angle_alpha 90.000000
_cell_angle_beta 90.000000
_cell_angle_gamma 90.000000
_cell_volume 4889.628801
_symmetry_space_group_name_H-M "C M M M"
_symmetry_group_IT_number 65
_symmetry_cell_setting 'orthorhombic'
loop_
_space_group_symop_operation_xyz
x,y,z
-x,-y,z
x,-y,-z
-x,y,-z
-x,-y,-z
x,y,-z
-x,y,z
x,-y,z
1/2+x,1/2+y,z
1/2-x,1/2-y,z
1/2+x,1/2-y,-z
1/2-x,1/2+y,-z
1/2-x,1/2-y,-z
1/2+x,1/2+y,-z
1/2-x,1/2+y,z
1/2+x,1/2-y,z
loop_
_atom_site_type_symbol
_atom_site_label
_atom_site_fract_x
_atom_site_fract_y
_atom_site_fract_z
Si Si1 0.689586 0.340838 0.664915
Si Si2 0.577670 0.657382 0.940671
Si Si3 0.074662 0.162878 0.743129
Si Si4 0.922479 0.657795 0.155307
Si Si5 0.120935 0.839713 0.560381
Si Si6 0.000000 0.656206 0.563109
O O1 0.708020 0.500000 0.678002
O O2 0.750000 0.250000 0.685823
O O3 0.622053 0.299594 0.694038
O O4 0.680688 0.318104 0.601197
O O5 0.500000 0.657371 0.937550
O O6 0.603175 0.500000 0.928405
O O7 0.606726 0.765223 0.897138
O O8 0.600312 0.704504 0.000000
O O9 0.098896 0.255420 0.792777
O O10 0.000000 0.199943 0.726584
O O11 0.079673 0.000000 0.759594
O O12 0.893909 0.500000 0.158338
O O13 0.000000 0.653376 0.151588
O O14 0.143632 0.802004 0.500000
O O15 0.063700 0.739741 0.581523
O O16 0.095387 0.000000 0.562914
O O17 0.000000 0.500000 0.588442
O O18 0.000000 0.646712 0.500000
#
# Coordination Sequence:
#
# PCOD8273921 Si02
#       6
#    16  16  16  16  16   8
#     4  10  22  37  54  75 101 131 165 206 252 301
#     4   8  13  21  34  54  84 124 164 197 234 286
#     4   9  18  33  52  70  91 126 169 208 244 292
#     4   9  16  25  39  62  91 121 157 203 250 292
#     4   9  18  33  53  75 100 132 166 199 242 300
#     4   9  17  29  47  75 105 129 157 197 242 283
#
# _framework density 17.997274999999998
#
# number of rings (size 3 to 8) (size 9 to 14) (size 15 to 20)
#    0.000    3.000    0.000    1.364    1.273    5.455 
#    0.000    1.818    0.000    0.000    0.000    0.000 
#    0.000    0.727    0.000    2.364    0.000    4.727 
#
# Total GULP energy -545383.370876 kJ/mol
# GULP energy per Si atom -12395.076611 kJ/mol
# Density = 1.795631 g / cm^3
# Si number density = 17.997275 Si / 1000 Ang^3
#
#
#
# Elastic Constant Matrix: (Units=GPa)
#
#
# Indices 1 2 3 4 5 6 
#
# 1 61.9639 40.2982 36.7361 0.0000 0.0000 0.0000
# 2 40.2982 102.2353 58.7337 0.0000 0.0000 0.0000
# 3 36.7361 58.7337 114.3093 0.0000 0.0000 0.0000
# 4 0.0000 0.0000 0.0000 20.5946 0.0000 0.0000
# 5 0.0000 0.0000 0.0000 0.0000 5.3766 0.0000
# 6 0.0000 0.0000 0.0000 0.0000 0.0000 19.4018
#
#
#
# Elastic Compliance Matrix: (Units=1/GPa)
#
#
# Indices 1 2 3 4 5 6 
#
# 1 0.022837 -0.006789 -0.003851 0.000000 0.000000 0.000000
# 2 -0.006789 0.015896 -0.005986 0.000000 0.000000 0.000000
# 3 -0.003851 -0.005986 0.013061 0.000000 0.000000 0.000000
# 4 0.000000 0.000000 0.000000 0.048556 0.000000 0.000000
# 5 0.000000 0.000000 0.000000 0.000000 0.185992 0.000000
# 6 0.000000 0.000000 0.000000 0.000000 0.000000 0.051541
#
#
# Mechanical properties :
#
#
# Convention : Reuss Voigt Hill
#
# Bulk Modulus (GPa) = 53.92968 61.11605 57.52287
# Shear Modulus (GPa) = 13.25146 18.59064 15.92105
#
# Velocity S-wave (km/s) = 2.71644 3.21747 2.97751
# Velocity P-wave (km/s) = 6.31421 6.91629 6.62209
#
# Compressibility (1/GPa) = 0.01854266
#
# Stress axis : x y z
#
# Youngs Moduli (GPa) = 43.78881 62.90736 76.56205
#
# Poissons Ratio (x) = 0.42711 0.29482
# Poissons Ratio (y) = 0.29730 0.45829
# Poissons Ratio (z) = 0.16862 0.37655
#
# Static dielectric constant tensor:
#      x y z
#    x 2.760290 0.000000 0.000000 
#    y 0.000000 3.575460 0.000000 
#    z 0.000000 0.000000 3.417630 
# 
# 
# High freq. dielectric constant tensor:
#      x y z
#    x 1.634060 0.000000 0.000000 
#    y 0.000000 1.700390 0.000000 
#    z 0.000000 0.000000 1.698800 
# 
# From -- ./inp_files/71012.got.cif
#   From: 2010.03.12/outbox.cif.g09.slc.cpg/sg65_36_cif.got.tgz:71012.got - 2010.04.10 20:52:16.
