data_PCOD8273331
_publ_section_title
;
Structure prediction by ZEFSAII (Michael W. Deem and Ramdas Pophale) SiO2 
 PCOD8273331
Probable space group: C M M M
;
_chemical_formula_sum "Si O2"
_cell_formula_units_Z 72
_cell_length_a 19.047861
_cell_length_b 22.347220
_cell_length_c 9.068962
_cell_angle_alpha 90.000000
_cell_angle_beta 90.000000
_cell_angle_gamma 90.000000
_cell_volume 3860.355492
_symmetry_space_group_name_H-M "C M M M"
_symmetry_group_IT_number 65
_symmetry_cell_setting 'orthorhombic'
loop_
_space_group_symop_operation_xyz
x,y,z
-x,-y,z
x,-y,-z
-x,y,-z
-x,-y,-z
x,y,-z
-x,y,z
x,-y,z
1/2+x,1/2+y,z
1/2-x,1/2-y,z
1/2+x,1/2-y,-z
1/2-x,1/2+y,-z
1/2-x,1/2-y,-z
1/2+x,1/2+y,-z
1/2-x,1/2+y,z
1/2+x,1/2-y,z
loop_
_atom_site_type_symbol
_atom_site_label
_atom_site_fract_x
_atom_site_fract_y
_atom_site_fract_z
Si Si1 0.417101 0.000000 0.331314
Si Si2 0.421027 0.345408 0.672045
Si Si3 0.079890 0.274246 0.172456
Si Si4 0.340483 0.107040 0.174596
Si Si5 0.202837 0.069306 0.672052
O O1 0.388964 0.058163 0.250603
O O2 0.500000 0.000000 0.322135
O O3 0.390213 0.000000 0.500000
O O4 0.419702 0.332203 0.500000
O O5 0.500000 0.361052 0.725755
O O6 0.392468 0.285699 0.749880
O O7 0.371708 0.401254 0.712846
O O8 0.129662 0.328508 0.221110
O O9 0.000000 0.288839 0.220980
O O10 0.084537 0.263028 0.000000
O O11 0.261385 0.102451 0.231976
O O12 0.342922 0.097205 0.000000
O O13 0.220666 0.077131 0.500000
O O14 0.199356 0.000000 0.716796
#
# Coordination Sequence:
#
# PCOD8273331 Si02
#       5
#     8  16  16  16  16
#     4  11  23  37  55  81 112 147 186 227 273 322
#     4   9  19  36  58  83 108 140 185 232 279 333
#     4   9  19  36  56  79 109 144 182 227 276 324
#     4  11  22  36  56  81 111 148 188 227 269 326
#     4  10  21  37  56  79 112 148 183 229 281 331
#
# _framework density 18.651133000000002
#
# number of rings (size 3 to 8) (size 9 to 14) (size 15 to 20)
#    0.000    2.111    1.111    1.667    0.000    5.778 
#    0.000    8.889    0.000    0.000    0.000    4.667 
#    0.000    0.000    0.000    0.000    0.000    0.000 
#
# Total GULP energy -446504.148579 kJ/mol
# GULP energy per Si atom -12402.893016 kJ/mol
# Density = 1.860868 g / cm^3
# Si number density = 18.651133 Si / 1000 Ang^3
#
#
#
# Elastic Constant Matrix: (Units=GPa)
#
#
# Indices 1 2 3 4 5 6 
#
# 1 109.9755 72.2666 41.0623 0.0000 0.0000 0.0000
# 2 72.2666 119.0588 41.7523 0.0000 0.0000 0.0000
# 3 41.0623 41.7523 55.3478 0.0000 0.0000 0.0000
# 4 0.0000 0.0000 0.0000 39.7801 0.0000 0.0000
# 5 0.0000 0.0000 0.0000 0.0000 27.6531 0.0000
# 6 0.0000 0.0000 0.0000 0.0000 0.0000 40.7088
#
#
#
# Elastic Compliance Matrix: (Units=1/GPa)
#
#
# Indices 1 2 3 4 5 6 
#
# 1 0.016655 -0.007854 -0.006432 0.000000 0.000000 0.000000
# 2 -0.007854 0.015124 -0.005582 0.000000 0.000000 0.000000
# 3 -0.006432 -0.005582 0.027050 0.000000 0.000000 0.000000
# 4 0.000000 0.000000 0.000000 0.025138 0.000000 0.000000
# 5 0.000000 0.000000 0.000000 0.000000 0.036162 0.000000
# 6 0.000000 0.000000 0.000000 0.000000 0.000000 0.024565
#
#
# Mechanical properties :
#
#
# Convention : Reuss Voigt Hill
#
# Bulk Modulus (GPa) = 52.37308 66.06052 59.21680
# Shear Modulus (GPa) = 26.20607 30.24846 28.22726
#
# Velocity S-wave (km/s) = 3.75249 4.03153 3.89451
# Velocity P-wave (km/s) = 6.84954 7.56088 7.21398
#
# Compressibility (1/GPa) = 0.01909378
#
# Stress axis : x y z
#
# Youngs Moduli (GPa) = 60.04057 66.11990 36.96816
#
# Poissons Ratio (x) = 0.51930 0.23777
# Poissons Ratio (y) = 0.47156 0.20636
# Poissons Ratio (z) = 0.38617 0.36909
#
# Static dielectric constant tensor:
#      x y z
#    x 3.573980 0.000000 0.000000 
#    y 0.000000 3.515880 0.000000 
#    z 0.000000 0.000000 3.446390 
# 
# 
# High freq. dielectric constant tensor:
#      x y z
#    x 1.728600 0.000000 0.000000 
#    y 0.000000 1.728620 0.000000 
#    z 0.000000 0.000000 1.722460 
# 
# From -- ./inp_files/9292.got.cif
#   From: 2010.03.12/outbox.cif.g09.slc.cpg/sg65_5_cif.got.tgz:9292.got - 2010.04.10 20:52:16.
