data_PCOD8273228
_publ_section_title
;
Structure prediction by ZEFSAII (Michael W. Deem and Ramdas Pophale) SiO2 
 PCOD8273228
Probable space group: C M M M
;
_chemical_formula_sum "Si O2"
_cell_formula_units_Z 52
_cell_length_a 17.273655
_cell_length_b 20.057750
_cell_length_c 7.562162
_cell_angle_alpha 90.000000
_cell_angle_beta 90.000000
_cell_angle_gamma 90.000000
_cell_volume 2620.067211
_symmetry_space_group_name_H-M "C M M M"
_symmetry_group_IT_number 65
_symmetry_cell_setting 'orthorhombic'
loop_
_space_group_symop_operation_xyz
x,y,z
-x,-y,z
x,-y,-z
-x,y,-z
-x,-y,-z
x,y,-z
-x,y,z
x,-y,z
1/2+x,1/2+y,z
1/2-x,1/2-y,z
1/2+x,1/2-y,-z
1/2-x,1/2+y,-z
1/2-x,1/2-y,-z
1/2+x,1/2+y,-z
1/2-x,1/2+y,z
1/2+x,1/2-y,z
loop_
_atom_site_type_symbol
_atom_site_label
_atom_site_fract_x
_atom_site_fract_y
_atom_site_fract_z
Si Si1 0.592229 0.363270 0.500000
Si Si2 0.907853 0.767363 0.804194
Si Si3 0.414313 0.879540 0.790955
Si Si4 0.180131 0.000000 0.500000
Si Si5 0.692466 0.000000 0.210905
O O1 0.500000 0.366891 0.500000
O O2 0.623335 0.323690 0.328019
O O3 0.625009 0.436648 0.500000
O O4 0.882320 0.693698 0.736744
O O5 0.000000 0.767677 0.811908
O O6 0.873953 0.782413 0.000000
O O7 0.500000 0.892258 0.709050
O O8 0.355145 0.935401 0.724479
O O9 0.421737 0.883324 0.000000
O O10 0.228253 0.000000 0.681219
O O11 0.709060 0.000000 0.000000
#
# Coordination Sequence:
#
# PCOD8273228 Si02
#       5
#     8  16  16   4   8
#     4  10  21  39  60  75  94 129 173 228 282 316
#     4   8  15  30  55  85 107 125 163 217 264 308
#     4   8  14  29  56  85 111 142 176 205 241 299
#     4  12  27  40  51  74 102 134 184 226 261 320
#     4  10  21  37  53  75 115 153 173 203 250 297
#
# _framework density 19.846819
#
# number of rings (size 3 to 8) (size 9 to 14) (size 15 to 20)
#    0.000    3.077    0.000    2.538    0.000    4.308 
#    0.000    6.154    0.000   10.154    0.000    0.000 
#    0.000    0.000    0.000    0.000    0.000    0.000 
#
# Total GULP energy -322253.321667 kJ/mol
# GULP energy per Si atom -12394.358526 kJ/mol
# Density = 1.980165 g / cm^3
# Si number density = 19.846819 Si / 1000 Ang^3
#
#
#
# Elastic Constant Matrix: (Units=GPa)
#
#
# Indices 1 2 3 4 5 6 
#
# 1 40.3426 42.8855 28.6373 0.0000 0.0000 0.0000
# 2 42.8855 186.6626 67.0763 0.0000 0.0000 0.0000
# 3 28.6373 67.0763 97.7339 0.0000 0.0000 0.0000
# 4 0.0000 0.0000 0.0000 13.9087 0.0000 0.0000
# 5 0.0000 0.0000 0.0000 0.0000 19.5340 0.0000
# 6 0.0000 0.0000 0.0000 0.0000 0.0000 29.5125
#
#
#
# Elastic Compliance Matrix: (Units=1/GPa)
#
#
# Indices 1 2 3 4 5 6 
#
# 1 0.035570 -0.005876 -0.006390 0.000000 0.000000 0.000000
# 2 -0.005876 0.008082 -0.003825 0.000000 0.000000 0.000000
# 3 -0.006390 -0.003825 0.014729 0.000000 0.000000 0.000000
# 4 0.000000 0.000000 0.000000 0.071897 0.000000 0.000000
# 5 0.000000 0.000000 0.000000 0.000000 0.051193 0.000000
# 6 0.000000 0.000000 0.000000 0.000000 0.000000 0.033884
#
#
# Mechanical properties :
#
#
# Convention : Reuss Voigt Hill
#
# Bulk Modulus (GPa) = 38.16842 66.88194 52.52518
# Shear Modulus (GPa) = 19.51077 25.00038 22.25557
#
# Velocity S-wave (km/s) = 3.13879 3.55303 3.35232
# Velocity P-wave (km/s) = 5.69291 7.11367 6.44257
#
# Compressibility (1/GPa) = 0.02619967
#
# Stress axis : x y z
#
# Youngs Moduli (GPa) = 28.11380 123.73614 67.89263
#
# Poissons Ratio (x) = 0.72708 0.43380
# Poissons Ratio (y) = 0.16520 0.25968
# Poissons Ratio (z) = 0.17963 0.47327
#
# Static dielectric constant tensor:
#      x y z
#    x 3.226890 0.000000 0.000000 
#    y 0.000000 3.915030 0.000000 
#    z 0.000000 0.000000 3.675920 
# 
# 
# High freq. dielectric constant tensor:
#      x y z
#    x 1.727830 0.000000 0.000000 
#    y 0.000000 1.783180 0.000000 
#    z 0.000000 0.000000 1.768700 
# 
# From -- ./inp_files/6122.got.cif
#   From: 2010.03.12/outbox.cif.g09.slc.cpg/sg65_4_cif.got.tgz:6122.got - 2010.04.10 20:52:16.
