data_PCOD8273919
_publ_section_title
;
Structure prediction by ZEFSAII (Michael W. Deem and Ramdas Pophale) SiO2 
 PCOD8273919
Probable space group: C M M M
;
_chemical_formula_sum "Si O2"
_cell_formula_units_Z 72
_cell_length_a 26.785109
_cell_length_b 9.615174
_cell_length_c 15.400332
_cell_angle_alpha 90.000000
_cell_angle_beta 90.000000
_cell_angle_gamma 90.000000
_cell_volume 3966.255153
_symmetry_space_group_name_H-M "C M M M"
_symmetry_group_IT_number 65
_symmetry_cell_setting 'orthorhombic'
loop_
_space_group_symop_operation_xyz
x,y,z
-x,-y,z
x,-y,-z
-x,y,-z
-x,-y,-z
x,y,-z
-x,y,z
x,-y,z
1/2+x,1/2+y,z
1/2-x,1/2-y,z
1/2+x,1/2-y,-z
1/2-x,1/2+y,-z
1/2-x,1/2-y,-z
1/2+x,1/2+y,-z
1/2-x,1/2+y,z
1/2+x,1/2-y,z
loop_
_atom_site_type_symbol
_atom_site_label
_atom_site_fract_x
_atom_site_fract_y
_atom_site_fract_z
Si Si1 0.444932 0.834363 0.500000
Si Si2 0.327547 0.000000 0.100652
Si Si3 0.636176 0.716434 0.831010
Si Si4 0.126485 0.339348 0.352383
Si Si5 0.795280 0.347915 0.500000
Si Si6 0.441914 0.500000 0.102955
Si Si7 0.786016 0.000000 0.895530
O O1 0.500000 0.772843 0.500000
O O2 0.419563 0.784359 0.589306
O O3 0.441849 0.000000 0.500000
O O4 0.360301 0.132453 0.126518
O O5 0.271053 0.000000 0.140148
O O6 0.318740 0.000000 0.000000
O O7 0.632550 0.734911 0.727675
O O8 0.586199 0.637657 0.862387
O O9 0.686300 0.635009 0.857588
O O10 0.119550 0.500000 0.321292
O O11 0.174315 0.324556 0.412502
O O12 0.772398 0.500000 0.500000
O O13 0.750000 0.250000 0.500000
O O14 0.500000 0.500000 0.133250
O O15 0.438225 0.500000 0.000000
O O16 0.789810 0.000000 0.000000
#
# Coordination Sequence:
#
# PCOD8273919 Si02
#       7
#     8   8  16  16   8   8   8
#     4   8  15  30  55  77 103 138 169 218 286 336
#     4  11  21  34  56  84 112 144 186 239 283 322
#     4  11  20  36  58  83 113 147 187 236 279 329
#     4   9  18  34  52  81 113 137 182 233 271 322
#     4   9  19  36  53  75 112 155 187 218 267 327
#     4  10  23  43  61  78 109 154 190 223 286 359
#     4  10  22  37  53  79 116 157 193 224 276 342
#
# _framework density 18.153144000000001
#
# number of rings (size 3 to 8) (size 9 to 14) (size 15 to 20)
#    0.000    2.222    1.111    4.667    0.000    4.444 
#    4.000    0.556    0.000    2.000    0.000    4.667 
#    0.000    0.000    0.000    0.000    0.000    0.000 
#
# Total GULP energy -446247.284335 kJ/mol
# GULP energy per Si atom -12395.757898 kJ/mol
# Density = 1.811183 g / cm^3
# Si number density = 18.153144 Si / 1000 Ang^3
#
#
#
# Elastic Constant Matrix: (Units=GPa)
#
#
# Indices 1 2 3 4 5 6 
#
# 1 141.5516 69.3173 49.1598 0.0000 0.0000 0.0000
# 2 69.3173 115.9602 49.7200 0.0000 0.0000 0.0000
# 3 49.1598 49.7200 123.2295 0.0000 0.0000 0.0000
# 4 0.0000 0.0000 0.0000 33.6745 0.0000 0.0000
# 5 0.0000 0.0000 0.0000 0.0000 5.3390 0.0000
# 6 0.0000 0.0000 0.0000 0.0000 0.0000 22.4198
#
#
#
# Elastic Compliance Matrix: (Units=1/GPa)
#
#
# Indices 1 2 3 4 5 6 
#
# 1 0.010373 -0.005352 -0.001978 0.000000 0.000000 0.000000
# 2 -0.005352 0.013189 -0.003186 0.000000 0.000000 0.000000
# 3 -0.001978 -0.003186 0.010190 0.000000 0.000000 0.000000
# 4 0.000000 0.000000 0.000000 0.029696 0.000000 0.000000
# 5 0.000000 0.000000 0.000000 0.000000 0.187300 0.000000
# 6 0.000000 0.000000 0.000000 0.000000 0.000000 0.044603
#
#
# Mechanical properties :
#
#
# Convention : Reuss Voigt Hill
#
# Bulk Modulus (GPa) = 78.63084 79.68174 79.15629
# Shear Modulus (GPa) = 15.59458 26.45627 21.02543
#
# Velocity S-wave (km/s) = 2.93415 3.82172 3.40696
# Velocity P-wave (km/s) = 7.40866 7.96640 7.69259
#
# Compressibility (1/GPa) = 0.01271766
#
# Stress axis : x y z
#
# Youngs Moduli (GPa) = 96.40811 75.81977 98.13688
#
# Poissons Ratio (x) = 0.40579 0.19416
# Poissons Ratio (y) = 0.51598 0.31270
# Poissons Ratio (z) = 0.19074 0.24159
#
# Static dielectric constant tensor:
#      x y z
#    x 3.420730 0.000000 0.000000 
#    y 0.000000 3.298320 0.000000 
#    z 0.000000 0.000000 3.376290 
# 
# 
# High freq. dielectric constant tensor:
#      x y z
#    x 1.699330 0.000000 0.000000 
#    y 0.000000 1.693080 0.000000 
#    z 0.000000 0.000000 1.712080 
# 
# From -- ./inp_files/46604.got.cif
#   From: 2010.03.12/outbox.cif.g09.slc.cpg/sg65_24_cif.got.tgz:46604.got - 2010.04.10 20:52:16.
