data_PCOD8273871
_publ_section_title
;
Structure prediction by ZEFSAII (Michael W. Deem and Ramdas Pophale) SiO2 
 PCOD8273871
Probable space group: C M M M
;
_chemical_formula_sum "Si O2"
_cell_formula_units_Z 112
_cell_length_a 15.449994
_cell_length_b 22.845088
_cell_length_c 15.401651
_cell_angle_alpha 90.000000
_cell_angle_beta 90.000000
_cell_angle_gamma 90.000000
_cell_volume 5436.112408
_symmetry_space_group_name_H-M "C M M M"
_symmetry_group_IT_number 65
_symmetry_cell_setting 'orthorhombic'
loop_
_space_group_symop_operation_xyz
x,y,z
-x,-y,z
x,-y,-z
-x,y,-z
-x,-y,-z
x,y,-z
-x,y,z
x,-y,z
1/2+x,1/2+y,z
1/2-x,1/2-y,z
1/2+x,1/2-y,-z
1/2-x,1/2+y,-z
1/2-x,1/2-y,-z
1/2+x,1/2+y,-z
1/2-x,1/2+y,z
1/2+x,1/2-y,z
loop_
_atom_site_type_symbol
_atom_site_label
_atom_site_fract_x
_atom_site_fract_y
_atom_site_fract_z
Si Si1 0.652330 0.757195 0.267034
Si Si2 0.829603 0.435414 0.862563
Si Si3 0.264952 0.933411 0.669368
Si Si4 0.362462 0.433409 0.095362
Si Si5 0.598605 0.184197 0.903086
Si Si6 0.095351 0.126776 0.731613
Si Si7 0.903500 0.648568 0.596807
O O1 0.750000 0.750000 0.298983
O O2 0.655359 0.782898 0.169099
O O3 0.603335 0.696262 0.271454
O O4 0.605324 0.800957 0.332180
O O5 0.867788 0.500000 0.883602
O O6 0.811952 0.429404 0.760954
O O7 0.740225 0.425391 0.912737
O O8 0.896292 0.386112 0.892698
O O9 0.169603 0.904187 0.674450
O O10 0.328458 0.900194 0.603678
O O11 0.252593 0.000000 0.638042
O O12 0.384299 0.500000 0.123248
O O13 0.401755 0.391001 0.167169
O O14 0.401868 0.419143 0.000000
O O15 0.500000 0.203069 0.889029
O O16 0.629946 0.202127 0.000000
O O17 0.000000 0.109897 0.694962
O O18 0.895423 0.675546 0.500000
O O19 0.000000 0.620864 0.609167
#
# Coordination Sequence:
#
# PCOD8273871 Si02
#       7
#    16  16  16  16  16  16  16
#     4  12  23  43  66  89 126 169 215 266 316 374
#     4   9  17  32  55  79 112 163 213 254 307 375
#     4  10  21  40  64  94 128 164 205 254 316 381
#     4   9  18  33  53  81 119 161 213 275 324 367
#     4  11  23  36  53  83 124 166 210 261 311 364
#     4  11  22  37  60  89 124 172 220 261 312 374
#     4  11  24  44  72 102 130 160 200 259 324 384
#
# _framework density 20.602958999999998
#
# number of rings (size 3 to 8) (size 9 to 14) (size 15 to 20)
#    0.000    1.571    2.857    3.857    0.000    4.286 
#    0.000    3.571    0.000    0.429    0.000    1.000 
#    0.000    0.000    0.000    0.000    0.000    0.000 
#
# Total GULP energy -694286.397845 kJ/mol
# GULP energy per Si atom -12397.971390 kJ/mol
# Density = 2.055607 g / cm^3
# Si number density = 20.602959 Si / 1000 Ang^3
#
#
#
# Elastic Constant Matrix: (Units=GPa)
#
#
# Indices 1 2 3 4 5 6 
#
# 1 114.3471 40.5973 38.7330 0.0000 0.0000 0.0000
# 2 40.5973 120.6741 36.4885 0.0000 0.0000 0.0000
# 3 38.7330 36.4885 91.8873 0.0000 0.0000 0.0000
# 4 0.0000 0.0000 0.0000 8.5751 0.0000 0.0000
# 5 0.0000 0.0000 0.0000 0.0000 14.1755 0.0000
# 6 0.0000 0.0000 0.0000 0.0000 0.0000 10.7051
#
#
#
# Elastic Compliance Matrix: (Units=1/GPa)
#
#
# Indices 1 2 3 4 5 6 
#
# 1 0.010866 -0.002580 -0.003556 0.000000 0.000000 0.000000
# 2 -0.002580 0.010030 -0.002895 0.000000 0.000000 0.000000
# 3 -0.003556 -0.002895 0.013531 0.000000 0.000000 0.000000
# 4 0.000000 0.000000 0.000000 0.116617 0.000000 0.000000
# 5 0.000000 0.000000 0.000000 0.000000 0.070544 0.000000
# 6 0.000000 0.000000 0.000000 0.000000 0.000000 0.093414
#
#
# Mechanical properties :
#
#
# Convention : Reuss Voigt Hill
#
# Bulk Modulus (GPa) = 61.10613 62.06067 61.58340
# Shear Modulus (GPa) = 14.77016 20.76377 17.76696
#
# Velocity S-wave (km/s) = 2.68039 3.17804 2.93977
# Velocity P-wave (km/s) = 6.26918 6.60713 6.44037
#
# Compressibility (1/GPa) = 0.01636497
#
# Stress axis : x y z
#
# Youngs Moduli (GPa) = 92.03174 99.69739 73.90215
#
# Poissons Ratio (x) = 0.25726 0.26276
# Poissons Ratio (y) = 0.23748 0.21397
# Poissons Ratio (z) = 0.32722 0.28866
#
# Static dielectric constant tensor:
#      x y z
#    x 3.686870 0.000000 0.000000 
#    y 0.000000 3.767290 0.000000 
#    z 0.000000 0.000000 3.633290 
# 
# 
# High freq. dielectric constant tensor:
#      x y z
#    x 1.804610 0.000000 0.000000 
#    y 0.000000 1.802320 0.000000 
#    z 0.000000 0.000000 1.790090 
# 
# From -- ./inp_files/40863.got.cif
#   From: 2010.03.12/outbox.cif.g09.slc.cpg/sg65_21_cif.got.tgz:40863.got - 2010.04.10 20:52:16.
