data_PCOD8273440
_publ_section_title
;
Structure prediction by ZEFSAII (Michael W. Deem and Ramdas Pophale) SiO2 
 PCOD8273440
Probable space group: C M M M
;
_chemical_formula_sum "Si O2"
_cell_formula_units_Z 88
_cell_length_a 8.932127
_cell_length_b 17.892900
_cell_length_c 28.218147
_cell_angle_alpha 90.000000
_cell_angle_beta 90.000000
_cell_angle_gamma 90.000000
_cell_volume 4509.870960
_symmetry_space_group_name_H-M "C M M M"
_symmetry_group_IT_number 65
_symmetry_cell_setting 'orthorhombic'
loop_
_space_group_symop_operation_xyz
x,y,z
-x,-y,z
x,-y,-z
-x,y,-z
-x,-y,-z
x,y,-z
-x,y,z
x,-y,z
1/2+x,1/2+y,z
1/2-x,1/2-y,z
1/2+x,1/2-y,-z
1/2-x,1/2+y,-z
1/2-x,1/2-y,-z
1/2+x,1/2+y,-z
1/2-x,1/2+y,z
1/2+x,1/2-y,z
loop_
_atom_site_type_symbol
_atom_site_label
_atom_site_fract_x
_atom_site_fract_y
_atom_site_fract_z
Si Si1 0.176095 0.330047 0.678968
Si Si2 0.173307 0.413362 0.774165
Si Si3 0.177289 0.829194 0.857261
Si Si4 0.177772 0.916368 0.052342
Si Si5 0.823450 0.829977 0.500000
Si Si6 0.672716 0.412648 0.405554
O O1 0.250000 0.250000 0.673116
O O2 0.224559 0.366390 0.728621
O O3 0.227839 0.384446 0.637541
O O4 0.000000 0.320056 0.675770
O O5 0.203276 0.500000 0.763474
O O6 0.275082 0.388597 0.817874
O O7 0.000000 0.398546 0.786471
O O8 0.250000 0.750000 0.845923
O O9 0.237924 0.859258 0.907991
O O10 0.000000 0.820385 0.856801
O O11 0.000000 0.918830 0.054303
O O12 0.239587 0.000000 0.062430
O O13 0.231366 0.889671 0.000000
O O14 0.750000 0.750000 0.500000
O O15 0.769931 0.874248 0.546387
O O16 0.000000 0.820771 0.500000
O O17 0.500000 0.393020 0.395289
O O18 0.697422 0.500000 0.411840
#
# Coordination Sequence:
#
# PCOD8273440 Si02
#       6
#    16  16  16  16   8  16
#     4  11  23  39  59  84 114 147 184 226 274 328
#     4  10  22  40  60  82 110 143 179 225 279 329
#     4  11  22  35  54  81 111 145 185 226 270 323
#     4   8  15  30  52  77 105 138 178 224 272 322
#     4  10  21  37  57  83 115 150 187 228 276 328
#     4  10  21  38  60  85 114 149 188 230 276 326
#
# _framework density 19.512753
#
# number of rings (size 3 to 8) (size 9 to 14) (size 15 to 20)
#    0.000    2.000    0.000    4.091    0.000    8.727 
#    0.000    0.000    0.000    3.273    0.000    6.364 
#    0.000    0.000    0.000    0.000    0.000    0.000 
#
# Total GULP energy -545723.346652 kJ/mol
# GULP energy per Si atom -12402.803333 kJ/mol
# Density = 1.946834 g / cm^3
# Si number density = 19.512753 Si / 1000 Ang^3
#
#
#
# Elastic Constant Matrix: (Units=GPa)
#
#
# Indices 1 2 3 4 5 6 
#
# 1 48.8831 25.2289 40.2907 0.0000 0.0000 0.0000
# 2 25.2289 93.1456 40.1985 0.0000 0.0000 0.0000
# 3 40.2907 40.1985 135.7433 0.0000 0.0000 0.0000
# 4 0.0000 0.0000 0.0000 40.2647 0.0000 0.0000
# 5 0.0000 0.0000 0.0000 0.0000 -12.9567 0.0000
# 6 0.0000 0.0000 0.0000 0.0000 0.0000 25.2017
#
#
#
# Elastic Compliance Matrix: (Units=1/GPa)
#
#
# Indices 1 2 3 4 5 6 
#
# 1 0.028779 -0.004710 -0.007147 0.000000 0.000000 0.000000
# 2 -0.004710 0.013080 -0.002475 0.000000 0.000000 0.000000
# 3 -0.007147 -0.002475 0.010221 0.000000 0.000000 0.000000
# 4 0.000000 0.000000 0.000000 0.024836 0.000000 0.000000
# 5 0.000000 0.000000 0.000000 0.000000 -0.077180 0.000000
# 6 0.000000 0.000000 0.000000 0.000000 0.000000 0.039680
#
#
# Mechanical properties :
#
#
# Convention : Reuss Voigt Hill
#
# Bulk Modulus (GPa) = 42.70874 54.35645 48.53260
# Shear Modulus (GPa) = 65.88830 21.97219 43.93025
#
# Velocity S-wave (km/s) = 5.81722 3.35930 4.75000
# Velocity P-wave (km/s) = 8.18873 6.55468 7.41684
#
# Compressibility (1/GPa) = 0.02341441
#
# Stress axis : x y z
#
# Youngs Moduli (GPa) = 34.74776 76.45262 97.83550
#
# Poissons Ratio (x) = 0.36012 0.69924
# Poissons Ratio (y) = 0.16368 0.24218
# Poissons Ratio (z) = 0.24834 0.18925
#
# Static dielectric constant tensor:
#      x y z
#    x 3.445430 0.000000 0.000000 
#    y 0.000000 3.630640 0.000000 
#    z 0.000000 0.000000 3.842610 
# 
# 
# High freq. dielectric constant tensor:
#      x y z
#    x 1.739120 0.000000 0.000000 
#    y 0.000000 1.771490 0.000000 
#    z 0.000000 0.000000 1.777460 
# 
# From -- ./inp_files/67576.got.cif
#   From: 2010.03.12/outbox.cif.g09.slc.cpg/sg65_34_cif.got.tgz:67576.got - 2010.04.10 20:52:16.
