data_PCOD8273085
_publ_section_title
;
Structure prediction by ZEFSAII (Michael W. Deem and Ramdas Pophale) SiO2 
 PCOD8273085
Probable space group: C M M M
;
_chemical_formula_sum "Si O2"
_cell_formula_units_Z 104
_cell_length_a 28.423399
_cell_length_b 9.366970
_cell_length_c 20.160676
_cell_angle_alpha 90.000000
_cell_angle_beta 90.000000
_cell_angle_gamma 90.000000
_cell_volume 5367.601074
_symmetry_space_group_name_H-M "C M M M"
_symmetry_group_IT_number 65
_symmetry_cell_setting 'orthorhombic'
loop_
_space_group_symop_operation_xyz
x,y,z
-x,-y,z
x,-y,-z
-x,y,-z
-x,-y,-z
x,y,-z
-x,y,z
x,-y,z
1/2+x,1/2+y,z
1/2-x,1/2-y,z
1/2+x,1/2-y,-z
1/2-x,1/2+y,-z
1/2-x,1/2-y,-z
1/2+x,1/2+y,-z
1/2-x,1/2+y,z
1/2+x,1/2-y,z
loop_
_atom_site_type_symbol
_atom_site_label
_atom_site_fract_x
_atom_site_fract_y
_atom_site_fract_z
Si Si1 0.054756 0.667098 0.869869
Si Si2 0.948516 0.339730 0.578823
Si Si3 0.703876 0.664782 0.075137
Si Si4 0.639682 0.333556 0.575075
Si Si5 0.132693 0.166322 0.810601
Si Si6 0.702848 0.334161 0.694197
Si Si7 0.444695 0.660323 0.000000
O O1 0.065825 0.500000 0.878708
O O2 0.085637 0.736235 0.810654
O O3 0.000000 0.691165 0.853281
O O4 0.070751 0.750922 0.935841
O O5 0.948370 0.335728 0.500000
O O6 0.939235 0.500000 0.604329
O O7 0.906903 0.239871 0.605523
O O8 0.000000 0.287116 0.604377
O O9 0.717174 0.500000 0.082766
O O10 0.750000 0.750000 0.096639
O O11 0.661752 0.706447 0.123604
O O12 0.688234 0.702476 0.000000
O O13 0.650991 0.282293 0.500000
O O14 0.628906 0.500000 0.577464
O O15 0.684197 0.294351 0.620722
O O16 0.162858 0.208804 0.746490
O O17 0.118414 0.000000 0.809112
O O18 0.715095 0.500000 0.700330
O O19 0.750000 0.250000 0.709861
O O20 0.421483 0.500000 0.000000
O O21 0.500000 0.641811 0.000000
#
# Coordination Sequence:
#
# PCOD8273085 Si02
#       7
#    16  16  16  16  16  16   8
#     4  10  21  36  54  80 113 145 183 230 272 316
#     4   8  14  26  46  74 107 139 171 209 254 308
#     4   9  18  32  50  74 101 128 164 211 257 305
#     4   9  18  33  53  78 108 140 178 225 274 327
#     4  10  21  36  55  77 104 140 180 220 265 325
#     4  10  22  39  57  79 106 138 179 225 275 333
#     4   9  17  31  53  79 108 145 184 221 267 317
#
# _framework density 19.375509000000001
#
# number of rings (size 3 to 8) (size 9 to 14) (size 15 to 20)
#    0.000    2.692    0.000    1.615    1.077    4.308 
#    0.000    2.308    0.000    4.615    0.000    0.000 
#    0.000    0.000    0.000    0.000    0.000    0.000 
#
# Total GULP energy -644713.875692 kJ/mol
# GULP energy per Si atom -12398.343763 kJ/mol
# Density = 1.933141 g / cm^3
# Si number density = 19.375509 Si / 1000 Ang^3
#
#
#
# Elastic Constant Matrix: (Units=GPa)
#
#
# Indices 1 2 3 4 5 6 
#
# 1 108.5501 64.5436 53.2632 0.0000 0.0000 0.0000
# 2 64.5436 86.9585 42.9820 0.0000 0.0000 0.0000
# 3 53.2632 42.9820 80.9435 0.0000 0.0000 0.0000
# 4 0.0000 0.0000 0.0000 18.4161 0.0000 0.0000
# 5 0.0000 0.0000 0.0000 0.0000 21.6623 0.0000
# 6 0.0000 0.0000 0.0000 0.0000 0.0000 38.1691
#
#
#
# Elastic Compliance Matrix: (Units=1/GPa)
#
#
# Indices 1 2 3 4 5 6 
#
# 1 0.018868 -0.010667 -0.006751 0.000000 0.000000 0.000000
# 2 -0.010667 0.021623 -0.004463 0.000000 0.000000 0.000000
# 3 -0.006751 -0.004463 0.019166 0.000000 0.000000 0.000000
# 4 0.000000 0.000000 0.000000 0.054300 0.000000 0.000000
# 5 0.000000 0.000000 0.000000 0.000000 0.046163 0.000000
# 6 0.000000 0.000000 0.000000 0.000000 0.000000 0.026199
#
#
# Mechanical properties :
#
#
# Convention : Reuss Voigt Hill
#
# Bulk Modulus (GPa) = 62.91233 66.44774 64.68003
# Shear Modulus (GPa) = 21.24218 23.36039 22.30129
#
# Velocity S-wave (km/s) = 3.31470 3.47604 3.39633
# Velocity P-wave (km/s) = 6.86951 7.10490 6.98820
#
# Compressibility (1/GPa) = 0.01589513
#
# Stress axis : x y z
#
# Youngs Moduli (GPa) = 53.00072 46.24649 52.17445
#
# Poissons Ratio (x) = 0.49333 0.35223
# Poissons Ratio (y) = 0.56538 0.23284
# Poissons Ratio (z) = 0.35781 0.20639
#
# Static dielectric constant tensor:
#      x y z
#    x 3.588460 0.000000 0.000000 
#    y 0.000000 3.530900 0.000000 
#    z 0.000000 0.000000 3.483550 
# 
# 
# High freq. dielectric constant tensor:
#      x y z
#    x 1.754730 0.000000 0.000000 
#    y 0.000000 1.749080 0.000000 
#    z 0.000000 0.000000 1.736250 
# 
# From -- ./inp_files/65936.got.cif
#   From: 2010.03.12/outbox.cif.g09.slc.cpg/sg65_33_cif.got.tgz:65936.got - 2010.04.10 20:52:16.
