data_PCOD8273030
_publ_section_title
;
Structure prediction by ZEFSAII (Michael W. Deem and Ramdas Pophale) SiO2 
 PCOD8273030
Probable space group: C M M M
;
_chemical_formula_sum "Si O2"
_cell_formula_units_Z 88
_cell_length_a 18.146911
_cell_length_b 9.047248
_cell_length_c 28.352386
_cell_angle_alpha 90.000000
_cell_angle_beta 90.000000
_cell_angle_gamma 90.000000
_cell_volume 4654.883513
_symmetry_space_group_name_H-M "C M M M"
_symmetry_group_IT_number 65
_symmetry_cell_setting 'orthorhombic'
loop_
_space_group_symop_operation_xyz
x,y,z
-x,-y,z
x,-y,-z
-x,y,-z
-x,-y,-z
x,y,-z
-x,y,z
x,-y,z
1/2+x,1/2+y,z
1/2-x,1/2-y,z
1/2+x,1/2-y,-z
1/2-x,1/2+y,-z
1/2-x,1/2-y,-z
1/2+x,1/2+y,-z
1/2-x,1/2+y,z
1/2+x,1/2-y,z
loop_
_atom_site_type_symbol
_atom_site_label
_atom_site_fract_x
_atom_site_fract_y
_atom_site_fract_z
Si Si1 0.672266 0.173415 0.184465
Si Si2 0.913686 0.330139 0.278187
Si Si3 0.415248 0.826162 0.906875
Si Si4 0.172071 0.175409 0.359008
Si Si5 0.412353 0.333092 0.000000
Si Si6 0.417635 0.324541 0.447815
O O1 0.750000 0.250000 0.190186
O O2 0.622432 0.216209 0.228919
O O3 0.631344 0.230812 0.137632
O O4 0.685185 0.000000 0.181518
O O5 0.895150 0.500000 0.291026
O O6 0.883774 0.222559 0.318351
O O7 0.000000 0.304611 0.273074
O O8 0.500000 0.781580 0.898049
O O9 0.407649 0.000000 0.914367
O O10 0.382362 0.747635 0.953279
O O11 0.250000 0.250000 0.349852
O O12 0.139421 0.234414 0.408803
O O13 0.181435 0.000000 0.358403
O O14 0.382949 0.500000 0.000000
O O15 0.500000 0.324832 0.000000
O O16 0.392128 0.271180 0.500000
O O17 0.500000 0.263580 0.437158
O O18 0.420080 0.500000 0.446030
#
# Coordination Sequence:
#
# PCOD8273030 Si02
#       6
#    16  16  16  16   8  16
#     4  10  21  36  54  77 105 137 172 211 257 309
#     4  10  21  38  59  81 106 137 174 218 267 317
#     4   9  17  32  54  76  99 132 174 213 250 299
#     4  11  22  35  53  79 110 143 179 218 263 316
#     4   9  17  29  48  77 108 133 163 209 260 303
#     4   8  15  30  52  76 102 135 177 223 267 311
#
# _framework density 18.904878
#
# number of rings (size 3 to 8) (size 9 to 14) (size 15 to 20)
#    0.000    2.455    0.000    3.000    0.000    7.636 
#    0.000    0.455    0.000    4.909    0.000    6.364 
#    0.000    0.000    0.000    0.000    0.000    0.000 
#
# Total GULP energy -545626.255336 kJ/mol
# GULP energy per Si atom -12400.596712 kJ/mol
# Density = 1.886185 g / cm^3
# Si number density = 18.904878 Si / 1000 Ang^3
#
#
#
# Elastic Constant Matrix: (Units=GPa)
#
#
# Indices 1 2 3 4 5 6 
#
# 1 106.5898 35.4752 67.8180 0.0000 0.0000 0.0000
# 2 35.4752 49.9329 49.4699 0.0000 0.0000 0.0000
# 3 67.8180 49.4699 163.8924 0.0000 0.0000 0.0000
# 4 0.0000 0.0000 0.0000 27.6070 0.0000 0.0000
# 5 0.0000 0.0000 0.0000 0.0000 -8.3734 0.0000
# 6 0.0000 0.0000 0.0000 0.0000 0.0000 21.9629
#
#
#
# Elastic Compliance Matrix: (Units=1/GPa)
#
#
# Indices 1 2 3 4 5 6 
#
# 1 0.013871 -0.005946 -0.003945 0.000000 0.000000 0.000000
# 2 -0.005946 0.031120 -0.006933 0.000000 0.000000 0.000000
# 3 -0.003945 -0.006933 0.009827 0.000000 0.000000 0.000000
# 4 0.000000 0.000000 0.000000 0.036223 0.000000 0.000000
# 5 0.000000 0.000000 0.000000 0.000000 -0.119426 0.000000
# 6 0.000000 0.000000 0.000000 0.000000 0.000000 0.045531
#
#
# Mechanical properties :
#
#
# Convention : Reuss Voigt Hill
#
# Bulk Modulus (GPa) = 47.23803 69.54902 58.39352
# Shear Modulus (GPa) = 86.43054 19.41609 52.92332
#
# Velocity S-wave (km/s) = 6.76889 3.20823 5.29673
# Velocity P-wave (km/s) = 9.28073 7.11283 8.26814
#
# Compressibility (1/GPa) = 0.02116939
#
# Stress axis : x y z
#
# Youngs Moduli (GPa) = 72.09448 32.13368 101.76543
#
# Poissons Ratio (x) = 0.19108 0.40144
# Poissons Ratio (y) = 0.42870 0.70552
# Poissons Ratio (z) = 0.28440 0.22278
#
# Static dielectric constant tensor:
#      x y z
#    x 3.394060 0.000000 0.000000 
#    y 0.000000 3.266560 0.000000 
#    z 0.000000 0.000000 3.808370 
# 
# 
# High freq. dielectric constant tensor:
#      x y z
#    x 1.727600 0.000000 0.000000 
#    y 0.000000 1.711430 0.000000 
#    z 0.000000 0.000000 1.753250 
# 
# From -- ./inp_files/77891.got.cif
#   From: 2010.03.12/outbox.cif.g09.slc.cpg/sg65_39_cif.got.tgz:77891.got - 2010.04.10 20:52:16.
