data_PCOD8273495
_publ_section_title
;
Structure prediction by ZEFSAII (Michael W. Deem and Ramdas Pophale) SiO2 
 PCOD8273495
Probable space group: C M M M
;
_chemical_formula_sum "Si O2"
_cell_formula_units_Z 88
_cell_length_a 9.170226
_cell_length_b 18.901332
_cell_length_c 24.963797
_cell_angle_alpha 90.000000
_cell_angle_beta 90.000000
_cell_angle_gamma 90.000000
_cell_volume 4326.962106
_symmetry_space_group_name_H-M "C M M M"
_symmetry_group_IT_number 65
_symmetry_cell_setting 'orthorhombic'
loop_
_space_group_symop_operation_xyz
x,y,z
-x,-y,z
x,-y,-z
-x,y,-z
-x,-y,-z
x,y,-z
-x,y,z
x,-y,z
1/2+x,1/2+y,z
1/2-x,1/2-y,z
1/2+x,1/2-y,-z
1/2-x,1/2+y,-z
1/2-x,1/2-y,-z
1/2+x,1/2+y,-z
1/2-x,1/2+y,z
1/2+x,1/2-y,z
loop_
_atom_site_type_symbol
_atom_site_label
_atom_site_fract_x
_atom_site_fract_y
_atom_site_fract_z
Si Si1 0.168228 0.583492 0.250527
Si Si2 0.000000 0.422086 0.937912
Si Si3 0.169267 0.678516 0.437269
Si Si4 0.667571 0.583686 0.643126
Si Si5 0.277958 0.332046 0.058538
Si Si6 0.659021 0.678343 0.172657
O O1 0.181380 0.500000 0.244730
O O2 0.250067 0.610659 0.303728
O O3 0.248369 0.616379 0.199546
O O4 0.000000 0.607841 0.252742
O O5 0.863155 0.374911 0.922246
O O6 0.000000 0.500000 0.908988
O O7 0.000000 0.436879 0.000000
O O8 0.187164 0.664541 0.500000
O O9 0.250000 0.750000 0.419584
O O10 0.248294 0.614062 0.407958
O O11 0.000000 0.683190 0.420681
O O12 0.500000 0.609650 0.644457
O O13 0.676333 0.500000 0.638380
O O14 0.250000 0.250000 0.049704
O O15 0.379045 0.341071 0.110420
O O16 0.338032 0.360211 0.000000
O O17 0.500000 0.686398 0.200500
O O18 0.750000 0.750000 0.177860
#
# Coordination Sequence:
#
# PCOD8273495 Si02
#       6
#    16   8  16  16  16  16
#     4  10  22  41  64  87 114 151 195 243 297 357
#     4   9  18  34  56  84 115 149 193 241 287 347
#     4  10  21  37  58  86 122 162 203 246 292 346
#     4  10  21  38  61  88 119 154 196 246 297 352
#     4   9  20  35  57  85 116 153 194 241 295 358
#     4  11  24  39  59  86 118 152 193 244 294 351
#
# _framework density 20.337595
#
# number of rings (size 3 to 8) (size 9 to 14) (size 15 to 20)
#    0.000    2.091    0.000    2.182    6.364    5.455 
#    0.000    5.455    0.000    0.000    0.000    3.818 
#    0.000    0.000    0.000    0.000    0.000    0.000 
#
# Total GULP energy -545236.208012 kJ/mol
# GULP energy per Si atom -12391.732000 kJ/mol
# Density = 2.029131 g / cm^3
# Si number density = 20.337595 Si / 1000 Ang^3
#
#
#
# Elastic Constant Matrix: (Units=GPa)
#
#
# Indices 1 2 3 4 5 6 
#
# 1 175.1667 50.2720 52.8386 0.0000 0.0000 0.0000
# 2 50.2720 65.9073 28.6915 0.0000 0.0000 0.0000
# 3 52.8386 28.6915 97.8967 0.0000 0.0000 0.0000
# 4 0.0000 0.0000 0.0000 36.0032 0.0000 0.0000
# 5 0.0000 0.0000 0.0000 0.0000 25.7178 0.0000
# 6 0.0000 0.0000 0.0000 0.0000 0.0000 33.0221
#
#
#
# Elastic Compliance Matrix: (Units=1/GPa)
#
#
# Indices 1 2 3 4 5 6 
#
# 1 0.007962 -0.004817 -0.002886 0.000000 0.000000 0.000000
# 2 -0.004817 0.020306 -0.003351 0.000000 0.000000 0.000000
# 3 -0.002886 -0.003351 0.012755 0.000000 0.000000 0.000000
# 4 0.000000 0.000000 0.000000 0.027775 0.000000 0.000000
# 5 0.000000 0.000000 0.000000 0.000000 0.038884 0.000000
# 6 0.000000 0.000000 0.000000 0.000000 0.000000 0.030283
#
#
# Mechanical properties :
#
#
# Convention : Reuss Voigt Hill
#
# Bulk Modulus (GPa) = 52.86916 66.95276 59.91096
# Shear Modulus (GPa) = 30.05241 32.75984 31.40613
#
# Velocity S-wave (km/s) = 3.84823 4.01783 3.93395
# Velocity P-wave (km/s) = 6.76737 7.38350 7.08214
#
# Compressibility (1/GPa) = 0.01891462
#
# Stress axis : x y z
#
# Youngs Moduli (GPa) = 125.60234 49.24686 78.40359
#
# Poissons Ratio (x) = 0.23721 0.22624
# Poissons Ratio (y) = 0.60499 0.26277
# Poissons Ratio (z) = 0.36243 0.16505
#
# Static dielectric constant tensor:
#      x y z
#    x 3.883690 0.000000 0.000000 
#    y 0.000000 3.581710 0.000000 
#    z 0.000000 0.000000 3.802460 
# 
# 
# High freq. dielectric constant tensor:
#      x y z
#    x 1.806530 0.000000 0.000000 
#    y 0.000000 1.782040 0.000000 
#    z 0.000000 0.000000 1.796900 
# 
# From -- ./inp_files/67482.got.cif
#   From: 2010.03.12/outbox.cif.g09.slc.cpg/sg65_34_cif.got.tgz:67482.got - 2010.04.10 20:52:16.
