data_PCOD8273456
_publ_section_title
;
Structure prediction by ZEFSAII (Michael W. Deem and Ramdas Pophale) SiO2 
 PCOD8273456
Probable space group: C M M M
;
_chemical_formula_sum "Si O2"
_cell_formula_units_Z 88
_cell_length_a 13.310256
_cell_length_b 24.956603
_cell_length_c 13.084462
_cell_angle_alpha 90.000000
_cell_angle_beta 90.000000
_cell_angle_gamma 90.000000
_cell_volume 4346.380556
_symmetry_space_group_name_H-M "C M M M"
_symmetry_group_IT_number 65
_symmetry_cell_setting 'orthorhombic'
loop_
_space_group_symop_operation_xyz
x,y,z
-x,-y,z
x,-y,-z
-x,y,-z
-x,-y,-z
x,y,-z
-x,y,z
x,-y,z
1/2+x,1/2+y,z
1/2-x,1/2-y,z
1/2+x,1/2-y,-z
1/2-x,1/2+y,-z
1/2-x,1/2-y,-z
1/2+x,1/2+y,-z
1/2-x,1/2+y,z
1/2+x,1/2-y,z
loop_
_atom_site_type_symbol
_atom_site_label
_atom_site_fract_x
_atom_site_fract_y
_atom_site_fract_z
Si Si1 0.617860 0.749530 0.000000
Si Si2 0.257198 0.381146 0.672564
Si Si3 0.385687 0.212769 0.614065
Si Si4 0.384555 0.061001 0.188003
Si Si5 0.119297 0.368804 0.000000
Si Si6 0.881640 0.062785 0.500000
Si Si7 0.118116 0.200576 0.214199
O O1 0.654384 0.720045 0.102586
O O2 0.500000 0.754952 0.000000
O O3 0.665371 0.809093 0.000000
O O4 0.186437 0.338180 0.617101
O O5 0.185196 0.427705 0.715043
O O6 0.335455 0.409038 0.598274
O O7 0.322030 0.353564 0.762210
O O8 0.377035 0.238489 0.500000
O O9 0.500000 0.194007 0.635733
O O10 0.353420 0.255916 0.698935
O O11 0.500000 0.073444 0.216530
O O12 0.372430 0.000000 0.151699
O O13 0.343933 0.099707 0.099443
O O14 0.000000 0.367040 0.000000
O O15 0.000000 0.073346 0.500000
O O16 0.856279 0.000000 0.500000
O O17 0.000000 0.188544 0.215056
#
# Coordination Sequence:
#
# PCOD8273456 Si02
#       7
#     8  16  16  16   8   8  16
#     4   9  18  36  56  84 123 158 197 235 286 349
#     4  12  22  38  61  87 114 152 200 242 303 353
#     4  10  21  37  57  86 122 156 194 234 285 351
#     4  10  21  37  58  86 119 155 199 248 296 350
#     4   9  17  33  59  85 120 165 197 230 284 349
#     4  11  26  46  64  83 111 149 200 260 312 359
#     4  10  22  37  58  87 123 164 198 240 288 349
#
# _framework density 20.246732000000002
#
# number of rings (size 3 to 8) (size 9 to 14) (size 15 to 20)
#    0.000    1.727    0.909    3.545    1.273    5.455 
#    0.000    2.727    0.000    2.182    0.000    0.000 
#    0.000   10.182    0.000    0.000    0.000    0.000 
#
# Total GULP energy -545606.587265 kJ/mol
# GULP energy per Si atom -12400.149711 kJ/mol
# Density = 2.020065 g / cm^3
# Si number density = 20.246732 Si / 1000 Ang^3
#
#
#
# Elastic Constant Matrix: (Units=GPa)
#
#
# Indices 1 2 3 4 5 6 
#
# 1 101.8022 54.4377 44.4769 0.0000 0.0000 0.0000
# 2 54.4377 113.8136 66.0747 0.0000 0.0000 0.0000
# 3 44.4769 66.0747 152.2520 0.0000 0.0000 0.0000
# 4 0.0000 0.0000 0.0000 2.1656 0.0000 0.0000
# 5 0.0000 0.0000 0.0000 0.0000 -7.9401 0.0000
# 6 0.0000 0.0000 0.0000 0.0000 0.0000 33.4886
#
#
#
# Elastic Compliance Matrix: (Units=1/GPa)
#
#
# Indices 1 2 3 4 5 6 
#
# 1 0.013457 -0.005554 -0.001521 0.000000 0.000000 0.000000
# 2 -0.005554 0.014038 -0.004470 0.000000 0.000000 0.000000
# 3 -0.001521 -0.004470 0.008952 0.000000 0.000000 0.000000
# 4 0.000000 0.000000 0.000000 0.461774 0.000000 0.000000
# 5 0.000000 0.000000 0.000000 0.000000 -0.125943 0.000000
# 6 0.000000 0.000000 0.000000 0.000000 0.000000 0.029861
#
#
# Mechanical properties :
#
#
# Convention : Reuss Voigt Hill
#
# Bulk Modulus (GPa) = 74.86027 77.53848 76.19937
# Shear Modulus (GPa) = 11.63655 19.06803 15.35229
#
# Velocity S-wave (km/s) = 2.39997 3.07218 2.75664
# Velocity P-wave (km/s) = 6.68835 7.13893 6.91731
#
# Compressibility (1/GPa) = 0.01335822
#
# Stress axis : x y z
#
# Youngs Moduli (GPa) = 74.30927 71.23770 111.70497
#
# Poissons Ratio (x) = 0.39563 0.16991
# Poissons Ratio (y) = 0.41269 0.49928
# Poissons Ratio (z) = 0.11303 0.31841
#
# Static dielectric constant tensor:
#      x y z
#    x 3.740540 0.000000 0.000000 
#    y 0.000000 3.563970 0.000000 
#    z 0.000000 0.000000 3.795200 
# 
# 
# High freq. dielectric constant tensor:
#      x y z
#    x 1.803500 0.000000 0.000000 
#    y 0.000000 1.777520 0.000000 
#    z 0.000000 0.000000 1.795950 
# 
# From -- ./inp_files/24872.got.cif
#   From: 2010.03.12/outbox.cif.g09.slc.cpg/sg65_13_cif.got.tgz:24872.got - 2010.04.10 20:52:16.
