data_PCOD8273724
_publ_section_title
;
Structure prediction by ZEFSAII (Michael W. Deem and Ramdas Pophale) SiO2 
 PCOD8273724
Probable space group: C M M M
;
_chemical_formula_sum "Si O2"
_cell_formula_units_Z 64
_cell_length_a 17.640819
_cell_length_b 24.309653
_cell_length_c 7.558663
_cell_angle_alpha 90.000000
_cell_angle_beta 90.000000
_cell_angle_gamma 90.000000
_cell_volume 3241.473583
_symmetry_space_group_name_H-M "C M M M"
_symmetry_group_IT_number 65
_symmetry_cell_setting 'orthorhombic'
loop_
_space_group_symop_operation_xyz
x,y,z
-x,-y,z
x,-y,-z
-x,y,-z
-x,-y,-z
x,y,-z
-x,y,z
x,-y,z
1/2+x,1/2+y,z
1/2-x,1/2-y,z
1/2+x,1/2-y,-z
1/2-x,1/2+y,-z
1/2-x,1/2-y,-z
1/2+x,1/2+y,-z
1/2-x,1/2+y,z
1/2+x,1/2-y,z
loop_
_atom_site_type_symbol
_atom_site_label
_atom_site_fract_x
_atom_site_fract_y
_atom_site_fract_z
Si Si1 0.586325 0.153529 0.294195
Si Si2 0.703081 0.937296 0.200694
Si Si3 0.665294 0.261655 0.801344
Si Si4 0.410828 0.331430 0.500000
Si Si5 0.178618 0.063531 0.500000
O O1 0.593791 0.167353 0.500000
O O2 0.500000 0.144404 0.236321
O O3 0.629870 0.098226 0.245336
O O4 0.620054 0.204695 0.188883
O O5 0.772723 0.921718 0.326634
O O6 0.678356 0.000000 0.233762
O O7 0.730193 0.927286 0.000000
O O8 0.750000 0.250000 0.730358
O O9 0.624559 0.304999 0.675164
O O10 0.668130 0.286467 0.000000
O O11 0.500000 0.320994 0.500000
O O12 0.394206 0.396782 0.500000
O O13 0.151646 0.000000 0.500000
#
# Coordination Sequence:
#
# PCOD8273724 Si02
#       5
#    16  16  16   8   8
#     4  11  22  36  57  86 122 159 194 239 295 351
#     4  10  21  38  61  87 115 155 204 245 287 344
#     4  11  24  41  63  89 119 159 204 247 293 349
#     4  12  25  40  62  92 124 155 194 245 300 363
#     4  10  22  42  65  87 116 151 193 248 297 347
#
# _framework density 19.744107
#
# number of rings (size 3 to 8) (size 9 to 14) (size 15 to 20)
#    0.000    1.250    2.500    3.375    0.000    7.250 
#    0.000    2.500    0.000    0.000    0.000    5.250 
#    0.000    0.000    0.000    0.000    0.000    0.000 
#
# Total GULP energy -396957.198269 kJ/mol
# GULP energy per Si atom -12404.912446 kJ/mol
# Density = 1.969917 g / cm^3
# Si number density = 19.744107 Si / 1000 Ang^3
#
#
#
# Elastic Constant Matrix: (Units=GPa)
#
#
# Indices 1 2 3 4 5 6 
#
# 1 114.1888 55.7995 55.9330 0.0000 0.0000 0.0000
# 2 55.7995 104.4591 28.9970 0.0000 0.0000 0.0000
# 3 55.9330 28.9970 109.0104 0.0000 0.0000 0.0000
# 4 0.0000 0.0000 0.0000 -2.2077 0.0000 0.0000
# 5 0.0000 0.0000 0.0000 0.0000 6.0631 0.0000
# 6 0.0000 0.0000 0.0000 0.0000 0.0000 28.9040
#
#
#
# Elastic Compliance Matrix: (Units=1/GPa)
#
#
# Indices 1 2 3 4 5 6 
#
# 1 0.014667 -0.006204 -0.005875 0.000000 0.000000 0.000000
# 2 -0.006204 0.012960 -0.000264 0.000000 0.000000 0.000000
# 3 -0.005875 -0.000264 0.012258 0.000000 0.000000 0.000000
# 4 0.000000 0.000000 0.000000 -0.452961 0.000000 0.000000
# 5 0.000000 0.000000 0.000000 0.000000 0.164933 0.000000
# 6 0.000000 0.000000 0.000000 0.000000 0.000000 0.034597
#
#
# Mechanical properties :
#
#
# Convention : Reuss Voigt Hill
#
# Bulk Modulus (GPa) = 65.79481 67.67971 66.73726
# Shear Modulus (GPa) = -27.20469 19.01379 -4.09545
#
# Velocity S-wave (km/s) = -3.71599 3.10661 -1.44179
# Velocity P-wave (km/s) = 3.87101 6.87174 5.57699
#
# Compressibility (1/GPa) = 0.01519877
#
# Stress axis : x y z
#
# Youngs Moduli (GPa) = 68.18101 77.15814 81.57686
#
# Poissons Ratio (x) = 0.47867 0.47929
# Poissons Ratio (y) = 0.42298 0.02157
# Poissons Ratio (z) = 0.40059 0.02040
#
# Static dielectric constant tensor:
#      x y z
#    x 3.484950 0.000000 0.000000 
#    y 0.000000 3.609860 0.000000 
#    z 0.000000 0.000000 3.820210 
# 
# 
# High freq. dielectric constant tensor:
#      x y z
#    x 1.756480 0.000000 0.000000 
#    y 0.000000 1.774000 0.000000 
#    z 0.000000 0.000000 1.787800 
# 
# From -- ./inp_files/6777.got.cif
#   From: 2010.03.12/outbox.cif.g09.slc.cpg/sg65_4_cif.got.tgz:6777.got - 2010.04.10 20:52:16.
