data_PCOD8273158
_publ_section_title
;
Structure prediction by ZEFSAII (Michael W. Deem and Ramdas Pophale) SiO2 
 PCOD8273158
Probable space group: C M M M
;
_chemical_formula_sum "Si O2"
_cell_formula_units_Z 120
_cell_length_a 26.830099
_cell_length_b 26.929963
_cell_length_c 9.567329
_cell_angle_alpha 90.000000
_cell_angle_beta 90.000000
_cell_angle_gamma 90.000000
_cell_volume 6912.716410
_symmetry_space_group_name_H-M "C M M M"
_symmetry_group_IT_number 65
_symmetry_cell_setting 'orthorhombic'
loop_
_space_group_symop_operation_xyz
x,y,z
-x,-y,z
x,-y,-z
-x,y,-z
-x,-y,-z
x,y,-z
-x,y,z
x,-y,z
1/2+x,1/2+y,z
1/2-x,1/2-y,z
1/2+x,1/2-y,-z
1/2-x,1/2+y,-z
1/2-x,1/2-y,-z
1/2+x,1/2+y,-z
1/2-x,1/2+y,z
1/2+x,1/2-y,z
loop_
_atom_site_type_symbol
_atom_site_label
_atom_site_fract_x
_atom_site_fract_y
_atom_site_fract_z
Si Si1 0.306111 0.242439 0.662042
Si Si2 0.109639 0.782835 0.159841
Si Si3 0.783206 0.443120 0.337795
Si Si4 0.311063 0.557002 0.839548
Si Si5 0.943273 0.682221 0.837195
Si Si6 0.000000 0.941329 0.338282
Si Si7 0.085908 0.106912 0.839013
Si Si8 0.641186 0.859713 0.338749
O O1 0.310924 0.256261 0.500000
O O2 0.250000 0.250000 0.715567
O O3 0.341198 0.280215 0.745672
O O4 0.321908 0.185958 0.692595
O O5 0.071481 0.738872 0.198476
O O6 0.081005 0.834284 0.186426
O O7 0.127480 0.778971 0.000000
O O8 0.770359 0.435805 0.500000
O O9 0.796529 0.500000 0.301665
O O10 0.735099 0.424752 0.253179
O O11 0.830586 0.410023 0.295000
O O12 0.324620 0.500000 0.806455
O O13 0.358394 0.590219 0.800682
O O14 0.295545 0.564099 0.000000
O O15 0.908830 0.644028 0.752351
O O16 0.000000 0.674032 0.789714
O O17 0.936198 0.670922 0.000000
O O18 0.951222 0.920502 0.263932
O O19 0.000000 0.924907 0.500000
O O20 0.000000 0.000000 0.322986
O O21 0.073205 0.093122 0.000000
O O22 0.625044 0.860593 0.500000
#
# Coordination Sequence:
#
# PCOD8273158 Si02
#       8
#    16  16  16  16  16   8  16  16
#     4   9  18  31  47  69 101 138 168 199 244 296
#     4   9  19  33  50  75 101 129 166 207 250 296
#     4   9  18  32  51  75 102 133 167 204 247 293
#     4   9  18  32  49  72 100 129 165 206 247 295
#     4   9  18  33  53  74  99 129 162 206 252 298
#     4  11  25  41  55  75 101 131 173 223 270 313
#     4  10  21  36  56  77  99 132 171 213 262 312
#     4   9  18  32  49  72 100 131 167 203 244 299
#
# _framework density 17.359311000000002
#
# number of rings (size 3 to 8) (size 9 to 14) (size 15 to 20)
#    0.000    2.733    0.000    0.600    2.800    3.200 
#    0.000    1.333    0.000    0.400    0.000    2.800 
#    0.000    0.000    0.000    0.000    0.000    0.000 
#
# Total GULP energy -744151.398215 kJ/mol
# GULP energy per Si atom -12402.523304 kJ/mol
# Density = 1.731980 g / cm^3
# Si number density = 17.359311 Si / 1000 Ang^3
#
#
#
# Elastic Constant Matrix: (Units=GPa)
#
#
# Indices 1 2 3 4 5 6 
#
# 1 143.3890 56.4345 73.6442 0.0000 0.0000 0.0000
# 2 56.4345 76.9782 45.8242 0.0000 0.0000 0.0000
# 3 73.6442 45.8242 78.6676 0.0000 0.0000 0.0000
# 4 0.0000 0.0000 0.0000 24.0790 0.0000 0.0000
# 5 0.0000 0.0000 0.0000 0.0000 28.0938 0.0000
# 6 0.0000 0.0000 0.0000 0.0000 0.0000 24.6596
#
#
#
# Elastic Compliance Matrix: (Units=1/GPa)
#
#
# Indices 1 2 3 4 5 6 
#
# 1 0.014124 -0.003802 -0.011007 0.000000 0.000000 0.000000
# 2 -0.003802 0.020910 -0.008621 0.000000 0.000000 0.000000
# 3 -0.011007 -0.008621 0.028038 0.000000 0.000000 0.000000
# 4 0.000000 0.000000 0.000000 0.041530 0.000000 0.000000
# 5 0.000000 0.000000 0.000000 0.000000 0.035595 0.000000
# 6 0.000000 0.000000 0.000000 0.000000 0.000000 0.040552
#
#
# Mechanical properties :
#
#
# Convention : Reuss Voigt Hill
#
# Bulk Modulus (GPa) = 61.68558 72.31563 67.00061
# Shear Modulus (GPa) = 21.45812 23.57528 22.51670
#
# Velocity S-wave (km/s) = 3.51966 3.68921 3.60543
# Velocity P-wave (km/s) = 7.22004 7.73922 7.48414
#
# Compressibility (1/GPa) = 0.01621124
#
# Stress axis : x y z
#
# Youngs Moduli (GPa) = 70.80357 47.82414 35.66629
#
# Poissons Ratio (x) = 0.18182 0.39258
# Poissons Ratio (y) = 0.26919 0.30748
# Poissons Ratio (z) = 0.77934 0.41229
#
# Static dielectric constant tensor:
#      x y z
#    x 3.191580 0.000000 0.000000 
#    y 0.000000 3.228170 0.000000 
#    z 0.000000 0.000000 3.252590 
# 
# 
# High freq. dielectric constant tensor:
#      x y z
#    x 1.664960 0.000000 0.000000 
#    y 0.000000 1.664070 0.000000 
#    z 0.000000 0.000000 1.669040 
# 
# From -- ./inp_files/17068.got.cif
#   From: 2010.03.12/outbox.cif.g09.slc.cpg/sg65_9_cif.got.tgz:17068.got - 2010.04.10 20:52:16.
