data_PCOD8273045
_publ_section_title
;
Structure prediction by ZEFSAII (Michael W. Deem and Ramdas Pophale) SiO2 
 PCOD8273045
Probable space group: C M M M
;
_chemical_formula_sum "Si O2"
_cell_formula_units_Z 72
_cell_length_a 18.615084
_cell_length_b 9.057640
_cell_length_c 22.661677
_cell_angle_alpha 90.000000
_cell_angle_beta 90.000000
_cell_angle_gamma 90.000000
_cell_volume 3820.956566
_symmetry_space_group_name_H-M "C M M M"
_symmetry_group_IT_number 65
_symmetry_cell_setting 'orthorhombic'
loop_
_space_group_symop_operation_xyz
x,y,z
-x,-y,z
x,-y,-z
-x,y,-z
-x,-y,-z
x,y,-z
-x,y,z
x,-y,z
1/2+x,1/2+y,z
1/2-x,1/2-y,z
1/2+x,1/2-y,-z
1/2-x,1/2+y,-z
1/2-x,1/2-y,-z
1/2+x,1/2+y,-z
1/2-x,1/2+y,z
1/2+x,1/2-y,z
loop_
_atom_site_type_symbol
_atom_site_label
_atom_site_fract_x
_atom_site_fract_y
_atom_site_fract_z
Si Si1 0.915668 0.663726 0.156171
Si Si2 0.672976 0.675419 0.611520
Si Si3 0.822391 0.172418 0.933297
Si Si4 0.417101 0.172030 0.290424
Si Si5 0.419139 0.674887 0.500000
O O1 0.885316 0.500000 0.142138
O O2 0.885224 0.781615 0.110586
O O3 0.896091 0.707570 0.223012
O O4 0.000000 0.663578 0.148232
O O5 0.682810 0.500000 0.612240
O O6 0.750000 0.750000 0.604763
O O7 0.634748 0.726424 0.671212
O O8 0.623399 0.730077 0.557513
O O9 0.750000 0.250000 0.911933
O O10 0.810168 0.000000 0.929077
O O11 0.842543 0.220748 0.000000
O O12 0.500000 0.213925 0.302795
O O13 0.404164 0.000000 0.304637
O O14 0.423894 0.500000 0.500000
O O15 0.500000 0.741966 0.500000
#
# Coordination Sequence:
#
# PCOD8273045 Si02
#       5
#    16  16  16  16   8
#     4   9  19  36  57  80 107 140 176 217 266 318
#     4  11  22  36  56  81 111 145 180 220 266 315
#     4  10  21  36  54  77 106 140 178 221 267 316
#     4   9  19  37  58  80 108 140 177 221 266 316
#     4   9  19  36  57  81 108 139 178 223 268 316
#
# _framework density 18.843449
#
# number of rings (size 3 to 8) (size 9 to 14) (size 15 to 20)
#    0.000    2.333    0.000    3.667    0.000    5.333 
#    0.000    6.111    0.000    4.000    0.000    0.000 
#    0.000    0.000    0.000    0.000    0.000    0.000 
#
# Total GULP energy -446454.229481 kJ/mol
# GULP energy per Si atom -12401.506374 kJ/mol
# Density = 1.880056 g / cm^3
# Si number density = 18.843449 Si / 1000 Ang^3
#
#
#
# Elastic Constant Matrix: (Units=GPa)
#
#
# Indices 1 2 3 4 5 6 
#
# 1 107.9971 46.9389 70.8162 0.0000 0.0000 0.0000
# 2 46.9389 72.3782 48.5493 0.0000 0.0000 0.0000
# 3 70.8162 48.5493 117.9426 0.0000 0.0000 0.0000
# 4 0.0000 0.0000 0.0000 182.2537 0.0000 0.0000
# 5 0.0000 0.0000 0.0000 0.0000 25.1464 0.0000
# 6 0.0000 0.0000 0.0000 0.0000 0.0000 28.4597
#
#
#
# Elastic Compliance Matrix: (Units=1/GPa)
#
#
# Indices 1 2 3 4 5 6 
#
# 1 0.016824 -0.005712 -0.007751 0.000000 0.000000 0.000000
# 2 -0.005712 0.021026 -0.005225 0.000000 0.000000 0.000000
# 3 -0.007751 -0.005225 0.015283 0.000000 0.000000 0.000000
# 4 0.000000 0.000000 0.000000 0.005487 0.000000 0.000000
# 5 0.000000 0.000000 0.000000 0.000000 0.039767 0.000000
# 6 0.000000 0.000000 0.000000 0.000000 0.000000 0.035137
#
#
# Mechanical properties :
#
#
# Convention : Reuss Voigt Hill
#
# Bulk Modulus (GPa) = 63.46154 70.10297 66.78225
# Shear Modulus (GPa) = 28.38443 55.97286 42.17865
#
# Velocity S-wave (km/s) = 3.88536 5.45606 4.73628
# Velocity P-wave (km/s) = 7.34026 8.77355 8.08871
#
# Compressibility (1/GPa) = 0.01575757
#
# Stress axis : x y z
#
# Youngs Moduli (GPa) = 59.43755 47.56090 65.43133
#
# Poissons Ratio (x) = 0.27168 0.50713
# Poissons Ratio (y) = 0.33952 0.34189
# Poissons Ratio (z) = 0.46067 0.24851
#
# Static dielectric constant tensor:
#      x y z
#    x 3.430410 0.000000 0.000000 
#    y 0.000000 3.711830 0.000000 
#    z 0.000000 0.000000 3.565390 
# 
# 
# High freq. dielectric constant tensor:
#      x y z
#    x 1.733120 0.000000 0.000000 
#    y 0.000000 1.724380 0.000000 
#    z 0.000000 0.000000 1.741320 
# 
# From -- ./inp_files/70353.got.cif
#   From: 2010.03.12/outbox.cif.g09.slc.cpg/sg65_36_cif.got.tgz:70353.got - 2010.04.10 20:52:16.
