data_PCOD8273510
_publ_section_title
;
Structure prediction by ZEFSAII (Michael W. Deem and Ramdas Pophale) SiO2 
 PCOD8273510
Probable space group: C M M M
;
_chemical_formula_sum "Si O2"
_cell_formula_units_Z 56
_cell_length_a 18.048763
_cell_length_b 8.774188
_cell_length_c 18.316565
_cell_angle_alpha 90.000000
_cell_angle_beta 90.000000
_cell_angle_gamma 90.000000
_cell_volume 2900.670574
_symmetry_space_group_name_H-M "C M M M"
_symmetry_group_IT_number 65
_symmetry_cell_setting 'orthorhombic'
loop_
_space_group_symop_operation_xyz
x,y,z
-x,-y,z
x,-y,-z
-x,y,-z
-x,-y,-z
x,y,-z
-x,y,z
x,-y,z
1/2+x,1/2+y,z
1/2-x,1/2-y,z
1/2+x,1/2-y,-z
1/2-x,1/2+y,-z
1/2-x,1/2-y,-z
1/2+x,1/2+y,-z
1/2-x,1/2+y,z
1/2+x,1/2-y,z
loop_
_atom_site_type_symbol
_atom_site_label
_atom_site_fract_x
_atom_site_fract_y
_atom_site_fract_z
Si Si1 0.669395 0.821483 0.420960
Si Si2 0.831167 0.179307 0.276883
Si Si3 0.169537 0.679834 0.000000
Si Si4 0.086620 0.323582 0.144835
O O1 0.629359 0.792541 0.500000
O O2 0.750000 0.750000 0.425340
O O3 0.629820 0.741686 0.351768
O O4 0.675597 0.000000 0.405126
O O5 0.750000 0.250000 0.264740
O O6 0.884542 0.222549 0.211100
O O7 0.822733 0.000000 0.281775
O O8 0.250000 0.750000 0.000000
O O9 0.125730 0.735445 0.071370
O O10 0.176436 0.500000 0.000000
O O11 0.105178 0.500000 0.160321
O O12 0.000000 0.296873 0.134952
#
# Coordination Sequence:
#
# PCOD8273510 Si02
#       4
#    16  16   8  16
#     4   9  16  27  46  73 104 137 175 220 269 317
#     4  11  21  33  52  78 109 143 181 223 267 317
#     4  10  21  37  59  85 109 138 175 216 264 314
#     4  10  21  38  58  79 107 142 179 219 265 318
#
# _framework density 19.305879999999998
#
# number of rings (size 3 to 8) (size 9 to 14) (size 15 to 20)
#    0.000    2.000    0.000    6.429    0.000    7.429 
#    0.000    0.000    0.000    3.429    0.000    6.000 
#    0.000    0.000    0.000    0.000    0.000    0.000 
#
# Total GULP energy -347073.783834 kJ/mol
# GULP energy per Si atom -12395.492280 kJ/mol
# Density = 1.926194 g / cm^3
# Si number density = 19.305880 Si / 1000 Ang^3
#
#
#
# Elastic Constant Matrix: (Units=GPa)
#
#
# Indices 1 2 3 4 5 6 
#
# 1 73.4920 34.6758 56.2402 0.0000 0.0000 0.0000
# 2 34.6758 117.1903 71.8061 0.0000 0.0000 0.0000
# 3 56.2402 71.8061 200.8894 0.0000 0.0000 0.0000
# 4 0.0000 0.0000 0.0000 14.6415 0.0000 0.0000
# 5 0.0000 0.0000 0.0000 0.0000 0.1554 0.0000
# 6 0.0000 0.0000 0.0000 0.0000 0.0000 24.0713
#
#
#
# Elastic Compliance Matrix: (Units=1/GPa)
#
#
# Indices 1 2 3 4 5 6 
#
# 1 0.018042 -0.002873 -0.004024 0.000000 0.000000 0.000000
# 2 -0.002873 0.011384 -0.003265 0.000000 0.000000 0.000000
# 3 -0.004024 -0.003265 0.007271 0.000000 0.000000 0.000000
# 4 0.000000 0.000000 0.000000 0.068299 0.000000 0.000000
# 5 0.000000 0.000000 0.000000 0.000000 6.436455 0.000000
# 6 0.000000 0.000000 0.000000 0.000000 0.000000 0.041543
#
#
# Mechanical properties :
#
#
# Convention : Reuss Voigt Hill
#
# Bulk Modulus (GPa) = 61.07374 79.66842 70.37108
# Shear Modulus (GPa) = 0.75657 23.03028 11.89343
#
# Velocity S-wave (km/s) = 0.62669 3.45761 2.48473
# Velocity P-wave (km/s) = 5.67689 7.56942 6.69041
#
# Compressibility (1/GPa) = 0.01637365
#
# Stress axis : x y z
#
# Youngs Moduli (GPa) = 55.42678 87.84617 137.52579
#
# Poissons Ratio (x) = 0.25236 0.55341
# Poissons Ratio (y) = 0.15923 0.44898
# Poissons Ratio (z) = 0.22304 0.28679
#
# Static dielectric constant tensor:
#      x y z
#    x 3.085230 0.000000 0.000000 
#    y 0.000000 3.560460 0.000000 
#    z 0.000000 0.000000 4.471920 
# 
# 
# High freq. dielectric constant tensor:
#      x y z
#    x 1.705990 0.000000 0.000000 
#    y 0.000000 1.754710 0.000000 
#    z 0.000000 0.000000 1.783520 
# 
# From -- ./inp_files/48741.got.cif
#   From: 2010.03.12/outbox.cif.g09.slc.cpg/sg65_25_cif.got.tgz:48741.got - 2010.04.10 20:52:16.
