data_PCOD8273596
_publ_section_title
;
Structure prediction by ZEFSAII (Michael W. Deem and Ramdas Pophale) SiO2 
 PCOD8273596
Probable space group: C M M M
;
_chemical_formula_sum "Si O2"
_cell_formula_units_Z 88
_cell_length_a 27.815050
_cell_length_b 18.388002
_cell_length_c 8.967785
_cell_angle_alpha 90.000000
_cell_angle_beta 90.000000
_cell_angle_gamma 90.000000
_cell_volume 4586.691968
_symmetry_space_group_name_H-M "C M M M"
_symmetry_group_IT_number 65
_symmetry_cell_setting 'orthorhombic'
loop_
_space_group_symop_operation_xyz
x,y,z
-x,-y,z
x,-y,-z
-x,y,-z
-x,-y,-z
x,y,-z
-x,y,z
x,-y,z
1/2+x,1/2+y,z
1/2-x,1/2-y,z
1/2+x,1/2-y,-z
1/2-x,1/2+y,-z
1/2-x,1/2-y,-z
1/2+x,1/2+y,-z
1/2-x,1/2+y,z
1/2+x,1/2-y,z
loop_
_atom_site_type_symbol
_atom_site_label
_atom_site_fract_x
_atom_site_fract_y
_atom_site_fract_z
Si Si1 0.266836 0.583944 0.325546
Si Si2 0.814979 0.325766 0.826411
Si Si3 0.911049 0.361001 0.324070
Si Si4 0.445503 0.000000 0.161616
Si Si5 0.553553 0.720815 0.828028
Si Si6 0.654353 0.337320 0.170981
O O1 0.260545 0.598361 0.500000
O O2 0.255024 0.500000 0.286559
O O3 0.234103 0.640075 0.234115
O O4 0.321553 0.602063 0.276452
O O5 0.857220 0.363792 0.736631
O O6 0.818650 0.239342 0.800200
O O7 0.819658 0.344180 0.000000
O O8 0.909651 0.361818 0.500000
O O9 0.936160 0.431419 0.263268
O O10 0.941627 0.292015 0.271434
O O11 0.500000 0.000000 0.117286
O O12 0.417551 0.000000 0.000000
O O13 0.500000 0.686458 0.801696
O O14 0.597270 0.666084 0.787426
O O15 0.560058 0.744715 0.000000
O O16 0.660704 0.361193 0.000000
#
# Coordination Sequence:
#
# PCOD8273596 Si02
#       6
#    16  16  16   8  16  16
#     4  11  24  38  54  80 114 147 182 226 278 331
#     4  10  21  38  59  81 107 143 185 227 272 327
#     4  11  22  34  51  77 109 140 178 228 274 323
#     4  11  23  37  51  67  97 145 191 229 274 323
#     4   9  18  35  58  82 109 140 177 223 272 325
#     4   9  19  36  58  84 110 141 184 226 269 327
#
# _framework density 19.185941
#
# number of rings (size 3 to 8) (size 9 to 14) (size 15 to 20)
#    0.000    1.909    0.000    5.182    1.273   10.545 
#    0.000    0.000    0.000    0.545    0.000    3.818 
#    0.000    0.000    0.000    0.000    0.000    0.000 
#
# Total GULP energy -545473.290953 kJ/mol
# GULP energy per Si atom -12397.120249 kJ/mol
# Density = 1.914227 g / cm^3
# Si number density = 19.185941 Si / 1000 Ang^3
#
#
#
# Elastic Constant Matrix: (Units=GPa)
#
#
# Indices 1 2 3 4 5 6 
#
# 1 103.2799 20.7682 33.1774 0.0000 0.0000 0.0000
# 2 20.7682 34.3628 25.4027 0.0000 0.0000 0.0000
# 3 33.1774 25.4027 109.8459 0.0000 0.0000 0.0000
# 4 0.0000 0.0000 0.0000 32.0582 0.0000 0.0000
# 5 0.0000 0.0000 0.0000 0.0000 -26.1106 0.0000
# 6 0.0000 0.0000 0.0000 0.0000 0.0000 41.9789
#
#
#
# Elastic Compliance Matrix: (Units=1/GPa)
#
#
# Indices 1 2 3 4 5 6 
#
# 1 0.011463 -0.005269 -0.002244 0.000000 0.000000 0.000000
# 2 -0.005269 0.037524 -0.007086 0.000000 0.000000 0.000000
# 3 -0.002244 -0.007086 0.011420 0.000000 0.000000 0.000000
# 4 0.000000 0.000000 0.000000 0.031193 0.000000 0.000000
# 5 0.000000 0.000000 0.000000 0.000000 -0.038299 0.000000
# 6 0.000000 0.000000 0.000000 0.000000 0.000000 0.023822
#
#
# Mechanical properties :
#
#
# Convention : Reuss Voigt Hill
#
# Bulk Modulus (GPa) = 32.04217 45.13168 38.58693
# Shear Modulus (GPa) = 42.83591 20.79465 31.81528
#
# Velocity S-wave (km/s) = 4.73024 3.29576 4.07659
# Velocity P-wave (km/s) = 6.82427 6.16904 6.50491
#
# Compressibility (1/GPa) = 0.03120888
#
# Stress axis : x y z
#
# Youngs Moduli (GPa) = 87.23923 26.64936 87.56521
#
# Poissons Ratio (x) = 0.14042 0.19646
# Poissons Ratio (y) = 0.45969 0.62051
# Poissons Ratio (z) = 0.19573 0.18884
#
# Static dielectric constant tensor:
#      x y z
#    x 3.738010 0.000000 0.000000 
#    y 0.000000 3.094990 0.000000 
#    z 0.000000 0.000000 3.505320 
# 
# 
# High freq. dielectric constant tensor:
#      x y z
#    x 1.756760 0.000000 0.000000 
#    y 0.000000 1.714130 0.000000 
#    z 0.000000 0.000000 1.753820 
# 
# From -- ./inp_files/10041.got.cif
#   From: 2010.03.12/outbox.cif.g09.slc.cpg/sg65_6_cif.got.tgz:10041.got - 2010.04.10 20:52:16.
