data_PCOD8273674
_publ_section_title
;
Structure prediction by ZEFSAII (Michael W. Deem and Ramdas Pophale) SiO2 
 PCOD8273674
Probable space group: C M M M
;
_chemical_formula_sum "Si O2"
_cell_formula_units_Z 96
_cell_length_a 8.667382
_cell_length_b 28.979764
_cell_length_c 20.407869
_cell_angle_alpha 90.000000
_cell_angle_beta 90.000000
_cell_angle_gamma 90.000000
_cell_volume 5126.021696
_symmetry_space_group_name_H-M "C M M M"
_symmetry_group_IT_number 65
_symmetry_cell_setting 'orthorhombic'
loop_
_space_group_symop_operation_xyz
x,y,z
-x,-y,z
x,-y,-z
-x,y,-z
-x,-y,-z
x,y,-z
-x,y,z
x,-y,z
1/2+x,1/2+y,z
1/2-x,1/2-y,z
1/2+x,1/2-y,-z
1/2-x,1/2+y,-z
1/2-x,1/2-y,-z
1/2+x,1/2+y,-z
1/2-x,1/2+y,z
1/2+x,1/2-y,z
loop_
_atom_site_type_symbol
_atom_site_label
_atom_site_fract_x
_atom_site_fract_y
_atom_site_fract_z
Si Si1 0.182464 0.300162 0.802942
Si Si2 0.816320 0.355105 0.072188
Si Si3 0.682962 0.049880 0.874826
Si Si4 0.179829 0.298789 0.576023
Si Si5 0.820090 0.857950 0.685506
Si Si6 0.820600 0.448178 0.275307
O O1 0.250000 0.250000 0.790321
O O2 0.246080 0.320177 0.872301
O O3 0.230121 0.333968 0.744869
O O4 0.000000 0.296630 0.804125
O O5 0.750341 0.406967 0.084169
O O6 0.000000 0.356769 0.075943
O O7 0.760809 0.338614 0.000000
O O8 0.500000 0.049232 0.879521
O O9 0.732345 0.056196 0.799769
O O10 0.745788 0.000000 0.900942
O O11 0.210798 0.308875 0.500000
O O12 0.250000 0.250000 0.597390
O O13 0.265976 0.338172 0.616159
O O14 0.000000 0.298554 0.593227
O O15 0.780707 0.912258 0.683306
O O16 0.000000 0.849567 0.695183
O O17 0.788633 0.500000 0.301270
O O18 0.000000 0.435549 0.282911
#
# Coordination Sequence:
#
# PCOD8273674 Si02
#       6
#    16  16  16  16  16  16
#     4  11  22  37  54  74 103 137 181 232 278 328
#     4   9  17  29  47  72 102 136 174 222 277 329
#     4   8  13  24  45  73 102 131 166 212 267 323
#     4  10  21  38  60  86 117 150 183 220 267 321
#     4  12  23  35  56  84 114 146 182 222 268 319
#     4   9  17  32  55  81 109 143 182 224 271 320
#
# _framework density 18.727972999999999
#
# number of rings (size 3 to 8) (size 9 to 14) (size 15 to 20)
#    0.000    2.167    1.667    4.000    0.000    2.000 
#    0.000    1.667    0.000    2.000    0.000    3.500 
#    0.000    2.667    0.000    0.000    0.000    0.000 
#
# Total GULP energy -595085.434771 kJ/mol
# GULP energy per Si atom -12397.613224 kJ/mol
# Density = 1.868535 g / cm^3
# Si number density = 18.727973 Si / 1000 Ang^3
#
#
#
# Elastic Constant Matrix: (Units=GPa)
#
#
# Indices 1 2 3 4 5 6 
#
# 1 55.8943 29.1542 24.1742 0.0000 0.0000 0.0000
# 2 29.1542 113.6868 43.9304 0.0000 0.0000 0.0000
# 3 24.1742 43.9304 79.3566 0.0000 0.0000 0.0000
# 4 0.0000 0.0000 0.0000 29.9244 0.0000 0.0000
# 5 0.0000 0.0000 0.0000 0.0000 13.7446 0.0000
# 6 0.0000 0.0000 0.0000 0.0000 0.0000 25.2586
#
#
#
# Elastic Compliance Matrix: (Units=1/GPa)
#
#
# Indices 1 2 3 4 5 6 
#
# 1 0.021859 -0.003858 -0.004523 0.000000 0.000000 0.000000
# 2 -0.003858 0.011871 -0.005396 0.000000 0.000000 0.000000
# 3 -0.004523 -0.005396 0.016967 0.000000 0.000000 0.000000
# 4 0.000000 0.000000 0.000000 0.033418 0.000000 0.000000
# 5 0.000000 0.000000 0.000000 0.000000 0.072756 0.000000
# 6 0.000000 0.000000 0.000000 0.000000 0.000000 0.039590
#
#
# Mechanical properties :
#
#
# Convention : Reuss Voigt Hill
#
# Bulk Modulus (GPa) = 43.21171 49.27282 46.24226
# Shear Modulus (GPa) = 21.57691 23.89744 22.73718
#
# Velocity S-wave (km/s) = 3.39797 3.57603 3.48814
# Velocity P-wave (km/s) = 6.20632 6.58920 6.40062
#
# Compressibility (1/GPa) = 0.02314188
#
# Stress axis : x y z
#
# Youngs Moduli (GPa) = 45.74670 84.24212 58.93967
#
# Poissons Ratio (x) = 0.32499 0.26661
# Poissons Ratio (y) = 0.17648 0.31805
# Poissons Ratio (z) = 0.20693 0.45458
#
# Static dielectric constant tensor:
#      x y z
#    x 3.110740 0.000000 0.000000 
#    y 0.000000 3.750090 0.000000 
#    z 0.000000 0.000000 3.400090 
# 
# 
# High freq. dielectric constant tensor:
#      x y z
#    x 1.696090 0.000000 0.000000 
#    y 0.000000 1.737800 0.000000 
#    z 0.000000 0.000000 1.712090 
# 
# From -- ./inp_files/60312.got.cif
#   From: 2010.03.12/outbox.cif.g09.slc.cpg/sg65_31_cif.got.tgz:60312.got - 2010.04.10 20:52:16.
