data_PCOD8273969
_publ_section_title
;
Structure prediction by ZEFSAII (Michael W. Deem and Ramdas Pophale) SiO2 
 PCOD8273969
Probable space group: C M M M
;
_chemical_formula_sum "Si O2"
_cell_formula_units_Z 96
_cell_length_a 22.298980
_cell_length_b 20.382113
_cell_length_c 11.520902
_cell_angle_alpha 90.000000
_cell_angle_beta 90.000000
_cell_angle_gamma 90.000000
_cell_volume 5236.253763
_symmetry_space_group_name_H-M "C M M M"
_symmetry_group_IT_number 65
_symmetry_cell_setting 'orthorhombic'
loop_
_space_group_symop_operation_xyz
x,y,z
-x,-y,z
x,-y,-z
-x,y,-z
-x,-y,-z
x,y,-z
-x,y,z
x,-y,z
1/2+x,1/2+y,z
1/2-x,1/2-y,z
1/2+x,1/2-y,-z
1/2-x,1/2+y,-z
1/2-x,1/2-y,-z
1/2+x,1/2+y,-z
1/2-x,1/2+y,z
1/2+x,1/2-y,z
loop_
_atom_site_type_symbol
_atom_site_label
_atom_site_fract_x
_atom_site_fract_y
_atom_site_fract_z
Si Si1 0.895783 0.744571 0.214566
Si Si2 0.000000 0.925209 0.237482
Si Si3 0.875128 0.885279 0.133074
Si Si4 0.933354 0.339357 0.000000
Si Si5 0.794205 0.310786 0.632440
Si Si6 0.745167 0.574373 0.771865
Si Si7 0.000000 0.798738 0.633499
Si Si8 0.684170 0.077108 0.000000
O O1 0.865418 0.808255 0.157457
O O2 0.848562 0.698320 0.278875
O O3 0.941753 0.767087 0.311702
O O4 0.928624 0.705006 0.113957
O O5 0.058191 0.910110 0.160302
O O6 0.000000 0.877551 0.348864
O O7 0.000000 0.000000 0.280987
O O8 0.826370 0.924556 0.208364
O O9 0.861896 0.900664 0.000000
O O10 0.882685 0.394461 0.000000
O O11 0.000000 0.371478 0.000000
O O12 0.817118 0.316040 0.500000
O O13 0.750000 0.250000 0.646703
O O14 0.761166 0.378642 0.664502
O O15 0.764308 0.500000 0.740828
O O16 0.779457 0.600603 0.886713
O O17 0.000000 0.781631 0.500000
O O18 0.677433 0.000000 0.000000
#
# Coordination Sequence:
#
# PCOD8273969 Si02
#       8
#    16   8  16   8  16  16   8   8
#     4  11  21  36  59  89 115 146 193 240 294 346
#     4  10  23  37  52  80 116 158 206 242 285 341
#     4  11  21  34  57  84 120 156 191 242 294 350
#     4  12  22  36  63  91 120 150 185 239 294 353
#     4  11  23  39  60  84 113 153 201 245 289 346
#     4  11  22  37  58  86 117 152 195 239 291 351
#     4  10  22  39  58  78 112 153 196 246 289 335
#     4  10  22  38  59  86 115 149 188 232 292 361
#
# _framework density 18.333718999999999
#
# number of rings (size 3 to 8) (size 9 to 14) (size 15 to 20)
#    0.000    1.167    5.833    1.250    0.000    2.000 
#    0.000    2.500    0.000    2.000    0.000    0.000 
#    0.000    5.333    0.000    0.000    0.000    0.000 
#
# Total GULP energy -595321.353720 kJ/mol
# GULP energy per Si atom -12402.528202 kJ/mol
# Density = 1.829199 g / cm^3
# Si number density = 18.333719 Si / 1000 Ang^3
#
#
#
# Elastic Constant Matrix: (Units=GPa)
#
#
# Indices 1 2 3 4 5 6 
#
# 1 105.8027 32.1013 32.9623 0.0000 0.0000 0.0000
# 2 32.1013 73.1001 29.2233 0.0000 0.0000 0.0000
# 3 32.9623 29.2233 94.9283 0.0000 0.0000 0.0000
# 4 0.0000 0.0000 0.0000 10.6749 0.0000 0.0000
# 5 0.0000 0.0000 0.0000 0.0000 18.2050 0.0000
# 6 0.0000 0.0000 0.0000 0.0000 0.0000 19.5978
#
#
#
# Elastic Compliance Matrix: (Units=1/GPa)
#
#
# Indices 1 2 3 4 5 6 
#
# 1 0.011516 -0.003944 -0.002785 0.000000 0.000000 0.000000
# 2 -0.003944 0.016950 -0.003849 0.000000 0.000000 0.000000
# 3 -0.002785 -0.003849 0.012686 0.000000 0.000000 0.000000
# 4 0.000000 0.000000 0.000000 0.093678 0.000000 0.000000
# 5 0.000000 0.000000 0.000000 0.000000 0.054930 0.000000
# 6 0.000000 0.000000 0.000000 0.000000 0.000000 0.051026
#
#
# Mechanical properties :
#
#
# Convention : Reuss Voigt Hill
#
# Bulk Modulus (GPa) = 50.00525 51.37832 50.69179
# Shear Modulus (GPa) = 18.61461 21.66514 20.13988
#
# Velocity S-wave (km/s) = 3.18987 3.44133 3.31798
# Velocity P-wave (km/s) = 6.39541 6.62383 6.51062
#
# Compressibility (1/GPa) = 0.01999790
#
# Stress axis : x y z
#
# Youngs Moduli (GPa) = 86.83836 58.99575 78.82731
#
# Poissons Ratio (x) = 0.23267 0.21950
# Poissons Ratio (y) = 0.34248 0.30338
# Poissons Ratio (z) = 0.24180 0.22706
#
# Static dielectric constant tensor:
#      x y z
#    x 3.405580 0.000000 0.000000 
#    y 0.000000 3.330280 0.000000 
#    z 0.000000 0.000000 3.297110 
# 
# 
# High freq. dielectric constant tensor:
#      x y z
#    x 1.716790 0.000000 0.000000 
#    y 0.000000 1.707140 0.000000 
#    z 0.000000 0.000000 1.706120 
# 
# From -- ./inp_files/30864.got.cif
#   From: 2010.03.12/outbox.cif.g09.slc.cpg/sg65_16_cif.got.tgz:30864.got - 2010.04.10 20:52:16.
