data_PCOD8273768
_publ_section_title
;
Structure prediction by ZEFSAII (Michael W. Deem and Ramdas Pophale) SiO2 
 PCOD8273768
Probable space group: C M M M
;
_chemical_formula_sum "Si O2"
_cell_formula_units_Z 112
_cell_length_a 25.242092
_cell_length_b 15.740267
_cell_length_c 13.555920
_cell_angle_alpha 90.000000
_cell_angle_beta 90.000000
_cell_angle_gamma 90.000000
_cell_volume 5386.001096
_symmetry_space_group_name_H-M "C M M M"
_symmetry_group_IT_number 65
_symmetry_cell_setting 'orthorhombic'
loop_
_space_group_symop_operation_xyz
x,y,z
-x,-y,z
x,-y,-z
-x,y,-z
-x,-y,-z
x,y,-z
-x,y,z
x,-y,z
1/2+x,1/2+y,z
1/2-x,1/2-y,z
1/2+x,1/2-y,-z
1/2-x,1/2+y,-z
1/2-x,1/2-y,-z
1/2+x,1/2+y,-z
1/2-x,1/2+y,z
1/2+x,1/2-y,z
loop_
_atom_site_type_symbol
_atom_site_label
_atom_site_fract_x
_atom_site_fract_y
_atom_site_fract_z
Si Si1 0.596307 0.756247 0.115726
Si Si2 0.356448 0.649318 0.613005
Si Si3 0.939012 0.095290 0.761326
Si Si4 0.253918 0.902460 0.698312
Si Si5 0.941749 0.593721 0.236011
Si Si6 0.140277 0.655515 0.610059
Si Si7 0.209633 0.325418 0.891408
O O1 0.582464 0.665195 0.162309
O O2 0.559610 0.832877 0.153513
O O3 0.655235 0.784039 0.147198
O O4 0.588911 0.745428 0.000000
O O5 0.348218 0.619365 0.500000
O O6 0.404052 0.596321 0.661836
O O7 0.302583 0.638327 0.674572
O O8 0.374747 0.746304 0.619207
O O9 0.000000 0.115252 0.734569
O O10 0.933996 0.000000 0.807211
O O11 0.297859 0.855104 0.634021
O O12 0.268330 0.894061 0.814248
O O13 0.252512 0.000000 0.668632
O O14 0.933381 0.500000 0.187342
O O15 0.897133 0.602271 0.318748
O O16 0.000000 0.598831 0.285386
O O17 0.130198 0.622041 0.500000
O O18 0.250000 0.250000 0.900918
O O19 0.202058 0.368229 0.000000
#
# Coordination Sequence:
#
# PCOD8273768 Si02
#       7
#    16  16  16  16  16  16  16
#     4  11  23  42  68  95 130 171 213 266 324 384
#     4  11  24  42  65  93 126 169 220 269 322 385
#     4  11  24  42  65  94 130 172 219 270 323 383
#     4  12  23  37  61  92 130 167 207 266 322 378
#     4  11  24  42  64  93 129 166 211 267 322 382
#     4  11  23  40  64  91 123 168 217 263 320 387
#     4  10  21  38  62  90 123 165 210 258 318 381
#
# _framework density 20.794649
#
# number of rings (size 3 to 8) (size 9 to 14) (size 15 to 20)
#    0.000    1.000    2.857    3.857    0.000    6.571 
#    0.000    5.714    0.000    4.286    0.000    0.000 
#    0.000    0.000    0.000    0.000    0.000    0.000 
#
# Total GULP energy -694415.671978 kJ/mol
# GULP energy per Si atom -12400.279857 kJ/mol
# Density = 2.074732 g / cm^3
# Si number density = 20.794649 Si / 1000 Ang^3
#
#
#
# Elastic Constant Matrix: (Units=GPa)
#
#
# Indices 1 2 3 4 5 6 
#
# 1 135.9845 23.4822 50.5629 0.0000 0.0000 0.0000
# 2 23.4822 106.7108 48.8849 0.0000 0.0000 0.0000
# 3 50.5629 48.8849 112.2896 0.0000 0.0000 0.0000
# 4 0.0000 0.0000 0.0000 16.9307 0.0000 0.0000
# 5 0.0000 0.0000 0.0000 0.0000 17.6222 0.0000
# 6 0.0000 0.0000 0.0000 0.0000 0.0000 29.1340
#
#
#
# Elastic Compliance Matrix: (Units=1/GPa)
#
#
# Indices 1 2 3 4 5 6 
#
# 1 0.008835 -0.000152 -0.003912 0.000000 0.000000 0.000000
# 2 -0.000152 0.011708 -0.005029 0.000000 0.000000 0.000000
# 3 -0.003912 -0.005029 0.012856 0.000000 0.000000 0.000000
# 4 0.000000 0.000000 0.000000 0.059064 0.000000 0.000000
# 5 0.000000 0.000000 0.000000 0.000000 0.056746 0.000000
# 6 0.000000 0.000000 0.000000 0.000000 0.000000 0.034324
#
#
# Mechanical properties :
#
#
# Convention : Reuss Voigt Hill
#
# Bulk Modulus (GPa) = 65.72973 66.76054 66.24514
# Shear Modulus (GPa) = 24.17905 28.20772 26.19338
#
# Velocity S-wave (km/s) = 3.41362 3.68705 3.55296
# Velocity P-wave (km/s) = 6.87129 7.09226 6.98265
#
# Compressibility (1/GPa) = 0.01521382
#
# Stress axis : x y z
#
# Youngs Moduli (GPa) = 113.19115 85.40989 77.78290
#
# Poissons Ratio (x) = 0.01298 0.30428
# Poissons Ratio (y) = 0.01721 0.39115
# Poissons Ratio (z) = 0.44280 0.42950
#
# Static dielectric constant tensor:
#      x y z
#    x 4.599670 0.000000 0.000000 
#    y 0.000000 3.787670 0.000000 
#    z 0.000000 0.000000 4.043440 
# 
# 
# High freq. dielectric constant tensor:
#      x y z
#    x 1.826960 0.000000 0.000000 
#    y 0.000000 1.817340 0.000000 
#    z 0.000000 0.000000 1.808920 
# 
# From -- ./inp_files/40876.got.cif
#   From: 2010.03.12/outbox.cif.g09.slc.cpg/sg65_21_cif.got.tgz:40876.got - 2010.04.10 20:52:16.
