data_PCOD8273892
_publ_section_title
;
Structure prediction by ZEFSAII (Michael W. Deem and Ramdas Pophale) SiO2 
 PCOD8273892
Probable space group: C M M M
;
_chemical_formula_sum "Si O2"
_cell_formula_units_Z 64
_cell_length_a 24.023317
_cell_length_b 16.127373
_cell_length_c 8.002607
_cell_angle_alpha 90.000000
_cell_angle_beta 90.000000
_cell_angle_gamma 90.000000
_cell_volume 3100.473989
_symmetry_space_group_name_H-M "C M M M"
_symmetry_group_IT_number 65
_symmetry_cell_setting 'orthorhombic'
loop_
_space_group_symop_operation_xyz
x,y,z
-x,-y,z
x,-y,-z
-x,y,-z
-x,-y,-z
x,y,-z
-x,y,z
x,-y,z
1/2+x,1/2+y,z
1/2-x,1/2-y,z
1/2+x,1/2-y,-z
1/2-x,1/2+y,-z
1/2-x,1/2-y,-z
1/2+x,1/2+y,-z
1/2-x,1/2+y,z
1/2+x,1/2-y,z
loop_
_atom_site_type_symbol
_atom_site_label
_atom_site_fract_x
_atom_site_fract_y
_atom_site_fract_z
Si Si1 0.373096 0.331168 0.192041
Si Si2 0.435570 0.000000 0.196426
Si Si3 0.863422 0.348054 0.687718
Si Si4 0.434497 0.593236 0.500000
Si Si5 0.751017 0.151732 0.815637
O O1 0.371961 0.230892 0.192829
O O2 0.416601 0.362940 0.327783
O O3 0.313303 0.371504 0.245644
O O4 0.388359 0.356801 0.000000
O O5 0.407417 0.081431 0.270462
O O6 0.500000 0.000000 0.249582
O O7 0.427867 0.000000 0.000000
O O8 0.873384 0.317765 0.500000
O O9 0.799724 0.382872 0.703334
O O10 0.411299 0.500000 0.500000
O O11 0.500000 0.595540 0.500000
O O12 0.750000 0.250000 0.817782
O O13 0.741375 0.115102 0.000000
#
# Coordination Sequence:
#
# PCOD8273892 Si02
#       5
#    16   8  16   8  16
#     4  10  21  41  68  95 125 165 209 257 313 378
#     4  11  25  43  59  81 125 179 223 263 305 358
#     4  11  21  36  62  94 128 167 209 259 312 365
#     4  11  26  46  65  91 125 157 200 266 323 377
#     4   8  16  32  58  90 124 159 200 252 310 369
#
# _framework density 20.642005000000001
#
# number of rings (size 3 to 8) (size 9 to 14) (size 15 to 20)
#    0.000    2.000    1.250    4.125    1.750    4.500 
#    2.250    1.250    0.000    0.000    0.000    0.000 
#    0.000    0.000    0.000    0.000    0.000    0.000 
#
# Total GULP energy -396577.558378 kJ/mol
# GULP energy per Si atom -12393.048699 kJ/mol
# Density = 2.059502 g / cm^3
# Si number density = 20.642005 Si / 1000 Ang^3
#
#
#
# Elastic Constant Matrix: (Units=GPa)
#
#
# Indices 1 2 3 4 5 6 
#
# 1 110.8421 40.7618 47.6209 0.0000 0.0000 0.0000
# 2 40.7618 64.4935 26.8620 0.0000 0.0000 0.0000
# 3 47.6209 26.8620 119.8630 0.0000 0.0000 0.0000
# 4 0.0000 0.0000 0.0000 22.1645 0.0000 0.0000
# 5 0.0000 0.0000 0.0000 0.0000 32.4867 0.0000
# 6 0.0000 0.0000 0.0000 0.0000 0.0000 28.3024
#
#
#
# Elastic Compliance Matrix: (Units=1/GPa)
#
#
# Indices 1 2 3 4 5 6 
#
# 1 0.013082 -0.006732 -0.003689 0.000000 0.000000 0.000000
# 2 -0.006732 0.020566 -0.001934 0.000000 0.000000 0.000000
# 3 -0.003689 -0.001934 0.010242 0.000000 0.000000 0.000000
# 4 0.000000 0.000000 0.000000 0.045117 0.000000 0.000000
# 5 0.000000 0.000000 0.000000 0.000000 0.030782 0.000000
# 6 0.000000 0.000000 0.000000 0.000000 0.000000 0.035333
#
#
# Mechanical properties :
#
#
# Convention : Reuss Voigt Hill
#
# Bulk Modulus (GPa) = 52.13828 58.40978 55.27403
# Shear Modulus (GPa) = 26.84917 28.58766 27.71842
#
# Velocity S-wave (km/s) = 3.61044 3.72550 3.66842
# Velocity P-wave (km/s) = 6.53403 6.84571 6.69169
#
# Compressibility (1/GPa) = 0.01917977
#
# Stress axis : x y z
#
# Youngs Moduli (GPa) = 76.43885 48.62412 97.63790
#
# Poissons Ratio (x) = 0.32734 0.36017
# Poissons Ratio (y) = 0.51459 0.18887
# Poissons Ratio (z) = 0.28197 0.09406
#
# Static dielectric constant tensor:
#      x y z
#    x 3.981500 0.000000 0.000000 
#    y 0.000000 3.437900 0.000000 
#    z 0.000000 0.000000 3.766620 
# 
# 
# High freq. dielectric constant tensor:
#      x y z
#    x 1.810580 0.000000 0.000000 
#    y 0.000000 1.778250 0.000000 
#    z 0.000000 0.000000 1.813070 
# 
# From -- ./inp_files/13352.got.cif
#   From: 2010.03.12/outbox.cif.g09.slc.cpg/sg65_7_cif.got.tgz:13352.got - 2010.04.10 20:52:16.
