data_PCOD8273923
_publ_section_title
;
Structure prediction by ZEFSAII (Michael W. Deem and Ramdas Pophale) SiO2 
 PCOD8273923
Probable space group: C M M M
;
_chemical_formula_sum "Si O2"
_cell_formula_units_Z 104
_cell_length_a 9.613125
_cell_length_b 20.157343
_cell_length_c 30.412979
_cell_angle_alpha 90.000000
_cell_angle_beta 90.000000
_cell_angle_gamma 90.000000
_cell_volume 5893.276767
_symmetry_space_group_name_H-M "C M M M"
_symmetry_group_IT_number 65
_symmetry_cell_setting 'orthorhombic'
loop_
_space_group_symop_operation_xyz
x,y,z
-x,-y,z
x,-y,-z
-x,y,-z
-x,-y,-z
x,y,-z
-x,y,z
x,-y,z
1/2+x,1/2+y,z
1/2-x,1/2-y,z
1/2+x,1/2-y,-z
1/2-x,1/2+y,-z
1/2-x,1/2-y,-z
1/2+x,1/2+y,-z
1/2-x,1/2+y,z
1/2+x,1/2-y,z
loop_
_atom_site_type_symbol
_atom_site_label
_atom_site_fract_x
_atom_site_fract_y
_atom_site_fract_z
Si Si1 0.660784 0.924792 0.798388
Si Si2 0.654854 0.500000 0.051937
Si Si3 0.341646 0.121307 0.950269
Si Si4 0.162642 0.182604 0.357804
Si Si5 0.662252 0.575840 0.713928
Si Si6 0.657389 0.189979 0.136368
Si Si7 0.841390 0.185616 0.453603
O O1 0.500000 0.917410 0.784856
O O2 0.752856 0.903564 0.756985
O O3 0.700038 0.877670 0.839077
O O4 0.694815 0.000000 0.813136
O O5 0.500000 0.500000 0.072974
O O6 0.738847 0.435507 0.066832
O O7 0.643973 0.500000 0.000000
O O8 0.500000 0.094144 0.948129
O O9 0.322375 0.181565 0.916231
O O10 0.306159 0.145156 0.000000
O O11 0.250000 0.250000 0.350025
O O12 0.210904 0.125357 0.324521
O O13 0.190814 0.150557 0.406736
O O14 0.000000 0.199871 0.351205
O O15 0.500000 0.584210 0.724532
O O16 0.696013 0.500000 0.699875
O O17 0.500000 0.209118 0.147622
O O18 0.750000 0.250000 0.153830
O O19 0.815245 0.144417 0.500000
O O20 0.750000 0.250000 0.455892
O O21 0.000000 0.209454 0.452494
#
# Coordination Sequence:
#
# PCOD8273923 Si02
#       7
#    16   8  16  16  16  16  16
#     4   9  19  36  56  74  93 123 162 201 239 283
#     4   9  17  29  47  75 105 129 159 203 245 273
#     4   9  18  33  53  75 100 134 170 198 233 286
#     4   9  17  28  44  68  95 123 156 196 239 281
#     4   9  18  33  51  70  94 124 157 194 238 288
#     4  10  22  37  54  76 104 133 162 199 242 288
#     4   8  13  22  37  58  86 119 154 191 230 273
#
# _framework density 17.647228999999999
#
# number of rings (size 3 to 8) (size 9 to 14) (size 15 to 20)
#    0.000    3.000    0.000    0.231    1.077    3.692 
#    0.000    3.077    0.000    0.462    0.000    3.231 
#    0.000    0.000    0.000   28.769    0.000   15.692 
#
# Total GULP energy -644226.127442 kJ/mol
# GULP energy per Si atom -12388.963989 kJ/mol
# Density = 1.760706 g / cm^3
# Si number density = 17.647229 Si / 1000 Ang^3
#
#
#
# Elastic Constant Matrix: (Units=GPa)
#
#
# Indices 1 2 3 4 5 6 
#
# 1 60.6905 41.7464 41.2871 0.0000 0.0000 0.0000
# 2 41.7464 84.6976 61.8969 0.0000 0.0000 0.0000
# 3 41.2871 61.8969 129.1074 0.0000 0.0000 0.0000
# 4 0.0000 0.0000 0.0000 21.5296 0.0000 0.0000
# 5 0.0000 0.0000 0.0000 0.0000 22.7914 0.0000
# 6 0.0000 0.0000 0.0000 0.0000 0.0000 22.5852
#
#
#
# Elastic Compliance Matrix: (Units=1/GPa)
#
#
# Indices 1 2 3 4 5 6 
#
# 1 0.025820 -0.010302 -0.003318 0.000000 0.000000 0.000000
# 2 -0.010302 0.022284 -0.007389 0.000000 0.000000 0.000000
# 3 -0.003318 -0.007389 0.012349 0.000000 0.000000 0.000000
# 4 0.000000 0.000000 0.000000 0.046448 0.000000 0.000000
# 5 0.000000 0.000000 0.000000 0.000000 0.043876 0.000000
# 6 0.000000 0.000000 0.000000 0.000000 0.000000 0.044277
#
#
# Mechanical properties :
#
#
# Convention : Reuss Voigt Hill
#
# Bulk Modulus (GPa) = 54.24253 62.70625 58.47439
# Shear Modulus (GPa) = 20.55768 22.01890 21.28829
#
# Velocity S-wave (km/s) = 3.41680 3.53615 3.47699
# Velocity P-wave (km/s) = 6.80955 7.23068 7.02327
#
# Compressibility (1/GPa) = 0.01843572
#
# Stress axis : x y z
#
# Youngs Moduli (GPa) = 38.72904 44.87467 80.97682
#
# Poissons Ratio (x) = 0.46228 0.26870
# Poissons Ratio (y) = 0.39897 0.59836
# Poissons Ratio (z) = 0.12851 0.33159
#
# Static dielectric constant tensor:
#      x y z
#    x 3.361950 0.000000 0.000000 
#    y 0.000000 3.021480 0.000000 
#    z 0.000000 0.000000 3.646730 
# 
# 
# High freq. dielectric constant tensor:
#      x y z
#    x 1.684560 0.000000 0.000000 
#    y 0.000000 1.645770 0.000000 
#    z 0.000000 0.000000 1.691140 
# 
# From -- ./inp_files/76915.got.cif
#   From: 2010.03.12/outbox.cif.g09.slc.cpg/sg65_39_cif.got.tgz:76915.got - 2010.04.10 20:52:16.
