data_PCOD8273640
_publ_section_title
;
Structure prediction by ZEFSAII (Michael W. Deem and Ramdas Pophale) SiO2 
 PCOD8273640
Probable space group: C M M M
;
_chemical_formula_sum "Si O2"
_cell_formula_units_Z 72
_cell_length_a 15.759321
_cell_length_b 8.882581
_cell_length_c 25.756713
_cell_angle_alpha 90.000000
_cell_angle_beta 90.000000
_cell_angle_gamma 90.000000
_cell_volume 3605.513425
_symmetry_space_group_name_H-M "C M M M"
_symmetry_group_IT_number 65
_symmetry_cell_setting 'orthorhombic'
loop_
_space_group_symop_operation_xyz
x,y,z
-x,-y,z
x,-y,-z
-x,y,-z
-x,-y,-z
x,y,-z
-x,y,z
x,-y,z
1/2+x,1/2+y,z
1/2-x,1/2-y,z
1/2+x,1/2-y,-z
1/2-x,1/2+y,-z
1/2-x,1/2-y,-z
1/2+x,1/2+y,-z
1/2-x,1/2+y,z
1/2+x,1/2-y,z
loop_
_atom_site_type_symbol
_atom_site_label
_atom_site_fract_x
_atom_site_fract_y
_atom_site_fract_z
Si Si1 0.406896 0.659434 0.500000
Si Si2 0.500000 0.327590 0.766194
Si Si3 0.162151 0.675821 0.594238
Si Si4 0.500000 0.327986 0.111019
Si Si5 0.337865 0.175578 0.060662
Si Si6 0.659093 0.177888 0.287765
O O1 0.352612 0.500000 0.500000
O O2 0.500000 0.599255 0.500000
O O3 0.400296 0.758259 0.551847
O O4 0.500000 0.500000 0.746722
O O5 0.500000 0.318122 0.827594
O O6 0.415026 0.245882 0.747106
O O7 0.169428 0.500000 0.587114
O O8 0.250000 0.750000 0.579958
O O9 0.134306 0.716369 0.652825
O O10 0.500000 0.500000 0.091511
O O11 0.416082 0.247330 0.090622
O O12 0.250000 0.250000 0.079765
O O13 0.333629 0.000000 0.073767
O O14 0.351879 0.205618 0.000000
O O15 0.750000 0.250000 0.272981
O O16 0.665374 0.000000 0.278172
#
# Coordination Sequence:
#
# PCOD8273640 Si02
#       6
#     8   8  16   8  16  16
#     4  11  24  37  52  81 115 149 184 223 278 341
#     4  11  25  42  62  88 121 160 202 251 303 356
#     4  10  21  38  60  83 110 144 183 230 283 344
#     4  11  24  40  59  88 123 163 206 249 302 356
#     4  10  21  38  62  92 125 163 205 249 299 354
#     4  10  22  41  65  91 117 153 199 247 302 360
#
# _framework density 19.969415999999999
#
# number of rings (size 3 to 8) (size 9 to 14) (size 15 to 20)
#    0.000    1.667    0.000    3.667    1.556    8.889 
#    0.000    0.000    0.000    0.000    0.000    0.000 
#    0.000    0.000    0.000    0.000    0.000    0.000 
#
# Total GULP energy -446305.903081 kJ/mol
# GULP energy per Si atom -12397.386197 kJ/mol
# Density = 1.992396 g / cm^3
# Si number density = 19.969416 Si / 1000 Ang^3
#
#
#
# Elastic Constant Matrix: (Units=GPa)
#
#
# Indices 1 2 3 4 5 6 
#
# 1 150.0244 76.7549 60.3988 0.0000 0.0000 0.0000
# 2 76.7549 128.8045 53.2568 0.0000 0.0000 0.0000
# 3 60.3988 53.2568 76.7370 0.0000 0.0000 0.0000
# 4 0.0000 0.0000 0.0000 35.3263 0.0000 0.0000
# 5 0.0000 0.0000 0.0000 0.0000 -53.1046 0.0000
# 6 0.0000 0.0000 0.0000 0.0000 0.0000 32.6193
#
#
#
# Elastic Compliance Matrix: (Units=1/GPa)
#
#
# Indices 1 2 3 4 5 6 
#
# 1 0.011202 -0.004249 -0.005868 0.000000 0.000000 0.000000
# 2 -0.004249 0.012500 -0.005331 0.000000 0.000000 0.000000
# 3 -0.005868 -0.005331 0.021350 0.000000 0.000000 0.000000
# 4 0.000000 0.000000 0.000000 0.028308 0.000000 0.000000
# 5 0.000000 0.000000 0.000000 0.000000 -0.018831 0.000000
# 6 0.000000 0.000000 0.000000 0.000000 0.000000 0.030657
#
#
# Mechanical properties :
#
#
# Convention : Reuss Voigt Hill
#
# Bulk Modulus (GPa) = 70.64143 81.82075 76.23109
# Shear Modulus (GPa) = 41.39114 13.97857 27.68485
#
# Velocity S-wave (km/s) = 4.55766 2.64862 3.72743
# Velocity P-wave (km/s) = 7.94657 7.10039 7.53537
#
# Compressibility (1/GPa) = 0.01415600
#
# Stress axis : x y z
#
# Youngs Moduli (GPa) = 89.27119 80.00152 46.83894
#
# Poissons Ratio (x) = 0.33992 0.27485
# Poissons Ratio (y) = 0.37931 0.24969
# Poissons Ratio (z) = 0.52384 0.42647
#
# Static dielectric constant tensor:
#      x y z
#    x 3.541990 0.000000 0.000000 
#    y 0.000000 3.906370 0.000000 
#    z 0.000000 0.000000 3.649780 
# 
# 
# High freq. dielectric constant tensor:
#      x y z
#    x 1.784580 0.000000 0.000000 
#    y 0.000000 1.804230 0.000000 
#    z 0.000000 0.000000 1.776950 
# 
# From -- ./inp_files/74679.got.cif
#   From: 2010.03.12/outbox.cif.g09.slc.cpg/sg65_38_cif.got.tgz:74679.got - 2010.04.10 20:52:16.
