data_PCOD8273940
_publ_section_title
;
Structure prediction by ZEFSAII (Michael W. Deem and Ramdas Pophale) SiO2 
 PCOD8273940
Probable space group: C M M M
;
_chemical_formula_sum "Si O2"
_cell_formula_units_Z 72
_cell_length_a 26.552622
_cell_length_b 9.398390
_cell_length_c 15.377763
_cell_angle_alpha 90.000000
_cell_angle_beta 90.000000
_cell_angle_gamma 90.000000
_cell_volume 3837.549929
_symmetry_space_group_name_H-M "C M M M"
_symmetry_group_IT_number 65
_symmetry_cell_setting 'orthorhombic'
loop_
_space_group_symop_operation_xyz
x,y,z
-x,-y,z
x,-y,-z
-x,y,-z
-x,-y,-z
x,y,-z
-x,y,z
x,-y,z
1/2+x,1/2+y,z
1/2-x,1/2-y,z
1/2+x,1/2-y,-z
1/2-x,1/2+y,-z
1/2-x,1/2-y,-z
1/2+x,1/2+y,-z
1/2-x,1/2+y,z
1/2+x,1/2-y,z
loop_
_atom_site_type_symbol
_atom_site_label
_atom_site_fract_x
_atom_site_fract_y
_atom_site_fract_z
Si Si1 0.440772 0.662789 0.500000
Si Si2 0.326062 0.000000 0.099474
Si Si3 0.634577 0.720424 0.828521
Si Si4 0.118669 0.332278 0.361526
Si Si5 0.797962 0.343491 0.500000
Si Si6 0.442210 0.500000 0.102862
Si Si7 0.787547 0.000000 0.894483
O O1 0.418829 0.500000 0.500000
O O2 0.500000 0.654692 0.500000
O O3 0.424768 0.750110 0.585936
O O4 0.361060 0.869003 0.123424
O O5 0.269917 0.000000 0.141540
O O6 0.313289 0.000000 0.000000
O O7 0.628422 0.748371 0.726878
O O8 0.584713 0.640398 0.860807
O O9 0.685343 0.636477 0.853101
O O10 0.104599 0.500000 0.348519
O O11 0.169919 0.315991 0.414200
O O12 0.776094 0.500000 0.500000
O O13 0.750000 0.250000 0.500000
O O14 0.500000 0.500000 0.133988
O O15 0.437600 0.500000 0.000000
O O16 0.792709 0.000000 0.000000
#
# Coordination Sequence:
#
# PCOD8273940 Si02
#       7
#     8   8  16  16   8   8   8
#     4  10  23  41  67  93 114 146 190 244 304 361
#     4  11  21  36  60  90 124 160 204 253 299 354
#     4  11  21  38  61  89 121 160 201 250 299 353
#     4  10  22  41  58  85 123 154 192 240 293 353
#     4   9  20  38  56  78 113 156 190 224 277 340
#     4  10  23  43  63  84 117 162 204 249 308 365
#     4  10  22  37  57  87 124 167 207 248 302 352
#
# _framework density 18.761970999999999
#
# number of rings (size 3 to 8) (size 9 to 14) (size 15 to 20)
#    0.000    1.778    1.111    4.333    3.111    7.111 
#    0.000    0.556    0.000    2.000    0.000    0.000 
#    0.000    0.000    0.000    0.000    0.000    0.000 
#
# Total GULP energy -446290.303420 kJ/mol
# GULP energy per Si atom -12396.952873 kJ/mol
# Density = 1.871927 g / cm^3
# Si number density = 18.761971 Si / 1000 Ang^3
#
#
#
# Elastic Constant Matrix: (Units=GPa)
#
#
# Indices 1 2 3 4 5 6 
#
# 1 128.7323 74.7532 46.6140 0.0000 0.0000 0.0000
# 2 74.7532 155.2747 57.4477 0.0000 0.0000 0.0000
# 3 46.6140 57.4477 125.5454 0.0000 0.0000 0.0000
# 4 0.0000 0.0000 0.0000 39.3864 0.0000 0.0000
# 5 0.0000 0.0000 0.0000 0.0000 8.2912 0.0000
# 6 0.0000 0.0000 0.0000 0.0000 0.0000 27.2015
#
#
#
# Elastic Compliance Matrix: (Units=1/GPa)
#
#
# Indices 1 2 3 4 5 6 
#
# 1 0.011198 -0.004638 -0.002036 0.000000 0.000000 0.000000
# 2 -0.004638 0.009674 -0.002704 0.000000 0.000000 0.000000
# 3 -0.002036 -0.002704 0.009959 0.000000 0.000000 0.000000
# 4 0.000000 0.000000 0.000000 0.025389 0.000000 0.000000
# 5 0.000000 0.000000 0.000000 0.000000 0.120610 0.000000
# 6 0.000000 0.000000 0.000000 0.000000 0.000000 0.036763
#
#
# Mechanical properties :
#
#
# Convention : Reuss Voigt Hill
#
# Bulk Modulus (GPa) = 82.81958 85.24249 84.03103
# Shear Modulus (GPa) = 21.15294 30.35831 25.75563
#
# Velocity S-wave (km/s) = 3.36138 4.02690 3.70909
# Velocity P-wave (km/s) = 7.70086 8.19472 7.95163
#
# Compressibility (1/GPa) = 0.01207444
#
# Stress axis : x y z
#
# Youngs Moduli (GPa) = 89.29827 103.37336 100.41630
#
# Poissons Ratio (x) = 0.47946 0.20440
# Poissons Ratio (y) = 0.41417 0.27157
# Poissons Ratio (z) = 0.18177 0.27957
#
# Static dielectric constant tensor:
#      x y z
#    x 3.320070 0.000000 0.000000 
#    y 0.000000 4.077470 0.000000 
#    z 0.000000 0.000000 3.500280 
# 
# 
# High freq. dielectric constant tensor:
#      x y z
#    x 1.721710 0.000000 0.000000 
#    y 0.000000 1.747080 0.000000 
#    z 0.000000 0.000000 1.734840 
# 
# From -- ./inp_files/46603.got.cif
#   From: 2010.03.12/outbox.cif.g09.slc.cpg/sg65_24_cif.got.tgz:46603.got - 2010.04.10 20:52:16.
