data_PCOD8273717
_publ_section_title
;
Structure prediction by ZEFSAII (Michael W. Deem and Ramdas Pophale) SiO2 
 PCOD8273717
Probable space group: C M M M
;
_chemical_formula_sum "Si O2"
_cell_formula_units_Z 88
_cell_length_a 8.754443
_cell_length_b 18.396407
_cell_length_c 28.320828
_cell_angle_alpha 90.000000
_cell_angle_beta 90.000000
_cell_angle_gamma 90.000000
_cell_volume 4561.077746
_symmetry_space_group_name_H-M "C M M M"
_symmetry_group_IT_number 65
_symmetry_cell_setting 'orthorhombic'
loop_
_space_group_symop_operation_xyz
x,y,z
-x,-y,z
x,-y,-z
-x,y,-z
-x,-y,-z
x,y,-z
-x,y,z
x,-y,z
1/2+x,1/2+y,z
1/2-x,1/2-y,z
1/2+x,1/2-y,-z
1/2-x,1/2+y,-z
1/2-x,1/2-y,-z
1/2+x,1/2+y,-z
1/2-x,1/2+y,z
1/2+x,1/2-y,z
loop_
_atom_site_type_symbol
_atom_site_label
_atom_site_fract_x
_atom_site_fract_y
_atom_site_fract_z
Si Si1 0.319239 0.829405 0.280455
Si Si2 0.821650 0.327918 0.000000
Si Si3 0.819338 0.329498 0.898223
Si Si4 0.178473 0.084535 0.366118
Si Si5 0.821516 0.673583 0.445165
Si Si6 0.681887 0.918571 0.190322
O O1 0.500000 0.823013 0.280021
O O2 0.250000 0.750000 0.279431
O O3 0.268858 0.871159 0.326960
O O4 0.257809 0.873106 0.234962
O O5 0.750000 0.250000 0.000000
O O6 0.774789 0.365188 0.050137
O O7 0.000000 0.316333 0.000000
O O8 0.750000 0.250000 0.891679
O O9 0.754403 0.382126 0.857672
O O10 0.000000 0.321625 0.893092
O O11 0.239091 0.109015 0.417194
O O12 0.000000 0.101293 0.361892
O O13 0.214705 0.000000 0.359607
O O14 0.789715 0.658821 0.500000
O O15 0.750000 0.750000 0.429000
O O16 0.000000 0.674975 0.433339
O O17 0.500000 0.920676 0.189930
O O18 0.748529 0.000000 0.193638
#
# Coordination Sequence:
#
# PCOD8273717 Si02
#       6
#    16   8  16  16  16  16
#     4  11  22  37  58  80 104 136 176 220 265 316
#     4   8  14  24  41  67  95 125 161 204 252 298
#     4   9  16  28  47  70  97 128 166 209 252 303
#     4  11  24  40  58  82 113 146 179 219 267 317
#     4  10  21  38  61  87 115 148 186 226 265 309
#     4   9  18  32  50  73 101 133 168 209 259 312
#
# _framework density 19.293686000000001
#
# number of rings (size 3 to 8) (size 9 to 14) (size 15 to 20)
#    0.000    2.182    0.000    3.273    0.000    3.636 
#    0.000    3.182    0.000    5.455    0.000    0.000 
#    0.000    7.273    0.000    0.000    0.000    0.000 
#
# Total GULP energy -545468.660003 kJ/mol
# GULP energy per Si atom -12397.015000 kJ/mol
# Density = 1.924977 g / cm^3
# Si number density = 19.293686 Si / 1000 Ang^3
#
#
#
# Elastic Constant Matrix: (Units=GPa)
#
#
# Indices 1 2 3 4 5 6 
#
# 1 49.1934 38.9459 32.4450 0.0000 0.0000 0.0000
# 2 38.9459 134.2412 77.0121 0.0000 0.0000 0.0000
# 3 32.4450 77.0121 141.5589 0.0000 0.0000 0.0000
# 4 0.0000 0.0000 0.0000 20.4328 0.0000 0.0000
# 5 0.0000 0.0000 0.0000 0.0000 18.5974 0.0000
# 6 0.0000 0.0000 0.0000 0.0000 0.0000 19.9744
#
#
#
# Elastic Compliance Matrix: (Units=1/GPa)
#
#
# Indices 1 2 3 4 5 6 
#
# 1 0.027140 -0.006258 -0.002816 0.000000 0.000000 0.000000
# 2 -0.006258 0.012272 -0.005242 0.000000 0.000000 0.000000
# 3 -0.002816 -0.005242 0.010561 0.000000 0.000000 0.000000
# 4 0.000000 0.000000 0.000000 0.048941 0.000000 0.000000
# 5 0.000000 0.000000 0.000000 0.000000 0.053771 0.000000
# 6 0.000000 0.000000 0.000000 0.000000 0.000000 0.050064
#
#
# Mechanical properties :
#
#
# Convention : Reuss Voigt Hill
#
# Bulk Modulus (GPa) = 46.85793 69.08883 57.97338
# Shear Modulus (GPa) = 20.96482 23.57364 22.26923
#
# Velocity S-wave (km/s) = 3.29996 3.49926 3.40107
# Velocity P-wave (km/s) = 6.23370 7.22587 6.74805
#
# Compressibility (1/GPa) = 0.02134110
#
# Stress axis : x y z
#
# Youngs Moduli (GPa) = 36.84644 81.48462 94.68503
#
# Poissons Ratio (x) = 0.50997 0.26659
# Poissons Ratio (y) = 0.23060 0.49634
# Poissons Ratio (z) = 0.10374 0.42714
#
# Static dielectric constant tensor:
#      x y z
#    x 3.383890 0.000000 0.000000 
#    y 0.000000 3.499220 0.000000 
#    z 0.000000 0.000000 4.040930 
# 
# 
# High freq. dielectric constant tensor:
#      x y z
#    x 1.737250 0.000000 0.000000 
#    y 0.000000 1.739450 0.000000 
#    z 0.000000 0.000000 1.775540 
# 
# From -- ./inp_files/76642.got.cif
#   From: 2010.03.12/outbox.cif.g09.slc.cpg/sg65_39_cif.got.tgz:76642.got - 2010.04.10 20:52:16.
