data_PCOD8273705
_publ_section_title
;
Structure prediction by ZEFSAII (Michael W. Deem and Ramdas Pophale) SiO2 
 PCOD8273705
Probable space group: C M M M
;
_chemical_formula_sum "Si O2"
_cell_formula_units_Z 72
_cell_length_a 18.638433
_cell_length_b 23.522426
_cell_length_c 7.931947
_cell_angle_alpha 90.000000
_cell_angle_beta 90.000000
_cell_angle_gamma 90.000000
_cell_volume 3477.533413
_symmetry_space_group_name_H-M "C M M M"
_symmetry_group_IT_number 65
_symmetry_cell_setting 'orthorhombic'
loop_
_space_group_symop_operation_xyz
x,y,z
-x,-y,z
x,-y,-z
-x,y,-z
-x,-y,-z
x,y,-z
-x,y,z
x,-y,z
1/2+x,1/2+y,z
1/2-x,1/2-y,z
1/2+x,1/2-y,-z
1/2-x,1/2+y,-z
1/2-x,1/2-y,-z
1/2+x,1/2+y,-z
1/2-x,1/2+y,z
1/2+x,1/2-y,z
loop_
_atom_site_type_symbol
_atom_site_label
_atom_site_fract_x
_atom_site_fract_y
_atom_site_fract_z
Si Si1 0.918866 0.354131 0.799425
Si Si2 0.671709 0.749312 0.805428
Si Si3 0.844004 0.120301 0.189009
Si Si4 0.202074 0.434776 0.696296
Si Si5 0.915811 0.062451 0.500000
O O1 0.881531 0.296521 0.726551
O O2 0.876311 0.409114 0.732363
O O3 0.000000 0.356840 0.728837
O O4 0.919772 0.354303 0.000000
O O5 0.750000 0.750000 0.716369
O O6 0.640256 0.686677 0.782389
O O7 0.681907 0.765642 0.000000
O O8 0.760328 0.103654 0.206314
O O9 0.891620 0.090349 0.327318
O O10 0.868588 0.103030 0.000000
O O11 0.220827 0.432156 0.500000
O O12 0.203811 0.500000 0.760720
O O13 0.000000 0.061102 0.500000
O O14 0.881620 0.000000 0.500000
#
# Coordination Sequence:
#
# PCOD8273705 Si02
#       5
#    16  16  16  16   8
#     4  10  21  38  60  89 126 165 209 263 317 374
#     4   9  17  34  61  90 121 158 200 254 316 373
#     4  11  22  40  69  96 124 164 211 259 313 378
#     4  11  23  39  60  88 125 166 212 266 315 370
#     4  11  26  46  63  90 133 167 205 264 316 368
#
# _framework density 20.704331
#
# number of rings (size 3 to 8) (size 9 to 14) (size 15 to 20)
#    0.000    1.667    3.333    1.333    0.000    5.333 
#    2.000    7.222    0.000    0.000    0.000    0.000 
#    0.000    0.000    0.000    0.000    0.000    0.000 
#
# Total GULP energy -446368.244589 kJ/mol
# GULP energy per Si atom -12399.117905 kJ/mol
# Density = 2.065721 g / cm^3
# Si number density = 20.704331 Si / 1000 Ang^3
#
#
#
# Elastic Constant Matrix: (Units=GPa)
#
#
# Indices 1 2 3 4 5 6 
#
# 1 81.3565 37.7454 18.9845 0.0000 0.0000 0.0000
# 2 37.7454 118.4885 31.1173 0.0000 0.0000 0.0000
# 3 18.9845 31.1173 89.4932 0.0000 0.0000 0.0000
# 4 0.0000 0.0000 0.0000 32.2736 0.0000 0.0000
# 5 0.0000 0.0000 0.0000 0.0000 23.1834 0.0000
# 6 0.0000 0.0000 0.0000 0.0000 0.0000 33.5228
#
#
#
# Elastic Compliance Matrix: (Units=1/GPa)
#
#
# Indices 1 2 3 4 5 6 
#
# 1 0.014637 -0.004234 -0.001633 0.000000 0.000000 0.000000
# 2 -0.004234 0.010512 -0.002757 0.000000 0.000000 0.000000
# 3 -0.001633 -0.002757 0.012479 0.000000 0.000000 0.000000
# 4 0.000000 0.000000 0.000000 0.030985 0.000000 0.000000
# 5 0.000000 0.000000 0.000000 0.000000 0.043134 0.000000
# 6 0.000000 0.000000 0.000000 0.000000 0.000000 0.029830
#
#
# Mechanical properties :
#
#
# Convention : Reuss Voigt Hill
#
# Bulk Modulus (GPa) = 49.06575 51.67027 50.36801
# Shear Modulus (GPa) = 30.18970 31.22870 30.70920
#
# Velocity S-wave (km/s) = 3.82270 3.88792 3.85545
# Velocity P-wave (km/s) = 6.57524 6.72049 6.64826
#
# Compressibility (1/GPa) = 0.02038082
#
# Stress axis : x y z
#
# Youngs Moduli (GPa) = 68.32036 95.12545 80.13422
#
# Poissons Ratio (x) = 0.40275 0.13085
# Poissons Ratio (y) = 0.28926 0.22094
# Poissons Ratio (z) = 0.11156 0.26227
#
# Static dielectric constant tensor:
#      x y z
#    x 3.836050 0.000000 0.000000 
#    y 0.000000 3.933240 0.000000 
#    z 0.000000 0.000000 3.526490 
# 
# 
# High freq. dielectric constant tensor:
#      x y z
#    x 1.803950 0.000000 0.000000 
#    y 0.000000 1.821600 0.000000 
#    z 0.000000 0.000000 1.795770 
# 
# From -- ./inp_files/11276.got.cif
#   From: 2010.03.12/outbox.cif.g09.slc.cpg/sg65_6_cif.got.tgz:11276.got - 2010.04.10 20:52:16.
