data_PCOD8273821
_publ_section_title
;
Structure prediction by ZEFSAII (Michael W. Deem and Ramdas Pophale) SiO2 
 PCOD8273821
Probable space group: C M M M
;
_chemical_formula_sum "Si O2"
_cell_formula_units_Z 120
_cell_length_a 26.994020
_cell_length_b 8.755964
_cell_length_c 27.828612
_cell_angle_alpha 90.000000
_cell_angle_beta 90.000000
_cell_angle_gamma 90.000000
_cell_volume 6577.533646
_symmetry_space_group_name_H-M "C M M M"
_symmetry_group_IT_number 65
_symmetry_cell_setting 'orthorhombic'
loop_
_space_group_symop_operation_xyz
x,y,z
-x,-y,z
x,-y,-z
-x,y,-z
-x,-y,-z
x,y,-z
-x,y,z
x,-y,z
1/2+x,1/2+y,z
1/2-x,1/2-y,z
1/2+x,1/2-y,-z
1/2-x,1/2+y,-z
1/2-x,1/2-y,-z
1/2+x,1/2+y,-z
1/2-x,1/2+y,z
1/2+x,1/2-y,z
loop_
_atom_site_type_symbol
_atom_site_label
_atom_site_fract_x
_atom_site_fract_y
_atom_site_fract_z
Si Si1 0.353977 0.182221 0.352722
Si Si2 0.604169 0.176954 0.201240
Si Si3 0.197836 0.321514 0.056231
Si Si4 0.200100 0.675516 0.259726
Si Si5 0.500000 0.825958 0.943189
Si Si6 0.598483 0.320252 0.100396
Si Si7 0.553861 0.181825 0.702027
Si Si8 0.696842 0.180449 0.553040
O O1 0.317052 0.244681 0.311299
O O2 0.408656 0.243242 0.338830
O O3 0.339682 0.244391 0.405580
O O4 0.353479 0.000000 0.352154
O O5 0.660462 0.202074 0.217895
O O6 0.592446 0.283687 0.156448
O O7 0.569084 0.233225 0.244540
O O8 0.594537 0.000000 0.187793
O O9 0.199133 0.500000 0.068167
O O10 0.250000 0.250000 0.074684
O O11 0.150055 0.250472 0.081990
O O12 0.191697 0.288623 0.000000
O O13 0.210360 0.500000 0.268120
O O14 0.250000 0.750000 0.241080
O O15 0.550210 0.744779 0.926067
O O16 0.500000 0.000000 0.924115
O O17 0.500000 0.821094 0.000000
O O18 0.600339 0.500000 0.091709
O O19 0.500000 0.248871 0.689778
O O20 0.554588 0.000000 0.701444
O O21 0.677039 0.228629 0.500000
O O22 0.750000 0.250000 0.563004
O O23 0.701952 0.000000 0.556640
#
# Coordination Sequence:
#
# PCOD8273821 Si02
#       8
#    16  16  16  16   8  16  16  16
#     4   8  14  25  40  62  91 120 157 204 248 294
#     4   9  19  34  50  72  99 128 166 208 250 299
#     4  10  21  39  63  88 113 144 182 222 263 309
#     4   9  17  29  46  67  94 128 165 206 249 295
#     4  11  25  45  67  87 109 143 183 221 262 311
#     4  12  25  39  58  86 117 146 176 216 268 321
#     4   8  14  26  47  70  88 116 161 207 248 294
#     4   9  16  25  39  61  91 126 158 193 241 293
#
# _framework density 18.243919999999999
#
# number of rings (size 3 to 8) (size 9 to 14) (size 15 to 20)
#    0.000    2.600    0.000    4.200    0.933    4.000 
#    0.000    1.333    0.000    1.200    0.000    2.800 
#    0.000    0.000    0.000    3.333    0.000    3.467 
#
# Total GULP energy -743651.580891 kJ/mol
# GULP energy per Si atom -12394.193015 kJ/mol
# Density = 1.820240 g / cm^3
# Si number density = 18.243920 Si / 1000 Ang^3
#
#
#
# Elastic Constant Matrix: (Units=GPa)
#
#
# Indices 1 2 3 4 5 6 
#
# 1 141.5561 37.3090 56.0407 0.0000 0.0000 0.0000
# 2 37.3090 56.0791 31.7728 0.0000 0.0000 0.0000
# 3 56.0407 31.7728 106.5838 0.0000 0.0000 0.0000
# 4 0.0000 0.0000 0.0000 14.2179 0.0000 0.0000
# 5 0.0000 0.0000 0.0000 0.0000 63.0225 0.0000
# 6 0.0000 0.0000 0.0000 0.0000 0.0000 24.5643
#
#
#
# Elastic Compliance Matrix: (Units=1/GPa)
#
#
# Indices 1 2 3 4 5 6 
#
# 1 0.009710 -0.004293 -0.003826 0.000000 0.000000 0.000000
# 2 -0.004293 0.023353 -0.004705 0.000000 0.000000 0.000000
# 3 -0.003826 -0.004705 0.012796 0.000000 0.000000 0.000000
# 4 0.000000 0.000000 0.000000 0.070334 0.000000 0.000000
# 5 0.000000 0.000000 0.000000 0.000000 0.015867 0.000000
# 6 0.000000 0.000000 0.000000 0.000000 0.000000 0.040710
#
#
# Mechanical properties :
#
#
# Convention : Reuss Voigt Hill
#
# Bulk Modulus (GPa) = 49.47152 61.60713 55.53932
# Shear Modulus (GPa) = 24.37179 32.30069 28.33624
#
# Velocity S-wave (km/s) = 3.65894 4.21228 3.94533
# Velocity P-wave (km/s) = 6.71015 7.58285 7.15981
#
# Compressibility (1/GPa) = 0.02021365
#
# Stress axis : x y z
#
# Youngs Moduli (GPa) = 102.98262 42.82048 78.14676
#
# Poissons Ratio (x) = 0.18381 0.29899
# Poissons Ratio (y) = 0.44206 0.36766
# Poissons Ratio (z) = 0.39401 0.20146
#
# Static dielectric constant tensor:
#      x y z
#    x 3.296720 0.000000 0.000000 
#    y 0.000000 3.121440 0.000000 
#    z 0.000000 0.000000 3.538960 
# 
# 
# High freq. dielectric constant tensor:
#      x y z
#    x 1.711310 0.000000 0.000000 
#    y 0.000000 1.679190 0.000000 
#    z 0.000000 0.000000 1.706470 
# 
# From -- ./inp_files/76092.got.cif
#   From: 2010.03.12/outbox.cif.g09.slc.cpg/sg65_39_cif.got.tgz:76092.got - 2010.04.10 20:52:16.
