data_PCOD8273514
_publ_section_title
;
Structure prediction by ZEFSAII (Michael W. Deem and Ramdas Pophale) SiO2 
 PCOD8273514
Probable space group: C M M M
;
_chemical_formula_sum "Si O2"
_cell_formula_units_Z 72
_cell_length_a 8.712175
_cell_length_b 26.330335
_cell_length_c 15.620067
_cell_angle_alpha 90.000000
_cell_angle_beta 90.000000
_cell_angle_gamma 90.000000
_cell_volume 3583.157246
_symmetry_space_group_name_H-M "C M M M"
_symmetry_group_IT_number 65
_symmetry_cell_setting 'orthorhombic'
loop_
_space_group_symop_operation_xyz
x,y,z
-x,-y,z
x,-y,-z
-x,y,-z
-x,-y,-z
x,y,-z
-x,y,z
x,-y,z
1/2+x,1/2+y,z
1/2-x,1/2-y,z
1/2+x,1/2-y,-z
1/2-x,1/2+y,-z
1/2-x,1/2-y,-z
1/2+x,1/2+y,-z
1/2-x,1/2+y,z
1/2+x,1/2-y,z
loop_
_atom_site_type_symbol
_atom_site_label
_atom_site_fract_x
_atom_site_fract_y
_atom_site_fract_z
Si Si1 0.317997 0.500000 0.401474
Si Si2 0.819427 0.397751 0.324294
Si Si3 0.831848 0.558069 0.000000
Si Si4 0.180594 0.116952 0.141108
Si Si5 0.321091 0.695707 0.000000
Si Si6 0.670796 0.300523 0.399611
O O1 0.500000 0.500000 0.396242
O O2 0.261603 0.500000 0.500000
O O3 0.258453 0.550161 0.354247
O O4 0.772908 0.383240 0.228652
O O5 0.768902 0.350950 0.383363
O O6 0.000000 0.405245 0.331302
O O7 0.732597 0.569369 0.915489
O O8 0.867280 0.500000 0.000000
O O9 0.000000 0.585998 0.000000
O O10 0.229181 0.166390 0.086094
O O11 0.000000 0.114206 0.159791
O O12 0.250000 0.750000 0.000000
O O13 0.500000 0.701537 0.000000
O O14 0.656234 0.293013 0.500000
O O15 0.500000 0.306200 0.359197
O O16 0.750000 0.250000 0.359554
#
# Coordination Sequence:
#
# PCOD8273514 Si02
#       6
#     8  16   8  16   8  16
#     4  11  25  45  67  90 121 166 213 259 317 383
#     4  12  25  40  62  92 127 163 207 261 316 372
#     4  10  21  37  59  85 116 148 188 241 296 350
#     4  10  22  40  59  85 119 157 203 245 295 361
#     4   9  20  38  62  88 117 158 201 246 299 359
#     4  10  21  39  63  90 121 159 204 254 311 374
#
# _framework density 20.094010000000001
#
# number of rings (size 3 to 8) (size 9 to 14) (size 15 to 20)
#    0.000    1.556    0.000    5.333    1.556    9.333 
#    0.000    2.222    0.000    0.000    0.000    0.000 
#    0.000    0.000    0.000    0.000    0.000    0.000 
#
# Total GULP energy -446384.608236 kJ/mol
# GULP energy per Si atom -12399.572451 kJ/mol
# Density = 2.004828 g / cm^3
# Si number density = 20.094010 Si / 1000 Ang^3
#
#
#
# Elastic Constant Matrix: (Units=GPa)
#
#
# Indices 1 2 3 4 5 6 
#
# 1 101.2338 48.2440 33.8606 0.0000 0.0000 0.0000
# 2 48.2440 158.3145 39.7083 0.0000 0.0000 0.0000
# 3 33.8606 39.7083 85.9004 0.0000 0.0000 0.0000
# 4 0.0000 0.0000 0.0000 19.5774 0.0000 0.0000
# 5 0.0000 0.0000 0.0000 0.0000 4.7430 0.0000
# 6 0.0000 0.0000 0.0000 0.0000 0.0000 37.8216
#
#
#
# Elastic Compliance Matrix: (Units=1/GPa)
#
#
# Indices 1 2 3 4 5 6 
#
# 1 0.012454 -0.002900 -0.003568 0.000000 0.000000 0.000000
# 2 -0.002900 0.007820 -0.002472 0.000000 0.000000 0.000000
# 3 -0.003568 -0.002472 0.014191 0.000000 0.000000 0.000000
# 4 0.000000 0.000000 0.000000 0.051079 0.000000 0.000000
# 5 0.000000 0.000000 0.000000 0.000000 0.210837 0.000000
# 6 0.000000 0.000000 0.000000 0.000000 0.000000 0.026440
#
#
# Mechanical properties :
#
#
# Convention : Reuss Voigt Hill
#
# Bulk Modulus (GPa) = 60.29937 65.45270 62.87603
# Shear Modulus (GPa) = 14.44127 27.33747 20.88937
#
# Velocity S-wave (km/s) = 2.68374 3.69247 3.22775
# Velocity P-wave (km/s) = 6.29897 7.12903 6.72682
#
# Compressibility (1/GPa) = 0.01658392
#
# Stress axis : x y z
#
# Youngs Moduli (GPa) = 80.29700 127.87279 70.46884
#
# Poissons Ratio (x) = 0.37084 0.25147
# Poissons Ratio (y) = 0.23287 0.17419
# Poissons Ratio (z) = 0.28654 0.31608
#
# Static dielectric constant tensor:
#      x y z
#    x 4.054050 0.000000 0.000000 
#    y 0.000000 3.649200 0.000000 
#    z 0.000000 0.000000 3.683720 
# 
# 
# High freq. dielectric constant tensor:
#      x y z
#    x 1.802380 0.000000 0.000000 
#    y 0.000000 1.790830 0.000000 
#    z 0.000000 0.000000 1.781770 
# 
# From -- ./inp_files/36684.got.cif
#   From: 2010.03.12/outbox.cif.g09.slc.cpg/sg65_19_cif.got.tgz:36684.got - 2010.04.10 20:52:16.
