data_PCOD8273571
_publ_section_title
;
Structure prediction by ZEFSAII (Michael W. Deem and Ramdas Pophale) SiO2 
 PCOD8273571
Probable space group: C M M M
;
_chemical_formula_sum "Si O2"
_cell_formula_units_Z 80
_cell_length_a 23.791299
_cell_length_b 8.871985
_cell_length_c 20.017348
_cell_angle_alpha 90.000000
_cell_angle_beta 90.000000
_cell_angle_gamma 90.000000
_cell_volume 4225.182704
_symmetry_space_group_name_H-M "C M M M"
_symmetry_group_IT_number 65
_symmetry_cell_setting 'orthorhombic'
loop_
_space_group_symop_operation_xyz
x,y,z
-x,-y,z
x,-y,-z
-x,y,-z
-x,-y,-z
x,y,-z
-x,y,z
x,-y,z
1/2+x,1/2+y,z
1/2-x,1/2-y,z
1/2+x,1/2-y,-z
1/2-x,1/2+y,-z
1/2-x,1/2-y,-z
1/2+x,1/2+y,-z
1/2-x,1/2+y,z
1/2+x,1/2-y,z
loop_
_atom_site_type_symbol
_atom_site_label
_atom_site_fract_x
_atom_site_fract_y
_atom_site_fract_z
Si Si1 0.000000 0.177668 0.876721
Si Si2 0.000000 0.820808 0.275629
Si Si3 0.611347 0.173974 0.075374
Si Si4 0.191822 0.174408 0.578326
Si Si5 0.189682 0.322955 0.193337
Si Si6 0.386058 0.821460 0.681939
O O1 0.945572 0.234859 0.915209
O O2 0.000000 0.237042 0.800745
O O3 0.000000 0.000000 0.878663
O O4 0.053761 0.755617 0.312988
O O5 0.000000 0.000000 0.280293
O O6 0.659480 0.233319 0.125462
O O7 0.597785 0.000000 0.090735
O O8 0.633469 0.197377 0.000000
O O9 0.181710 0.194115 0.500000
O O10 0.250000 0.250000 0.600957
O O11 0.141492 0.260814 0.614299
O O12 0.193341 0.000000 0.599639
O O13 0.198403 0.500000 0.192820
O O14 0.250000 0.250000 0.199747
O O15 0.151743 0.270825 0.255360
O O16 0.393262 0.000000 0.678509
#
# Coordination Sequence:
#
# PCOD8273571 Si02
#       6
#     8   8  16  16  16  16
#     4  11  22  36  57  85 113 143 184 239 290 338
#     4  11  23  38  59  86 116 151 188 236 293 346
#     4  10  21  38  58  79 109 150 191 233 285 345
#     4  10  21  38  61  90 124 159 195 236 281 334
#     4  10  22  37  55  81 111 146 189 234 283 338
#     4  11  22  38  61  87 116 152 193 240 287 341
#
# _framework density 18.934093000000001
#
# number of rings (size 3 to 8) (size 9 to 14) (size 15 to 20)
#    0.000    1.600    2.000    2.700    0.000    8.000 
#    0.000    0.500    0.000    3.000    0.000    0.000 
#    0.000    0.000    0.000    0.000    0.000    0.000 
#
# Total GULP energy -496232.025912 kJ/mol
# GULP energy per Si atom -12405.800648 kJ/mol
# Density = 1.889100 g / cm^3
# Si number density = 18.934093 Si / 1000 Ang^3
#
#
#
# Elastic Constant Matrix: (Units=GPa)
#
#
# Indices 1 2 3 4 5 6 
#
# 1 154.5871 48.9220 55.0789 0.0000 0.0000 0.0000
# 2 48.9220 71.7894 38.0964 0.0000 0.0000 0.0000
# 3 55.0789 38.0964 84.5959 0.0000 0.0000 0.0000
# 4 0.0000 0.0000 0.0000 27.6426 0.0000 0.0000
# 5 0.0000 0.0000 0.0000 0.0000 24.4974 0.0000
# 6 0.0000 0.0000 0.0000 0.0000 0.0000 34.8007
#
#
#
# Elastic Compliance Matrix: (Units=1/GPa)
#
#
# Indices 1 2 3 4 5 6 
#
# 1 0.009252 -0.004085 -0.004185 0.000000 0.000000 0.000000
# 2 -0.004085 0.020107 -0.006396 0.000000 0.000000 0.000000
# 3 -0.004185 -0.006396 0.017426 0.000000 0.000000 0.000000
# 4 0.000000 0.000000 0.000000 0.036176 0.000000 0.000000
# 5 0.000000 0.000000 0.000000 0.000000 0.040821 0.000000
# 6 0.000000 0.000000 0.000000 0.000000 0.000000 0.028735
#
#
# Mechanical properties :
#
#
# Convention : Reuss Voigt Hill
#
# Bulk Modulus (GPa) = 57.28826 66.12965 61.70895
# Shear Modulus (GPa) = 26.64325 28.64650 27.64487
#
# Velocity S-wave (km/s) = 3.75528 3.89390 3.82522
# Velocity P-wave (km/s) = 7.00894 7.43092 7.22301
#
# Compressibility (1/GPa) = 0.01745558
#
# Stress axis : x y z
#
# Youngs Moduli (GPa) = 108.07928 49.73390 57.38678
#
# Poissons Ratio (x) = 0.20314 0.24015
# Poissons Ratio (y) = 0.44145 0.36702
# Poissons Ratio (z) = 0.45228 0.31807
#
# Static dielectric constant tensor:
#      x y z
#    x 3.408000 0.000000 0.000000 
#    y 0.000000 3.481400 0.000000 
#    z 0.000000 0.000000 3.582380 
# 
# 
# High freq. dielectric constant tensor:
#      x y z
#    x 1.737730 0.000000 0.000000 
#    y 0.000000 1.740380 0.000000 
#    z 0.000000 0.000000 1.741570 
# 
# From -- ./inp_files/65074.got.cif
#   From: 2010.03.12/outbox.cif.g09.slc.cpg/sg65_33_cif.got.tgz:65074.got - 2010.04.10 20:52:16.
