data_PCOD8273211
_publ_section_title
;
Structure prediction by ZEFSAII (Michael W. Deem and Ramdas Pophale) SiO2 
 PCOD8273211
Probable space group: C M M M
;
_chemical_formula_sum "Si O2"
_cell_formula_units_Z 90
_cell_length_a 24.065149
_cell_length_b 22.079008
_cell_length_c 9.197672
_cell_angle_alpha 90.000000
_cell_angle_beta 90.000000
_cell_angle_gamma 90.000000
_cell_volume 4887.041532
_symmetry_space_group_name_H-M "C M M M"
_symmetry_group_IT_number 65
_symmetry_cell_setting 'orthorhombic'
loop_
_space_group_symop_operation_xyz
x,y,z
-x,-y,z
x,-y,-z
-x,y,-z
-x,-y,-z
x,y,-z
-x,y,z
x,-y,z
1/2+x,1/2+y,z
1/2-x,1/2-y,z
1/2+x,1/2-y,-z
1/2-x,1/2+y,-z
1/2-x,1/2-y,-z
1/2+x,1/2+y,-z
1/2-x,1/2+y,z
1/2+x,1/2-y,z
loop_
_atom_site_type_symbol
_atom_site_label
_atom_site_fract_x
_atom_site_fract_y
_atom_site_fract_z
Si Si1 0.435708 0.146975 0.665356
Si Si2 0.651770 0.070156 0.831045
Si Si3 0.500000 0.500000 0.500000
Si Si4 0.060156 0.000000 0.787252
Si Si5 0.064193 0.787285 0.665834
Si Si6 0.262931 0.570488 0.330351
Si Si7 0.866907 0.116728 0.164644
O O1 0.421655 0.127965 0.500000
O O2 0.500000 0.134793 0.698978
O O3 0.400938 0.107584 0.777444
O O4 0.421470 0.217218 0.688709
O O5 0.705924 0.091765 0.743814
O O6 0.639288 0.000000 0.800509
O O7 0.662017 0.082920 0.000000
O O8 0.550928 0.500000 0.614298
O O9 0.093712 0.058876 0.833556
O O10 0.000000 0.000000 0.867968
O O11 0.076520 0.807279 0.500000
O O12 0.100911 0.825219 0.775919
O O13 0.000000 0.800645 0.700852
O O14 0.258813 0.584968 0.500000
O O15 0.274152 0.500000 0.299285
O O16 0.312635 0.608450 0.262147
O O17 0.848235 0.129902 0.000000
#
# Coordination Sequence:
#
# PCOD8273211 Si02
#       7
#    16  16   2   8  16  16  16
#     4   9  19  38  61  86 113 145 185 228 271 322
#     4  10  21  37  58  86 119 147 176 220 278 336
#     4   8  24  36  50  76 104 148 190 248 276 332
#     4  10  23  34  52  75 109 144 189 238 284 324
#     4   9  20  37  58  79 107 147 191 233 274 326
#     4  10  21  36  58  80 106 146 192 232 274 328
#     4  12  23  34  52  79 113 147 184 232 285 334
#
# _framework density 18.416049999999998
#
# number of rings (size 3 to 8) (size 9 to 14) (size 15 to 20)
#    0.267    1.778    0.889    3.467    2.489    4.978 
#    0.000    4.444    0.000    5.333    0.000    0.000 
#    0.000    0.000    0.000    0.000    0.000    0.000 
#
# Total GULP energy -557581.363963 kJ/mol
# GULP energy per Si atom -12390.696977 kJ/mol
# Density = 1.837413 g / cm^3
# Si number density = 18.416050 Si / 1000 Ang^3
#
#
#
# Elastic Constant Matrix: (Units=GPa)
#
#
# Indices 1 2 3 4 5 6 
#
# 1 108.5986 54.9747 60.3780 0.0000 0.0000 0.0000
# 2 54.9747 66.1225 45.8686 0.0000 0.0000 0.0000
# 3 60.3780 45.8686 129.4453 0.0000 0.0000 0.0000
# 4 0.0000 0.0000 0.0000 14.2386 0.0000 0.0000
# 5 0.0000 0.0000 0.0000 0.0000 -163.7245 0.0000
# 6 0.0000 0.0000 0.0000 0.0000 0.0000 36.7511
#
#
#
# Elastic Compliance Matrix: (Units=1/GPa)
#
#
# Indices 1 2 3 4 5 6 
#
# 1 0.017294 -0.011645 -0.003940 0.000000 0.000000 0.000000
# 2 -0.011645 0.027894 -0.004452 0.000000 0.000000 0.000000
# 3 -0.003940 -0.004452 0.011141 0.000000 0.000000 0.000000
# 4 0.000000 0.000000 0.000000 0.070232 0.000000 0.000000
# 5 0.000000 0.000000 0.000000 0.000000 -0.006108 0.000000
# 6 0.000000 0.000000 0.000000 0.000000 0.000000 0.027210
#
#
# Mechanical properties :
#
#
# Convention : Reuss Voigt Hill
#
# Bulk Modulus (GPa) = 61.52582 69.62322 65.57452
# Shear Modulus (GPa) = 25.88601 -13.01728 6.43436
#
# Velocity S-wave (km/s) = 3.75323 -2.66154 1.87122
# Velocity P-wave (km/s) = 7.22936 5.33317 6.35242
#
# Compressibility (1/GPa) = 0.01625334
#
# Stress axis : x y z
#
# Youngs Moduli (GPa) = 57.82465 35.85039 89.76031
#
# Poissons Ratio (x) = 0.41747 0.35366
# Poissons Ratio (y) = 0.67336 0.39965
# Poissons Ratio (z) = 0.22783 0.15962
#
# Static dielectric constant tensor:
#      x y z
#    x 3.372370 0.000000 0.000000 
#    y 0.000000 3.591160 0.000000 
#    z 0.000000 0.000000 3.463710 
# 
# 
# High freq. dielectric constant tensor:
#      x y z
#    x 1.718730 0.000000 0.000000 
#    y 0.000000 1.694490 0.000000 
#    z 0.000000 0.000000 1.728860 
# 
# From -- ./inp_files/14016.got.cif
#   From: 2010.03.12/outbox.cif.g09.slc.cpg/sg65_8_cif.got.tgz:14016.got - 2010.04.10 20:52:16.
