data_PCOD8273984
_publ_section_title
;
Structure prediction by ZEFSAII (Michael W. Deem and Ramdas Pophale) SiO2 
 PCOD8273984
Probable space group: C M M M
;
_chemical_formula_sum "Si O2"
_cell_formula_units_Z 64
_cell_length_a 34.911602
_cell_length_b 9.122831
_cell_length_c 10.436440
_cell_angle_alpha 90.000000
_cell_angle_beta 90.000000
_cell_angle_gamma 90.000000
_cell_volume 3323.929380
_symmetry_space_group_name_H-M "C M M M"
_symmetry_group_IT_number 65
_symmetry_cell_setting 'orthorhombic'
loop_
_space_group_symop_operation_xyz
x,y,z
-x,-y,z
x,-y,-z
-x,y,-z
-x,-y,-z
x,y,-z
-x,y,z
x,-y,z
1/2+x,1/2+y,z
1/2-x,1/2-y,z
1/2+x,1/2-y,-z
1/2-x,1/2+y,-z
1/2-x,1/2-y,-z
1/2+x,1/2+y,-z
1/2-x,1/2+y,z
1/2+x,1/2-y,z
loop_
_atom_site_type_symbol
_atom_site_label
_atom_site_fract_x
_atom_site_fract_y
_atom_site_fract_z
Si Si1 0.148654 0.670211 0.646337
Si Si2 0.927179 0.826580 0.731523
Si Si3 0.000000 0.658192 0.356457
Si Si4 0.710502 0.171451 0.854813
Si Si5 0.043212 0.171997 0.000000
O O1 0.163061 0.696327 0.500000
O O2 0.139120 0.500000 0.669204
O O3 0.110851 0.762977 0.669698
O O4 0.180025 0.725461 0.749054
O O5 0.963397 0.758038 0.664002
O O6 0.931224 0.779666 0.879804
O O7 0.927317 0.000000 0.711565
O O8 0.000000 0.500000 0.279704
O O9 0.000000 0.608495 0.500000
O O10 0.750000 0.250000 0.822629
O O11 0.717842 0.000000 0.841031
O O12 0.696572 0.210495 0.000000
O O13 0.000000 0.243092 0.000000
O O14 0.036732 0.000000 0.000000
#
# Coordination Sequence:
#
# PCOD8273984 Si02
#       5
#    16  16   8  16   8
#     4  10  22  39  57  82 118 153 185 230 284 333
#     4  11  22  37  58  82 110 145 188 235 281 334
#     4  11  23  38  55  76 108 149 188 231 284 335
#     4   9  19  37  60  85 114 148 187 229 276 333
#     4   9  18  36  56  78 109 140 177 234 293 332
#
# _framework density 19.25432
#
# number of rings (size 3 to 8) (size 9 to 14) (size 15 to 20)
#    0.000    2.000    1.250    1.875    1.750    6.000 
#    0.000    2.500    0.000    0.000    0.000    0.000 
#    0.000    0.000    0.000    0.000    0.000    0.000 
#
# Total GULP energy -396648.797146 kJ/mol
# GULP energy per Si atom -12395.274911 kJ/mol
# Density = 1.921050 g / cm^3
# Si number density = 19.254320 Si / 1000 Ang^3
#
#
#
# Elastic Constant Matrix: (Units=GPa)
#
#
# Indices 1 2 3 4 5 6 
#
# 1 144.5158 57.2374 73.5670 0.0000 0.0000 0.0000
# 2 57.2374 72.5234 44.2545 0.0000 0.0000 0.0000
# 3 73.5670 44.2545 136.4274 0.0000 0.0000 0.0000
# 4 0.0000 0.0000 0.0000 23.9471 0.0000 0.0000
# 5 0.0000 0.0000 0.0000 0.0000 82.5579 0.0000
# 6 0.0000 0.0000 0.0000 0.0000 0.0000 44.7948
#
#
#
# Elastic Compliance Matrix: (Units=1/GPa)
#
#
# Indices 1 2 3 4 5 6 
#
# 1 0.011669 -0.006695 -0.004121 0.000000 0.000000 0.000000
# 2 -0.006695 0.021033 -0.003212 0.000000 0.000000 0.000000
# 3 -0.004121 -0.003212 0.010594 0.000000 0.000000 0.000000
# 4 0.000000 0.000000 0.000000 0.041759 0.000000 0.000000
# 5 0.000000 0.000000 0.000000 0.000000 0.012113 0.000000
# 6 0.000000 0.000000 0.000000 0.000000 0.000000 0.022324
#
#
# Mechanical properties :
#
#
# Convention : Reuss Voigt Hill
#
# Bulk Modulus (GPa) = 65.61859 78.17603 71.89731
# Shear Modulus (GPa) = 32.75960 42.15381 37.45670
#
# Velocity S-wave (km/s) = 4.12930 4.68409 4.41542
# Velocity P-wave (km/s) = 7.54246 8.36327 7.96345
#
# Compressibility (1/GPa) = 0.01523958
#
# Stress axis : x y z
#
# Youngs Moduli (GPa) = 85.69759 47.54481 94.39343
#
# Poissons Ratio (x) = 0.31831 0.38896
# Poissons Ratio (y) = 0.57375 0.30323
# Poissons Ratio (z) = 0.35313 0.15273
#
# Static dielectric constant tensor:
#      x y z
#    x 3.365620 0.000000 0.000000 
#    y 0.000000 3.430170 0.000000 
#    z 0.000000 0.000000 4.012320 
# 
# 
# High freq. dielectric constant tensor:
#      x y z
#    x 1.741610 0.000000 0.000000 
#    y 0.000000 1.745380 0.000000 
#    z 0.000000 0.000000 1.763370 
# 
# From -- ./inp_files/20978.got.cif
#   From: 2010.03.12/outbox.cif.g09.slc.cpg/sg65_11_cif.got.tgz:20978.got - 2010.04.10 20:52:16.
