data_PCOD8273914
_publ_section_title
;
Structure prediction by ZEFSAII (Michael W. Deem and Ramdas Pophale) SiO2 
 PCOD8273914
Probable space group: C M M M
;
_chemical_formula_sum "Si O2"
_cell_formula_units_Z 104
_cell_length_a 20.252137
_cell_length_b 9.671064
_cell_length_c 29.959048
_cell_angle_alpha 90.000000
_cell_angle_beta 90.000000
_cell_angle_gamma 90.000000
_cell_volume 5867.770545
_symmetry_space_group_name_H-M "C M M M"
_symmetry_group_IT_number 65
_symmetry_cell_setting 'orthorhombic'
loop_
_space_group_symop_operation_xyz
x,y,z
-x,-y,z
x,-y,-z
-x,y,-z
-x,-y,-z
x,y,-z
-x,y,z
x,-y,z
1/2+x,1/2+y,z
1/2-x,1/2-y,z
1/2+x,1/2-y,-z
1/2-x,1/2+y,-z
1/2-x,1/2-y,-z
1/2+x,1/2+y,-z
1/2-x,1/2+y,z
1/2+x,1/2-y,z
loop_
_atom_site_type_symbol
_atom_site_label
_atom_site_fract_x
_atom_site_fract_y
_atom_site_fract_z
Si Si1 0.879952 0.657298 0.449396
Si Si2 0.924558 0.339482 0.704091
Si Si3 0.578307 0.653286 0.784880
Si Si4 0.500000 0.654395 0.447285
Si Si5 0.190107 0.343412 0.362104
Si Si6 0.686886 0.660743 0.051585
Si Si7 0.073333 0.164211 0.116841
O O1 0.856623 0.691198 0.500000
O O2 0.907402 0.500000 0.446710
O O3 0.935913 0.761420 0.432145
O O4 0.819122 0.675942 0.415457
O O5 0.921042 0.500000 0.716462
O O6 0.896455 0.257002 0.746787
O O7 0.878169 0.302399 0.662248
O O8 0.000000 0.296638 0.691980
O O9 0.500000 0.644880 0.784043
O O10 0.607907 0.500000 0.775907
O O11 0.599258 0.709135 0.833919
O O12 0.500000 0.500000 0.426051
O O13 0.500000 0.643417 0.500000
O O14 0.209431 0.500000 0.350532
O O15 0.250000 0.250000 0.345017
O O16 0.701849 0.500000 0.061664
O O17 0.750000 0.750000 0.065820
O O18 0.624728 0.717281 0.079824
O O19 0.669041 0.684076 0.000000
O O20 0.000000 0.225832 0.106916
O O21 0.068477 0.000000 0.115655
#
# Coordination Sequence:
#
# PCOD8273914 Si02
#       7
#    16  16  16   8  16  16  16
#     4   9  18  33  53  74  97 130 167 197 234 289
#     4   9  18  33  53  74  96 125 160 197 237 285
#     4   8  14  27  48  72  96 121 152 194 241 286
#     4   9  17  29  47  75 105 127 153 197 243 273
#     4  10  22  37  53  73 101 132 162 199 243 287
#     4   9  17  29  45  65  92 127 163 197 235 281
#     4   8  14  26  46  71  95 119 153 199 244 281
#
# _framework density 17.723938
#
# number of rings (size 3 to 8) (size 9 to 14) (size 15 to 20)
#    0.000    3.154    0.000    1.154    1.077    2.769 
#    0.000    3.077    0.000    5.077    0.000    2.154 
#    0.000    0.000    0.000    0.000    0.000    0.000 
#
# Total GULP energy -644525.417914 kJ/mol
# GULP energy per Si atom -12394.719575 kJ/mol
# Density = 1.768360 g / cm^3
# Si number density = 17.723938 Si / 1000 Ang^3
#
#
#
# Elastic Constant Matrix: (Units=GPa)
#
#
# Indices 1 2 3 4 5 6 
#
# 1 95.4534 45.8552 58.9436 0.0000 0.0000 0.0000
# 2 45.8552 64.5100 39.2039 0.0000 0.0000 0.0000
# 3 58.9436 39.2039 106.6327 0.0000 0.0000 0.0000
# 4 0.0000 0.0000 0.0000 22.6667 0.0000 0.0000
# 5 0.0000 0.0000 0.0000 0.0000 14.3162 0.0000
# 6 0.0000 0.0000 0.0000 0.0000 0.0000 24.1934
#
#
#
# Elastic Compliance Matrix: (Units=1/GPa)
#
#
# Indices 1 2 3 4 5 6 
#
# 1 0.019533 -0.009430 -0.007330 0.000000 0.000000 0.000000
# 2 -0.009430 0.024514 -0.003800 0.000000 0.000000 0.000000
# 3 -0.007330 -0.003800 0.014827 0.000000 0.000000 0.000000
# 4 0.000000 0.000000 0.000000 0.044118 0.000000 0.000000
# 5 0.000000 0.000000 0.000000 0.000000 0.069851 0.000000
# 6 0.000000 0.000000 0.000000 0.000000 0.000000 0.041334
#
#
# Mechanical properties :
#
#
# Convention : Reuss Voigt Hill
#
# Bulk Modulus (GPa) = 56.32709 61.62240 58.97474
# Shear Modulus (GPa) = 19.14142 20.40815 19.77479
#
# Velocity S-wave (km/s) = 3.28986 3.39698 3.34385
# Velocity P-wave (km/s) = 6.80295 7.08726 6.94656
#
# Compressibility (1/GPa) = 0.01775345
#
# Stress axis : x y z
#
# Youngs Moduli (GPa) = 51.19581 40.79357 67.44391
#
# Poissons Ratio (x) = 0.38467 0.49439
# Poissons Ratio (y) = 0.48276 0.25629
# Poissons Ratio (z) = 0.37529 0.15502
#
# Static dielectric constant tensor:
#      x y z
#    x 3.133420 0.000000 0.000000 
#    y 0.000000 3.317580 0.000000 
#    z 0.000000 0.000000 3.450500 
# 
# 
# High freq. dielectric constant tensor:
#      x y z
#    x 1.659310 0.000000 0.000000 
#    y 0.000000 1.668250 0.000000 
#    z 0.000000 0.000000 1.685090 
# 
# From -- ./inp_files/78261.got.cif
#   From: 2010.03.12/outbox.cif.g09.slc.cpg/sg65_40_cif.got.tgz:78261.got - 2010.04.10 20:52:16.
