data_PCOD8273867
_publ_section_title
;
Structure prediction by ZEFSAII (Michael W. Deem and Ramdas Pophale) SiO2 
 PCOD8273867
Probable space group: C M M M
;
_chemical_formula_sum "Si O2"
_cell_formula_units_Z 96
_cell_length_a 23.219473
_cell_length_b 8.816946
_cell_length_c 25.535788
_cell_angle_alpha 90.000000
_cell_angle_beta 90.000000
_cell_angle_gamma 90.000000
_cell_volume 5227.810102
_symmetry_space_group_name_H-M "C M M M"
_symmetry_group_IT_number 65
_symmetry_cell_setting 'orthorhombic'
loop_
_space_group_symop_operation_xyz
x,y,z
-x,-y,z
x,-y,-z
-x,y,-z
-x,-y,-z
x,y,-z
-x,y,z
x,-y,z
1/2+x,1/2+y,z
1/2-x,1/2-y,z
1/2+x,1/2-y,-z
1/2-x,1/2+y,-z
1/2-x,1/2-y,-z
1/2+x,1/2+y,-z
1/2-x,1/2+y,z
1/2+x,1/2-y,z
loop_
_atom_site_type_symbol
_atom_site_label
_atom_site_fract_x
_atom_site_fract_y
_atom_site_fract_z
Si Si1 0.879210 0.827692 0.907681
Si Si2 0.188716 0.323026 0.500000
Si Si3 0.500000 0.679941 0.867798
Si Si4 0.687410 0.178433 0.613065
Si Si5 0.616326 0.820626 0.287822
Si Si6 0.000000 0.180400 0.250684
Si Si7 0.309881 0.326355 0.198609
Si Si8 0.812374 0.677067 0.000000
O O1 0.849638 0.819079 0.851800
O O2 0.847297 0.721534 0.948514
O O3 0.944154 0.765729 0.900079
O O4 0.878871 0.000000 0.929065
O O5 0.198135 0.500000 0.500000
O O6 0.250000 0.250000 0.500000
O O7 0.159665 0.276134 0.444279
O O8 0.500000 0.500000 0.862566
O O9 0.500000 0.745998 0.808697
O O10 0.750000 0.250000 0.622601
O O11 0.642058 0.233034 0.656487
O O12 0.696726 0.000000 0.617811
O O13 0.555667 0.738467 0.281217
O O14 0.661254 0.769750 0.244114
O O15 0.607189 0.000000 0.284628
O O16 0.000000 0.000000 0.250491
O O17 0.301097 0.500000 0.216798
O O18 0.250000 0.250000 0.183516
O O19 0.750000 0.750000 0.000000
O O20 0.802530 0.500000 0.000000
#
# Coordination Sequence:
#
# PCOD8273867 Si02
#       8
#    16   8   8  16  16   8  16   8
#     4  10  21  40  64  86 112 147 186 227 270 323
#     4   8  14  28  48  71 102 143 183 226 272 324
#     4   9  18  38  64  87 109 141 185 225 266 323
#     4   9  18  31  50  77 110 144 184 227 276 331
#     4  11  22  35  53  81 112 144 182 230 283 335
#     4  11  21  39  60  81 108 146 190 228 275 332
#     4  11  22  36  56  82 113 148 186 227 275 334
#     4  12  26  43  62  87 117 148 186 228 277 332
#
# _framework density 18.363330999999999
#
# number of rings (size 3 to 8) (size 9 to 14) (size 15 to 20)
#    0.000    1.833    1.667    3.000    0.000    5.667 
#    0.000    2.083    0.000    0.500    0.000    3.500 
#    0.000    0.000    0.000    0.000    0.000    0.000 
#
# Total GULP energy -595052.598424 kJ/mol
# GULP energy per Si atom -12396.929134 kJ/mol
# Density = 1.832153 g / cm^3
# Si number density = 18.363331 Si / 1000 Ang^3
#
#
#
# Elastic Constant Matrix: (Units=GPa)
#
#
# Indices 1 2 3 4 5 6 
#
# 1 135.0988 41.2606 54.1953 0.0000 0.0000 0.0000
# 2 41.2606 72.3797 41.8745 0.0000 0.0000 0.0000
# 3 54.1953 41.8745 126.6628 0.0000 0.0000 0.0000
# 4 0.0000 0.0000 0.0000 30.7526 0.0000 0.0000
# 5 0.0000 0.0000 0.0000 0.0000 9.0490 0.0000
# 6 0.0000 0.0000 0.0000 0.0000 0.0000 29.5939
#
#
#
# Elastic Compliance Matrix: (Units=1/GPa)
#
#
# Indices 1 2 3 4 5 6 
#
# 1 0.009746 -0.003887 -0.002885 0.000000 0.000000 0.000000
# 2 -0.003887 0.018634 -0.004497 0.000000 0.000000 0.000000
# 3 -0.002885 -0.004497 0.010616 0.000000 0.000000 0.000000
# 4 0.000000 0.000000 0.000000 0.032518 0.000000 0.000000
# 5 0.000000 0.000000 0.000000 0.000000 0.110509 0.000000
# 6 0.000000 0.000000 0.000000 0.000000 0.000000 0.033791
#
#
# Mechanical properties :
#
#
# Convention : Reuss Voigt Hill
#
# Bulk Modulus (GPa) = 60.76151 67.64468 64.20310
# Shear Modulus (GPa) = 20.50543 26.99986 23.75265
#
# Velocity S-wave (km/s) = 3.34526 3.83863 3.60040
# Velocity P-wave (km/s) = 6.93407 7.52087 7.23343
#
# Compressibility (1/GPa) = 0.01645779
#
# Stress axis : x y z
#
# Youngs Moduli (GPa) = 102.60097 53.66676 94.19529
#
# Poissons Ratio (x) = 0.20859 0.27178
# Poissons Ratio (y) = 0.39879 0.42361
# Poissons Ratio (z) = 0.29603 0.24135
#
# Static dielectric constant tensor:
#      x y z
#    x 4.189330 0.000000 0.000000 
#    y 0.000000 4.411680 0.000000 
#    z 0.000000 0.000000 4.202060 
# 
# 
# High freq. dielectric constant tensor:
#      x y z
#    x 1.705560 0.000000 0.000000 
#    y 0.000000 1.708550 0.000000 
#    z 0.000000 0.000000 1.723340 
# 
# From -- ./inp_files/71511.got.cif
#   From: 2010.03.12/outbox.cif.g09.slc.cpg/sg65_36_cif.got.tgz:71511.got - 2010.04.10 20:52:16.
