data_PCOD8273663
_publ_section_title
;
Structure prediction by ZEFSAII (Michael W. Deem and Ramdas Pophale) SiO2 
 PCOD8273663
Probable space group: C M M M
;
_chemical_formula_sum "Si O2"
_cell_formula_units_Z 64
_cell_length_a 11.054034
_cell_length_b 35.089828
_cell_length_c 8.605040
_cell_angle_alpha 90.000000
_cell_angle_beta 90.000000
_cell_angle_gamma 90.000000
_cell_volume 3337.758641
_symmetry_space_group_name_H-M "C M M M"
_symmetry_group_IT_number 65
_symmetry_cell_setting 'orthorhombic'
loop_
_space_group_symop_operation_xyz
x,y,z
-x,-y,z
x,-y,-z
-x,y,-z
-x,-y,-z
x,y,-z
-x,y,z
x,-y,z
1/2+x,1/2+y,z
1/2-x,1/2-y,z
1/2+x,1/2-y,-z
1/2-x,1/2+y,-z
1/2-x,1/2-y,-z
1/2+x,1/2+y,-z
1/2-x,1/2+y,z
1/2+x,1/2-y,z
loop_
_atom_site_type_symbol
_atom_site_label
_atom_site_fract_x
_atom_site_fract_y
_atom_site_fract_z
Si Si1 0.000000 0.954783 0.678797
Si Si2 0.362342 0.855129 0.321851
Si Si3 0.136649 0.725628 0.182779
Si Si4 0.245268 0.927980 0.817893
Si Si5 0.139608 0.500000 0.329231
O O1 0.110737 0.937851 0.771620
O O2 0.000000 0.941462 0.500000
O O3 0.000000 0.000000 0.691835
O O4 0.334897 0.845056 0.500000
O O5 0.500000 0.868486 0.298253
O O6 0.333961 0.818034 0.220433
O O7 0.277930 0.889209 0.268174
O O8 0.250000 0.750000 0.253460
O O9 0.000000 0.736423 0.248229
O O10 0.133636 0.731645 0.000000
O O11 0.330194 0.962451 0.766381
O O12 0.258879 0.921737 0.000000
O O13 0.206298 0.500000 0.500000
O O14 0.000000 0.500000 0.361961
#
# Coordination Sequence:
#
# PCOD8273663 Si02
#       5
#     8  16  16  16   8
#     4  11  23  41  63  81 110 154 194 236 288 346
#     4  10  21  38  60  85 116 154 194 238 287 343
#     4   9  18  35  59  86 117 153 191 238 295 353
#     4  12  24  38  59  85 114 148 191 239 288 343
#     4  11  23  38  57  82 113 149 189 235 286 341
#
# _framework density 19.174543
#
# number of rings (size 3 to 8) (size 9 to 14) (size 15 to 20)
#    0.000    1.500    1.250    4.500    0.000    6.500 
#    2.250    0.000    0.000    0.000    0.000    0.000 
#    0.000    0.000    0.000    0.000    0.000    0.000 
#
# Total GULP energy -396756.910535 kJ/mol
# GULP energy per Si atom -12398.653454 kJ/mol
# Density = 1.913090 g / cm^3
# Si number density = 19.174543 Si / 1000 Ang^3
#
#
#
# Elastic Constant Matrix: (Units=GPa)
#
#
# Indices 1 2 3 4 5 6 
#
# 1 110.0088 53.5310 12.1749 0.0000 0.0000 0.0000
# 2 53.5310 96.2125 -1.8533 0.0000 0.0000 0.0000
# 3 12.1749 -1.8533 35.4060 0.0000 0.0000 0.0000
# 4 0.0000 0.0000 0.0000 33.3701 0.0000 0.0000
# 5 0.0000 0.0000 0.0000 0.0000 24.8037 0.0000
# 6 0.0000 0.0000 0.0000 0.0000 0.0000 57.1295
#
#
#
# Elastic Compliance Matrix: (Units=1/GPa)
#
#
# Indices 1 2 3 4 5 6 
#
# 1 0.013281 -0.007485 -0.004959 0.000000 0.000000 0.000000
# 2 -0.007485 0.014622 0.003339 0.000000 0.000000 0.000000
# 3 -0.004959 0.003339 0.030124 0.000000 0.000000 0.000000
# 4 0.000000 0.000000 0.000000 0.029967 0.000000 0.000000
# 5 0.000000 0.000000 0.000000 0.000000 0.040317 0.000000
# 6 0.000000 0.000000 0.000000 0.000000 0.000000 0.017504
#
#
# Mechanical properties :
#
#
# Convention : Reuss Voigt Hill
#
# Bulk Modulus (GPa) = 25.11400 41.03694 33.07547
# Shear Modulus (GPa) = 28.20130 34.91229 31.55680
#
# Velocity S-wave (km/s) = 3.83922 4.27167 4.06120
# Velocity P-wave (km/s) = 5.72528 6.76593 6.26724
#
# Compressibility (1/GPa) = 0.03981843
#
# Stress axis : x y z
#
# Youngs Moduli (GPa) = 75.29436 68.38781 33.19645
#
# Poissons Ratio (x) = 0.51188 0.16461
# Poissons Ratio (y) = 0.56357 -0.11085
# Poissons Ratio (z) = 0.37336 -0.22836
#
# Static dielectric constant tensor:
#      x y z
#    x 3.788840 0.000000 0.000000 
#    y 0.000000 3.522950 0.000000 
#    z 0.000000 0.000000 3.578850 
# 
# 
# High freq. dielectric constant tensor:
#      x y z
#    x 1.754840 0.000000 0.000000 
#    y 0.000000 1.742040 0.000000 
#    z 0.000000 0.000000 1.751430 
# 
# From -- ./inp_files/4916.got.cif
#   From: 2010.03.12/outbox.cif.g09.slc.cpg/sg65_3_cif.got.tgz:4916.got - 2010.04.10 20:52:16.
