data_PCOD8273991
_publ_section_title
;
Structure prediction by ZEFSAII (Michael W. Deem and Ramdas Pophale) SiO2 
 PCOD8273991
Probable space group: C M M M
;
_chemical_formula_sum "Si O2"
_cell_formula_units_Z 88
_cell_length_a 8.097820
_cell_length_b 18.434709
_cell_length_c 29.696113
_cell_angle_alpha 90.000000
_cell_angle_beta 90.000000
_cell_angle_gamma 90.000000
_cell_volume 4433.064115
_symmetry_space_group_name_H-M "C M M M"
_symmetry_group_IT_number 65
_symmetry_cell_setting 'orthorhombic'
loop_
_space_group_symop_operation_xyz
x,y,z
-x,-y,z
x,-y,-z
-x,y,-z
-x,-y,-z
x,y,-z
-x,y,z
x,-y,z
1/2+x,1/2+y,z
1/2-x,1/2-y,z
1/2+x,1/2-y,-z
1/2-x,1/2+y,-z
1/2-x,1/2-y,-z
1/2+x,1/2+y,-z
1/2-x,1/2+y,z
1/2+x,1/2-y,z
loop_
_atom_site_type_symbol
_atom_site_label
_atom_site_fract_x
_atom_site_fract_y
_atom_site_fract_z
Si Si1 0.810800 0.668961 0.133602
Si Si2 0.500000 0.085915 0.550282
Si Si3 0.806103 0.917662 0.949163
Si Si4 0.189882 0.168387 0.299095
Si Si5 0.191850 0.580112 0.215868
Si Si6 0.188075 0.084974 0.608953
O O1 0.750000 0.750000 0.134569
O O2 0.785887 0.635612 0.084430
O O3 0.724377 0.620803 0.172876
O O4 0.000000 0.671810 0.145655
O O5 0.500000 0.119013 0.500000
O O6 0.329683 0.111877 0.574230
O O7 0.500000 0.000000 0.548132
O O8 0.000000 0.909042 0.942352
O O9 0.751123 0.000000 0.939137
O O10 0.755784 0.896268 0.000000
O O11 0.250000 0.250000 0.304027
O O12 0.288269 0.127145 0.260545
O O13 0.223178 0.127777 0.345594
O O14 0.000000 0.167159 0.285419
O O15 0.273824 0.500000 0.221142
O O16 0.000000 0.569670 0.206631
O O17 0.000000 0.100775 0.591023
O O18 0.208417 0.000000 0.619099
#
# Coordination Sequence:
#
# PCOD8273991 Si02
#       6
#    16   8  16  16  16  16
#     4  11  23  38  56  81 113 148 186 229 278 336
#     4   9  18  32  56  88 116 150 193 239 296 348
#     4   9  19  37  60  84 109 140 182 230 282 338
#     4  11  23  37  56  84 113 150 190 232 281 338
#     4  10  22  39  59  83 112 145 183 229 280 335
#     4   9  19  35  55  83 116 150 193 243 290 346
#
# _framework density 19.850829999999998
#
# number of rings (size 3 to 8) (size 9 to 14) (size 15 to 20)
#    0.000    2.091    0.000    3.273    2.545    6.182 
#    0.000    2.727    0.000    0.545    0.000    0.000 
#    0.000    0.000    0.000    0.000    0.000    0.000 
#
# Total GULP energy -545508.160201 kJ/mol
# GULP energy per Si atom -12397.912732 kJ/mol
# Density = 1.980565 g / cm^3
# Si number density = 19.850830 Si / 1000 Ang^3
#
#
#
# Elastic Constant Matrix: (Units=GPa)
#
#
# Indices 1 2 3 4 5 6 
#
# 1 72.4148 37.2772 51.1613 0.0000 0.0000 0.0000
# 2 37.2772 120.3267 71.8347 0.0000 0.0000 0.0000
# 3 51.1613 71.8347 141.1821 0.0000 0.0000 0.0000
# 4 0.0000 0.0000 0.0000 10.7165 0.0000 0.0000
# 5 0.0000 0.0000 0.0000 0.0000 26.6268 0.0000
# 6 0.0000 0.0000 0.0000 0.0000 0.0000 -144.8297
#
#
#
# Elastic Compliance Matrix: (Units=1/GPa)
#
#
# Indices 1 2 3 4 5 6 
#
# 1 0.019097 -0.002563 -0.005616 0.000000 0.000000 0.000000
# 2 -0.002563 0.012281 -0.005320 0.000000 0.000000 0.000000
# 3 -0.005616 -0.005320 0.011825 0.000000 0.000000 0.000000
# 4 0.000000 0.000000 0.000000 0.093314 0.000000 0.000000
# 5 0.000000 0.000000 0.000000 0.000000 0.037556 0.000000
# 6 0.000000 0.000000 0.000000 0.000000 0.000000 -0.006905
#
#
# Mechanical properties :
#
#
# Convention : Reuss Voigt Hill
#
# Bulk Modulus (GPa) = 61.71244 72.71890 67.21567
# Shear Modulus (GPa) = 25.05426 -9.92059 7.56684
#
# Velocity S-wave (km/s) = 3.55650 -2.23795 1.95451
# Velocity P-wave (km/s) = 6.92968 5.48036 6.24719
#
# Compressibility (1/GPa) = 0.01620419
#
# Stress axis : x y z
#
# Youngs Moduli (GPa) = 52.36547 81.42909 84.56831
#
# Poissons Ratio (x) = 0.20874 0.47492
# Poissons Ratio (y) = 0.13424 0.44987
# Poissons Ratio (z) = 0.29408 0.43317
#
# Static dielectric constant tensor:
#      x y z
#    x 3.666010 0.000000 0.000000 
#    y 0.000000 3.519830 0.000000 
#    z 0.000000 0.000000 3.753350 
# 
# 
# High freq. dielectric constant tensor:
#      x y z
#    x 1.773050 0.000000 0.000000 
#    y 0.000000 1.771180 0.000000 
#    z 0.000000 0.000000 1.776650 
# 
# From -- ./inp_files/76702.got.cif
#   From: 2010.03.12/outbox.cif.g09.slc.cpg/sg65_39_cif.got.tgz:76702.got - 2010.04.10 20:52:16.
