data_PCOD8273752
_publ_section_title
;
Structure prediction by ZEFSAII (Michael W. Deem and Ramdas Pophale) SiO2 
 PCOD8273752
Probable space group: C M M M
;
_chemical_formula_sum "Si O2"
_cell_formula_units_Z 64
_cell_length_a 8.822746
_cell_length_b 16.350542
_cell_length_c 21.630687
_cell_angle_alpha 90.000000
_cell_angle_beta 90.000000
_cell_angle_gamma 90.000000
_cell_volume 3120.371072
_symmetry_space_group_name_H-M "C M M M"
_symmetry_group_IT_number 65
_symmetry_cell_setting 'orthorhombic'
loop_
_space_group_symop_operation_xyz
x,y,z
-x,-y,z
x,-y,-z
-x,y,-z
-x,-y,-z
x,y,-z
-x,y,z
x,-y,z
1/2+x,1/2+y,z
1/2-x,1/2-y,z
1/2+x,1/2-y,-z
1/2-x,1/2+y,-z
1/2-x,1/2-y,-z
1/2+x,1/2+y,-z
1/2-x,1/2+y,z
1/2+x,1/2-y,z
loop_
_atom_site_type_symbol
_atom_site_label
_atom_site_fract_x
_atom_site_fract_y
_atom_site_fract_z
Si Si1 0.677644 0.334563 0.272810
Si Si2 0.677377 0.336545 0.500000
Si Si3 0.679045 0.662258 0.869732
Si Si4 0.335220 0.907347 0.616947
Si Si5 0.673780 0.000000 0.073071
O O1 0.500000 0.332189 0.283515
O O2 0.750000 0.250000 0.294577
O O3 0.717796 0.353378 0.201871
O O4 0.752838 0.401501 0.316737
O O5 0.500000 0.330446 0.500000
O O6 0.750000 0.250000 0.500000
O O7 0.726826 0.379497 0.562569
O O8 0.500000 0.666816 0.882244
O O9 0.750000 0.750000 0.891337
O O10 0.746377 0.583802 0.904853
O O11 0.500000 0.861454 0.616718
O O12 0.369705 0.000000 0.604235
O O13 0.500000 0.000000 0.096296
O O14 0.683113 0.000000 0.000000
#
# Coordination Sequence:
#
# PCOD8273752 Si02
#       5
#    16   8  16  16   8
#     4  10  21  38  61  89 121 156 200 248 300 362
#     4  12  25  42  63  83 111 153 197 248 301 358
#     4  10  22  41  66  96 130 171 215 267 321 379
#     4  11  24  40  59  86 119 155 195 244 301 360
#     4  11  25  43  65  95 131 172 217 264 317 381
#
# _framework density 20.510380999999999
#
# number of rings (size 3 to 8) (size 9 to 14) (size 15 to 20)
#    0.000    1.375    0.000    4.875    1.750    8.000 
#    0.000    0.000    0.000    0.000    0.000    0.000 
#    0.000    0.000    0.000    0.000    0.000    0.000 
#
# Total GULP energy -396706.258652 kJ/mol
# GULP energy per Si atom -12397.070583 kJ/mol
# Density = 2.046370 g / cm^3
# Si number density = 20.510381 Si / 1000 Ang^3
#
#
#
# Elastic Constant Matrix: (Units=GPa)
#
#
# Indices 1 2 3 4 5 6 
#
# 1 161.8408 62.6932 56.9421 0.0000 0.0000 0.0000
# 2 62.6932 132.1060 50.1411 0.0000 0.0000 0.0000
# 3 56.9421 50.1411 92.7116 0.0000 0.0000 0.0000
# 4 0.0000 0.0000 0.0000 44.8234 0.0000 0.0000
# 5 0.0000 0.0000 0.0000 0.0000 40.3204 0.0000
# 6 0.0000 0.0000 0.0000 0.0000 0.0000 32.5197
#
#
#
# Elastic Compliance Matrix: (Units=1/GPa)
#
#
# Indices 1 2 3 4 5 6 
#
# 1 0.008534 -0.002593 -0.003839 0.000000 0.000000 0.000000
# 2 -0.002593 0.010313 -0.003985 0.000000 0.000000 0.000000
# 3 -0.003839 -0.003985 0.015299 0.000000 0.000000 0.000000
# 4 0.000000 0.000000 0.000000 0.022310 0.000000 0.000000
# 5 0.000000 0.000000 0.000000 0.000000 0.024801 0.000000
# 6 0.000000 0.000000 0.000000 0.000000 0.000000 0.030751
#
#
# Mechanical properties :
#
#
# Convention : Reuss Voigt Hill
#
# Bulk Modulus (GPa) = 75.11961 80.69012 77.90487
# Shear Modulus (GPa) = 36.42216 37.99149 37.20682
#
# Velocity S-wave (km/s) = 4.21859 4.30851 4.26379
# Velocity P-wave (km/s) = 7.77389 8.01109 7.89338
#
# Compressibility (1/GPa) = 0.01331210
#
# Stress axis : x y z
#
# Youngs Moduli (GPa) = 117.17682 96.96863 65.36245
#
# Poissons Ratio (x) = 0.25142 0.25094
# Poissons Ratio (y) = 0.30382 0.26046
# Poissons Ratio (z) = 0.44987 0.38641
#
# Static dielectric constant tensor:
#      x y z
#    x 3.790560 0.000000 0.000000 
#    y 0.000000 3.695260 0.000000 
#    z 0.000000 0.000000 3.729960 
# 
# 
# High freq. dielectric constant tensor:
#      x y z
#    x 1.825300 0.000000 0.000000 
#    y 0.000000 1.805300 0.000000 
#    z 0.000000 0.000000 1.805270 
# 
# From -- ./inp_files/58887.got.cif
#   From: 2010.03.12/outbox.cif.g09.slc.cpg/sg65_30_cif.got.tgz:58887.got - 2010.04.10 20:52:16.
