data_PCOD8273392
_publ_section_title
;
Structure prediction by ZEFSAII (Michael W. Deem and Ramdas Pophale) SiO2 
 PCOD8273392
Probable space group: C M M M
;
_chemical_formula_sum "Si O2"
_cell_formula_units_Z 112
_cell_length_a 13.495179
_cell_length_b 22.789717
_cell_length_c 16.373459
_cell_angle_alpha 90.000000
_cell_angle_beta 90.000000
_cell_angle_gamma 90.000000
_cell_volume 5035.678769
_symmetry_space_group_name_H-M "C M M M"
_symmetry_group_IT_number 65
_symmetry_cell_setting 'orthorhombic'
loop_
_space_group_symop_operation_xyz
x,y,z
-x,-y,z
x,-y,-z
-x,y,-z
-x,-y,-z
x,y,-z
-x,y,z
x,-y,z
1/2+x,1/2+y,z
1/2-x,1/2-y,z
1/2+x,1/2-y,-z
1/2-x,1/2+y,-z
1/2-x,1/2-y,-z
1/2+x,1/2+y,-z
1/2-x,1/2+y,z
1/2+x,1/2-y,z
loop_
_atom_site_type_symbol
_atom_site_label
_atom_site_fract_x
_atom_site_fract_y
_atom_site_fract_z
Si Si1 0.792693 0.433798 0.666367
Si Si2 0.614161 0.380920 0.746453
Si Si3 0.886297 0.747157 0.735832
Si Si4 0.883818 0.329204 0.409925
Si Si5 0.113248 0.568256 0.160309
Si Si6 0.202682 0.125143 0.088613
Si Si7 0.385979 0.749273 0.087849
O O1 0.803097 0.500000 0.635491
O O2 0.677364 0.421180 0.685807
O O3 0.831266 0.392365 0.594246
O O4 0.860277 0.421122 0.745359
O O5 0.500000 0.389113 0.723498
O O6 0.652759 0.313848 0.738259
O O7 0.633684 0.401748 0.840055
O O8 0.835614 0.711416 0.661750
O O9 0.866545 0.716472 0.825643
O O10 0.000000 0.749308 0.713464
O O11 0.862358 0.302262 0.500000
O O12 0.000000 0.338316 0.396631
O O13 0.128748 0.500000 0.137598
O O14 0.182397 0.608356 0.103211
O O15 0.000000 0.588044 0.145291
O O16 0.192265 0.195816 0.086148
O O17 0.169772 0.099906 0.000000
O O18 0.500000 0.724789 0.094041
O O19 0.374760 0.784012 0.000000
#
# Coordination Sequence:
#
# PCOD8273392 Si02
#       7
#    16  16  16  16  16  16  16
#     4  10  21  37  57  81 110 146 192 240 280 329
#     4   9  18  34  57  83 112 150 191 232 285 343
#     4   8  15  30  52  81 118 151 182 228 283 340
#     4  10  21  37  60  90 119 147 183 231 287 344
#     4   9  18  32  48  66  95 143 198 244 287 334
#     4   9  16  26  45  76 109 140 181 233 286 342
#     4   8  13  24  47  78 110 144 180 222 277 338
#
# _framework density 22.241292000000001
#
# number of rings (size 3 to 8) (size 9 to 14) (size 15 to 20)
#    0.000    3.000    0.000    1.714    0.000    3.429 
#    0.000    2.857    0.000    6.000    0.000   26.000 
#    0.000    6.857    0.000    0.000    0.000    0.143 
#
# Total GULP energy -693861.731595 kJ/mol
# GULP energy per Si atom -12390.388064 kJ/mol
# Density = 2.219067 g / cm^3
# Si number density = 22.241292 Si / 1000 Ang^3
#
#
#
# Elastic Constant Matrix: (Units=GPa)
#
#
# Indices 1 2 3 4 5 6 
#
# 1 92.7582 30.1156 52.2003 0.0000 0.0000 0.0000
# 2 30.1156 56.4713 45.4975 0.0000 0.0000 0.0000
# 3 52.2003 45.4975 139.3969 0.0000 0.0000 0.0000
# 4 0.0000 0.0000 0.0000 24.8975 0.0000 0.0000
# 5 0.0000 0.0000 0.0000 0.0000 19.6616 0.0000
# 6 0.0000 0.0000 0.0000 0.0000 0.0000 22.2945
#
#
#
# Elastic Compliance Matrix: (Units=1/GPa)
#
#
# Indices 1 2 3 4 5 6 
#
# 1 0.014472 -0.004547 -0.003935 0.000000 0.000000 0.000000
# 2 -0.004547 0.025455 -0.006605 0.000000 0.000000 0.000000
# 3 -0.003935 -0.006605 0.010803 0.000000 0.000000 0.000000
# 4 0.000000 0.000000 0.000000 0.040165 0.000000 0.000000
# 5 0.000000 0.000000 0.000000 0.000000 0.050860 0.000000
# 6 0.000000 0.000000 0.000000 0.000000 0.000000 0.044854
#
#
# Mechanical properties :
#
#
# Convention : Reuss Voigt Hill
#
# Bulk Modulus (GPa) = 48.65126 60.47256 54.56191
# Shear Modulus (GPa) = 22.35779 24.09157 23.22468
#
# Velocity S-wave (km/s) = 3.17399 3.29476 3.23494
# Velocity P-wave (km/s) = 5.94593 6.45928 6.20791
#
# Compressibility (1/GPa) = 0.02055445
#
# Stress axis : x y z
#
# Youngs Moduli (GPa) = 69.10128 39.28520 92.56479
#
# Poissons Ratio (x) = 0.17864 0.36425
# Poissons Ratio (y) = 0.31422 0.61143
# Poissons Ratio (z) = 0.27192 0.25949
#
# Static dielectric constant tensor:
#      x y z
#    x 3.988700 0.000000 0.000000 
#    y 0.000000 3.842980 0.000000 
#    z 0.000000 0.000000 4.122830 
# 
# 
# High freq. dielectric constant tensor:
#      x y z
#    x 1.882490 0.000000 0.000000 
#    y 0.000000 1.841590 0.000000 
#    z 0.000000 0.000000 1.865790 
# 
# From -- ./inp_files/41142.got.cif
#   From: 2010.03.12/outbox.cif.g09.slc.cpg/sg65_21_cif.got.tgz:41142.got - 2010.04.10 20:52:16.
