data_PCOD8273190
_publ_section_title
;
Structure prediction by ZEFSAII (Michael W. Deem and Ramdas Pophale) SiO2 
 PCOD8273190
Probable space group: C M M M
;
_chemical_formula_sum "Si O2"
_cell_formula_units_Z 72
_cell_length_a 13.551668
_cell_length_b 14.472003
_cell_length_c 19.140948
_cell_angle_alpha 90.000000
_cell_angle_beta 90.000000
_cell_angle_gamma 90.000000
_cell_volume 3753.918510
_symmetry_space_group_name_H-M "C M M M"
_symmetry_group_IT_number 65
_symmetry_cell_setting 'orthorhombic'
loop_
_space_group_symop_operation_xyz
x,y,z
-x,-y,z
x,-y,-z
-x,y,-z
-x,-y,-z
x,y,-z
-x,y,z
x,-y,z
1/2+x,1/2+y,z
1/2-x,1/2-y,z
1/2+x,1/2-y,-z
1/2-x,1/2+y,-z
1/2-x,1/2-y,-z
1/2+x,1/2+y,-z
1/2-x,1/2+y,z
1/2+x,1/2-y,z
loop_
_atom_site_type_symbol
_atom_site_label
_atom_site_fract_x
_atom_site_fract_y
_atom_site_fract_z
Si Si1 0.385118 0.000000 0.581755
Si Si2 0.764424 0.357165 0.920626
Si Si3 0.114043 0.000000 0.129845
Si Si4 0.267361 0.147581 0.665127
Si Si5 0.114653 0.000000 0.294958
Si Si6 0.610262 0.105183 0.207873
O O1 0.338696 0.906991 0.613048
O O2 0.500000 0.000000 0.600125
O O3 0.364368 0.000000 0.500000
O O4 0.750000 0.250000 0.907479
O O5 0.662469 0.408503 0.902622
O O6 0.851865 0.392723 0.871435
O O7 0.795453 0.378710 0.000000
O O8 0.131253 0.000000 0.212374
O O9 0.000000 0.000000 0.109211
O O10 0.250000 0.250000 0.634173
O O11 0.319751 0.162355 0.740390
O O12 0.164735 0.092011 0.673457
O O13 0.000000 0.000000 0.315878
O O14 0.500000 0.146469 0.209702
O O15 0.611373 0.000000 0.235350
#
# Coordination Sequence:
#
# PCOD8273190 Si02
#       6
#     8  16   8  16   8  16
#     4  10  22  42  66  94 128 162 196 236 283 343
#     4  11  23  39  56  79 113 152 197 249 304 359
#     4  11  22  39  59  79 110 151 197 244 299 358
#     4  11  21  38  63  90 122 156 197 241 292 340
#     4  10  21  36  56  86 118 149 192 244 294 347
#     4  11  21  36  59  85 114 152 196 244 301 356
#
# _framework density 19.179957000000002
#
# number of rings (size 3 to 8) (size 9 to 14) (size 15 to 20)
#    0.000    1.222    5.556    1.667    0.000    4.444 
#    0.000    3.333    0.000    5.333    0.000    0.000 
#    0.000    0.000    0.000    0.000    0.000    0.000 
#
# Total GULP energy -446538.593676 kJ/mol
# GULP energy per Si atom -12403.849824 kJ/mol
# Density = 1.913630 g / cm^3
# Si number density = 19.179957 Si / 1000 Ang^3
#
#
#
# Elastic Constant Matrix: (Units=GPa)
#
#
# Indices 1 2 3 4 5 6 
#
# 1 143.4466 62.3790 52.5845 0.0000 0.0000 0.0000
# 2 62.3790 149.1237 40.1750 0.0000 0.0000 0.0000
# 3 52.5845 40.1750 90.9702 0.0000 0.0000 0.0000
# 4 0.0000 0.0000 0.0000 15.8170 0.0000 0.0000
# 5 0.0000 0.0000 0.0000 0.0000 25.5245 0.0000
# 6 0.0000 0.0000 0.0000 0.0000 0.0000 14.3836
#
#
#
# Elastic Compliance Matrix: (Units=1/GPa)
#
#
# Indices 1 2 3 4 5 6 
#
# 1 0.009864 -0.002940 -0.004403 0.000000 0.000000 0.000000
# 2 -0.002940 0.008488 -0.002049 0.000000 0.000000 0.000000
# 3 -0.004403 -0.002049 0.014443 0.000000 0.000000 0.000000
# 4 0.000000 0.000000 0.000000 0.063223 0.000000 0.000000
# 5 0.000000 0.000000 0.000000 0.000000 0.039178 0.000000
# 6 0.000000 0.000000 0.000000 0.000000 0.000000 0.069524
#
#
# Mechanical properties :
#
#
# Convention : Reuss Voigt Hill
#
# Bulk Modulus (GPa) = 71.37843 77.09083 74.23463
# Shear Modulus (GPa) = 21.91314 26.37181 24.14247
#
# Velocity S-wave (km/s) = 3.38376 3.71208 3.55171
# Velocity P-wave (km/s) = 7.24999 7.65855 7.45707
#
# Compressibility (1/GPa) = 0.01400983
#
# Stress axis : x y z
#
# Youngs Moduli (GPa) = 101.38068 117.81908 69.23829
#
# Poissons Ratio (x) = 0.34636 0.30488
# Poissons Ratio (y) = 0.29804 0.14187
# Poissons Ratio (z) = 0.44642 0.24142
#
# Static dielectric constant tensor:
#      x y z
#    x 3.560940 0.000000 0.000000 
#    y 0.000000 3.142250 0.000000 
#    z 0.000000 0.000000 3.429510 
# 
# 
# High freq. dielectric constant tensor:
#      x y z
#    x 1.748400 0.000000 0.000000 
#    y 0.000000 1.745690 0.000000 
#    z 0.000000 0.000000 1.737780 
# 
# From -- ./inp_files/52765.got.cif
#   From: 2010.03.12/outbox.cif.g09.slc.cpg/sg65_27_cif.got.tgz:52765.got - 2010.04.10 20:52:16.
