data_PCOD8273877
_publ_section_title
;
Structure prediction by ZEFSAII (Michael W. Deem and Ramdas Pophale) SiO2 
 PCOD8273877
Probable space group: C M M M
;
_chemical_formula_sum "Si O2"
_cell_formula_units_Z 56
_cell_length_a 10.662261
_cell_length_b 26.516849
_cell_length_c 10.247101
_cell_angle_alpha 90.000000
_cell_angle_beta 90.000000
_cell_angle_gamma 90.000000
_cell_volume 2897.158408
_symmetry_space_group_name_H-M "C M M M"
_symmetry_group_IT_number 65
_symmetry_cell_setting 'orthorhombic'
loop_
_space_group_symop_operation_xyz
x,y,z
-x,-y,z
x,-y,-z
-x,y,-z
-x,-y,-z
x,y,-z
-x,y,z
x,-y,z
1/2+x,1/2+y,z
1/2-x,1/2-y,z
1/2+x,1/2-y,-z
1/2-x,1/2+y,-z
1/2-x,1/2-y,-z
1/2+x,1/2+y,-z
1/2-x,1/2+y,z
1/2+x,1/2-y,z
loop_
_atom_site_type_symbol
_atom_site_label
_atom_site_fract_x
_atom_site_fract_y
_atom_site_fract_z
Si Si1 0.851624 0.558092 0.500000
Si Si2 0.737670 0.603137 0.756466
Si Si3 0.353497 0.292329 0.151924
Si Si4 0.856806 0.555718 0.000000
Si Si5 0.000000 0.056852 0.142654
O O1 0.801884 0.500000 0.500000
O O2 0.805740 0.589971 0.623020
O O3 0.000000 0.557286 0.500000
O O4 0.691178 0.660745 0.760949
O O5 0.617178 0.568457 0.768004
O O6 0.828756 0.589643 0.875034
O O7 0.500000 0.277375 0.185903
O O8 0.250000 0.250000 0.185591
O O9 0.345674 0.306696 0.000000
O O10 0.787387 0.500000 0.000000
O O11 0.000000 0.542750 0.000000
O O12 0.000000 0.000000 0.104109
O O13 0.000000 0.086249 0.000000
#
# Coordination Sequence:
#
# PCOD8273877 Si02
#       5
#     8  16  16   8   8
#     4  11  26  45  62  89 134 178 218 265 319 388
#     4  12  22  40  63  90 128 170 213 265 325 384
#     4  10  21  40  65  97 132 166 212 275 332 389
#     4  11  22  35  58  91 124 164 216 265 319 394
#     4  11  20  33  61  95 127 159 205 263 324 387
#
# _framework density 19.329284999999999
#
# number of rings (size 3 to 8) (size 9 to 14) (size 15 to 20)
#    0.000    1.000    4.286    3.429    0.000    5.143 
#    0.000    2.143    0.000    0.000    0.000    0.000 
#    0.000    0.000    0.000    0.000    0.000    0.000 
#
# Total GULP energy -346989.699212 kJ/mol
# GULP energy per Si atom -12392.489258 kJ/mol
# Density = 1.928529 g / cm^3
# Si number density = 19.329285 Si / 1000 Ang^3
#
#
#
# Elastic Constant Matrix: (Units=GPa)
#
#
# Indices 1 2 3 4 5 6 
#
# 1 128.3497 60.5781 46.0270 0.0000 0.0000 0.0000
# 2 60.5781 119.6545 41.5435 0.0000 0.0000 0.0000
# 3 46.0270 41.5435 124.6961 0.0000 0.0000 0.0000
# 4 0.0000 0.0000 0.0000 30.6754 0.0000 0.0000
# 5 0.0000 0.0000 0.0000 0.0000 38.3439 0.0000
# 6 0.0000 0.0000 0.0000 0.0000 0.0000 36.8593
#
#
#
# Elastic Compliance Matrix: (Units=1/GPa)
#
#
# Indices 1 2 3 4 5 6 
#
# 1 0.010868 -0.004647 -0.002463 0.000000 0.000000 0.000000
# 2 -0.004647 0.011437 -0.002095 0.000000 0.000000 0.000000
# 3 -0.002463 -0.002095 0.009627 0.000000 0.000000 0.000000
# 4 0.000000 0.000000 0.000000 0.032599 0.000000 0.000000
# 5 0.000000 0.000000 0.000000 0.000000 0.026080 0.000000
# 6 0.000000 0.000000 0.000000 0.000000 0.000000 0.027130
#
#
# Mechanical properties :
#
#
# Convention : Reuss Voigt Hill
#
# Bulk Modulus (GPa) = 73.95803 74.33307 74.14555
# Shear Modulus (GPa) = 35.54688 36.14582 35.84635
#
# Velocity S-wave (km/s) = 4.29303 4.32904 4.31107
# Velocity P-wave (km/s) = 7.93213 7.97039 7.95129
#
# Compressibility (1/GPa) = 0.01352118
#
# Stress axis : x y z
#
# Youngs Moduli (GPa) = 92.01523 87.43216 103.87679
#
# Poissons Ratio (x) = 0.40628 0.25588
# Poissons Ratio (y) = 0.42758 0.21765
# Poissons Ratio (z) = 0.22666 0.18319
#
# Static dielectric constant tensor:
#      x y z
#    x 3.812940 0.000000 0.000000 
#    y 0.000000 3.539750 0.000000 
#    z 0.000000 0.000000 3.359410 
# 
# 
# High freq. dielectric constant tensor:
#      x y z
#    x 1.772900 0.000000 0.000000 
#    y 0.000000 1.752070 0.000000 
#    z 0.000000 0.000000 1.726120 
# 
# From -- ./inp_files/4494.got.cif
#   From: 2010.03.12/outbox.cif.g09.slc.cpg/sg65_3_cif.got.tgz:4494.got - 2010.04.10 20:52:16.
