data_PCOD8273740
_publ_section_title
;
Structure prediction by ZEFSAII (Michael W. Deem and Ramdas Pophale) SiO2 
 PCOD8273740
Probable space group: C M M M
;
_chemical_formula_sum "Si O2"
_cell_formula_units_Z 64
_cell_length_a 18.421605
_cell_length_b 8.807761
_cell_length_c 19.970605
_cell_angle_alpha 90.000000
_cell_angle_beta 90.000000
_cell_angle_gamma 90.000000
_cell_volume 3240.292452
_symmetry_space_group_name_H-M "C M M M"
_symmetry_group_IT_number 65
_symmetry_cell_setting 'orthorhombic'
loop_
_space_group_symop_operation_xyz
x,y,z
-x,-y,z
x,-y,-z
-x,y,-z
-x,-y,-z
x,y,-z
-x,y,z
x,-y,z
1/2+x,1/2+y,z
1/2-x,1/2-y,z
1/2+x,1/2-y,-z
1/2-x,1/2+y,-z
1/2-x,1/2-y,-z
1/2+x,1/2+y,-z
1/2-x,1/2+y,z
1/2+x,1/2-y,z
loop_
_atom_site_type_symbol
_atom_site_label
_atom_site_fract_x
_atom_site_fract_y
_atom_site_fract_z
Si Si1 0.416850 0.825190 0.422605
Si Si2 0.085344 0.674917 0.189225
Si Si3 0.174212 0.822167 0.077394
Si Si4 0.171495 0.178442 0.690811
O O1 0.397390 0.800383 0.500000
O O2 0.500000 0.778556 0.408661
O O3 0.363665 0.720070 0.380281
O O4 0.404893 0.000000 0.401933
O O5 0.108954 0.500000 0.191796
O O6 0.109717 0.746855 0.119028
O O7 0.120863 0.762893 0.250269
O O8 0.000000 0.694662 0.195539
O O9 0.250000 0.750000 0.100946
O O10 0.177471 0.000000 0.091830
O O11 0.158756 0.785803 0.000000
O O12 0.250000 0.250000 0.697781
O O13 0.179439 0.000000 0.696532
#
# Coordination Sequence:
#
# PCOD8273740 Si02
#       4
#    16  16  16  16
#     4   9  19  38  63  89 119 154 190 232 285 343
#     4  11  24  41  61  85 116 153 192 237 289 345
#     4  10  21  38  61  88 119 154 192 236 285 339
#     4  12  25  40  60  85 116 153 194 241 289 341
#
# _framework density 19.751304000000001
#
# number of rings (size 3 to 8) (size 9 to 14) (size 15 to 20)
#    0.000    1.500    0.000    6.000    0.000    8.500 
#    0.000    3.750    0.000    0.000    0.000    0.000 
#    0.000    0.000    0.000    0.000    0.000    0.000 
#
# Total GULP energy -397002.323731 kJ/mol
# GULP energy per Si atom -12406.322617 kJ/mol
# Density = 1.970635 g / cm^3
# Si number density = 19.751304 Si / 1000 Ang^3
#
#
#
# Elastic Constant Matrix: (Units=GPa)
#
#
# Indices 1 2 3 4 5 6 
#
# 1 88.2639 63.8634 51.0325 0.0000 0.0000 0.0000
# 2 63.8634 153.2777 60.9654 0.0000 0.0000 0.0000
# 3 51.0325 60.9654 100.3679 0.0000 0.0000 0.0000
# 4 0.0000 0.0000 0.0000 28.2267 0.0000 0.0000
# 5 0.0000 0.0000 0.0000 0.0000 41.0614 0.0000
# 6 0.0000 0.0000 0.0000 0.0000 0.0000 32.5193
#
#
#
# Elastic Compliance Matrix: (Units=1/GPa)
#
#
# Indices 1 2 3 4 5 6 
#
# 1 0.018859 -0.005332 -0.006350 0.000000 0.000000 0.000000
# 2 -0.005332 0.010110 -0.003430 0.000000 0.000000 0.000000
# 3 -0.006350 -0.003430 0.015276 0.000000 0.000000 0.000000
# 4 0.000000 0.000000 0.000000 0.035427 0.000000 0.000000
# 5 0.000000 0.000000 0.000000 0.000000 0.024354 0.000000
# 6 0.000000 0.000000 0.000000 0.000000 0.000000 0.030751
#
#
# Mechanical properties :
#
#
# Convention : Reuss Voigt Hill
#
# Bulk Modulus (GPa) = 71.32476 77.07024 74.19750
# Shear Modulus (GPa) = 29.46817 31.43137 30.44977
#
# Velocity S-wave (km/s) = 3.86678 3.99351 3.93066
# Velocity P-wave (km/s) = 7.49172 7.76976 7.63200
#
# Compressibility (1/GPa) = 0.01402038
#
# Stress axis : x y z
#
# Youngs Moduli (GPa) = 53.02450 98.91316 65.46392
#
# Poissons Ratio (x) = 0.52740 0.41572
# Poissons Ratio (y) = 0.28272 0.22454
# Poissons Ratio (z) = 0.33672 0.33926
#
# Static dielectric constant tensor:
#      x y z
#    x 3.609960 0.000000 0.000000 
#    y 0.000000 3.723910 0.000000 
#    z 0.000000 0.000000 3.702190 
# 
# 
# High freq. dielectric constant tensor:
#      x y z
#    x 1.773720 0.000000 0.000000 
#    y 0.000000 1.779680 0.000000 
#    z 0.000000 0.000000 1.784000 
# 
# From -- ./inp_files/49040.got.cif
#   From: 2010.03.12/outbox.cif.g09.slc.cpg/sg65_25_cif.got.tgz:49040.got - 2010.04.10 20:52:16.
