data_PCOD8273787
_publ_section_title
;
Structure prediction by ZEFSAII (Michael W. Deem and Ramdas Pophale) SiO2 
 PCOD8273787
Probable space group: C M M M
;
_chemical_formula_sum "Si O2"
_cell_formula_units_Z 104
_cell_length_a 8.741075
_cell_length_b 21.506204
_cell_length_c 26.636190
_cell_angle_alpha 90.000000
_cell_angle_beta 90.000000
_cell_angle_gamma 90.000000
_cell_volume 5007.266563
_symmetry_space_group_name_H-M "C M M M"
_symmetry_group_IT_number 65
_symmetry_cell_setting 'orthorhombic'
loop_
_space_group_symop_operation_xyz
x,y,z
-x,-y,z
x,-y,-z
-x,y,-z
-x,-y,-z
x,y,-z
-x,y,z
x,-y,z
1/2+x,1/2+y,z
1/2-x,1/2-y,z
1/2+x,1/2-y,-z
1/2-x,1/2+y,-z
1/2-x,1/2-y,-z
1/2+x,1/2+y,-z
1/2-x,1/2+y,z
1/2+x,1/2-y,z
loop_
_atom_site_type_symbol
_atom_site_label
_atom_site_fract_x
_atom_site_fract_y
_atom_site_fract_z
Si Si1 0.676114 0.376666 0.732215
Si Si2 0.319737 0.381461 0.557335
Si Si3 0.181142 0.571817 0.103703
Si Si4 0.676566 0.316090 0.834460
Si Si5 0.679623 0.187622 0.642720
Si Si6 0.818980 0.500000 0.274446
Si Si7 0.829965 0.926908 0.000000
Si Si8 0.680387 0.000000 0.609669
O O1 0.500000 0.383390 0.715793
O O2 0.694467 0.323711 0.774398
O O3 0.779275 0.364771 0.683087
O O4 0.743187 0.441216 0.753494
O O5 0.268424 0.372596 0.500000
O O6 0.500000 0.387981 0.562135
O O7 0.259359 0.322917 0.588912
O O8 0.241728 0.441224 0.580427
O O9 0.234222 0.500000 0.115739
O O10 0.246766 0.622847 0.141784
O O11 0.237582 0.594010 0.049075
O O12 0.000000 0.575075 0.105326
O O13 0.500000 0.314774 0.850670
O O14 0.750000 0.250000 0.850737
O O15 0.500000 0.191499 0.635289
O O16 0.750000 0.250000 0.665740
O O17 0.767087 0.500000 0.332685
O O18 0.000000 0.500000 0.266113
O O19 0.000000 0.896585 0.000000
O O20 0.846313 0.000000 0.000000
O O21 0.500000 0.000000 0.606788
#
# Coordination Sequence:
#
# PCOD8273787 Si02
#       8
#    16  16  16  16  16   8   8   8
#     4  11  24  42  65  92 123 161 203 254 308 366
#     4  11  24  41  62  88 117 151 190 236 291 351
#     4  10  21  38  63  96 132 173 219 269 321 376
#     4  11  25  43  64  92 128 170 215 263 320 381
#     4  12  25  42  64  88 115 153 197 243 296 357
#     4  11  23  38  62  95 125 157 198 249 304 364
#     4   9  17  33  60  93 130 173 218 269 321 375
#     4  11  22  38  61  92 121 152 187 231 289 354
#
# _framework density 20.769815999999999
#
# number of rings (size 3 to 8) (size 9 to 14) (size 15 to 20)
#    0.000    1.154    1.538    4.615    1.077    8.615 
#    0.000    0.385    0.000    0.000    0.000    0.000 
#    0.000    0.000    0.000    0.000    0.000    0.000 
#
# Total GULP energy -644827.932208 kJ/mol
# GULP energy per Si atom -12400.537158 kJ/mol
# Density = 2.072254 g / cm^3
# Si number density = 20.769816 Si / 1000 Ang^3
#
#
#
# Elastic Constant Matrix: (Units=GPa)
#
#
# Indices 1 2 3 4 5 6 
#
# 1 104.6925 35.7875 42.4443 0.0000 0.0000 0.0000
# 2 35.7875 110.6881 29.0030 0.0000 0.0000 0.0000
# 3 42.4443 29.0030 79.9949 0.0000 0.0000 0.0000
# 4 0.0000 0.0000 0.0000 19.3512 0.0000 0.0000
# 5 0.0000 0.0000 0.0000 0.0000 31.9460 0.0000
# 6 0.0000 0.0000 0.0000 0.0000 0.0000 38.7665
#
#
#
# Elastic Compliance Matrix: (Units=1/GPa)
#
#
# Indices 1 2 3 4 5 6 
#
# 1 0.012818 -0.002610 -0.005854 0.000000 0.000000 0.000000
# 2 -0.002610 0.010514 -0.002427 0.000000 0.000000 0.000000
# 3 -0.005854 -0.002427 0.016487 0.000000 0.000000 0.000000
# 4 0.000000 0.000000 0.000000 0.051676 0.000000 0.000000
# 5 0.000000 0.000000 0.000000 0.000000 0.031303 0.000000
# 6 0.000000 0.000000 0.000000 0.000000 0.000000 0.025795
#
#
# Mechanical properties :
#
#
# Convention : Reuss Voigt Hill
#
# Bulk Modulus (GPa) = 55.44664 56.64946 56.04805
# Shear Modulus (GPa) = 28.34647 30.55547 29.45097
#
# Velocity S-wave (km/s) = 3.69832 3.83972 3.76968
# Velocity P-wave (km/s) = 6.70749 6.85507 6.78168
#
# Compressibility (1/GPa) = 0.01803536
#
# Stress axis : x y z
#
# Youngs Moduli (GPa) = 78.01816 95.10882 60.65348
#
# Poissons Ratio (x) = 0.24825 0.35510
# Poissons Ratio (y) = 0.20364 0.14722
# Poissons Ratio (z) = 0.45676 0.23084
#
# Static dielectric constant tensor:
#      x y z
#    x 3.807640 0.000000 0.000000 
#    y 0.000000 3.750910 0.000000 
#    z 0.000000 0.000000 3.816690 
# 
# 
# High freq. dielectric constant tensor:
#      x y z
#    x 1.826230 0.000000 0.000000 
#    y 0.000000 1.813770 0.000000 
#    z 0.000000 0.000000 1.809870 
# 
# From -- ./inp_files/73436.got.cif
#   From: 2010.03.12/outbox.cif.g09.slc.cpg/sg65_37_cif.got.tgz:73436.got - 2010.04.10 20:52:16.
