data_PCOD8273788
_publ_section_title
;
Structure prediction by ZEFSAII (Michael W. Deem and Ramdas Pophale) SiO2 
 PCOD8273788
Probable space group: C M M M
;
_chemical_formula_sum "Si O2"
_cell_formula_units_Z 92
_cell_length_a 22.001650
_cell_length_b 25.832498
_cell_length_c 7.658217
_cell_angle_alpha 90.000000
_cell_angle_beta 90.000000
_cell_angle_gamma 90.000000
_cell_volume 4352.605678
_symmetry_space_group_name_H-M "C M M M"
_symmetry_group_IT_number 65
_symmetry_cell_setting 'orthorhombic'
loop_
_space_group_symop_operation_xyz
x,y,z
-x,-y,z
x,-y,-z
-x,y,-z
-x,-y,-z
x,y,-z
-x,y,z
x,-y,z
1/2+x,1/2+y,z
1/2-x,1/2-y,z
1/2+x,1/2-y,-z
1/2-x,1/2+y,-z
1/2-x,1/2-y,-z
1/2+x,1/2+y,-z
1/2-x,1/2+y,z
1/2+x,1/2-y,z
loop_
_atom_site_type_symbol
_atom_site_label
_atom_site_fract_x
_atom_site_fract_y
_atom_site_fract_z
Si Si1 0.882521 0.774309 0.000000
Si Si2 0.650641 0.561011 0.297081
Si Si3 0.073334 0.890813 0.000000
Si Si4 0.500000 0.130793 0.686968
Si Si5 0.311913 0.221901 0.691473
Si Si6 0.778530 0.391725 0.706349
Si Si7 0.601590 0.942586 0.199081
Si Si8 0.000000 0.708338 0.000000
O O1 0.894733 0.835074 0.000000
O O2 0.848842 0.757209 0.824464
O O3 0.944468 0.745298 0.000000
O O4 0.635355 0.573867 0.500000
O O5 0.661628 0.500000 0.273130
O O6 0.711243 0.591334 0.233013
O O7 0.594948 0.579119 0.174740
O O8 0.000000 0.887559 0.000000
O O9 0.500000 0.158952 0.500000
O O10 0.560867 0.096774 0.692553
O O11 0.500000 0.174238 0.829503
O O12 0.344991 0.217339 0.500000
O O13 0.250000 0.250000 0.655633
O O14 0.297139 0.165502 0.773017
O O15 0.781624 0.394430 0.500000
O O16 0.827027 0.431016 0.786706
O O17 0.589971 0.000000 0.272028
O O18 0.580250 0.938559 0.000000
#
# Coordination Sequence:
#
# PCOD8273788 Si02
#       8
#     8  16   8   8  16  16  16   4
#     4  12  25  43  66  90 128 175 216 265 331 379
#     4  10  23  44  71 102 138 174 211 267 332 395
#     4  12  27  47  68  98 128 171 227 273 331 408
#     4  12  25  43  65  88 122 175 226 275 326 374
#     4  10  22  40  65  98 130 165 212 263 316 380
#     4  10  21  38  63  98 133 171 217 263 322 393
#     4  11  23  38  59  90 130 173 218 269 321 378
#     4  12  26  46  63  88 125 160 218 276 314 384
#
# _framework density 21.136763999999999
#
# number of rings (size 3 to 8) (size 9 to 14) (size 15 to 20)
#    0.000    1.217    1.304    3.913    2.435    8.348 
#    0.000    0.870    0.000    0.000    0.000    0.000 
#    0.000    0.000    0.000    0.000    0.000    0.000 
#
# Total GULP energy -570365.983905 kJ/mol
# GULP energy per Si atom -12399.260520 kJ/mol
# Density = 2.108866 g / cm^3
# Si number density = 21.136764 Si / 1000 Ang^3
#
#
#
# Elastic Constant Matrix: (Units=GPa)
#
#
# Indices 1 2 3 4 5 6 
#
# 1 111.4302 28.2220 46.0184 0.0000 0.0000 0.0000
# 2 28.2220 103.3960 40.1656 0.0000 0.0000 0.0000
# 3 46.0184 40.1656 115.8762 0.0000 0.0000 0.0000
# 4 0.0000 0.0000 0.0000 -39.5947 0.0000 0.0000
# 5 0.0000 0.0000 0.0000 0.0000 16.3411 0.0000
# 6 0.0000 0.0000 0.0000 0.0000 0.0000 40.9814
#
#
#
# Elastic Compliance Matrix: (Units=1/GPa)
#
#
# Indices 1 2 3 4 5 6 
#
# 1 0.010932 -0.001499 -0.003822 0.000000 0.000000 0.000000
# 2 -0.001499 0.011382 -0.003350 0.000000 0.000000 0.000000
# 3 -0.003822 -0.003350 0.011309 0.000000 0.000000 0.000000
# 4 0.000000 0.000000 0.000000 -0.025256 0.000000 0.000000
# 5 0.000000 0.000000 0.000000 0.000000 0.061195 0.000000
# 6 0.000000 0.000000 0.000000 0.000000 0.000000 0.024401
#
#
# Mechanical properties :
#
#
# Convention : Reuss Voigt Hill
#
# Bulk Modulus (GPa) = 61.42101 62.16827 61.79464
# Shear Modulus (GPa) = 42.83263 17.96531 30.39897
#
# Velocity S-wave (km/s) = 4.50650 2.91856 3.79648
# Velocity P-wave (km/s) = 7.49666 6.39012 6.96540
#
# Compressibility (1/GPa) = 0.01628108
#
# Stress axis : x y z
#
# Youngs Moduli (GPa) = 91.47183 87.85721 88.42613
#
# Poissons Ratio (x) = 0.13173 0.33796
# Poissons Ratio (y) = 0.13714 0.29622
# Poissons Ratio (z) = 0.34960 0.29431
#
# Static dielectric constant tensor:
#      x y z
#    x 3.840780 0.000000 0.000000 
#    y 0.000000 4.131220 0.000000 
#    z 0.000000 0.000000 3.812330 
# 
# 
# High freq. dielectric constant tensor:
#      x y z
#    x 1.824250 0.000000 0.000000 
#    y 0.000000 1.837110 0.000000 
#    z 0.000000 0.000000 1.838370 
# 
# From -- ./inp_files/11929.got.cif
#   From: 2010.03.12/outbox.cif.g09.slc.cpg/sg65_6_cif.got.tgz:11929.got - 2010.04.10 20:52:16.
