data_PCOD8273662
_publ_section_title
;
Structure prediction by ZEFSAII (Michael W. Deem and Ramdas Pophale) SiO2 
 PCOD8273662
Probable space group: C M M M
;
_chemical_formula_sum "Si O2"
_cell_formula_units_Z 88
_cell_length_a 8.901901
_cell_length_b 30.773523
_cell_length_c 16.920639
_cell_angle_alpha 90.000000
_cell_angle_beta 90.000000
_cell_angle_gamma 90.000000
_cell_volume 4635.288159
_symmetry_space_group_name_H-M "C M M M"
_symmetry_group_IT_number 65
_symmetry_cell_setting 'orthorhombic'
loop_
_space_group_symop_operation_xyz
x,y,z
-x,-y,z
x,-y,-z
-x,y,-z
-x,-y,-z
x,y,-z
-x,y,z
x,-y,z
1/2+x,1/2+y,z
1/2-x,1/2-y,z
1/2+x,1/2-y,-z
1/2-x,1/2+y,-z
1/2-x,1/2-y,-z
1/2+x,1/2+y,-z
1/2-x,1/2+y,z
1/2+x,1/2-y,z
loop_
_atom_site_type_symbol
_atom_site_label
_atom_site_fract_x
_atom_site_fract_y
_atom_site_fract_z
Si Si1 0.173222 0.164959 0.500000
Si Si2 0.674444 0.125983 0.753850
Si Si3 0.324869 0.295251 0.667115
Si Si4 0.321617 0.926747 0.500000
Si Si5 0.672643 0.085768 0.912354
Si Si6 0.825992 0.049059 0.660571
Si Si7 0.834163 0.000000 0.093869
O O1 0.209899 0.193885 0.576158
O O2 0.282947 0.124164 0.500000
O O3 0.000000 0.149149 0.500000
O O4 0.500000 0.128626 0.730048
O O5 0.758760 0.168140 0.723684
O O6 0.696480 0.124414 0.849172
O O7 0.742597 0.082346 0.717539
O O8 0.500000 0.291733 0.683808
O O9 0.250000 0.250000 0.689931
O O10 0.500000 0.932649 0.500000
O O11 0.250867 0.949944 0.575355
O O12 0.500000 0.072811 0.918820
O O13 0.754052 0.043519 0.876951
O O14 0.732942 0.099575 0.000000
O O15 0.000000 0.062936 0.652538
O O16 0.811225 0.000000 0.694607
O O17 0.000000 0.000000 0.130861
O O18 0.836549 0.000000 0.000000
#
# Coordination Sequence:
#
# PCOD8273662 Si02
#       7
#     8  16  16   8  16  16   8
#     4  10  21  38  60  85 116 153 186 226 282 343
#     4  11  23  38  59  87 116 149 194 243 289 344
#     4  11  23  40  63  88 118 151 187 233 288 346
#     4  12  23  36  59  84 113 152 198 246 284 335
#     4   9  19  36  56  79 112 153 192 235 289 344
#     4  11  24  40  57  79 114 160 201 240 288 341
#     4   9  17  29  49  79 111 144 187 234 277 333
#
# _framework density 18.984795999999999
#
# number of rings (size 3 to 8) (size 9 to 14) (size 15 to 20)
#    0.000    1.545    1.818    3.273    1.273    5.818 
#    0.000    0.000    0.000    0.545    0.000    0.000 
#    0.000    0.000    0.000    0.000    0.000    0.000 
#
# Total GULP energy -545653.635186 kJ/mol
# GULP energy per Si atom -12401.218981 kJ/mol
# Density = 1.894159 g / cm^3
# Si number density = 18.984796 Si / 1000 Ang^3
#
#
#
# Elastic Constant Matrix: (Units=GPa)
#
#
# Indices 1 2 3 4 5 6 
#
# 1 115.1859 57.3939 44.2145 0.0000 0.0000 0.0000
# 2 57.3939 130.5428 54.1920 0.0000 0.0000 0.0000
# 3 44.2145 54.1920 99.7079 0.0000 0.0000 0.0000
# 4 0.0000 0.0000 0.0000 45.6431 0.0000 0.0000
# 5 0.0000 0.0000 0.0000 0.0000 17.0785 0.0000
# 6 0.0000 0.0000 0.0000 0.0000 0.0000 35.1437
#
#
#
# Elastic Compliance Matrix: (Units=1/GPa)
#
#
# Indices 1 2 3 4 5 6 
#
# 1 0.011825 -0.003903 -0.003122 0.000000 0.000000 0.000000
# 2 -0.003903 0.011180 -0.004346 0.000000 0.000000 0.000000
# 3 -0.003122 -0.004346 0.013776 0.000000 0.000000 0.000000
# 4 0.000000 0.000000 0.000000 0.021909 0.000000 0.000000
# 5 0.000000 0.000000 0.000000 0.000000 0.058553 0.000000
# 6 0.000000 0.000000 0.000000 0.000000 0.000000 0.028455
#
#
# Mechanical properties :
#
#
# Convention : Reuss Voigt Hill
#
# Bulk Modulus (GPa) = 71.23069 73.00415 72.11742
# Shear Modulus (GPa) = 28.88176 32.21549 30.54862
#
# Velocity S-wave (km/s) = 3.90463 4.12383 4.01572
# Velocity P-wave (km/s) = 7.61114 7.82381 7.71821
#
# Compressibility (1/GPa) = 0.01403889
#
# Stress axis : x y z
#
# Youngs Moduli (GPa) = 84.56844 89.44335 72.59003
#
# Poissons Ratio (x) = 0.34906 0.22666
# Poissons Ratio (y) = 0.33004 0.31548
# Poissons Ratio (z) = 0.26406 0.38872
#
# Static dielectric constant tensor:
#      x y z
#    x 3.635740 0.000000 0.000000 
#    y 0.000000 3.338650 0.000000 
#    z 0.000000 0.000000 3.826430 
# 
# 
# High freq. dielectric constant tensor:
#      x y z
#    x 1.750140 0.000000 0.000000 
#    y 0.000000 1.721690 0.000000 
#    z 0.000000 0.000000 1.739730 
# 
# From -- ./inp_files/50469.got.cif
#   From: 2010.03.12/outbox.cif.g09.slc.cpg/sg65_26_cif.got.tgz:50469.got - 2010.04.10 20:52:16.
