data_PCOD8273627
_publ_section_title
;
Structure prediction by ZEFSAII (Michael W. Deem and Ramdas Pophale) SiO2 
 PCOD8273627
Probable space group: C M M M
;
_chemical_formula_sum "Si O2"
_cell_formula_units_Z 88
_cell_length_a 16.305494
_cell_length_b 14.153207
_cell_length_c 19.563571
_cell_angle_alpha 90.000000
_cell_angle_beta 90.000000
_cell_angle_gamma 90.000000
_cell_volume 4514.783720
_symmetry_space_group_name_H-M "C M M M"
_symmetry_group_IT_number 65
_symmetry_cell_setting 'orthorhombic'
loop_
_space_group_symop_operation_xyz
x,y,z
-x,-y,z
x,-y,-z
-x,y,-z
-x,-y,-z
x,y,-z
-x,y,z
x,-y,z
1/2+x,1/2+y,z
1/2-x,1/2-y,z
1/2+x,1/2-y,-z
1/2-x,1/2+y,-z
1/2-x,1/2-y,-z
1/2+x,1/2+y,-z
1/2-x,1/2+y,z
1/2+x,1/2-y,z
loop_
_atom_site_type_symbol
_atom_site_label
_atom_site_fract_x
_atom_site_fract_y
_atom_site_fract_z
Si Si1 0.666186 0.603559 0.313161
Si Si2 0.339638 0.203587 0.077767
Si Si3 0.652282 0.746002 0.423827
Si Si4 0.591814 0.742847 0.213888
Si Si5 0.906255 0.500000 0.920997
Si Si6 0.359583 0.104612 0.682982
O O1 0.626344 0.500000 0.307619
O O2 0.627505 0.653714 0.380059
O O3 0.649817 0.662919 0.245026
O O4 0.762728 0.596645 0.318714
O O5 0.250000 0.250000 0.086843
O O6 0.396995 0.256556 0.132141
O O7 0.349766 0.091888 0.096790
O O8 0.370228 0.221539 0.000000
O O9 0.614514 0.740603 0.500000
O O10 0.750000 0.750000 0.427581
O O11 0.614088 0.836604 0.384550
O O12 0.500000 0.713500 0.231102
O O13 0.611641 0.844547 0.247560
O O14 0.000000 0.500000 0.887200
O O15 0.924160 0.500000 0.000000
O O16 0.399286 0.000000 0.680608
#
# Coordination Sequence:
#
# PCOD8273627 Si02
#       6
#    16  16  16  16   8  16
#     4   9  18  34  54  74 103 141 181 223 268 324
#     4  10  21  38  59  85 116 148 183 228 285 344
#     4   8  14  26  47  78 110 134 167 219 274 324
#     4  11  22  35  53  77 107 140 179 226 274 324
#     4   9  18  34  58  88 117 145 184 234 283 332
#     4   9  18  32  51  76 105 139 178 219 268 328
#
# _framework density 19.491520999999999
#
# number of rings (size 3 to 8) (size 9 to 14) (size 15 to 20)
#    0.000    2.636    0.000    3.273    1.273    2.545 
#    1.636    3.636    0.000    8.727    0.000   11.455 
#    0.000    0.000    0.000    0.000    0.000    0.000 
#
# Total GULP energy -545141.272409 kJ/mol
# GULP energy per Si atom -12389.574373 kJ/mol
# Density = 1.944716 g / cm^3
# Si number density = 19.491521 Si / 1000 Ang^3
#
#
#
# Elastic Constant Matrix: (Units=GPa)
#
#
# Indices 1 2 3 4 5 6 
#
# 1 42.1533 27.8127 9.6164 0.0000 0.0000 0.0000
# 2 27.8127 141.6585 50.2763 0.0000 0.0000 0.0000
# 3 9.6164 50.2763 142.4793 0.0000 0.0000 0.0000
# 4 0.0000 0.0000 0.0000 8.6035 0.0000 0.0000
# 5 0.0000 0.0000 0.0000 0.0000 3.3717 0.0000
# 6 0.0000 0.0000 0.0000 0.0000 0.0000 8.1716
#
#
#
# Elastic Compliance Matrix: (Units=1/GPa)
#
#
# Indices 1 2 3 4 5 6 
#
# 1 0.027254 -0.005371 0.000056 0.000000 0.000000 0.000000
# 2 -0.005371 0.009128 -0.002859 0.000000 0.000000 0.000000
# 3 0.000056 -0.002859 0.008024 0.000000 0.000000 0.000000
# 4 0.000000 0.000000 0.000000 0.116232 0.000000 0.000000
# 5 0.000000 0.000000 0.000000 0.000000 0.296584 0.000000
# 6 0.000000 0.000000 0.000000 0.000000 0.000000 0.122376
#
#
# Mechanical properties :
#
#
# Convention : Reuss Voigt Hill
#
# Bulk Modulus (GPa) = 35.63990 55.74464 45.69227
# Shear Modulus (GPa) = 8.26041 19.93507 14.09774
#
# Velocity S-wave (km/s) = 2.06086 3.20153 2.69230
# Velocity P-wave (km/s) = 4.89769 6.50599 5.75827
#
# Compressibility (1/GPa) = 0.02805844
#
# Stress axis : x y z
#
# Youngs Moduli (GPa) = 36.69212 109.55031 124.63386
#
# Poissons Ratio (x) = 0.58836 -0.00694
# Poissons Ratio (y) = 0.19706 0.35627
# Poissons Ratio (z) = -0.00204 0.31316
#
# Static dielectric constant tensor:
#      x y z
#    x 3.265110 0.000000 0.000000 
#    y 0.000000 4.049880 0.000000 
#    z 0.000000 0.000000 3.696710 
# 
# 
# High freq. dielectric constant tensor:
#      x y z
#    x 1.729470 0.000000 0.000000 
#    y 0.000000 1.756290 0.000000 
#    z 0.000000 0.000000 1.761780 
# 
# From -- ./inp_files/54293.got.cif
#   From: 2010.03.12/outbox.cif.g09.slc.cpg/sg65_28_cif.got.tgz:54293.got - 2010.04.10 20:52:16.
