data_PCOD8273312
_publ_section_title
;
Structure prediction by ZEFSAII (Michael W. Deem and Ramdas Pophale) SiO2 
 PCOD8273312
Probable space group: C M M M
;
_chemical_formula_sum "Si O2"
_cell_formula_units_Z 96
_cell_length_a 23.563200
_cell_length_b 24.092765
_cell_length_c 8.987684
_cell_angle_alpha 90.000000
_cell_angle_beta 90.000000
_cell_angle_gamma 90.000000
_cell_volume 5102.331937
_symmetry_space_group_name_H-M "C M M M"
_symmetry_group_IT_number 65
_symmetry_cell_setting 'orthorhombic'
loop_
_space_group_symop_operation_xyz
x,y,z
-x,-y,z
x,-y,-z
-x,y,-z
-x,-y,-z
x,y,-z
-x,y,z
x,-y,z
1/2+x,1/2+y,z
1/2-x,1/2-y,z
1/2+x,1/2-y,-z
1/2-x,1/2+y,-z
1/2-x,1/2-y,-z
1/2+x,1/2+y,-z
1/2-x,1/2+y,z
1/2+x,1/2-y,z
loop_
_atom_site_type_symbol
_atom_site_label
_atom_site_fract_x
_atom_site_fract_y
_atom_site_fract_z
Si Si1 0.868742 0.143000 0.171459
Si Si2 0.266464 0.563673 0.174656
Si Si3 0.566131 0.560337 0.662151
Si Si4 0.065007 0.762126 0.324409
Si Si5 0.149103 0.564600 0.671575
Si Si6 0.565347 0.853657 0.171577
O O1 0.812290 0.110196 0.225255
O O2 0.918818 0.099450 0.200625
O O3 0.885495 0.197543 0.263796
O O4 0.865343 0.159652 0.000000
O O5 0.285553 0.500000 0.212239
O O6 0.210397 0.579832 0.263742
O O7 0.254498 0.568994 0.000000
O O8 0.585969 0.584548 0.500000
O O9 0.500000 0.553251 0.660056
O O10 0.594411 0.500000 0.686439
O O11 0.070572 0.759297 0.500000
O O12 0.079409 0.702456 0.258382
O O13 0.000000 0.780238 0.280011
O O14 0.147474 0.582470 0.500000
O O15 0.136095 0.500000 0.692468
O O16 0.101283 0.596521 0.761735
O O17 0.500000 0.870309 0.191292
O O18 0.581330 0.844550 0.000000
#
# Coordination Sequence:
#
# PCOD8273312 Si02
#       6
#    16  16  16  16  16  16
#     4  11  21  32  50  76 104 138 183 230 274 323
#     4   9  19  36  55  76 107 146 185 227 275 323
#     4   9  18  31  45  64  94 132 174 223 278 330
#     4  10  21  37  56  78 108 146 185 227 275 324
#     4  10  21  37  59  87 116 145 177 215 262 317
#     4  10  21  38  61  87 114 144 177 215 263 319
#
# _framework density 18.814927000000001
#
# number of rings (size 3 to 8) (size 9 to 14) (size 15 to 20)
#    0.000    2.167    0.000    3.500    0.000    8.000 
#    0.000    5.000    0.000    5.000    0.000    0.000 
#    0.000    0.000    0.000    0.000    0.000    0.000 
#
# Total GULP energy -594923.437142 kJ/mol
# GULP energy per Si atom -12394.238274 kJ/mol
# Density = 1.877210 g / cm^3
# Si number density = 18.814927 Si / 1000 Ang^3
#
#
#
# Elastic Constant Matrix: (Units=GPa)
#
#
# Indices 1 2 3 4 5 6 
#
# 1 84.5833 61.9037 48.3257 0.0000 0.0000 0.0000
# 2 61.9037 94.1836 49.2942 0.0000 0.0000 0.0000
# 3 48.3257 49.2942 81.0727 0.0000 0.0000 0.0000
# 4 0.0000 0.0000 0.0000 28.3584 0.0000 0.0000
# 5 0.0000 0.0000 0.0000 0.0000 29.7391 0.0000
# 6 0.0000 0.0000 0.0000 0.0000 0.0000 35.6601
#
#
#
# Elastic Compliance Matrix: (Units=1/GPa)
#
#
# Indices 1 2 3 4 5 6 
#
# 1 0.025441 -0.012885 -0.007330 0.000000 0.000000 0.000000
# 2 -0.012885 0.022099 -0.005757 0.000000 0.000000 0.000000
# 3 -0.007330 -0.005757 0.020204 0.000000 0.000000 0.000000
# 4 0.000000 0.000000 0.000000 0.035263 0.000000 0.000000
# 5 0.000000 0.000000 0.000000 0.000000 0.033626 0.000000
# 6 0.000000 0.000000 0.000000 0.000000 0.000000 0.028043
#
#
# Mechanical properties :
#
#
# Convention : Reuss Voigt Hill
#
# Bulk Modulus (GPa) = 63.28818 64.32077 63.80447
# Shear Modulus (GPa) = 22.53414 25.43924 23.98669
#
# Velocity S-wave (km/s) = 3.46450 3.68105 3.57441
# Velocity P-wave (km/s) = 7.05081 7.23375 7.14286
#
# Compressibility (1/GPa) = 0.01580074
#
# Stress axis : x y z
#
# Youngs Moduli (GPa) = 39.30706 45.25072 49.49462
#
# Poissons Ratio (x) = 0.58304 0.36282
# Poissons Ratio (y) = 0.50646 0.28492
# Poissons Ratio (z) = 0.28814 0.26049
#
# Static dielectric constant tensor:
#      x y z
#    x 3.368330 0.000000 0.000000 
#    y 0.000000 3.449360 0.000000 
#    z 0.000000 0.000000 3.591230 
# 
# 
# High freq. dielectric constant tensor:
#      x y z
#    x 1.718090 0.000000 0.000000 
#    y 0.000000 1.728260 0.000000 
#    z 0.000000 0.000000 1.739650 
# 
# From -- ./inp_files/14290.got.cif
#   From: 2010.03.12/outbox.cif.g09.slc.cpg/sg65_8_cif.got.tgz:14290.got - 2010.04.10 20:52:16.
