data_PCOD8273838
_publ_section_title
;
Structure prediction by ZEFSAII (Michael W. Deem and Ramdas Pophale) SiO2 
 PCOD8273838
Probable space group: C M M M
;
_chemical_formula_sum "Si O2"
_cell_formula_units_Z 104
_cell_length_a 26.167275
_cell_length_b 21.896560
_cell_length_c 8.815488
_cell_angle_alpha 90.000000
_cell_angle_beta 90.000000
_cell_angle_gamma 90.000000
_cell_volume 5051.039313
_symmetry_space_group_name_H-M "C M M M"
_symmetry_group_IT_number 65
_symmetry_cell_setting 'orthorhombic'
loop_
_space_group_symop_operation_xyz
x,y,z
-x,-y,z
x,-y,-z
-x,y,-z
-x,-y,-z
x,y,-z
-x,y,z
x,-y,z
1/2+x,1/2+y,z
1/2-x,1/2-y,z
1/2+x,1/2-y,-z
1/2-x,1/2+y,-z
1/2-x,1/2-y,-z
1/2+x,1/2+y,-z
1/2-x,1/2+y,z
1/2+x,1/2-y,z
loop_
_atom_site_type_symbol
_atom_site_label
_atom_site_fract_x
_atom_site_fract_y
_atom_site_fract_z
Si Si1 0.389372 0.234443 0.179883
Si Si2 0.000000 0.768416 0.829125
Si Si3 0.629902 0.107363 0.675332
Si Si4 0.102182 0.932957 0.330726
Si Si5 0.942331 0.500000 0.319646
Si Si6 0.000000 0.912535 0.173044
Si Si7 0.823633 0.153124 0.175790
Si Si8 0.244097 0.432039 0.674959
O O1 0.446724 0.245915 0.249450
O O2 0.371391 0.167604 0.223932
O O3 0.345928 0.282285 0.240533
O O4 0.392522 0.242923 0.000000
O O5 0.000000 0.840354 0.823689
O O6 0.000000 0.743159 0.000000
O O7 0.620636 0.124684 0.500000
O O8 0.683954 0.075160 0.698578
O O9 0.586626 0.060877 0.736642
O O10 0.103286 0.903066 0.500000
O O11 0.046071 0.939707 0.267173
O O12 0.132168 0.895084 0.205717
O O13 0.127098 0.000000 0.341247
O O14 0.941844 0.500000 0.500000
O O15 0.000000 0.500000 0.254555
O O16 0.000000 0.936489 0.000000
O O17 0.772300 0.126370 0.251298
O O18 0.811415 0.159509 0.000000
O O19 0.259447 0.429953 0.500000
O O20 0.258682 0.500000 0.740026
#
# Coordination Sequence:
#
# PCOD8273838 Si02
#       8
#    16   8  16  16   8   8  16  16
#     4  10  22  40  60  85 120 158 196 246 301 354
#     4   9  18  38  60  78 115 164 198 233 297 358
#     4  10  21  39  64  93 122 157 197 238 294 363
#     4  11  23  37  53  80 117 154 198 255 314 362
#     4   9  18  36  63  95 129 157 191 242 293 352
#     4  11  20  36  59  80 109 157 205 249 303 362
#     4  11  23  39  60  85 115 156 207 254 299 356
#     4  10  21  40  63  86 120 161 197 243 305 361
#
# _framework density 20.589821000000001
#
# number of rings (size 3 to 8) (size 9 to 14) (size 15 to 20)
#    0.000    1.769    2.308    1.846    1.077    6.769 
#    0.000    3.462    0.000    0.462    0.000    0.000 
#    0.000    0.000    0.000    0.000    0.000    0.000 
#
# Total GULP energy -644444.780687 kJ/mol
# GULP energy per Si atom -12393.168859 kJ/mol
# Density = 2.054296 g / cm^3
# Si number density = 20.589821 Si / 1000 Ang^3
#
#
#
# Elastic Constant Matrix: (Units=GPa)
#
#
# Indices 1 2 3 4 5 6 
#
# 1 113.6216 44.7392 23.9716 0.0000 0.0000 0.0000
# 2 44.7392 128.3014 26.1817 0.0000 0.0000 0.0000
# 3 23.9716 26.1817 37.1895 0.0000 0.0000 0.0000
# 4 0.0000 0.0000 0.0000 36.8885 0.0000 0.0000
# 5 0.0000 0.0000 0.0000 0.0000 28.0445 0.0000
# 6 0.0000 0.0000 0.0000 0.0000 0.0000 18.8440
#
#
#
# Elastic Compliance Matrix: (Units=1/GPa)
#
#
# Indices 1 2 3 4 5 6 
#
# 1 0.010976 -0.002784 -0.005116 0.000000 0.000000 0.000000
# 2 -0.002784 0.009808 -0.005110 0.000000 0.000000 0.000000
# 3 -0.005116 -0.005110 0.033784 0.000000 0.000000 0.000000
# 4 0.000000 0.000000 0.000000 0.027109 0.000000 0.000000
# 5 0.000000 0.000000 0.000000 0.000000 0.035658 0.000000
# 6 0.000000 0.000000 0.000000 0.000000 0.000000 0.053067
#
#
# Mechanical properties :
#
#
# Convention : Reuss Voigt Hill
#
# Bulk Modulus (GPa) = 35.02694 52.09972 43.56333
# Shear Modulus (GPa) = 24.27917 29.03671 26.65794
#
# Velocity S-wave (km/s) = 3.43765 3.75940 3.60212
# Velocity P-wave (km/s) = 5.72759 6.64851 6.20516
#
# Compressibility (1/GPa) = 0.02854945
#
# Stress axis : x y z
#
# Youngs Moduli (GPa) = 91.10386 101.96104 29.59946
#
# Poissons Ratio (x) = 0.28382 0.15142
# Poissons Ratio (y) = 0.25360 0.15126
# Poissons Ratio (z) = 0.46604 0.52106
#
# Static dielectric constant tensor:
#      x y z
#    x 4.015080 0.000000 0.000000 
#    y 0.000000 3.709290 0.000000 
#    z 0.000000 0.000000 3.499660 
# 
# 
# High freq. dielectric constant tensor:
#      x y z
#    x 1.817510 0.000000 0.000000 
#    y 0.000000 1.809670 0.000000 
#    z 0.000000 0.000000 1.774790 
# 
# From -- ./inp_files/16563.got.cif
#   From: 2010.03.12/outbox.cif.g09.slc.cpg/sg65_9_cif.got.tgz:16563.got - 2010.04.10 20:52:16.
