data_PCOD8273401
_publ_section_title
;
Structure prediction by ZEFSAII (Michael W. Deem and Ramdas Pophale) SiO2 
 PCOD8273401
Probable space group: C M M M
;
_chemical_formula_sum "Si O2"
_cell_formula_units_Z 96
_cell_length_a 8.886543
_cell_length_b 18.588238
_cell_length_c 30.180354
_cell_angle_alpha 90.000000
_cell_angle_beta 90.000000
_cell_angle_gamma 90.000000
_cell_volume 4985.347096
_symmetry_space_group_name_H-M "C M M M"
_symmetry_group_IT_number 65
_symmetry_cell_setting 'orthorhombic'
loop_
_space_group_symop_operation_xyz
x,y,z
-x,-y,z
x,-y,-z
-x,y,-z
-x,-y,-z
x,y,-z
-x,y,z
x,-y,z
1/2+x,1/2+y,z
1/2-x,1/2-y,z
1/2+x,1/2-y,-z
1/2-x,1/2+y,-z
1/2-x,1/2-y,-z
1/2+x,1/2+y,-z
1/2-x,1/2+y,z
1/2+x,1/2-y,z
loop_
_atom_site_type_symbol
_atom_site_label
_atom_site_fract_x
_atom_site_fract_y
_atom_site_fract_z
Si Si1 0.676157 0.916040 0.286161
Si Si2 0.675712 0.417444 0.121987
Si Si3 0.176340 0.676203 0.050842
Si Si4 0.821941 0.827999 0.792264
Si Si5 0.329947 0.415149 0.623478
Si Si6 0.676149 0.175440 0.448930
O O1 0.500000 0.899571 0.283752
O O2 0.762378 0.870516 0.249817
O O3 0.737513 0.889801 0.333547
O O4 0.711258 0.000000 0.278350
O O5 0.500000 0.408231 0.112692
O O6 0.719107 0.500000 0.130805
O O7 0.764131 0.390681 0.078918
O O8 0.727487 0.371847 0.164331
O O9 0.250000 0.750000 0.068253
O O10 0.000000 0.683909 0.057235
O O11 0.221271 0.661773 0.000000
O O12 0.750000 0.750000 0.794919
O O13 0.000000 0.820729 0.788518
O O14 0.500000 0.385255 0.626653
O O15 0.329879 0.500000 0.619953
O O16 0.248876 0.387436 0.579597
O O17 0.712117 0.158345 0.500000
O O18 0.500000 0.179736 0.439740
O O19 0.750000 0.250000 0.434050
#
# Coordination Sequence:
#
# PCOD8273401 Si02
#       6
#    16  16  16  16  16  16
#     4  10  21  38  60  85 113 145 183 227 276 330
#     4  10  22  39  59  84 114 149 187 229 279 333
#     4  10  21  37  58  84 114 149 189 233 280 330
#     4  11  23  39  59  84 114 146 185 230 276 329
#     4  10  21  37  58  84 114 148 185 227 276 330
#     4  10  21  37  57  81 111 147 187 232 280 330
#
# _framework density 19.256433000000001
#
# number of rings (size 3 to 8) (size 9 to 14) (size 15 to 20)
#    0.000    1.833    0.000    3.500    0.000    9.000 
#    0.000    6.667    0.000    0.000    0.000    0.000 
#    0.000    0.000    0.000    0.000    0.000    0.000 
#
# Total GULP energy -595469.371598 kJ/mol
# GULP energy per Si atom -12405.611908 kJ/mol
# Density = 1.921260 g / cm^3
# Si number density = 19.256433 Si / 1000 Ang^3
#
#
#
# Elastic Constant Matrix: (Units=GPa)
#
#
# Indices 1 2 3 4 5 6 
#
# 1 93.0130 50.9300 54.8478 0.0000 0.0000 0.0000
# 2 50.9300 85.7363 63.7754 0.0000 0.0000 0.0000
# 3 54.8478 63.7754 117.8321 0.0000 0.0000 0.0000
# 4 0.0000 0.0000 0.0000 46.0596 0.0000 0.0000
# 5 0.0000 0.0000 0.0000 0.0000 36.9762 0.0000
# 6 0.0000 0.0000 0.0000 0.0000 0.0000 34.2636
#
#
#
# Elastic Compliance Matrix: (Units=1/GPa)
#
#
# Indices 1 2 3 4 5 6 
#
# 1 0.017044 -0.007069 -0.004107 0.000000 0.000000 0.000000
# 2 -0.007069 0.022456 -0.008864 0.000000 0.000000 0.000000
# 3 -0.004107 -0.008864 0.015196 0.000000 0.000000 0.000000
# 4 0.000000 0.000000 0.000000 0.021711 0.000000 0.000000
# 5 0.000000 0.000000 0.000000 0.000000 0.027044 0.000000
# 6 0.000000 0.000000 0.000000 0.000000 0.000000 0.029186
#
#
# Mechanical properties :
#
#
# Convention : Reuss Voigt Hill
#
# Bulk Modulus (GPa) = 68.42044 70.63199 69.52621
# Shear Modulus (GPa) = 28.15472 31.92842 30.04157
#
# Velocity S-wave (km/s) = 3.82788 4.07635 3.95407
# Velocity P-wave (km/s) = 7.42599 7.67560 7.55182
#
# Compressibility (1/GPa) = 0.01461552
#
# Stress axis : x y z
#
# Youngs Moduli (GPa) = 58.67113 44.53068 65.80739
#
# Poissons Ratio (x) = 0.31481 0.27029
# Poissons Ratio (y) = 0.41478 0.58329
# Poissons Ratio (z) = 0.24098 0.39470
#
# Static dielectric constant tensor:
#      x y z
#    x 3.653550 0.000000 0.000000 
#    y 0.000000 3.477590 0.000000 
#    z 0.000000 0.000000 3.611780 
# 
# 
# High freq. dielectric constant tensor:
#      x y z
#    x 1.763110 0.000000 0.000000 
#    y 0.000000 1.748410 0.000000 
#    z 0.000000 0.000000 1.759370 
# 
# From -- ./inp_files/73213.got.cif
#   From: 2010.03.12/outbox.cif.g09.slc.cpg/sg65_37_cif.got.tgz:73213.got - 2010.04.10 20:52:16.
