data_PCOD8273117
_publ_section_title
;
Structure prediction by ZEFSAII (Michael W. Deem and Ramdas Pophale) SiO2 
 PCOD8273117
Probable space group: C M M M
;
_chemical_formula_sum "Si O2"
_cell_formula_units_Z 96
_cell_length_a 9.138168
_cell_length_b 18.706035
_cell_length_c 29.677960
_cell_angle_alpha 90.000000
_cell_angle_beta 90.000000
_cell_angle_gamma 90.000000
_cell_volume 5073.117553
_symmetry_space_group_name_H-M "C M M M"
_symmetry_group_IT_number 65
_symmetry_cell_setting 'orthorhombic'
loop_
_space_group_symop_operation_xyz
x,y,z
-x,-y,z
x,-y,-z
-x,y,-z
-x,-y,-z
x,y,-z
-x,y,z
x,-y,z
1/2+x,1/2+y,z
1/2-x,1/2-y,z
1/2+x,1/2-y,-z
1/2-x,1/2+y,-z
1/2-x,1/2-y,-z
1/2+x,1/2+y,-z
1/2-x,1/2+y,z
1/2+x,1/2-y,z
loop_
_atom_site_type_symbol
_atom_site_label
_atom_site_fract_x
_atom_site_fract_y
_atom_site_fract_z
Si Si1 0.835292 0.415715 0.550398
Si Si2 0.169318 0.417362 0.210211
Si Si3 0.832075 0.918482 0.052540
Si Si4 0.671467 0.677406 0.721003
Si Si5 0.330131 0.678856 0.617322
Si Si6 0.828214 0.674851 0.123190
O O1 0.795532 0.388875 0.500000
O O2 0.822559 0.500000 0.552410
O O3 0.722042 0.385786 0.586444
O O4 0.000000 0.391379 0.562743
O O5 0.207260 0.500000 0.202102
O O6 0.267245 0.389171 0.251169
O O7 0.211134 0.375116 0.165241
O O8 0.000000 0.406539 0.222911
O O9 0.728128 0.863887 0.078426
O O10 0.000000 0.905295 0.066681
O O11 0.786881 0.000000 0.063789
O O12 0.810807 0.903099 0.000000
O O13 0.500000 0.686496 0.729901
O O14 0.750000 0.750000 0.737153
O O15 0.707560 0.661102 0.669028
O O16 0.500000 0.691208 0.610228
O O17 0.250000 0.750000 0.600951
O O18 0.750000 0.750000 0.130365
O O19 0.000000 0.688100 0.118301
#
# Coordination Sequence:
#
# PCOD8273117 Si02
#       6
#    16  16  16  16  16  16
#     4   9  19  36  56  78 106 141 180 221 267 320
#     4  10  22  39  58  82 111 142 179 223 270 322
#     4   9  19  37  60  85 113 145 182 225 273 324
#     4  10  21  37  57  81 109 142 180 221 267 320
#     4  10  21  36  55  80 109 141 179 222 267 318
#     4  11  23  38  57  82 112 146 185 227 271 321
#
# _framework density 18.923276000000001
#
# number of rings (size 3 to 8) (size 9 to 14) (size 15 to 20)
#    0.000    2.167    0.000    3.500    0.000    8.333 
#    0.000    5.000    0.000    0.000    0.000    0.000 
#    0.000    0.000    0.000    0.000    0.000    0.000 
#
# Total GULP energy -595399.127676 kJ/mol
# GULP energy per Si atom -12404.148493 kJ/mol
# Density = 1.888021 g / cm^3
# Si number density = 18.923276 Si / 1000 Ang^3
#
#
#
# Elastic Constant Matrix: (Units=GPa)
#
#
# Indices 1 2 3 4 5 6 
#
# 1 96.3584 62.6559 59.5391 0.0000 0.0000 0.0000
# 2 62.6559 121.0116 63.9333 0.0000 0.0000 0.0000
# 3 59.5391 63.9333 92.9691 0.0000 0.0000 0.0000
# 4 0.0000 0.0000 0.0000 38.0302 0.0000 0.0000
# 5 0.0000 0.0000 0.0000 0.0000 35.2202 0.0000
# 6 0.0000 0.0000 0.0000 0.0000 0.0000 34.8027
#
#
#
# Elastic Compliance Matrix: (Units=1/GPa)
#
#
# Indices 1 2 3 4 5 6 
#
# 1 0.019190 -0.005408 -0.008571 0.000000 0.000000 0.000000
# 2 -0.005408 0.014503 -0.006510 0.000000 0.000000 0.000000
# 3 -0.008571 -0.006510 0.020722 0.000000 0.000000 0.000000
# 4 0.000000 0.000000 0.000000 0.026295 0.000000 0.000000
# 5 0.000000 0.000000 0.000000 0.000000 0.028393 0.000000
# 6 0.000000 0.000000 0.000000 0.000000 0.000000 0.028733
#
#
# Mechanical properties :
#
#
# Convention : Reuss Voigt Hill
#
# Bulk Modulus (GPa) = 74.41827 75.84397 75.13112
# Shear Modulus (GPa) = 27.27855 29.89134 28.58495
#
# Velocity S-wave (km/s) = 3.80087 3.97874 3.89082
# Velocity P-wave (km/s) = 7.65989 7.82776 7.74428
#
# Compressibility (1/GPa) = 0.01343756
#
# Stress axis : x y z
#
# Youngs Moduli (GPa) = 52.10990 68.94996 48.25731
#
# Poissons Ratio (x) = 0.37287 0.41361
# Poissons Ratio (y) = 0.28180 0.31417
# Poissons Ratio (z) = 0.44663 0.44889
#
# Static dielectric constant tensor:
#      x y z
#    x 3.508270 0.000000 0.000000 
#    y 0.000000 3.420040 0.000000 
#    z 0.000000 0.000000 3.483190 
# 
# 
# High freq. dielectric constant tensor:
#      x y z
#    x 1.739470 0.000000 0.000000 
#    y 0.000000 1.736450 0.000000 
#    z 0.000000 0.000000 1.740560 
# 
# From -- ./inp_files/73171.got.cif
#   From: 2010.03.12/outbox.cif.g09.slc.cpg/sg65_37_cif.got.tgz:73171.got - 2010.04.10 20:52:16.
