data_PCOD8273779
_publ_section_title
;
Structure prediction by ZEFSAII (Michael W. Deem and Ramdas Pophale) SiO2 
 PCOD8273779
Probable space group: C M M M
;
_chemical_formula_sum "Si O2"
_cell_formula_units_Z 64
_cell_length_a 30.517948
_cell_length_b 8.838806
_cell_length_c 11.850234
_cell_angle_alpha 90.000000
_cell_angle_beta 90.000000
_cell_angle_gamma 90.000000
_cell_volume 3196.508449
_symmetry_space_group_name_H-M "C M M M"
_symmetry_group_IT_number 65
_symmetry_cell_setting 'orthorhombic'
loop_
_space_group_symop_operation_xyz
x,y,z
-x,-y,z
x,-y,-z
-x,y,-z
-x,-y,-z
x,y,-z
-x,y,z
x,-y,z
1/2+x,1/2+y,z
1/2-x,1/2-y,z
1/2+x,1/2-y,-z
1/2-x,1/2+y,-z
1/2-x,1/2-y,-z
1/2+x,1/2+y,-z
1/2-x,1/2+y,z
1/2+x,1/2-y,z
loop_
_atom_site_type_symbol
_atom_site_label
_atom_site_fract_x
_atom_site_fract_y
_atom_site_fract_z
Si Si1 0.204864 0.175421 0.758004
Si Si2 0.330579 0.672126 0.000000
Si Si3 0.950024 0.173397 0.228624
Si Si4 0.077643 0.678025 0.000000
Si Si5 0.875904 0.676580 0.368437
O O1 0.250000 0.250000 0.717726
O O2 0.199115 0.203137 0.891201
O O3 0.165378 0.250728 0.691904
O O4 0.206199 0.000000 0.726854
O O5 0.348623 0.500000 0.000000
O O6 0.370959 0.786365 0.000000
O O7 0.920599 0.252298 0.322796
O O8 0.000000 0.185419 0.269903
O O9 0.934942 0.000000 0.215295
O O10 0.945486 0.253646 0.108868
O O11 0.070754 0.500000 0.000000
O O12 0.872685 0.711242 0.500000
O O13 0.876373 0.500000 0.341133
#
# Coordination Sequence:
#
# PCOD8273779 Si02
#       5
#    16   8  16   8  16
#     4  11  23  40  65  94 128 166 207 255 310 373
#     4  10  21  38  62  93 128 165 202 248 308 373
#     4  11  24  42  65  93 127 166 208 255 310 375
#     4  12  23  36  63  96 129 166 204 252 310 371
#     4  11  25  44  65  91 124 163 211 264 315 370
#
# _framework density 20.021844999999999
#
# number of rings (size 3 to 8) (size 9 to 14) (size 15 to 20)
#    0.000    1.000    2.500    4.125    0.000    7.500 
#    0.000    2.500    0.000    0.000    0.000    0.000 
#    0.000    0.000    0.000    0.000    0.000    0.000 
#
# Total GULP energy -397017.369828 kJ/mol
# GULP energy per Si atom -12406.792807 kJ/mol
# Density = 1.997627 g / cm^3
# Si number density = 20.021845 Si / 1000 Ang^3
#
#
#
# Elastic Constant Matrix: (Units=GPa)
#
#
# Indices 1 2 3 4 5 6 
#
# 1 123.4479 60.9317 53.1313 0.0000 0.0000 0.0000
# 2 60.9317 154.0585 82.9084 0.0000 0.0000 0.0000
# 3 53.1313 82.9084 107.1194 0.0000 0.0000 0.0000
# 4 0.0000 0.0000 0.0000 -41.6459 0.0000 0.0000
# 5 0.0000 0.0000 0.0000 0.0000 -8.2497 0.0000
# 6 0.0000 0.0000 0.0000 0.0000 0.0000 37.7489
#
#
#
# Elastic Compliance Matrix: (Units=1/GPa)
#
#
# Indices 1 2 3 4 5 6 
#
# 1 0.010784 -0.002377 -0.003510 0.000000 0.000000 0.000000
# 2 -0.002377 0.011649 -0.007837 0.000000 0.000000 0.000000
# 3 -0.003510 -0.007837 0.017142 0.000000 0.000000 0.000000
# 4 0.000000 0.000000 0.000000 -0.024012 0.000000 0.000000
# 5 0.000000 0.000000 0.000000 0.000000 -0.121217 0.000000
# 6 0.000000 0.000000 0.000000 0.000000 0.000000 0.026491
#
#
# Mechanical properties :
#
#
# Convention : Reuss Voigt Hill
#
# Bulk Modulus (GPa) = 82.45164 86.50763 84.47964
# Shear Modulus (GPa) = -104.87731 10.08095 -47.39818
#
# Velocity S-wave (km/s) = -7.24535 2.24631 -4.87079
# Velocity P-wave (km/s) = 5.35941 7.07307 3.26382
#
# Compressibility (1/GPa) = 0.01212832
#
# Stress axis : x y z
#
# Youngs Moduli (GPa) = 92.72937 85.84744 58.33684
#
# Poissons Ratio (x) = 0.20402 0.20473
# Poissons Ratio (y) = 0.22037 0.45719
# Poissons Ratio (z) = 0.32544 0.67279
#
# Static dielectric constant tensor:
#      x y z
#    x 3.648730 0.000000 0.000000 
#    y 0.000000 3.849000 0.000000 
#    z 0.000000 0.000000 3.648620 
# 
# 
# High freq. dielectric constant tensor:
#      x y z
#    x 1.793420 0.000000 0.000000 
#    y 0.000000 1.798320 0.000000 
#    z 0.000000 0.000000 1.781050 
# 
# From -- ./inp_files/21003.got.cif
#   From: 2010.03.12/outbox.cif.g09.slc.cpg/sg65_11_cif.got.tgz:21003.got - 2010.04.10 20:52:16.
