data_PCOD8273883
_publ_section_title
;
Structure prediction by ZEFSAII (Michael W. Deem and Ramdas Pophale) SiO2 
 PCOD8273883
Probable space group: C M M M
;
_chemical_formula_sum "Si O2"
_cell_formula_units_Z 64
_cell_length_a 9.876264
_cell_length_b 29.565456
_cell_length_c 11.092133
_cell_angle_alpha 90.000000
_cell_angle_beta 90.000000
_cell_angle_gamma 90.000000
_cell_volume 3238.861226
_symmetry_space_group_name_H-M "C M M M"
_symmetry_group_IT_number 65
_symmetry_cell_setting 'orthorhombic'
loop_
_space_group_symop_operation_xyz
x,y,z
-x,-y,z
x,-y,-z
-x,y,-z
-x,-y,-z
x,y,-z
-x,y,z
x,-y,z
1/2+x,1/2+y,z
1/2-x,1/2-y,z
1/2+x,1/2-y,-z
1/2-x,1/2+y,-z
1/2-x,1/2-y,-z
1/2+x,1/2+y,-z
1/2-x,1/2+y,z
1/2+x,1/2-y,z
loop_
_atom_site_type_symbol
_atom_site_label
_atom_site_fract_x
_atom_site_fract_y
_atom_site_fract_z
Si Si1 0.000000 0.911156 0.358226
Si Si2 0.158565 0.595731 0.000000
Si Si3 0.000000 0.552890 0.642289
Si Si4 0.776945 0.381573 0.259344
Si Si5 0.274753 0.500000 0.000000
Si Si6 0.500000 0.500000 0.799848
Si Si7 0.348687 0.787825 0.637240
O O1 0.130975 0.882370 0.321717
O O2 0.000000 0.921229 0.500000
O O3 0.000000 0.957419 0.286343
O O4 0.234612 0.616624 0.884883
O O5 0.174877 0.542085 0.000000
O O6 0.000000 0.608055 0.000000
O O7 0.133510 0.576071 0.696085
O O8 0.000000 0.500000 0.677963
O O9 0.000000 0.559698 0.500000
O O10 0.845910 0.334337 0.290444
O O11 0.366444 0.500000 0.880783
O O12 0.304793 0.798034 0.500000
O O13 0.500000 0.768102 0.643921
O O14 0.250000 0.750000 0.694487
#
# Coordination Sequence:
#
# PCOD8273883 Si02
#       7
#     8   8   8  16   4   4  16
#     4  12  26  41  63  93 132 173 218 271 331 392
#     4  12  24  41  67  90 124 174 228 274 319 386
#     4  11  24  41  62  92 131 173 218 271 336 393
#     4  12  25  43  65  95 131 174 221 273 328 390
#     4  11  23  42  62  86 127 175 228 274 316 390
#     4  11  23  42  62  86 127 179 218 268 324 387
#     4  10  21  40  67  96 129 166 211 271 338 402
#
# _framework density 19.760033
#
# number of rings (size 3 to 8) (size 9 to 14) (size 15 to 20)
#    0.000    0.750    5.000    2.625    5.250    0.500 
#    0.000    0.625    0.000    0.000    0.000    0.000 
#    0.000    0.000    0.000    0.000    0.000    0.000 
#
# Total GULP energy -396979.710888 kJ/mol
# GULP energy per Si atom -12405.615965 kJ/mol
# Density = 1.971506 g / cm^3
# Si number density = 19.760033 Si / 1000 Ang^3
#
#
#
# Elastic Constant Matrix: (Units=GPa)
#
#
# Indices 1 2 3 4 5 6 
#
# 1 120.8056 32.9417 34.2953 0.0000 0.0000 0.0000
# 2 32.9417 112.8220 39.3980 0.0000 0.0000 0.0000
# 3 34.2953 39.3980 136.6160 0.0000 0.0000 0.0000
# 4 0.0000 0.0000 0.0000 39.6127 0.0000 0.0000
# 5 0.0000 0.0000 0.0000 0.0000 22.0104 0.0000
# 6 0.0000 0.0000 0.0000 0.0000 0.0000 50.6033
#
#
#
# Elastic Compliance Matrix: (Units=1/GPa)
#
#
# Indices 1 2 3 4 5 6 
#
# 1 0.009349 -0.002124 -0.001734 0.000000 0.000000 0.000000
# 2 -0.002124 0.010339 -0.002448 0.000000 0.000000 0.000000
# 3 -0.001734 -0.002448 0.008461 0.000000 0.000000 0.000000
# 4 0.000000 0.000000 0.000000 0.025244 0.000000 0.000000
# 5 0.000000 0.000000 0.000000 0.000000 0.045433 0.000000
# 6 0.000000 0.000000 0.000000 0.000000 0.000000 0.019762
#
#
# Mechanical properties :
#
#
# Convention : Reuss Voigt Hill
#
# Bulk Modulus (GPa) = 64.36853 64.83484 64.60168
# Shear Modulus (GPa) = 36.66213 40.01919 38.34066
#
# Velocity S-wave (km/s) = 4.31207 4.50517 4.40968
# Velocity P-wave (km/s) = 7.57877 7.74238 7.66101
#
# Compressibility (1/GPa) = 0.01553554
#
# Stress axis : x y z
#
# Youngs Moduli (GPa) = 106.95903 96.72413 118.18605
#
# Poissons Ratio (x) = 0.20546 0.20499
# Poissons Ratio (y) = 0.22720 0.28935
# Poissons Ratio (z) = 0.18551 0.23681
#
# Static dielectric constant tensor:
#      x y z
#    x 3.722600 0.000000 0.000000 
#    y 0.000000 3.477890 0.000000 
#    z 0.000000 0.000000 3.725740 
# 
# 
# High freq. dielectric constant tensor:
#      x y z
#    x 1.782220 0.000000 0.000000 
#    y 0.000000 1.762160 0.000000 
#    z 0.000000 0.000000 1.772320 
# 
# From -- ./inp_files/21133.got.cif
#   From: 2010.03.12/outbox.cif.g09.slc.cpg/sg65_11_cif.got.tgz:21133.got - 2010.04.10 20:52:16.
