data_PCOD8273805
_publ_section_title
;
Structure prediction by ZEFSAII (Michael W. Deem and Ramdas Pophale) SiO2 
 PCOD8273805
Probable space group: C M M M
;
_chemical_formula_sum "Si O2"
_cell_formula_units_Z 80
_cell_length_a 19.304606
_cell_length_b 13.479838
_cell_length_c 14.430110
_cell_angle_alpha 90.000000
_cell_angle_beta 90.000000
_cell_angle_gamma 90.000000
_cell_volume 3755.045959
_symmetry_space_group_name_H-M "C M M M"
_symmetry_group_IT_number 65
_symmetry_cell_setting 'orthorhombic'
loop_
_space_group_symop_operation_xyz
x,y,z
-x,-y,z
x,-y,-z
-x,y,-z
-x,-y,-z
x,y,-z
-x,y,z
x,-y,z
1/2+x,1/2+y,z
1/2-x,1/2-y,z
1/2+x,1/2-y,-z
1/2-x,1/2+y,-z
1/2-x,1/2-y,-z
1/2+x,1/2+y,-z
1/2-x,1/2+y,z
1/2+x,1/2-y,z
loop_
_atom_site_type_symbol
_atom_site_label
_atom_site_fract_x
_atom_site_fract_y
_atom_site_fract_z
Si Si1 0.275737 0.884274 0.400710
Si Si2 0.621640 0.383222 0.394934
Si Si3 0.423009 0.298554 0.210430
Si Si4 0.204108 0.116262 0.896979
Si Si5 0.340040 0.115178 0.210567
O O1 0.307127 0.848603 0.500000
O O2 0.199528 0.837034 0.384767
O O3 0.328107 0.861885 0.318706
O O4 0.259577 0.000000 0.405052
O O5 0.594252 0.365323 0.500000
O O6 0.618517 0.500000 0.371063
O O7 0.576005 0.324004 0.320052
O O8 0.500000 0.319618 0.171111
O O9 0.365893 0.365050 0.159608
O O10 0.406012 0.183092 0.187212
O O11 0.273474 0.156206 0.846143
O O12 0.213797 0.000000 0.903203
O O13 0.199206 0.162973 0.000000
O O14 0.356647 0.000000 0.190281
#
# Coordination Sequence:
#
# PCOD8273805 Si02
#       5
#    16  16  16  16  16
#     4   8  14  28  54  84 109 139 186 240 285 323
#     4   9  18  34  56  84 119 154 190 237 292 346
#     4  12  25  37  55  87 123 157 193 231 279 346
#     4  10  22  42  67  91 113 141 184 239 295 347
#     4  10  21  39  61  84 114 153 197 242 283 328
#
# _framework density 21.304666000000001
#
# number of rings (size 3 to 8) (size 9 to 14) (size 15 to 20)
#    0.000    2.200    2.000    2.400    0.000    5.200 
#    0.000    4.000    0.000    0.000    0.000    8.400 
#    0.000    0.000    0.000    0.000    0.000    0.000 
#
# Total GULP energy -495755.396972 kJ/mol
# GULP energy per Si atom -12393.884924 kJ/mol
# Density = 2.125618 g / cm^3
# Si number density = 21.304666 Si / 1000 Ang^3
#
#
#
# Elastic Constant Matrix: (Units=GPa)
#
#
# Indices 1 2 3 4 5 6 
#
# 1 94.8503 8.8660 26.8049 0.0000 0.0000 0.0000
# 2 8.8660 44.3625 8.7480 0.0000 0.0000 0.0000
# 3 26.8049 8.7480 105.4769 0.0000 0.0000 0.0000
# 4 0.0000 0.0000 0.0000 14.1203 0.0000 0.0000
# 5 0.0000 0.0000 0.0000 0.0000 6.5981 0.0000
# 6 0.0000 0.0000 0.0000 0.0000 0.0000 17.9931
#
#
#
# Elastic Compliance Matrix: (Units=1/GPa)
#
#
# Indices 1 2 3 4 5 6 
#
# 1 0.011491 -0.001749 -0.002775 0.000000 0.000000 0.000000
# 2 -0.001749 0.023183 -0.001478 0.000000 0.000000 0.000000
# 3 -0.002775 -0.001478 0.010309 0.000000 0.000000 0.000000
# 4 0.000000 0.000000 0.000000 0.070820 0.000000 0.000000
# 5 0.000000 0.000000 0.000000 0.000000 0.151558 0.000000
# 6 0.000000 0.000000 0.000000 0.000000 0.000000 0.055577
#
#
# Mechanical properties :
#
#
# Convention : Reuss Voigt Hill
#
# Bulk Modulus (GPa) = 30.32422 37.05862 33.69142
# Shear Modulus (GPa) = 14.45360 21.09368 17.77364
#
# Velocity S-wave (km/s) = 2.60748 3.14999 2.89149
# Velocity P-wave (km/s) = 4.83009 5.53736 5.19577
#
# Compressibility (1/GPa) = 0.03297694
#
# Stress axis : x y z
#
# Youngs Moduli (GPa) = 87.02708 43.13578 97.00662
#
# Poissons Ratio (x) = 0.07545 0.26920
# Poissons Ratio (y) = 0.15223 0.14339
# Poissons Ratio (z) = 0.24151 0.06376
#
# Static dielectric constant tensor:
#      x y z
#    x 3.381570 0.000000 0.000000 
#    y 0.000000 3.790860 0.000000 
#    z 0.000000 0.000000 4.569640 
# 
# 
# High freq. dielectric constant tensor:
#      x y z
#    x 1.787410 0.000000 0.000000 
#    y 0.000000 1.846510 0.000000 
#    z 0.000000 0.000000 1.837760 
# 
# From -- ./inp_files/43884.got.cif
#   From: 2010.03.12/outbox.cif.g09.slc.cpg/sg65_22_cif.got.tgz:43884.got - 2010.04.10 20:52:16.
