data_PCOD8273905
_publ_section_title
;
Structure prediction by ZEFSAII (Michael W. Deem and Ramdas Pophale) SiO2 
 PCOD8273905
Probable space group: C M M M
;
_chemical_formula_sum "Si O2"
_cell_formula_units_Z 80
_cell_length_a 9.340121
_cell_length_b 24.636306
_cell_length_c 20.301810
_cell_angle_alpha 90.000000
_cell_angle_beta 90.000000
_cell_angle_gamma 90.000000
_cell_volume 4671.569896
_symmetry_space_group_name_H-M "C M M M"
_symmetry_group_IT_number 65
_symmetry_cell_setting 'orthorhombic'
loop_
_space_group_symop_operation_xyz
x,y,z
-x,-y,z
x,-y,-z
-x,y,-z
-x,-y,-z
x,y,-z
-x,y,z
x,-y,z
1/2+x,1/2+y,z
1/2-x,1/2-y,z
1/2+x,1/2-y,-z
1/2-x,1/2+y,-z
1/2-x,1/2-y,-z
1/2+x,1/2+y,-z
1/2-x,1/2+y,z
1/2+x,1/2-y,z
loop_
_atom_site_type_symbol
_atom_site_label
_atom_site_fract_x
_atom_site_fract_y
_atom_site_fract_z
Si Si1 0.332955 0.896167 0.242690
Si Si2 0.163015 0.304048 0.000000
Si Si3 0.666724 0.806348 0.500000
Si Si4 0.838940 0.000000 0.758907
Si Si5 0.833655 0.604980 0.394785
Si Si6 0.333348 0.805825 0.857679
Si Si7 0.661596 0.500000 0.397327
O O1 0.500000 0.908801 0.232341
O O2 0.244648 0.947310 0.215930
O O3 0.298648 0.882759 0.318638
O O4 0.279597 0.845956 0.199037
O O5 0.250000 0.250000 0.000000
O O6 0.195767 0.334102 0.069839
O O7 0.000000 0.285524 0.000000
O O8 0.500000 0.791993 0.500000
O O9 0.750000 0.750000 0.500000
O O10 0.708375 0.841360 0.435531
O O11 0.839081 0.000000 0.680715
O O12 0.000000 0.000000 0.787218
O O13 0.743298 0.553892 0.422086
O O14 0.000000 0.590305 0.404975
O O15 0.500000 0.792988 0.848097
O O16 0.250000 0.750000 0.849648
O O17 0.500000 0.500000 0.425631
#
# Coordination Sequence:
#
# PCOD8273905 Si02
#       7
#    16   8   8   8  16  16   8
#     4   9  17  30  48  68  90 118 151 184 219 263
#     4   8  14  26  42  61  88 117 145 180 220 262
#     4  10  22  37  50  65  89 124 158 184 219 266
#     4   9  17  29  46  69  94 118 146 183 226 266
#     4   9  18  33  50  67  90 120 151 183 222 268
#     4   9  17  28  44  67  92 118 148 182 222 265
#     4   9  17  30  50  75  95 111 141 187 232 267
#
# _framework density 17.124865
#
# number of rings (size 3 to 8) (size 9 to 14) (size 15 to 20)
#    0.000    3.000    0.000    0.600    0.000    5.200 
#    0.000    2.000    0.000    0.600    0.000    4.200 
#    0.000    0.000    0.000    0.000    0.000    0.000 
#
# Total GULP energy -495714.974325 kJ/mol
# GULP energy per Si atom -12392.874358 kJ/mol
# Density = 1.708589 g / cm^3
# Si number density = 17.124865 Si / 1000 Ang^3
#
#
#
# Elastic Constant Matrix: (Units=GPa)
#
#
# Indices 1 2 3 4 5 6 
#
# 1 71.6053 65.7633 39.2039 0.0000 0.0000 0.0000
# 2 65.7633 144.5279 70.2072 0.0000 0.0000 0.0000
# 3 39.2039 70.2072 101.3928 0.0000 0.0000 0.0000
# 4 0.0000 0.0000 0.0000 1.7979 0.0000 0.0000
# 5 0.0000 0.0000 0.0000 0.0000 14.1988 0.0000
# 6 0.0000 0.0000 0.0000 0.0000 0.0000 32.4894
#
#
#
# Elastic Compliance Matrix: (Units=1/GPa)
#
#
# Indices 1 2 3 4 5 6 
#
# 1 0.024451 -0.009844 -0.002637 0.000000 0.000000 0.000000
# 2 -0.009844 0.014390 -0.006157 0.000000 0.000000 0.000000
# 3 -0.002637 -0.006157 0.015146 0.000000 0.000000 0.000000
# 4 0.000000 0.000000 0.000000 0.556189 0.000000 0.000000
# 5 0.000000 0.000000 0.000000 0.000000 0.070428 0.000000
# 6 0.000000 0.000000 0.000000 0.000000 0.000000 0.030779
#
#
# Mechanical properties :
#
#
# Convention : Reuss Voigt Hill
#
# Bulk Modulus (GPa) = 59.85224 74.20832 67.03028
# Shear Modulus (GPa) = 6.62927 19.18733 12.90830
#
# Velocity S-wave (km/s) = 1.96966 3.35092 2.74848
# Velocity P-wave (km/s) = 6.34028 7.64195 7.02134
#
# Compressibility (1/GPa) = 0.01670781
#
# Stress axis : x y z
#
# Youngs Moduli (GPa) = 40.89869 69.49485 66.02447
#
# Poissons Ratio (x) = 0.68414 0.17413
# Poissons Ratio (y) = 0.40262 0.40654
# Poissons Ratio (z) = 0.10787 0.42790
#
# Static dielectric constant tensor:
#      x y z
#    x 3.842170 0.000000 0.000000 
#    y 0.000000 3.006650 0.000000 
#    z 0.000000 0.000000 3.517480 
# 
# 
# High freq. dielectric constant tensor:
#      x y z
#    x 1.661250 0.000000 0.000000 
#    y 0.000000 1.640770 0.000000 
#    z 0.000000 0.000000 1.658740 
# 
# From -- ./inp_files/59719.got.cif
#   From: 2010.03.12/outbox.cif.g09.slc.cpg/sg65_30_cif.got.tgz:59719.got - 2010.04.10 20:52:16.
