data_PCOD8273797
_publ_section_title
;
Structure prediction by ZEFSAII (Michael W. Deem and Ramdas Pophale) SiO2 
 PCOD8273797
Probable space group: C M M M
;
_chemical_formula_sum "Si O2"
_cell_formula_units_Z 72
_cell_length_a 10.123866
_cell_length_b 20.903749
_cell_length_c 17.842815
_cell_angle_alpha 90.000000
_cell_angle_beta 90.000000
_cell_angle_gamma 90.000000
_cell_volume 3776.017017
_symmetry_space_group_name_H-M "C M M M"
_symmetry_group_IT_number 65
_symmetry_cell_setting 'orthorhombic'
loop_
_space_group_symop_operation_xyz
x,y,z
-x,-y,z
x,-y,-z
-x,y,-z
-x,-y,-z
x,y,-z
-x,y,z
x,-y,z
1/2+x,1/2+y,z
1/2-x,1/2-y,z
1/2+x,1/2-y,-z
1/2-x,1/2+y,-z
1/2-x,1/2-y,-z
1/2+x,1/2+y,-z
1/2-x,1/2+y,z
1/2+x,1/2-y,z
loop_
_atom_site_type_symbol
_atom_site_label
_atom_site_fract_x
_atom_site_fract_y
_atom_site_fract_z
Si Si1 0.000000 0.827481 0.917668
Si Si2 0.000000 0.319413 0.084153
Si Si3 0.846518 0.925846 0.309579
Si Si4 0.145102 0.500000 0.085485
Si Si5 0.746608 0.120546 0.843930
Si Si6 0.848217 0.193682 0.412431
O O1 0.000000 0.753650 0.934561
O O2 0.876154 0.842668 0.867048
O O3 0.000000 0.861714 0.000000
O O4 0.877075 0.335189 0.137158
O O5 0.000000 0.353791 0.000000
O O6 0.753893 0.901369 0.242245
O O7 0.817442 0.875974 0.376701
O O8 0.000000 0.922989 0.285564
O O9 0.810527 0.000000 0.331458
O O10 0.235914 0.441145 0.105266
O O11 0.000000 0.500000 0.126943
O O12 0.113067 0.500000 0.000000
O O13 0.824057 0.184034 0.500000
O O14 0.750000 0.250000 0.382041
O O15 0.000000 0.214161 0.395244
#
# Coordination Sequence:
#
# PCOD8273797 Si02
#       6
#     8   8  16   8  16  16
#     4  11  24  39  57  83 112 148 198 249 303 362
#     4  11  24  41  59  81 114 154 200 253 303 364
#     4  10  21  39  59  87 125 156 195 249 295 347
#     4  11  22  37  59  83 110 149 200 252 299 353
#     4  12  22  39  59  82 115 153 195 247 301 353
#     4   9  19  38  65  94 123 157 196 236 286 351
#
# _framework density 19.067710999999999
#
# number of rings (size 3 to 8) (size 9 to 14) (size 15 to 20)
#    0.000    1.444    3.333    2.667    0.000    4.444 
#    2.000    3.333    0.000    0.000    0.000    3.111 
#    0.000    0.000    0.000    0.000    0.000    0.000 
#
# Total GULP energy -446117.427337 kJ/mol
# GULP energy per Si atom -12392.150759 kJ/mol
# Density = 1.902431 g / cm^3
# Si number density = 19.067711 Si / 1000 Ang^3
#
#
#
# Elastic Constant Matrix: (Units=GPa)
#
#
# Indices 1 2 3 4 5 6 
#
# 1 118.3283 53.7223 40.7710 0.0000 0.0000 0.0000
# 2 53.7223 129.1252 52.2288 0.0000 0.0000 0.0000
# 3 40.7710 52.2288 81.2801 0.0000 0.0000 0.0000
# 4 0.0000 0.0000 0.0000 35.2423 0.0000 0.0000
# 5 0.0000 0.0000 0.0000 0.0000 28.8564 0.0000
# 6 0.0000 0.0000 0.0000 0.0000 0.0000 43.9535
#
#
#
# Elastic Compliance Matrix: (Units=1/GPa)
#
#
# Indices 1 2 3 4 5 6 
#
# 1 0.011117 -0.003202 -0.003519 0.000000 0.000000 0.000000
# 2 -0.003202 0.011386 -0.005711 0.000000 0.000000 0.000000
# 3 -0.003519 -0.005711 0.017738 0.000000 0.000000 0.000000
# 4 0.000000 0.000000 0.000000 0.028375 0.000000 0.000000
# 5 0.000000 0.000000 0.000000 0.000000 0.034654 0.000000
# 6 0.000000 0.000000 0.000000 0.000000 0.000000 0.022751
#
#
# Mechanical properties :
#
#
# Convention : Reuss Voigt Hill
#
# Bulk Modulus (GPa) = 65.02611 69.13087 67.07849
# Shear Modulus (GPa) = 32.04895 33.74454 32.89674
#
# Velocity S-wave (km/s) = 4.10420 4.21137 4.15813
# Velocity P-wave (km/s) = 7.52569 7.74478 7.63602
#
# Compressibility (1/GPa) = 0.01537844
#
# Stress axis : x y z
#
# Youngs Moduli (GPa) = 89.94992 87.82420 56.37675
#
# Poissons Ratio (x) = 0.28121 0.19839
# Poissons Ratio (y) = 0.28801 0.32194
# Poissons Ratio (z) = 0.31654 0.50152
#
# Static dielectric constant tensor:
#      x y z
#    x 3.719370 0.000000 0.000000 
#    y 0.000000 3.687190 0.000000 
#    z 0.000000 0.000000 3.393350 
# 
# 
# High freq. dielectric constant tensor:
#      x y z
#    x 1.739460 0.000000 0.000000 
#    y 0.000000 1.753280 0.000000 
#    z 0.000000 0.000000 1.730240 
# 
# From -- ./inp_files/59353.got.cif
#   From: 2010.03.12/outbox.cif.g09.slc.cpg/sg65_30_cif.got.tgz:59353.got - 2010.04.10 20:52:16.
