data_PCOD8273196
_publ_section_title
;
Structure prediction by ZEFSAII (Michael W. Deem and Ramdas Pophale) SiO2 
 PCOD8273196
Probable space group: C M M M
;
_chemical_formula_sum "Si O2"
_cell_formula_units_Z 72
_cell_length_a 14.904522
_cell_length_b 28.806428
_cell_length_c 8.517219
_cell_angle_alpha 90.000000
_cell_angle_beta 90.000000
_cell_angle_gamma 90.000000
_cell_volume 3656.834248
_symmetry_space_group_name_H-M "C M M M"
_symmetry_group_IT_number 65
_symmetry_cell_setting 'orthorhombic'
loop_
_space_group_symop_operation_xyz
x,y,z
-x,-y,z
x,-y,-z
-x,y,-z
-x,-y,-z
x,y,-z
-x,y,z
x,-y,z
1/2+x,1/2+y,z
1/2-x,1/2-y,z
1/2+x,1/2-y,-z
1/2-x,1/2+y,-z
1/2-x,1/2-y,-z
1/2+x,1/2+y,-z
1/2-x,1/2+y,z
1/2+x,1/2-y,z
loop_
_atom_site_type_symbol
_atom_site_label
_atom_site_fract_x
_atom_site_fract_y
_atom_site_fract_z
Si Si1 0.666271 0.137737 0.321570
Si Si2 0.394839 0.949614 0.172892
Si Si3 0.500000 0.699784 0.813828
Si Si4 0.000000 0.697091 0.311261
Si Si5 0.500000 0.554257 0.186198
Si Si6 0.365070 0.628577 0.312928
O O1 0.676350 0.152928 0.500000
O O2 0.633729 0.084949 0.309438
O O3 0.590126 0.171281 0.245819
O O4 0.765107 0.137683 0.243997
O O5 0.500000 0.955067 0.174528
O O6 0.351067 0.000000 0.206996
O O7 0.363600 0.931743 0.000000
O O8 0.500000 0.752523 0.761293
O O9 0.586002 0.674936 0.741710
O O10 0.500000 0.695252 0.000000
O O11 0.000000 0.697720 0.500000
O O12 0.500000 0.500000 0.243482
O O13 0.411209 0.581588 0.246184
O O14 0.500000 0.556038 0.000000
O O15 0.366034 0.623980 0.500000
#
# Coordination Sequence:
#
# PCOD8273196 Si02
#       6
#    16  16   8   8   8  16
#     4  10  21  36  57  84 112 146 188 230 275 327
#     4   9  18  32  50  74 108 149 186 221 266 318
#     4  11  23  40  60  83 108 141 184 230 284 339
#     4  10  21  39  59  80 112 147 182 227 276 332
#     4  10  21  38  60  86 115 150 189 230 278 329
#     4  10  21  38  60  85 113 146 184 230 281 331
#
# _framework density 19.689160999999999
#
# number of rings (size 3 to 8) (size 9 to 14) (size 15 to 20)
#    0.000    2.111    1.111    4.000    0.000    5.778 
#    0.000   10.000    0.000    0.000    0.000    0.000 
#    0.000    0.000    0.000    0.000    0.000    0.000 
#
# Total GULP energy -446041.351934 kJ/mol
# GULP energy per Si atom -12390.037554 kJ/mol
# Density = 1.964435 g / cm^3
# Si number density = 19.689161 Si / 1000 Ang^3
#
#
#
# Elastic Constant Matrix: (Units=GPa)
#
#
# Indices 1 2 3 4 5 6 
#
# 1 149.5262 78.1129 28.9816 0.0000 0.0000 0.0000
# 2 78.1129 150.7953 25.7824 0.0000 0.0000 0.0000
# 3 28.9816 25.7824 46.9148 0.0000 0.0000 0.0000
# 4 0.0000 0.0000 0.0000 29.6530 0.0000 0.0000
# 5 0.0000 0.0000 0.0000 0.0000 10.7707 0.0000
# 6 0.0000 0.0000 0.0000 0.0000 0.0000 11.7086
#
#
#
# Elastic Compliance Matrix: (Units=1/GPa)
#
#
# Indices 1 2 3 4 5 6 
#
# 1 0.009679 -0.004405 -0.003558 0.000000 0.000000 0.000000
# 2 -0.004405 0.009324 -0.002403 0.000000 0.000000 0.000000
# 3 -0.003558 -0.002403 0.024834 0.000000 0.000000 0.000000
# 4 0.000000 0.000000 0.000000 0.033723 0.000000 0.000000
# 5 0.000000 0.000000 0.000000 0.000000 0.092844 0.000000
# 6 0.000000 0.000000 0.000000 0.000000 0.000000 0.085407
#
#
# Mechanical properties :
#
#
# Convention : Reuss Voigt Hill
#
# Bulk Modulus (GPa) = 43.28200 68.11003 55.69601
# Shear Modulus (GPa) = 17.59042 24.71708 21.15375
#
# Velocity S-wave (km/s) = 2.99223 3.54696 3.28134
# Velocity P-wave (km/s) = 5.82823 7.17233 6.53493
#
# Compressibility (1/GPa) = 0.02310430
#
# Stress axis : x y z
#
# Youngs Moduli (GPa) = 103.31871 107.24632 40.26779
#
# Poissons Ratio (x) = 0.47246 0.14328
# Poissons Ratio (y) = 0.45515 0.09676
# Poissons Ratio (z) = 0.36762 0.25770
#
# Static dielectric constant tensor:
#      x y z
#    x 3.928980 0.000000 0.000000 
#    y 0.000000 3.770810 0.000000 
#    z 0.000000 0.000000 3.500360 
# 
# 
# High freq. dielectric constant tensor:
#      x y z
#    x 1.770880 0.000000 0.000000 
#    y 0.000000 1.769520 0.000000 
#    z 0.000000 0.000000 1.755280 
# 
# From -- ./inp_files/7359.got.cif
#   From: 2010.03.12/outbox.cif.g09.slc.cpg/sg65_4_cif.got.tgz:7359.got - 2010.04.10 20:52:16.
