data_PCOD8273862
_publ_section_title
;
Structure prediction by ZEFSAII (Michael W. Deem and Ramdas Pophale) SiO2 
 PCOD8273862
Probable space group: C M M M
;
_chemical_formula_sum "Si O2"
_cell_formula_units_Z 64
_cell_length_a 8.896174
_cell_length_b 15.182988
_cell_length_c 23.685128
_cell_angle_alpha 90.000000
_cell_angle_beta 90.000000
_cell_angle_gamma 90.000000
_cell_volume 3199.162155
_symmetry_space_group_name_H-M "C M M M"
_symmetry_group_IT_number 65
_symmetry_cell_setting 'orthorhombic'
loop_
_space_group_symop_operation_xyz
x,y,z
-x,-y,z
x,-y,-z
-x,y,-z
-x,-y,-z
x,y,-z
-x,y,z
x,-y,z
1/2+x,1/2+y,z
1/2-x,1/2-y,z
1/2+x,1/2-y,-z
1/2-x,1/2+y,-z
1/2-x,1/2-y,-z
1/2+x,1/2+y,-z
1/2-x,1/2+y,z
1/2+x,1/2-y,z
loop_
_atom_site_type_symbol
_atom_site_label
_atom_site_fract_x
_atom_site_fract_y
_atom_site_fract_z
Si Si1 0.324895 0.156548 0.000000
Si Si2 0.323098 0.500000 0.586606
Si Si3 0.824853 0.152281 0.500000
Si Si4 0.333566 0.599529 0.108672
Si Si5 0.678308 0.660833 0.228902
Si Si6 0.677945 0.000000 0.706568
O O1 0.250000 0.250000 0.000000
O O2 0.278645 0.105382 0.943702
O O3 0.500000 0.167815 0.000000
O O4 0.500000 0.500000 0.601212
O O5 0.282078 0.590595 0.553503
O O6 0.220685 0.500000 0.641351
O O7 0.750000 0.250000 0.500000
O O8 0.000000 0.172273 0.500000
O O9 0.500000 0.630394 0.088951
O O10 0.338871 0.500000 0.130311
O O11 0.279076 0.655193 0.162431
O O12 0.500000 0.658399 0.237773
O O13 0.750000 0.750000 0.252682
O O14 0.753433 0.584676 0.264200
O O15 0.500000 0.000000 0.713915
#
# Coordination Sequence:
#
# PCOD8273862 Si02
#       6
#     8   8   8  16  16   8
#     4  12  25  38  55  83 115 151 193 245 302 367
#     4   9  20  40  62  88 127 171 209 252 307 365
#     4   9  19  37  64  94 126 167 209 253 307 358
#     4  10  21  40  63  86 114 151 193 244 308 372
#     4  11  23  42  65  91 121 161 207 258 315 373
#     4  12  25  41  63  93 127 168 213 260 310 366
#
# _framework density 20.005237000000001
#
# number of rings (size 3 to 8) (size 9 to 14) (size 15 to 20)
#    0.000    1.500    1.250    4.875    0.000    8.000 
#    0.000    3.750    0.000    0.000    0.000    0.000 
#    0.000    0.000    0.000    0.000    0.000    0.000 
#
# Total GULP energy -396745.474206 kJ/mol
# GULP energy per Si atom -12398.296069 kJ/mol
# Density = 1.995970 g / cm^3
# Si number density = 20.005237 Si / 1000 Ang^3
#
#
#
# Elastic Constant Matrix: (Units=GPa)
#
#
# Indices 1 2 3 4 5 6 
#
# 1 130.3236 62.5135 76.5265 0.0000 0.0000 0.0000
# 2 62.5135 163.6839 63.8547 0.0000 0.0000 0.0000
# 3 76.5265 63.8547 121.2399 0.0000 0.0000 0.0000
# 4 0.0000 0.0000 0.0000 40.6917 0.0000 0.0000
# 5 0.0000 0.0000 0.0000 0.0000 25.4509 0.0000
# 6 0.0000 0.0000 0.0000 0.0000 0.0000 37.8271
#
#
#
# Elastic Compliance Matrix: (Units=1/GPa)
#
#
# Indices 1 2 3 4 5 6 
#
# 1 0.012783 -0.002183 -0.006919 0.000000 0.000000 0.000000
# 2 -0.002183 0.008062 -0.002868 0.000000 0.000000 0.000000
# 3 -0.006919 -0.002868 0.014126 0.000000 0.000000 0.000000
# 4 0.000000 0.000000 0.000000 0.024575 0.000000 0.000000
# 5 0.000000 0.000000 0.000000 0.000000 0.039291 0.000000
# 6 0.000000 0.000000 0.000000 0.000000 0.000000 0.026436
#
#
# Mechanical properties :
#
#
# Convention : Reuss Voigt Hill
#
# Bulk Modulus (GPa) = 90.65500 91.22630 90.94065
# Shear Modulus (GPa) = 32.70307 34.95080 33.82693
#
# Velocity S-wave (km/s) = 4.04756 4.18435 4.11652
# Velocity P-wave (km/s) = 8.20108 8.30934 8.25539
#
# Compressibility (1/GPa) = 0.01103083
#
# Stress axis : x y z
#
# Youngs Moduli (GPa) = 78.22776 124.03957 70.79135
#
# Poissons Ratio (x) = 0.27077 0.48981
# Poissons Ratio (y) = 0.17076 0.20304
# Poissons Ratio (z) = 0.54126 0.35577
#
# Static dielectric constant tensor:
#      x y z
#    x 3.790600 0.000000 0.000000 
#    y 0.000000 3.759570 0.000000 
#    z 0.000000 0.000000 5.292910 
# 
# 
# High freq. dielectric constant tensor:
#      x y z
#    x 1.780520 0.000000 0.000000 
#    y 0.000000 1.796010 0.000000 
#    z 0.000000 0.000000 1.778540 
# 
# From -- ./inp_files/66881.got.cif
#   From: 2010.03.12/outbox.cif.g09.slc.cpg/sg65_34_cif.got.tgz:66881.got - 2010.04.10 20:52:16.
