data_PCOD8273817
_publ_section_title
;
Structure prediction by ZEFSAII (Michael W. Deem and Ramdas Pophale) SiO2 
 PCOD8273817
Probable space group: C M M M
;
_chemical_formula_sum "Si O2"
_cell_formula_units_Z 56
_cell_length_a 17.807409
_cell_length_b 10.087880
_cell_length_c 15.273104
_cell_angle_alpha 90.000000
_cell_angle_beta 90.000000
_cell_angle_gamma 90.000000
_cell_volume 2743.645207
_symmetry_space_group_name_H-M "C M M M"
_symmetry_group_IT_number 65
_symmetry_cell_setting 'orthorhombic'
loop_
_space_group_symop_operation_xyz
x,y,z
-x,-y,z
x,-y,-z
-x,y,-z
-x,-y,-z
x,y,-z
-x,y,z
x,-y,z
1/2+x,1/2+y,z
1/2-x,1/2-y,z
1/2+x,1/2-y,-z
1/2-x,1/2+y,-z
1/2-x,1/2-y,-z
1/2+x,1/2+y,-z
1/2-x,1/2+y,z
1/2+x,1/2-y,z
loop_
_atom_site_type_symbol
_atom_site_label
_atom_site_fract_x
_atom_site_fract_y
_atom_site_fract_z
Si Si1 0.589275 0.652963 0.000000
Si Si2 0.839325 0.740334 0.674111
Si Si3 0.910901 0.000000 0.397163
Si Si4 0.313013 0.858933 0.500000
Si Si5 0.587715 0.849973 0.849395
O O1 0.617979 0.737076 0.083828
O O2 0.620415 0.500000 0.000000
O O3 0.500000 0.649040 0.000000
O O4 0.750000 0.750000 0.684440
O O5 0.877346 0.880606 0.658533
O O6 0.862133 0.654596 0.588022
O O7 0.870638 0.666977 0.758221
O O8 0.886702 0.000000 0.500000
O O9 0.000000 0.000000 0.389400
O O10 0.250000 0.750000 0.500000
O O11 0.271619 0.000000 0.500000
O O12 0.500000 0.828917 0.833906
O O13 0.603159 0.000000 0.884822
#
# Coordination Sequence:
#
# PCOD8273817 Si02
#       5
#     8  16   8   8  16
#     4   9  19  37  62  91 120 157 204 252 310 383
#     4  11  24  37  64  88 128 166 218 257 319 374
#     4  11  24  42  62  93 130 176 223 273 320 373
#     4  10  22  36  58  85 125 167 215 259 311 375
#     4  10  21  39  62  89 121 158 202 257 317 378
#
# _framework density 20.410802
#
# number of rings (size 3 to 8) (size 9 to 14) (size 15 to 20)
#    0.000    1.714    1.429    2.143   12.000    1.714 
#    0.000    0.714    0.000    3.429    0.000    0.000 
#    0.000    0.000    0.000    0.000    0.000    0.000 
#
# Total GULP energy -346979.687016 kJ/mol
# GULP energy per Si atom -12392.131679 kJ/mol
# Density = 2.036435 g / cm^3
# Si number density = 20.410802 Si / 1000 Ang^3
#
#
#
# Elastic Constant Matrix: (Units=GPa)
#
#
# Indices 1 2 3 4 5 6 
#
# 1 66.4305 38.4405 33.3595 0.0000 0.0000 0.0000
# 2 38.4405 174.2645 65.0913 0.0000 0.0000 0.0000
# 3 33.3595 65.0913 159.4765 0.0000 0.0000 0.0000
# 4 0.0000 0.0000 0.0000 35.6024 0.0000 0.0000
# 5 0.0000 0.0000 0.0000 0.0000 27.4966 0.0000
# 6 0.0000 0.0000 0.0000 0.0000 0.0000 16.9072
#
#
#
# Elastic Compliance Matrix: (Units=1/GPa)
#
#
# Indices 1 2 3 4 5 6 
#
# 1 0.018090 -0.003040 -0.002543 0.000000 0.000000 0.000000
# 2 -0.003040 0.007282 -0.002336 0.000000 0.000000 0.000000
# 3 -0.002543 -0.002336 0.007756 0.000000 0.000000 0.000000
# 4 0.000000 0.000000 0.000000 0.028088 0.000000 0.000000
# 5 0.000000 0.000000 0.000000 0.000000 0.036368 0.000000
# 6 0.000000 0.000000 0.000000 0.000000 0.000000 0.059147
#
#
# Mechanical properties :
#
#
# Convention : Reuss Voigt Hill
#
# Bulk Modulus (GPa) = 57.84287 74.88381 66.36334
# Shear Modulus (GPa) = 28.03761 33.55325 30.79543
#
# Velocity S-wave (km/s) = 3.71032 4.05890 3.88852
# Velocity P-wave (km/s) = 6.83785 7.66382 7.26259
#
# Compressibility (1/GPa) = 0.01728822
#
# Stress axis : x y z
#
# Youngs Moduli (GPa) = 55.27984 137.33141 128.93336
#
# Poissons Ratio (x) = 0.41755 0.32788
# Poissons Ratio (y) = 0.16808 0.30119
# Poissons Ratio (z) = 0.14058 0.32081
#
# Static dielectric constant tensor:
#      x y z
#    x 3.379710 0.000000 0.000000 
#    y 0.000000 3.931060 0.000000 
#    z 0.000000 0.000000 4.273390 
# 
# 
# High freq. dielectric constant tensor:
#      x y z
#    x 1.762760 0.000000 0.000000 
#    y 0.000000 1.817010 0.000000 
#    z 0.000000 0.000000 1.808390 
# 
# From -- ./inp_files/35563.got.cif
#   From: 2010.03.12/outbox.cif.g09.slc.cpg/sg65_18_cif.got.tgz:35563.got - 2010.04.10 20:52:16.
