data_PCOD8273801
_publ_section_title
;
Structure prediction by ZEFSAII (Michael W. Deem and Ramdas Pophale) SiO2 
 PCOD8273801
Probable space group: C M M M
;
_chemical_formula_sum "Si O2"
_cell_formula_units_Z 72
_cell_length_a 15.806701
_cell_length_b 8.825959
_cell_length_c 24.637138
_cell_angle_alpha 90.000000
_cell_angle_beta 90.000000
_cell_angle_gamma 90.000000
_cell_volume 3437.109752
_symmetry_space_group_name_H-M "C M M M"
_symmetry_group_IT_number 65
_symmetry_cell_setting 'orthorhombic'
loop_
_space_group_symop_operation_xyz
x,y,z
-x,-y,z
x,-y,-z
-x,y,-z
-x,-y,-z
x,y,-z
-x,y,z
x,-y,z
1/2+x,1/2+y,z
1/2-x,1/2-y,z
1/2+x,1/2-y,-z
1/2-x,1/2+y,-z
1/2-x,1/2-y,-z
1/2+x,1/2+y,-z
1/2-x,1/2+y,z
1/2+x,1/2-y,z
loop_
_atom_site_type_symbol
_atom_site_label
_atom_site_fract_x
_atom_site_fract_y
_atom_site_fract_z
Si Si1 0.000000 0.673087 0.064183
Si Si2 0.162153 0.178773 0.117966
Si Si3 0.157992 0.177468 0.558818
Si Si4 0.341800 0.822460 0.664163
Si Si5 0.904171 0.169830 0.232542
O O1 0.915585 0.753281 0.085025
O O2 0.000000 0.500000 0.084620
O O3 0.000000 0.683541 0.000000
O O4 0.250000 0.250000 0.096838
O O5 0.153488 0.218459 0.181867
O O6 0.163296 0.000000 0.108226
O O7 0.112816 0.206752 0.500000
O O8 0.250000 0.250000 0.556528
O O9 0.110875 0.254750 0.610226
O O10 0.165732 0.000000 0.570009
O O11 0.250000 0.750000 0.671035
O O12 0.394817 0.784614 0.717604
O O13 0.334045 0.000000 0.657217
O O14 0.000000 0.176031 0.211381
O O15 0.880469 0.000000 0.252130
#
# Coordination Sequence:
#
# PCOD8273801 Si02
#       5
#     8  16  16  16  16
#     4  11  25  45  69  99 135 175 218 265 314 367
#     4  11  23  42  68  99 131 171 216 263 319 375
#     4   9  16  27  45  69  99 137 181 233 293 354
#     4  11  21  32  50  78 110 146 188 237 294 357
#     4  10  21  39  60  84 116 153 196 247 305 366
#
# _framework density 20.947831999999998
#
# number of rings (size 3 to 8) (size 9 to 14) (size 15 to 20)
#    0.000    1.667    1.111    5.667    0.000    6.667 
#    0.000    0.000    0.000    0.667    0.000    4.667 
#    0.000    0.000    0.000    0.000    0.000    0.000 
#
# Total GULP energy -446277.151631 kJ/mol
# GULP energy per Si atom -12396.587545 kJ/mol
# Density = 2.090015 g / cm^3
# Si number density = 20.947832 Si / 1000 Ang^3
#
#
#
# Elastic Constant Matrix: (Units=GPa)
#
#
# Indices 1 2 3 4 5 6 
#
# 1 101.6507 44.1845 41.4576 0.0000 0.0000 0.0000
# 2 44.1845 153.1082 63.8476 0.0000 0.0000 0.0000
# 3 41.4576 63.8476 105.1624 0.0000 0.0000 0.0000
# 4 0.0000 0.0000 0.0000 33.1762 0.0000 0.0000
# 5 0.0000 0.0000 0.0000 0.0000 18.3774 0.0000
# 6 0.0000 0.0000 0.0000 0.0000 0.0000 27.3691
#
#
#
# Elastic Compliance Matrix: (Units=1/GPa)
#
#
# Indices 1 2 3 4 5 6 
#
# 1 0.012174 -0.002024 -0.003570 0.000000 0.000000 0.000000
# 2 -0.002024 0.009082 -0.004716 0.000000 0.000000 0.000000
# 3 -0.003570 -0.004716 0.013780 0.000000 0.000000 0.000000
# 4 0.000000 0.000000 0.000000 0.030142 0.000000 0.000000
# 5 0.000000 0.000000 0.000000 0.000000 0.054415 0.000000
# 6 0.000000 0.000000 0.000000 0.000000 0.000000 0.036538
#
#
# Mechanical properties :
#
#
# Convention : Reuss Voigt Hill
#
# Bulk Modulus (GPa) = 69.37413 73.21121 71.29267
# Shear Modulus (GPa) = 27.53976 29.81330 28.67653
#
# Velocity S-wave (km/s) = 3.62979 3.77665 3.70395
# Velocity P-wave (km/s) = 7.12437 7.35137 7.23876
#
# Compressibility (1/GPa) = 0.01441460
#
# Stress axis : x y z
#
# Youngs Moduli (GPa) = 82.14521 110.10607 72.57006
#
# Poissons Ratio (x) = 0.22289 0.25908
# Poissons Ratio (y) = 0.16629 0.34224
# Poissons Ratio (z) = 0.29327 0.51926
#
# Static dielectric constant tensor:
#      x y z
#    x 3.530760 0.000000 0.000000 
#    y 0.000000 3.885670 0.000000 
#    z 0.000000 0.000000 4.305040 
# 
# 
# High freq. dielectric constant tensor:
#      x y z
#    x 1.791900 0.000000 0.000000 
#    y 0.000000 1.829810 0.000000 
#    z 0.000000 0.000000 1.835090 
# 
# From -- ./inp_files/74592.got.cif
#   From: 2010.03.12/outbox.cif.g09.slc.cpg/sg65_38_cif.got.tgz:74592.got - 2010.04.10 20:52:16.
