data_PCOD8273024
_publ_section_title
;
Structure prediction by ZEFSAII (Michael W. Deem and Ramdas Pophale) SiO2 
 PCOD8273024
Probable space group: C M M M
;
_chemical_formula_sum "Si O2"
_cell_formula_units_Z 64
_cell_length_a 39.802878
_cell_length_b 9.309733
_cell_length_c 9.793970
_cell_angle_alpha 90.000000
_cell_angle_beta 90.000000
_cell_angle_gamma 90.000000
_cell_volume 3629.196393
_symmetry_space_group_name_H-M "C M M M"
_symmetry_group_IT_number 65
_symmetry_cell_setting 'orthorhombic'
loop_
_space_group_symop_operation_xyz
x,y,z
-x,-y,z
x,-y,-z
-x,y,-z
-x,-y,-z
x,y,-z
-x,y,z
x,-y,z
1/2+x,1/2+y,z
1/2-x,1/2-y,z
1/2+x,1/2-y,-z
1/2-x,1/2+y,-z
1/2-x,1/2-y,-z
1/2+x,1/2+y,-z
1/2-x,1/2+y,z
1/2+x,1/2-y,z
loop_
_atom_site_type_symbol
_atom_site_label
_atom_site_fract_x
_atom_site_fract_y
_atom_site_fract_z
Si Si1 0.087987 0.665517 0.154875
Si Si2 0.462339 0.331252 0.345066
Si Si3 0.283680 0.332355 0.341957
Si Si4 0.334497 0.164565 0.841582
O O1 0.078757 0.500000 0.175142
O O2 0.064855 0.757746 0.251411
O O3 0.126669 0.692918 0.192202
O O4 0.081100 0.713296 0.000000
O O5 0.456417 0.280517 0.500000
O O6 0.500000 0.288175 0.298446
O O7 0.457400 0.500000 0.332856
O O8 0.292435 0.304179 0.500000
O O9 0.278556 0.500000 0.311601
O O10 0.250000 0.250000 0.299070
O O11 0.313859 0.273184 0.251387
O O12 0.324986 0.000000 0.806821
O O13 0.326886 0.196332 0.000000
#
# Coordination Sequence:
#
# PCOD8273024 Si02
#       4
#    16  16  16  16
#     4   9  19  35  53  75 103 133 167 208 252 299
#     4   9  19  35  52  72 101 135 170 209 252 299
#     4  10  21  36  54  77 104 134 169 208 250 297
#     4   9  19  36  55  75 102 135 169 206 250 300
#
# _framework density 17.634758999999999
#
# number of rings (size 3 to 8) (size 9 to 14) (size 15 to 20)
#    0.000    2.750    0.000    3.000    0.000    6.500 
#    0.000   11.250    0.000    0.000    0.000    0.000 
#    0.000    0.000    0.000    0.000    0.000    0.000 
#
# Total GULP energy -396814.186446 kJ/mol
# GULP energy per Si atom -12400.443326 kJ/mol
# Density = 1.759462 g / cm^3
# Si number density = 17.634759 Si / 1000 Ang^3
#
#
#
# Elastic Constant Matrix: (Units=GPa)
#
#
# Indices 1 2 3 4 5 6 
#
# 1 100.7928 59.7866 68.3922 0.0000 0.0000 0.0000
# 2 59.7866 82.8005 54.7735 0.0000 0.0000 0.0000
# 3 68.3922 54.7735 84.2725 0.0000 0.0000 0.0000
# 4 0.0000 0.0000 0.0000 37.2216 0.0000 0.0000
# 5 0.0000 0.0000 0.0000 0.0000 40.6755 0.0000
# 6 0.0000 0.0000 0.0000 0.0000 0.0000 40.8149
#
#
#
# Elastic Compliance Matrix: (Units=1/GPa)
#
#
# Indices 1 2 3 4 5 6 
#
# 1 0.024810 -0.008060 -0.014896 0.000000 0.000000 0.000000
# 2 -0.008060 0.023805 -0.008931 0.000000 0.000000 0.000000
# 3 -0.014896 -0.008931 0.029760 0.000000 0.000000 0.000000
# 4 0.000000 0.000000 0.000000 0.026866 0.000000 0.000000
# 5 0.000000 0.000000 0.000000 0.000000 0.024585 0.000000
# 6 0.000000 0.000000 0.000000 0.000000 0.000000 0.024501
#
#
# Mechanical properties :
#
#
# Convention : Reuss Voigt Hill
#
# Bulk Modulus (GPa) = 68.48968 70.41893 69.45431
# Shear Modulus (GPa) = 22.42479 29.40328 25.91404
#
# Velocity S-wave (km/s) = 3.56985 4.08775 3.83755
# Velocity P-wave (km/s) = 7.47757 7.89292 7.68805
#
# Compressibility (1/GPa) = 0.01460074
#
# Stress axis : x y z
#
# Youngs Moduli (GPa) = 40.30651 42.00781 33.60245
#
# Poissons Ratio (x) = 0.33860 0.50054
# Poissons Ratio (y) = 0.32489 0.30010
# Poissons Ratio (z) = 0.60040 0.37516
#
# Static dielectric constant tensor:
#      x y z
#    x 3.782050 0.000000 0.000000 
#    y 0.000000 3.198430 0.000000 
#    z 0.000000 0.000000 3.256740 
# 
# 
# High freq. dielectric constant tensor:
#      x y z
#    x 1.687100 0.000000 0.000000 
#    y 0.000000 1.682340 0.000000 
#    z 0.000000 0.000000 1.682710 
# 
# From -- ./inp_files/20920.got.cif
#   From: 2010.03.12/outbox.cif.g09.slc.cpg/sg65_11_cif.got.tgz:20920.got - 2010.04.10 20:52:16.
