data_PCOD8273534
_publ_section_title
;
Structure prediction by ZEFSAII (Michael W. Deem and Ramdas Pophale) SiO2 
 PCOD8273534
Probable space group: C M M M
;
_chemical_formula_sum "Si O2"
_cell_formula_units_Z 72
_cell_length_a 23.649556
_cell_length_b 17.713953
_cell_length_c 8.789937
_cell_angle_alpha 90.000000
_cell_angle_beta 90.000000
_cell_angle_gamma 90.000000
_cell_volume 3682.343023
_symmetry_space_group_name_H-M "C M M M"
_symmetry_group_IT_number 65
_symmetry_cell_setting 'orthorhombic'
loop_
_space_group_symop_operation_xyz
x,y,z
-x,-y,z
x,-y,-z
-x,y,-z
-x,-y,-z
x,y,-z
-x,y,z
x,-y,z
1/2+x,1/2+y,z
1/2-x,1/2-y,z
1/2+x,1/2-y,-z
1/2-x,1/2+y,-z
1/2-x,1/2-y,-z
1/2+x,1/2+y,-z
1/2-x,1/2+y,z
1/2+x,1/2-y,z
loop_
_atom_site_type_symbol
_atom_site_label
_atom_site_fract_x
_atom_site_fract_y
_atom_site_fract_z
Si Si1 0.566575 0.000000 0.829462
Si Si2 0.759259 0.335483 0.179012
Si Si3 0.936776 0.207387 0.680099
Si Si4 0.846275 0.912817 0.676734
Si Si5 0.877253 0.641309 0.680304
O O1 0.585273 0.926622 0.739135
O O2 0.500000 0.000000 0.836852
O O3 0.592298 0.000000 0.000000
O O4 0.750000 0.250000 0.235996
O O5 0.706780 0.387245 0.224406
O O6 0.814058 0.369053 0.259713
O O7 0.768350 0.338837 0.000000
O O8 0.941159 0.212750 0.500000
O O9 0.901547 0.133601 0.729452
O O10 0.904626 0.281202 0.743511
O O11 0.000000 0.202362 0.750294
O O12 0.832533 0.897383 0.500000
O O13 0.859411 0.000000 0.708409
O O14 0.876149 0.640220 0.500000
#
# Coordination Sequence:
#
# PCOD8273534 Si02
#       5
#     8  16  16  16  16
#     4  11  25  43  61  87 127 165 198 245 304 365
#     4  11  23  39  60  85 117 155 198 247 304 364
#     4   9  18  34  58  88 118 150 192 243 296 350
#     4  10  21  37  59  88 121 156 196 243 297 355
#     4  11  22  38  63  89 118 157 203 253 299 353
#
# _framework density 19.552766999999999
#
# number of rings (size 3 to 8) (size 9 to 14) (size 15 to 20)
#    0.000    1.667    2.222    2.333    1.556    3.556 
#    0.000    2.222    0.000    2.000    0.000    1.556 
#    0.000    0.000    0.000    0.000    0.000    0.000 
#
# Total GULP energy -446557.282961 kJ/mol
# GULP energy per Si atom -12404.368971 kJ/mol
# Density = 1.950826 g / cm^3
# Si number density = 19.552767 Si / 1000 Ang^3
#
#
#
# Elastic Constant Matrix: (Units=GPa)
#
#
# Indices 1 2 3 4 5 6 
#
# 1 142.0652 56.6016 30.6320 0.0000 0.0000 0.0000
# 2 56.6016 148.6944 33.9187 0.0000 0.0000 0.0000
# 3 30.6320 33.9187 60.3498 0.0000 0.0000 0.0000
# 4 0.0000 0.0000 0.0000 26.1008 0.0000 0.0000
# 5 0.0000 0.0000 0.0000 0.0000 19.4066 0.0000
# 6 0.0000 0.0000 0.0000 0.0000 0.0000 62.9166
#
#
#
# Elastic Compliance Matrix: (Units=1/GPa)
#
#
# Indices 1 2 3 4 5 6 
#
# 1 0.008730 -0.002652 -0.002940 0.000000 0.000000 0.000000
# 2 -0.002652 0.008520 -0.003442 0.000000 0.000000 0.000000
# 3 -0.002940 -0.003442 0.019997 0.000000 0.000000 0.000000
# 4 0.000000 0.000000 0.000000 0.038313 0.000000 0.000000
# 5 0.000000 0.000000 0.000000 0.000000 0.051529 0.000000
# 6 0.000000 0.000000 0.000000 0.000000 0.000000 0.015894
#
#
# Mechanical properties :
#
#
# Convention : Reuss Voigt Hill
#
# Bulk Modulus (GPa) = 52.14548 65.93488 59.04018
# Shear Modulus (GPa) = 29.86050 37.01526 33.43788
#
# Velocity S-wave (km/s) = 3.91215 4.35569 4.13986
# Velocity P-wave (km/s) = 6.86539 7.68705 7.28781
#
# Compressibility (1/GPa) = 0.01917712
#
# Stress axis : x y z
#
# Youngs Moduli (GPa) = 114.55085 117.37008 50.00706
#
# Poissons Ratio (x) = 0.31130 0.14704
# Poissons Ratio (y) = 0.30383 0.17214
# Poissons Ratio (z) = 0.33681 0.40402
#
# Static dielectric constant tensor:
#      x y z
#    x 3.731070 0.000000 0.000000 
#    y 0.000000 3.733530 0.000000 
#    z 0.000000 0.000000 3.395170 
# 
# 
# High freq. dielectric constant tensor:
#      x y z
#    x 1.773770 0.000000 0.000000 
#    y 0.000000 1.771390 0.000000 
#    z 0.000000 0.000000 1.742050 
# 
# From -- ./inp_files/7289.got.cif
#   From: 2010.03.12/outbox.cif.g09.slc.cpg/sg65_4_cif.got.tgz:7289.got - 2010.04.10 20:52:16.
