data_PCOD8273464
_publ_section_title
;
Structure prediction by ZEFSAII (Michael W. Deem and Ramdas Pophale) SiO2 
 PCOD8273464
Probable space group: C M M M
;
_chemical_formula_sum "Si O2"
_cell_formula_units_Z 120
_cell_length_a 28.197175
_cell_length_b 24.425877
_cell_length_c 9.158815
_cell_angle_alpha 90.000000
_cell_angle_beta 90.000000
_cell_angle_gamma 90.000000
_cell_volume 6308.048913
_symmetry_space_group_name_H-M "C M M M"
_symmetry_group_IT_number 65
_symmetry_cell_setting 'orthorhombic'
loop_
_space_group_symop_operation_xyz
x,y,z
-x,-y,z
x,-y,-z
-x,y,-z
-x,-y,-z
x,y,-z
-x,y,z
x,-y,z
1/2+x,1/2+y,z
1/2-x,1/2-y,z
1/2+x,1/2-y,-z
1/2-x,1/2+y,-z
1/2-x,1/2-y,-z
1/2+x,1/2+y,-z
1/2-x,1/2+y,z
1/2+x,1/2-y,z
loop_
_atom_site_type_symbol
_atom_site_label
_atom_site_fract_x
_atom_site_fract_y
_atom_site_fract_z
Si Si1 0.000000 0.935439 0.827676
Si Si2 0.106781 0.246039 0.329106
Si Si3 0.698944 0.264798 0.836083
Si Si4 0.412237 0.378076 0.327012
Si Si5 0.947505 0.647726 0.326609
Si Si6 0.870163 0.562867 0.327985
Si Si7 0.721333 0.064052 0.837809
Si Si8 0.180785 0.107822 0.165031
O O1 0.045649 0.908219 0.755162
O O2 0.000000 0.000000 0.794870
O O3 0.000000 0.923520 0.000000
O O4 0.115820 0.248022 0.500000
O O5 0.156844 0.261667 0.256845
O O6 0.086775 0.186347 0.284190
O O7 0.069611 0.291997 0.277229
O O8 0.750000 0.250000 0.766101
O O9 0.692714 0.329043 0.835386
O O10 0.696246 0.240888 0.000000
O O11 0.417065 0.386843 0.500000
O O12 0.363323 0.405141 0.270713
O O13 0.948993 0.644823 0.500000
O O14 0.913192 0.599886 0.267075
O O15 0.000000 0.638132 0.261340
O O16 0.864770 0.568585 0.500000
O O17 0.880207 0.500000 0.282516
O O18 0.821526 0.586866 0.260251
O O19 0.772830 0.077601 0.770095
O O20 0.715237 0.000000 0.847010
O O21 0.718177 0.090428 0.000000
O O22 0.169047 0.087379 0.000000
#
# Coordination Sequence:
#
# PCOD8273464 Si02
#       8
#     8  16  16  16  16  16  16  16
#     4  11  25  43  63  85 109 143 182 217 262 320
#     4   9  19  34  53  78 106 140 177 215 265 320
#     4   9  18  31  48  72 103 140 175 212 261 310
#     4  10  21  37  58  83 111 142 177 222 270 315
#     4   9  18  32  52  77 104 137 178 222 268 322
#     4   9  18  32  50  75 105 136 175 224 272 315
#     4   9  18  32  51  74 100 136 176 212 259 318
#     4   9  18  33  51  73 105 142 179 217 263 322
#
# _framework density 19.023315
#
# number of rings (size 3 to 8) (size 9 to 14) (size 15 to 20)
#    0.000    2.733    0.000    0.600    2.800    2.667 
#    0.000    2.667    0.000    1.200    0.000    1.867 
#    0.000    0.000    0.000    0.000    0.000    0.000 
#
# Total GULP energy -743832.653966 kJ/mol
# GULP energy per Si atom -12397.210899 kJ/mol
# Density = 1.898002 g / cm^3
# Si number density = 19.023315 Si / 1000 Ang^3
#
#
#
# Elastic Constant Matrix: (Units=GPa)
#
#
# Indices 1 2 3 4 5 6 
#
# 1 198.6558 72.8300 62.5067 0.0000 0.0000 0.0000
# 2 72.8300 74.0754 37.5355 0.0000 0.0000 0.0000
# 3 62.5067 37.5355 57.3451 0.0000 0.0000 0.0000
# 4 0.0000 0.0000 0.0000 17.2817 0.0000 0.0000
# 5 0.0000 0.0000 0.0000 0.0000 29.7031 0.0000
# 6 0.0000 0.0000 0.0000 0.0000 0.0000 35.8437
#
#
#
# Elastic Compliance Matrix: (Units=1/GPa)
#
#
# Indices 1 2 3 4 5 6 
#
# 1 0.009095 -0.005864 -0.006076 0.000000 0.000000 0.000000
# 2 -0.005864 0.023980 -0.009305 0.000000 0.000000 0.000000
# 3 -0.006076 -0.009305 0.030151 0.000000 0.000000 0.000000
# 4 0.000000 0.000000 0.000000 0.057865 0.000000 0.000000
# 5 0.000000 0.000000 0.000000 0.000000 0.033666 0.000000
# 6 0.000000 0.000000 0.000000 0.000000 0.000000 0.027899
#
#
# Mechanical properties :
#
#
# Convention : Reuss Voigt Hill
#
# Bulk Modulus (GPa) = 48.22029 75.09121 61.65575
# Shear Modulus (GPa) = 21.54638 27.04597 24.29618
#
# Velocity S-wave (km/s) = 3.36911 3.77467 3.57764
# Velocity P-wave (km/s) = 6.36691 7.65222 7.03896
#
# Compressibility (1/GPa) = 0.02073816
#
# Stress axis : x y z
#
# Youngs Moduli (GPa) = 109.94712 41.70212 33.16585
#
# Poissons Ratio (x) = 0.24452 0.20151
# Poissons Ratio (y) = 0.64468 0.30860
# Poissons Ratio (z) = 0.66803 0.38802
#
# Static dielectric constant tensor:
#      x y z
#    x 3.843110 0.000000 0.000000 
#    y 0.000000 3.503530 0.000000 
#    z 0.000000 0.000000 3.465590 
# 
# 
# High freq. dielectric constant tensor:
#      x y z
#    x 1.750360 0.000000 0.000000 
#    y 0.000000 1.735870 0.000000 
#    z 0.000000 0.000000 1.715390 
# 
# From -- ./inp_files/17059.got.cif
#   From: 2010.03.12/outbox.cif.g09.slc.cpg/sg65_9_cif.got.tgz:17059.got - 2010.04.10 20:52:16.
