data_PCOD8273834
_publ_section_title
;
Structure prediction by ZEFSAII (Michael W. Deem and Ramdas Pophale) SiO2 
 PCOD8273834
Probable space group: C M M M
;
_chemical_formula_sum "Si O2"
_cell_formula_units_Z 64
_cell_length_a 9.161932
_cell_length_b 15.595656
_cell_length_c 22.259618
_cell_angle_alpha 90.000000
_cell_angle_beta 90.000000
_cell_angle_gamma 90.000000
_cell_volume 3180.595341
_symmetry_space_group_name_H-M "C M M M"
_symmetry_group_IT_number 65
_symmetry_cell_setting 'orthorhombic'
loop_
_space_group_symop_operation_xyz
x,y,z
-x,-y,z
x,-y,-z
-x,y,-z
-x,-y,-z
x,y,-z
-x,y,z
x,-y,z
1/2+x,1/2+y,z
1/2-x,1/2-y,z
1/2+x,1/2-y,-z
1/2-x,1/2+y,-z
1/2-x,1/2-y,-z
1/2+x,1/2+y,-z
1/2-x,1/2+y,z
1/2+x,1/2-y,z
loop_
_atom_site_type_symbol
_atom_site_label
_atom_site_fract_x
_atom_site_fract_y
_atom_site_fract_z
Si Si1 0.832450 0.000000 0.428963
Si Si2 0.174614 0.342062 0.631915
Si Si3 0.659153 0.097805 0.109894
Si Si4 0.339294 0.602774 0.000000
Si Si5 0.830583 0.336154 0.766287
O O1 0.746840 0.085352 0.408965
O O2 0.833397 0.000000 0.500000
O O3 0.000000 0.000000 0.404619
O O4 0.250000 0.250000 0.618331
O O5 0.210355 0.371867 0.700365
O O6 0.000000 0.335849 0.619834
O O7 0.500000 0.142381 0.105751
O O8 0.716393 0.101631 0.178984
O O9 0.644421 0.000000 0.091493
O O10 0.763600 0.140571 0.060284
O O11 0.343437 0.500000 0.000000
O O12 0.500000 0.641497 0.000000
O O13 0.750000 0.250000 0.781068
O O14 0.000000 0.316064 0.766412
#
# Coordination Sequence:
#
# PCOD8273834 Si02
#       5
#     8  16  16   8  16
#     4  11  25  43  63  91 125 160 203 248 289 345
#     4  10  21  39  64  91 124 161 199 245 299 354
#     4   9  17  30  50  72  97 133 176 218 267 327
#     4   9  17  29  44  67 100 131 169 221 274 323
#     4   9  19  34  54  79 108 140 177 224 275 334
#
# _framework density 20.122018000000001
#
# number of rings (size 3 to 8) (size 9 to 14) (size 15 to 20)
#    0.000    2.500    0.000    1.500    1.750    5.000 
#    0.000    0.625    0.000    0.000    0.000    0.000 
#    0.000    0.000    0.000    0.000    0.000    0.000 
#
# Total GULP energy -396456.623101 kJ/mol
# GULP energy per Si atom -12389.269472 kJ/mol
# Density = 2.007622 g / cm^3
# Si number density = 20.122018 Si / 1000 Ang^3
#
#
#
# Elastic Constant Matrix: (Units=GPa)
#
#
# Indices 1 2 3 4 5 6 
#
# 1 108.4168 47.4674 61.3857 0.0000 0.0000 0.0000
# 2 47.4674 70.3912 42.1530 0.0000 0.0000 0.0000
# 3 61.3857 42.1530 119.0882 0.0000 0.0000 0.0000
# 4 0.0000 0.0000 0.0000 5.2702 0.0000 0.0000
# 5 0.0000 0.0000 0.0000 0.0000 29.1509 0.0000
# 6 0.0000 0.0000 0.0000 0.0000 0.0000 28.1614
#
#
#
# Elastic Compliance Matrix: (Units=1/GPa)
#
#
# Indices 1 2 3 4 5 6 
#
# 1 0.015425 -0.007157 -0.005417 0.000000 0.000000 0.000000
# 2 -0.007157 0.021349 -0.003867 0.000000 0.000000 0.000000
# 3 -0.005417 -0.003867 0.012559 0.000000 0.000000 0.000000
# 4 0.000000 0.000000 0.000000 0.189747 0.000000 0.000000
# 5 0.000000 0.000000 0.000000 0.000000 0.034304 0.000000
# 6 0.000000 0.000000 0.000000 0.000000 0.000000 0.035510
#
#
# Mechanical properties :
#
#
# Convention : Reuss Voigt Hill
#
# Bulk Modulus (GPa) = 60.79861 66.65648 63.72755
# Shear Modulus (GPa) = 14.39846 22.30919 18.35382
#
# Velocity S-wave (km/s) = 2.67789 3.33332 3.02342
# Velocity P-wave (km/s) = 6.31206 6.92912 6.62777
#
# Compressibility (1/GPa) = 0.01644775
#
# Stress axis : x y z
#
# Youngs Moduli (GPa) = 64.83147 46.84144 79.62711
#
# Poissons Ratio (x) = 0.33525 0.43137
# Poissons Ratio (y) = 0.46401 0.30795
# Poissons Ratio (z) = 0.35122 0.18115
#
# Static dielectric constant tensor:
#      x y z
#    x 4.052350 0.000000 0.000000 
#    y 0.000000 3.202160 0.000000 
#    z 0.000000 0.000000 3.919810 
# 
# 
# High freq. dielectric constant tensor:
#      x y z
#    x 1.790330 0.000000 0.000000 
#    y 0.000000 1.757610 0.000000 
#    z 0.000000 0.000000 1.798350 
# 
# From -- ./inp_files/66819.got.cif
#   From: 2010.03.12/outbox.cif.g09.slc.cpg/sg65_34_cif.got.tgz:66819.got - 2010.04.10 20:52:16.
