data_PCOD8273668
_publ_section_title
;
Structure prediction by ZEFSAII (Michael W. Deem and Ramdas Pophale) SiO2 
 PCOD8273668
Probable space group: C M M M
;
_chemical_formula_sum "Si O2"
_cell_formula_units_Z 64
_cell_length_a 7.782472
_cell_length_b 27.731384
_cell_length_c 14.637887
_cell_angle_alpha 90.000000
_cell_angle_beta 90.000000
_cell_angle_gamma 90.000000
_cell_volume 3159.130029
_symmetry_space_group_name_H-M "C M M M"
_symmetry_group_IT_number 65
_symmetry_cell_setting 'orthorhombic'
loop_
_space_group_symop_operation_xyz
x,y,z
-x,-y,z
x,-y,-z
-x,y,-z
-x,-y,-z
x,y,-z
-x,y,z
x,-y,z
1/2+x,1/2+y,z
1/2-x,1/2-y,z
1/2+x,1/2-y,-z
1/2-x,1/2+y,-z
1/2-x,1/2-y,-z
1/2+x,1/2+y,-z
1/2-x,1/2+y,z
1/2+x,1/2-y,z
loop_
_atom_site_type_symbol
_atom_site_label
_atom_site_fract_x
_atom_site_fract_y
_atom_site_fract_z
Si Si1 0.805261 0.378797 0.394613
Si Si2 0.195784 0.304647 0.241035
Si Si3 0.000000 0.553937 0.108631
Si Si4 0.000000 0.053546 0.391673
Si Si5 0.691009 0.620027 0.104676
O O1 0.769958 0.365976 0.500000
O O2 0.773145 0.330047 0.338447
O O3 0.672071 0.419053 0.358468
O O4 0.000000 0.398329 0.380486
O O5 0.250000 0.250000 0.252260
O O6 0.304488 0.330742 0.162190
O O7 0.000000 0.308041 0.209950
O O8 0.829792 0.581835 0.143613
O O9 0.000000 0.500000 0.150099
O O10 0.000000 0.550993 0.000000
O O11 0.000000 0.049987 0.500000
O O12 0.000000 0.000000 0.348620
O O13 0.500000 0.597313 0.113265
O O14 0.733408 0.633132 0.000000
#
# Coordination Sequence:
#
# PCOD8273668 Si02
#       5
#    16  16   8   8  16
#     4   9  20  38  58  83 117 150 187 234 280 335
#     4  11  23  38  60  85 115 153 190 236 289 340
#     4   9  18  36  61  86 115 151 190 235 284 334
#     4   9  18  34  59  86 111 149 192 231 282 332
#     4  10  21  38  60  85 117 152 190 236 282 336
#
# _framework density 20.258742000000002
#
# number of rings (size 3 to 8) (size 9 to 14) (size 15 to 20)
#    0.000    2.250    1.250    0.750    3.500    2.000 
#    0.000    6.250    0.000    0.000    0.000    0.000 
#    0.000    0.000    0.000    0.000    0.000    0.000 
#
# Total GULP energy -396815.193664 kJ/mol
# GULP energy per Si atom -12400.474802 kJ/mol
# Density = 2.021263 g / cm^3
# Si number density = 20.258742 Si / 1000 Ang^3
#
#
#
# Elastic Constant Matrix: (Units=GPa)
#
#
# Indices 1 2 3 4 5 6 
#
# 1 149.1273 82.2054 44.7376 0.0000 0.0000 0.0000
# 2 82.2054 170.5454 44.3118 0.0000 0.0000 0.0000
# 3 44.7376 44.3118 59.2485 0.0000 0.0000 0.0000
# 4 0.0000 0.0000 0.0000 16.9748 0.0000 0.0000
# 5 0.0000 0.0000 0.0000 0.0000 21.6351 0.0000
# 6 0.0000 0.0000 0.0000 0.0000 0.0000 24.4463
#
#
#
# Elastic Compliance Matrix: (Units=1/GPa)
#
#
# Indices 1 2 3 4 5 6 
#
# 1 0.010199 -0.003618 -0.004995 0.000000 0.000000 0.000000
# 2 -0.003618 0.008561 -0.003671 0.000000 0.000000 0.000000
# 3 -0.004995 -0.003671 0.023395 0.000000 0.000000 0.000000
# 4 0.000000 0.000000 0.000000 0.058911 0.000000 0.000000
# 5 0.000000 0.000000 0.000000 0.000000 0.046221 0.000000
# 6 0.000000 0.000000 0.000000 0.000000 0.000000 0.040906
#
#
# Mechanical properties :
#
#
# Convention : Reuss Voigt Hill
#
# Bulk Modulus (GPa) = 56.85971 80.15898 68.50934
# Shear Modulus (GPa) = 22.87039 26.45567 24.66303
#
# Velocity S-wave (km/s) = 3.36358 3.61763 3.49291
# Velocity P-wave (km/s) = 6.57363 7.55666 7.08222
#
# Compressibility (1/GPa) = 0.01758715
#
# Stress axis : x y z
#
# Youngs Moduli (GPa) = 98.05323 116.80422 42.74394
#
# Poissons Ratio (x) = 0.42261 0.21350
# Poissons Ratio (y) = 0.35476 0.15692
# Poissons Ratio (z) = 0.48976 0.42879
#
# Static dielectric constant tensor:
#      x y z
#    x 3.985110 0.000000 0.000000 
#    y 0.000000 3.787450 0.000000 
#    z 0.000000 0.000000 3.524270 
# 
# 
# High freq. dielectric constant tensor:
#      x y z
#    x 1.810080 0.000000 0.000000 
#    y 0.000000 1.773020 0.000000 
#    z 0.000000 0.000000 1.782870 
# 
# From -- ./inp_files/36057.got.cif
#   From: 2010.03.12/outbox.cif.g09.slc.cpg/sg65_19_cif.got.tgz:36057.got - 2010.04.10 20:52:16.
