data_PCOD8273589
_publ_section_title
;
Structure prediction by ZEFSAII (Michael W. Deem and Ramdas Pophale) SiO2 
 PCOD8273589
Probable space group: C M M M
;
_chemical_formula_sum "Si O2"
_cell_formula_units_Z 88
_cell_length_a 8.868026
_cell_length_b 18.833987
_cell_length_c 28.277977
_cell_angle_alpha 90.000000
_cell_angle_beta 90.000000
_cell_angle_gamma 90.000000
_cell_volume 4722.995817
_symmetry_space_group_name_H-M "C M M M"
_symmetry_group_IT_number 65
_symmetry_cell_setting 'orthorhombic'
loop_
_space_group_symop_operation_xyz
x,y,z
-x,-y,z
x,-y,-z
-x,y,-z
-x,-y,-z
x,y,-z
-x,y,z
x,-y,z
1/2+x,1/2+y,z
1/2-x,1/2-y,z
1/2+x,1/2-y,-z
1/2-x,1/2+y,-z
1/2-x,1/2-y,-z
1/2+x,1/2+y,-z
1/2-x,1/2+y,z
1/2+x,1/2-y,z
loop_
_atom_site_type_symbol
_atom_site_label
_atom_site_fract_x
_atom_site_fract_y
_atom_site_fract_z
Si Si1 0.326536 0.918809 0.445080
Si Si2 0.324557 0.917088 0.285920
Si Si3 0.678006 0.673295 0.101804
Si Si4 0.822403 0.826986 0.632283
Si Si5 0.675865 0.325445 0.000000
Si Si6 0.174757 0.917863 0.189103
O O1 0.302891 0.901834 0.500000
O O2 0.500000 0.906592 0.430339
O O3 0.221492 0.865752 0.416274
O O4 0.280742 0.000000 0.433981
O O5 0.500000 0.899792 0.291554
O O6 0.231807 0.873524 0.323953
O O7 0.270695 0.892774 0.234159
O O8 0.290277 0.000000 0.293909
O O9 0.500000 0.681853 0.106254
O O10 0.750000 0.750000 0.107983
O O11 0.721039 0.637656 0.050205
O O12 0.738559 0.622890 0.143295
O O13 0.750000 0.750000 0.634421
O O14 0.000000 0.818231 0.634552
O O15 0.750000 0.250000 0.000000
O O16 0.500000 0.312240 0.000000
O O17 0.000000 0.900975 0.199124
O O18 0.200663 0.000000 0.178491
#
# Coordination Sequence:
#
# PCOD8273589 Si02
#       6
#    16  16  16  16   8  16
#     4   9  19  38  63  88 115 148 184 221 262 311
#     4  10  21  38  59  80 104 137 176 217 263 318
#     4   9  17  29  47  70  96 128 165 207 252 301
#     4  12  25  39  57  82 113 146 180 222 269 315
#     4   8  14  26  43  65  93 125 163 202 246 300
#     4   9  18  33  51  72 100 133 169 209 255 307
#
# _framework density 18.632242000000002
#
# number of rings (size 3 to 8) (size 9 to 14) (size 15 to 20)
#    0.000    2.364    0.000    3.273    0.000    5.818 
#    0.000    3.182    0.000    2.727    0.000    0.000 
#    0.000   10.182    0.000    0.000    0.000    0.000 
#
# Total GULP energy -545429.526487 kJ/mol
# GULP energy per Si atom -12396.125602 kJ/mol
# Density = 1.858983 g / cm^3
# Si number density = 18.632242 Si / 1000 Ang^3
#
#
#
# Elastic Constant Matrix: (Units=GPa)
#
#
# Indices 1 2 3 4 5 6 
#
# 1 91.0749 48.1088 60.3350 0.0000 0.0000 0.0000
# 2 48.1088 75.6657 67.6533 0.0000 0.0000 0.0000
# 3 60.3350 67.6533 148.1754 0.0000 0.0000 0.0000
# 4 0.0000 0.0000 0.0000 -2.2647 0.0000 0.0000
# 5 0.0000 0.0000 0.0000 0.0000 27.6146 0.0000
# 6 0.0000 0.0000 0.0000 0.0000 0.0000 24.4829
#
#
#
# Elastic Compliance Matrix: (Units=1/GPa)
#
#
# Indices 1 2 3 4 5 6 
#
# 1 0.017524 -0.008047 -0.003461 0.000000 0.000000 0.000000
# 2 -0.008047 0.026028 -0.008607 0.000000 0.000000 0.000000
# 3 -0.003461 -0.008607 0.012088 0.000000 0.000000 0.000000
# 4 0.000000 0.000000 0.000000 -0.441550 0.000000 0.000000
# 5 0.000000 0.000000 0.000000 0.000000 0.036213 0.000000
# 6 0.000000 0.000000 0.000000 0.000000 0.000000 0.040845
#
#
# Mechanical properties :
#
#
# Convention : Reuss Voigt Hill
#
# Bulk Modulus (GPa) = 64.89771 74.12334 69.51053
# Shear Modulus (GPa) = -18.97637 19.22113 0.12238
#
# Velocity S-wave (km/s) = -3.19481 3.21535 0.25657
# Velocity P-wave (km/s) = 4.61491 7.32484 6.12171
#
# Compressibility (1/GPa) = 0.01540887
#
# Stress axis : x y z
#
# Youngs Moduli (GPa) = 57.06563 38.42012 82.72632
#
# Poissons Ratio (x) = 0.30916 0.28635
# Poissons Ratio (y) = 0.45920 0.71204
# Poissons Ratio (z) = 0.19753 0.33069
#
# Static dielectric constant tensor:
#      x y z
#    x 0.065490 0.000000 0.000000 
#    y 0.000000 3.316980 0.000000 
#    z 0.000000 0.000000 3.914990 
# 
# 
# High freq. dielectric constant tensor:
#      x y z
#    x 1.719910 0.000000 0.000000 
#    y 0.000000 1.704000 0.000000 
#    z 0.000000 0.000000 1.746460 
# 
# From -- ./inp_files/76571.got.cif
#   From: 2010.03.12/outbox.cif.g09.slc.cpg/sg65_39_cif.got.tgz:76571.got - 2010.04.10 20:52:16.
