data_PCOD8273152
_publ_section_title
;
Structure prediction by ZEFSAII (Michael W. Deem and Ramdas Pophale) SiO2 
 PCOD8273152
Probable space group: C M M M
;
_chemical_formula_sum "Si O2"
_cell_formula_units_Z 104
_cell_length_a 23.529125
_cell_length_b 26.054731
_cell_length_c 8.919277
_cell_angle_alpha 90.000000
_cell_angle_beta 90.000000
_cell_angle_gamma 90.000000
_cell_volume 5467.918370
_symmetry_space_group_name_H-M "C M M M"
_symmetry_group_IT_number 65
_symmetry_cell_setting 'orthorhombic'
loop_
_space_group_symop_operation_xyz
x,y,z
-x,-y,z
x,-y,-z
-x,y,-z
-x,-y,-z
x,y,-z
-x,y,z
x,-y,z
1/2+x,1/2+y,z
1/2-x,1/2-y,z
1/2+x,1/2-y,-z
1/2-x,1/2+y,-z
1/2-x,1/2-y,-z
1/2+x,1/2+y,-z
1/2-x,1/2+y,z
1/2+x,1/2-y,z
loop_
_atom_site_type_symbol
_atom_site_label
_atom_site_fract_x
_atom_site_fract_y
_atom_site_fract_z
Si Si1 0.932409 0.000000 0.831053
Si Si2 0.347734 0.326237 0.823490
Si Si3 0.356698 0.940820 0.324353
Si Si4 0.740885 0.133837 0.330119
Si Si5 0.433665 0.140124 0.824810
Si Si6 0.353709 0.218289 0.672250
Si Si7 0.066900 0.102600 0.327083
O O1 0.909711 0.050119 0.745662
O O2 0.000000 0.000000 0.830242
O O3 0.908494 0.000000 0.000000
O O4 0.294432 0.361898 0.779248
O O5 0.339410 0.269594 0.760588
O O6 0.405226 0.349350 0.755654
O O7 0.353494 0.323938 0.000000
O O8 0.369266 0.933006 0.500000
O O9 0.295463 0.916348 0.284615
O O10 0.406425 0.912712 0.233844
O O11 0.355864 0.000000 0.276742
O O12 0.763524 0.129257 0.500000
O O13 0.701783 0.183588 0.312736
O O14 0.500000 0.138174 0.788821
O O15 0.407871 0.189520 0.741897
O O16 0.421052 0.145591 0.000000
O O17 0.367489 0.231194 0.500000
O O18 0.084412 0.102326 0.500000
O O19 0.000000 0.108223 0.304955
#
# Coordination Sequence:
#
# PCOD8273152 Si02
#       7
#     8  16  16  16  16  16  16
#     4   9  17  33  57  81 107 137 169 213 268 319
#     4  12  24  36  55  84 115 146 182 229 282 335
#     4   9  19  37  60  84 112 150 193 237 284 331
#     4   9  19  37  58  80 109 144 187 233 277 333
#     4  10  21  36  55  83 118 153 189 231 283 340
#     4  10  21  38  60  81 107 146 188 232 279 332
#     4  10  21  38  59  81 107 144 187 225 267 324
#
# _framework density 19.020033999999999
#
# number of rings (size 3 to 8) (size 9 to 14) (size 15 to 20)
#    0.000    2.077    0.000    4.385    0.000    9.231 
#    1.385    1.538    0.000    0.000    0.000    0.000 
#    0.000    0.000    0.000    0.000    0.000    0.000 
#
# Total GULP energy -645007.746726 kJ/mol
# GULP energy per Si atom -12403.995129 kJ/mol
# Density = 1.897674 g / cm^3
# Si number density = 19.020034 Si / 1000 Ang^3
#
#
#
# Elastic Constant Matrix: (Units=GPa)
#
#
# Indices 1 2 3 4 5 6 
#
# 1 80.2150 37.9657 54.0086 0.0000 0.0000 0.0000
# 2 37.9657 61.0939 34.7462 0.0000 0.0000 0.0000
# 3 54.0086 34.7462 135.1402 0.0000 0.0000 0.0000
# 4 0.0000 0.0000 0.0000 27.3563 0.0000 0.0000
# 5 0.0000 0.0000 0.0000 0.0000 31.7947 0.0000
# 6 0.0000 0.0000 0.0000 0.0000 0.0000 15.5234
#
#
#
# Elastic Compliance Matrix: (Units=1/GPa)
#
#
# Indices 1 2 3 4 5 6 
#
# 1 0.021046 -0.009716 -0.005913 0.000000 0.000000 0.000000
# 2 -0.009716 0.023657 -0.002200 0.000000 0.000000 0.000000
# 3 -0.005913 -0.002200 0.010328 0.000000 0.000000 0.000000
# 4 0.000000 0.000000 0.000000 0.036555 0.000000 0.000000
# 5 0.000000 0.000000 0.000000 0.000000 0.031452 0.000000
# 6 0.000000 0.000000 0.000000 0.000000 0.000000 0.064419
#
#
# Mechanical properties :
#
#
# Convention : Reuss Voigt Hill
#
# Bulk Modulus (GPa) = 51.61374 58.87668 55.24521
# Shear Modulus (GPa) = 21.77966 24.91679 23.34823
#
# Velocity S-wave (km/s) = 3.38759 3.62336 3.50746
# Velocity P-wave (km/s) = 6.51893 6.96615 6.74625
#
# Compressibility (1/GPa) = 0.01937469
#
# Stress axis : x y z
#
# Youngs Moduli (GPa) = 47.51449 42.27085 96.82047
#
# Poissons Ratio (x) = 0.41070 0.57250
# Poissons Ratio (y) = 0.46164 0.21296
# Poissons Ratio (z) = 0.28095 0.09298
#
# Static dielectric constant tensor:
#      x y z
#    x 3.341450 0.000000 0.000000 
#    y 0.000000 3.573690 0.000000 
#    z 0.000000 0.000000 3.581780 
# 
# 
# High freq. dielectric constant tensor:
#      x y z
#    x 1.731000 0.000000 0.000000 
#    y 0.000000 1.743620 0.000000 
#    z 0.000000 0.000000 1.747690 
# 
# From -- ./inp_files/12421.got.cif
#   From: 2010.03.12/outbox.cif.g09.slc.cpg/sg65_7_cif.got.tgz:12421.got - 2010.04.10 20:52:16.
