data_PCOD8273931
_publ_section_title
;
Structure prediction by ZEFSAII (Michael W. Deem and Ramdas Pophale) SiO2 
 PCOD8273931
Probable space group: C M M M
;
_chemical_formula_sum "Si O2"
_cell_formula_units_Z 88
_cell_length_a 8.019273
_cell_length_b 21.342217
_cell_length_c 26.899666
_cell_angle_alpha 90.000000
_cell_angle_beta 90.000000
_cell_angle_gamma 90.000000
_cell_volume 4603.852673
_symmetry_space_group_name_H-M "C M M M"
_symmetry_group_IT_number 65
_symmetry_cell_setting 'orthorhombic'
loop_
_space_group_symop_operation_xyz
x,y,z
-x,-y,z
x,-y,-z
-x,y,-z
-x,-y,-z
x,y,-z
-x,y,z
x,-y,z
1/2+x,1/2+y,z
1/2-x,1/2-y,z
1/2+x,1/2-y,-z
1/2-x,1/2+y,-z
1/2-x,1/2-y,-z
1/2+x,1/2+y,-z
1/2-x,1/2+y,z
1/2+x,1/2-y,z
loop_
_atom_site_type_symbol
_atom_site_label
_atom_site_fract_x
_atom_site_fract_y
_atom_site_fract_z
Si Si1 0.315249 0.573744 0.882829
Si Si2 0.000000 0.425216 0.943347
Si Si3 0.809600 0.679403 0.701655
Si Si4 0.804262 0.180971 0.500000
Si Si5 0.697400 0.000000 0.558187
Si Si6 0.194545 0.874083 0.599957
Si Si7 0.301515 0.071277 0.773500
O O1 0.500000 0.600648 0.896988
O O2 0.316555 0.500000 0.890839
O O3 0.278318 0.589905 0.825821
O O4 0.167759 0.602262 0.917263
O O5 0.000000 0.500000 0.939099
O O6 0.000000 0.402259 0.000000
O O7 0.750000 0.750000 0.713102
O O8 0.786351 0.660750 0.644547
O O9 0.728580 0.623473 0.734993
O O10 0.000000 0.679729 0.715754
O O11 0.750000 0.250000 0.500000
O O12 0.725417 0.152044 0.549235
O O13 0.000000 0.169216 0.500000
O O14 0.768228 0.053403 0.593990
O O15 0.500000 0.000000 0.556675
O O16 0.764856 0.000000 0.500000
O O17 0.000000 0.859744 0.606294
O O18 0.500000 0.073798 0.778129
O O19 0.248183 0.000000 0.757610
#
# Coordination Sequence:
#
# PCOD8273931 Si02
#       7
#    16   8  16   8   8  16  16
#     4   9  16  27  46  72 104 145 193 238 282 339
#     4   9  16  26  42  68 110 156 192 233 286 338
#     4  11  24  40  59  84 116 150 186 237 290 344
#     4  10  22  37  56  77 101 136 176 218 269 338
#     4  11  23  39  61  87 111 141 179 223 273 338
#     4  11  23  40  59  81 111 143 179 226 280 335
#     4   9  18  35  57  78 106 147 192 238 287 342
#
# _framework density 19.114425000000001
#
# number of rings (size 3 to 8) (size 9 to 14) (size 15 to 20)
#    0.000    2.000    1.818    1.909    1.273    5.091 
#    0.000    1.818    0.000    0.000    0.000    0.000 
#    0.000    0.727    0.364    0.000    0.000    0.000 
#
# Total GULP energy -545159.535791 kJ/mol
# GULP energy per Si atom -12389.989450 kJ/mol
# Density = 1.907092 g / cm^3
# Si number density = 19.114425 Si / 1000 Ang^3
#
#
#
# Elastic Constant Matrix: (Units=GPa)
#
#
# Indices 1 2 3 4 5 6 
#
# 1 67.9100 21.6504 52.2271 0.0000 0.0000 0.0000
# 2 21.6504 112.5072 52.6424 0.0000 0.0000 0.0000
# 3 52.2271 52.6424 125.3567 0.0000 0.0000 0.0000
# 4 0.0000 0.0000 0.0000 8.0696 0.0000 0.0000
# 5 0.0000 0.0000 0.0000 0.0000 19.0073 0.0000
# 6 0.0000 0.0000 0.0000 0.0000 0.0000 20.6154
#
#
#
# Elastic Compliance Matrix: (Units=1/GPa)
#
#
# Indices 1 2 3 4 5 6 
#
# 1 0.021669 0.000068 -0.009056 0.000000 0.000000 0.000000
# 2 0.000068 0.011062 -0.004674 0.000000 0.000000 0.000000
# 3 -0.009056 -0.004674 0.013713 0.000000 0.000000 0.000000
# 4 0.000000 0.000000 0.000000 0.123922 0.000000 0.000000
# 5 0.000000 0.000000 0.000000 0.000000 0.052611 0.000000
# 6 0.000000 0.000000 0.000000 0.000000 0.000000 0.048507
#
#
# Mechanical properties :
#
#
# Convention : Reuss Voigt Hill
#
# Bulk Modulus (GPa) = 52.30315 62.09042 57.19679
# Shear Modulus (GPa) = 16.38367 21.48871 18.93619
#
# Velocity S-wave (km/s) = 2.93087 3.35657 3.15091
# Velocity P-wave (km/s) = 6.23505 6.89754 6.57465
#
# Compressibility (1/GPa) = 0.01911931
#
# Stress axis : x y z
#
# Youngs Moduli (GPa) = 46.14984 90.39872 72.92406
#
# Poissons Ratio (x) = -0.00611 0.66041
# Poissons Ratio (y) = -0.00312 0.34082
# Poissons Ratio (z) = 0.41794 0.42249
#
# Static dielectric constant tensor:
#      x y z
#    x 3.437740 0.000000 0.000000 
#    y 0.000000 3.514610 0.000000 
#    z 0.000000 0.000000 3.518600 
# 
# 
# High freq. dielectric constant tensor:
#      x y z
#    x 1.748190 0.000000 0.000000 
#    y 0.000000 1.713360 0.000000 
#    z 0.000000 0.000000 1.736900 
# 
# From -- ./inp_files/67636.got.cif
#   From: 2010.03.12/outbox.cif.g09.slc.cpg/sg65_34_cif.got.tgz:67636.got - 2010.04.10 20:52:16.
