data_PCOD8273508
_publ_section_title
;
Structure prediction by ZEFSAII (Michael W. Deem and Ramdas Pophale) SiO2 
 PCOD8273508
Probable space group: C M M M
;
_chemical_formula_sum "Si O2"
_cell_formula_units_Z 112
_cell_length_a 14.553877
_cell_length_b 15.614089
_cell_length_c 24.402428
_cell_angle_alpha 90.000000
_cell_angle_beta 90.000000
_cell_angle_gamma 90.000000
_cell_volume 5545.342703
_symmetry_space_group_name_H-M "C M M M"
_symmetry_group_IT_number 65
_symmetry_cell_setting 'orthorhombic'
loop_
_space_group_symop_operation_xyz
x,y,z
-x,-y,z
x,-y,-z
-x,y,-z
-x,-y,-z
x,y,-z
-x,y,z
x,-y,z
1/2+x,1/2+y,z
1/2-x,1/2-y,z
1/2+x,1/2-y,-z
1/2-x,1/2+y,-z
1/2-x,1/2-y,-z
1/2+x,1/2+y,-z
1/2-x,1/2+y,z
1/2+x,1/2-y,z
loop_
_atom_site_type_symbol
_atom_site_label
_atom_site_fract_x
_atom_site_fract_y
_atom_site_fract_z
Si Si1 0.105095 0.721936 0.146031
Si Si2 0.398145 0.404920 0.898927
Si Si3 0.794310 0.593102 0.356856
Si Si4 0.600246 0.350026 0.349678
Si Si5 0.397457 0.790354 0.437525
Si Si6 0.894624 0.303439 0.269181
Si Si7 0.296511 0.903007 0.938770
O O1 0.115390 0.825085 0.142231
O O2 0.139794 0.699468 0.206700
O O3 0.164879 0.668383 0.102535
O O4 0.000000 0.694160 0.136998
O O5 0.500000 0.396423 0.926917
O O6 0.392506 0.500000 0.869915
O O7 0.314751 0.398154 0.941916
O O8 0.835793 0.500000 0.366857
O O9 0.683966 0.584103 0.351750
O O10 0.823051 0.649548 0.408668
O O11 0.832887 0.627590 0.299759
O O12 0.500000 0.395377 0.343249
O O13 0.601715 0.299812 0.407001
O O14 0.617553 0.287831 0.298154
O O15 0.366955 0.776188 0.500000
O O16 0.500000 0.831182 0.433777
O O17 0.000000 0.333015 0.272768
O O18 0.326712 0.000000 0.921369
O O19 0.332903 0.882699 0.000000
#
# Coordination Sequence:
#
# PCOD8273508 Si02
#       7
#    16  16  16  16  16  16  16
#     4  10  21  37  59  84 109 142 181 222 274 332
#     4   9  19  36  57  82 110 138 174 223 276 329
#     4  11  22  33  51  81 113 143 174 216 270 321
#     4   9  19  36  55  75 103 140 181 221 259 308
#     4   9  18  34  57  81 104 137 182 227 269 315
#     4   9  19  37  58  78 102 135 177 221 263 313
#     4  10  22  38  55  79 111 146 185 226 267 318
#
# _framework density 20.197127999999999
#
# number of rings (size 3 to 8) (size 9 to 14) (size 15 to 20)
#    0.000    2.429    0.000    3.429    0.000    7.714 
#    0.000    7.857    0.000    2.571    0.000    3.000 
#    0.000    0.000    0.000    0.000    0.000    0.000 
#
# Total GULP energy -693831.064259 kJ/mol
# GULP energy per Si atom -12389.840433 kJ/mol
# Density = 2.015116 g / cm^3
# Si number density = 20.197128 Si / 1000 Ang^3
#
#
#
# Elastic Constant Matrix: (Units=GPa)
#
#
# Indices 1 2 3 4 5 6 
#
# 1 96.9164 29.0172 34.6110 0.0000 0.0000 0.0000
# 2 29.0172 91.8347 44.7016 0.0000 0.0000 0.0000
# 3 34.6110 44.7016 139.6899 0.0000 0.0000 0.0000
# 4 0.0000 0.0000 0.0000 1.2202 0.0000 0.0000
# 5 0.0000 0.0000 0.0000 0.0000 37.4141 0.0000
# 6 0.0000 0.0000 0.0000 0.0000 0.0000 15.0785
#
#
#
# Elastic Compliance Matrix: (Units=1/GPa)
#
#
# Indices 1 2 3 4 5 6 
#
# 1 0.011878 -0.002749 -0.002063 0.000000 0.000000 0.000000
# 2 -0.002749 0.013534 -0.003650 0.000000 0.000000 0.000000
# 3 -0.002063 -0.003650 0.008838 0.000000 0.000000 0.000000
# 4 0.000000 0.000000 0.000000 0.819542 0.000000 0.000000
# 5 0.000000 0.000000 0.000000 0.000000 0.026728 0.000000
# 6 0.000000 0.000000 0.000000 0.000000 0.000000 0.066319
#
#
# Mechanical properties :
#
#
# Convention : Reuss Voigt Hill
#
# Bulk Modulus (GPa) = 57.71658 60.56674 59.14166
# Shear Modulus (GPa) = 5.15709 25.41665 15.28687
#
# Velocity S-wave (km/s) = 1.59966 3.55128 2.75414
# Velocity P-wave (km/s) = 5.66132 6.84605 6.28168
#
# Compressibility (1/GPa) = 0.01732604
#
# Stress axis : x y z
#
# Youngs Moduli (GPa) = 84.18890 73.88606 113.14787
#
# Poissons Ratio (x) = 0.20309 0.23347
# Poissons Ratio (y) = 0.23141 0.41299
# Poissons Ratio (z) = 0.17372 0.26969
#
# Static dielectric constant tensor:
#      x y z
#    x 3.956630 0.000000 0.000000 
#    y 0.000000 3.489750 0.000000 
#    z 0.000000 0.000000 3.492060 
# 
# 
# High freq. dielectric constant tensor:
#      x y z
#    x 1.806050 0.000000 0.000000 
#    y 0.000000 1.768990 0.000000 
#    z 0.000000 0.000000 1.771260 
# 
# From -- ./inp_files/69991.got.cif
#   From: 2010.03.12/outbox.cif.g09.slc.cpg/sg65_35_cif.got.tgz:69991.got - 2010.04.10 20:52:16.
