data_PCOD8273806
_publ_section_title
;
Structure prediction by ZEFSAII (Michael W. Deem and Ramdas Pophale) SiO2 
 PCOD8273806
Probable space group: C M M M
;
_chemical_formula_sum "Si O2"
_cell_formula_units_Z 88
_cell_length_a 30.478219
_cell_length_b 16.737833
_cell_length_c 8.086588
_cell_angle_alpha 90.000000
_cell_angle_beta 90.000000
_cell_angle_gamma 90.000000
_cell_volume 4125.286663
_symmetry_space_group_name_H-M "C M M M"
_symmetry_group_IT_number 65
_symmetry_cell_setting 'orthorhombic'
loop_
_space_group_symop_operation_xyz
x,y,z
-x,-y,z
x,-y,-z
-x,y,-z
-x,-y,-z
x,y,-z
-x,y,z
x,-y,z
1/2+x,1/2+y,z
1/2-x,1/2-y,z
1/2+x,1/2-y,-z
1/2-x,1/2+y,-z
1/2-x,1/2-y,-z
1/2+x,1/2+y,-z
1/2-x,1/2+y,z
1/2+x,1/2-y,z
loop_
_atom_site_type_symbol
_atom_site_label
_atom_site_fract_x
_atom_site_fract_y
_atom_site_fract_z
Si Si1 0.775602 0.328264 0.309501
Si Si2 0.547900 0.090206 0.803382
Si Si3 0.091741 0.849251 0.307096
Si Si4 0.757059 0.000000 0.697152
Si Si5 0.500000 0.407383 0.804265
Si Si6 0.871807 0.309395 0.811230
Si Si7 0.144457 0.000000 0.304191
O O1 0.761804 0.330775 0.500000
O O2 0.750000 0.250000 0.230683
O O3 0.763615 0.416201 0.232649
O O4 0.827544 0.317517 0.292726
O O5 0.500000 0.124128 0.744702
O O6 0.589394 0.137342 0.728951
O O7 0.552289 0.000000 0.741169
O O8 0.549951 0.095467 0.000000
O O9 0.100517 0.832044 0.500000
O O10 0.040783 0.862606 0.275874
O O11 0.110171 0.779414 0.194452
O O12 0.118599 0.924035 0.237845
O O13 0.806475 0.000000 0.764021
O O14 0.753040 0.000000 0.500000
O O15 0.500000 0.500000 0.751176
O O16 0.500000 0.397148 0.000000
O O17 0.861857 0.334085 0.000000
O O18 0.144617 0.000000 0.500000
#
# Coordination Sequence:
#
# PCOD8273806 Si02
#       7
#    16  16  16   8   8  16   8
#     4  10  21  39  61  84 116 156 201 253 311 374
#     4   8  16  33  55  78 108 149 192 230 278 348
#     4  11  22  38  60  86 119 160 206 247 293 354
#     4   9  18  34  60  88 110 147 200 251 308 368
#     4  11  23  39  59  87 126 163 202 253 305 354
#     4  11  23  36  58  89 120 153 195 247 305 361
#     4   9  18  35  60  85 110 147 199 246 287 351
#
# _framework density 21.331851
#
# number of rings (size 3 to 8) (size 9 to 14) (size 15 to 20)
#    0.000    2.091    0.909    3.000    2.545    3.636 
#    0.000    0.000    0.000    2.182    0.000    5.091 
#    0.000    0.000    0.000    0.000    0.000    0.000 
#
# Total GULP energy -545359.458673 kJ/mol
# GULP energy per Si atom -12394.533152 kJ/mol
# Density = 2.128330 g / cm^3
# Si number density = 21.331851 Si / 1000 Ang^3
#
#
#
# Elastic Constant Matrix: (Units=GPa)
#
#
# Indices 1 2 3 4 5 6 
#
# 1 186.3668 84.8130 -4.5371 0.0000 0.0000 0.0000
# 2 84.8130 157.4236 1.2152 0.0000 0.0000 0.0000
# 3 -4.5371 1.2152 22.9923 0.0000 0.0000 0.0000
# 4 0.0000 0.0000 0.0000 18.7169 0.0000 0.0000
# 5 0.0000 0.0000 0.0000 0.0000 16.3688 0.0000
# 6 0.0000 0.0000 0.0000 0.0000 0.0000 81.4168
#
#
#
# Elastic Compliance Matrix: (Units=1/GPa)
#
#
# Indices 1 2 3 4 5 6 
#
# 1 0.007168 -0.003875 0.001619 0.000000 0.000000 0.000000
# 2 -0.003875 0.008449 -0.001211 0.000000 0.000000 0.000000
# 3 0.001619 -0.001211 0.043876 0.000000 0.000000 0.000000
# 4 0.000000 0.000000 0.000000 0.053428 0.000000 0.000000
# 5 0.000000 0.000000 0.000000 0.000000 0.061092 0.000000
# 6 0.000000 0.000000 0.000000 0.000000 0.000000 0.012282
#
#
# Mechanical properties :
#
#
# Convention : Reuss Voigt Hill
#
# Bulk Modulus (GPa) = 19.02544 58.86275 38.94409
# Shear Modulus (GPa) = 23.72493 42.31994 33.02244
#
# Velocity S-wave (km/s) = 3.33856 4.45891 3.93878
# Velocity P-wave (km/s) = 4.87847 7.35955 6.24349
#
# Compressibility (1/GPa) = 0.05256120
#
# Stress axis : x y z
#
# Youngs Moduli (GPa) = 139.50044 118.35617 22.79133
#
# Poissons Ratio (x) = 0.45858 -0.03691
# Poissons Ratio (y) = 0.54050 0.02760
# Poissons Ratio (z) = -0.22590 0.14334
#
# Static dielectric constant tensor:
#      x y z
#    x 4.090900 0.000000 0.000000 
#    y 0.000000 4.162680 0.000000 
#    z 0.000000 0.000000 3.300370 
# 
# 
# High freq. dielectric constant tensor:
#      x y z
#    x 1.852540 0.000000 0.000000 
#    y 0.000000 1.848030 0.000000 
#    z 0.000000 0.000000 1.792240 
# 
# From -- ./inp_files/18403.got.cif
#   From: 2010.03.12/outbox.cif.g09.slc.cpg/sg65_10_cif.got.tgz:18403.got - 2010.04.10 20:52:16.
