data_PCOD8273357
_publ_section_title
;
Structure prediction by ZEFSAII (Michael W. Deem and Ramdas Pophale) SiO2 
 PCOD8273357
Probable space group: C M M M
;
_chemical_formula_sum "Si O2"
_cell_formula_units_Z 72
_cell_length_a 15.239690
_cell_length_b 8.965859
_cell_length_c 26.293153
_cell_angle_alpha 90.000000
_cell_angle_beta 90.000000
_cell_angle_gamma 90.000000
_cell_volume 3592.615226
_symmetry_space_group_name_H-M "C M M M"
_symmetry_group_IT_number 65
_symmetry_cell_setting 'orthorhombic'
loop_
_space_group_symop_operation_xyz
x,y,z
-x,-y,z
x,-y,-z
-x,y,-z
-x,-y,-z
x,y,-z
-x,y,z
x,-y,z
1/2+x,1/2+y,z
1/2-x,1/2-y,z
1/2+x,1/2-y,-z
1/2-x,1/2+y,-z
1/2-x,1/2-y,-z
1/2+x,1/2+y,-z
1/2-x,1/2+y,z
1/2+x,1/2-y,z
loop_
_atom_site_type_symbol
_atom_site_label
_atom_site_fract_x
_atom_site_fract_y
_atom_site_fract_z
Si Si1 0.343348 0.826325 0.056829
Si Si2 0.164122 0.323979 0.248450
Si Si3 0.000000 0.823772 0.424219
Si Si4 0.000000 0.675035 0.315620
Si Si5 0.901759 0.832578 0.847832
Si Si6 0.652111 0.323606 0.500000
O O1 0.250000 0.750000 0.061849
O O2 0.405776 0.747204 0.097406
O O3 0.334820 0.000000 0.069738
O O4 0.381954 0.803012 0.000000
O O5 0.173750 0.500000 0.245384
O O6 0.250000 0.250000 0.273469
O O7 0.155840 0.261440 0.191385
O O8 0.084161 0.274213 0.283736
O O9 0.909020 0.774080 0.452071
O O10 0.000000 0.756153 0.368851
O O11 0.000000 0.000000 0.421310
O O12 0.000000 0.500000 0.325618
O O13 0.000000 0.837770 0.826524
O O14 0.863225 0.000000 0.852693
O O15 0.668193 0.500000 0.500000
O O16 0.750000 0.250000 0.500000
#
# Coordination Sequence:
#
# PCOD8273357 Si02
#       6
#    16  16   8   8  16   8
#     4  10  21  37  57  80 108 143 183 230 287 351
#     4  11  23  41  62  86 117 155 198 247 299 357
#     4   9  20  38  60  86 124 165 203 249 300 351
#     4  10  23  41  61  88 123 159 202 251 300 352
#     4  11  23  38  58  83 111 146 189 238 292 353
#     4   9  19  37  60  90 124 165 209 249 296 350
#
# _framework density 20.041111000000001
#
# number of rings (size 3 to 8) (size 9 to 14) (size 15 to 20)
#    0.000    1.778    1.111    3.333    0.000    6.667 
#    0.000    7.778    0.000    0.000    0.000    0.000 
#    0.000    0.000    0.000    0.000    0.000    0.000 
#
# Total GULP energy -446323.268134 kJ/mol
# GULP energy per Si atom -12397.868559 kJ/mol
# Density = 1.999550 g / cm^3
# Si number density = 20.041111 Si / 1000 Ang^3
#
#
#
# Elastic Constant Matrix: (Units=GPa)
#
#
# Indices 1 2 3 4 5 6 
#
# 1 146.4124 56.2142 61.5681 0.0000 0.0000 0.0000
# 2 56.2142 107.4592 65.0000 0.0000 0.0000 0.0000
# 3 61.5681 65.0000 137.9548 0.0000 0.0000 0.0000
# 4 0.0000 0.0000 0.0000 38.4489 0.0000 0.0000
# 5 0.0000 0.0000 0.0000 0.0000 -1.9656 0.0000
# 6 0.0000 0.0000 0.0000 0.0000 0.0000 34.2115
#
#
#
# Elastic Compliance Matrix: (Units=1/GPa)
#
#
# Indices 1 2 3 4 5 6 
#
# 1 0.009149 -0.003239 -0.002557 0.000000 0.000000 0.000000
# 2 -0.003239 0.014162 -0.005227 0.000000 0.000000 0.000000
# 3 -0.002557 -0.005227 0.010853 0.000000 0.000000 0.000000
# 4 0.000000 0.000000 0.000000 0.026009 0.000000 0.000000
# 5 0.000000 0.000000 0.000000 0.000000 -0.508751 0.000000
# 6 0.000000 0.000000 0.000000 0.000000 0.000000 0.029230
#
#
# Mechanical properties :
#
#
# Convention : Reuss Voigt Hill
#
# Bulk Modulus (GPa) = 82.52701 84.15455 83.34078
# Shear Modulus (GPa) = -12.71414 28.07524 7.68055
#
# Velocity S-wave (km/s) = -2.52147 3.74690 1.95978
# Velocity P-wave (km/s) = 5.72636 7.79751 6.84077
#
# Compressibility (1/GPa) = 0.01211724
#
# Stress axis : x y z
#
# Youngs Moduli (GPa) = 109.30220 70.61032 92.14346
#
# Poissons Ratio (x) = 0.22874 0.23559
# Poissons Ratio (y) = 0.35408 0.48164
# Poissons Ratio (z) = 0.27946 0.36908
#
# Static dielectric constant tensor:
#      x y z
#    x 3.722190 0.000000 0.000000 
#    y 0.000000 3.655710 0.000000 
#    z 0.000000 0.000000 3.318950 
# 
# 
# High freq. dielectric constant tensor:
#      x y z
#    x 1.788590 0.000000 0.000000 
#    y 0.000000 1.787380 0.000000 
#    z 0.000000 0.000000 1.776960 
# 
# From -- ./inp_files/72619.got.cif
#   From: 2010.03.12/outbox.cif.g09.slc.cpg/sg65_37_cif.got.tgz:72619.got - 2010.04.10 20:52:16.
