data_PCOD8273328
_publ_section_title
;
Structure prediction by ZEFSAII (Michael W. Deem and Ramdas Pophale) SiO2 
 PCOD8273328
Probable space group: C M M M
;
_chemical_formula_sum "Si O2"
_cell_formula_units_Z 104
_cell_length_a 28.174474
_cell_length_b 8.894712
_cell_length_c 22.734668
_cell_angle_alpha 90.000000
_cell_angle_beta 90.000000
_cell_angle_gamma 90.000000
_cell_volume 5697.394920
_symmetry_space_group_name_H-M "C M M M"
_symmetry_group_IT_number 65
_symmetry_cell_setting 'orthorhombic'
loop_
_space_group_symop_operation_xyz
x,y,z
-x,-y,z
x,-y,-z
-x,y,-z
-x,-y,-z
x,y,-z
-x,y,z
x,-y,z
1/2+x,1/2+y,z
1/2-x,1/2-y,z
1/2+x,1/2-y,-z
1/2-x,1/2+y,-z
1/2-x,1/2-y,-z
1/2+x,1/2+y,-z
1/2-x,1/2+y,z
1/2+x,1/2-y,z
loop_
_atom_site_type_symbol
_atom_site_label
_atom_site_fract_x
_atom_site_fract_y
_atom_site_fract_z
Si Si1 0.701087 0.175770 0.567929
Si Si2 0.143803 0.823939 0.893503
Si Si3 0.553893 0.173017 0.283851
Si Si4 0.699394 0.675888 0.223816
Si Si5 0.640893 0.677143 0.336149
Si Si6 0.446286 0.825286 0.851784
Si Si7 0.698359 0.821671 0.000000
O O1 0.691348 0.213513 0.500000
O O2 0.750000 0.250000 0.589605
O O3 0.657679 0.243869 0.604262
O O4 0.705072 0.000000 0.579706
O O5 0.167362 0.780533 0.831655
O O6 0.088757 0.774994 0.891270
O O7 0.170230 0.729886 0.942831
O O8 0.147494 0.000000 0.907935
O O9 0.500000 0.197945 0.304859
O O10 0.586712 0.276822 0.324326
O O11 0.559217 0.221794 0.216131
O O12 0.568852 0.000000 0.291644
O O13 0.707379 0.500000 0.227707
O O14 0.750000 0.750000 0.216703
O O15 0.673387 0.735427 0.282277
O O16 0.644093 0.500000 0.344141
O O17 0.500000 0.793190 0.872939
O O18 0.433741 0.000000 0.860120
O O19 0.750000 0.750000 0.000000
O O20 0.703578 0.000000 0.000000
#
# Coordination Sequence:
#
# PCOD8273328 Si02
#       7
#    16  16  16  16  16  16   8
#     4  10  21  37  56  79 109 148 191 232 276 328
#     4  11  22  39  59  83 113 147 187 229 278 332
#     4   9  18  33  54  81 113 149 187 225 273 332
#     4  10  22  35  50  77 110 142 177 221 272 326
#     4  11  21  34  53  82 114 146 185 227 278 331
#     4   9  18  34  57  85 115 148 185 226 276 332
#     4  12  26  44  63  84 109 146 192 233 277 331
#
# _framework density 18.253957
#
# number of rings (size 3 to 8) (size 9 to 14) (size 15 to 20)
#    0.000    1.846    1.538    3.923    0.000    6.462 
#    0.000    1.923    0.000    2.769    0.000    3.231 
#    0.000    0.000    0.000    0.000    0.000    0.000 
#
# Total GULP energy -645020.929774 kJ/mol
# GULP energy per Si atom -12404.248650 kJ/mol
# Density = 1.821241 g / cm^3
# Si number density = 18.253957 Si / 1000 Ang^3
#
#
#
# Elastic Constant Matrix: (Units=GPa)
#
#
# Indices 1 2 3 4 5 6 
#
# 1 126.0068 51.9386 47.7641 0.0000 0.0000 0.0000
# 2 51.9386 84.1462 49.3368 0.0000 0.0000 0.0000
# 3 47.7641 49.3368 81.3154 0.0000 0.0000 0.0000
# 4 0.0000 0.0000 0.0000 24.6326 0.0000 0.0000
# 5 0.0000 0.0000 0.0000 0.0000 30.3760 0.0000
# 6 0.0000 0.0000 0.0000 0.0000 0.0000 38.8349
#
#
#
# Elastic Compliance Matrix: (Units=1/GPa)
#
#
# Indices 1 2 3 4 5 6 
#
# 1 0.011334 -0.004800 -0.003745 0.000000 0.000000 0.000000
# 2 -0.004800 0.020479 -0.009606 0.000000 0.000000 0.000000
# 3 -0.003745 -0.009606 0.020326 0.000000 0.000000 0.000000
# 4 0.000000 0.000000 0.000000 0.040597 0.000000 0.000000
# 5 0.000000 0.000000 0.000000 0.000000 0.032921 0.000000
# 6 0.000000 0.000000 0.000000 0.000000 0.000000 0.025750
#
#
# Mechanical properties :
#
#
# Convention : Reuss Voigt Hill
#
# Bulk Modulus (GPa) = 63.14370 65.50525 64.32448
# Shear Modulus (GPa) = 25.90837 28.26395 27.08616
#
# Velocity S-wave (km/s) = 3.77149 3.93921 3.85626
# Velocity P-wave (km/s) = 7.32341 7.52683 7.42582
#
# Compressibility (1/GPa) = 0.01583689
#
# Stress axis : x y z
#
# Youngs Moduli (GPa) = 88.22761 48.83066 49.19823
#
# Poissons Ratio (x) = 0.23439 0.18427
# Poissons Ratio (y) = 0.42350 0.47259
# Poissons Ratio (z) = 0.33044 0.46906
#
# Static dielectric constant tensor:
#      x y z
#    x 3.404310 0.000000 0.000000 
#    y 0.000000 3.353700 0.000000 
#    z 0.000000 0.000000 3.279360 
# 
# 
# High freq. dielectric constant tensor:
#      x y z
#    x 1.714250 0.000000 0.000000 
#    y 0.000000 1.712350 0.000000 
#    z 0.000000 0.000000 1.692630 
# 
# From -- ./inp_files/60410.got.cif
#   From: 2010.03.12/outbox.cif.g09.slc.cpg/sg65_31_cif.got.tgz:60410.got - 2010.04.10 20:52:16.
