data_PCOD8273194
_publ_section_title
;
Structure prediction by ZEFSAII (Michael W. Deem and Ramdas Pophale) SiO2 
 PCOD8273194
Probable space group: C M M M
;
_chemical_formula_sum "Si O2"
_cell_formula_units_Z 88
_cell_length_a 8.594260
_cell_length_b 25.345553
_cell_length_c 20.949617
_cell_angle_alpha 90.000000
_cell_angle_beta 90.000000
_cell_angle_gamma 90.000000
_cell_volume 4563.376978
_symmetry_space_group_name_H-M "C M M M"
_symmetry_group_IT_number 65
_symmetry_cell_setting 'orthorhombic'
loop_
_space_group_symop_operation_xyz
x,y,z
-x,-y,z
x,-y,-z
-x,y,-z
-x,-y,-z
x,y,-z
-x,y,z
x,-y,z
1/2+x,1/2+y,z
1/2-x,1/2-y,z
1/2+x,1/2-y,-z
1/2-x,1/2+y,-z
1/2-x,1/2-y,-z
1/2+x,1/2+y,-z
1/2-x,1/2+y,z
1/2+x,1/2-y,z
loop_
_atom_site_type_symbol
_atom_site_label
_atom_site_fract_x
_atom_site_fract_y
_atom_site_fract_z
Si Si1 0.684270 0.939052 0.000000
Si Si2 0.184893 0.901219 0.131425
Si Si3 0.684153 0.192599 0.790685
Si Si4 0.682232 0.000000 0.350894
Si Si5 0.319085 0.895856 0.574010
Si Si6 0.682450 0.693645 0.655553
Si Si7 0.316720 0.500000 0.788467
O O1 0.755776 0.909964 0.060440
O O2 0.500000 0.933239 0.000000
O O3 0.736457 0.000000 0.000000
O O4 0.254575 0.846515 0.155556
O O5 0.000000 0.898438 0.132461
O O6 0.249829 0.948188 0.176411
O O7 0.500000 0.194284 0.791184
O O8 0.750000 0.250000 0.806630
O O9 0.741282 0.173277 0.721230
O O10 0.733369 0.051030 0.390662
O O11 0.500000 0.000000 0.337235
O O12 0.770668 0.000000 0.284652
O O13 0.281577 0.903457 0.500000
O O14 0.500000 0.883665 0.585758
O O15 0.218146 0.847475 0.599804
O O16 0.500000 0.699252 0.666476
O O17 0.750000 0.750000 0.634734
O O18 0.500000 0.500000 0.794381
#
# Coordination Sequence:
#
# PCOD8273194 Si02
#       7
#     8  16  16   8  16  16   8
#     4  11  23  39  60  89 124 161 203 244 288 342
#     4  11  22  39  61  88 121 160 199 240 292 345
#     4  11  22  39  62  89 119 154 195 242 293 347
#     4  10  21  36  57  83 112 149 191 235 286 343
#     4  10  21  38  58  81 112 151 193 238 290 350
#     4  11  22  38  60  86 115 149 191 240 294 348
#     4  10  22  36  56  85 117 151 190 237 290 344
#
# _framework density 19.283964999999998
#
# number of rings (size 3 to 8) (size 9 to 14) (size 15 to 20)
#    0.000    1.364    0.909    6.545    0.000    7.273 
#    0.000    0.455    0.000    1.636    0.000    0.000 
#    0.000    0.000    0.000    0.000    0.000    0.000 
#
# Total GULP energy -545874.776840 kJ/mol
# GULP energy per Si atom -12406.244928 kJ/mol
# Density = 1.924007 g / cm^3
# Si number density = 19.283965 Si / 1000 Ang^3
#
#
#
# Elastic Constant Matrix: (Units=GPa)
#
#
# Indices 1 2 3 4 5 6 
#
# 1 103.2270 43.4524 45.4761 0.0000 0.0000 0.0000
# 2 43.4524 116.5371 74.2858 0.0000 0.0000 0.0000
# 3 45.4761 74.2858 138.7052 0.0000 0.0000 0.0000
# 4 0.0000 0.0000 0.0000 -5.2079 0.0000 0.0000
# 5 0.0000 0.0000 0.0000 0.0000 35.0445 0.0000
# 6 0.0000 0.0000 0.0000 0.0000 0.0000 29.3381
#
#
#
# Elastic Compliance Matrix: (Units=1/GPa)
#
#
# Indices 1 2 3 4 5 6 
#
# 1 0.011967 -0.002977 -0.002329 0.000000 0.000000 0.000000
# 2 -0.002977 0.013770 -0.006398 0.000000 0.000000 0.000000
# 3 -0.002329 -0.006398 0.011400 0.000000 0.000000 0.000000
# 4 0.000000 0.000000 0.000000 -0.192016 0.000000 0.000000
# 5 0.000000 0.000000 0.000000 0.000000 0.028535 0.000000
# 6 0.000000 0.000000 0.000000 0.000000 0.000000 0.034085
#
#
# Mechanical properties :
#
#
# Convention : Reuss Voigt Hill
#
# Bulk Modulus (GPa) = 72.84955 76.09979 74.47467
# Shear Modulus (GPa) = -77.79160 24.85193 -26.46984
#
# Velocity S-wave (km/s) = -6.35827 3.59379 -3.70893
# Velocity P-wave (km/s) = 4.00552 7.53451 4.51246
#
# Compressibility (1/GPa) = 0.01372692
#
# Stress axis : x y z
#
# Youngs Moduli (GPa) = 83.56558 72.62279 87.72051
#
# Poissons Ratio (x) = 0.21623 0.20428
# Poissons Ratio (y) = 0.24881 0.56127
# Poissons Ratio (z) = 0.19461 0.46467
#
# Static dielectric constant tensor:
#      x y z
#    x 3.536360 0.000000 0.000000 
#    y 0.000000 3.962630 0.000000 
#    z 0.000000 0.000000 3.499260 
# 
# 
# High freq. dielectric constant tensor:
#      x y z
#    x 1.756550 0.000000 0.000000 
#    y 0.000000 1.760300 0.000000 
#    z 0.000000 0.000000 1.753620 
# 
# From -- ./inp_files/59888.got.cif
#   From: 2010.03.12/outbox.cif.g09.slc.cpg/sg65_30_cif.got.tgz:59888.got - 2010.04.10 20:52:16.
