data_PCOD8273944
_publ_section_title
;
Structure prediction by ZEFSAII (Michael W. Deem and Ramdas Pophale) SiO2 
 PCOD8273944
Probable space group: C M M M
;
_chemical_formula_sum "Si O2"
_cell_formula_units_Z 52
_cell_length_a 7.645130
_cell_length_b 15.042109
_cell_length_c 24.009820
_cell_angle_alpha 90.000000
_cell_angle_beta 90.000000
_cell_angle_gamma 90.000000
_cell_volume 2761.102380
_symmetry_space_group_name_H-M "C M M M"
_symmetry_group_IT_number 65
_symmetry_cell_setting 'orthorhombic'
loop_
_space_group_symop_operation_xyz
x,y,z
-x,-y,z
x,-y,-z
-x,y,-z
-x,-y,-z
x,y,-z
-x,y,z
x,-y,z
1/2+x,1/2+y,z
1/2-x,1/2-y,z
1/2+x,1/2-y,-z
1/2-x,1/2+y,-z
1/2-x,1/2-y,-z
1/2+x,1/2+y,-z
1/2-x,1/2+y,z
1/2+x,1/2-y,z
loop_
_atom_site_type_symbol
_atom_site_label
_atom_site_fract_x
_atom_site_fract_y
_atom_site_fract_z
Si Si1 0.706669 0.000000 0.436981
Si Si2 0.796498 0.145093 0.000000
Si Si3 0.500000 0.097541 0.715115
Si Si4 0.291281 0.500000 0.087414
Si Si5 0.500000 0.000000 0.177883
Si Si6 0.197602 0.843416 0.641557
O O1 0.781238 0.913990 0.406893
O O2 0.500000 0.000000 0.435067
O O3 0.776691 0.000000 0.500000
O O4 0.750000 0.250000 0.000000
O O5 0.732328 0.089852 0.945821
O O6 0.000000 0.136516 0.000000
O O7 0.676603 0.145002 0.695060
O O8 0.500000 0.000000 0.686184
O O9 0.500000 0.087853 0.782415
O O10 0.500000 0.500000 0.100202
O O11 0.179362 0.500000 0.143441
O O12 0.250000 0.750000 0.613645
O O13 0.000000 0.844840 0.664438
#
# Coordination Sequence:
#
# PCOD8273944 Si02
#       6
#     8   8   8   8   4  16
#     4  11  22  39  60  90 125 151 188 243 299 355
#     4   9  19  34  59  87 118 155 203 233 274 353
#     4  10  22  42  59  90 112 151 210 239 292 348
#     4   9  20  38  57  87 120 160 190 235 295 339
#     4  10  22  37  66  80 123 150 196 250 294 340
#     4  12  22  39  66  85 115 157 199 243 292 356
#
# _framework density 18.833057
#
# number of rings (size 3 to 8) (size 9 to 14) (size 15 to 20)
#    0.462    1.077    4.615    1.385    2.154    3.692 
#    0.000    1.538    0.000    0.000    0.000    0.000 
#    0.000    0.000    0.000    0.000    0.000    0.000 
#
# Total GULP energy -322201.157628 kJ/mol
# GULP energy per Si atom -12392.352216 kJ/mol
# Density = 1.879019 g / cm^3
# Si number density = 18.833057 Si / 1000 Ang^3
#
#
#
# Elastic Constant Matrix: (Units=GPa)
#
#
# Indices 1 2 3 4 5 6 
#
# 1 146.6120 38.8903 64.2631 0.0000 0.0000 0.0000
# 2 38.8903 155.9744 60.0658 0.0000 0.0000 0.0000
# 3 64.2631 60.0658 141.1534 0.0000 0.0000 0.0000
# 4 0.0000 0.0000 0.0000 11.8852 0.0000 0.0000
# 5 0.0000 0.0000 0.0000 0.0000 30.8771 0.0000
# 6 0.0000 0.0000 0.0000 0.0000 0.0000 30.3064
#
#
#
# Elastic Compliance Matrix: (Units=1/GPa)
#
#
# Indices 1 2 3 4 5 6 
#
# 1 0.008596 -0.000761 -0.003590 0.000000 0.000000 0.000000
# 2 -0.000761 0.007735 -0.002945 0.000000 0.000000 0.000000
# 3 -0.003590 -0.002945 0.009972 0.000000 0.000000 0.000000
# 4 0.000000 0.000000 0.000000 0.084138 0.000000 0.000000
# 5 0.000000 0.000000 0.000000 0.000000 0.032386 0.000000
# 6 0.000000 0.000000 0.000000 0.000000 0.000000 0.032996
#
#
# Mechanical properties :
#
#
# Convention : Reuss Voigt Hill
#
# Bulk Modulus (GPa) = 85.38501 85.57538 85.48020
# Shear Modulus (GPa) = 25.73075 33.31510 29.52292
#
# Velocity S-wave (km/s) = 3.70030 4.21047 3.96360
# Velocity P-wave (km/s) = 7.98076 8.31715 8.15069
#
# Compressibility (1/GPa) = 0.01171166
#
# Stress axis : x y z
#
# Youngs Moduli (GPa) = 116.33291 129.27870 100.28000
#
# Poissons Ratio (x) = 0.09837 0.35998
# Poissons Ratio (y) = 0.08852 0.29534
# Poissons Ratio (z) = 0.41760 0.38075
#
# Static dielectric constant tensor:
#      x y z
#    x 3.538180 0.000000 0.000000 
#    y 0.000000 3.348710 0.000000 
#    z 0.000000 0.000000 3.290210 
# 
# 
# High freq. dielectric constant tensor:
#      x y z
#    x 1.747150 0.000000 0.000000 
#    y 0.000000 1.738750 0.000000 
#    z 0.000000 0.000000 1.707000 
# 
# From -- ./inp_files/58506.got.cif
#   From: 2010.03.12/outbox.cif.g09.slc.cpg/sg65_30_cif.got.tgz:58506.got - 2010.04.10 20:52:16.
