data_PCOD8273966
_publ_section_title
;
Structure prediction by ZEFSAII (Michael W. Deem and Ramdas Pophale) SiO2 
 PCOD8273966
Probable space group: C M M M
;
_chemical_formula_sum "Si O2"
_cell_formula_units_Z 64
_cell_length_a 14.335429
_cell_length_b 11.290298
_cell_length_c 18.527482
_cell_angle_alpha 90.000000
_cell_angle_beta 90.000000
_cell_angle_gamma 90.000000
_cell_volume 2998.696406
_symmetry_space_group_name_H-M "C M M M"
_symmetry_group_IT_number 65
_symmetry_cell_setting 'orthorhombic'
loop_
_space_group_symop_operation_xyz
x,y,z
-x,-y,z
x,-y,-z
-x,y,-z
-x,-y,-z
x,y,-z
-x,y,z
x,-y,z
1/2+x,1/2+y,z
1/2-x,1/2-y,z
1/2+x,1/2-y,-z
1/2-x,1/2+y,-z
1/2-x,1/2-y,-z
1/2+x,1/2+y,-z
1/2-x,1/2+y,z
1/2+x,1/2-y,z
loop_
_atom_site_type_symbol
_atom_site_label
_atom_site_fract_x
_atom_site_fract_y
_atom_site_fract_z
Si Si1 0.500000 0.278499 0.418597
Si Si2 0.000000 0.138785 0.918257
Si Si3 0.000000 0.638576 0.720028
Si Si4 0.854026 0.277683 0.829827
Si Si5 0.108649 0.500000 0.916343
Si Si6 0.799245 0.868623 0.583755
O O1 0.500000 0.226508 0.500000
O O2 0.500000 0.166922 0.364778
O O3 0.589899 0.359833 0.404768
O O4 0.907269 0.176395 0.874982
O O5 0.000000 0.000000 0.924261
O O6 0.000000 0.193968 0.000000
O O7 0.091457 0.693826 0.756541
O O8 0.000000 0.500000 0.732403
O O9 0.750000 0.250000 0.804756
O O10 0.843206 0.386829 0.883229
O O11 0.000000 0.500000 0.895575
O O12 0.127533 0.500000 0.000000
O O13 0.772247 0.870492 0.500000
O O14 0.750000 0.750000 0.618369
O O15 0.768927 0.000000 0.616066
#
# Coordination Sequence:
#
# PCOD8273966 Si02
#       6
#     8   8   8  16   8  16
#     4  10  22  39  64  95 123 161 213 274 336 399
#     4  10  22  38  57  92 138 171 204 262 314 358
#     4  11  23  45  65  86 125 170 215 268 328 391
#     4  11  23  41  64  90 126 171 216 258 310 382
#     4  11  20  38  68  97 125 167 212 258 308 363
#     4   9  18  35  60  90 126 161 197 253 323 391
#
# _framework density 21.342607000000001
#
# number of rings (size 3 to 8) (size 9 to 14) (size 15 to 20)
#    0.000    1.750    3.750    1.125    1.750    5.750 
#    0.000    7.500    0.000    0.000    0.000    0.000 
#    0.000    0.000    0.000    0.000    0.000    0.000 
#
# Total GULP energy -396610.317973 kJ/mol
# GULP energy per Si atom -12394.072437 kJ/mol
# Density = 2.129403 g / cm^3
# Si number density = 21.342607 Si / 1000 Ang^3
#
#
#
# Elastic Constant Matrix: (Units=GPa)
#
#
# Indices 1 2 3 4 5 6 
#
# 1 146.4367 56.5519 38.4687 0.0000 0.0000 0.0000
# 2 56.5519 142.8007 44.9469 0.0000 0.0000 0.0000
# 3 38.4687 44.9469 98.9265 0.0000 0.0000 0.0000
# 4 0.0000 0.0000 0.0000 26.2843 0.0000 0.0000
# 5 0.0000 0.0000 0.0000 0.0000 12.4405 0.0000
# 6 0.0000 0.0000 0.0000 0.0000 0.0000 15.4464
#
#
#
# Elastic Compliance Matrix: (Units=1/GPa)
#
#
# Indices 1 2 3 4 5 6 
#
# 1 0.008403 -0.002683 -0.002049 0.000000 0.000000 0.000000
# 2 -0.002683 0.009028 -0.003059 0.000000 0.000000 0.000000
# 3 -0.002049 -0.003059 0.012295 0.000000 0.000000 0.000000
# 4 0.000000 0.000000 0.000000 0.038046 0.000000 0.000000
# 5 0.000000 0.000000 0.000000 0.000000 0.080382 0.000000
# 6 0.000000 0.000000 0.000000 0.000000 0.000000 0.064740
#
#
# Mechanical properties :
#
#
# Convention : Reuss Voigt Hill
#
# Bulk Modulus (GPa) = 70.69340 74.23322 72.46331
# Shear Modulus (GPa) = 21.44180 27.38067 24.41123
#
# Velocity S-wave (km/s) = 3.17306 3.58566 3.38565
# Velocity P-wave (km/s) = 6.82784 7.21109 7.02208
#
# Compressibility (1/GPa) = 0.01414559
#
# Stress axis : x y z
#
# Youngs Moduli (GPa) = 119.00206 110.76695 81.33527
#
# Poissons Ratio (x) = 0.29719 0.16663
# Poissons Ratio (y) = 0.31928 0.24876
# Poissons Ratio (z) = 0.24380 0.33878
#
# Static dielectric constant tensor:
#      x y z
#    x 3.569510 0.000000 0.000000 
#    y 0.000000 4.144770 0.000000 
#    z 0.000000 0.000000 3.719230 
# 
# 
# High freq. dielectric constant tensor:
#      x y z
#    x 1.833010 0.000000 0.000000 
#    y 0.000000 1.841500 0.000000 
#    z 0.000000 0.000000 1.823160 
# 
# From -- ./inp_files/52569.got.cif
#   From: 2010.03.12/outbox.cif.g09.slc.cpg/sg65_27_cif.got.tgz:52569.got - 2010.04.10 20:52:16.
