data_PCOD8273022
_publ_section_title
;
Structure prediction by ZEFSAII (Michael W. Deem and Ramdas Pophale) SiO2 
 PCOD8273022
Probable space group: C M M M
;
_chemical_formula_sum "Si O2"
_cell_formula_units_Z 104
_cell_length_a 9.348186
_cell_length_b 25.514503
_cell_length_c 22.905044
_cell_angle_alpha 90.000000
_cell_angle_beta 90.000000
_cell_angle_gamma 90.000000
_cell_volume 5463.180988
_symmetry_space_group_name_H-M "C M M M"
_symmetry_group_IT_number 65
_symmetry_cell_setting 'orthorhombic'
loop_
_space_group_symop_operation_xyz
x,y,z
-x,-y,z
x,-y,-z
-x,y,-z
-x,-y,-z
x,y,-z
-x,y,z
x,-y,z
1/2+x,1/2+y,z
1/2-x,1/2-y,z
1/2+x,1/2-y,-z
1/2-x,1/2+y,-z
1/2-x,1/2-y,-z
1/2+x,1/2+y,-z
1/2-x,1/2+y,z
1/2+x,1/2-y,z
loop_
_atom_site_type_symbol
_atom_site_label
_atom_site_fract_x
_atom_site_fract_y
_atom_site_fract_z
Si Si1 0.335257 0.410792 0.934573
Si Si2 0.667800 0.302791 0.648272
Si Si3 0.667655 0.350834 0.229101
Si Si4 0.837709 0.500000 0.430557
Si Si5 0.663433 0.059071 0.824828
Si Si6 0.834357 0.899229 0.567804
Si Si7 0.662282 0.298955 0.890497
O O1 0.500000 0.423173 0.918124
O O2 0.233990 0.439987 0.889065
O O3 0.309327 0.348447 0.931926
O O4 0.299986 0.430310 0.000000
O O5 0.500000 0.290821 0.646386
O O6 0.750000 0.250000 0.631551
O O7 0.716306 0.322459 0.711936
O O8 0.711617 0.347017 0.601780
O O9 0.500000 0.364785 0.229518
O O10 0.753210 0.405058 0.221600
O O11 0.707973 0.312966 0.175649
O O12 0.833183 0.500000 0.500000
O O13 0.757381 0.448015 0.407694
O O14 0.000000 0.500000 0.406887
O O15 0.500000 0.078413 0.830254
O O16 0.670716 0.000000 0.800859
O O17 0.803009 0.888867 0.500000
O O18 0.000000 0.912836 0.578898
O O19 0.500000 0.280847 0.892224
O O20 0.750000 0.250000 0.914526
#
# Coordination Sequence:
#
# PCOD8273022 Si02
#       7
#    16  16  16   8  16  16  16
#     4   9  19  35  52  72 101 136 173 209 247 303
#     4  10  21  36  55  81 111 144 184 226 271 324
#     4   9  19  36  54  73  99 133 174 215 256 312
#     4   9  17  31  53  79 105 137 181 229 272 315
#     4  10  21  36  54  77 104 131 164 212 267 317
#     4   9  18  34  55  79 111 150 187 224 272 330
#     4   9  17  29  47  70  95 125 162 204 250 295
#
# _framework density 19.036529999999999
#
# number of rings (size 3 to 8) (size 9 to 14) (size 15 to 20)
#    0.000    2.692    0.000    2.077    0.000    7.077 
#    1.385    1.538    0.000    0.000    0.000    0.000 
#    0.000    0.000    0.000    0.000    0.000    0.000 
#
# Total GULP energy -644841.268642 kJ/mol
# GULP energy per Si atom -12400.793628 kJ/mol
# Density = 1.899320 g / cm^3
# Si number density = 19.036530 Si / 1000 Ang^3
#
#
#
# Elastic Constant Matrix: (Units=GPa)
#
#
# Indices 1 2 3 4 5 6 
#
# 1 81.8774 60.8715 23.6170 0.0000 0.0000 0.0000
# 2 60.8715 123.6341 31.5896 0.0000 0.0000 0.0000
# 3 23.6170 31.5896 59.8162 0.0000 0.0000 0.0000
# 4 0.0000 0.0000 0.0000 17.7953 0.0000 0.0000
# 5 0.0000 0.0000 0.0000 0.0000 18.3059 0.0000
# 6 0.0000 0.0000 0.0000 0.0000 0.0000 38.4361
#
#
#
# Elastic Compliance Matrix: (Units=1/GPa)
#
#
# Indices 1 2 3 4 5 6 
#
# 1 0.019743 -0.008934 -0.003077 0.000000 0.000000 0.000000
# 2 -0.008934 0.013393 -0.003546 0.000000 0.000000 0.000000
# 3 -0.003077 -0.003546 0.019805 0.000000 0.000000 0.000000
# 4 0.000000 0.000000 0.000000 0.056195 0.000000 0.000000
# 5 0.000000 0.000000 0.000000 0.000000 0.054627 0.000000
# 6 0.000000 0.000000 0.000000 0.000000 0.000000 0.026017
#
#
# Mechanical properties :
#
#
# Convention : Reuss Voigt Hill
#
# Bulk Modulus (GPa) = 45.81270 55.27597 50.54434
# Shear Modulus (GPa) = 21.91350 24.85744 23.38547
#
# Velocity S-wave (km/s) = 3.39651 3.61747 3.50873
# Velocity P-wave (km/s) = 6.28487 6.82261 6.55925
#
# Compressibility (1/GPa) = 0.02182801
#
# Stress axis : x y z
#
# Youngs Moduli (GPa) = 50.65047 74.66474 50.49204
#
# Poissons Ratio (x) = 0.66709 0.15535
# Poissons Ratio (y) = 0.45253 0.17902
# Poissons Ratio (z) = 0.15584 0.26473
#
# Static dielectric constant tensor:
#      x y z
#    x 3.437840 0.000000 0.000000 
#    y 0.000000 3.415860 0.000000 
#    z 0.000000 0.000000 3.414690 
# 
# 
# High freq. dielectric constant tensor:
#      x y z
#    x 1.734670 0.000000 0.000000 
#    y 0.000000 1.741980 0.000000 
#    z 0.000000 0.000000 1.725290 
# 
# From -- ./inp_files/68218.got.cif
#   From: 2010.03.12/outbox.cif.g09.slc.cpg/sg65_35_cif.got.tgz:68218.got - 2010.04.10 20:52:16.
