data_PCOD8273332
_publ_section_title
;
Structure prediction by ZEFSAII (Michael W. Deem and Ramdas Pophale) SiO2 
 PCOD8273332
Probable space group: C M M M
;
_chemical_formula_sum "Si O2"
_cell_formula_units_Z 88
_cell_length_a 7.744721
_cell_length_b 18.120063
_cell_length_c 29.756682
_cell_angle_alpha 90.000000
_cell_angle_beta 90.000000
_cell_angle_gamma 90.000000
_cell_volume 4175.898982
_symmetry_space_group_name_H-M "C M M M"
_symmetry_group_IT_number 65
_symmetry_cell_setting 'orthorhombic'
loop_
_space_group_symop_operation_xyz
x,y,z
-x,-y,z
x,-y,-z
-x,y,-z
-x,-y,-z
x,y,-z
-x,y,z
x,-y,z
1/2+x,1/2+y,z
1/2-x,1/2-y,z
1/2+x,1/2-y,-z
1/2-x,1/2+y,-z
1/2-x,1/2-y,-z
1/2+x,1/2+y,-z
1/2-x,1/2+y,z
1/2+x,1/2-y,z
loop_
_atom_site_type_symbol
_atom_site_label
_atom_site_fract_x
_atom_site_fract_y
_atom_site_fract_z
Si Si1 0.500000 0.584825 0.553076
Si Si2 0.805909 0.166096 0.222902
Si Si3 0.294488 0.835572 0.393998
Si Si4 0.304404 0.919237 0.693161
Si Si5 0.795281 0.416132 0.864759
Si Si6 0.202921 0.332010 0.049457
O O1 0.500000 0.500000 0.569331
O O2 0.500000 0.590994 0.500000
O O3 0.677426 0.623314 0.569269
O O4 0.750000 0.250000 0.221312
O O5 0.697197 0.119526 0.258421
O O6 0.790241 0.132659 0.173532
O O7 0.000000 0.161393 0.240072
O O8 0.500000 0.847959 0.403248
O O9 0.250000 0.750000 0.394942
O O10 0.228865 0.866860 0.345766
O O11 0.500000 0.933370 0.680150
O O12 0.210963 0.000000 0.694799
O O13 0.735489 0.500000 0.858627
O O14 0.725029 0.388140 0.913089
O O15 0.000000 0.407545 0.861494
O O16 0.250000 0.250000 0.065117
O O17 0.000000 0.340925 0.046197
O O18 0.284290 0.348971 0.000000
#
# Coordination Sequence:
#
# PCOD8273332 Si02
#       6
#     8  16  16  16  16  16
#     4  11  26  46  70 102 139 181 229 283 341 399
#     4  12  25  39  58  84 114 155 199 246 298 358
#     4  11  23  43  69 102 136 179 226 279 333 396
#     4  10  22  40  64  93 127 164 205 254 312 373
#     4  10  21  37  56  79 112 148 185 235 293 352
#     4   9  18  33  54  79 105 139 184 231 282 343
#
# _framework density 21.073307
#
# number of rings (size 3 to 8) (size 9 to 14) (size 15 to 20)
#    0.000    1.545    0.909    3.818    1.273    8.727 
#    0.000    2.727    0.000    0.000    0.000    3.818 
#    0.000    0.000    0.000    0.000    0.000    0.000 
#
# Total GULP energy -545514.047197 kJ/mol
# GULP energy per Si atom -12398.046527 kJ/mol
# Density = 2.102534 g / cm^3
# Si number density = 21.073307 Si / 1000 Ang^3
#
#
#
# Elastic Constant Matrix: (Units=GPa)
#
#
# Indices 1 2 3 4 5 6 
#
# 1 73.6273 33.6148 27.4300 0.0000 0.0000 0.0000
# 2 33.6148 183.8519 73.3542 0.0000 0.0000 0.0000
# 3 27.4300 73.3542 124.6884 0.0000 0.0000 0.0000
# 4 0.0000 0.0000 0.0000 49.9607 0.0000 0.0000
# 5 0.0000 0.0000 0.0000 0.0000 25.3611 0.0000
# 6 0.0000 0.0000 0.0000 0.0000 0.0000 14.1944
#
#
#
# Elastic Compliance Matrix: (Units=1/GPa)
#
#
# Indices 1 2 3 4 5 6 
#
# 1 0.015285 -0.001899 -0.002246 0.000000 0.000000 0.000000
# 2 -0.001899 0.007343 -0.003902 0.000000 0.000000 0.000000
# 3 -0.002246 -0.003902 0.010810 0.000000 0.000000 0.000000
# 4 0.000000 0.000000 0.000000 0.020016 0.000000 0.000000
# 5 0.000000 0.000000 0.000000 0.000000 0.039430 0.000000
# 6 0.000000 0.000000 0.000000 0.000000 0.000000 0.070450
#
#
# Mechanical properties :
#
#
# Convention : Reuss Voigt Hill
#
# Bulk Modulus (GPa) = 57.65332 72.32952 64.99142
# Shear Modulus (GPa) = 26.99638 34.42114 30.70876
#
# Velocity S-wave (km/s) = 3.58309 4.04592 3.82152
# Velocity P-wave (km/s) = 6.67352 7.49822 7.09786
#
# Compressibility (1/GPa) = 0.01734506
#
# Stress axis : x y z
#
# Youngs Moduli (GPa) = 65.42188 136.17832 92.50909
#
# Poissons Ratio (x) = 0.25857 0.20773
# Poissons Ratio (y) = 0.12422 0.36100
# Poissons Ratio (z) = 0.14691 0.53142
#
# Static dielectric constant tensor:
#      x y z
#    x 3.740420 0.000000 0.000000 
#    y 0.000000 4.001130 0.000000 
#    z 0.000000 0.000000 3.912910 
# 
# 
# High freq. dielectric constant tensor:
#      x y z
#    x 1.818860 0.000000 0.000000 
#    y 0.000000 1.837650 0.000000 
#    z 0.000000 0.000000 1.830950 
# 
# From -- ./inp_files/76527.got.cif
#   From: 2010.03.12/outbox.cif.g09.slc.cpg/sg65_39_cif.got.tgz:76527.got - 2010.04.10 20:52:16.
