data_PCOD8273033
_publ_section_title
;
Structure prediction by ZEFSAII (Michael W. Deem and Ramdas Pophale) SiO2 
 PCOD8273033
Probable space group: C M M M
;
_chemical_formula_sum "Si O2"
_cell_formula_units_Z 88
_cell_length_a 9.027848
_cell_length_b 19.400498
_cell_length_c 27.101087
_cell_angle_alpha 90.000000
_cell_angle_beta 90.000000
_cell_angle_gamma 90.000000
_cell_volume 4746.613028
_symmetry_space_group_name_H-M "C M M M"
_symmetry_group_IT_number 65
_symmetry_cell_setting 'orthorhombic'
loop_
_space_group_symop_operation_xyz
x,y,z
-x,-y,z
x,-y,-z
-x,y,-z
-x,-y,-z
x,y,-z
-x,y,z
x,-y,z
1/2+x,1/2+y,z
1/2-x,1/2-y,z
1/2+x,1/2-y,-z
1/2-x,1/2+y,-z
1/2-x,1/2-y,-z
1/2+x,1/2+y,-z
1/2-x,1/2+y,z
1/2+x,1/2-y,z
loop_
_atom_site_type_symbol
_atom_site_label
_atom_site_fract_x
_atom_site_fract_y
_atom_site_fract_z
Si Si1 0.331130 0.580526 0.760953
Si Si2 0.668887 0.580623 0.127330
Si Si3 0.671491 0.819114 0.690450
Si Si4 0.824710 0.918650 0.500000
Si Si5 0.324879 0.178430 0.576527
Si Si6 0.173236 0.319381 0.056195
O O1 0.500000 0.599070 0.747670
O O2 0.302745 0.500000 0.755240
O O3 0.295451 0.603924 0.816798
O O4 0.222731 0.617351 0.723217
O O5 0.500000 0.599452 0.114019
O O6 0.696335 0.500000 0.121499
O O7 0.778672 0.617539 0.090013
O O8 0.500000 0.807140 0.698449
O O9 0.750000 0.750000 0.708931
O O10 0.709439 0.835186 0.633748
O O11 0.750115 0.884888 0.548067
O O12 0.000000 0.904571 0.500000
O O13 0.790164 0.000000 0.500000
O O14 0.500000 0.181759 0.565251
O O15 0.250000 0.250000 0.559157
O O16 0.250000 0.250000 0.075488
O O17 0.000000 0.308507 0.060917
O O18 0.221025 0.335463 0.000000
#
# Coordination Sequence:
#
# PCOD8273033 Si02
#       6
#    16  16  16   8  16  16
#     4   9  19  36  56  78 107 142 177 216 263 313
#     4   9  19  36  56  78 105 139 178 216 259 314
#     4  10  21  36  56  82 109 140 179 220 263 313
#     4  11  24  39  56  81 111 143 180 219 262 315
#     4  10  21  38  59  81 108 142 179 220 265 314
#     4  10  21  36  54  77 105 137 174 217 265 315
#
# _framework density 18.539535000000001
#
# number of rings (size 3 to 8) (size 9 to 14) (size 15 to 20)
#    0.000    2.273    0.000    3.273    0.000    7.273 
#    0.000    7.273    0.000    0.000    0.000    0.000 
#    0.000    0.000    0.000    0.000    0.000    0.000 
#
# Total GULP energy -545733.230436 kJ/mol
# GULP energy per Si atom -12403.027964 kJ/mol
# Density = 1.849734 g / cm^3
# Si number density = 18.539535 Si / 1000 Ang^3
#
#
#
# Elastic Constant Matrix: (Units=GPa)
#
#
# Indices 1 2 3 4 5 6 
#
# 1 97.0367 55.7626 52.7718 0.0000 0.0000 0.0000
# 2 55.7626 95.1993 58.5419 0.0000 0.0000 0.0000
# 3 52.7718 58.5419 93.1272 0.0000 0.0000 0.0000
# 4 0.0000 0.0000 0.0000 37.5825 0.0000 0.0000
# 5 0.0000 0.0000 0.0000 0.0000 35.1950 0.0000
# 6 0.0000 0.0000 0.0000 0.0000 0.0000 39.2340
#
#
#
# Elastic Compliance Matrix: (Units=1/GPa)
#
#
# Indices 1 2 3 4 5 6 
#
# 1 0.017125 -0.006624 -0.005540 0.000000 0.000000 0.000000
# 2 -0.006624 0.019686 -0.008621 0.000000 0.000000 0.000000
# 3 -0.005540 -0.008621 0.019297 0.000000 0.000000 0.000000
# 4 0.000000 0.000000 0.000000 0.026608 0.000000 0.000000
# 5 0.000000 0.000000 0.000000 0.000000 0.028413 0.000000
# 6 0.000000 0.000000 0.000000 0.000000 0.000000 0.025488
#
#
# Mechanical properties :
#
#
# Convention : Reuss Voigt Hill
#
# Bulk Modulus (GPa) = 68.79103 68.83508 68.81305
# Shear Modulus (GPa) = 27.31743 30.28808 28.80275
#
# Velocity S-wave (km/s) = 3.84274 4.04629 3.94583
# Velocity P-wave (km/s) = 7.54152 7.68371 7.61295
#
# Compressibility (1/GPa) = 0.01453678
#
# Stress axis : x y z
#
# Youngs Moduli (GPa) = 58.39520 50.79774 51.82167
#
# Poissons Ratio (x) = 0.33648 0.28709
# Poissons Ratio (y) = 0.38681 0.44678
# Poissons Ratio (z) = 0.32351 0.43795
#
# Static dielectric constant tensor:
#      x y z
#    x 3.452730 0.000000 0.000000 
#    y 0.000000 3.310600 0.000000 
#    z 0.000000 0.000000 3.455430 
# 
# 
# High freq. dielectric constant tensor:
#      x y z
#    x 1.727490 0.000000 0.000000 
#    y 0.000000 1.717210 0.000000 
#    z 0.000000 0.000000 1.724570 
# 
# From -- ./inp_files/67489.got.cif
#   From: 2010.03.12/outbox.cif.g09.slc.cpg/sg65_34_cif.got.tgz:67489.got - 2010.04.10 20:52:16.
