data_PCOD8273527
_publ_section_title
;
Structure prediction by ZEFSAII (Michael W. Deem and Ramdas Pophale) SiO2 
 PCOD8273527
Probable space group: C M M M
;
_chemical_formula_sum "Si O2"
_cell_formula_units_Z 72
_cell_length_a 20.558211
_cell_length_b 8.921741
_cell_length_c 19.743437
_cell_angle_alpha 90.000000
_cell_angle_beta 90.000000
_cell_angle_gamma 90.000000
_cell_volume 3621.243168
_symmetry_space_group_name_H-M "C M M M"
_symmetry_group_IT_number 65
_symmetry_cell_setting 'orthorhombic'
loop_
_space_group_symop_operation_xyz
x,y,z
-x,-y,z
x,-y,-z
-x,y,-z
-x,-y,-z
x,y,-z
-x,y,z
x,-y,z
1/2+x,1/2+y,z
1/2-x,1/2-y,z
1/2+x,1/2-y,-z
1/2-x,1/2+y,-z
1/2-x,1/2-y,-z
1/2+x,1/2+y,-z
1/2-x,1/2+y,z
1/2+x,1/2-y,z
loop_
_atom_site_type_symbol
_atom_site_label
_atom_site_fract_x
_atom_site_fract_y
_atom_site_fract_z
Si Si1 0.076989 0.667576 0.074165
Si Si2 0.140880 0.825101 0.420565
Si Si3 0.500000 0.324293 0.572889
Si Si4 0.314258 0.823724 0.294839
Si Si5 0.424155 0.324984 0.791587
O O1 0.102838 0.500000 0.090914
O O2 0.099363 0.781693 0.132564
O O3 0.000000 0.664535 0.071086
O O4 0.103652 0.719266 0.000000
O O5 0.148733 0.784103 0.500000
O O6 0.068096 0.783783 0.391497
O O7 0.187216 0.723657 0.374407
O O8 0.156509 0.000000 0.408874
O O9 0.500000 0.500000 0.559921
O O10 0.500000 0.243228 0.500000
O O11 0.250000 0.750000 0.260826
O O12 0.379900 0.764417 0.260758
O O13 0.310019 0.000000 0.287028
O O14 0.500000 0.281985 0.779590
O O15 0.413062 0.500000 0.780513
#
# Coordination Sequence:
#
# PCOD8273527 Si02
#       5
#    16  16   8  16  16
#     4   8  14  27  50  82 119 154 188 230 278 325
#     4   9  18  35  59  85 112 144 184 230 283 341
#     4   7  12  26  51  81 109 137 168 209 266 327
#     4  12  26  42  59  80 112 151 193 239 290 344
#     4  10  21  37  59  87 118 153 193 235 281 337
#
# _framework density 19.882674000000002
#
# number of rings (size 3 to 8) (size 9 to 14) (size 15 to 20)
#    0.000    2.556    0.000    4.667    1.556    2.667 
#    0.000    2.222    0.000    2.667    0.000    0.000 
#    0.000    0.000    0.000    0.000    0.000    0.000 
#
# Total GULP energy -445993.786673 kJ/mol
# GULP energy per Si atom -12388.716296 kJ/mol
# Density = 1.983742 g / cm^3
# Si number density = 19.882674 Si / 1000 Ang^3
#
#
#
# Elastic Constant Matrix: (Units=GPa)
#
#
# Indices 1 2 3 4 5 6 
#
# 1 78.9264 50.0670 41.3139 0.0000 0.0000 0.0000
# 2 50.0670 119.6249 54.3660 0.0000 0.0000 0.0000
# 3 41.3139 54.3660 100.7318 0.0000 0.0000 0.0000
# 4 0.0000 0.0000 0.0000 34.9576 0.0000 0.0000
# 5 0.0000 0.0000 0.0000 0.0000 7.9310 0.0000
# 6 0.0000 0.0000 0.0000 0.0000 0.0000 25.3411
#
#
#
# Elastic Compliance Matrix: (Units=1/GPa)
#
#
# Indices 1 2 3 4 5 6 
#
# 1 0.018712 -0.005756 -0.004568 0.000000 0.000000 0.000000
# 2 -0.005756 0.012847 -0.004573 0.000000 0.000000 0.000000
# 3 -0.004568 -0.004573 0.014269 0.000000 0.000000 0.000000
# 4 0.000000 0.000000 0.000000 0.028606 0.000000 0.000000
# 5 0.000000 0.000000 0.000000 0.000000 0.126087 0.000000
# 6 0.000000 0.000000 0.000000 0.000000 0.000000 0.039462
#
#
# Mechanical properties :
#
#
# Convention : Reuss Voigt Hill
#
# Bulk Modulus (GPa) = 62.36562 65.64189 64.00375
# Shear Modulus (GPa) = 18.17381 23.88170 21.02776
#
# Velocity S-wave (km/s) = 3.02661 3.46949 3.25559
# Velocity P-wave (km/s) = 6.60672 7.00972 6.81120
#
# Compressibility (1/GPa) = 0.01603448
#
# Stress axis : x y z
#
# Youngs Moduli (GPa) = 53.44067 77.84157 70.08199
#
# Poissons Ratio (x) = 0.44802 0.32015
# Poissons Ratio (y) = 0.30758 0.32048
# Poissons Ratio (z) = 0.24413 0.35596
#
# Static dielectric constant tensor:
#      x y z
#    x 3.671670 0.000000 0.000000 
#    y 0.000000 3.435270 0.000000 
#    z 0.000000 0.000000 3.882290 
# 
# 
# High freq. dielectric constant tensor:
#      x y z
#    x 1.753990 0.000000 0.000000 
#    y 0.000000 1.755150 0.000000 
#    z 0.000000 0.000000 1.775220 
# 
# From -- ./inp_files/64337.got.cif
#   From: 2010.03.12/outbox.cif.g09.slc.cpg/sg65_33_cif.got.tgz:64337.got - 2010.04.10 20:52:16.
