data_PCOD8273826
_publ_section_title
;
Structure prediction by ZEFSAII (Michael W. Deem and Ramdas Pophale) SiO2 
 PCOD8273826
Probable space group: C M M M
;
_chemical_formula_sum "Si O2"
_cell_formula_units_Z 56
_cell_length_a 32.545088
_cell_length_b 11.366970
_cell_length_c 7.865105
_cell_angle_alpha 90.000000
_cell_angle_beta 90.000000
_cell_angle_gamma 90.000000
_cell_volume 2909.609385
_symmetry_space_group_name_H-M "C M M M"
_symmetry_group_IT_number 65
_symmetry_cell_setting 'orthorhombic'
loop_
_space_group_symop_operation_xyz
x,y,z
-x,-y,z
x,-y,-z
-x,y,-z
-x,-y,-z
x,y,-z
-x,y,z
x,-y,z
1/2+x,1/2+y,z
1/2-x,1/2-y,z
1/2+x,1/2-y,-z
1/2-x,1/2+y,-z
1/2-x,1/2-y,-z
1/2+x,1/2+y,-z
1/2-x,1/2+y,z
1/2+x,1/2-y,z
loop_
_atom_site_type_symbol
_atom_site_label
_atom_site_fract_x
_atom_site_fract_y
_atom_site_fract_z
Si Si1 0.954068 0.500000 0.297677
Si Si2 0.080715 0.257694 0.694980
Si Si3 0.000000 0.138204 0.809213
Si Si4 0.781566 0.859635 0.500000
Si Si5 0.840737 0.132955 0.811300
O O1 0.957438 0.500000 0.500000
O O2 0.929484 0.386724 0.233116
O O3 0.000000 0.500000 0.220088
O O4 0.094721 0.260507 0.500000
O O5 0.118659 0.211476 0.803494
O O6 0.040351 0.178463 0.709913
O O7 0.000000 0.000000 0.813729
O O8 0.000000 0.190287 0.000000
O O9 0.750000 0.750000 0.500000
O O10 0.807468 0.834894 0.330380
O O11 0.765716 0.000000 0.500000
O O12 0.855642 0.000000 0.782374
O O13 0.821232 0.149685 0.000000
#
# Coordination Sequence:
#
# PCOD8273826 Si02
#       5
#     8  16   8   8  16
#     4   9  18  34  52  74 110 157 201 247 296 341
#     4  11  20  35  57  80 110 153 203 245 292 350
#     4  11  23  34  47  74 112 151 196 250 296 340
#     4  10  22  44  70  97 124 157 193 234 299 368
#     4  10  21  39  63  90 122 156 194 243 295 350
#
# _framework density 19.246570999999999
#
# number of rings (size 3 to 8) (size 9 to 14) (size 15 to 20)
#    0.000    1.714    2.857    2.143    0.000    5.143 
#    2.571    3.571    0.000    0.000    0.000    0.000 
#    0.000    0.000    0.000    0.000    0.000    0.000 
#
# Total GULP energy -347084.432376 kJ/mol
# GULP energy per Si atom -12395.872585 kJ/mol
# Density = 1.920277 g / cm^3
# Si number density = 19.246571 Si / 1000 Ang^3
#
#
#
# Elastic Constant Matrix: (Units=GPa)
#
#
# Indices 1 2 3 4 5 6 
#
# 1 109.4124 71.6587 48.0183 0.0000 0.0000 0.0000
# 2 71.6587 131.5725 40.0326 0.0000 0.0000 0.0000
# 3 48.0183 40.0326 105.4147 0.0000 0.0000 0.0000
# 4 0.0000 0.0000 0.0000 9.2804 0.0000 0.0000
# 5 0.0000 0.0000 0.0000 0.0000 15.0063 0.0000
# 6 0.0000 0.0000 0.0000 0.0000 0.0000 38.9664
#
#
#
# Elastic Compliance Matrix: (Units=1/GPa)
#
#
# Indices 1 2 3 4 5 6 
#
# 1 0.015870 -0.007285 -0.004462 0.000000 0.000000 0.000000
# 2 -0.007285 0.011938 -0.001215 0.000000 0.000000 0.000000
# 3 -0.004462 -0.001215 0.011980 0.000000 0.000000 0.000000
# 4 0.000000 0.000000 0.000000 0.107754 0.000000 0.000000
# 5 0.000000 0.000000 0.000000 0.000000 0.066639 0.000000
# 6 0.000000 0.000000 0.000000 0.000000 0.000000 0.025663
#
#
# Mechanical properties :
#
#
# Convention : Reuss Voigt Hill
#
# Bulk Modulus (GPa) = 72.13551 73.97987 73.05769
# Shear Modulus (GPa) = 18.49181 25.09661 21.79421
#
# Velocity S-wave (km/s) = 3.10301 3.61495 3.36872
# Velocity P-wave (km/s) = 7.09925 7.47965 7.29193
#
# Compressibility (1/GPa) = 0.01386280
#
# Stress axis : x y z
#
# Youngs Moduli (GPa) = 63.01364 83.76669 83.47030
#
# Poissons Ratio (x) = 0.61028 0.37246
# Poissons Ratio (y) = 0.45908 0.10141
# Poissons Ratio (z) = 0.28118 0.10177
#
# Static dielectric constant tensor:
#      x y z
#    x 3.231950 0.000000 0.000000 
#    y 0.000000 3.760430 0.000000 
#    z 0.000000 0.000000 3.678370 
# 
# 
# High freq. dielectric constant tensor:
#      x y z
#    x 1.721370 0.000000 0.000000 
#    y 0.000000 1.756370 0.000000 
#    z 0.000000 0.000000 1.758310 
# 
# From -- ./inp_files/4502.got.cif
#   From: 2010.03.12/outbox.cif.g09.slc.cpg/sg65_3_cif.got.tgz:4502.got - 2010.04.10 20:52:16.
