data_PCOD8273222
_publ_section_title
;
Structure prediction by ZEFSAII (Michael W. Deem and Ramdas Pophale) SiO2 
 PCOD8273222
Probable space group: C M M M
;
_chemical_formula_sum "Si O2"
_cell_formula_units_Z 64
_cell_length_a 15.509573
_cell_length_b 24.006332
_cell_length_c 8.790198
_cell_angle_alpha 90.000000
_cell_angle_beta 90.000000
_cell_angle_gamma 90.000000
_cell_volume 3272.836477
_symmetry_space_group_name_H-M "C M M M"
_symmetry_group_IT_number 65
_symmetry_cell_setting 'orthorhombic'
loop_
_space_group_symop_operation_xyz
x,y,z
-x,-y,z
x,-y,-z
-x,y,-z
-x,-y,-z
x,y,-z
-x,y,z
x,-y,z
1/2+x,1/2+y,z
1/2-x,1/2-y,z
1/2+x,1/2-y,-z
1/2-x,1/2+y,-z
1/2-x,1/2-y,-z
1/2+x,1/2+y,-z
1/2-x,1/2+y,z
1/2+x,1/2-y,z
loop_
_atom_site_type_symbol
_atom_site_label
_atom_site_fract_x
_atom_site_fract_y
_atom_site_fract_z
Si Si1 0.000000 0.211500 0.819203
Si Si2 0.636900 0.500000 0.819231
Si Si3 0.900856 0.389530 0.676654
Si Si4 0.500000 0.587380 0.181191
Si Si5 0.830636 0.500000 0.819539
Si Si6 0.836954 0.718977 0.820342
O O1 0.084361 0.243414 0.760587
O O2 0.000000 0.149338 0.749172
O O3 0.000000 0.208287 0.000000
O O4 0.585670 0.445064 0.762399
O O5 0.733270 0.500000 0.752221
O O6 0.640115 0.500000 0.000000
O O7 0.881996 0.398558 0.500000
O O8 0.880957 0.446198 0.763242
O O9 0.839803 0.340823 0.739932
O O10 0.000000 0.373173 0.707521
O O11 0.500000 0.589746 0.000000
O O12 0.829418 0.500000 0.000000
O O13 0.750000 0.750000 0.771922
O O14 0.841405 0.708979 0.000000
#
# Coordination Sequence:
#
# PCOD8273222 Si02
#       6
#     8   8  16   8   8  16
#     4   9  17  30  52  82 117 150 181 230 289 336
#     4   8  16  29  48  81 117 144 175 224 280 333
#     4  11  24  42  60  80 113 155 194 234 287 353
#     4   8  14  27  48  77 116 150 176 215 276 341
#     4  11  23  36  60  90 113 140 188 247 297 343
#     4  10  21  36  59  90 119 150 192 242 291 340
#
# _framework density 19.554902999999999
#
# number of rings (size 3 to 8) (size 9 to 14) (size 15 to 20)
#    0.000    2.250    1.250    2.250    3.500    3.500 
#    0.000    0.000    0.000    0.000    0.000    7.000 
#    0.000    0.000    0.000    0.000    0.000    0.000 
#
# Total GULP energy -396843.764992 kJ/mol
# GULP energy per Si atom -12401.367656 kJ/mol
# Density = 1.951040 g / cm^3
# Si number density = 19.554903 Si / 1000 Ang^3
#
#
#
# Elastic Constant Matrix: (Units=GPa)
#
#
# Indices 1 2 3 4 5 6 
#
# 1 121.3077 53.1992 34.5504 0.0000 0.0000 0.0000
# 2 53.1992 168.8950 39.3169 0.0000 0.0000 0.0000
# 3 34.5504 39.3169 51.1229 0.0000 0.0000 0.0000
# 4 0.0000 0.0000 0.0000 10.3110 0.0000 0.0000
# 5 0.0000 0.0000 0.0000 0.0000 15.5004 0.0000
# 6 0.0000 0.0000 0.0000 0.0000 0.0000 31.0652
#
#
#
# Elastic Compliance Matrix: (Units=1/GPa)
#
#
# Indices 1 2 3 4 5 6 
#
# 1 0.010771 -0.002068 -0.005688 0.000000 0.000000 0.000000
# 2 -0.002068 0.007609 -0.004454 0.000000 0.000000 0.000000
# 3 -0.005688 -0.004454 0.026831 0.000000 0.000000 0.000000
# 4 0.000000 0.000000 0.000000 0.096983 0.000000 0.000000
# 5 0.000000 0.000000 0.000000 0.000000 0.064514 0.000000
# 6 0.000000 0.000000 0.000000 0.000000 0.000000 0.032190
#
#
# Mechanical properties :
#
#
# Convention : Reuss Voigt Hill
#
# Bulk Modulus (GPa) = 48.10313 66.16209 57.13261
# Shear Modulus (GPa) = 18.50136 25.65926 22.08031
#
# Velocity S-wave (km/s) = 3.07925 3.62631 3.36392
# Velocity P-wave (km/s) = 6.10695 7.17224 6.66092
#
# Compressibility (1/GPa) = 0.02078867
#
# Stress axis : x y z
#
# Youngs Moduli (GPa) = 92.84391 131.41954 37.27082
#
# Poissons Ratio (x) = 0.27183 0.21201
# Poissons Ratio (y) = 0.19204 0.16601
# Poissons Ratio (z) = 0.52814 0.58536
#
# Static dielectric constant tensor:
#      x y z
#    x 3.793750 0.000000 0.000000 
#    y 0.000000 3.748260 0.000000 
#    z 0.000000 0.000000 3.110860 
# 
# 
# High freq. dielectric constant tensor:
#      x y z
#    x 1.770930 0.000000 0.000000 
#    y 0.000000 1.777120 0.000000 
#    z 0.000000 0.000000 1.717670 
# 
# From -- ./inp_files/6818.got.cif
#   From: 2010.03.12/outbox.cif.g09.slc.cpg/sg65_4_cif.got.tgz:6818.got - 2010.04.10 20:52:16.
