data_PCOD8273675
_publ_section_title
;
Structure prediction by ZEFSAII (Michael W. Deem and Ramdas Pophale) SiO2 
 PCOD8273675
Probable space group: C M M M
;
_chemical_formula_sum "Si O2"
_cell_formula_units_Z 80
_cell_length_a 17.612074
_cell_length_b 23.041248
_cell_length_c 10.105747
_cell_angle_alpha 90.000000
_cell_angle_beta 90.000000
_cell_angle_gamma 90.000000
_cell_volume 4100.954221
_symmetry_space_group_name_H-M "C M M M"
_symmetry_group_IT_number 65
_symmetry_cell_setting 'orthorhombic'
loop_
_space_group_symop_operation_xyz
x,y,z
-x,-y,z
x,-y,-z
-x,y,-z
-x,-y,-z
x,y,-z
-x,y,z
x,-y,z
1/2+x,1/2+y,z
1/2-x,1/2-y,z
1/2+x,1/2-y,-z
1/2-x,1/2+y,-z
1/2-x,1/2-y,-z
1/2+x,1/2+y,-z
1/2-x,1/2+y,z
1/2+x,1/2-y,z
loop_
_atom_site_type_symbol
_atom_site_label
_atom_site_fract_x
_atom_site_fract_y
_atom_site_fract_z
Si Si1 0.589582 0.139986 0.256448
Si Si2 0.910193 0.563818 0.500000
Si Si3 0.708293 0.064278 0.851810
Si Si4 0.000000 0.063497 0.844608
Si Si5 0.160756 0.758997 0.652835
Si Si6 0.147697 0.133574 0.841620
O O1 0.500000 0.138722 0.227590
O O2 0.617954 0.099203 0.375093
O O3 0.635166 0.107529 0.140154
O O4 0.615596 0.204477 0.288016
O O5 0.873443 0.500000 0.500000
O O6 0.000000 0.559827 0.500000
O O7 0.779256 0.098303 0.787054
O O8 0.692946 0.000000 0.786507
O O9 0.733861 0.052144 0.000000
O O10 0.925202 0.096944 0.800551
O O11 0.000000 0.000000 0.777256
O O12 0.000000 0.056195 0.000000
O O13 0.135035 0.770819 0.500000
O O14 0.250000 0.750000 0.657497
O O15 0.139231 0.808992 0.754599
O O16 0.151420 0.148191 0.000000
#
# Coordination Sequence:
#
# PCOD8273675 Si02
#       6
#    16   8  16   8  16  16
#     4  11  22  37  56  83 116 154 195 236 285 349
#     4   9  18  34  55  78 108 147 194 243 282 331
#     4  10  21  38  60  86 117 152 192 243 302 355
#     4   9  18  36  63  93 121 151 195 250 300 353
#     4  11  23  40  60  83 119 158 198 244 294 352
#     4  10  21  38  62  90 117 154 200 245 296 355
#
# _framework density 19.507653999999999
#
# number of rings (size 3 to 8) (size 9 to 14) (size 15 to 20)
#    0.000    1.800    3.000    1.200    1.400    5.200 
#    0.000    1.000    0.000    2.400    0.000    0.000 
#    0.000    0.000    0.000    0.000    0.000    0.000 
#
# Total GULP energy -495635.733535 kJ/mol
# GULP energy per Si atom -12390.893338 kJ/mol
# Density = 1.946325 g / cm^3
# Si number density = 19.507654 Si / 1000 Ang^3
#
#
#
# Elastic Constant Matrix: (Units=GPa)
#
#
# Indices 1 2 3 4 5 6 
#
# 1 139.8904 75.0357 18.5408 0.0000 0.0000 0.0000
# 2 75.0357 194.1210 54.5735 0.0000 0.0000 0.0000
# 3 18.5408 54.5735 54.0113 0.0000 0.0000 0.0000
# 4 0.0000 0.0000 0.0000 38.9104 0.0000 0.0000
# 5 0.0000 0.0000 0.0000 0.0000 20.4263 0.0000
# 6 0.0000 0.0000 0.0000 0.0000 0.0000 35.4157
#
#
#
# Elastic Compliance Matrix: (Units=1/GPa)
#
#
# Indices 1 2 3 4 5 6 
#
# 1 0.009032 -0.003659 0.000597 0.000000 0.000000 0.000000
# 2 -0.003659 0.008678 -0.007512 0.000000 0.000000 0.000000
# 3 0.000597 -0.007512 0.025900 0.000000 0.000000 0.000000
# 4 0.000000 0.000000 0.000000 0.025700 0.000000 0.000000
# 5 0.000000 0.000000 0.000000 0.000000 0.048957 0.000000
# 6 0.000000 0.000000 0.000000 0.000000 0.000000 0.028236
#
#
# Mechanical properties :
#
#
# Convention : Reuss Voigt Hill
#
# Bulk Modulus (GPa) = 44.52165 76.03586 60.27876
# Shear Modulus (GPa) = 28.54896 34.94199 31.74547
#
# Velocity S-wave (km/s) = 3.82969 4.23684 4.03840
# Velocity P-wave (km/s) = 6.51364 7.93703 7.26031
#
# Compressibility (1/GPa) = 0.02246098
#
# Stress axis : x y z
#
# Youngs Moduli (GPa) = 110.71735 115.23943 38.61014
#
# Poissons Ratio (x) = 0.42166 -0.02303
# Poissons Ratio (y) = 0.40511 0.29003
# Poissons Ratio (z) = -0.06605 0.86567
#
# Static dielectric constant tensor:
#      x y z
#    x 3.486280 0.000000 0.000000 
#    y 0.000000 3.349090 0.000000 
#    z 0.000000 0.000000 3.524540 
# 
# 
# High freq. dielectric constant tensor:
#      x y z
#    x 1.762750 0.000000 0.000000 
#    y 0.000000 1.778790 0.000000 
#    z 0.000000 0.000000 1.735820 
# 
# From -- ./inp_files/26703.got.cif
#   From: 2010.03.12/outbox.cif.g09.slc.cpg/sg65_14_cif.got.tgz:26703.got - 2010.04.10 20:52:16.
