data_PCOD8273500
_publ_section_title
;
Structure prediction by ZEFSAII (Michael W. Deem and Ramdas Pophale) SiO2 
 PCOD8273500
Probable space group: C M M M
;
_chemical_formula_sum "Si O2"
_cell_formula_units_Z 104
_cell_length_a 9.107884
_cell_length_b 25.696649
_cell_length_c 21.975632
_cell_angle_alpha 90.000000
_cell_angle_beta 90.000000
_cell_angle_gamma 90.000000
_cell_volume 5143.223024
_symmetry_space_group_name_H-M "C M M M"
_symmetry_group_IT_number 65
_symmetry_cell_setting 'orthorhombic'
loop_
_space_group_symop_operation_xyz
x,y,z
-x,-y,z
x,-y,-z
-x,y,-z
-x,-y,-z
x,y,-z
-x,y,z
x,-y,z
1/2+x,1/2+y,z
1/2-x,1/2-y,z
1/2+x,1/2-y,-z
1/2-x,1/2+y,-z
1/2-x,1/2-y,-z
1/2+x,1/2+y,-z
1/2-x,1/2+y,z
1/2+x,1/2-y,z
loop_
_atom_site_type_symbol
_atom_site_label
_atom_site_fract_x
_atom_site_fract_y
_atom_site_fract_z
Si Si1 0.825495 0.000000 0.931293
Si Si2 0.329906 0.805458 0.814896
Si Si3 0.832281 0.441012 0.393909
Si Si4 0.168102 0.850111 0.567172
Si Si5 0.831878 0.697941 0.680131
Si Si6 0.172281 0.902905 0.148056
Si Si7 0.839475 0.561216 0.258649
O O1 0.768984 0.947019 0.898898
O O2 0.000000 0.000000 0.928850
O O3 0.765357 0.000000 0.000000
O O4 0.500000 0.796876 0.831852
O O5 0.250000 0.750000 0.822405
O O6 0.316733 0.831405 0.746083
O O7 0.256902 0.847837 0.860690
O O8 0.777379 0.500000 0.394999
O O9 0.724735 0.409423 0.438022
O O10 0.819459 0.414553 0.326342
O O11 0.000000 0.436632 0.416531
O O12 0.188336 0.824400 0.500000
O O13 0.263001 0.823283 0.618662
O O14 0.000000 0.848546 0.587405
O O15 0.750000 0.750000 0.697255
O O16 0.000000 0.708855 0.664368
O O17 0.205155 0.924355 0.215284
O O18 0.000000 0.892887 0.140364
O O19 0.841510 0.500000 0.269988
O O20 0.000000 0.578426 0.231836
#
# Coordination Sequence:
#
# PCOD8273500 Si02
#       7
#     8  16  16  16  16  16  16
#     4   9  20  38  57  83 123 167 206 239 274 319
#     4  10  21  37  58  87 119 149 183 230 288 345
#     4   9  19  35  53  73  98 133 175 219 272 333
#     4  11  24  38  51  71 100 135 177 224 274 329
#     4  10  21  38  60  82 106 137 174 217 274 334
#     4  11  20  32  55  85 116 153 196 238 279 330
#     4   9  17  30  49  75 108 140 173 221 282 339
#
# _framework density 20.220783999999998
#
# number of rings (size 3 to 8) (size 9 to 14) (size 15 to 20)
#    0.000    2.077    0.769    3.692    0.000    8.308 
#    0.000    3.077    0.000    4.154    0.000    0.000 
#    0.000    0.000    0.000    0.000    0.000    0.000 
#
# Total GULP energy -644403.862664 kJ/mol
# GULP energy per Si atom -12392.381974 kJ/mol
# Density = 2.017476 g / cm^3
# Si number density = 20.220784 Si / 1000 Ang^3
#
#
#
# Elastic Constant Matrix: (Units=GPa)
#
#
# Indices 1 2 3 4 5 6 
#
# 1 113.3277 45.6738 43.8398 0.0000 0.0000 0.0000
# 2 45.6738 79.5382 50.7222 0.0000 0.0000 0.0000
# 3 43.8398 50.7222 77.5300 0.0000 0.0000 0.0000
# 4 0.0000 0.0000 0.0000 20.7319 0.0000 0.0000
# 5 0.0000 0.0000 0.0000 0.0000 16.3594 0.0000
# 6 0.0000 0.0000 0.0000 0.0000 0.0000 28.7180
#
#
#
# Elastic Compliance Matrix: (Units=1/GPa)
#
#
# Indices 1 2 3 4 5 6 
#
# 1 0.012149 -0.004454 -0.003956 0.000000 0.000000 0.000000
# 2 -0.004454 0.023206 -0.012663 0.000000 0.000000 0.000000
# 3 -0.003956 -0.012663 0.023420 0.000000 0.000000 0.000000
# 4 0.000000 0.000000 0.000000 0.048235 0.000000 0.000000
# 5 0.000000 0.000000 0.000000 0.000000 0.061127 0.000000
# 6 0.000000 0.000000 0.000000 0.000000 0.000000 0.034821
#
#
# Mechanical properties :
#
#
# Convention : Reuss Voigt Hill
#
# Bulk Modulus (GPa) = 60.13794 61.20751 60.67272
# Shear Modulus (GPa) = 19.94835 21.83921 20.89378
#
# Velocity S-wave (km/s) = 3.14431 3.28996 3.21796
# Velocity P-wave (km/s) = 6.55648 6.69082 6.62399
#
# Compressibility (1/GPa) = 0.01662844
#
# Stress axis : x y z
#
# Youngs Moduli (GPa) = 82.30905 43.09309 42.69866
#
# Poissons Ratio (x) = 0.19192 0.16892
# Poissons Ratio (y) = 0.36658 0.54071
# Poissons Ratio (z) = 0.32563 0.54570
#
# Static dielectric constant tensor:
#      x y z
#    x 3.647510 0.000000 0.000000 
#    y 0.000000 3.723640 0.000000 
#    z 0.000000 0.000000 3.448360 
# 
# 
# High freq. dielectric constant tensor:
#      x y z
#    x 1.783090 0.000000 0.000000 
#    y 0.000000 1.805970 0.000000 
#    z 0.000000 0.000000 1.755680 
# 
# From -- ./inp_files/60809.got.cif
#   From: 2010.03.12/outbox.cif.g09.slc.cpg/sg65_31_cif.got.tgz:60809.got - 2010.04.10 20:52:16.
