data_PCOD8273229
_publ_section_title
;
Structure prediction by ZEFSAII (Michael W. Deem and Ramdas Pophale) SiO2 
 PCOD8273229
Probable space group: C M M M
;
_chemical_formula_sum "Si O2"
_cell_formula_units_Z 80
_cell_length_a 26.090669
_cell_length_b 8.173604
_cell_length_c 23.490401
_cell_angle_alpha 90.000000
_cell_angle_beta 90.000000
_cell_angle_gamma 90.000000
_cell_volume 5009.440685
_symmetry_space_group_name_H-M "C M M M"
_symmetry_group_IT_number 65
_symmetry_cell_setting 'orthorhombic'
loop_
_space_group_symop_operation_xyz
x,y,z
-x,-y,z
x,-y,-z
-x,y,-z
-x,-y,-z
x,y,-z
-x,y,z
x,-y,z
1/2+x,1/2+y,z
1/2-x,1/2-y,z
1/2+x,1/2-y,-z
1/2-x,1/2+y,-z
1/2-x,1/2-y,-z
1/2+x,1/2+y,-z
1/2-x,1/2+y,z
1/2+x,1/2-y,z
loop_
_atom_site_type_symbol
_atom_site_label
_atom_site_fract_x
_atom_site_fract_y
_atom_site_fract_z
Si Si1 0.061051 0.000000 0.935327
Si Si2 0.500000 0.304966 0.564499
Si Si3 0.804149 0.689984 0.437105
Si Si4 0.442167 0.810115 0.739529
Si Si5 0.938981 0.682896 0.867654
Si Si6 0.599839 0.311621 0.628173
O O1 0.082349 0.167784 0.906383
O O2 0.000000 0.000000 0.931764
O O3 0.080572 0.000000 0.000000
O O4 0.500000 0.500000 0.567078
O O5 0.500000 0.240007 0.500000
O O6 0.550397 0.235089 0.596051
O O7 0.814314 0.769593 0.500000
O O8 0.800636 0.500000 0.444840
O O9 0.750000 0.750000 0.411759
O O10 0.848634 0.728406 0.392859
O O11 0.500000 0.740372 0.734563
O O12 0.420733 0.781973 0.803192
O O13 0.405780 0.714277 0.695837
O O14 0.441512 0.000000 0.723871
O O15 0.919621 0.500000 0.887369
O O16 0.000000 0.680072 0.869299
O O17 0.604408 0.500000 0.613159
#
# Coordination Sequence:
#
# PCOD8273229 Si02
#       6
#     8   8  16  16  16  16
#     4   9  16  24  36  56  78 108 150 194 228 264
#     4   9  18  30  41  61  93 119 141 176 227 278
#     4  10  21  37  54  69  86 112 147 189 233 280
#     4   9  17  29  43  60  87 117 149 188 228 270
#     4   8  15  26  38  54  78 112 147 188 232 268
#     4  11  20  30  47  70  91 117 149 186 229 278
#
# _framework density 15.969847
#
# number of rings (size 3 to 8) (size 9 to 14) (size 15 to 20)
#    0.000    2.600    1.000    3.000    1.400    2.400 
#    0.000    2.000    0.000    2.400    0.000    0.000 
#    0.000    0.000    0.000    0.000    0.000    1.000 
#
# Total GULP energy -495804.002981 kJ/mol
# GULP energy per Si atom -12395.100075 kJ/mol
# Density = 1.593350 g / cm^3
# Si number density = 15.969847 Si / 1000 Ang^3
#
#
#
# Elastic Constant Matrix: (Units=GPa)
#
#
# Indices 1 2 3 4 5 6 
#
# 1 73.9475 24.6056 34.7376 0.0000 0.0000 0.0000
# 2 24.6056 77.2462 46.1438 0.0000 0.0000 0.0000
# 3 34.7376 46.1438 103.9590 0.0000 0.0000 0.0000
# 4 0.0000 0.0000 0.0000 24.9495 0.0000 0.0000
# 5 0.0000 0.0000 0.0000 0.0000 13.5709 0.0000
# 6 0.0000 0.0000 0.0000 0.0000 0.0000 15.1298
#
#
#
# Elastic Compliance Matrix: (Units=1/GPa)
#
#
# Indices 1 2 3 4 5 6 
#
# 1 0.016433 -0.002659 -0.004311 0.000000 0.000000 0.000000
# 2 -0.002659 0.018047 -0.007122 0.000000 0.000000 0.000000
# 3 -0.004311 -0.007122 0.014221 0.000000 0.000000 0.000000
# 4 0.000000 0.000000 0.000000 0.040081 0.000000 0.000000
# 5 0.000000 0.000000 0.000000 0.000000 0.073687 0.000000
# 6 0.000000 0.000000 0.000000 0.000000 0.000000 0.066095
#
#
# Mechanical properties :
#
#
# Convention : Reuss Voigt Hill
#
# Bulk Modulus (GPa) = 48.74020 51.79185 50.26603
# Shear Modulus (GPa) = 18.96913 20.70775 19.83844
#
# Velocity S-wave (km/s) = 3.45020 3.60485 3.52837
# Velocity P-wave (km/s) = 6.81603 7.05890 6.93852
#
# Compressibility (1/GPa) = 0.02051694
#
# Stress axis : x y z
#
# Youngs Moduli (GPa) = 60.85326 55.41077 70.32023
#
# Poissons Ratio (x) = 0.14736 0.30312
# Poissons Ratio (y) = 0.16184 0.50081
# Poissons Ratio (z) = 0.26231 0.39462
#
# Static dielectric constant tensor:
#      x y z
#    x 2.580930 0.000000 0.000000 
#    y 0.000000 3.146280 0.000000 
#    z 0.000000 0.000000 3.051780 
# 
# 
# High freq. dielectric constant tensor:
#      x y z
#    x 1.552310 0.000000 0.000000 
#    y 0.000000 1.621940 0.000000 
#    z 0.000000 0.000000 1.607070 
# 
# From -- ./inp_files/65056.got.cif
#   From: 2010.03.12/outbox.cif.g09.slc.cpg/sg65_33_cif.got.tgz:65056.got - 2010.04.10 20:52:16.
