data_PCOD8273730
_publ_section_title
;
Structure prediction by ZEFSAII (Michael W. Deem and Ramdas Pophale) SiO2 
 PCOD8273730
Probable space group: C M M M
;
_chemical_formula_sum "Si O2"
_cell_formula_units_Z 96
_cell_length_a 25.033328
_cell_length_b 17.419106
_cell_length_c 11.608177
_cell_angle_alpha 90.000000
_cell_angle_beta 90.000000
_cell_angle_gamma 90.000000
_cell_volume 5061.840698
_symmetry_space_group_name_H-M "C M M M"
_symmetry_group_IT_number 65
_symmetry_cell_setting 'orthorhombic'
loop_
_space_group_symop_operation_xyz
x,y,z
-x,-y,z
x,-y,-z
-x,y,-z
-x,-y,-z
x,y,-z
-x,y,z
x,-y,z
1/2+x,1/2+y,z
1/2-x,1/2-y,z
1/2+x,1/2-y,-z
1/2-x,1/2+y,-z
1/2-x,1/2-y,-z
1/2+x,1/2+y,-z
1/2-x,1/2+y,z
1/2+x,1/2-y,z
loop_
_atom_site_type_symbol
_atom_site_label
_atom_site_fract_x
_atom_site_fract_y
_atom_site_fract_z
Si Si1 0.060379 0.409921 0.631440
Si Si2 0.352905 0.672021 0.134226
Si Si3 0.060417 0.088219 0.271325
Si Si4 0.312290 0.742171 0.500000
Si Si5 0.654779 0.823651 0.734268
Si Si6 0.873897 0.912581 0.500000
Si Si7 0.254462 0.090485 0.866236
O O1 0.075368 0.388360 0.500000
O O2 0.066266 0.500000 0.649904
O O3 0.099259 0.368608 0.721306
O O4 0.000000 0.383373 0.658372
O O5 0.407515 0.635191 0.177033
O O6 0.350979 0.760484 0.167638
O O7 0.300266 0.628292 0.180832
O O8 0.353188 0.663982 0.000000
O O9 0.087818 0.101326 0.393098
O O10 0.000000 0.119620 0.277576
O O11 0.060983 0.000000 0.234313
O O12 0.250000 0.750000 0.500000
O O13 0.333352 0.784132 0.386993
O O14 0.327594 0.651583 0.500000
O O15 0.699863 0.881993 0.778636
O O16 0.849863 0.000000 0.500000
O O17 0.248309 0.000000 0.854044
O O18 0.266478 0.113286 0.000000
#
# Coordination Sequence:
#
# PCOD8273730 Si02
#       7
#    16  16  16   8  16   8  16
#     4   9  19  38  61  86 118 154 194 241 293 353
#     4  11  23  39  59  85 120 158 199 248 298 350
#     4  10  21  38  61  87 116 153 199 249 295 349
#     4  12  24  39  55  91 129 155 187 243 305 366
#     4  12  22  38  59  91 121 153 194 242 303 357
#     4  10  21  42  64  85 116 162 207 239 290 363
#     4  10  22  41  64  86 113 157 206 246 291 355
#
# _framework density 18.965433000000001
#
# number of rings (size 3 to 8) (size 9 to 14) (size 15 to 20)
#    0.000    1.500    2.500    3.750    0.000    4.333 
#    0.000    1.667    0.000    1.500    0.000    5.833 
#    0.000    0.000    0.000    0.000    0.000    0.000 
#
# Total GULP energy -595250.678387 kJ/mol
# GULP energy per Si atom -12401.055800 kJ/mol
# Density = 1.892227 g / cm^3
# Si number density = 18.965433 Si / 1000 Ang^3
#
#
#
# Elastic Constant Matrix: (Units=GPa)
#
#
# Indices 1 2 3 4 5 6 
#
# 1 142.6588 69.4521 36.7325 0.0000 0.0000 0.0000
# 2 69.4521 95.3546 31.3357 0.0000 0.0000 0.0000
# 3 36.7325 31.3357 49.3690 0.0000 0.0000 0.0000
# 4 0.0000 0.0000 0.0000 35.2569 0.0000 0.0000
# 5 0.0000 0.0000 0.0000 0.0000 67.0699 0.0000
# 6 0.0000 0.0000 0.0000 0.0000 0.0000 29.4399
#
#
#
# Elastic Compliance Matrix: (Units=1/GPa)
#
#
# Indices 1 2 3 4 5 6 
#
# 1 0.011478 -0.007017 -0.004086 0.000000 0.000000 0.000000
# 2 -0.007017 0.017541 -0.005913 0.000000 0.000000 0.000000
# 3 -0.004086 -0.005913 0.027049 0.000000 0.000000 0.000000
# 4 0.000000 0.000000 0.000000 0.028363 0.000000 0.000000
# 5 0.000000 0.000000 0.000000 0.000000 0.014910 0.000000
# 6 0.000000 0.000000 0.000000 0.000000 0.000000 0.033967
#
#
# Mechanical properties :
#
#
# Convention : Reuss Voigt Hill
#
# Bulk Modulus (GPa) = 45.38044 62.49143 53.93594
# Shear Modulus (GPa) = 28.62266 36.34416 32.48341
#
# Velocity S-wave (km/s) = 3.88906 4.38235 4.14305
# Velocity P-wave (km/s) = 6.64427 7.65691 7.16849
#
# Compressibility (1/GPa) = 0.02203592
#
# Stress axis : x y z
#
# Youngs Moduli (GPa) = 87.12154 57.00795 36.97020
#
# Poissons Ratio (x) = 0.40005 0.15106
# Poissons Ratio (y) = 0.61137 0.21859
# Poissons Ratio (z) = 0.35599 0.33707
#
# Static dielectric constant tensor:
#      x y z
#    x 3.638590 0.000000 0.000000 
#    y 0.000000 3.608670 0.000000 
#    z 0.000000 0.000000 2.772960 
# 
# 
# High freq. dielectric constant tensor:
#      x y z
#    x 1.742660 0.000000 0.000000 
#    y 0.000000 1.743860 0.000000 
#    z 0.000000 0.000000 1.735660 
# 
# From -- ./inp_files/30819.got.cif
#   From: 2010.03.12/outbox.cif.g09.slc.cpg/sg65_16_cif.got.tgz:30819.got - 2010.04.10 20:52:16.
