data_PCOD8273696
_publ_section_title
;
Structure prediction by ZEFSAII (Michael W. Deem and Ramdas Pophale) SiO2 
 PCOD8273696
Probable space group: C M M M
;
_chemical_formula_sum "Si O2"
_cell_formula_units_Z 48
_cell_length_a 35.183182
_cell_length_b 8.873848
_cell_length_c 7.394599
_cell_angle_alpha 90.000000
_cell_angle_beta 90.000000
_cell_angle_gamma 90.000000
_cell_volume 2308.669301
_symmetry_space_group_name_H-M "C M M M"
_symmetry_group_IT_number 65
_symmetry_cell_setting 'orthorhombic'
loop_
_space_group_symop_operation_xyz
x,y,z
-x,-y,z
x,-y,-z
-x,y,-z
-x,-y,-z
x,y,-z
-x,y,z
x,-y,z
1/2+x,1/2+y,z
1/2-x,1/2-y,z
1/2+x,1/2-y,-z
1/2-x,1/2+y,-z
1/2-x,1/2-y,-z
1/2+x,1/2+y,-z
1/2-x,1/2+y,z
1/2+x,1/2-y,z
loop_
_atom_site_type_symbol
_atom_site_label
_atom_site_fract_x
_atom_site_fract_y
_atom_site_fract_z
Si Si1 0.418911 0.168477 0.215198
Si Si2 0.656733 0.674602 0.211368
Si Si3 0.500000 0.179301 0.801865
Si Si4 0.791103 0.321887 0.500000
O O1 0.385452 0.279322 0.278197
O O2 0.460021 0.224707 0.296272
O O3 0.409261 0.000000 0.285356
O O4 0.422643 0.166706 0.000000
O O5 0.662709 0.500000 0.255099
O O6 0.687516 0.770253 0.319107
O O7 0.662168 0.710669 0.000000
O O8 0.500000 0.000000 0.820560
O O9 0.500000 0.254840 0.000000
O O10 0.787346 0.500000 0.500000
O O11 0.750000 0.250000 0.500000
#
# Coordination Sequence:
#
# PCOD8273696 Si02
#       4
#    16  16   8   8
#     4   8  13  24  45  74 108 148 193 235 276 325
#     4  10  21  38  60  87 120 155 190 231 281 338
#     4   7  10  18  37  68 105 144 188 235 275 318
#     4  12  26  44  66  89 114 145 184 232 285 342
#
# _framework density 20.791198000000001
#
# number of rings (size 3 to 8) (size 9 to 14) (size 15 to 20)
#    0.000    2.833    0.000    4.500    0.000    2.667 
#    0.000    0.833    0.000    6.000    0.000    7.000 
#    0.000    0.000    0.000    0.000    0.000    0.000 
#
# Total GULP energy -297347.112064 kJ/mol
# GULP energy per Si atom -12389.463003 kJ/mol
# Density = 2.074388 g / cm^3
# Si number density = 20.791198 Si / 1000 Ang^3
#
#
#
# Elastic Constant Matrix: (Units=GPa)
#
#
# Indices 1 2 3 4 5 6 
#
# 1 205.9797 78.6006 49.1607 0.0000 0.0000 0.0000
# 2 78.6006 124.4050 37.5562 0.0000 0.0000 0.0000
# 3 49.1607 37.5562 65.4168 0.0000 0.0000 0.0000
# 4 0.0000 0.0000 0.0000 20.3671 0.0000 0.0000
# 5 0.0000 0.0000 0.0000 0.0000 85.0269 0.0000
# 6 0.0000 0.0000 0.0000 0.0000 0.0000 38.4686
#
#
#
# Elastic Compliance Matrix: (Units=1/GPa)
#
#
# Indices 1 2 3 4 5 6 
#
# 1 0.006927 -0.003393 -0.003258 0.000000 0.000000 0.000000
# 2 -0.003393 0.011386 -0.003987 0.000000 0.000000 0.000000
# 3 -0.003258 -0.003987 0.020023 0.000000 0.000000 0.000000
# 4 0.000000 0.000000 0.000000 0.049099 0.000000 0.000000
# 5 0.000000 0.000000 0.000000 0.000000 0.011761 0.000000
# 6 0.000000 0.000000 0.000000 0.000000 0.000000 0.025995
#
#
# Mechanical properties :
#
#
# Convention : Reuss Voigt Hill
#
# Bulk Modulus (GPa) = 58.61217 80.71519 69.66368
# Shear Modulus (GPa) = 32.86158 44.13812 38.49985
#
# Velocity S-wave (km/s) = 3.97993 4.61252 4.30785
# Velocity P-wave (km/s) = 7.02651 8.20202 7.63692
#
# Compressibility (1/GPa) = 0.01706130
#
# Stress axis : x y z
#
# Youngs Moduli (GPa) = 144.35859 87.83004 49.94144
#
# Poissons Ratio (x) = 0.29803 0.16269
# Poissons Ratio (y) = 0.48984 0.19909
# Poissons Ratio (z) = 0.47028 0.35014
#
# Static dielectric constant tensor:
#      x y z
#    x 4.329660 0.000000 0.000000 
#    y 0.000000 3.556100 0.000000 
#    z 0.000000 0.000000 3.464020 
# 
# 
# High freq. dielectric constant tensor:
#      x y z
#    x 1.831480 0.000000 0.000000 
#    y 0.000000 1.784800 0.000000 
#    z 0.000000 0.000000 1.790680 
# 
# From -- ./inp_files/17527.got.cif
#   From: 2010.03.12/outbox.cif.g09.slc.cpg/sg65_9_cif.got.tgz:17527.got - 2010.04.10 20:52:16.
