data_PCOD8273924
_publ_section_title
;
Structure prediction by ZEFSAII (Michael W. Deem and Ramdas Pophale) SiO2 
 PCOD8273924
Probable space group: C M M M
;
_chemical_formula_sum "Si O2"
_cell_formula_units_Z 88
_cell_length_a 9.647503
_cell_length_b 20.267823
_cell_length_c 24.447344
_cell_angle_alpha 90.000000
_cell_angle_beta 90.000000
_cell_angle_gamma 90.000000
_cell_volume 4780.284106
_symmetry_space_group_name_H-M "C M M M"
_symmetry_group_IT_number 65
_symmetry_cell_setting 'orthorhombic'
loop_
_space_group_symop_operation_xyz
x,y,z
-x,-y,z
x,-y,-z
-x,y,-z
-x,-y,-z
x,y,-z
-x,y,z
x,-y,z
1/2+x,1/2+y,z
1/2-x,1/2-y,z
1/2+x,1/2-y,-z
1/2-x,1/2+y,-z
1/2-x,1/2-y,-z
1/2+x,1/2+y,-z
1/2-x,1/2+y,z
1/2+x,1/2-y,z
loop_
_atom_site_type_symbol
_atom_site_label
_atom_site_fract_x
_atom_site_fract_y
_atom_site_fract_z
Si Si1 0.657765 0.620298 0.938027
Si Si2 0.160375 0.424815 0.646303
Si Si3 0.339573 0.811850 0.437092
Si Si4 0.345326 0.000000 0.064622
Si Si5 0.842990 0.809865 0.169076
Si Si6 0.660487 0.574832 0.249535
O O1 0.500000 0.593100 0.934860
O O2 0.761278 0.564112 0.916813
O O3 0.676791 0.680894 0.896282
O O4 0.692205 0.643676 0.000000
O O5 0.193493 0.500000 0.628395
O O6 0.201155 0.377129 0.596465
O O7 0.250081 0.403722 0.698396
O O8 0.000000 0.416882 0.662381
O O9 0.304771 0.827593 0.500000
O O10 0.500000 0.793339 0.429013
O O11 0.250000 0.750000 0.415807
O O12 0.500000 0.000000 0.090602
O O13 0.355930 0.000000 0.000000
O O14 0.750000 0.750000 0.190222
O O15 0.800536 0.877292 0.199537
O O16 0.000000 0.790730 0.183103
O O17 0.500000 0.581196 0.265861
O O18 0.696373 0.500000 0.231300
#
# Coordination Sequence:
#
# PCOD8273924 Si02
#       6
#    16  16  16   8  16  16
#     4   9  18  33  53  75 100 134 172 207 250 308
#     4   9  18  33  53  77 103 131 168 214 258 300
#     4   9  18  32  50  74 105 140 174 208 249 298
#     4   9  17  29  47  75 105 129 159 203 250 293
#     4  10  22  37  54  76 104 135 170 212 257 309
#     4   9  19  36  56  75  98 133 173 212 255 305
#
# _framework density 18.408947000000001
#
# number of rings (size 3 to 8) (size 9 to 14) (size 15 to 20)
#    0.000    2.818    0.000    0.273    1.273    4.727 
#    0.000    5.455    0.000    0.000    0.000    5.091 
#    0.000    0.000    0.000    0.000    0.000    0.000 
#
# Total GULP energy -545553.079740 kJ/mol
# GULP energy per Si atom -12398.933630 kJ/mol
# Density = 1.836705 g / cm^3
# Si number density = 18.408947 Si / 1000 Ang^3
#
#
#
# Elastic Constant Matrix: (Units=GPa)
#
#
# Indices 1 2 3 4 5 6 
#
# 1 75.4732 57.9532 43.3363 0.0000 0.0000 0.0000
# 2 57.9532 112.1487 63.3471 0.0000 0.0000 0.0000
# 3 43.3363 63.3471 94.8862 0.0000 0.0000 0.0000
# 4 0.0000 0.0000 0.0000 23.6221 0.0000 0.0000
# 5 0.0000 0.0000 0.0000 0.0000 26.1407 0.0000
# 6 0.0000 0.0000 0.0000 0.0000 0.0000 29.8947
#
#
#
# Elastic Compliance Matrix: (Units=1/GPa)
#
#
# Indices 1 2 3 4 5 6 
#
# 1 0.022923 -0.009523 -0.004112 0.000000 0.000000 0.000000
# 2 -0.009523 0.018271 -0.007849 0.000000 0.000000 0.000000
# 3 -0.004112 -0.007849 0.017657 0.000000 0.000000 0.000000
# 4 0.000000 0.000000 0.000000 0.042333 0.000000 0.000000
# 5 0.000000 0.000000 0.000000 0.000000 0.038255 0.000000
# 6 0.000000 0.000000 0.000000 0.000000 0.000000 0.033451
#
#
# Mechanical properties :
#
#
# Convention : Reuss Voigt Hill
#
# Bulk Modulus (GPa) = 62.95620 67.97571 65.46595
# Shear Modulus (GPa) = 22.60898 23.78959 23.19929
#
# Velocity S-wave (km/s) = 3.50830 3.59874 3.55381
# Velocity P-wave (km/s) = 7.11926 7.36705 7.24421
#
# Compressibility (1/GPa) = 0.01588406
#
# Stress axis : x y z
#
# Youngs Moduli (GPa) = 43.62407 54.73110 56.63586
#
# Poissons Ratio (x) = 0.52121 0.23287
# Poissons Ratio (y) = 0.41544 0.44451
# Poissons Ratio (z) = 0.17937 0.42956
#
# Static dielectric constant tensor:
#      x y z
#    x 3.503570 0.000000 0.000000 
#    y 0.000000 3.282290 0.000000 
#    z 0.000000 0.000000 3.297100 
# 
# 
# High freq. dielectric constant tensor:
#      x y z
#    x 1.713600 0.000000 0.000000 
#    y 0.000000 1.704840 0.000000 
#    z 0.000000 0.000000 1.703950 
# 
# From -- ./inp_files/61452.got.cif
#   From: 2010.03.12/outbox.cif.g09.slc.cpg/sg65_31_cif.got.tgz:61452.got - 2010.04.10 20:52:16.
