data_PCOD8273946
_publ_section_title
;
Structure prediction by ZEFSAII (Michael W. Deem and Ramdas Pophale) SiO2 
 PCOD8273946
Probable space group: C M M M
;
_chemical_formula_sum "Si O2"
_cell_formula_units_Z 112
_cell_length_a 19.771471
_cell_length_b 22.368408
_cell_length_c 13.932348
_cell_angle_alpha 90.000000
_cell_angle_beta 90.000000
_cell_angle_gamma 90.000000
_cell_volume 6161.669096
_symmetry_space_group_name_H-M "C M M M"
_symmetry_group_IT_number 65
_symmetry_cell_setting 'orthorhombic'
loop_
_space_group_symop_operation_xyz
x,y,z
-x,-y,z
x,-y,-z
-x,y,-z
-x,-y,-z
x,y,-z
-x,y,z
x,-y,z
1/2+x,1/2+y,z
1/2-x,1/2-y,z
1/2+x,1/2-y,-z
1/2-x,1/2+y,-z
1/2-x,1/2-y,-z
1/2+x,1/2+y,-z
1/2-x,1/2+y,z
1/2+x,1/2-y,z
loop_
_atom_site_type_symbol
_atom_site_label
_atom_site_fract_x
_atom_site_fract_y
_atom_site_fract_z
Si Si1 0.694125 0.933781 0.235048
Si Si2 0.694627 0.165862 0.609677
Si Si3 0.579938 0.766595 0.104800
Si Si4 0.079990 0.154180 0.220244
Si Si5 0.347876 0.704879 0.608841
Si Si6 0.322106 0.570628 0.889138
Si Si7 0.576826 0.899789 0.886924
O O1 0.677306 0.889814 0.322566
O O2 0.754571 0.909313 0.167436
O O3 0.627395 0.942247 0.170015
O O4 0.712212 0.000000 0.275120
O O5 0.678587 0.147456 0.500000
O O6 0.650483 0.224604 0.637657
O O7 0.772830 0.180724 0.621542
O O8 0.500000 0.761324 0.096496
O O9 0.608074 0.715286 0.173191
O O10 0.598352 0.832347 0.142683
O O11 0.612468 0.756621 0.000000
O O12 0.102459 0.162135 0.330313
O O13 0.113771 0.098948 0.165223
O O14 0.000000 0.145111 0.213300
O O15 0.372678 0.697952 0.500000
O O16 0.331947 0.500000 0.885461
O O17 0.318027 0.592470 0.000000
O O18 0.500000 0.913909 0.855750
O O19 0.584786 0.910057 0.000000
#
# Coordination Sequence:
#
# PCOD8273946 Si02
#       7
#    16  16  16  16  16  16  16
#     4  11  21  34  54  78 107 142 182 226 264 304
#     4   9  18  35  58  80 105 136 172 215 264 320
#     4   8  15  28  46  71 102 133 166 208 256 305
#     4  11  20  32  54  79 106 140 179 222 269 323
#     4   9  18  34  56  81 107 133 166 215 271 323
#     4  10  22  38  52  72 106 145 186 230 270 311
#     4   9  18  33  52  76 108 142 175 213 263 323
#
# _framework density 18.176893
#
# number of rings (size 3 to 8) (size 9 to 14) (size 15 to 20)
#    0.000    2.429    1.429    3.429    0.000    2.857 
#    0.000    1.429    0.000    5.143    0.000    2.000 
#    0.000    0.000    0.000    0.000    0.000    0.000 
#
# Total GULP energy -694159.229017 kJ/mol
# GULP energy per Si atom -12395.700518 kJ/mol
# Density = 1.813552 g / cm^3
# Si number density = 18.176893 Si / 1000 Ang^3
#
#
#
# Elastic Constant Matrix: (Units=GPa)
#
#
# Indices 1 2 3 4 5 6 
#
# 1 76.5325 22.0968 40.3885 0.0000 0.0000 0.0000
# 2 22.0968 60.2763 41.5208 0.0000 0.0000 0.0000
# 3 40.3885 41.5208 96.2454 0.0000 0.0000 0.0000
# 4 0.0000 0.0000 0.0000 28.9968 0.0000 0.0000
# 5 0.0000 0.0000 0.0000 0.0000 25.3466 0.0000
# 6 0.0000 0.0000 0.0000 0.0000 0.0000 21.4494
#
#
#
# Elastic Compliance Matrix: (Units=1/GPa)
#
#
# Indices 1 2 3 4 5 6 
#
# 1 0.016930 -0.001867 -0.006299 0.000000 0.000000 0.000000
# 2 -0.001867 0.023811 -0.009489 0.000000 0.000000 0.000000
# 3 -0.006299 -0.009489 0.017127 0.000000 0.000000 0.000000
# 4 0.000000 0.000000 0.000000 0.034487 0.000000 0.000000
# 5 0.000000 0.000000 0.000000 0.000000 0.039453 0.000000
# 6 0.000000 0.000000 0.000000 0.000000 0.000000 0.046621
#
#
# Mechanical properties :
#
#
# Convention : Reuss Voigt Hill
#
# Bulk Modulus (GPa) = 44.33042 49.00736 46.66889
# Shear Modulus (GPa) = 22.59820 23.76178 23.17999
#
# Velocity S-wave (km/s) = 3.52978 3.61952 3.57493
# Velocity P-wave (km/s) = 6.40732 6.66991 6.53994
#
# Compressibility (1/GPa) = 0.02255787
#
# Stress axis : x y z
#
# Youngs Moduli (GPa) = 59.06839 41.99755 58.38841
#
# Poissons Ratio (x) = 0.07843 0.36777
# Poissons Ratio (y) = 0.11031 0.55402
# Poissons Ratio (z) = 0.37205 0.39849
#
# Static dielectric constant tensor:
#      x y z
#    x 3.073410 0.000000 0.000000 
#    y 0.000000 3.410970 0.000000 
#    z 0.000000 0.000000 3.455100 
# 
# 
# High freq. dielectric constant tensor:
#      x y z
#    x 1.684930 0.000000 0.000000 
#    y 0.000000 1.700730 0.000000 
#    z 0.000000 0.000000 1.702710 
# 
# From -- ./inp_files/29338.got.cif
#   From: 2010.03.12/outbox.cif.g09.slc.cpg/sg65_15_cif.got.tgz:29338.got - 2010.04.10 20:52:16.
