data_PCOD8273101
_publ_section_title
;
Structure prediction by ZEFSAII (Michael W. Deem and Ramdas Pophale) SiO2 
 PCOD8273101
Probable space group: C M M M
;
_chemical_formula_sum "Si O2"
_cell_formula_units_Z 88
_cell_length_a 19.265582
_cell_length_b 8.814857
_cell_length_c 27.495496
_cell_angle_alpha 90.000000
_cell_angle_beta 90.000000
_cell_angle_gamma 90.000000
_cell_volume 4669.377250
_symmetry_space_group_name_H-M "C M M M"
_symmetry_group_IT_number 65
_symmetry_cell_setting 'orthorhombic'
loop_
_space_group_symop_operation_xyz
x,y,z
-x,-y,z
x,-y,-z
-x,y,-z
-x,-y,-z
x,y,-z
-x,y,z
x,-y,z
1/2+x,1/2+y,z
1/2-x,1/2-y,z
1/2+x,1/2-y,-z
1/2-x,1/2+y,-z
1/2-x,1/2-y,-z
1/2+x,1/2+y,-z
1/2-x,1/2+y,z
1/2+x,1/2-y,z
loop_
_atom_site_type_symbol
_atom_site_label
_atom_site_fract_x
_atom_site_fract_y
_atom_site_fract_z
Si Si1 0.322232 0.320197 0.261239
Si Si2 0.419675 0.321612 0.082579
Si Si3 0.326676 0.819883 0.000000
Si Si4 0.081347 0.327105 0.445326
Si Si5 0.179732 0.176395 0.371781
Si Si6 0.581017 0.826956 0.815926
O O1 0.320580 0.500000 0.254653
O O2 0.250000 0.250000 0.242762
O O3 0.336328 0.269968 0.316852
O O4 0.383512 0.249248 0.230128
O O5 0.500000 0.281554 0.070642
O O6 0.406457 0.500000 0.077214
O O7 0.369089 0.232643 0.046957
O O8 0.399717 0.269284 0.136512
O O9 0.250000 0.750000 0.000000
O O10 0.320004 0.000000 0.000000
O O11 0.104286 0.282293 0.500000
O O12 0.102655 0.500000 0.434523
O O13 0.116747 0.218530 0.406574
O O14 0.000000 0.304696 0.439435
O O15 0.250000 0.250000 0.391917
O O16 0.191802 0.000000 0.372907
O O17 0.500000 0.820303 0.805267
O O18 0.606174 0.000000 0.823036
#
# Coordination Sequence:
#
# PCOD8273101 Si02
#       6
#    16  16   8  16  16  16
#     4  10  21  37  56  79 109 144 182 224 272 324
#     4  10  21  39  62  86 114 148 185 226 274 326
#     4  12  25  40  59  85 117 149 187 232 275 324
#     4   9  19  36  56  78 106 140 177 219 269 323
#     4  10  21  36  55  79 107 141 181 224 269 321
#     4  10  21  37  58  85 114 145 184 226 269 321
#
# _framework density 18.846195999999999
#
# number of rings (size 3 to 8) (size 9 to 14) (size 15 to 20)
#    0.000    2.000    0.000    3.818    0.000    8.000 
#    0.000    8.182    0.000    0.000    0.000    0.000 
#    0.000    0.000    0.000    0.000    0.000    0.000 
#
# Total GULP energy -545743.957892 kJ/mol
# GULP energy per Si atom -12403.271770 kJ/mol
# Density = 1.880330 g / cm^3
# Si number density = 18.846196 Si / 1000 Ang^3
#
#
#
# Elastic Constant Matrix: (Units=GPa)
#
#
# Indices 1 2 3 4 5 6 
#
# 1 79.2973 47.1356 62.2970 0.0000 0.0000 0.0000
# 2 47.1356 99.7306 46.8309 0.0000 0.0000 0.0000
# 3 62.2970 46.8309 105.9429 0.0000 0.0000 0.0000
# 4 0.0000 0.0000 0.0000 37.6503 0.0000 0.0000
# 5 0.0000 0.0000 0.0000 0.0000 136.5615 0.0000
# 6 0.0000 0.0000 0.0000 0.0000 0.0000 37.0800
#
#
#
# Elastic Compliance Matrix: (Units=1/GPa)
#
#
# Indices 1 2 3 4 5 6 
#
# 1 0.026451 -0.006559 -0.012655 0.000000 0.000000 0.000000
# 2 -0.006559 0.014280 -0.002455 0.000000 0.000000 0.000000
# 3 -0.012655 -0.002455 0.017966 0.000000 0.000000 0.000000
# 4 0.000000 0.000000 0.000000 0.026560 0.000000 0.000000
# 5 0.000000 0.000000 0.000000 0.000000 0.007323 0.000000
# 6 0.000000 0.000000 0.000000 0.000000 0.000000 0.026969
#
#
# Mechanical properties :
#
#
# Convention : Reuss Voigt Hill
#
# Bulk Modulus (GPa) = 65.11023 66.38865 65.74944
# Shear Modulus (GPa) = 29.76073 50.83885 40.29979
#
# Velocity S-wave (km/s) = 3.97815 5.19944 4.62925
# Velocity P-wave (km/s) = 7.46486 8.44681 7.97097
#
# Compressibility (1/GPa) = 0.01535857
#
# Stress axis : x y z
#
# Youngs Moduli (GPa) = 37.80523 70.02739 55.66216
#
# Poissons Ratio (x) = 0.45934 0.70438
# Poissons Ratio (y) = 0.24798 0.13666
# Poissons Ratio (z) = 0.47841 0.17193
#
# Static dielectric constant tensor:
#      x y z
#    x 3.419180 0.000000 0.000000 
#    y 0.000000 3.579840 0.000000 
#    z 0.000000 0.000000 3.539910 
# 
# 
# High freq. dielectric constant tensor:
#      x y z
#    x 1.730240 0.000000 0.000000 
#    y 0.000000 1.744770 0.000000 
#    z 0.000000 0.000000 1.738930 
# 
# From -- ./inp_files/67569.got.cif
#   From: 2010.03.12/outbox.cif.g09.slc.cpg/sg65_34_cif.got.tgz:67569.got - 2010.04.10 20:52:16.
