data_PCOD8273573
_publ_section_title
;
Structure prediction by ZEFSAII (Michael W. Deem and Ramdas Pophale) SiO2 
 PCOD8273573
Probable space group: C M M M
;
_chemical_formula_sum "Si O2"
_cell_formula_units_Z 88
_cell_length_a 8.847054
_cell_length_b 17.829843
_cell_length_c 28.810347
_cell_angle_alpha 90.000000
_cell_angle_beta 90.000000
_cell_angle_gamma 90.000000
_cell_volume 4544.589767
_symmetry_space_group_name_H-M "C M M M"
_symmetry_group_IT_number 65
_symmetry_cell_setting 'orthorhombic'
loop_
_space_group_symop_operation_xyz
x,y,z
-x,-y,z
x,-y,-z
-x,y,-z
-x,-y,-z
x,y,-z
-x,y,z
x,-y,z
1/2+x,1/2+y,z
1/2-x,1/2-y,z
1/2+x,1/2-y,-z
1/2-x,1/2+y,-z
1/2-x,1/2-y,-z
1/2+x,1/2+y,-z
1/2-x,1/2+y,z
1/2+x,1/2-y,z
loop_
_atom_site_type_symbol
_atom_site_label
_atom_site_fract_x
_atom_site_fract_y
_atom_site_fract_z
Si Si1 0.823705 0.168526 0.449714
Si Si2 0.322850 0.913624 0.168827
Si Si3 0.675788 0.170179 0.259990
Si Si4 0.171358 0.411380 0.000000
Si Si5 0.822684 0.668478 0.361432
Si Si6 0.679183 0.330888 0.084739
O O1 0.794506 0.128426 0.500000
O O2 0.750000 0.250000 0.451843
O O3 0.750142 0.123648 0.405626
O O4 0.000000 0.177079 0.440341
O O5 0.500000 0.900588 0.158986
O O6 0.277458 0.889622 0.220935
O O7 0.225976 0.862925 0.134466
O O8 0.278529 0.000000 0.162081
O O9 0.500000 0.187199 0.258215
O O10 0.750000 0.250000 0.250124
O O11 0.717196 0.134185 0.310607
O O12 0.259280 0.385629 0.045436
O O13 0.168169 0.500000 0.000000
O O14 0.000000 0.379495 0.000000
O O15 0.750000 0.750000 0.361402
O O16 0.000000 0.672825 0.369538
O O17 0.500000 0.325030 0.081512
O O18 0.750000 0.250000 0.076689
#
# Coordination Sequence:
#
# PCOD8273573 Si02
#       6
#    16  16  16   8  16  16
#     4   9  15  21  30  47  74 109 148 188 234 290
#     4  10  21  38  58  80 109 143 178 218 267 320
#     4   9  18  31  48  71  97 129 168 209 254 305
#     4  11  24  43  66  91 121 155 188 223 268 317
#     4   9  15  23  36  55  81 113 152 195 240 292
#     4  12  25  41  62  88 118 149 186 228 268 313
#
# _framework density 19.363683999999999
#
# number of rings (size 3 to 8) (size 9 to 14) (size 15 to 20)
#    0.000    2.091    0.000    5.455    0.000    7.273 
#    0.000    0.000    0.000    0.000    0.000    0.000 
#    0.000    0.727    0.000    9.091    0.000    4.909 
#
# Total GULP energy -545242.871464 kJ/mol
# GULP energy per Si atom -12391.883442 kJ/mol
# Density = 1.931961 g / cm^3
# Si number density = 19.363684 Si / 1000 Ang^3
#
#
#
# Elastic Constant Matrix: (Units=GPa)
#
#
# Indices 1 2 3 4 5 6 
#
# 1 114.8646 25.5924 62.1724 0.0000 0.0000 0.0000
# 2 25.5924 50.4491 23.7281 0.0000 0.0000 0.0000
# 3 62.1724 23.7281 161.6302 0.0000 0.0000 0.0000
# 4 0.0000 0.0000 0.0000 6.9975 0.0000 0.0000
# 5 0.0000 0.0000 0.0000 0.0000 -447.0647 0.0000
# 6 0.0000 0.0000 0.0000 0.0000 0.0000 17.2105
#
#
#
# Elastic Compliance Matrix: (Units=1/GPa)
#
#
# Indices 1 2 3 4 5 6 
#
# 1 0.011740 -0.004116 -0.003912 0.000000 0.000000 0.000000
# 2 -0.004116 0.022735 -0.001754 0.000000 0.000000 0.000000
# 3 -0.003912 -0.001754 0.007949 0.000000 0.000000 0.000000
# 4 0.000000 0.000000 0.000000 0.142908 0.000000 0.000000
# 5 0.000000 0.000000 0.000000 0.000000 -0.002237 0.000000
# 6 0.000000 0.000000 0.000000 0.000000 0.000000 0.058104
#
#
# Mechanical properties :
#
#
# Convention : Reuss Voigt Hill
#
# Bulk Modulus (GPa) = 43.74371 61.10330 52.42351
# Shear Modulus (GPa) = 18.63001 -70.20793 -25.78896
#
# Velocity S-wave (km/s) = 3.10516 -6.02795 -3.65337
# Velocity P-wave (km/s) = 5.95782 4.10173 3.05544
#
# Compressibility (1/GPa) = 0.02286043
#
# Stress axis : x y z
#
# Youngs Moduli (GPa) = 85.17710 43.98493 125.79876
#
# Poissons Ratio (x) = 0.18104 0.49209
# Poissons Ratio (y) = 0.35058 0.22070
# Poissons Ratio (z) = 0.33319 0.07717
#
# Static dielectric constant tensor:
#      x y z
#    x 3.647480 0.000000 0.000000 
#    y 0.000000 3.078910 0.000000 
#    z 0.000000 0.000000 4.924490 
# 
# 
# High freq. dielectric constant tensor:
#      x y z
#    x 1.760780 0.000000 0.000000 
#    y 0.000000 1.695890 0.000000 
#    z 0.000000 0.000000 1.790870 
# 
# From -- ./inp_files/76534.got.cif
#   From: 2010.03.12/outbox.cif.g09.slc.cpg/sg65_39_cif.got.tgz:76534.got - 2010.04.10 20:52:16.
