data_PCOD8273249
_publ_section_title
;
Structure prediction by ZEFSAII (Michael W. Deem and Ramdas Pophale) SiO2 
 PCOD8273249
Probable space group: C M M M
;
_chemical_formula_sum "Si O2"
_cell_formula_units_Z 72
_cell_length_a 9.048406
_cell_length_b 25.487444
_cell_length_c 19.554930
_cell_angle_alpha 90.000000
_cell_angle_beta 90.000000
_cell_angle_gamma 90.000000
_cell_volume 4509.772451
_symmetry_space_group_name_H-M "C M M M"
_symmetry_group_IT_number 65
_symmetry_cell_setting 'orthorhombic'
loop_
_space_group_symop_operation_xyz
x,y,z
-x,-y,z
x,-y,-z
-x,y,-z
-x,-y,-z
x,y,-z
-x,y,z
x,-y,z
1/2+x,1/2+y,z
1/2-x,1/2-y,z
1/2+x,1/2-y,-z
1/2-x,1/2+y,-z
1/2-x,1/2-y,-z
1/2+x,1/2+y,-z
1/2-x,1/2+y,z
1/2+x,1/2-y,z
loop_
_atom_site_type_symbol
_atom_site_label
_atom_site_fract_x
_atom_site_fract_y
_atom_site_fract_z
Si Si1 0.830921 0.500000 0.580975
Si Si2 0.674741 0.401489 0.352510
Si Si3 0.328145 0.804542 0.420747
Si Si4 0.332329 0.062333 0.925690
Si Si5 0.328193 0.559183 0.205775
O O1 0.827539 0.500000 0.500000
O O2 0.747108 0.551121 0.606666
O O3 0.000000 0.500000 0.607652
O O4 0.500000 0.401733 0.367003
O O5 0.746700 0.347623 0.375841
O O6 0.710094 0.406634 0.272115
O O7 0.309234 0.819516 0.500000
O O8 0.500000 0.801162 0.400573
O O9 0.250000 0.750000 0.403857
O O10 0.500000 0.080935 0.917857
O O11 0.243337 0.086006 0.861483
O O12 0.319753 0.000000 0.923391
O O13 0.271048 0.081850 0.000000
O O14 0.500000 0.557386 0.191607
O O15 0.268133 0.500000 0.218268
#
# Coordination Sequence:
#
# PCOD8273249 Si02
#       5
#     8  16  16  16  16
#     4  11  23  35  47  67  94 125 162 199 235 284
#     4  11  21  34  50  70  97 127 159 197 240 286
#     4  10  21  37  55  74  94 119 156 200 245 291
#     4   8  14  24  38  58  84 116 155 193 227 267
#     4   9  17  29  42  61  91 124 158 191 228 276
#
# _framework density 15.96533
#
# number of rings (size 3 to 8) (size 9 to 14) (size 15 to 20)
#    0.000    2.333    1.111    3.000    0.000    7.111 
#    0.000    2.222    0.000    0.000    0.000    0.000 
#    0.000    0.889    0.000    2.889    0.000    4.222 
#
# Total GULP energy -446284.512596 kJ/mol
# GULP energy per Si atom -12396.792017 kJ/mol
# Density = 1.592899 g / cm^3
# Si number density = 15.965330 Si / 1000 Ang^3
#
#
#
# Elastic Constant Matrix: (Units=GPa)
#
#
# Indices 1 2 3 4 5 6 
#
# 1 101.4979 50.8730 72.8214 0.0000 0.0000 0.0000
# 2 50.8730 79.2764 58.8317 0.0000 0.0000 0.0000
# 3 72.8214 58.8317 128.8179 0.0000 0.0000 0.0000
# 4 0.0000 0.0000 0.0000 -13.7185 0.0000 0.0000
# 5 0.0000 0.0000 0.0000 0.0000 31.7546 0.0000
# 6 0.0000 0.0000 0.0000 0.0000 0.0000 31.6711
#
#
#
# Elastic Compliance Matrix: (Units=1/GPa)
#
#
# Indices 1 2 3 4 5 6 
#
# 1 0.018379 -0.006177 -0.007568 0.000000 0.000000 0.000000
# 2 -0.006177 0.021158 -0.006171 0.000000 0.000000 0.000000
# 3 -0.007568 -0.006171 0.014859 0.000000 0.000000 0.000000
# 4 0.000000 0.000000 0.000000 -0.072894 0.000000 0.000000
# 5 0.000000 0.000000 0.000000 0.000000 0.031492 0.000000
# 6 0.000000 0.000000 0.000000 0.000000 0.000000 0.031574
#
#
# Mechanical properties :
#
#
# Convention : Reuss Voigt Hill
#
# Bulk Modulus (GPa) = 68.66724 74.96048 71.81386
# Shear Modulus (GPa) = 56.01958 18.41251 37.21605
#
# Velocity S-wave (km/s) = 5.92996 3.39968 4.83334
# Velocity P-wave (km/s) = 9.48628 7.90344 8.73081
#
# Compressibility (1/GPa) = 0.01456299
#
# Stress axis : x y z
#
# Youngs Moduli (GPa) = 54.41082 47.26456 67.29722
#
# Poissons Ratio (x) = 0.29197 0.50933
# Poissons Ratio (y) = 0.33612 0.41526
# Poissons Ratio (z) = 0.41180 0.29165
#
# Static dielectric constant tensor:
#      x y z
#    x 3.198970 0.000000 0.000000 
#    y 0.000000 2.623480 0.000000 
#    z 0.000000 0.000000 3.408030 
# 
# 
# High freq. dielectric constant tensor:
#      x y z
#    x 1.625270 0.000000 0.000000 
#    y 0.000000 1.566710 0.000000 
#    z 0.000000 0.000000 1.622470 
# 
# From -- ./inp_files/49702.got.cif
#   From: 2010.03.12/outbox.cif.g09.slc.cpg/sg65_25_cif.got.tgz:49702.got - 2010.04.10 20:52:16.
