data_PCOD8273579
_publ_section_title
;
Structure prediction by ZEFSAII (Michael W. Deem and Ramdas Pophale) SiO2 
 PCOD8273579
Probable space group: C M M M
;
_chemical_formula_sum "Si O2"
_cell_formula_units_Z 72
_cell_length_a 18.962935
_cell_length_b 22.999084
_cell_length_c 7.926050
_cell_angle_alpha 90.000000
_cell_angle_beta 90.000000
_cell_angle_gamma 90.000000
_cell_volume 3456.789256
_symmetry_space_group_name_H-M "C M M M"
_symmetry_group_IT_number 65
_symmetry_cell_setting 'orthorhombic'
loop_
_space_group_symop_operation_xyz
x,y,z
-x,-y,z
x,-y,-z
-x,y,-z
-x,-y,-z
x,y,-z
-x,y,z
x,-y,z
1/2+x,1/2+y,z
1/2-x,1/2-y,z
1/2+x,1/2-y,-z
1/2-x,1/2+y,-z
1/2-x,1/2-y,-z
1/2+x,1/2+y,-z
1/2-x,1/2+y,z
1/2+x,1/2-y,z
loop_
_atom_site_type_symbol
_atom_site_label
_atom_site_fract_x
_atom_site_fract_y
_atom_site_fract_z
Si Si1 0.582265 0.063308 0.500000
Si Si2 0.649237 0.872382 0.807543
Si Si3 0.920542 0.254279 0.193909
Si Si4 0.286331 0.433229 0.700830
Si Si5 0.922799 0.870628 0.692894
O O1 0.500000 0.057371 0.500000
O O2 0.603486 0.093067 0.326525
O O3 0.619000 0.000000 0.500000
O O4 0.636524 0.804368 0.765872
O O5 0.730423 0.890604 0.789208
O O6 0.623852 0.885250 0.000000
O O7 0.899512 0.196765 0.296606
O O8 0.000000 0.275465 0.243019
O O9 0.917832 0.236264 0.000000
O O10 0.279237 0.425758 0.500000
O O11 0.274354 0.500000 0.755658
O O12 0.362717 0.412462 0.770186
O O13 0.930267 0.888279 0.500000
O O14 0.000000 0.879837 0.781178
#
# Coordination Sequence:
#
# PCOD8273579 Si02
#       5
#     8  16  16  16  16
#     4  11  24  40  60  87 119 159 204 251 301 349
#     4  11  23  39  61  89 121 159 202 245 297 359
#     4   9  19  36  57  83 117 154 192 242 301 355
#     4  10  21  38  58  82 119 162 202 249 303 356
#     4   9  19  35  58  88 117 152 199 248 301 361
#
# _framework density 20.828576000000002
#
# number of rings (size 3 to 8) (size 9 to 14) (size 15 to 20)
#    0.000    2.111    1.111    1.333    1.556    5.333 
#    0.000    7.778    0.000    0.000    0.000    4.667 
#    0.000    0.000    0.000    0.000    0.000    0.000 
#
# Total GULP energy -446207.575995 kJ/mol
# GULP energy per Si atom -12394.654889 kJ/mol
# Density = 2.078117 g / cm^3
# Si number density = 20.828576 Si / 1000 Ang^3
#
#
#
# Elastic Constant Matrix: (Units=GPa)
#
#
# Indices 1 2 3 4 5 6 
#
# 1 116.6350 59.2229 15.5267 0.0000 0.0000 0.0000
# 2 59.2229 84.8989 10.9455 0.0000 0.0000 0.0000
# 3 15.5267 10.9455 65.5570 0.0000 0.0000 0.0000
# 4 0.0000 0.0000 0.0000 -10.2562 0.0000 0.0000
# 5 0.0000 0.0000 0.0000 0.0000 18.2414 0.0000
# 6 0.0000 0.0000 0.0000 0.0000 0.0000 91.2884
#
#
#
# Elastic Compliance Matrix: (Units=1/GPa)
#
#
# Indices 1 2 3 4 5 6 
#
# 1 0.013450 -0.009169 -0.001655 0.000000 0.000000 0.000000
# 2 -0.009169 0.018288 -0.000882 0.000000 0.000000 0.000000
# 3 -0.001655 -0.000882 0.015793 0.000000 0.000000 0.000000
# 4 0.000000 0.000000 0.000000 -0.097502 0.000000 0.000000
# 5 0.000000 0.000000 0.000000 0.000000 0.054820 0.000000
# 6 0.000000 0.000000 0.000000 0.000000 0.000000 0.010954
#
#
# Mechanical properties :
#
#
# Convention : Reuss Voigt Hill
#
# Bulk Modulus (GPa) = 41.45863 48.72012 45.08937
# Shear Modulus (GPa) = 105.81221 31.94778 68.87999
#
# Velocity S-wave (km/s) = 7.13525 3.92068 5.75689
# Velocity P-wave (km/s) = 9.37178 6.62853 8.11689
#
# Compressibility (1/GPa) = 0.02412043
#
# Stress axis : x y z
#
# Youngs Moduli (GPa) = 74.35201 54.68002 63.31904
#
# Poissons Ratio (x) = 0.50134 0.10477
# Poissons Ratio (y) = 0.68171 0.05584
# Poissons Ratio (z) = 0.12302 0.04822
#
# Static dielectric constant tensor:
#      x y z
#    x 4.070900 0.000000 0.000000 
#    y 0.000000 3.780610 0.000000 
#    z 0.000000 0.000000 3.666160 
# 
# 
# High freq. dielectric constant tensor:
#      x y z
#    x 1.816850 0.000000 0.000000 
#    y 0.000000 1.811700 0.000000 
#    z 0.000000 0.000000 1.804190 
# 
# From -- ./inp_files/11245.got.cif
#   From: 2010.03.12/outbox.cif.g09.slc.cpg/sg65_6_cif.got.tgz:11245.got - 2010.04.10 20:52:16.
