data_PCOD8273475
_publ_section_title
;
Structure prediction by ZEFSAII (Michael W. Deem and Ramdas Pophale) SiO2 
 PCOD8273475
Probable space group: C M M M
;
_chemical_formula_sum "Si O2"
_cell_formula_units_Z 80
_cell_length_a 8.853767
_cell_length_b 18.382284
_cell_length_c 25.008027
_cell_angle_alpha 90.000000
_cell_angle_beta 90.000000
_cell_angle_gamma 90.000000
_cell_volume 4070.117901
_symmetry_space_group_name_H-M "C M M M"
_symmetry_group_IT_number 65
_symmetry_cell_setting 'orthorhombic'
loop_
_space_group_symop_operation_xyz
x,y,z
-x,-y,z
x,-y,-z
-x,y,-z
-x,-y,-z
x,y,-z
-x,y,z
x,-y,z
1/2+x,1/2+y,z
1/2-x,1/2-y,z
1/2+x,1/2-y,-z
1/2-x,1/2+y,-z
1/2-x,1/2-y,-z
1/2+x,1/2+y,-z
1/2-x,1/2+y,z
1/2+x,1/2-y,z
loop_
_atom_site_type_symbol
_atom_site_label
_atom_site_fract_x
_atom_site_fract_y
_atom_site_fract_z
Si Si1 0.824108 0.583488 0.351319
Si Si2 0.323711 0.825855 0.937820
Si Si3 0.322772 0.675218 0.561011
Si Si4 0.678823 0.828897 0.752941
Si Si5 0.823616 0.915188 0.849468
O O1 0.784349 0.500000 0.340019
O O2 0.734204 0.608529 0.403589
O O3 0.769762 0.628929 0.300199
O O4 0.000000 0.595016 0.362537
O O5 0.500000 0.823030 0.923946
O O6 0.250000 0.750000 0.919563
O O7 0.243567 0.891043 0.906387
O O8 0.294316 0.840771 0.000000
O O9 0.273924 0.659691 0.500000
O O10 0.500000 0.683248 0.566883
O O11 0.250000 0.750000 0.582054
O O12 0.500000 0.822542 0.757158
O O13 0.750000 0.750000 0.751235
O O14 0.738175 0.872213 0.803556
O O15 0.000000 0.896906 0.847322
O O16 0.791662 0.000000 0.841875
#
# Coordination Sequence:
#
# PCOD8273475 Si02
#       5
#    16  16  16  16  16
#     4  10  22  39  59  85 116 150 188 232 284 338
#     4  10  21  38  61  87 116 152 193 236 282 334
#     4  10  21  37  58  84 114 150 192 236 282 334
#     4  11  23  40  62  86 114 148 189 235 282 337
#     4  11  24  40  59  85 117 152 190 234 285 338
#
# _framework density 19.655450999999999
#
# number of rings (size 3 to 8) (size 9 to 14) (size 15 to 20)
#    0.000    1.600    0.000    4.200    0.000    9.200 
#    0.000    4.000    0.000    0.000    0.000    0.000 
#    0.000    0.000    0.000    0.000    0.000    0.000 
#
# Total GULP energy -496273.797217 kJ/mol
# GULP energy per Si atom -12406.844930 kJ/mol
# Density = 1.961071 g / cm^3
# Si number density = 19.655451 Si / 1000 Ang^3
#
#
#
# Elastic Constant Matrix: (Units=GPa)
#
#
# Indices 1 2 3 4 5 6 
#
# 1 88.5161 60.6504 50.4189 0.0000 0.0000 0.0000
# 2 60.6504 134.3418 71.2670 0.0000 0.0000 0.0000
# 3 50.4189 71.2670 111.1363 0.0000 0.0000 0.0000
# 4 0.0000 0.0000 0.0000 31.5920 0.0000 0.0000
# 5 0.0000 0.0000 0.0000 0.0000 32.1924 0.0000
# 6 0.0000 0.0000 0.0000 0.0000 0.0000 31.8708
#
#
#
# Elastic Compliance Matrix: (Units=1/GPa)
#
#
# Indices 1 2 3 4 5 6 
#
# 1 0.017669 -0.005645 -0.004396 0.000000 0.000000 0.000000
# 2 -0.005645 0.013085 -0.005830 0.000000 0.000000 0.000000
# 3 -0.004396 -0.005830 0.014731 0.000000 0.000000 0.000000
# 4 0.000000 0.000000 0.000000 0.031654 0.000000 0.000000
# 5 0.000000 0.000000 0.000000 0.000000 0.031063 0.000000
# 6 0.000000 0.000000 0.000000 0.000000 0.000000 0.031377
#
#
# Mechanical properties :
#
#
# Convention : Reuss Voigt Hill
#
# Bulk Modulus (GPa) = 72.76373 77.62964 75.19668
# Shear Modulus (GPa) = 28.42506 29.24157 28.83332
#
# Velocity S-wave (km/s) = 3.80698 3.86127 3.83422
# Velocity P-wave (km/s) = 7.51160 7.71104 7.61197
#
# Compressibility (1/GPa) = 0.01374311
#
# Stress axis : x y z
#
# Youngs Moduli (GPa) = 56.59547 76.42431 67.88520
#
# Poissons Ratio (x) = 0.43141 0.29843
# Poissons Ratio (y) = 0.31948 0.39576
# Poissons Ratio (z) = 0.24880 0.44554
#
# Static dielectric constant tensor:
#      x y z
#    x 3.665280 0.000000 0.000000 
#    y 0.000000 3.618950 0.000000 
#    z 0.000000 0.000000 3.707730 
# 
# 
# High freq. dielectric constant tensor:
#      x y z
#    x 1.777070 0.000000 0.000000 
#    y 0.000000 1.771310 0.000000 
#    z 0.000000 0.000000 1.778170 
# 
# From -- ./inp_files/72814.got.cif
#   From: 2010.03.12/outbox.cif.g09.slc.cpg/sg65_37_cif.got.tgz:72814.got - 2010.04.10 20:52:16.
