data_PCOD8273850
_publ_section_title
;
Structure prediction by ZEFSAII (Michael W. Deem and Ramdas Pophale) SiO2 
 PCOD8273850
Probable space group: C M M M
;
_chemical_formula_sum "Si O2"
_cell_formula_units_Z 72
_cell_length_a 9.174955
_cell_length_b 18.628476
_cell_length_c 19.979371
_cell_angle_alpha 90.000000
_cell_angle_beta 90.000000
_cell_angle_gamma 90.000000
_cell_volume 3414.782766
_symmetry_space_group_name_H-M "C M M M"
_symmetry_group_IT_number 65
_symmetry_cell_setting 'orthorhombic'
loop_
_space_group_symop_operation_xyz
x,y,z
-x,-y,z
x,-y,-z
-x,y,-z
-x,-y,-z
x,y,-z
-x,y,z
x,-y,z
1/2+x,1/2+y,z
1/2-x,1/2-y,z
1/2+x,1/2-y,-z
1/2-x,1/2+y,-z
1/2-x,1/2-y,-z
1/2+x,1/2+y,-z
1/2-x,1/2+y,z
1/2+x,1/2-y,z
loop_
_atom_site_type_symbol
_atom_site_label
_atom_site_fract_x
_atom_site_fract_y
_atom_site_fract_z
Si Si1 0.669449 0.584711 0.816502
Si Si2 0.500000 0.578521 0.577825
Si Si3 0.171207 0.323175 0.922245
Si Si4 0.659172 0.177133 0.284495
Si Si5 0.220874 0.667141 0.573056
O O1 0.500000 0.607888 0.817859
O O2 0.686034 0.500000 0.815108
O O3 0.752824 0.612812 0.882110
O O4 0.747681 0.615169 0.750492
O O5 0.500000 0.500000 0.614097
O O6 0.500000 0.564589 0.500000
O O7 0.362818 0.625383 0.598020
O O8 0.250000 0.250000 0.899463
O O9 0.000000 0.317994 0.905809
O O10 0.198613 0.338689 0.000000
O O11 0.500000 0.185519 0.249511
O O12 0.750000 0.250000 0.278746
O O13 0.619948 0.157366 0.362154
O O14 0.161458 0.637859 0.500000
O O15 0.250000 0.750000 0.561203
#
# Coordination Sequence:
#
# PCOD8273850 Si02
#       5
#    16   8  16  16  16
#     4  11  25  43  63  88 122 165 210 257 307 364
#     4   9  18  34  56  84 117 155 196 244 309 378
#     4  10  21  39  66  98 131 166 203 247 299 359
#     4  11  24  40  62  88 120 161 205 257 314 375
#     4   9  20  35  58  89 120 155 202 259 316 378
#
# _framework density 21.084796999999998
#
# number of rings (size 3 to 8) (size 9 to 14) (size 15 to 20)
#    0.000    1.889    0.000    2.667    7.778    4.889 
#    0.000    2.222    0.000    0.000    0.000    4.667 
#    0.000    0.000    0.000    0.000    0.000    0.000 
#
# Total GULP energy -445998.800931 kJ/mol
# GULP energy per Si atom -12388.855581 kJ/mol
# Density = 2.103681 g / cm^3
# Si number density = 21.084797 Si / 1000 Ang^3
#
#
#
# Elastic Constant Matrix: (Units=GPa)
#
#
# Indices 1 2 3 4 5 6 
#
# 1 169.5001 70.8920 41.8124 0.0000 0.0000 0.0000
# 2 70.8920 118.7972 37.5353 0.0000 0.0000 0.0000
# 3 41.8124 37.5353 126.7242 0.0000 0.0000 0.0000
# 4 0.0000 0.0000 0.0000 27.7339 0.0000 0.0000
# 5 0.0000 0.0000 0.0000 0.0000 16.9899 0.0000
# 6 0.0000 0.0000 0.0000 0.0000 0.0000 34.3287
#
#
#
# Elastic Compliance Matrix: (Units=1/GPa)
#
#
# Indices 1 2 3 4 5 6 
#
# 1 0.008070 -0.004385 -0.001364 0.000000 0.000000 0.000000
# 2 -0.004385 0.011669 -0.002010 0.000000 0.000000 0.000000
# 3 -0.001364 -0.002010 0.008936 0.000000 0.000000 0.000000
# 4 0.000000 0.000000 0.000000 0.036057 0.000000 0.000000
# 5 0.000000 0.000000 0.000000 0.000000 0.058859 0.000000
# 6 0.000000 0.000000 0.000000 0.000000 0.000000 0.029130
#
#
# Mechanical properties :
#
#
# Convention : Reuss Voigt Hill
#
# Bulk Modulus (GPa) = 75.99370 79.50010 77.74690
# Shear Modulus (GPa) = 28.96459 33.46264 31.21361
#
# Velocity S-wave (km/s) = 3.71039 3.98810 3.85175
# Velocity P-wave (km/s) = 7.38080 7.68072 7.53225
#
# Compressibility (1/GPa) = 0.01315899
#
# Stress axis : x y z
#
# Youngs Moduli (GPa) = 123.91434 85.69474 111.90158
#
# Poissons Ratio (x) = 0.37576 0.15263
# Poissons Ratio (y) = 0.54335 0.22488
# Poissons Ratio (z) = 0.16901 0.17222
#
# Static dielectric constant tensor:
#      x y z
#    x 3.885820 0.000000 0.000000 
#    y 0.000000 3.746950 0.000000 
#    z 0.000000 0.000000 4.061580 
# 
# 
# High freq. dielectric constant tensor:
#      x y z
#    x 1.835370 0.000000 0.000000 
#    y 0.000000 1.810510 0.000000 
#    z 0.000000 0.000000 1.839590 
# 
# From -- ./inp_files/67091.got.cif
#   From: 2010.03.12/outbox.cif.g09.slc.cpg/sg65_34_cif.got.tgz:67091.got - 2010.04.10 20:52:16.
