data_PCOD8273160
_publ_section_title
;
Structure prediction by ZEFSAII (Michael W. Deem and Ramdas Pophale) SiO2 
 PCOD8273160
Probable space group: C M M M
;
_chemical_formula_sum "Si O2"
_cell_formula_units_Z 72
_cell_length_a 23.200371
_cell_length_b 9.211298
_cell_length_c 17.757450
_cell_angle_alpha 90.000000
_cell_angle_beta 90.000000
_cell_angle_gamma 90.000000
_cell_volume 3794.865281
_symmetry_space_group_name_H-M "C M M M"
_symmetry_group_IT_number 65
_symmetry_cell_setting 'orthorhombic'
loop_
_space_group_symop_operation_xyz
x,y,z
-x,-y,z
x,-y,-z
-x,y,-z
-x,-y,-z
x,y,-z
-x,y,z
x,-y,z
1/2+x,1/2+y,z
1/2-x,1/2-y,z
1/2+x,1/2-y,-z
1/2-x,1/2+y,-z
1/2-x,1/2-y,-z
1/2+x,1/2+y,-z
1/2-x,1/2+y,z
1/2+x,1/2-y,z
loop_
_atom_site_type_symbol
_atom_site_label
_atom_site_fract_x
_atom_site_fract_y
_atom_site_fract_z
Si Si1 0.108374 0.666621 0.086038
Si Si2 0.000000 0.827773 0.322523
Si Si3 0.500000 0.328569 0.148657
Si Si4 0.689790 0.169384 0.500000
Si Si5 0.386210 0.829739 0.357334
Si Si6 0.309083 0.831906 0.217263
O O1 0.089759 0.500000 0.100628
O O2 0.163641 0.707120 0.136438
O O3 0.055566 0.768365 0.106640
O O4 0.126585 0.692791 0.000000
O O5 0.000000 0.779112 0.235333
O O6 0.944515 0.761798 0.363671
O O7 0.000000 0.000000 0.331768
O O8 0.500000 0.500000 0.140910
O O9 0.750000 0.250000 0.500000
O O10 0.653825 0.214969 0.426837
O O11 0.703448 0.000000 0.500000
O O12 0.354041 0.783377 0.281022
O O13 0.401490 0.000000 0.358303
O O14 0.250000 0.750000 0.228658
O O15 0.294613 0.000000 0.225280
#
# Coordination Sequence:
#
# PCOD8273160 Si02
#       6
#    16   8   8   8  16  16
#     4  10  21  37  57  81 110 148 191 230 277 341
#     4  11  23  37  59  89 116 147 188 236 286 334
#     4  11  22  36  56  85 115 143 184 237 289 335
#     4  10  22  39  62  91 119 152 192 232 277 330
#     4  10  21  39  61  85 115 152 190 228 278 340
#     4  10  21  36  56  80 109 148 189 230 278 330
#
# _framework density 18.973004
#
# number of rings (size 3 to 8) (size 9 to 14) (size 15 to 20)
#    0.000    1.778    2.222    1.667    0.000    6.222 
#    0.000    2.222    0.000    0.000    0.000    0.000 
#    0.000    0.000    0.000    0.000    0.000    0.000 
#
# Total GULP energy -446594.280391 kJ/mol
# GULP energy per Si atom -12405.396678 kJ/mol
# Density = 1.892982 g / cm^3
# Si number density = 18.973004 Si / 1000 Ang^3
#
#
#
# Elastic Constant Matrix: (Units=GPa)
#
#
# Indices 1 2 3 4 5 6 
#
# 1 156.8707 65.6931 61.9043 0.0000 0.0000 0.0000
# 2 65.6931 63.3206 42.3604 0.0000 0.0000 0.0000
# 3 61.9043 42.3604 129.7997 0.0000 0.0000 0.0000
# 4 0.0000 0.0000 0.0000 20.3163 0.0000 0.0000
# 5 0.0000 0.0000 0.0000 0.0000 24.4469 0.0000
# 6 0.0000 0.0000 0.0000 0.0000 0.0000 37.7971
#
#
#
# Elastic Compliance Matrix: (Units=1/GPa)
#
#
# Indices 1 2 3 4 5 6 
#
# 1 0.011691 -0.010745 -0.002069 0.000000 0.000000 0.000000
# 2 -0.010745 0.030079 -0.004692 0.000000 0.000000 0.000000
# 3 -0.002069 -0.004692 0.010222 0.000000 0.000000 0.000000
# 4 0.000000 0.000000 0.000000 0.049222 0.000000 0.000000
# 5 0.000000 0.000000 0.000000 0.000000 0.040905 0.000000
# 6 0.000000 0.000000 0.000000 0.000000 0.000000 0.026457
#
#
# Mechanical properties :
#
#
# Convention : Reuss Voigt Hill
#
# Bulk Modulus (GPa) = 58.89127 76.65630 67.77378
# Shear Modulus (GPa) = 23.89529 28.51426 26.20478
#
# Velocity S-wave (km/s) = 3.55270 3.88091 3.72043
# Velocity P-wave (km/s) = 6.92357 7.78283 7.36574
#
# Compressibility (1/GPa) = 0.01698045
#
# Stress axis : x y z
#
# Youngs Moduli (GPa) = 85.53816 33.24621 97.82672
#
# Poissons Ratio (x) = 0.35722 0.20241
# Poissons Ratio (y) = 0.91907 0.45899
# Poissons Ratio (z) = 0.17698 0.15599
#
# Static dielectric constant tensor:
#      x y z
#    x 3.376180 0.000000 0.000000 
#    y 0.000000 3.381140 0.000000 
#    z 0.000000 0.000000 3.692930 
# 
# 
# High freq. dielectric constant tensor:
#      x y z
#    x 1.740860 0.000000 0.000000 
#    y 0.000000 1.730840 0.000000 
#    z 0.000000 0.000000 1.749340 
# 
# From -- ./inp_files/49541.got.cif
#   From: 2010.03.12/outbox.cif.g09.slc.cpg/sg65_25_cif.got.tgz:49541.got - 2010.04.10 20:52:16.
