data_PCOD8273541
_publ_section_title
;
Structure prediction by ZEFSAII (Michael W. Deem and Ramdas Pophale) SiO2 
 PCOD8273541
Probable space group: C M M M
;
_chemical_formula_sum "Si O2"
_cell_formula_units_Z 96
_cell_length_a 13.570635
_cell_length_b 22.431910
_cell_length_c 16.415769
_cell_angle_alpha 90.000000
_cell_angle_beta 90.000000
_cell_angle_gamma 90.000000
_cell_volume 4997.210637
_symmetry_space_group_name_H-M "C M M M"
_symmetry_group_IT_number 65
_symmetry_cell_setting 'orthorhombic'
loop_
_space_group_symop_operation_xyz
x,y,z
-x,-y,z
x,-y,-z
-x,y,-z
-x,-y,-z
x,y,-z
-x,y,z
x,-y,z
1/2+x,1/2+y,z
1/2-x,1/2-y,z
1/2+x,1/2-y,-z
1/2-x,1/2+y,-z
1/2-x,1/2-y,-z
1/2+x,1/2+y,-z
1/2-x,1/2+y,z
1/2+x,1/2-y,z
loop_
_atom_site_type_symbol
_atom_site_label
_atom_site_fract_x
_atom_site_fract_y
_atom_site_fract_z
Si Si1 0.112788 0.785108 0.668692
Si Si2 0.886903 0.568398 0.686276
Si Si3 0.700142 0.170230 0.593899
Si Si4 0.882650 0.618108 0.000000
Si Si5 0.115836 0.247004 0.000000
Si Si6 0.385981 0.669950 0.848262
Si Si7 0.229743 0.569164 0.151337
O O1 0.183788 0.828275 0.616404
O O2 0.140027 0.716881 0.649350
O O3 0.130857 0.795319 0.764149
O O4 0.000000 0.798746 0.644260
O O5 0.873963 0.500000 0.662017
O O6 0.843331 0.605170 0.610611
O O7 0.827601 0.585481 0.766711
O O8 0.000000 0.584986 0.701811
O O9 0.685697 0.187035 0.500000
O O10 0.843612 0.583679 0.921636
O O11 0.841850 0.685955 0.000000
O O12 0.000000 0.615404 0.000000
O O13 0.153667 0.212929 0.080305
O O14 0.000000 0.250896 0.000000
O O15 0.500000 0.653749 0.861480
O O16 0.328967 0.607547 0.851919
O O17 0.260351 0.500000 0.148281
#
# Coordination Sequence:
#
# PCOD8273541 Si02
#       7
#    16  16  16   8   8  16  16
#     4  10  21  37  60  89 122 157 193 238 297 357
#     4  10  22  40  60  83 116 155 194 242 297 353
#     4  11  23  38  60  89 119 151 195 248 298 359
#     4  11  24  38  59  88 120 159 197 240 292 347
#     4   9  21  37  56  89 123 152 190 232 281 337
#     4  10  21  39  61  87 120 156 194 239 290 349
#     4  11  23  39  59  85 116 154 200 244 287 343
#
# _framework density 19.210719000000001
#
# number of rings (size 3 to 8) (size 9 to 14) (size 15 to 20)
#    0.000    1.667    1.667    2.750    2.333    5.667 
#    0.000    0.833    0.000    3.000    0.000    1.167 
#    0.000    0.000    0.000    0.000    0.000    0.000 
#
# Total GULP energy -595348.415088 kJ/mol
# GULP energy per Si atom -12403.091981 kJ/mol
# Density = 1.916699 g / cm^3
# Si number density = 19.210719 Si / 1000 Ang^3
#
#
#
# Elastic Constant Matrix: (Units=GPa)
#
#
# Indices 1 2 3 4 5 6 
#
# 1 80.6475 25.1304 27.8661 0.0000 0.0000 0.0000
# 2 25.1304 76.7227 43.8561 0.0000 0.0000 0.0000
# 3 27.8661 43.8561 111.4312 0.0000 0.0000 0.0000
# 4 0.0000 0.0000 0.0000 24.7238 0.0000 0.0000
# 5 0.0000 0.0000 0.0000 0.0000 54.4734 0.0000
# 6 0.0000 0.0000 0.0000 0.0000 0.0000 33.5707
#
#
#
# Elastic Compliance Matrix: (Units=1/GPa)
#
#
# Indices 1 2 3 4 5 6 
#
# 1 0.014224 -0.003388 -0.002224 0.000000 0.000000 0.000000
# 2 -0.003388 0.017624 -0.006089 0.000000 0.000000 0.000000
# 3 -0.002224 -0.006089 0.011927 0.000000 0.000000 0.000000
# 4 0.000000 0.000000 0.000000 0.040447 0.000000 0.000000
# 5 0.000000 0.000000 0.000000 0.000000 0.018358 0.000000
# 6 0.000000 0.000000 0.000000 0.000000 0.000000 0.029788
#
#
# Mechanical properties :
#
#
# Convention : Reuss Voigt Hill
#
# Bulk Modulus (GPa) = 49.08372 51.38964 50.23668
# Shear Modulus (GPa) = 30.75794 34.01683 32.38739
#
# Velocity S-wave (km/s) = 4.00569 4.21256 4.11043
# Velocity P-wave (km/s) = 6.85564 7.10419 6.98102
#
# Compressibility (1/GPa) = 0.02037335
#
# Stress axis : x y z
#
# Youngs Moduli (GPa) = 70.30542 56.73961 83.84510
#
# Poissons Ratio (x) = 0.19223 0.18644
# Poissons Ratio (y) = 0.23819 0.51055
# Poissons Ratio (z) = 0.15633 0.34550
#
# Static dielectric constant tensor:
#      x y z
#    x 3.625150 0.000000 0.000000 
#    y 0.000000 3.487770 0.000000 
#    z 0.000000 0.000000 3.610170 
# 
# 
# High freq. dielectric constant tensor:
#      x y z
#    x 1.758000 0.000000 0.000000 
#    y 0.000000 1.743180 0.000000 
#    z 0.000000 0.000000 1.752840 
# 
# From -- ./inp_files/40433.got.cif
#   From: 2010.03.12/outbox.cif.g09.slc.cpg/sg65_21_cif.got.tgz:40433.got - 2010.04.10 20:52:16.
