data_PCOD8273578
_publ_section_title
;
Structure prediction by ZEFSAII (Michael W. Deem and Ramdas Pophale) SiO2 
 PCOD8273578
Probable space group: C M M M
;
_chemical_formula_sum "Si O2"
_cell_formula_units_Z 72
_cell_length_a 15.803325
_cell_length_b 8.845905
_cell_length_c 26.056048
_cell_angle_alpha 90.000000
_cell_angle_beta 90.000000
_cell_angle_gamma 90.000000
_cell_volume 3642.497716
_symmetry_space_group_name_H-M "C M M M"
_symmetry_group_IT_number 65
_symmetry_cell_setting 'orthorhombic'
loop_
_space_group_symop_operation_xyz
x,y,z
-x,-y,z
x,-y,-z
-x,y,-z
-x,-y,-z
x,y,-z
-x,y,z
x,-y,z
1/2+x,1/2+y,z
1/2-x,1/2-y,z
1/2+x,1/2-y,-z
1/2-x,1/2+y,-z
1/2-x,1/2-y,-z
1/2+x,1/2+y,-z
1/2-x,1/2+y,z
1/2+x,1/2-y,z
loop_
_atom_site_type_symbol
_atom_site_label
_atom_site_fract_x
_atom_site_fract_y
_atom_site_fract_z
Si Si1 0.000000 0.679432 0.267401
Si Si2 0.907068 0.340019 0.000000
Si Si3 0.341136 0.679187 0.790000
Si Si4 0.164001 0.822305 0.558273
Si Si5 0.337602 0.323523 0.906731
Si Si6 0.000000 0.178951 0.377319
O O1 0.915014 0.748644 0.243513
O O2 0.000000 0.500000 0.259702
O O3 0.000000 0.721851 0.326656
O O4 0.900332 0.241286 0.051355
O O5 0.852967 0.500000 0.000000
O O6 0.000000 0.399944 0.000000
O O7 0.337029 0.500000 0.780202
O O8 0.250000 0.750000 0.775181
O O9 0.364683 0.718403 0.848827
O O10 0.149409 0.765972 0.500000
O O11 0.250000 0.750000 0.581170
O O12 0.083036 0.772468 0.591082
O O13 0.175509 0.000000 0.560274
O O14 0.330407 0.500000 0.913164
O O15 0.250000 0.250000 0.921518
O O16 0.000000 0.000000 0.365054
#
# Coordination Sequence:
#
# PCOD8273578 Si02
#       6
#     8   8  16  16  16   8
#     4  12  26  41  61  88 121 160 202 251 303 357
#     4  11  24  37  52  81 117 151 184 225 276 337
#     4  10  22  42  66  91 117 152 198 248 303 360
#     4   9  18  34  58  87 118 155 197 241 292 348
#     4  10  21  38  61  84 110 144 183 230 283 345
#     4  10  21  38  58  82 117 159 200 245 294 351
#
# _framework density 19.766656999999999
#
# number of rings (size 3 to 8) (size 9 to 14) (size 15 to 20)
#    0.000    1.889    0.000    3.333    1.556    6.667 
#    0.000    2.222    0.000    3.333    0.000    0.000 
#    0.000    0.000    0.000    0.000    0.000    0.000 
#
# Total GULP energy -446245.340294 kJ/mol
# GULP energy per Si atom -12395.703897 kJ/mol
# Density = 1.972167 g / cm^3
# Si number density = 19.766657 Si / 1000 Ang^3
#
#
#
# Elastic Constant Matrix: (Units=GPa)
#
#
# Indices 1 2 3 4 5 6 
#
# 1 159.8569 60.7086 81.9157 0.0000 0.0000 0.0000
# 2 60.7086 82.2303 48.4832 0.0000 0.0000 0.0000
# 3 81.9157 48.4832 114.3079 0.0000 0.0000 0.0000
# 4 0.0000 0.0000 0.0000 30.7793 0.0000 0.0000
# 5 0.0000 0.0000 0.0000 0.0000 23.1774 0.0000
# 6 0.0000 0.0000 0.0000 0.0000 0.0000 30.4790
#
#
#
# Elastic Compliance Matrix: (Units=1/GPa)
#
#
# Indices 1 2 3 4 5 6 
#
# 1 0.011084 -0.004667 -0.005963 0.000000 0.000000 0.000000
# 2 -0.004667 0.018181 -0.004367 0.000000 0.000000 0.000000
# 3 -0.005963 -0.004367 0.014874 0.000000 0.000000 0.000000
# 4 0.000000 0.000000 0.000000 0.032489 0.000000 0.000000
# 5 0.000000 0.000000 0.000000 0.000000 0.043146 0.000000
# 6 0.000000 0.000000 0.000000 0.000000 0.000000 0.032809
#
#
# Mechanical properties :
#
#
# Convention : Reuss Voigt Hill
#
# Bulk Modulus (GPa) = 70.69978 82.06780 76.38379
# Shear Modulus (GPa) = 26.69611 27.90631 27.30121
#
# Velocity S-wave (km/s) = 3.67899 3.76145 3.72045
# Velocity P-wave (km/s) = 7.34108 7.77645 7.56190
#
# Compressibility (1/GPa) = 0.01414431
#
# Stress axis : x y z
#
# Youngs Moduli (GPa) = 90.22196 55.00181 67.23058
#
# Poissons Ratio (x) = 0.25668 0.40093
# Poissons Ratio (y) = 0.42105 0.29361
# Poissons Ratio (z) = 0.53804 0.24020
#
# Static dielectric constant tensor:
#      x y z
#    x 3.656410 0.000000 0.000000 
#    y 0.000000 3.658110 0.000000 
#    z 0.000000 0.000000 3.712650 
# 
# 
# High freq. dielectric constant tensor:
#      x y z
#    x 1.776440 0.000000 0.000000 
#    y 0.000000 1.780440 0.000000 
#    z 0.000000 0.000000 1.770100 
# 
# From -- ./inp_files/74672.got.cif
#   From: 2010.03.12/outbox.cif.g09.slc.cpg/sg65_38_cif.got.tgz:74672.got - 2010.04.10 20:52:16.
