data_PCOD8273833
_publ_section_title
;
Structure prediction by ZEFSAII (Michael W. Deem and Ramdas Pophale) SiO2 
 PCOD8273833
Probable space group: C M M M
;
_chemical_formula_sum "Si O2"
_cell_formula_units_Z 96
_cell_length_a 15.853914
_cell_length_b 15.638986
_cell_length_c 18.833453
_cell_angle_alpha 90.000000
_cell_angle_beta 90.000000
_cell_angle_gamma 90.000000
_cell_volume 4669.550123
_symmetry_space_group_name_H-M "C M M M"
_symmetry_group_IT_number 65
_symmetry_cell_setting 'orthorhombic'
loop_
_space_group_symop_operation_xyz
x,y,z
-x,-y,z
x,-y,-z
-x,y,-z
-x,-y,-z
x,y,-z
-x,y,z
x,-y,z
1/2+x,1/2+y,z
1/2-x,1/2-y,z
1/2+x,1/2-y,-z
1/2-x,1/2+y,-z
1/2-x,1/2-y,-z
1/2+x,1/2+y,-z
1/2-x,1/2+y,z
1/2+x,1/2-y,z
loop_
_atom_site_type_symbol
_atom_site_label
_atom_site_fract_x
_atom_site_fract_y
_atom_site_fract_z
Si Si1 0.406712 0.100658 0.825855
Si Si2 0.656399 0.903359 0.675029
Si Si3 0.598714 0.750628 0.581107
Si Si4 0.251960 0.848206 0.077381
Si Si5 0.592697 0.399457 0.168769
Si Si6 0.147614 0.096871 0.320601
O O1 0.500000 0.133184 0.849498
O O2 0.391579 0.130534 0.745028
O O3 0.335683 0.134144 0.878181
O O4 0.401687 0.000000 0.828006
O O5 0.641664 0.835333 0.612940
O O6 0.753817 0.905676 0.694449
O O7 0.626646 0.000000 0.652925
O O8 0.628241 0.744730 0.500000
O O9 0.500000 0.762916 0.588655
O O10 0.626132 0.661567 0.616422
O O11 0.250000 0.750000 0.062195
O O12 0.165613 0.870979 0.116332
O O13 0.255879 0.895131 0.000000
O O14 0.500000 0.368066 0.141993
O O15 0.596462 0.500000 0.173036
O O16 0.605826 0.365584 0.248908
O O17 0.115830 0.000000 0.339367
#
# Coordination Sequence:
#
# PCOD8273833 Si02
#       6
#    16  16  16  16  16  16
#     4  10  21  39  64  91 119 158 208 257 306 361
#     4  10  21  39  64  92 122 159 209 263 309 364
#     4  11  25  41  59  89 127 168 209 251 311 377
#     4  11  25  41  59  89 127 164 201 248 310 372
#     4  10  21  39  64  91 119 158 208 257 306 361
#     4  10  21  39  64  92 122 159 209 263 309 364
#
# _framework density 20.558726
#
# number of rings (size 3 to 8) (size 9 to 14) (size 15 to 20)
#    0.000    1.667    1.667    2.000    2.333    6.667 
#    0.000    6.667    0.000    0.000    0.000    0.000 
#    0.000    0.000    0.000    0.000    0.000    0.000 
#
# Total GULP energy -595009.609370 kJ/mol
# GULP energy per Si atom -12396.033529 kJ/mol
# Density = 2.051193 g / cm^3
# Si number density = 20.558726 Si / 1000 Ang^3
#
#
#
# Elastic Constant Matrix: (Units=GPa)
#
#
# Indices 1 2 3 4 5 6 
#
# 1 124.3660 19.8809 52.4609 0.0000 0.0000 0.0000
# 2 19.8809 73.0010 52.0522 0.0000 0.0000 0.0000
# 3 52.4609 52.0522 139.7667 0.0000 0.0000 0.0000
# 4 0.0000 0.0000 0.0000 36.2229 0.0000 0.0000
# 5 0.0000 0.0000 0.0000 0.0000 13.3292 0.0000
# 6 0.0000 0.0000 0.0000 0.0000 0.0000 20.3895
#
#
#
# Elastic Compliance Matrix: (Units=1/GPa)
#
#
# Indices 1 2 3 4 5 6 
#
# 1 0.009554 -0.000061 -0.003563 0.000000 0.000000 0.000000
# 2 -0.000061 0.018652 -0.006923 0.000000 0.000000 0.000000
# 3 -0.003563 -0.006923 0.011071 0.000000 0.000000 0.000000
# 4 0.000000 0.000000 0.000000 0.027607 0.000000 0.000000
# 5 0.000000 0.000000 0.000000 0.000000 0.075023 0.000000
# 6 0.000000 0.000000 0.000000 0.000000 0.000000 0.049045
#
#
# Mechanical properties :
#
#
# Convention : Reuss Voigt Hill
#
# Bulk Modulus (GPa) = 55.00370 65.10242 60.05306
# Shear Modulus (GPa) = 22.92460 28.17096 25.54778
#
# Velocity S-wave (km/s) = 3.34290 3.70573 3.52898
# Velocity P-wave (km/s) = 6.45852 7.07426 6.77339
#
# Compressibility (1/GPa) = 0.01818059
#
# Stress axis : x y z
#
# Youngs Moduli (GPa) = 104.67282 53.61447 90.32948
#
# Poissons Ratio (x) = 0.00328 0.32185
# Poissons Ratio (y) = 0.00640 0.62538
# Poissons Ratio (z) = 0.37296 0.37119
#
# Static dielectric constant tensor:
#      x y z
#    x 3.983380 0.000000 0.000000 
#    y 0.000000 3.963780 0.000000 
#    z 0.000000 0.000000 4.495170 
# 
# 
# High freq. dielectric constant tensor:
#      x y z
#    x 1.820510 0.000000 0.000000 
#    y 0.000000 1.805300 0.000000 
#    z 0.000000 0.000000 1.797020 
# 
# From -- ./inp_files/62611.got.cif
#   From: 2010.03.12/outbox.cif.g09.slc.cpg/sg65_32_cif.got.tgz:62611.got - 2010.04.10 20:52:16.
