data_PCOD8273314
_publ_section_title
;
Structure prediction by ZEFSAII (Michael W. Deem and Ramdas Pophale) SiO2 
 PCOD8273314
Probable space group: C M M M
;
_chemical_formula_sum "Si O2"
_cell_formula_units_Z 72
_cell_length_a 8.867847
_cell_length_b 18.936581
_cell_length_c 23.059462
_cell_angle_alpha 90.000000
_cell_angle_beta 90.000000
_cell_angle_gamma 90.000000
_cell_volume 3872.299427
_symmetry_space_group_name_H-M "C M M M"
_symmetry_group_IT_number 65
_symmetry_cell_setting 'orthorhombic'
loop_
_space_group_symop_operation_xyz
x,y,z
-x,-y,z
x,-y,-z
-x,y,-z
-x,-y,-z
x,y,-z
-x,y,z
x,-y,z
1/2+x,1/2+y,z
1/2-x,1/2-y,z
1/2+x,1/2-y,-z
1/2-x,1/2+y,-z
1/2-x,1/2-y,-z
1/2+x,1/2+y,-z
1/2-x,1/2+y,z
1/2+x,1/2-y,z
loop_
_atom_site_type_symbol
_atom_site_label
_atom_site_fract_x
_atom_site_fract_y
_atom_site_fract_z
Si Si1 0.321200 0.172148 0.000000
Si Si2 0.676762 0.581921 0.100526
Si Si3 0.321251 0.323318 0.663791
Si Si4 0.179049 0.921382 0.563372
Si Si5 0.675576 0.322900 0.793595
O O1 0.250000 0.250000 0.000000
O O2 0.270915 0.127971 0.055688
O O3 0.500000 0.180838 0.000000
O O4 0.500000 0.589449 0.086090
O O5 0.726396 0.500000 0.097877
O O6 0.715621 0.612289 0.164113
O O7 0.500000 0.318327 0.659581
O O8 0.250000 0.250000 0.645886
O O9 0.253248 0.377545 0.616925
O O10 0.270124 0.344740 0.728982
O O11 0.225932 0.890091 0.500000
O O12 0.000000 0.922977 0.568102
O O13 0.244391 0.000000 0.569152
O O14 0.500000 0.307052 0.793857
O O15 0.750000 0.250000 0.815035
#
# Coordination Sequence:
#
# PCOD8273314 Si02
#       5
#     8  16  16  16  16
#     4  12  25  40  59  81 105 135 171 206 245 294
#     4  10  21  37  56  79 107 135 165 205 251 296
#     4   9  17  29  46  69  96 125 160 202 244 287
#     4   8  14  25  42  65  92 122 158 200 243 287
#     4   9  18  32  50  72  98 130 165 201 243 291
#
# _framework density 18.593603000000002
#
# number of rings (size 3 to 8) (size 9 to 14) (size 15 to 20)
#    0.000    2.667    0.000    2.667    0.000    5.778 
#    0.000    4.444    0.000    0.667    0.000    7.778 
#    0.000    0.000    0.000    0.000    0.000    0.000 
#
# Total GULP energy -446221.316190 kJ/mol
# GULP energy per Si atom -12395.036561 kJ/mol
# Density = 1.855128 g / cm^3
# Si number density = 18.593603 Si / 1000 Ang^3
#
#
#
# Elastic Constant Matrix: (Units=GPa)
#
#
# Indices 1 2 3 4 5 6 
#
# 1 38.9137 40.6309 36.6203 0.0000 0.0000 0.0000
# 2 40.6309 148.9338 96.4167 0.0000 0.0000 0.0000
# 3 36.6203 96.4167 144.0976 0.0000 0.0000 0.0000
# 4 0.0000 0.0000 0.0000 38.5823 0.0000 0.0000
# 5 0.0000 0.0000 0.0000 0.0000 11.8422 0.0000
# 6 0.0000 0.0000 0.0000 0.0000 0.0000 26.3718
#
#
#
# Elastic Compliance Matrix: (Units=1/GPa)
#
#
# Indices 1 2 3 4 5 6 
#
# 1 0.037699 -0.007202 -0.004762 0.000000 0.000000 0.000000
# 2 -0.007202 0.013221 -0.007016 0.000000 0.000000 0.000000
# 3 -0.004762 -0.007016 0.012844 0.000000 0.000000 0.000000
# 4 0.000000 0.000000 0.000000 0.025919 0.000000 0.000000
# 5 0.000000 0.000000 0.000000 0.000000 0.084444 0.000000
# 6 0.000000 0.000000 0.000000 0.000000 0.000000 0.037919
#
#
# Mechanical properties :
#
#
# Convention : Reuss Voigt Hill
#
# Bulk Modulus (GPa) = 38.75260 75.47563 57.11411
# Shear Modulus (GPa) = 19.33430 25.91106 22.62268
#
# Velocity S-wave (km/s) = 3.22815 3.73707 3.49189
# Velocity P-wave (km/s) = 5.89760 7.70074 6.85868
#
# Compressibility (1/GPa) = 0.02580472
#
# Stress axis : x y z
#
# Youngs Moduli (GPa) = 26.52610 75.63527 77.85482
#
# Poissons Ratio (x) = 0.54473 0.37071
# Poissons Ratio (y) = 0.19104 0.54624
# Poissons Ratio (z) = 0.12631 0.53067
#
# Static dielectric constant tensor:
#      x y z
#    x 3.113620 0.000000 0.000000 
#    y 0.000000 3.628770 0.000000 
#    z 0.000000 0.000000 3.915280 
# 
# 
# High freq. dielectric constant tensor:
#      x y z
#    x 1.687690 0.000000 0.000000 
#    y 0.000000 1.719560 0.000000 
#    z 0.000000 0.000000 1.740250 
# 
# From -- ./inp_files/59269.got.cif
#   From: 2010.03.12/outbox.cif.g09.slc.cpg/sg65_30_cif.got.tgz:59269.got - 2010.04.10 20:52:16.
