data_PCOD8273141
_publ_section_title
;
Structure prediction by ZEFSAII (Michael W. Deem and Ramdas Pophale) SiO2 
 PCOD8273141
Probable space group: C M M M
;
_chemical_formula_sum "Si O2"
_cell_formula_units_Z 104
_cell_length_a 23.589622
_cell_length_b 26.079331
_cell_length_c 9.123872
_cell_angle_alpha 90.000000
_cell_angle_beta 90.000000
_cell_angle_gamma 90.000000
_cell_volume 5613.020290
_symmetry_space_group_name_H-M "C M M M"
_symmetry_group_IT_number 65
_symmetry_cell_setting 'orthorhombic'
loop_
_space_group_symop_operation_xyz
x,y,z
-x,-y,z
x,-y,-z
-x,y,-z
-x,-y,-z
x,y,-z
-x,y,z
x,-y,z
1/2+x,1/2+y,z
1/2-x,1/2-y,z
1/2+x,1/2-y,-z
1/2-x,1/2+y,-z
1/2-x,1/2-y,-z
1/2+x,1/2+y,-z
1/2-x,1/2+y,z
1/2+x,1/2-y,z
loop_
_atom_site_type_symbol
_atom_site_label
_atom_site_fract_x
_atom_site_fract_y
_atom_site_fract_z
Si Si1 0.064034 0.401715 0.168273
Si Si2 0.642701 0.559194 0.671407
Si Si3 0.760742 0.134705 0.665455
Si Si4 0.841186 0.322101 0.830287
Si Si5 0.433539 0.361408 0.828765
Si Si6 0.932482 0.500000 0.335300
Si Si7 0.142364 0.783252 0.331955
O O1 0.099655 0.350694 0.196317
O O2 0.090938 0.448890 0.258228
O O3 0.000000 0.389425 0.219353
O O4 0.065772 0.418591 0.000000
O O5 0.629126 0.566933 0.500000
O O6 0.643965 0.500000 0.717554
O O7 0.703932 0.583748 0.708008
O O8 0.593492 0.587225 0.761576
O O9 0.737079 0.130525 0.500000
O O10 0.709121 0.140670 0.777337
O O11 0.801238 0.183492 0.680214
O O12 0.842465 0.271007 0.736432
O O13 0.831685 0.308598 0.000000
O O14 0.500000 0.363192 0.798072
O O15 0.408838 0.310261 0.754275
O O16 0.419342 0.359228 0.000000
O O17 0.909786 0.500000 0.500000
O O18 0.000000 0.500000 0.324438
O O19 0.123588 0.776165 0.500000
#
# Coordination Sequence:
#
# PCOD8273141 Si02
#       7
#    16  16  16  16  16   8  16
#     4   9  19  36  54  72 102 141 172 205 257 317
#     4   9  19  37  59  81 109 147 188 228 273 327
#     4   9  19  36  55  76 106 142 181 222 270 323
#     4  11  22  34  53  82 109 137 179 224 269 325
#     4  10  21  36  55  82 115 148 183 225 275 328
#     4   9  17  31  53  77  97 123 165 211 250 293
#     4  10  21  37  57  78 105 143 183 223 268 321
#
# _framework density 18.528348000000001
#
# number of rings (size 3 to 8) (size 9 to 14) (size 15 to 20)
#    0.000    2.385    0.000    3.000    0.000    9.538 
#    1.385    3.077    0.000    0.000    0.000    0.000 
#    0.000    0.000    0.000    0.000    0.000    0.000 
#
# Total GULP energy -644927.131047 kJ/mol
# GULP energy per Si atom -12402.444828 kJ/mol
# Density = 1.848618 g / cm^3
# Si number density = 18.528348 Si / 1000 Ang^3
#
#
#
# Elastic Constant Matrix: (Units=GPa)
#
#
# Indices 1 2 3 4 5 6 
#
# 1 89.6658 35.1791 51.2224 0.0000 0.0000 0.0000
# 2 35.1791 60.0396 37.5322 0.0000 0.0000 0.0000
# 3 51.2224 37.5322 100.4700 0.0000 0.0000 0.0000
# 4 0.0000 0.0000 0.0000 27.5194 0.0000 0.0000
# 5 0.0000 0.0000 0.0000 0.0000 29.5691 0.0000
# 6 0.0000 0.0000 0.0000 0.0000 0.0000 13.8738
#
#
#
# Elastic Compliance Matrix: (Units=1/GPa)
#
#
# Indices 1 2 3 4 5 6 
#
# 1 0.017254 -0.006016 -0.006549 0.000000 0.000000 0.000000
# 2 -0.006016 0.023827 -0.005834 0.000000 0.000000 0.000000
# 3 -0.006549 -0.005834 0.015472 0.000000 0.000000 0.000000
# 4 0.000000 0.000000 0.000000 0.036338 0.000000 0.000000
# 5 0.000000 0.000000 0.000000 0.000000 0.033819 0.000000
# 6 0.000000 0.000000 0.000000 0.000000 0.000000 0.072078
#
#
# Mechanical properties :
#
#
# Convention : Reuss Voigt Hill
#
# Bulk Modulus (GPa) = 50.62024 55.33810 52.97917
# Shear Modulus (GPa) = 20.64651 22.60859 21.62755
#
# Velocity S-wave (km/s) = 3.34176 3.49695 3.42024
# Velocity P-wave (km/s) = 6.50151 6.79974 6.65229
#
# Compressibility (1/GPa) = 0.01975494
#
# Stress axis : x y z
#
# Youngs Moduli (GPa) = 57.95749 41.96834 64.63385
#
# Poissons Ratio (x) = 0.25246 0.42331
# Poissons Ratio (y) = 0.34864 0.37709
# Poissons Ratio (z) = 0.37959 0.24485
#
# Static dielectric constant tensor:
#      x y z
#    x 3.325670 0.000000 0.000000 
#    y 0.000000 3.425330 0.000000 
#    z 0.000000 0.000000 3.501400 
# 
# 
# High freq. dielectric constant tensor:
#      x y z
#    x 1.708530 0.000000 0.000000 
#    y 0.000000 1.721570 0.000000 
#    z 0.000000 0.000000 1.726270 
# 
# From -- ./inp_files/12432.got.cif
#   From: 2010.03.12/outbox.cif.g09.slc.cpg/sg65_7_cif.got.tgz:12432.got - 2010.04.10 20:52:16.
