data_PCOD8273441
_publ_section_title
;
Structure prediction by ZEFSAII (Michael W. Deem and Ramdas Pophale) SiO2 
 PCOD8273441
Probable space group: C M M M
;
_chemical_formula_sum "Si O2"
_cell_formula_units_Z 72
_cell_length_a 9.066381
_cell_length_b 17.982766
_cell_length_c 22.690273
_cell_angle_alpha 90.000000
_cell_angle_beta 90.000000
_cell_angle_gamma 90.000000
_cell_volume 3699.390525
_symmetry_space_group_name_H-M "C M M M"
_symmetry_group_IT_number 65
_symmetry_cell_setting 'orthorhombic'
loop_
_space_group_symop_operation_xyz
x,y,z
-x,-y,z
x,-y,-z
-x,y,-z
-x,-y,-z
x,y,-z
-x,y,z
x,-y,z
1/2+x,1/2+y,z
1/2-x,1/2-y,z
1/2+x,1/2-y,-z
1/2-x,1/2+y,-z
1/2-x,1/2-y,-z
1/2+x,1/2+y,-z
1/2-x,1/2+y,z
1/2+x,1/2-y,z
loop_
_atom_site_type_symbol
_atom_site_label
_atom_site_fract_x
_atom_site_fract_y
_atom_site_fract_z
Si Si1 0.325999 0.171018 0.219863
Si Si2 0.172026 0.825794 0.567841
Si Si3 0.673043 0.328617 0.000000
Si Si4 0.829344 0.414854 0.663010
Si Si5 0.829719 0.086915 0.882707
O O1 0.500000 0.181096 0.214090
O O2 0.250000 0.250000 0.212087
O O3 0.280980 0.136177 0.282440
O O4 0.271687 0.115405 0.169819
O O5 0.207062 0.844169 0.500000
O O6 0.250000 0.750000 0.588029
O O7 0.233670 0.893489 0.606173
O O8 0.000000 0.815987 0.579458
O O9 0.750000 0.250000 0.000000
O O10 0.722645 0.374033 0.942630
O O11 0.500000 0.315405 0.000000
O O12 0.795861 0.500000 0.679518
O O13 0.000000 0.403112 0.647282
O O14 0.000000 0.105096 0.868430
O O15 0.803894 0.000000 0.890917
#
# Coordination Sequence:
#
# PCOD8273441 Si02
#       5
#    16  16   8  16  16
#     4  11  23  39  59  84 114 147 187 233 279 331
#     4  10  21  37  58  84 113 146 186 231 277 328
#     4  10  21  37  57  83 115 150 189 232 276 328
#     4  10  22  39  58  82 113 148 185 228 279 332
#     4  10  21  38  60  85 114 149 188 231 281 333
#
# _framework density 19.462664
#
# number of rings (size 3 to 8) (size 9 to 14) (size 15 to 20)
#    0.000    1.778    0.000    3.667    0.000   11.111 
#    0.000    2.222    0.000    2.000    0.000    0.000 
#    0.000    0.000    0.000    0.000    0.000    0.000 
#
# Total GULP energy -446627.211102 kJ/mol
# GULP energy per Si atom -12406.311419 kJ/mol
# Density = 1.941837 g / cm^3
# Si number density = 19.462664 Si / 1000 Ang^3
#
#
#
# Elastic Constant Matrix: (Units=GPa)
#
#
# Indices 1 2 3 4 5 6 
#
# 1 71.4689 42.2954 54.2617 0.0000 0.0000 0.0000
# 2 42.2954 112.4827 51.4133 0.0000 0.0000 0.0000
# 3 54.2617 51.4133 116.9105 0.0000 0.0000 0.0000
# 4 0.0000 0.0000 0.0000 36.7723 0.0000 0.0000
# 5 0.0000 0.0000 0.0000 0.0000 31.2068 0.0000
# 6 0.0000 0.0000 0.0000 0.0000 0.0000 34.7435
#
#
#
# Elastic Compliance Matrix: (Units=1/GPa)
#
#
# Indices 1 2 3 4 5 6 
#
# 1 0.023527 -0.004825 -0.008798 0.000000 0.000000 0.000000
# 2 -0.004825 0.012117 -0.003089 0.000000 0.000000 0.000000
# 3 -0.008798 -0.003089 0.013995 0.000000 0.000000 0.000000
# 4 0.000000 0.000000 0.000000 0.027194 0.000000 0.000000
# 5 0.000000 0.000000 0.000000 0.000000 0.032044 0.000000
# 6 0.000000 0.000000 0.000000 0.000000 0.000000 0.028782
#
#
# Mechanical properties :
#
#
# Convention : Reuss Voigt Hill
#
# Bulk Modulus (GPa) = 61.67066 66.31142 63.99104
# Shear Modulus (GPa) = 28.33040 30.73731 29.53386
#
# Velocity S-wave (km/s) = 3.81941 3.97835 3.89969
# Velocity P-wave (km/s) = 7.15583 7.43290 7.29568
#
# Compressibility (1/GPa) = 0.01621517
#
# Stress axis : x y z
#
# Youngs Moduli (GPa) = 42.50383 82.53186 71.45336
#
# Poissons Ratio (x) = 0.39825 0.62862
# Poissons Ratio (y) = 0.20510 0.22070
# Poissons Ratio (z) = 0.37393 0.25492
#
# Static dielectric constant tensor:
#      x y z
#    x 3.611220 0.000000 0.000000 
#    y 0.000000 3.549620 0.000000 
#    z 0.000000 0.000000 3.663670 
# 
# 
# High freq. dielectric constant tensor:
#      x y z
#    x 1.757800 0.000000 0.000000 
#    y 0.000000 1.767930 0.000000 
#    z 0.000000 0.000000 1.769780 
# 
# From -- ./inp_files/70305.got.cif
#   From: 2010.03.12/outbox.cif.g09.slc.cpg/sg65_36_cif.got.tgz:70305.got - 2010.04.10 20:52:16.
