data_PCOD8273468
_publ_section_title
;
Structure prediction by ZEFSAII (Michael W. Deem and Ramdas Pophale) SiO2 
 PCOD8273468
Probable space group: C M M M
;
_chemical_formula_sum "Si O2"
_cell_formula_units_Z 80
_cell_length_a 18.490127
_cell_length_b 8.967593
_cell_length_c 25.817215
_cell_angle_alpha 90.000000
_cell_angle_beta 90.000000
_cell_angle_gamma 90.000000
_cell_volume 4280.802336
_symmetry_space_group_name_H-M "C M M M"
_symmetry_group_IT_number 65
_symmetry_cell_setting 'orthorhombic'
loop_
_space_group_symop_operation_xyz
x,y,z
-x,-y,z
x,-y,-z
-x,y,-z
-x,-y,-z
x,y,-z
-x,y,z
x,-y,z
1/2+x,1/2+y,z
1/2-x,1/2-y,z
1/2+x,1/2-y,-z
1/2-x,1/2+y,-z
1/2-x,1/2-y,-z
1/2+x,1/2+y,-z
1/2-x,1/2+y,z
1/2+x,1/2-y,z
loop_
_atom_site_type_symbol
_atom_site_label
_atom_site_fract_x
_atom_site_fract_y
_atom_site_fract_z
Si Si1 0.416420 0.677587 0.833093
Si Si2 0.414242 0.333225 0.945277
Si Si3 0.327326 0.176140 0.257356
Si Si4 0.676230 0.325512 0.559485
Si Si5 0.916768 0.327083 0.358066
O O1 0.500000 0.719378 0.822609
O O2 0.405572 0.500000 0.829074
O O3 0.390357 0.738234 0.890275
O O4 0.366562 0.762209 0.793021
O O5 0.500000 0.341056 0.943491
O O6 0.382857 0.500000 0.947244
O O7 0.389896 0.251898 0.000000
O O8 0.250000 0.250000 0.263693
O O9 0.373773 0.222322 0.307178
O O10 0.318795 0.000000 0.252100
O O11 0.660618 0.283309 0.500000
O O12 0.685075 0.500000 0.567555
O O13 0.750000 0.250000 0.579229
O O14 0.609456 0.266725 0.592770
O O15 0.904717 0.500000 0.370641
O O16 0.000000 0.288952 0.348043
#
# Coordination Sequence:
#
# PCOD8273468 Si02
#       5
#    16  16  16  16  16
#     4   9  17  30  51  79 107 135 170 211 256 308
#     4   7  10  19  39  69 102 132 163 202 248 299
#     4  11  23  38  55  75 102 136 175 218 263 312
#     4  10  21  37  58  84 113 145 180 216 255 301
#     4  10  22  39  58  81 108 138 173 214 262 313
#
# _framework density 18.688085999999998
#
# number of rings (size 3 to 8) (size 9 to 14) (size 15 to 20)
#    0.000    2.600    0.000    4.200    0.000    6.400 
#    0.000    2.000    0.000    1.200    0.000    2.800 
#    0.000    0.000    0.000    0.000    0.000    0.000 
#
# Total GULP energy -495690.394995 kJ/mol
# GULP energy per Si atom -12392.259875 kJ/mol
# Density = 1.864555 g / cm^3
# Si number density = 18.688086 Si / 1000 Ang^3
#
#
#
# Elastic Constant Matrix: (Units=GPa)
#
#
# Indices 1 2 3 4 5 6 
#
# 1 113.0285 45.8184 77.5082 0.0000 0.0000 0.0000
# 2 45.8184 56.3918 54.3925 0.0000 0.0000 0.0000
# 3 77.5082 54.3925 155.5730 0.0000 0.0000 0.0000
# 4 0.0000 0.0000 0.0000 21.3926 0.0000 0.0000
# 5 0.0000 0.0000 0.0000 0.0000 8.7636 0.0000
# 6 0.0000 0.0000 0.0000 0.0000 0.0000 8.6752
#
#
#
# Elastic Compliance Matrix: (Units=1/GPa)
#
#
# Indices 1 2 3 4 5 6 
#
# 1 0.015376 -0.007701 -0.004968 0.000000 0.000000 0.000000
# 2 -0.007701 0.030613 -0.006866 0.000000 0.000000 0.000000
# 3 -0.004968 -0.006866 0.011304 0.000000 0.000000 0.000000
# 4 0.000000 0.000000 0.000000 0.046745 0.000000 0.000000
# 5 0.000000 0.000000 0.000000 0.000000 0.114109 0.000000
# 6 0.000000 0.000000 0.000000 0.000000 0.000000 0.115271
#
#
# Mechanical properties :
#
#
# Convention : Reuss Voigt Hill
#
# Bulk Modulus (GPa) = 54.87935 75.60351 65.24143
# Shear Modulus (GPa) = 13.20786 17.58456 15.39621
#
# Velocity S-wave (km/s) = 2.66137 3.07082 2.87340
# Velocity P-wave (km/s) = 6.23486 7.28811 6.78196
#
# Compressibility (1/GPa) = 0.01822179
#
# Stress axis : x y z
#
# Youngs Moduli (GPa) = 65.03727 32.66559 88.46745
#
# Poissons Ratio (x) = 0.25156 0.43950
# Poissons Ratio (y) = 0.50086 0.60746
# Poissons Ratio (z) = 0.32310 0.22430
#
# Static dielectric constant tensor:
#      x y z
#    x 3.234770 0.000000 0.000000 
#    y 0.000000 3.197800 0.000000 
#    z 0.000000 0.000000 3.950660 
# 
# 
# High freq. dielectric constant tensor:
#      x y z
#    x 1.702720 0.000000 0.000000 
#    y 0.000000 1.701040 0.000000 
#    z 0.000000 0.000000 1.752240 
# 
# From -- ./inp_files/72733.got.cif
#   From: 2010.03.12/outbox.cif.g09.slc.cpg/sg65_37_cif.got.tgz:72733.got - 2010.04.10 20:52:16.
