data_PCOD8273122
_publ_section_title
;
Structure prediction by ZEFSAII (Michael W. Deem and Ramdas Pophale) SiO2 
 PCOD8273122
Probable space group: C M M M
;
_chemical_formula_sum "Si O2"
_cell_formula_units_Z 104
_cell_length_a 26.414145
_cell_length_b 8.812596
_cell_length_c 22.447484
_cell_angle_alpha 90.000000
_cell_angle_beta 90.000000
_cell_angle_gamma 90.000000
_cell_volume 5225.262216
_symmetry_space_group_name_H-M "C M M M"
_symmetry_group_IT_number 65
_symmetry_cell_setting 'orthorhombic'
loop_
_space_group_symop_operation_xyz
x,y,z
-x,-y,z
x,-y,-z
-x,y,-z
-x,-y,-z
x,y,-z
-x,y,z
x,-y,z
1/2+x,1/2+y,z
1/2-x,1/2-y,z
1/2+x,1/2-y,-z
1/2-x,1/2+y,-z
1/2-x,1/2-y,-z
1/2+x,1/2+y,-z
1/2-x,1/2+y,z
1/2+x,1/2-y,z
loop_
_atom_site_type_symbol
_atom_site_label
_atom_site_fract_x
_atom_site_fract_y
_atom_site_fract_z
Si Si1 0.696753 0.322062 0.569437
Si Si2 0.141620 0.178385 0.933226
Si Si3 0.500000 0.328553 0.429745
Si Si4 0.800343 0.173119 0.179649
Si Si5 0.442526 0.828141 0.864949
Si Si6 0.900614 0.824464 0.751857
Si Si7 0.597589 0.179452 0.626800
O O1 0.687825 0.287929 0.500000
O O2 0.698569 0.500000 0.583053
O O3 0.750000 0.250000 0.590643
O O4 0.650412 0.250491 0.605407
O O5 0.182352 0.238679 0.884905
O O6 0.088982 0.262054 0.920238
O O7 0.132308 0.000000 0.924292
O O8 0.160249 0.217006 0.000000
O O9 0.500000 0.500000 0.403591
O O10 0.500000 0.334395 0.500000
O O11 0.449464 0.242134 0.410344
O O12 0.750000 0.250000 0.203400
O O13 0.842506 0.200181 0.229503
O O14 0.787204 0.000000 0.170816
O O15 0.500000 0.821123 0.885987
O O16 0.436158 0.727830 0.805712
O O17 0.425333 0.000000 0.850961
O O18 0.912287 0.721593 0.695176
O O19 0.911863 0.000000 0.737197
O O20 0.600258 0.000000 0.618825
#
# Coordination Sequence:
#
# PCOD8273122 Si02
#       7
#    16  16   8  16  16  16  16
#     4  10  21  39  63  90 121 158 201 248 299 356
#     4   9  19  36  55  78 110 147 191 235 278 343
#     4  11  25  45  67  91 123 165 208 249 298 361
#     4   9  19  35  56  81 110 147 188 234 287 340
#     4  10  21  36  55  80 111 143 181 234 292 345
#     4  10  22  40  59  81 112 150 193 236 283 345
#     4  12  25  40  62  92 125 159 200 251 305 361
#
# _framework density 19.903307000000002
#
# number of rings (size 3 to 8) (size 9 to 14) (size 15 to 20)
#    0.000    1.923    0.000    4.385    1.077    9.231 
#    0.000    3.077    0.000    0.000    0.000    0.000 
#    0.000    0.000    0.000    0.000    0.000    0.000 
#
# Total GULP energy -644886.195095 kJ/mol
# GULP energy per Si atom -12401.657598 kJ/mol
# Density = 1.985801 g / cm^3
# Si number density = 19.903307 Si / 1000 Ang^3
#
#
#
# Elastic Constant Matrix: (Units=GPa)
#
#
# Indices 1 2 3 4 5 6 
#
# 1 86.5312 34.5099 5.6610 0.0000 0.0000 0.0000
# 2 34.5099 93.6262 20.8682 0.0000 0.0000 0.0000
# 3 5.6610 20.8682 61.7725 0.0000 0.0000 0.0000
# 4 0.0000 0.0000 0.0000 27.3347 0.0000 0.0000
# 5 0.0000 0.0000 0.0000 0.0000 11.4426 0.0000
# 6 0.0000 0.0000 0.0000 0.0000 0.0000 36.1207
#
#
#
# Elastic Compliance Matrix: (Units=1/GPa)
#
#
# Indices 1 2 3 4 5 6 
#
# 1 0.013561 -0.005106 0.000482 0.000000 0.000000 0.000000
# 2 -0.005106 0.013473 -0.004084 0.000000 0.000000 0.000000
# 3 0.000482 -0.004084 0.017524 0.000000 0.000000 0.000000
# 4 0.000000 0.000000 0.000000 0.036583 0.000000 0.000000
# 5 0.000000 0.000000 0.000000 0.000000 0.087393 0.000000
# 6 0.000000 0.000000 0.000000 0.000000 0.000000 0.027685
#
#
# Mechanical properties :
#
#
# Convention : Reuss Voigt Hill
#
# Bulk Modulus (GPa) = 36.84168 40.44534 38.64351
# Shear Modulus (GPa) = 22.45351 27.03899 24.74625
#
# Velocity S-wave (km/s) = 3.36241 3.68981 3.52990
# Velocity P-wave (km/s) = 5.79870 6.20628 6.00595
#
# Compressibility (1/GPa) = 0.02714317
#
# Stress axis : x y z
#
# Youngs Moduli (GPa) = 73.73893 74.22245 57.06540
#
# Poissons Ratio (x) = 0.37899 -0.02751
# Poissons Ratio (y) = 0.37652 0.23303
# Poissons Ratio (z) = -0.03555 0.30309
#
# Static dielectric constant tensor:
#      x y z
#    x 3.822260 0.000000 0.000000 
#    y 0.000000 3.765190 0.000000 
#    z 0.000000 0.000000 3.581190 
# 
# 
# High freq. dielectric constant tensor:
#      x y z
#    x 1.779300 0.000000 0.000000 
#    y 0.000000 1.784270 0.000000 
#    z 0.000000 0.000000 1.774640 
# 
# From -- ./inp_files/65930.got.cif
#   From: 2010.03.12/outbox.cif.g09.slc.cpg/sg65_33_cif.got.tgz:65930.got - 2010.04.10 20:52:16.
