data_PCOD8273398
_publ_section_title
;
Structure prediction by ZEFSAII (Michael W. Deem and Ramdas Pophale) SiO2 
 PCOD8273398
Probable space group: C M M M
;
_chemical_formula_sum "Si O2"
_cell_formula_units_Z 88
_cell_length_a 8.892735
_cell_length_b 18.613307
_cell_length_c 28.070267
_cell_angle_alpha 90.000000
_cell_angle_beta 90.000000
_cell_angle_gamma 90.000000
_cell_volume 4646.280605
_symmetry_space_group_name_H-M "C M M M"
_symmetry_group_IT_number 65
_symmetry_cell_setting 'orthorhombic'
loop_
_space_group_symop_operation_xyz
x,y,z
-x,-y,z
x,-y,-z
-x,y,-z
-x,-y,-z
x,y,-z
-x,y,z
x,-y,z
1/2+x,1/2+y,z
1/2-x,1/2-y,z
1/2+x,1/2-y,-z
1/2-x,1/2+y,-z
1/2-x,1/2-y,-z
1/2+x,1/2+y,-z
1/2-x,1/2+y,z
1/2+x,1/2-y,z
loop_
_atom_site_type_symbol
_atom_site_label
_atom_site_fract_x
_atom_site_fract_y
_atom_site_fract_z
Si Si1 0.675911 0.675553 0.445023
Si Si2 0.169460 0.914609 0.000000
Si Si3 0.677011 0.081881 0.095278
Si Si4 0.329867 0.915239 0.632609
Si Si5 0.324683 0.584197 0.270397
Si Si6 0.821717 0.672042 0.813657
O O1 0.710618 0.658590 0.500000
O O2 0.500000 0.679715 0.434719
O O3 0.750000 0.750000 0.429115
O O4 0.749629 0.612686 0.414649
O O5 0.249930 0.885422 0.952540
O O6 0.000000 0.886016 0.000000
O O7 0.179174 0.000000 0.000000
O O8 0.500000 0.084700 0.088507
O O9 0.731469 0.130323 0.139093
O O10 0.730772 0.000000 0.104652
O O11 0.500000 0.885705 0.636244
O O12 0.236921 0.889688 0.678658
O O13 0.329120 0.000000 0.628810
O O14 0.500000 0.602906 0.267245
O O15 0.294133 0.500000 0.262582
O O16 0.234155 0.627353 0.231132
O O17 0.750000 0.750000 0.813806
O O18 0.000000 0.678857 0.811105
#
# Coordination Sequence:
#
# PCOD8273398 Si02
#       6
#    16   8  16  16  16  16
#     4  10  21  37  57  81 111 147 186 227 271 322
#     4   9  17  29  50  81 110 135 171 221 268 313
#     4   9  18  34  56  79 105 140 179 219 266 321
#     4  10  21  37  58  84 113 144 180 224 272 323
#     4  10  21  38  60  84 110 141 179 224 273 325
#     4  11  23  38  56  80 111 145 183 225 271 324
#
# _framework density 18.939881
#
# number of rings (size 3 to 8) (size 9 to 14) (size 15 to 20)
#    0.000    2.091    0.000    3.000    0.000    7.636 
#    0.000    7.727    0.000    0.000    0.000    0.000 
#    0.000    0.000    0.000    0.000    0.000    0.000 
#
# Total GULP energy -545755.260191 kJ/mol
# GULP energy per Si atom -12403.528641 kJ/mol
# Density = 1.889677 g / cm^3
# Si number density = 18.939881 Si / 1000 Ang^3
#
#
#
# Elastic Constant Matrix: (Units=GPa)
#
#
# Indices 1 2 3 4 5 6 
#
# 1 87.9346 38.2713 54.8938 0.0000 0.0000 0.0000
# 2 38.2713 50.0878 53.0522 0.0000 0.0000 0.0000
# 3 54.8938 53.0522 136.2959 0.0000 0.0000 0.0000
# 4 0.0000 0.0000 0.0000 0.7180 0.0000 0.0000
# 5 0.0000 0.0000 0.0000 0.0000 34.7658 0.0000
# 6 0.0000 0.0000 0.0000 0.0000 0.0000 26.4596
#
#
#
# Elastic Compliance Matrix: (Units=1/GPa)
#
#
# Indices 1 2 3 4 5 6 
#
# 1 0.017819 -0.010233 -0.003194 0.000000 0.000000 0.000000
# 2 -0.010233 0.039846 -0.011389 0.000000 0.000000 0.000000
# 3 -0.003194 -0.011389 0.013056 0.000000 0.000000 0.000000
# 4 0.000000 0.000000 0.000000 1.392741 0.000000 0.000000
# 5 0.000000 0.000000 0.000000 0.000000 0.028764 0.000000
# 6 0.000000 0.000000 0.000000 0.000000 0.000000 0.037794
#
#
# Mechanical properties :
#
#
# Convention : Reuss Voigt Hill
#
# Bulk Modulus (GPa) = 47.41220 62.97257 55.19238
# Shear Modulus (GPa) = 3.15123 20.92873 12.03998
#
# Velocity S-wave (km/s) = 1.29129 3.32777 2.52403
# Velocity P-wave (km/s) = 5.22595 6.93443 6.13990
#
# Compressibility (1/GPa) = 0.02109162
#
# Stress axis : x y z
#
# Youngs Moduli (GPa) = 56.11870 25.09652 76.59161
#
# Poissons Ratio (x) = 0.25680 0.24462
# Poissons Ratio (y) = 0.57424 0.87227
# Poissons Ratio (z) = 0.17924 0.28581
#
# Static dielectric constant tensor:
#      x y z
#    x 3.615610 0.000000 0.000000 
#    y 0.000000 3.295920 0.000000 
#    z 0.000000 0.000000 3.626650 
# 
# 
# High freq. dielectric constant tensor:
#      x y z
#    x 1.749440 0.000000 0.000000 
#    y 0.000000 1.718650 0.000000 
#    z 0.000000 0.000000 1.749920 
# 
# From -- ./inp_files/67508.got.cif
#   From: 2010.03.12/outbox.cif.g09.slc.cpg/sg65_34_cif.got.tgz:67508.got - 2010.04.10 20:52:16.
