data_PCOD8273003
_publ_section_title
;
Structure prediction by ZEFSAII (Michael W. Deem and Ramdas Pophale) SiO2 
 PCOD8273003
Probable space group: C M M M
;
_chemical_formula_sum "Si O2"
_cell_formula_units_Z 80
_cell_length_a 9.035465
_cell_length_b 19.527338
_cell_length_c 25.739153
_cell_angle_alpha 90.000000
_cell_angle_beta 90.000000
_cell_angle_gamma 90.000000
_cell_volume 4541.379581
_symmetry_space_group_name_H-M "C M M M"
_symmetry_group_IT_number 65
_symmetry_cell_setting 'orthorhombic'
loop_
_space_group_symop_operation_xyz
x,y,z
-x,-y,z
x,-y,-z
-x,y,-z
-x,-y,-z
x,y,-z
-x,y,z
x,-y,z
1/2+x,1/2+y,z
1/2-x,1/2-y,z
1/2+x,1/2-y,-z
1/2-x,1/2+y,-z
1/2-x,1/2-y,-z
1/2+x,1/2+y,-z
1/2-x,1/2+y,z
1/2+x,1/2-y,z
loop_
_atom_site_type_symbol
_atom_site_label
_atom_site_fract_x
_atom_site_fract_y
_atom_site_fract_z
Si Si1 0.173148 0.421307 0.258527
Si Si2 0.674399 0.823119 0.832694
Si Si3 0.827881 0.680535 0.560642
Si Si4 0.327446 0.177955 0.054814
Si Si5 0.671246 0.580255 0.636205
O O1 0.209341 0.500000 0.245477
O O2 0.230837 0.376539 0.210199
O O3 0.261553 0.395984 0.308929
O O4 0.000000 0.410647 0.269282
O O5 0.500000 0.811898 0.827457
O O6 0.750000 0.750000 0.823846
O O7 0.715966 0.856347 0.889728
O O8 0.800002 0.668280 0.500000
O O9 0.750000 0.750000 0.579682
O O10 0.756648 0.616703 0.589770
O O11 0.000000 0.685819 0.574247
O O12 0.500000 0.192578 0.055728
O O13 0.250000 0.250000 0.052876
O O14 0.287064 0.137755 0.000000
O O15 0.500000 0.600881 0.634815
O O16 0.695598 0.500000 0.627994
#
# Coordination Sequence:
#
# PCOD8273003 Si02
#       5
#    16  16  16  16  16
#     4   9  18  33  50  66  90 126 163 197 236 285
#     4   9  17  28  44  67  91 117 152 193 236 281
#     4  10  21  37  57  80 106 135 165 198 239 287
#     4   8  13  22  37  58  85 114 144 182 228 277
#     4  10  21  36  54  76 101 130 166 206 245 287
#
# _framework density 17.615791000000002
#
# number of rings (size 3 to 8) (size 9 to 14) (size 15 to 20)
#    0.000    2.800    0.000    1.200    0.000    4.400 
#    0.000    4.000    0.000    0.600    0.000    4.200 
#    0.000    0.000    0.000   37.400    0.000   20.400 
#
# Total GULP energy -495618.198875 kJ/mol
# GULP energy per Si atom -12390.454972 kJ/mol
# Density = 1.757570 g / cm^3
# Si number density = 17.615791 Si / 1000 Ang^3
#
#
#
# Elastic Constant Matrix: (Units=GPa)
#
#
# Indices 1 2 3 4 5 6 
#
# 1 67.6635 34.6887 57.8652 0.0000 0.0000 0.0000
# 2 34.6887 60.2112 61.7006 0.0000 0.0000 0.0000
# 3 57.8652 61.7006 133.0663 0.0000 0.0000 0.0000
# 4 0.0000 0.0000 0.0000 19.1000 0.0000 0.0000
# 5 0.0000 0.0000 0.0000 0.0000 22.4814 0.0000
# 6 0.0000 0.0000 0.0000 0.0000 0.0000 25.0352
#
#
#
# Elastic Compliance Matrix: (Units=1/GPa)
#
#
# Indices 1 2 3 4 5 6 
#
# 1 0.024663 -0.006132 -0.007882 0.000000 0.000000 0.000000
# 2 -0.006132 0.033169 -0.012713 0.000000 0.000000 0.000000
# 3 -0.007882 -0.012713 0.016837 0.000000 0.000000 0.000000
# 4 0.000000 0.000000 0.000000 0.052356 0.000000 0.000000
# 5 0.000000 0.000000 0.000000 0.000000 0.044481 0.000000
# 6 0.000000 0.000000 0.000000 0.000000 0.000000 0.039944
#
#
# Mechanical properties :
#
#
# Convention : Reuss Voigt Hill
#
# Bulk Modulus (GPa) = 47.13611 63.27224 55.20418
# Shear Modulus (GPa) = 18.38401 20.43576 19.40989
#
# Velocity S-wave (km/s) = 3.23400 3.40969 3.32301
# Velocity P-wave (km/s) = 6.38443 7.17616 6.79184
#
# Compressibility (1/GPa) = 0.02121516
#
# Stress axis : x y z
#
# Youngs Moduli (GPa) = 40.54649 30.14893 59.39221
#
# Poissons Ratio (x) = 0.18488 0.46810
# Poissons Ratio (y) = 0.24864 0.75506
# Poissons Ratio (z) = 0.31957 0.38328
#
# Static dielectric constant tensor:
#      x y z
#    x 3.131070 0.000000 0.000000 
#    y 0.000000 2.992860 0.000000 
#    z 0.000000 0.000000 3.854620 
# 
# 
# High freq. dielectric constant tensor:
#      x y z
#    x 1.684110 0.000000 0.000000 
#    y 0.000000 1.645080 0.000000 
#    z 0.000000 0.000000 1.703850 
# 
# From -- ./inp_files/72742.got.cif
#   From: 2010.03.12/outbox.cif.g09.slc.cpg/sg65_37_cif.got.tgz:72742.got - 2010.04.10 20:52:16.
