data_PCOD8273114
_publ_section_title
;
Structure prediction by ZEFSAII (Michael W. Deem and Ramdas Pophale) SiO2 
 PCOD8273114
Probable space group: C M M M
;
_chemical_formula_sum "Si O2"
_cell_formula_units_Z 72
_cell_length_a 9.169870
_cell_length_b 18.369246
_cell_length_c 22.892515
_cell_angle_alpha 90.000000
_cell_angle_beta 90.000000
_cell_angle_gamma 90.000000
_cell_volume 3856.097590
_symmetry_space_group_name_H-M "C M M M"
_symmetry_group_IT_number 65
_symmetry_cell_setting 'orthorhombic'
loop_
_space_group_symop_operation_xyz
x,y,z
-x,-y,z
x,-y,-z
-x,y,-z
-x,-y,-z
x,y,-z
-x,y,z
x,-y,z
1/2+x,1/2+y,z
1/2-x,1/2-y,z
1/2+x,1/2-y,-z
1/2-x,1/2+y,-z
1/2-x,1/2-y,-z
1/2+x,1/2+y,-z
1/2-x,1/2+y,z
1/2+x,1/2-y,z
loop_
_atom_site_type_symbol
_atom_site_label
_atom_site_fract_x
_atom_site_fract_y
_atom_site_fract_z
Si Si1 0.668855 0.178188 0.434588
Si Si2 0.827679 0.827009 0.772206
Si Si3 0.669746 0.583595 0.113526
Si Si4 0.668875 0.915734 0.674015
Si Si5 0.335477 0.086588 0.000000
O O1 0.721016 0.156471 0.500000
O O2 0.500000 0.197993 0.434327
O O3 0.750000 0.250000 0.411698
O O4 0.702728 0.111460 0.391529
O O5 0.750000 0.750000 0.773045
O O6 0.784479 0.869438 0.830855
O O7 0.772421 0.873377 0.717913
O O8 0.000000 0.816006 0.766453
O O9 0.500000 0.590220 0.099156
O O10 0.713233 0.500000 0.126332
O O11 0.755843 0.615804 0.057966
O O12 0.500000 0.902055 0.690566
O O13 0.709733 0.000000 0.676741
O O14 0.500000 0.116083 0.000000
O O15 0.328439 0.000000 0.000000
#
# Coordination Sequence:
#
# PCOD8273114 Si02
#       5
#    16  16  16  16   8
#     4   9  18  33  53  77 106 141 179 217 260 313
#     4  11  23  38  56  78 106 141 180 221 268 320
#     4   9  18  34  55  77 103 137 175 213 257 312
#     4  10  21  36  55  80 108 139 177 222 270 317
#     4   9  17  29  50  81 110 135 167 211 260 307
#
# _framework density 18.671727000000001
#
# number of rings (size 3 to 8) (size 9 to 14) (size 15 to 20)
#    0.000    2.333    0.000    2.333    0.000    7.556 
#    0.000    5.000    0.000    0.000    0.000    4.667 
#    0.000    0.000    0.000    0.000    0.000    0.000 
#
# Total GULP energy -446476.404315 kJ/mol
# GULP energy per Si atom -12402.122342 kJ/mol
# Density = 1.862923 g / cm^3
# Si number density = 18.671727 Si / 1000 Ang^3
#
#
#
# Elastic Constant Matrix: (Units=GPa)
#
#
# Indices 1 2 3 4 5 6 
#
# 1 74.7733 52.6850 65.0044 0.0000 0.0000 0.0000
# 2 52.6850 118.3463 73.0965 0.0000 0.0000 0.0000
# 3 65.0044 73.0965 140.9636 0.0000 0.0000 0.0000
# 4 0.0000 0.0000 0.0000 16.5900 0.0000 0.0000
# 5 0.0000 0.0000 0.0000 0.0000 28.9101 0.0000
# 6 0.0000 0.0000 0.0000 0.0000 0.0000 17.8420
#
#
#
# Elastic Compliance Matrix: (Units=1/GPa)
#
#
# Indices 1 2 3 4 5 6 
#
# 1 0.024802 -0.005851 -0.008403 0.000000 0.000000 0.000000
# 2 -0.005851 0.013812 -0.004464 0.000000 0.000000 0.000000
# 3 -0.008403 -0.004464 0.013284 0.000000 0.000000 0.000000
# 4 0.000000 0.000000 0.000000 0.060277 0.000000 0.000000
# 5 0.000000 0.000000 0.000000 0.000000 0.034590 0.000000
# 6 0.000000 0.000000 0.000000 0.000000 0.000000 0.056048
#
#
# Mechanical properties :
#
#
# Convention : Reuss Voigt Hill
#
# Bulk Modulus (GPa) = 69.15062 79.51721 74.33392
# Shear Modulus (GPa) = 20.40251 22.22156 21.31203
#
# Velocity S-wave (km/s) = 3.30918 3.45355 3.38214
# Velocity P-wave (km/s) = 7.19140 7.65389 7.42625
#
# Compressibility (1/GPa) = 0.01446119
#
# Stress axis : x y z
#
# Youngs Moduli (GPa) = 40.32012 72.40310 75.27983
#
# Poissons Ratio (x) = 0.42362 0.63258
# Poissons Ratio (y) = 0.23591 0.33604
# Poissons Ratio (z) = 0.33881 0.32320
#
# Static dielectric constant tensor:
#      x y z
#    x 3.445410 0.000000 0.000000 
#    y 0.000000 3.359070 0.000000 
#    z 0.000000 0.000000 3.668450 
# 
# 
# High freq. dielectric constant tensor:
#      x y z
#    x 1.724610 0.000000 0.000000 
#    y 0.000000 1.711220 0.000000 
#    z 0.000000 0.000000 1.739500 
# 
# From -- ./inp_files/59275.got.cif
#   From: 2010.03.12/outbox.cif.g09.slc.cpg/sg65_30_cif.got.tgz:59275.got - 2010.04.10 20:52:16.
