data_PCOD8273436
_publ_section_title
;
Structure prediction by ZEFSAII (Michael W. Deem and Ramdas Pophale) SiO2 
 PCOD8273436
Probable space group: C M M M
;
_chemical_formula_sum "Si O2"
_cell_formula_units_Z 72
_cell_length_a 17.798548
_cell_length_b 9.279575
_cell_length_c 23.219484
_cell_angle_alpha 90.000000
_cell_angle_beta 90.000000
_cell_angle_gamma 90.000000
_cell_volume 3834.998732
_symmetry_space_group_name_H-M "C M M M"
_symmetry_group_IT_number 65
_symmetry_cell_setting 'orthorhombic'
loop_
_space_group_symop_operation_xyz
x,y,z
-x,-y,z
x,-y,-z
-x,y,-z
-x,-y,-z
x,y,-z
-x,y,z
x,-y,z
1/2+x,1/2+y,z
1/2-x,1/2-y,z
1/2+x,1/2-y,-z
1/2-x,1/2+y,-z
1/2-x,1/2-y,-z
1/2+x,1/2+y,-z
1/2-x,1/2+y,z
1/2+x,1/2-y,z
loop_
_atom_site_type_symbol
_atom_site_label
_atom_site_fract_x
_atom_site_fract_y
_atom_site_fract_z
Si Si1 0.088041 0.334983 0.384413
Si Si2 0.414384 0.668525 0.828000
Si Si3 0.672633 0.832272 0.500000
Si Si4 0.671414 0.671051 0.713134
Si Si5 0.589277 0.162519 0.936997
O O1 0.108749 0.500000 0.368161
O O2 0.125790 0.287772 0.444006
O O3 0.115077 0.226461 0.335396
O O4 0.000000 0.316328 0.392383
O O5 0.500000 0.720676 0.816627
O O6 0.412350 0.500000 0.838365
O O7 0.363587 0.714843 0.774392
O O8 0.378887 0.740215 0.885279
O O9 0.750000 0.750000 0.500000
O O10 0.690845 0.000000 0.500000
O O11 0.681830 0.500000 0.707045
O O12 0.750000 0.750000 0.705252
O O13 0.500000 0.170042 0.936550
O O14 0.617008 0.000000 0.926494
O O15 0.618112 0.216626 0.000000
#
# Coordination Sequence:
#
# PCOD8273436 Si02
#       5
#    16  16   8  16  16
#     4  10  21  38  60  84 110 142 180 221 266 315
#     4   9  18  32  50  73 101 133 169 212 262 313
#     4  10  21  37  57  83 115 148 181 218 260 310
#     4  11  23  38  55  77 107 141 179 223 269 319
#     4   8  14  25  43  70 102 132 164 206 255 307
#
# _framework density 18.774452
#
# number of rings (size 3 to 8) (size 9 to 14) (size 15 to 20)
#    0.000    2.444    0.000    3.000    0.000    7.556 
#    0.000    4.444    0.000    2.667    0.000    0.000 
#    0.000    0.000    0.000    0.000    0.000    0.000 
#
# Total GULP energy -446374.867158 kJ/mol
# GULP energy per Si atom -12399.301866 kJ/mol
# Density = 1.873172 g / cm^3
# Si number density = 18.774452 Si / 1000 Ang^3
#
#
#
# Elastic Constant Matrix: (Units=GPa)
#
#
# Indices 1 2 3 4 5 6 
#
# 1 79.0812 33.6979 47.1784 0.0000 0.0000 0.0000
# 2 33.6979 61.3943 64.0341 0.0000 0.0000 0.0000
# 3 47.1784 64.0341 163.4230 0.0000 0.0000 0.0000
# 4 0.0000 0.0000 0.0000 78.5069 0.0000 0.0000
# 5 0.0000 0.0000 0.0000 0.0000 -2.6657 0.0000
# 6 0.0000 0.0000 0.0000 0.0000 0.0000 23.4375
#
#
#
# Elastic Compliance Matrix: (Units=1/GPa)
#
#
# Indices 1 2 3 4 5 6 
#
# 1 0.016924 -0.007092 -0.002107 0.000000 0.000000 0.000000
# 2 -0.007092 0.030517 -0.009910 0.000000 0.000000 0.000000
# 3 -0.002107 -0.009910 0.010611 0.000000 0.000000 0.000000
# 4 0.000000 0.000000 0.000000 0.012738 0.000000 0.000000
# 5 0.000000 0.000000 0.000000 0.000000 -0.375139 0.000000
# 6 0.000000 0.000000 0.000000 0.000000 0.000000 0.042667
#
#
# Mechanical properties :
#
#
# Convention : Reuss Voigt Hill
#
# Bulk Modulus (GPa) = 50.41897 65.96879 58.19388
# Shear Modulus (GPa) = -23.05698 30.45495 3.69898
#
# Velocity S-wave (km/s) = -3.50823 4.03196 1.40517
# Velocity P-wave (km/s) = 3.24085 7.54251 5.80485
#
# Compressibility (1/GPa) = 0.01983380
#
# Stress axis : x y z
#
# Youngs Moduli (GPa) = 59.08720 32.76881 94.24616
#
# Poissons Ratio (x) = 0.23238 0.19859
# Poissons Ratio (y) = 0.41902 0.93400
# Poissons Ratio (z) = 0.12451 0.32474
#
# Static dielectric constant tensor:
#      x y z
#    x 3.264880 0.000000 0.000000 
#    y 0.000000 3.505290 0.000000 
#    z 0.000000 0.000000 3.846140 
# 
# 
# High freq. dielectric constant tensor:
#      x y z
#    x 1.708160 0.000000 0.000000 
#    y 0.000000 1.724290 0.000000 
#    z 0.000000 0.000000 1.747920 
# 
# From -- ./inp_files/59236.got.cif
#   From: 2010.03.12/outbox.cif.g09.slc.cpg/sg65_30_cif.got.tgz:59236.got - 2010.04.10 20:52:16.
