data_PCOD8273266
_publ_section_title
;
Structure prediction by ZEFSAII (Michael W. Deem and Ramdas Pophale) SiO2 
 PCOD8273266
Probable space group: C M M M
;
_chemical_formula_sum "Si O2"
_cell_formula_units_Z 72
_cell_length_a 29.183346
_cell_length_b 8.726659
_cell_length_c 15.370130
_cell_angle_alpha 90.000000
_cell_angle_beta 90.000000
_cell_angle_gamma 90.000000
_cell_volume 3914.358793
_symmetry_space_group_name_H-M "C M M M"
_symmetry_group_IT_number 65
_symmetry_cell_setting 'orthorhombic'
loop_
_space_group_symop_operation_xyz
x,y,z
-x,-y,z
x,-y,-z
-x,y,-z
-x,-y,-z
x,y,-z
-x,y,z
x,-y,z
1/2+x,1/2+y,z
1/2-x,1/2-y,z
1/2+x,1/2-y,-z
1/2-x,1/2+y,-z
1/2-x,1/2-y,-z
1/2+x,1/2+y,-z
1/2-x,1/2+y,z
1/2+x,1/2-y,z
loop_
_atom_site_type_symbol
_atom_site_label
_atom_site_fract_x
_atom_site_fract_y
_atom_site_fract_z
Si Si1 0.949609 0.822804 0.238808
Si Si2 0.500000 0.819202 0.097841
Si Si3 0.200748 0.175927 0.597044
Si Si4 0.700911 0.680934 0.900155
Si Si5 0.143437 0.320729 0.746830
O O1 0.954721 0.755763 0.140974
O O2 0.907927 0.730405 0.280587
O O3 0.000000 0.798464 0.285866
O O4 0.936215 0.000000 0.236574
O O5 0.500000 0.000000 0.111608
O O6 0.500000 0.767502 0.000000
O O7 0.179131 0.184629 0.500000
O O8 0.250000 0.250000 0.595162
O O9 0.172104 0.276220 0.663135
O O10 0.203229 0.000000 0.629002
O O11 0.704297 0.500000 0.890240
O O12 0.750000 0.750000 0.872500
O O13 0.661713 0.741587 0.835114
O O14 0.688918 0.727776 0.000000
O O15 0.145350 0.500000 0.762616
#
# Coordination Sequence:
#
# PCOD8273266 Si02
#       5
#    16   8  16  16  16
#     4   9  20  36  54  75 103 140 181 227 274 325
#     4   9  17  31  51  75 104 137 176 225 279 329
#     4  10  21  38  60  86 117 149 185 230 279 334
#     4  10  21  37  55  76 107 145 186 230 274 327
#     4  12  23  35  57  83 112 148 186 230 279 336
#
# _framework density 18.393816999999999
#
# number of rings (size 3 to 8) (size 9 to 14) (size 15 to 20)
#    0.667    1.222    0.000    4.667    0.000    4.444 
#    0.000    0.000    0.000    0.667    0.000    4.667 
#    0.000    0.000    0.000    0.000    0.000    0.000 
#
# Total GULP energy -446110.701753 kJ/mol
# GULP energy per Si atom -12391.963938 kJ/mol
# Density = 1.835195 g / cm^3
# Si number density = 18.393817 Si / 1000 Ang^3
#
#
#
# Elastic Constant Matrix: (Units=GPa)
#
#
# Indices 1 2 3 4 5 6 
#
# 1 94.7125 36.5686 37.0221 0.0000 0.0000 0.0000
# 2 36.5686 105.6060 27.5699 0.0000 0.0000 0.0000
# 3 37.0221 27.5699 72.0777 0.0000 0.0000 0.0000
# 4 0.0000 0.0000 0.0000 16.1278 0.0000 0.0000
# 5 0.0000 0.0000 0.0000 0.0000 13.9196 0.0000
# 6 0.0000 0.0000 0.0000 0.0000 0.0000 31.7146
#
#
#
# Elastic Compliance Matrix: (Units=1/GPa)
#
#
# Indices 1 2 3 4 5 6 
#
# 1 0.014202 -0.003348 -0.006014 0.000000 0.000000 0.000000
# 2 -0.003348 0.011309 -0.002606 0.000000 0.000000 0.000000
# 3 -0.006014 -0.002606 0.017960 0.000000 0.000000 0.000000
# 4 0.000000 0.000000 0.000000 0.062005 0.000000 0.000000
# 5 0.000000 0.000000 0.000000 0.000000 0.071841 0.000000
# 6 0.000000 0.000000 0.000000 0.000000 0.000000 0.031531
#
#
# Mechanical properties :
#
#
# Convention : Reuss Voigt Hill
#
# Bulk Modulus (GPa) = 51.19133 52.74636 51.96884
# Shear Modulus (GPa) = 20.89475 23.76811 22.33143
#
# Velocity S-wave (km/s) = 3.37407 3.59859 3.48813
# Velocity P-wave (km/s) = 6.56279 6.78269 6.67365
#
# Compressibility (1/GPa) = 0.01953456
#
# Stress axis : x y z
#
# Youngs Moduli (GPa) = 70.41456 88.42742 55.67976
#
# Poissons Ratio (x) = 0.29602 0.33486
# Poissons Ratio (y) = 0.23572 0.14511
# Poissons Ratio (z) = 0.42348 0.23045
#
# Static dielectric constant tensor:
#      x y z
#    x 3.895390 0.000000 0.000000 
#    y 0.000000 3.504600 0.000000 
#    z 0.000000 0.000000 3.371570 
# 
# 
# High freq. dielectric constant tensor:
#      x y z
#    x 1.707810 0.000000 0.000000 
#    y 0.000000 1.733720 0.000000 
#    z 0.000000 0.000000 1.692020 
# 
# From -- ./inp_files/46495.got.cif
#   From: 2010.03.12/outbox.cif.g09.slc.cpg/sg65_24_cif.got.tgz:46495.got - 2010.04.10 20:52:16.
