data_PCOD8273601
_publ_section_title
;
Structure prediction by ZEFSAII (Michael W. Deem and Ramdas Pophale) SiO2 
 PCOD8273601
Probable space group: C M M M
;
_chemical_formula_sum "Si O2"
_cell_formula_units_Z 88
_cell_length_a 8.734644
_cell_length_b 19.700242
_cell_length_c 27.811771
_cell_angle_alpha 90.000000
_cell_angle_beta 90.000000
_cell_angle_gamma 90.000000
_cell_volume 4785.699386
_symmetry_space_group_name_H-M "C M M M"
_symmetry_group_IT_number 65
_symmetry_cell_setting 'orthorhombic'
loop_
_space_group_symop_operation_xyz
x,y,z
-x,-y,z
x,-y,-z
-x,y,-z
-x,-y,-z
x,y,-z
-x,y,z
x,-y,z
1/2+x,1/2+y,z
1/2-x,1/2-y,z
1/2+x,1/2-y,-z
1/2-x,1/2+y,-z
1/2-x,1/2-y,-z
1/2+x,1/2+y,-z
1/2-x,1/2+y,z
1/2+x,1/2-y,z
loop_
_atom_site_type_symbol
_atom_site_label
_atom_site_fract_x
_atom_site_fract_y
_atom_site_fract_z
Si Si1 0.181673 0.178782 0.868417
Si Si2 0.818038 0.924349 0.053204
Si Si3 0.680568 0.679111 0.239554
Si Si4 0.819129 0.174396 0.500000
Si Si5 0.823826 0.077541 0.320748
Si Si6 0.179377 0.577845 0.421496
O O1 0.250000 0.250000 0.884733
O O2 0.250225 0.123735 0.905391
O O3 0.236131 0.160202 0.814318
O O4 0.000000 0.182517 0.871413
O O5 0.000000 0.924959 0.056277
O O6 0.754579 0.000000 0.062306
O O7 0.766958 0.899098 0.000000
O O8 0.500000 0.685862 0.240709
O O9 0.750000 0.750000 0.256826
O O10 0.737536 0.621571 0.276179
O O11 0.750000 0.250000 0.500000
O O12 0.768550 0.131887 0.453576
O O13 0.000000 0.182192 0.500000
O O14 0.719863 0.094318 0.366574
O O15 0.000000 0.094278 0.333574
O O16 0.805266 0.000000 0.304755
O O17 0.227772 0.500000 0.434212
O O18 0.000000 0.587679 0.430097
#
# Coordination Sequence:
#
# PCOD8273601 Si02
#       6
#    16  16  16   8  16  16
#     4   9  17  29  45  66  92 122 157 196 240 290
#     4   8  14  25  42  65  91 118 152 196 242 286
#     4   9  18  31  47  68  95 127 160 198 244 292
#     4  12  25  40  59  83 111 141 175 214 255 298
#     4   9  18  33  52  74  99 128 166 208 247 290
#     4  10  21  38  59  82 109 140 173 209 251 300
#
# _framework density 18.388117999999999
#
# number of rings (size 3 to 8) (size 9 to 14) (size 15 to 20)
#    0.000    2.727    0.000    2.182    0.000    4.727 
#    0.000    5.455    0.000    0.545    0.000    6.364 
#    0.000    0.000    0.000    0.000    0.000    0.000 
#
# Total GULP energy -545501.299867 kJ/mol
# GULP energy per Si atom -12397.756815 kJ/mol
# Density = 1.834627 g / cm^3
# Si number density = 18.388118 Si / 1000 Ang^3
#
#
#
# Elastic Constant Matrix: (Units=GPa)
#
#
# Indices 1 2 3 4 5 6 
#
# 1 43.9614 37.5082 31.2706 0.0000 0.0000 0.0000
# 2 37.5082 141.1679 102.4482 0.0000 0.0000 0.0000
# 3 31.2706 102.4482 134.7412 0.0000 0.0000 0.0000
# 4 0.0000 0.0000 0.0000 45.8732 0.0000 0.0000
# 5 0.0000 0.0000 0.0000 0.0000 17.0975 0.0000
# 6 0.0000 0.0000 0.0000 0.0000 0.0000 28.0236
#
#
#
# Elastic Compliance Matrix: (Units=1/GPa)
#
#
# Indices 1 2 3 4 5 6 
#
# 1 0.029653 -0.006435 -0.001989 0.000000 0.000000 0.000000
# 2 -0.006435 0.017201 -0.011585 0.000000 0.000000 0.000000
# 3 -0.001989 -0.011585 0.016692 0.000000 0.000000 0.000000
# 4 0.000000 0.000000 0.000000 0.021799 0.000000 0.000000
# 5 0.000000 0.000000 0.000000 0.000000 0.058488 0.000000
# 6 0.000000 0.000000 0.000000 0.000000 0.000000 0.035684
#
#
# Mechanical properties :
#
#
# Convention : Reuss Voigt Hill
#
# Bulk Modulus (GPa) = 42.50429 73.59160 58.04795
# Shear Modulus (GPa) = 21.98982 28.10841 25.04912
#
# Velocity S-wave (km/s) = 3.46189 3.91400 3.69486
# Velocity P-wave (km/s) = 6.25658 7.78036 7.05970
#
# Compressibility (1/GPa) = 0.02352704
#
# Stress axis : x y z
#
# Youngs Moduli (GPa) = 33.72389 58.13548 59.91001
#
# Poissons Ratio (x) = 0.37413 0.11914
# Poissons Ratio (y) = 0.21703 0.69406
# Poissons Ratio (z) = 0.06706 0.67351
#
# Static dielectric constant tensor:
#      x y z
#    x 3.140980 0.000000 0.000000 
#    y 0.000000 2.600920 0.000000 
#    z 0.000000 0.000000 3.659940 
# 
# 
# High freq. dielectric constant tensor:
#      x y z
#    x 1.689160 0.000000 0.000000 
#    y 0.000000 1.713230 0.000000 
#    z 0.000000 0.000000 1.722230 
# 
# From -- ./inp_files/73127.got.cif
#   From: 2010.03.12/outbox.cif.g09.slc.cpg/sg65_37_cif.got.tgz:73127.got - 2010.04.10 20:52:16.
