data_PCOD8273169
_publ_section_title
;
Structure prediction by ZEFSAII (Michael W. Deem and Ramdas Pophale) SiO2 
 PCOD8273169
Probable space group: C M M M
;
_chemical_formula_sum "Si O2"
_cell_formula_units_Z 88
_cell_length_a 8.955356
_cell_length_b 18.774149
_cell_length_c 28.158087
_cell_angle_alpha 90.000000
_cell_angle_beta 90.000000
_cell_angle_gamma 90.000000
_cell_volume 4734.196300
_symmetry_space_group_name_H-M "C M M M"
_symmetry_group_IT_number 65
_symmetry_cell_setting 'orthorhombic'
loop_
_space_group_symop_operation_xyz
x,y,z
-x,-y,z
x,-y,-z
-x,y,-z
-x,-y,-z
x,y,-z
-x,y,z
x,-y,z
1/2+x,1/2+y,z
1/2-x,1/2-y,z
1/2+x,1/2-y,-z
1/2-x,1/2+y,-z
1/2-x,1/2-y,-z
1/2+x,1/2+y,-z
1/2-x,1/2+y,z
1/2+x,1/2-y,z
loop_
_atom_site_type_symbol
_atom_site_label
_atom_site_fract_x
_atom_site_fract_y
_atom_site_fract_z
Si Si1 0.173959 0.418180 0.275001
Si Si2 0.678169 0.418104 0.897070
Si Si3 0.337944 0.583878 0.000000
Si Si4 0.669487 0.415840 0.370261
Si Si5 0.175089 0.322878 0.554436
Si Si6 0.676706 0.173402 0.815727
O O1 0.215578 0.500000 0.263830
O O2 0.263179 0.388859 0.320466
O O3 0.223725 0.371649 0.230280
O O4 0.000000 0.409912 0.286274
O O5 0.500000 0.407442 0.894345
O O6 0.719504 0.500000 0.885310
O O7 0.741017 0.396191 0.949922
O O8 0.761595 0.366496 0.861494
O O9 0.362663 0.500000 0.000000
O O10 0.500000 0.621222 0.000000
O O11 0.500000 0.388774 0.373899
O O12 0.681145 0.500000 0.373104
O O13 0.763609 0.386865 0.414170
O O14 0.217590 0.339342 0.500000
O O15 0.250000 0.250000 0.571825
O O16 0.000000 0.315611 0.561634
O O17 0.500000 0.181134 0.820278
O O18 0.750000 0.250000 0.811215
#
# Coordination Sequence:
#
# PCOD8273169 Si02
#       6
#    16  16   8  16  16  16
#     4   9  19  37  58  77 101 136 176 219 267 317
#     4   9  17  32  56  82 107 137 173 214 261 314
#     4   7  12  26  50  79 106 133 169 211 256 309
#     4  10  21  36  56  83 112 141 175 217 263 312
#     4  10  21  37  57  80 108 144 183 221 263 313
#     4  11  23  37  53  76 107 141 178 219 264 313
#
# _framework density 18.588159999999998
#
# number of rings (size 3 to 8) (size 9 to 14) (size 15 to 20)
#    0.000    2.455    0.000    3.273    0.000    5.818 
#    0.000    6.364    0.000    1.636    0.000    0.000 
#    0.000    0.000    0.000    0.000    0.000    0.000 
#
# Total GULP energy -545508.655794 kJ/mol
# GULP energy per Si atom -12397.923995 kJ/mol
# Density = 1.854585 g / cm^3
# Si number density = 18.588160 Si / 1000 Ang^3
#
#
#
# Elastic Constant Matrix: (Units=GPa)
#
#
# Indices 1 2 3 4 5 6 
#
# 1 73.5622 39.9036 58.7148 0.0000 0.0000 0.0000
# 2 39.9036 78.2228 64.5221 0.0000 0.0000 0.0000
# 3 58.7148 64.5221 147.6230 0.0000 0.0000 0.0000
# 4 0.0000 0.0000 0.0000 3.0254 0.0000 0.0000
# 5 0.0000 0.0000 0.0000 0.0000 24.3731 0.0000
# 6 0.0000 0.0000 0.0000 0.0000 0.0000 12.4897
#
#
#
# Elastic Compliance Matrix: (Units=1/GPa)
#
#
# Indices 1 2 3 4 5 6 
#
# 1 0.021666 -0.006168 -0.005921 0.000000 0.000000 0.000000
# 2 -0.006168 0.021747 -0.007052 0.000000 0.000000 0.000000
# 3 -0.005921 -0.007052 0.012211 0.000000 0.000000 0.000000
# 4 0.000000 0.000000 0.000000 0.330532 0.000000 0.000000
# 5 0.000000 0.000000 0.000000 0.000000 0.041029 0.000000
# 6 0.000000 0.000000 0.000000 0.000000 0.000000 0.080066
#
#
# Mechanical properties :
#
#
# Convention : Reuss Voigt Hill
#
# Bulk Modulus (GPa) = 57.66409 69.52097 63.59253
# Shear Modulus (GPa) = 9.06922 17.06215 13.06568
#
# Velocity S-wave (km/s) = 2.21125 3.03298 2.65411
# Velocity P-wave (km/s) = 6.13260 7.05317 6.60893
#
# Compressibility (1/GPa) = 0.01734182
#
# Stress axis : x y z
#
# Youngs Moduli (GPa) = 46.15498 45.98273 81.89114
#
# Poissons Ratio (x) = 0.28363 0.48491
# Poissons Ratio (y) = 0.28469 0.57748
# Poissons Ratio (z) = 0.27330 0.32426
#
# Static dielectric constant tensor:
#      x y z
#    x 3.375450 0.000000 0.000000 
#    y 0.000000 3.271460 0.000000 
#    z 0.000000 0.000000 3.689070 
# 
# 
# High freq. dielectric constant tensor:
#      x y z
#    x 1.716110 0.000000 0.000000 
#    y 0.000000 1.706230 0.000000 
#    z 0.000000 0.000000 1.738060 
# 
# From -- ./inp_files/67509.got.cif
#   From: 2010.03.12/outbox.cif.g09.slc.cpg/sg65_34_cif.got.tgz:67509.got - 2010.04.10 20:52:16.
