data_PCOD8273670
_publ_section_title
;
Structure prediction by ZEFSAII (Michael W. Deem and Ramdas Pophale) SiO2 
 PCOD8273670
Probable space group: C M M M
;
_chemical_formula_sum "Si O2"
_cell_formula_units_Z 72
_cell_length_a 23.410409
_cell_length_b 17.898317
_cell_length_c 8.680294
_cell_angle_alpha 90.000000
_cell_angle_beta 90.000000
_cell_angle_gamma 90.000000
_cell_volume 3637.103266
_symmetry_space_group_name_H-M "C M M M"
_symmetry_group_IT_number 65
_symmetry_cell_setting 'orthorhombic'
loop_
_space_group_symop_operation_xyz
x,y,z
-x,-y,z
x,-y,-z
-x,y,-z
-x,-y,-z
x,y,-z
-x,y,z
x,-y,z
1/2+x,1/2+y,z
1/2-x,1/2-y,z
1/2+x,1/2-y,-z
1/2-x,1/2+y,-z
1/2-x,1/2-y,-z
1/2+x,1/2+y,-z
1/2-x,1/2+y,z
1/2+x,1/2-y,z
loop_
_atom_site_type_symbol
_atom_site_label
_atom_site_fract_x
_atom_site_fract_y
_atom_site_fract_z
Si Si1 0.500000 0.610173 0.823235
Si Si2 0.936098 0.500000 0.820935
Si Si3 0.121486 0.917883 0.679695
Si Si4 0.000000 0.261438 0.325880
Si Si5 0.816184 0.766337 0.677903
Si Si6 0.600406 0.841424 0.178681
O O1 0.441692 0.579567 0.750816
O O2 0.500000 0.698224 0.802547
O O3 0.500000 0.587121 0.000000
O O4 0.897158 0.428841 0.777297
O O5 0.000000 0.500000 0.742610
O O6 0.948327 0.500000 0.000000
O O7 0.112826 0.907107 0.500000
O O8 0.161948 0.848772 0.737643
O O9 0.149681 0.000000 0.715787
O O10 0.055259 0.309926 0.298593
O O11 0.000000 0.229371 0.500000
O O12 0.834148 0.756614 0.500000
O O13 0.750000 0.750000 0.699416
O O14 0.841395 0.701180 0.785061
O O15 0.583050 0.829909 0.000000
#
# Coordination Sequence:
#
# PCOD8273670 Si02
#       6
#     8   8  16   8  16  16
#     4  12  23  35  57  90 121 152 188 239 294 350
#     4   9  18  34  56  86 124 156 184 225 290 355
#     4  10  21  38  60  85 118 159 194 233 293 354
#     4  12  22  34  56  86 120 155 191 236 291 355
#     4  10  22  41  61  83 115 156 201 246 290 341
#     4  11  21  37  61  86 115 155 197 239 289 347
#
# _framework density 19.795974000000001
#
# number of rings (size 3 to 8) (size 9 to 14) (size 15 to 20)
#    0.000    1.444    3.333    3.000    0.000    2.222 
#    2.000    2.778    0.000    0.000    0.000    0.000 
#    0.000    0.000    0.000    0.000    0.000    0.000 
#
# Total GULP energy -445999.153113 kJ/mol
# GULP energy per Si atom -12388.865364 kJ/mol
# Density = 1.975092 g / cm^3
# Si number density = 19.795974 Si / 1000 Ang^3
#
#
#
# Elastic Constant Matrix: (Units=GPa)
#
#
# Indices 1 2 3 4 5 6 
#
# 1 99.8993 66.7793 27.3068 0.0000 0.0000 0.0000
# 2 66.7793 188.3620 35.0716 0.0000 0.0000 0.0000
# 3 27.3068 35.0716 42.8567 0.0000 0.0000 0.0000
# 4 0.0000 0.0000 0.0000 23.3755 0.0000 0.0000
# 5 0.0000 0.0000 0.0000 0.0000 17.5502 0.0000
# 6 0.0000 0.0000 0.0000 0.0000 0.0000 14.5468
#
#
#
# Elastic Compliance Matrix: (Units=1/GPa)
#
#
# Indices 1 2 3 4 5 6 
#
# 1 0.014258 -0.003968 -0.005838 0.000000 0.000000 0.000000
# 2 -0.003968 0.007368 -0.003501 0.000000 0.000000 0.000000
# 3 -0.005838 -0.003501 0.029918 0.000000 0.000000 0.000000
# 4 0.000000 0.000000 0.000000 0.042780 0.000000 0.000000
# 5 0.000000 0.000000 0.000000 0.000000 0.056979 0.000000
# 6 0.000000 0.000000 0.000000 0.000000 0.000000 0.068743
#
#
# Mechanical properties :
#
#
# Convention : Reuss Voigt Hill
#
# Bulk Modulus (GPa) = 40.11115 65.49258 52.80187
# Shear Modulus (GPa) = 19.61016 24.55854 22.08435
#
# Velocity S-wave (km/s) = 3.15082 3.52601 3.34368
# Velocity P-wave (km/s) = 5.79164 7.05214 6.45274
#
# Compressibility (1/GPa) = 0.02493072
#
# Stress axis : x y z
#
# Youngs Moduli (GPa) = 70.13498 135.73071 33.42458
#
# Poissons Ratio (x) = 0.53858 0.19512
# Poissons Ratio (y) = 0.27829 0.11702
# Poissons Ratio (z) = 0.40942 0.47518
#
# Static dielectric constant tensor:
#      x y z
#    x 3.364100 0.000000 0.000000 
#    y 0.000000 4.187190 0.000000 
#    z 0.000000 0.000000 3.435500 
# 
# 
# High freq. dielectric constant tensor:
#      x y z
#    x 1.750120 0.000000 0.000000 
#    y 0.000000 1.792130 0.000000 
#    z 0.000000 0.000000 1.756650 
# 
# From -- ./inp_files/13629.got.cif
#   From: 2010.03.12/outbox.cif.g09.slc.cpg/sg65_7_cif.got.tgz:13629.got - 2010.04.10 20:52:16.
