data_PCOD8273562
_publ_section_title
;
Structure prediction by ZEFSAII (Michael W. Deem and Ramdas Pophale) SiO2 
 PCOD8273562
Probable space group: C M M M
;
_chemical_formula_sum "Si O2"
_cell_formula_units_Z 104
_cell_length_a 23.146148
_cell_length_b 17.669470
_cell_length_c 14.637238
_cell_angle_alpha 90.000000
_cell_angle_beta 90.000000
_cell_angle_gamma 90.000000
_cell_volume 5986.340052
_symmetry_space_group_name_H-M "C M M M"
_symmetry_group_IT_number 65
_symmetry_cell_setting 'orthorhombic'
loop_
_space_group_symop_operation_xyz
x,y,z
-x,-y,z
x,-y,-z
-x,y,-z
-x,-y,-z
x,y,-z
-x,y,z
x,-y,z
1/2+x,1/2+y,z
1/2-x,1/2-y,z
1/2+x,1/2-y,-z
1/2-x,1/2+y,-z
1/2-x,1/2-y,-z
1/2+x,1/2+y,-z
1/2-x,1/2+y,z
1/2+x,1/2-y,z
loop_
_atom_site_type_symbol
_atom_site_label
_atom_site_fract_x
_atom_site_fract_y
_atom_site_fract_z
Si Si1 0.156737 0.585160 0.107049
Si Si2 0.746330 0.584783 0.599747
Si Si3 0.388340 0.356724 0.210355
Si Si4 0.754281 0.838169 0.220331
Si Si5 0.609317 0.585281 0.599584
Si Si6 0.067049 0.288158 0.894250
Si Si7 0.567965 0.500000 0.898122
O O1 0.144815 0.500000 0.142492
O O2 0.215257 0.617380 0.149126
O O3 0.101573 0.636258 0.133354
O O4 0.167037 0.585666 0.000000
O O5 0.769980 0.610913 0.500000
O O6 0.768783 0.500000 0.621907
O O7 0.768471 0.642301 0.677430
O O8 0.677840 0.584025 0.597335
O O9 0.319541 0.364525 0.205817
O O10 0.411101 0.362473 0.315649
O O11 0.410641 0.278577 0.169834
O O12 0.412550 0.425251 0.152744
O O13 0.750000 0.750000 0.201887
O O14 0.586649 0.615229 0.500000
O O15 0.586153 0.500000 0.615624
O O16 0.000000 0.304082 0.875670
O O17 0.077887 0.265947 0.000000
O O18 0.500000 0.500000 0.903771
O O19 0.594583 0.500000 0.000000
#
# Coordination Sequence:
#
# PCOD8273562 Si02
#       7
#    16  16  16  16  16  16   8
#     4  10  22  38  55  78 106 137 174 219 268 318
#     4   8  15  28  48  73 103 139 175 210 250 301
#     4  11  20  34  54  79 109 143 179 214 264 315
#     4  11  21  33  51  80 113 142 170 206 262 322
#     4   8  14  27  48  73 102 138 178 215 254 304
#     4  10  21  38  58  76  98 134 179 227 271 309
#     4  11  24  38  53  77 107 143 187 227 258 307
#
# _framework density 17.372886000000001
#
# number of rings (size 3 to 8) (size 9 to 14) (size 15 to 20)
#    0.000    2.231    2.308    2.308    2.154    3.385 
#    0.000    1.538    0.000    2.308    0.000    0.000 
#    0.000    0.000    0.000    4.615    0.000    0.462 
#
# Total GULP energy -644571.945368 kJ/mol
# GULP energy per Si atom -12395.614334 kJ/mol
# Density = 1.733334 g / cm^3
# Si number density = 17.372886 Si / 1000 Ang^3
#
#
#
# Elastic Constant Matrix: (Units=GPa)
#
#
# Indices 1 2 3 4 5 6 
#
# 1 71.0695 39.6083 40.2767 0.0000 0.0000 0.0000
# 2 39.6083 133.5483 71.1840 0.0000 0.0000 0.0000
# 3 40.2767 71.1840 104.3266 0.0000 0.0000 0.0000
# 4 0.0000 0.0000 0.0000 29.0687 0.0000 0.0000
# 5 0.0000 0.0000 0.0000 0.0000 2.0103 0.0000
# 6 0.0000 0.0000 0.0000 0.0000 0.0000 15.2288
#
#
#
# Elastic Compliance Matrix: (Units=1/GPa)
#
#
# Indices 1 2 3 4 5 6 
#
# 1 0.018591 -0.002653 -0.005367 0.000000 0.000000 0.000000
# 2 -0.002653 0.012146 -0.007263 0.000000 0.000000 0.000000
# 3 -0.005367 -0.007263 0.016613 0.000000 0.000000 0.000000
# 4 0.000000 0.000000 0.000000 0.034401 0.000000 0.000000
# 5 0.000000 0.000000 0.000000 0.000000 0.497437 0.000000
# 6 0.000000 0.000000 0.000000 0.000000 0.000000 0.065665
#
#
# Mechanical properties :
#
#
# Convention : Reuss Voigt Hill
#
# Bulk Modulus (GPa) = 59.58231 67.89804 63.74018
# Shear Modulus (GPa) = 7.34198 19.78659 13.56429
#
# Velocity S-wave (km/s) = 2.05798 3.37847 2.79726
# Velocity P-wave (km/s) = 6.32595 7.37471 6.87037
#
# Compressibility (1/GPa) = 0.01678350
#
# Stress axis : x y z
#
# Youngs Moduli (GPa) = 53.78965 82.32942 60.19270
#
# Poissons Ratio (x) = 0.21842 0.32306
# Poissons Ratio (y) = 0.14270 0.43721
# Poissons Ratio (z) = 0.28869 0.59800
#
# Static dielectric constant tensor:
#      x y z
#    x 4.716760 0.000000 0.000000 
#    y 0.000000 3.412500 0.000000 
#    z 0.000000 0.000000 3.785990 
# 
# 
# High freq. dielectric constant tensor:
#      x y z
#    x 1.643100 0.000000 0.000000 
#    y 0.000000 1.666480 0.000000 
#    z 0.000000 0.000000 1.682660 
# 
# From -- ./inp_files/45926.got.cif
#   From: 2010.03.12/outbox.cif.g09.slc.cpg/sg65_23_cif.got.tgz:45926.got - 2010.04.10 20:52:16.
