data_PCOD8273399
_publ_section_title
;
Structure prediction by ZEFSAII (Michael W. Deem and Ramdas Pophale) SiO2 
 PCOD8273399
Probable space group: C M M M
;
_chemical_formula_sum "Si O2"
_cell_formula_units_Z 104
_cell_length_a 18.571534
_cell_length_b 8.828762
_cell_length_c 33.524380
_cell_angle_alpha 90.000000
_cell_angle_beta 90.000000
_cell_angle_gamma 90.000000
_cell_volume 5496.779832
_symmetry_space_group_name_H-M "C M M M"
_symmetry_group_IT_number 65
_symmetry_cell_setting 'orthorhombic'
loop_
_space_group_symop_operation_xyz
x,y,z
-x,-y,z
x,-y,-z
-x,y,-z
-x,-y,-z
x,y,-z
-x,y,z
x,-y,z
1/2+x,1/2+y,z
1/2-x,1/2-y,z
1/2+x,1/2-y,-z
1/2-x,1/2+y,-z
1/2-x,1/2-y,-z
1/2+x,1/2+y,-z
1/2-x,1/2+y,z
1/2+x,1/2-y,z
loop_
_atom_site_type_symbol
_atom_site_label
_atom_site_fract_x
_atom_site_fract_y
_atom_site_fract_z
Si Si1 0.580824 0.319823 0.339925
Si Si2 0.084874 0.829171 0.888226
Si Si3 0.584064 0.176943 0.193385
Si Si4 0.328533 0.679520 0.264234
Si Si5 0.824912 0.322376 0.045855
Si Si6 0.328425 0.321050 0.413910
Si Si7 0.673514 0.323743 0.500000
O O1 0.500000 0.253154 0.337212
O O2 0.577844 0.500000 0.340375
O O3 0.626606 0.261654 0.302331
O O4 0.617897 0.257276 0.380281
O O5 0.109805 0.733569 0.849869
O O6 0.112489 0.749758 0.928044
O O7 0.000000 0.830232 0.891511
O O8 0.115051 0.000000 0.884666
O O9 0.500000 0.212538 0.200355
O O10 0.629932 0.268784 0.225098
O O11 0.600817 0.000000 0.197133
O O12 0.321404 0.500000 0.264005
O O13 0.250000 0.750000 0.265987
O O14 0.821197 0.500000 0.053310
O O15 0.750000 0.250000 0.059518
O O16 0.841872 0.282982 0.000000
O O17 0.319301 0.500000 0.409129
O O18 0.250000 0.250000 0.408174
O O19 0.363760 0.278849 0.457656
O O20 0.687054 0.500000 0.500000
O O21 0.750000 0.250000 0.500000
#
# Coordination Sequence:
#
# PCOD8273399 Si02
#       7
#    16  16  16  16  16  16   8
#     4   9  18  32  50  72  99 132 167 206 256 310
#     4  10  21  37  58  84 113 145 181 220 263 314
#     4  10  21  38  59  82 109 139 172 213 261 313
#     4  11  22  36  55  78 104 134 172 215 259 310
#     4  10  21  37  57  81 111 147 186 228 273 319
#     4   9  16  28  47  70  97 128 165 207 250 299
#     4   8  14  24  41  67  95 125 161 202 248 296
#
# _framework density 18.920169000000001
#
# number of rings (size 3 to 8) (size 9 to 14) (size 15 to 20)
#    0.000    2.308    0.000    2.769    0.000    4.308 
#    0.000    5.769    0.000    4.615    0.000    0.000 
#    0.000    6.154    0.000    0.000    0.000    0.000 
#
# Total GULP energy -644659.084475 kJ/mol
# GULP energy per Si atom -12397.290086 kJ/mol
# Density = 1.887711 g / cm^3
# Si number density = 18.920169 Si / 1000 Ang^3
#
#
#
# Elastic Constant Matrix: (Units=GPa)
#
#
# Indices 1 2 3 4 5 6 
#
# 1 83.3141 34.3125 67.5467 0.0000 0.0000 0.0000
# 2 34.3125 62.5149 40.3025 0.0000 0.0000 0.0000
# 3 67.5467 40.3025 147.7793 0.0000 0.0000 0.0000
# 4 0.0000 0.0000 0.0000 22.8699 0.0000 0.0000
# 5 0.0000 0.0000 0.0000 0.0000 44.9365 0.0000
# 6 0.0000 0.0000 0.0000 0.0000 0.0000 24.3752
#
#
#
# Elastic Compliance Matrix: (Units=1/GPa)
#
#
# Indices 1 2 3 4 5 6 
#
# 1 0.021035 -0.006488 -0.007845 0.000000 0.000000 0.000000
# 2 -0.006488 0.021410 -0.002873 0.000000 0.000000 0.000000
# 3 -0.007845 -0.002873 0.011136 0.000000 0.000000 0.000000
# 4 0.000000 0.000000 0.000000 0.043726 0.000000 0.000000
# 5 0.000000 0.000000 0.000000 0.000000 0.022254 0.000000
# 6 0.000000 0.000000 0.000000 0.000000 0.000000 0.041025
#
#
# Mechanical properties :
#
#
# Convention : Reuss Voigt Hill
#
# Bulk Modulus (GPa) = 52.17000 64.21464 58.19232
# Shear Modulus (GPa) = 24.82759 28.53276 26.68017
#
# Velocity S-wave (km/s) = 3.62640 3.88759 3.75926
# Velocity P-wave (km/s) = 6.72071 7.35966 7.04743
#
# Compressibility (1/GPa) = 0.01916811
#
# Stress axis : x y z
#
# Youngs Moduli (GPa) = 47.53873 46.70798 89.79498
#
# Poissons Ratio (x) = 0.30303 0.70448
# Poissons Ratio (y) = 0.30842 0.25802
# Poissons Ratio (z) = 0.37296 0.13421
#
# Static dielectric constant tensor:
#      x y z
#    x 3.373090 0.000000 0.000000 
#    y 0.000000 3.388200 0.000000 
#    z 0.000000 0.000000 3.890340 
# 
# 
# High freq. dielectric constant tensor:
#      x y z
#    x 1.720380 0.000000 0.000000 
#    y 0.000000 1.728380 0.000000 
#    z 0.000000 0.000000 1.756230 
# 
# From -- ./inp_files/78210.got.cif
#   From: 2010.03.12/outbox.cif.g09.slc.cpg/sg65_40_cif.got.tgz:78210.got - 2010.04.10 20:52:16.
