data_PCOD8273964
_publ_section_title
;
Structure prediction by ZEFSAII (Michael W. Deem and Ramdas Pophale) SiO2 
 PCOD8273964
Probable space group: C M M M
;
_chemical_formula_sum "Si O2"
_cell_formula_units_Z 76
_cell_length_a 14.174730
_cell_length_b 11.014750
_cell_length_c 24.256730
_cell_angle_alpha 90.000000
_cell_angle_beta 90.000000
_cell_angle_gamma 90.000000
_cell_volume 3787.230114
_symmetry_space_group_name_H-M "C M M M"
_symmetry_group_IT_number 65
_symmetry_cell_setting 'orthorhombic'
loop_
_space_group_symop_operation_xyz
x,y,z
-x,-y,z
x,-y,-z
-x,y,-z
-x,-y,-z
x,y,-z
-x,y,z
x,-y,z
1/2+x,1/2+y,z
1/2-x,1/2-y,z
1/2+x,1/2-y,-z
1/2-x,1/2+y,-z
1/2-x,1/2-y,-z
1/2+x,1/2+y,-z
1/2-x,1/2+y,z
1/2+x,1/2-y,z
loop_
_atom_site_type_symbol
_atom_site_label
_atom_site_fract_x
_atom_site_fract_y
_atom_site_fract_z
Si Si1 0.500000 0.859151 0.562225
Si Si2 0.500000 0.359472 0.718027
Si Si3 0.146789 0.219020 0.369792
Si Si4 0.393522 0.500000 0.435787
Si Si5 0.500000 0.750586 0.835140
Si Si6 0.000000 0.000000 0.899608
Si Si7 0.791992 0.000000 0.062804
Si Si8 0.197411 0.634859 0.846622
O O1 0.500000 0.798561 0.500000
O O2 0.408238 0.825352 0.598175
O O3 0.500000 0.000000 0.553333
O O4 0.500000 0.500000 0.736437
O O5 0.592835 0.330161 0.683283
O O6 0.500000 0.269261 0.769705
O O7 0.250000 0.250000 0.347924
O O8 0.161900 0.116262 0.415384
O O9 0.500000 0.500000 0.410307
O O10 0.398062 0.500000 0.500000
O O11 0.500000 0.618855 0.862035
O O12 0.411400 0.831212 0.853753
O O13 0.094077 0.000000 0.936409
O O14 0.748902 0.881097 0.093782
O O15 0.757479 0.000000 0.000000
O O16 0.206658 0.500000 0.816375
O O17 0.250000 0.750000 0.816355
#
# Coordination Sequence:
#
# PCOD8273964 Si02
#       8
#     8   8  16   8   8   4   8  16
#     4  10  22  38  57  87 130 169 203 256 320 385
#     4  11  23  44  69  92 124 170 217 274 332 381
#     4  11  23  41  61  91 128 159 214 267 319 388
#     4  11  20  37  67  88 120 165 204 258 315 385
#     4  12  22  42  67  97 130 173 225 279 336 398
#     4  12  21  40  66 100 132 178 225 272 324 390
#     4  10  23  43  68 102 140 180 221 269 334 394
#     4  10  22  42  66  96 140 172 220 278 325 390
#
# _framework density 20.067437999999999
#
# number of rings (size 3 to 8) (size 9 to 14) (size 15 to 20)
#    0.632    0.632    5.789    1.105    1.474    2.947 
#    0.000    5.263    0.000    0.000    0.000    0.000 
#    0.000    0.000    0.000    0.000    0.000    0.000 
#
# Total GULP energy -470845.216433 kJ/mol
# GULP energy per Si atom -12390.663590 kJ/mol
# Density = 2.002176 g / cm^3
# Si number density = 20.067438 Si / 1000 Ang^3
#
#
#
# Elastic Constant Matrix: (Units=GPa)
#
#
# Indices 1 2 3 4 5 6 
#
# 1 162.2323 45.4684 31.2433 0.0000 0.0000 0.0000
# 2 45.4684 135.1082 18.1582 0.0000 0.0000 0.0000
# 3 31.2433 18.1582 73.2479 0.0000 0.0000 0.0000
# 4 0.0000 0.0000 0.0000 16.0022 0.0000 0.0000
# 5 0.0000 0.0000 0.0000 0.0000 3.9708 0.0000
# 6 0.0000 0.0000 0.0000 0.0000 0.0000 28.1386
#
#
#
# Elastic Compliance Matrix: (Units=1/GPa)
#
#
# Indices 1 2 3 4 5 6 
#
# 1 0.007246 -0.002093 -0.002572 0.000000 0.000000 0.000000
# 2 -0.002093 0.008261 -0.001155 0.000000 0.000000 0.000000
# 3 -0.002572 -0.001155 0.015036 0.000000 0.000000 0.000000
# 4 0.000000 0.000000 0.000000 0.062491 0.000000 0.000000
# 5 0.000000 0.000000 0.000000 0.000000 0.251841 0.000000
# 6 0.000000 0.000000 0.000000 0.000000 0.000000 0.035538
#
#
# Mechanical properties :
#
#
# Convention : Reuss Voigt Hill
#
# Bulk Modulus (GPa) = 52.90240 62.25867 57.58054
# Shear Modulus (GPa) = 12.55166 28.00355 20.27761
#
# Velocity S-wave (km/s) = 2.50366 3.73965 3.18224
# Velocity P-wave (km/s) = 5.89723 7.05257 6.50062
#
# Compressibility (1/GPa) = 0.01890273
#
# Stress axis : x y z
#
# Youngs Moduli (GPa) = 138.01014 121.05015 66.50856
#
# Poissons Ratio (x) = 0.25334 0.17105
# Poissons Ratio (y) = 0.28883 0.07683
# Poissons Ratio (z) = 0.35494 0.13984
#
# Static dielectric constant tensor:
#      x y z
#    x 3.139720 0.000000 0.000000 
#    y 0.000000 3.737870 0.000000 
#    z 0.000000 0.000000 3.337900 
# 
# 
# High freq. dielectric constant tensor:
#      x y z
#    x 1.788280 0.000000 0.000000 
#    y 0.000000 1.794220 0.000000 
#    z 0.000000 0.000000 1.756130 
# 
# From -- ./inp_files/69776.got.cif
#   From: 2010.03.12/outbox.cif.g09.slc.cpg/sg65_35_cif.got.tgz:69776.got - 2010.04.10 20:52:16.
