data_PCOD8273341
_publ_section_title
;
Structure prediction by ZEFSAII (Michael W. Deem and Ramdas Pophale) SiO2 
 PCOD8273341
Probable space group: C M M M
;
_chemical_formula_sum "Si O2"
_cell_formula_units_Z 72
_cell_length_a 8.945362
_cell_length_b 25.956212
_cell_length_c 14.105118
_cell_angle_alpha 90.000000
_cell_angle_beta 90.000000
_cell_angle_gamma 90.000000
_cell_volume 3275.035083
_symmetry_space_group_name_H-M "C M M M"
_symmetry_group_IT_number 65
_symmetry_cell_setting 'orthorhombic'
loop_
_space_group_symop_operation_xyz
x,y,z
-x,-y,z
x,-y,-z
-x,y,-z
-x,-y,-z
x,y,-z
-x,y,z
x,-y,z
1/2+x,1/2+y,z
1/2-x,1/2-y,z
1/2+x,1/2-y,-z
1/2-x,1/2+y,-z
1/2-x,1/2-y,-z
1/2+x,1/2+y,-z
1/2-x,1/2+y,z
1/2+x,1/2-y,z
loop_
_atom_site_type_symbol
_atom_site_label
_atom_site_fract_x
_atom_site_fract_y
_atom_site_fract_z
Si Si1 0.675384 0.902192 0.894786
Si Si2 0.336343 0.000000 0.609702
Si Si3 0.835796 0.796665 0.107471
Si Si4 0.175840 0.090580 0.293980
Si Si5 0.675727 0.696664 0.392109
O O1 0.500000 0.907929 0.877120
O O2 0.722566 0.843328 0.888489
O O3 0.765217 0.928707 0.809393
O O4 0.717210 0.924463 0.000000
O O5 0.245492 0.051488 0.632025
O O6 0.500000 0.000000 0.660393
O O7 0.363259 0.000000 0.500000
O O8 0.750000 0.750000 0.160464
O O9 0.000000 0.808530 0.155358
O O10 0.868494 0.780463 0.000000
O O11 0.223166 0.149324 0.322314
O O12 0.000000 0.084202 0.296540
O O13 0.726850 0.683641 0.500000
O O14 0.500000 0.704770 0.388494
O O15 0.750000 0.750000 0.357076
#
# Coordination Sequence:
#
# PCOD8273341 Si02
#       5
#    16   8  16  16  16
#     4  10  21  37  56  80 115 158 203 254 308 363
#     4  11  25  45  70  99 128 159 199 250 308 369
#     4   9  16  27  45  70 102 144 196 250 302 356
#     4  11  23  40  64  93 126 164 207 256 309 369
#     4   9  19  36  59  89 124 161 200 245 303 369
#
# _framework density 21.984497000000001
#
# number of rings (size 3 to 8) (size 9 to 14) (size 15 to 20)
#    0.000    2.111    0.000    3.000    0.000    8.444 
#    0.000    5.000    0.000    3.333    0.000    0.000 
#    0.000    0.000    0.000    0.000    0.000    0.000 
#
# Total GULP energy -446087.573917 kJ/mol
# GULP energy per Si atom -12391.321498 kJ/mol
# Density = 2.193446 g / cm^3
# Si number density = 21.984497 Si / 1000 Ang^3
#
#
#
# Elastic Constant Matrix: (Units=GPa)
#
#
# Indices 1 2 3 4 5 6 
#
# 1 104.8883 45.8516 44.1139 0.0000 0.0000 0.0000
# 2 45.8516 94.3252 24.1223 0.0000 0.0000 0.0000
# 3 44.1139 24.1223 114.9400 0.0000 0.0000 0.0000
# 4 0.0000 0.0000 0.0000 201.8127 0.0000 0.0000
# 5 0.0000 0.0000 0.0000 0.0000 23.3089 0.0000
# 6 0.0000 0.0000 0.0000 0.0000 0.0000 29.8914
#
#
#
# Elastic Compliance Matrix: (Units=1/GPa)
#
#
# Indices 1 2 3 4 5 6 
#
# 1 0.013707 -0.005619 -0.004081 0.000000 0.000000 0.000000
# 2 -0.005619 0.013506 -0.000678 0.000000 0.000000 0.000000
# 3 -0.004081 -0.000678 0.010409 0.000000 0.000000 0.000000
# 4 0.000000 0.000000 0.000000 0.004955 0.000000 0.000000
# 5 0.000000 0.000000 0.000000 0.000000 0.042902 0.000000
# 6 0.000000 0.000000 0.000000 0.000000 0.000000 0.033454
#
#
# Mechanical properties :
#
#
# Convention : Reuss Voigt Hill
#
# Bulk Modulus (GPa) = 59.29360 60.25879 59.77619
# Shear Modulus (GPa) = 34.40855 64.34033 49.37444
#
# Velocity S-wave (km/s) = 3.96046 5.41570 4.74421
# Velocity P-wave (km/s) = 6.92408 8.15938 7.56698
#
# Compressibility (1/GPa) = 0.01686523
#
# Stress axis : x y z
#
# Youngs Moduli (GPa) = 72.95585 74.03848 96.07150
#
# Poissons Ratio (x) = 0.41604 0.39211
# Poissons Ratio (y) = 0.40995 0.06513
# Poissons Ratio (z) = 0.29776 0.05019
#
# Static dielectric constant tensor:
#      x y z
#    x 4.194270 0.000000 0.000000 
#    y 0.000000 3.797910 0.000000 
#    z 0.000000 0.000000 4.410870 
# 
# 
# High freq. dielectric constant tensor:
#      x y z
#    x 1.870000 0.000000 0.000000 
#    y 0.000000 1.842110 0.000000 
#    z 0.000000 0.000000 1.873580 
# 
# From -- ./inp_files/36586.got.cif
#   From: 2010.03.12/outbox.cif.g09.slc.cpg/sg65_19_cif.got.tgz:36586.got - 2010.04.10 20:52:16.
