data_PCOD8273610
_publ_section_title
;
Structure prediction by ZEFSAII (Michael W. Deem and Ramdas Pophale) SiO2 
 PCOD8273610
Probable space group: C M M M
;
_chemical_formula_sum "Si O2"
_cell_formula_units_Z 72
_cell_length_a 15.469168
_cell_length_b 8.863909
_cell_length_c 27.659681
_cell_angle_alpha 90.000000
_cell_angle_beta 90.000000
_cell_angle_gamma 90.000000
_cell_volume 3792.620707
_symmetry_space_group_name_H-M "C M M M"
_symmetry_group_IT_number 65
_symmetry_cell_setting 'orthorhombic'
loop_
_space_group_symop_operation_xyz
x,y,z
-x,-y,z
x,-y,-z
-x,y,-z
-x,-y,-z
x,y,-z
-x,y,z
x,-y,z
1/2+x,1/2+y,z
1/2-x,1/2-y,z
1/2+x,1/2-y,-z
1/2-x,1/2+y,-z
1/2-x,1/2-y,-z
1/2+x,1/2+y,-z
1/2-x,1/2+y,z
1/2+x,1/2-y,z
loop_
_atom_site_type_symbol
_atom_site_label
_atom_site_fract_x
_atom_site_fract_y
_atom_site_fract_z
Si Si1 0.500000 0.321016 0.384758
Si Si2 0.339670 0.824224 0.107802
Si Si3 0.161476 0.821980 0.444775
Si Si4 0.159830 0.676483 0.779821
Si Si5 0.000000 0.179151 0.725774
Si Si6 0.000000 0.172702 0.942877
O O1 0.500000 0.500000 0.388782
O O2 0.584680 0.256900 0.411624
O O3 0.500000 0.267194 0.329626
O O4 0.250000 0.750000 0.091451
O O5 0.358375 0.793011 0.163951
O O6 0.415367 0.752824 0.076908
O O7 0.334395 0.000000 0.096352
O O8 0.142793 0.773921 0.500000
O O9 0.250000 0.750000 0.425669
O O10 0.169590 0.000000 0.439910
O O11 0.162303 0.500000 0.767977
O O12 0.250000 0.750000 0.763682
O O13 0.084788 0.755219 0.750228
O O14 0.000000 0.000000 0.731018
O O15 0.000000 0.000000 0.925595
O O16 0.000000 0.186929 0.000000
#
# Coordination Sequence:
#
# PCOD8273610 Si02
#       6
#     8  16  16  16   8   8
#     4   9  19  34  51  74 104 139 176 210 255 318
#     4  10  21  38  61  85 109 141 182 228 273 319
#     4   9  17  32  54  76  99 131 172 217 262 309
#     4  10  21  38  59  83 109 140 182 227 271 320
#     4  11  22  35  53  79 112 147 180 219 269 323
#     4  11  24  39  56  82 116 151 184 220 266 321
#
# _framework density 18.984233
#
# number of rings (size 3 to 8) (size 9 to 14) (size 15 to 20)
#    0.000    2.111    0.000    3.000    0.000    8.889 
#    0.000    5.000    0.000    2.667    0.000    0.000 
#    0.000    0.000    0.000    0.000    0.000    0.000 
#
# Total GULP energy -446532.943920 kJ/mol
# GULP energy per Si atom -12403.692887 kJ/mol
# Density = 1.894102 g / cm^3
# Si number density = 18.984233 Si / 1000 Ang^3
#
#
#
# Elastic Constant Matrix: (Units=GPa)
#
#
# Indices 1 2 3 4 5 6 
#
# 1 196.7430 74.3750 89.7090 0.0000 0.0000 0.0000
# 2 74.3750 92.8497 55.5546 0.0000 0.0000 0.0000
# 3 89.7090 55.5546 91.8044 0.0000 0.0000 0.0000
# 4 0.0000 0.0000 0.0000 23.9343 0.0000 0.0000
# 5 0.0000 0.0000 0.0000 0.0000 96.3834 0.0000
# 6 0.0000 0.0000 0.0000 0.0000 0.0000 39.8405
#
#
#
# Elastic Compliance Matrix: (Units=1/GPa)
#
#
# Indices 1 2 3 4 5 6 
#
# 1 0.009778 -0.003316 -0.007548 0.000000 0.000000 0.000000
# 2 -0.003316 0.018008 -0.007657 0.000000 0.000000 0.000000
# 3 -0.007548 -0.007657 0.022902 0.000000 0.000000 0.000000
# 4 0.000000 0.000000 0.000000 0.041781 0.000000 0.000000
# 5 0.000000 0.000000 0.000000 0.000000 0.010375 0.000000
# 6 0.000000 0.000000 0.000000 0.000000 0.000000 0.025100
#
#
# Mechanical properties :
#
#
# Convention : Reuss Voigt Hill
#
# Bulk Modulus (GPa) = 73.28320 91.18602 82.23461
# Shear Modulus (GPa) = 29.49249 42.81556 36.15402
#
# Velocity S-wave (km/s) = 3.94575 4.75417 4.36870
# Velocity P-wave (km/s) = 7.71003 8.84720 8.29812
#
# Compressibility (1/GPa) = 0.01364569
#
# Stress axis : x y z
#
# Youngs Moduli (GPa) = 102.26855 55.53185 43.66445
#
# Poissons Ratio (x) = 0.18416 0.32959
# Poissons Ratio (y) = 0.33915 0.33432
# Poissons Ratio (z) = 0.77194 0.42518
#
# Static dielectric constant tensor:
#      x y z
#    x 3.698970 0.000000 0.000000 
#    y 0.000000 3.490300 0.000000 
#    z 0.000000 0.000000 3.508050 
# 
# 
# High freq. dielectric constant tensor:
#      x y z
#    x 1.756520 0.000000 0.000000 
#    y 0.000000 1.737140 0.000000 
#    z 0.000000 0.000000 1.733310 
# 
# From -- ./inp_files/74657.got.cif
#   From: 2010.03.12/outbox.cif.g09.slc.cpg/sg65_38_cif.got.tgz:74657.got - 2010.04.10 20:52:16.
