data_PCOD8273935
_publ_section_title
;
Structure prediction by ZEFSAII (Michael W. Deem and Ramdas Pophale) SiO2 
 PCOD8273935
Probable space group: C M M M
;
_chemical_formula_sum "Si O2"
_cell_formula_units_Z 72
_cell_length_a 9.229181
_cell_length_b 15.340550
_cell_length_c 26.475472
_cell_angle_alpha 90.000000
_cell_angle_beta 90.000000
_cell_angle_gamma 90.000000
_cell_volume 3748.416192
_symmetry_space_group_name_H-M "C M M M"
_symmetry_group_IT_number 65
_symmetry_cell_setting 'orthorhombic'
loop_
_space_group_symop_operation_xyz
x,y,z
-x,-y,z
x,-y,-z
-x,y,-z
-x,-y,-z
x,y,-z
-x,y,z
x,-y,z
1/2+x,1/2+y,z
1/2-x,1/2-y,z
1/2+x,1/2-y,-z
1/2-x,1/2+y,-z
1/2-x,1/2-y,-z
1/2+x,1/2+y,-z
1/2-x,1/2+y,z
1/2+x,1/2-y,z
loop_
_atom_site_type_symbol
_atom_site_label
_atom_site_fract_x
_atom_site_fract_y
_atom_site_fract_z
Si Si1 0.170055 0.833728 0.650483
Si Si2 0.672347 0.000000 0.177974
Si Si3 0.669816 0.841937 0.109700
Si Si4 0.334258 0.898120 0.557155
Si Si5 0.168503 0.000000 0.283017
Si Si6 0.165007 0.337290 0.000000
O O1 0.250000 0.750000 0.674512
O O2 0.226393 0.846651 0.593556
O O3 0.211099 0.915924 0.684592
O O4 0.000000 0.816946 0.648749
O O5 0.727814 0.086741 0.149263
O O6 0.500000 0.000000 0.180634
O O7 0.736812 0.000000 0.233263
O O8 0.500000 0.824285 0.117553
O O9 0.750000 0.750000 0.118133
O O10 0.699837 0.884552 0.053487
O O11 0.303865 0.867221 0.500000
O O12 0.500000 0.877800 0.572413
O O13 0.302292 0.000000 0.562159
O O14 0.000000 0.000000 0.268467
O O15 0.250000 0.250000 0.000000
O O16 0.000000 0.309121 0.000000
#
# Coordination Sequence:
#
# PCOD8273935 Si02
#       6
#    16   8  16  16   8   8
#     4  11  23  40  61  86 112 145 188 232 279 333
#     4  10  22  37  56  81 107 140 184 228 276 329
#     4   9  18  33  53  80 111 144 181 221 267 323
#     4   9  18  34  58  88 120 152 184 221 270 327
#     4  10  24  44  60  78 109 143 184 235 284 331
#     4   8  14  27  49  75 108 144 176 215 263 315
#
# _framework density 19.208112
#
# number of rings (size 3 to 8) (size 9 to 14) (size 15 to 20)
#    0.000    2.444    1.111    1.333    0.000    4.889 
#    0.000    7.778    0.000    0.000    0.000    8.556 
#    0.000    0.000    0.000    0.000    0.000    0.000 
#
# Total GULP energy -446201.844541 kJ/mol
# GULP energy per Si atom -12394.495682 kJ/mol
# Density = 1.916439 g / cm^3
# Si number density = 19.208112 Si / 1000 Ang^3
#
#
#
# Elastic Constant Matrix: (Units=GPa)
#
#
# Indices 1 2 3 4 5 6 
#
# 1 66.8721 53.6346 52.0819 0.0000 0.0000 0.0000
# 2 53.6346 131.4256 68.0181 0.0000 0.0000 0.0000
# 3 52.0819 68.0181 128.1451 0.0000 0.0000 0.0000
# 4 0.0000 0.0000 0.0000 -1.4400 0.0000 0.0000
# 5 0.0000 0.0000 0.0000 0.0000 32.9986 0.0000
# 6 0.0000 0.0000 0.0000 0.0000 0.0000 29.7001
#
#
#
# Elastic Compliance Matrix: (Units=1/GPa)
#
#
# Indices 1 2 3 4 5 6 
#
# 1 0.025895 -0.007060 -0.006777 0.000000 0.000000 0.000000
# 2 -0.007060 0.012416 -0.003721 0.000000 0.000000 0.000000
# 3 -0.006777 -0.003721 0.012533 0.000000 0.000000 0.000000
# 4 0.000000 0.000000 0.000000 -0.694432 0.000000 0.000000
# 5 0.000000 0.000000 0.000000 0.000000 0.030304 0.000000
# 6 0.000000 0.000000 0.000000 0.000000 0.000000 0.033670
#
#
# Mechanical properties :
#
#
# Convention : Reuss Voigt Hill
#
# Bulk Modulus (GPa) = 63.58205 74.87912 69.23058
# Shear Modulus (GPa) = -9.27203 22.43228 6.58012
#
# Velocity S-wave (km/s) = -2.19946 3.42110 1.85287
# Velocity P-wave (km/s) = 5.16946 7.39411 6.37951
#
# Compressibility (1/GPa) = 0.01572771
#
# Stress axis : x y z
#
# Youngs Moduli (GPa) = 38.61818 80.54293 79.79054
#
# Poissons Ratio (x) = 0.56865 0.54072
# Poissons Ratio (y) = 0.27265 0.29687
# Poissons Ratio (z) = 0.26171 0.29967
#
# Static dielectric constant tensor:
#      x y z
#    x 3.405320 0.000000 0.000000 
#    y 0.000000 3.490840 0.000000 
#    z 0.000000 0.000000 4.150660 
# 
# 
# High freq. dielectric constant tensor:
#      x y z
#    x 1.740850 0.000000 0.000000 
#    y 0.000000 1.743360 0.000000 
#    z 0.000000 0.000000 1.751270 
# 
# From -- ./inp_files/72572.got.cif
#   From: 2010.03.12/outbox.cif.g09.slc.cpg/sg65_37_cif.got.tgz:72572.got - 2010.04.10 20:52:16.
