data_PCOD8273777
_publ_section_title
;
Structure prediction by ZEFSAII (Michael W. Deem and Ramdas Pophale) SiO2 
 PCOD8273777
Probable space group: C M M M
;
_chemical_formula_sum "Si O2"
_cell_formula_units_Z 64
_cell_length_a 20.536897
_cell_length_b 7.842556
_cell_length_c 19.261630
_cell_angle_alpha 90.000000
_cell_angle_beta 90.000000
_cell_angle_gamma 90.000000
_cell_volume 3102.312121
_symmetry_space_group_name_H-M "C M M M"
_symmetry_group_IT_number 65
_symmetry_cell_setting 'orthorhombic'
loop_
_space_group_symop_operation_xyz
x,y,z
-x,-y,z
x,-y,-z
-x,y,-z
-x,-y,-z
x,y,-z
-x,y,z
x,-y,z
1/2+x,1/2+y,z
1/2-x,1/2-y,z
1/2+x,1/2-y,-z
1/2-x,1/2+y,-z
1/2-x,1/2-y,-z
1/2+x,1/2+y,-z
1/2-x,1/2+y,z
1/2+x,1/2-y,z
loop_
_atom_site_type_symbol
_atom_site_label
_atom_site_fract_x
_atom_site_fract_y
_atom_site_fract_z
Si Si1 0.925097 0.307818 0.826270
Si Si2 0.423176 0.500000 0.923017
Si Si3 0.179948 0.201141 0.720117
Si Si4 0.000000 0.313729 0.581092
Si Si5 0.361446 0.694806 0.575798
O O1 0.919955 0.500000 0.856845
O O2 0.900533 0.171446 0.883388
O O3 0.878164 0.294524 0.760167
O O4 0.000000 0.268914 0.803997
O O5 0.500000 0.500000 0.929895
O O6 0.391574 0.500000 0.000000
O O7 0.250000 0.250000 0.752689
O O8 0.180299 0.269924 0.639874
O O9 0.167417 0.000000 0.723804
O O10 0.063933 0.208688 0.601336
O O11 0.000000 0.500000 0.618001
O O12 0.000000 0.342908 0.500000
O O13 0.348857 0.786395 0.500000
O O14 0.343309 0.500000 0.565628
#
# Coordination Sequence:
#
# PCOD8273777 Si02
#       5
#    16   8  16   8  16
#     4  10  21  38  62  93 126 162 202 245 295 355
#     4   9  18  36  64  98 131 159 194 242 294 349
#     4  11  23  38  57  82 115 159 204 251 308 361
#     4   9  17  29  47  73 103 135 175 236 301 350
#     4   9  19  35  53  74 105 147 195 247 304 363
#
# _framework density 20.629774999999999
#
# number of rings (size 3 to 8) (size 9 to 14) (size 15 to 20)
#    0.000    2.250    1.250    1.125    1.750    4.500 
#    0.000    2.500    0.000    0.750    0.000    0.000 
#    0.000    0.000    0.000    0.000    0.000    0.000 
#
# Total GULP energy -396500.511797 kJ/mol
# GULP energy per Si atom -12390.640994 kJ/mol
# Density = 2.058282 g / cm^3
# Si number density = 20.629775 Si / 1000 Ang^3
#
#
#
# Elastic Constant Matrix: (Units=GPa)
#
#
# Indices 1 2 3 4 5 6 
#
# 1 89.5600 19.8504 41.9636 0.0000 0.0000 0.0000
# 2 19.8504 100.0893 48.4985 0.0000 0.0000 0.0000
# 3 41.9636 48.4985 120.8499 0.0000 0.0000 0.0000
# 4 0.0000 0.0000 0.0000 13.6574 0.0000 0.0000
# 5 0.0000 0.0000 0.0000 0.0000 9.7222 0.0000
# 6 0.0000 0.0000 0.0000 0.0000 0.0000 21.8030
#
#
#
# Elastic Compliance Matrix: (Units=1/GPa)
#
#
# Indices 1 2 3 4 5 6 
#
# 1 0.013355 -0.000499 -0.004437 0.000000 0.000000 0.000000
# 2 -0.000499 0.012422 -0.004812 0.000000 0.000000 0.000000
# 3 -0.004437 -0.004812 0.011747 0.000000 0.000000 0.000000
# 4 0.000000 0.000000 0.000000 0.073220 0.000000 0.000000
# 5 0.000000 0.000000 0.000000 0.000000 0.102858 0.000000
# 6 0.000000 0.000000 0.000000 0.000000 0.000000 0.045865
#
#
# Mechanical properties :
#
#
# Convention : Reuss Voigt Hill
#
# Bulk Modulus (GPa) = 55.46941 59.01382 57.24161
# Shear Modulus (GPa) = 17.54561 22.38228 19.96395
#
# Velocity S-wave (km/s) = 2.91950 3.29743 3.11420
# Velocity P-wave (km/s) = 6.18959 6.57006 6.38266
#
# Compressibility (1/GPa) = 0.01802795
#
# Stress axis : x y z
#
# Youngs Moduli (GPa) = 74.87624 80.50540 85.13114
#
# Poissons Ratio (x) = 0.04014 0.37776
# Poissons Ratio (y) = 0.03733 0.40963
# Poissons Ratio (z) = 0.33226 0.38737
#
# Static dielectric constant tensor:
#      x y z
#    x 3.692640 0.000000 0.000000 
#    y 0.000000 3.718710 0.000000 
#    z 0.000000 0.000000 3.854260 
# 
# 
# High freq. dielectric constant tensor:
#      x y z
#    x 1.788470 0.000000 0.000000 
#    y 0.000000 1.806280 0.000000 
#    z 0.000000 0.000000 1.780950 
# 
# From -- ./inp_files/55323.got.cif
#   From: 2010.03.12/outbox.cif.g09.slc.cpg/sg65_28_cif.got.tgz:55323.got - 2010.04.10 20:52:16.
