data_PCOD8273250
_publ_section_title
;
Structure prediction by ZEFSAII (Michael W. Deem and Ramdas Pophale) SiO2 
 PCOD8273250
Probable space group: C M M M
;
_chemical_formula_sum "Si O2"
_cell_formula_units_Z 104
_cell_length_a 8.985682
_cell_length_b 21.801937
_cell_length_c 29.460368
_cell_angle_alpha 90.000000
_cell_angle_beta 90.000000
_cell_angle_gamma 90.000000
_cell_volume 5771.441432
_symmetry_space_group_name_H-M "C M M M"
_symmetry_group_IT_number 65
_symmetry_cell_setting 'orthorhombic'
loop_
_space_group_symop_operation_xyz
x,y,z
-x,-y,z
x,-y,-z
-x,y,-z
-x,-y,-z
x,y,-z
-x,y,z
x,-y,z
1/2+x,1/2+y,z
1/2-x,1/2-y,z
1/2+x,1/2-y,-z
1/2-x,1/2+y,-z
1/2-x,1/2-y,-z
1/2+x,1/2+y,-z
1/2-x,1/2+y,z
1/2+x,1/2-y,z
loop_
_atom_site_type_symbol
_atom_site_label
_atom_site_fract_x
_atom_site_fract_y
_atom_site_fract_z
Si Si1 0.823766 0.069955 0.389855
Si Si2 0.328456 0.812025 0.048903
Si Si3 0.824410 0.898169 0.889363
Si Si4 0.825254 0.187139 0.552458
Si Si5 0.835007 0.572416 0.702328
Si Si6 0.823668 0.500000 0.948825
Si Si7 0.167266 0.072899 0.789573
O O1 0.768190 0.123714 0.423986
O O2 0.763802 0.089937 0.340866
O O3 0.000000 0.069084 0.387754
O O4 0.768762 0.000000 0.403394
O O5 0.500000 0.806193 0.064963
O O6 0.250000 0.750000 0.036369
O O7 0.224837 0.833738 0.090565
O O8 0.323977 0.849270 0.000000
O O9 0.734404 0.941940 0.922277
O O10 0.768950 0.903367 0.837478
O O11 0.000000 0.911378 0.892160
O O12 0.782501 0.179386 0.500000
O O13 0.750000 0.250000 0.571700
O O14 0.000000 0.194794 0.560108
O O15 0.842207 0.500000 0.707521
O O16 0.764302 0.600262 0.748257
O O17 0.000000 0.600012 0.696013
O O18 0.000000 0.500000 0.948193
O O19 0.761370 0.500000 0.000000
O O20 0.000000 0.096833 0.782302
O O21 0.171382 0.000000 0.790133
#
# Coordination Sequence:
#
# PCOD8273250 Si02
#       7
#    16  16  16  16  16   8  16
#     4   9  17  30  49  73 101 134 171 214 262 305
#     4  10  21  37  55  74  95 123 161 202 244 292
#     4  11  21  34  52  75 100 129 163 201 246 295
#     4   9  18  32  50  73 102 138 178 215 255 307
#     4   9  17  28  45  71  99 128 163 204 249 295
#     4  11  23  35  47  69 103 137 165 197 240 293
#     4   9  17  31  48  69  99 132 165 198 240 297
#
# _framework density 18.019762
#
# number of rings (size 3 to 8) (size 9 to 14) (size 15 to 20)
#    0.000    2.385    0.769    2.077    0.000    7.385 
#    0.000    1.538    0.000    0.923    0.000    8.615 
#    0.000    0.000    0.000    0.000    0.000    0.000 
#
# Total GULP energy -644237.752708 kJ/mol
# GULP energy per Si atom -12389.187552 kJ/mol
# Density = 1.797875 g / cm^3
# Si number density = 18.019762 Si / 1000 Ang^3
#
#
#
# Elastic Constant Matrix: (Units=GPa)
#
#
# Indices 1 2 3 4 5 6 
#
# 1 45.9434 23.3590 35.3654 0.0000 0.0000 0.0000
# 2 23.3590 75.9266 55.0041 0.0000 0.0000 0.0000
# 3 35.3654 55.0041 125.3511 0.0000 0.0000 0.0000
# 4 0.0000 0.0000 0.0000 23.7195 0.0000 0.0000
# 5 0.0000 0.0000 0.0000 0.0000 24.1615 0.0000
# 6 0.0000 0.0000 0.0000 0.0000 0.0000 26.1665
#
#
#
# Elastic Compliance Matrix: (Units=1/GPa)
#
#
# Indices 1 2 3 4 5 6 
#
# 1 0.028753 -0.004353 -0.006202 0.000000 0.000000 0.000000
# 2 -0.004353 0.019967 -0.007534 0.000000 0.000000 0.000000
# 3 -0.006202 -0.007534 0.013033 0.000000 0.000000 0.000000
# 4 0.000000 0.000000 0.000000 0.042159 0.000000 0.000000
# 5 0.000000 0.000000 0.000000 0.000000 0.041388 0.000000
# 6 0.000000 0.000000 0.000000 0.000000 0.000000 0.038217
#
#
# Mechanical properties :
#
#
# Convention : Reuss Voigt Hill
#
# Bulk Modulus (GPa) = 39.09842 52.74199 45.92021
# Shear Modulus (GPa) = 21.90859 23.70901 22.80880
#
# Velocity S-wave (km/s) = 3.49063 3.63122 3.56162
# Velocity P-wave (km/s) = 6.16365 6.84935 6.51553
#
# Compressibility (1/GPa) = 0.02557648
#
# Stress axis : x y z
#
# Youngs Moduli (GPa) = 34.77876 50.08145 76.72743
#
# Poissons Ratio (x) = 0.21800 0.47587
# Poissons Ratio (y) = 0.15139 0.57804
# Poissons Ratio (z) = 0.21570 0.37730
#
# Static dielectric constant tensor:
#      x y z
#    x 3.365590 0.000000 0.000000 
#    y 0.000000 2.764870 0.000000 
#    z 0.000000 0.000000 3.534910 
# 
# 
# High freq. dielectric constant tensor:
#      x y z
#    x 1.698160 0.000000 0.000000 
#    y 0.000000 1.666710 0.000000 
#    z 0.000000 0.000000 1.701350 
# 
# From -- ./inp_files/77027.got.cif
#   From: 2010.03.12/outbox.cif.g09.slc.cpg/sg65_39_cif.got.tgz:77027.got - 2010.04.10 20:52:16.
