data_PCOD8273796
_publ_section_title
;
Structure prediction by ZEFSAII (Michael W. Deem and Ramdas Pophale) SiO2 
 PCOD8273796
Probable space group: C M M M
;
_chemical_formula_sum "Si O2"
_cell_formula_units_Z 64
_cell_length_a 14.984476
_cell_length_b 8.772583
_cell_length_c 24.472467
_cell_angle_alpha 90.000000
_cell_angle_beta 90.000000
_cell_angle_gamma 90.000000
_cell_volume 3216.968423
_symmetry_space_group_name_H-M "C M M M"
_symmetry_group_IT_number 65
_symmetry_cell_setting 'orthorhombic'
loop_
_space_group_symop_operation_xyz
x,y,z
-x,-y,z
x,-y,-z
-x,y,-z
-x,-y,-z
x,y,-z
-x,y,z
x,-y,z
1/2+x,1/2+y,z
1/2-x,1/2-y,z
1/2+x,1/2-y,-z
1/2-x,1/2+y,-z
1/2-x,1/2-y,-z
1/2+x,1/2+y,-z
1/2-x,1/2+y,z
1/2+x,1/2-y,z
loop_
_atom_site_type_symbol
_atom_site_label
_atom_site_fract_x
_atom_site_fract_y
_atom_site_fract_z
Si Si1 0.500000 0.675915 0.802009
Si Si2 0.099639 0.836293 0.500000
Si Si3 0.846739 0.820582 0.718074
Si Si4 0.650621 0.180552 0.000000
Si Si5 0.653523 0.180531 0.390227
Si Si6 0.000000 0.679285 0.081358
O O1 0.500000 0.500000 0.818555
O O2 0.588669 0.716759 0.768256
O O3 0.500000 0.774292 0.856118
O O4 0.114029 0.735032 0.447013
O O5 0.000000 0.889391 0.500000
O O6 0.154492 0.000000 0.500000
O O7 0.750000 0.750000 0.731290
O O8 0.894118 0.746467 0.664060
O O9 0.836523 0.000000 0.707914
O O10 0.750000 0.250000 0.000000
O O11 0.591629 0.236903 0.947770
O O12 0.663307 0.000000 0.000000
O O13 0.750000 0.250000 0.385231
O O14 0.652163 0.000000 0.389198
O O15 0.000000 0.500000 0.075890
#
# Coordination Sequence:
#
# PCOD8273796 Si02
#       6
#     8   8  16   8  16   8
#     4  10  23  39  59  85 119 156 195 240 290 340
#     4  11  24  39  56  79 109 143 178 225 286 347
#     4  10  21  39  59  83 113 151 193 238 290 348
#     4   9  19  37  60  88 120 159 197 239 286 336
#     4  11  22  38  59  82 108 140 182 231 283 345
#     4   9  20  38  58  84 121 157 197 238 285 339
#
# _framework density 19.894507000000001
#
# number of rings (size 3 to 8) (size 9 to 14) (size 15 to 20)
#    0.000    1.875    0.000    6.000    1.750    5.000 
#    0.000    6.250    0.000    0.000    0.000    0.000 
#    0.000    0.000    0.000    0.000    0.000    0.000 
#
# Total GULP energy -396521.961912 kJ/mol
# GULP energy per Si atom -12391.311310 kJ/mol
# Density = 1.984923 g / cm^3
# Si number density = 19.894507 Si / 1000 Ang^3
#
#
#
# Elastic Constant Matrix: (Units=GPa)
#
#
# Indices 1 2 3 4 5 6 
#
# 1 107.4315 48.8071 60.4932 0.0000 0.0000 0.0000
# 2 48.8071 132.2687 62.9715 0.0000 0.0000 0.0000
# 3 60.4932 62.9715 158.0974 0.0000 0.0000 0.0000
# 4 0.0000 0.0000 0.0000 38.5414 0.0000 0.0000
# 5 0.0000 0.0000 0.0000 0.0000 26.3314 0.0000
# 6 0.0000 0.0000 0.0000 0.0000 0.0000 29.9611
#
#
#
# Elastic Compliance Matrix: (Units=1/GPa)
#
#
# Indices 1 2 3 4 5 6 
#
# 1 0.012725 -0.002934 -0.003700 0.000000 0.000000 0.000000
# 2 -0.002934 0.010006 -0.002863 0.000000 0.000000 0.000000
# 3 -0.003700 -0.002863 0.008881 0.000000 0.000000 0.000000
# 4 0.000000 0.000000 0.000000 0.025946 0.000000 0.000000
# 5 0.000000 0.000000 0.000000 0.000000 0.037978 0.000000
# 6 0.000000 0.000000 0.000000 0.000000 0.000000 0.033377
#
#
# Mechanical properties :
#
#
# Convention : Reuss Voigt Hill
#
# Bulk Modulus (GPa) = 79.25148 82.48235 80.86692
# Shear Modulus (GPa) = 32.87048 34.00183 33.43616
#
# Velocity S-wave (km/s) = 4.06918 4.13862 4.10405
# Velocity P-wave (km/s) = 7.87401 8.02418 7.94945
#
# Compressibility (1/GPa) = 0.01261806
#
# Stress axis : x y z
#
# Youngs Moduli (GPa) = 78.58734 99.94102 112.59474
#
# Poissons Ratio (x) = 0.29320 0.41664
# Poissons Ratio (y) = 0.23055 0.32235
# Poissons Ratio (z) = 0.29080 0.28612
#
# Static dielectric constant tensor:
#      x y z
#    x 3.763790 0.000000 0.000000 
#    y 0.000000 3.740090 0.000000 
#    z 0.000000 0.000000 3.470580 
# 
# 
# High freq. dielectric constant tensor:
#      x y z
#    x 1.774420 0.000000 0.000000 
#    y 0.000000 1.784730 0.000000 
#    z 0.000000 0.000000 1.782550 
# 
# From -- ./inp_files/69582.got.cif
#   From: 2010.03.12/outbox.cif.g09.slc.cpg/sg65_35_cif.got.tgz:69582.got - 2010.04.10 20:52:16.
