data_PCOD8273492
_publ_section_title
;
Structure prediction by ZEFSAII (Michael W. Deem and Ramdas Pophale) SiO2 
 PCOD8273492
Probable space group: C M M M
;
_chemical_formula_sum "Si O2"
_cell_formula_units_Z 120
_cell_length_a 30.702088
_cell_length_b 14.502249
_cell_length_c 13.775088
_cell_angle_alpha 90.000000
_cell_angle_beta 90.000000
_cell_angle_gamma 90.000000
_cell_volume 6133.348634
_symmetry_space_group_name_H-M "C M M M"
_symmetry_group_IT_number 65
_symmetry_cell_setting 'orthorhombic'
loop_
_space_group_symop_operation_xyz
x,y,z
-x,-y,z
x,-y,-z
-x,y,-z
-x,-y,-z
x,y,-z
-x,y,z
x,-y,z
1/2+x,1/2+y,z
1/2-x,1/2-y,z
1/2+x,1/2-y,-z
1/2-x,1/2+y,-z
1/2-x,1/2-y,-z
1/2+x,1/2+y,-z
1/2-x,1/2+y,z
1/2+x,1/2-y,z
loop_
_atom_site_type_symbol
_atom_site_label
_atom_site_fract_x
_atom_site_fract_y
_atom_site_fract_z
Si Si1 0.086615 0.109118 0.786037
Si Si2 0.794944 0.698091 0.609242
Si Si3 0.610054 0.731325 0.388615
Si Si4 0.844728 0.773959 0.886804
Si Si5 0.180010 0.397605 0.208352
Si Si6 0.451139 0.897239 0.614893
Si Si7 0.230659 0.100453 0.113534
Si Si8 0.000000 0.108843 0.890932
O O1 0.093722 0.147650 0.677708
O O2 0.119737 0.149263 0.864745
O O3 0.040543 0.141916 0.827357
O O4 0.091771 0.000000 0.781435
O O5 0.792555 0.658254 0.500000
O O6 0.750000 0.750000 0.634796
O O7 0.837498 0.762991 0.620453
O O8 0.801394 0.613079 0.682598
O O9 0.596699 0.710345 0.500000
O O10 0.586097 0.825244 0.351172
O O11 0.854554 0.681380 0.823127
O O12 0.799360 0.817220 0.846282
O O13 0.844673 0.749379 0.000000
O O14 0.159993 0.500000 0.197165
O O15 0.219061 0.379560 0.133153
O O16 0.451264 0.901071 0.500000
O O17 0.500000 0.868751 0.650922
O O18 0.439363 0.000000 0.655020
O O19 0.218211 0.000000 0.159060
O O20 0.222364 0.096773 0.000000
O O21 0.000000 0.000000 0.902660
O O22 0.000000 0.152525 0.000000
#
# Coordination Sequence:
#
# PCOD8273492 Si02
#       8
#    16  16  16  16  16  16  16   8
#     4  11  23  39  60  87 117 151 196 241 293 359
#     4  10  21  39  59  78 110 156 207 254 297 347
#     4  10  21  37  58  86 120 157 197 249 303 355
#     4  11  21  36  58  83 111 145 189 241 292 346
#     4  11  22  35  54  81 116 152 188 233 293 356
#     4   8  15  30  55  86 117 148 183 229 287 348
#     4   9  18  32  53  81 110 142 181 231 293 350
#     4   9  20  40  63  87 116 149 187 237 291 350
#
# _framework density 19.565168
#
# number of rings (size 3 to 8) (size 9 to 14) (size 15 to 20)
#    0.000    2.067    1.333    2.800    0.933    4.267 
#    0.000    1.333    0.000    3.600    0.000    0.000 
#    0.000    2.133    0.000    0.000    0.000    0.000 
#
# Total GULP energy -743646.398480 kJ/mol
# GULP energy per Si atom -12394.106641 kJ/mol
# Density = 1.952064 g / cm^3
# Si number density = 19.565168 Si / 1000 Ang^3
#
#
#
# Elastic Constant Matrix: (Units=GPa)
#
#
# Indices 1 2 3 4 5 6 
#
# 1 95.0105 37.4918 26.8209 0.0000 0.0000 0.0000
# 2 37.4918 116.8566 41.3185 0.0000 0.0000 0.0000
# 3 26.8209 41.3185 82.7499 0.0000 0.0000 0.0000
# 4 0.0000 0.0000 0.0000 27.9985 0.0000 0.0000
# 5 0.0000 0.0000 0.0000 0.0000 19.7315 0.0000
# 6 0.0000 0.0000 0.0000 0.0000 0.0000 20.4907
#
#
#
# Elastic Compliance Matrix: (Units=1/GPa)
#
#
# Indices 1 2 3 4 5 6 
#
# 1 0.012456 -0.003120 -0.002480 0.000000 0.000000 0.000000
# 2 -0.003120 0.011174 -0.004568 0.000000 0.000000 0.000000
# 3 -0.002480 -0.004568 0.015169 0.000000 0.000000 0.000000
# 4 0.000000 0.000000 0.000000 0.035716 0.000000 0.000000
# 5 0.000000 0.000000 0.000000 0.000000 0.050680 0.000000
# 6 0.000000 0.000000 0.000000 0.000000 0.000000 0.048803
#
#
# Mechanical properties :
#
#
# Convention : Reuss Voigt Hill
#
# Bulk Modulus (GPa) = 54.15830 56.20882 55.18356
# Shear Modulus (GPa) = 24.93922 26.24319 25.59121
#
# Velocity S-wave (km/s) = 3.57413 3.66638 3.62055
# Velocity P-wave (km/s) = 6.69131 6.83480 6.76344
#
# Compressibility (1/GPa) = 0.01846439
#
# Stress axis : x y z
#
# Youngs Moduli (GPa) = 80.28162 89.49693 65.92312
#
# Poissons Ratio (x) = 0.27920 0.16346
# Poissons Ratio (y) = 0.25045 0.30114
# Poissons Ratio (z) = 0.19907 0.40882
#
# Static dielectric constant tensor:
#      x y z
#    x 3.683390 0.000000 0.000000 
#    y 0.000000 3.590640 0.000000 
#    z 0.000000 0.000000 3.530000 
# 
# 
# High freq. dielectric constant tensor:
#      x y z
#    x 1.755870 0.000000 0.000000 
#    y 0.000000 1.750940 0.000000 
#    z 0.000000 0.000000 1.757490 
# 
# From -- ./inp_files/48095.got.cif
#   From: 2010.03.12/outbox.cif.g09.slc.cpg/sg65_25_cif.got.tgz:48095.got - 2010.04.10 20:52:16.
