data_PCOD8273950
_publ_section_title
;
Structure prediction by ZEFSAII (Michael W. Deem and Ramdas Pophale) SiO2 
 PCOD8273950
Probable space group: C M M M
;
_chemical_formula_sum "Si O2"
_cell_formula_units_Z 112
_cell_length_a 17.800376
_cell_length_b 16.997971
_cell_length_c 19.772730
_cell_angle_alpha 90.000000
_cell_angle_beta 90.000000
_cell_angle_gamma 90.000000
_cell_volume 5982.640354
_symmetry_space_group_name_H-M "C M M M"
_symmetry_group_IT_number 65
_symmetry_cell_setting 'orthorhombic'
loop_
_space_group_symop_operation_xyz
x,y,z
-x,-y,z
x,-y,-z
-x,y,-z
-x,-y,-z
x,y,-z
-x,y,z
x,-y,z
1/2+x,1/2+y,z
1/2-x,1/2-y,z
1/2+x,1/2-y,-z
1/2-x,1/2+y,-z
1/2-x,1/2-y,-z
1/2+x,1/2+y,-z
1/2-x,1/2+y,z
1/2+x,1/2-y,z
loop_
_atom_site_type_symbol
_atom_site_label
_atom_site_fract_x
_atom_site_fract_y
_atom_site_fract_z
Si Si1 0.656271 0.335858 0.926541
Si Si2 0.417220 0.667543 0.793472
Si Si3 0.089054 0.656024 0.348372
Si Si4 0.724468 0.090642 0.577491
Si Si5 0.181759 0.802971 0.676428
Si Si6 0.917598 0.645409 0.801893
Si Si7 0.675318 0.149735 0.073987
O O1 0.605142 0.369678 0.866019
O O2 0.664500 0.242628 0.921062
O O3 0.738117 0.374467 0.919950
O O4 0.621099 0.358002 0.000000
O O5 0.500000 0.635916 0.773313
O O6 0.355494 0.645018 0.736445
O O7 0.418576 0.760770 0.801204
O O8 0.138029 0.604764 0.400211
O O9 0.116633 0.746744 0.354100
O O10 0.107242 0.620091 0.273686
O O11 0.000000 0.651756 0.365068
O O12 0.731871 0.116642 0.500000
O O13 0.785202 0.140896 0.618919
O O14 0.744825 0.000000 0.587538
O O15 0.250000 0.750000 0.706604
O O16 0.866224 0.610031 0.861872
O O17 0.000000 0.612082 0.817143
O O18 0.644657 0.121053 0.000000
#
# Coordination Sequence:
#
# PCOD8273950 Si02
#       7
#    16  16  16  16  16  16  16
#     4   8  14  20  29  49  82 123 161 195 235 286
#     4   9  16  24  39  62  88 121 160 200 242 288
#     4   9  18  32  52  79 106 133 165 206 252 296
#     4  10  22  38  54  75 102 132 165 200 244 300
#     4   9  18  30  52  75  98 130 164 206 248 293
#     4   8  14  23  36  58  91 124 159 200 240 285
#     4   8  13  19  29  48  81 125 166 195 229 284
#
# _framework density 18.720832000000001
#
# number of rings (size 3 to 8) (size 9 to 14) (size 15 to 20)
#    0.000    3.286    0.000    2.143    8.000    3.714 
#    0.000    3.571    0.000    3.000    0.000    4.000 
#    0.000    2.286    0.000    4.429    0.000   10.571 
#
# Total GULP energy -693771.694376 kJ/mol
# GULP energy per Si atom -12388.780257 kJ/mol
# Density = 1.867822 g / cm^3
# Si number density = 18.720832 Si / 1000 Ang^3
#
#
#
# Elastic Constant Matrix: (Units=GPa)
#
#
# Indices 1 2 3 4 5 6 
#
# 1 116.6623 20.7350 87.4662 0.0000 0.0000 0.0000
# 2 20.7350 21.2917 32.0395 0.0000 0.0000 0.0000
# 3 87.4662 32.0395 166.9419 0.0000 0.0000 0.0000
# 4 0.0000 0.0000 0.0000 -3.0355 0.0000 0.0000
# 5 0.0000 0.0000 0.0000 0.0000 24.8285 0.0000
# 6 0.0000 0.0000 0.0000 0.0000 0.0000 7.1153
#
#
#
# Elastic Compliance Matrix: (Units=1/GPa)
#
#
# Indices 1 2 3 4 5 6 
#
# 1 0.014325 -0.003735 -0.006789 0.000000 0.000000 0.000000
# 2 -0.003735 0.067013 -0.010904 0.000000 0.000000 0.000000
# 3 -0.006789 -0.010904 0.011640 0.000000 0.000000 0.000000
# 4 0.000000 0.000000 0.000000 -0.329430 0.000000 0.000000
# 5 0.000000 0.000000 0.000000 0.000000 0.040276 0.000000
# 6 0.000000 0.000000 0.000000 0.000000 0.000000 0.140542
#
#
# Mechanical properties :
#
#
# Convention : Reuss Voigt Hill
#
# Bulk Modulus (GPa) = 19.95149 65.04193 42.49671
# Shear Modulus (GPa) = 1272.63969 16.75866 644.69917
#
# Velocity S-wave (km/s) = 26.10123 2.99521 18.57748
# Velocity P-wave (km/s) = 30.31578 6.83961 21.97529
#
# Compressibility (1/GPa) = 0.05012156
#
# Stress axis : x y z
#
# Youngs Moduli (GPa) = 69.80635 14.92258 85.91386
#
# Poissons Ratio (x) = 0.05574 0.58324
# Poissons Ratio (y) = 0.26075 0.93680
# Poissons Ratio (z) = 0.47389 0.16272
#
# Static dielectric constant tensor:
#      x y z
#    x 3.619520 0.000000 0.000000 
#    y 0.000000 2.744460 0.000000 
#    z 0.000000 0.000000 3.771000 
# 
# 
# High freq. dielectric constant tensor:
#      x y z
#    x 1.726180 0.000000 0.000000 
#    y 0.000000 1.651800 0.000000 
#    z 0.000000 0.000000 1.735460 
# 
# From -- ./inp_files/54879.got.cif
#   From: 2010.03.12/outbox.cif.g09.slc.cpg/sg65_28_cif.got.tgz:54879.got - 2010.04.10 20:52:16.
