data_PCOD8273334
_publ_section_title
;
Structure prediction by ZEFSAII (Michael W. Deem and Ramdas Pophale) SiO2 
 PCOD8273334
Probable space group: C M M M
;
_chemical_formula_sum "Si O2"
_cell_formula_units_Z 104
_cell_length_a 21.006042
_cell_length_b 8.652946
_cell_length_c 28.618247
_cell_angle_alpha 90.000000
_cell_angle_beta 90.000000
_cell_angle_gamma 90.000000
_cell_volume 5201.771257
_symmetry_space_group_name_H-M "C M M M"
_symmetry_group_IT_number 65
_symmetry_cell_setting 'orthorhombic'
loop_
_space_group_symop_operation_xyz
x,y,z
-x,-y,z
x,-y,-z
-x,y,-z
-x,-y,-z
x,y,-z
-x,y,z
x,-y,z
1/2+x,1/2+y,z
1/2-x,1/2-y,z
1/2+x,1/2-y,-z
1/2-x,1/2+y,-z
1/2-x,1/2-y,-z
1/2+x,1/2+y,-z
1/2-x,1/2+y,z
1/2+x,1/2-y,z
loop_
_atom_site_type_symbol
_atom_site_label
_atom_site_fract_x
_atom_site_fract_y
_atom_site_fract_z
Si Si1 0.000000 0.679377 0.949546
Si Si2 0.573347 0.318314 0.777952
Si Si3 0.683264 0.182549 0.285050
Si Si4 0.599103 0.678138 0.882835
Si Si5 0.315697 0.821667 0.050406
Si Si6 0.184056 0.181949 0.613037
Si Si7 0.572141 0.178198 0.554761
O O1 0.060612 0.722639 0.919812
O O2 0.000000 0.500000 0.957691
O O3 0.000000 0.764087 0.000000
O O4 0.500000 0.277130 0.765183
O O5 0.585637 0.500000 0.772627
O O6 0.621986 0.229345 0.744882
O O7 0.588248 0.261863 0.830442
O O8 0.750000 0.250000 0.264742
O O9 0.671193 0.243861 0.336856
O O10 0.689450 0.000000 0.285831
O O11 0.579261 0.500000 0.884992
O O12 0.667554 0.715492 0.904012
O O13 0.250000 0.750000 0.036075
O O14 0.313088 0.000000 0.066268
O O15 0.354856 0.808845 0.000000
O O16 0.250000 0.250000 0.591572
O O17 0.123734 0.216617 0.580492
O O18 0.191960 0.000000 0.618552
O O19 0.580353 0.206147 0.500000
O O20 0.500000 0.224381 0.569926
O O21 0.584736 0.000000 0.567523
#
# Coordination Sequence:
#
# PCOD8273334 Si02
#       7
#     8  16  16  16  16  16  16
#     4  11  23  37  55  81 113 147 183 225 272 329
#     4  10  22  42  63  86 119 154 192 241 295 351
#     4  11  23  41  65  91 119 155 200 249 304 364
#     4  11  22  38  59  83 110 145 183 226 279 334
#     4  10  21  37  56  80 110 144 182 226 274 328
#     4  11  22  38  61  88 121 160 203 255 308 362
#     4   9  19  37  60  87 123 166 210 258 309 362
#
# _framework density 19.993190999999999
#
# number of rings (size 3 to 8) (size 9 to 14) (size 15 to 20)
#    0.000    1.615    0.769    5.769    0.000    7.077 
#    0.000    0.769    0.000    0.000    0.000    0.000 
#    0.000    0.000    0.000    0.000    0.000    0.000 
#
# Total GULP energy -644367.847116 kJ/mol
# GULP energy per Si atom -12391.689368 kJ/mol
# Density = 1.994769 g / cm^3
# Si number density = 19.993191 Si / 1000 Ang^3
#
#
#
# Elastic Constant Matrix: (Units=GPa)
#
#
# Indices 1 2 3 4 5 6 
#
# 1 128.5038 52.3744 66.0628 0.0000 0.0000 0.0000
# 2 52.3744 114.4146 46.6407 0.0000 0.0000 0.0000
# 3 66.0628 46.6407 88.8228 0.0000 0.0000 0.0000
# 4 0.0000 0.0000 0.0000 29.9523 0.0000 0.0000
# 5 0.0000 0.0000 0.0000 0.0000 -391.3636 0.0000
# 6 0.0000 0.0000 0.0000 0.0000 0.0000 38.0667
#
#
#
# Elastic Compliance Matrix: (Units=1/GPa)
#
#
# Indices 1 2 3 4 5 6 
#
# 1 0.013177 -0.002591 -0.008440 0.000000 0.000000 0.000000
# 2 -0.002591 0.011630 -0.004180 0.000000 0.000000 0.000000
# 3 -0.008440 -0.004180 0.019730 0.000000 0.000000 0.000000
# 4 0.000000 0.000000 0.000000 0.033386 0.000000 0.000000
# 5 0.000000 0.000000 0.000000 0.000000 -0.002555 0.000000
# 6 0.000000 0.000000 0.000000 0.000000 0.000000 0.026270
#
#
# Mechanical properties :
#
#
# Convention : Reuss Voigt Hill
#
# Bulk Modulus (GPa) = 70.84247 73.54413 72.19330
# Shear Modulus (GPa) = 36.55916 -53.55803 -8.49944
#
# Velocity S-wave (km/s) = 4.28083 -5.18134 -2.06407
# Velocity P-wave (km/s) = 7.74237 1.03411 5.52330
#
# Compressibility (1/GPa) = 0.01411583
#
# Stress axis : x y z
#
# Youngs Moduli (GPa) = 75.89092 85.98310 50.68389
#
# Poissons Ratio (x) = 0.22282 0.42775
# Poissons Ratio (y) = 0.19667 0.21184
# Poissons Ratio (z) = 0.64049 0.35937
#
# Static dielectric constant tensor:
#      x y z
#    x 1.326010 0.000000 0.000000 
#    y 0.000000 3.551610 0.000000 
#    z 0.000000 0.000000 3.591690 
# 
# 
# High freq. dielectric constant tensor:
#      x y z
#    x 1.791290 0.000000 0.000000 
#    y 0.000000 1.780930 0.000000 
#    z 0.000000 0.000000 1.777790 
# 
# From -- ./inp_files/75517.got.cif
#   From: 2010.03.12/outbox.cif.g09.slc.cpg/sg65_38_cif.got.tgz:75517.got - 2010.04.10 20:52:16.
