data_PCOD8273623
_publ_section_title
;
Structure prediction by ZEFSAII (Michael W. Deem and Ramdas Pophale) SiO2 
 PCOD8273623
Probable space group: C M M M
;
_chemical_formula_sum "Si O2"
_cell_formula_units_Z 104
_cell_length_a 26.105227
_cell_length_b 21.737033
_cell_length_c 8.738934
_cell_angle_alpha 90.000000
_cell_angle_beta 90.000000
_cell_angle_gamma 90.000000
_cell_volume 4958.909678
_symmetry_space_group_name_H-M "C M M M"
_symmetry_group_IT_number 65
_symmetry_cell_setting 'orthorhombic'
loop_
_space_group_symop_operation_xyz
x,y,z
-x,-y,z
x,-y,-z
-x,y,-z
-x,-y,-z
x,y,-z
-x,y,z
x,-y,z
1/2+x,1/2+y,z
1/2-x,1/2-y,z
1/2+x,1/2-y,-z
1/2-x,1/2+y,-z
1/2-x,1/2-y,-z
1/2+x,1/2+y,-z
1/2-x,1/2+y,z
1/2+x,1/2-y,z
loop_
_atom_site_type_symbol
_atom_site_label
_atom_site_fract_x
_atom_site_fract_y
_atom_site_fract_z
Si Si1 0.698908 0.931721 0.822616
Si Si2 0.558016 0.679965 0.673572
Si Si3 0.622508 0.431771 0.326500
Si Si4 0.500000 0.071300 0.818500
Si Si5 0.858962 0.256961 0.822029
Si Si6 0.792258 0.146950 0.820039
Si Si7 0.604775 0.118657 0.679150
O O1 0.737353 0.878118 0.758977
O O2 0.645738 0.932687 0.728899
O O3 0.723416 0.000000 0.801931
O O4 0.686241 0.919264 0.000000
O O5 0.569370 0.703452 0.500000
O O6 0.500000 0.691173 0.718903
O O7 0.570559 0.607677 0.685985
O O8 0.590519 0.716609 0.797755
O O9 0.643223 0.431673 0.500000
O O10 0.609397 0.500000 0.268952
O O11 0.666242 0.403711 0.221781
O O12 0.550226 0.107057 0.759281
O O13 0.500000 0.000000 0.761873
O O14 0.500000 0.074250 0.000000
O O15 0.809948 0.215477 0.762687
O O16 0.866652 0.318465 0.726402
O O17 0.852563 0.273646 0.000000
O O18 0.789090 0.150145 0.000000
O O19 0.594476 0.117347 0.500000
#
# Coordination Sequence:
#
# PCOD8273623 Si02
#       7
#    16  16  16   8  16  16  16
#     4  10  21  39  63  90 121 157 199 246 298 356
#     4   9  18  32  50  73 106 146 190 244 299 354
#     4   9  17  29  47  74 108 147 191 239 295 357
#     4  11  25  47  73  97 123 157 198 245 298 355
#     4  10  21  38  59  84 116 154 200 248 297 353
#     4   9  19  36  59  85 114 154 200 247 295 345
#     4  12  26  42  63  92 125 159 196 242 297 358
#
# _framework density 20.972352000000001
#
# number of rings (size 3 to 8) (size 9 to 14) (size 15 to 20)
#    0.000    2.077    0.000    3.000    1.077    6.154 
#    0.000    4.615    0.000    0.000    0.000    4.308 
#    0.000    0.000    0.000    0.000    0.000    0.000 
#
# Total GULP energy -644443.993247 kJ/mol
# GULP energy per Si atom -12393.153716 kJ/mol
# Density = 2.092462 g / cm^3
# Si number density = 20.972352 Si / 1000 Ang^3
#
#
#
# Elastic Constant Matrix: (Units=GPa)
#
#
# Indices 1 2 3 4 5 6 
#
# 1 117.5041 35.3196 34.6751 0.0000 0.0000 0.0000
# 2 35.3196 107.8356 26.9514 0.0000 0.0000 0.0000
# 3 34.6751 26.9514 50.9313 0.0000 0.0000 0.0000
# 4 0.0000 0.0000 0.0000 26.9629 0.0000 0.0000
# 5 0.0000 0.0000 0.0000 0.0000 25.9276 0.0000
# 6 0.0000 0.0000 0.0000 0.0000 0.0000 25.1979
#
#
#
# Elastic Compliance Matrix: (Units=1/GPa)
#
#
# Indices 1 2 3 4 5 6 
#
# 1 0.011011 -0.001997 -0.006440 0.000000 0.000000 0.000000
# 2 -0.001997 0.011049 -0.004487 0.000000 0.000000 0.000000
# 3 -0.006440 -0.004487 0.026393 0.000000 0.000000 0.000000
# 4 0.000000 0.000000 0.000000 0.037088 0.000000 0.000000
# 5 0.000000 0.000000 0.000000 0.000000 0.038569 0.000000
# 6 0.000000 0.000000 0.000000 0.000000 0.000000 0.039686
#
#
# Mechanical properties :
#
#
# Convention : Reuss Voigt Hill
#
# Bulk Modulus (GPa) = 44.23768 52.24036 48.23902
# Shear Modulus (GPa) = 25.35770 27.57266 26.46518
#
# Velocity S-wave (km/s) = 3.48099 3.62983 3.55619
# Velocity P-wave (km/s) = 6.10700 6.52157 6.31769
#
# Compressibility (1/GPa) = 0.02260516
#
# Stress axis : x y z
#
# Youngs Moduli (GPa) = 90.81873 90.50658 37.88865
#
# Poissons Ratio (x) = 0.18074 0.24399
# Poissons Ratio (y) = 0.18136 0.17001
# Poissons Ratio (z) = 0.58485 0.40612
#
# Static dielectric constant tensor:
#      x y z
#    x 3.873480 0.000000 0.000000 
#    y 0.000000 4.092570 0.000000 
#    z 0.000000 0.000000 3.652670 
# 
# 
# High freq. dielectric constant tensor:
#      x y z
#    x 1.820280 0.000000 0.000000 
#    y 0.000000 1.833800 0.000000 
#    z 0.000000 0.000000 1.803840 
# 
# From -- ./inp_files/16509.got.cif
#   From: 2010.03.12/outbox.cif.g09.slc.cpg/sg65_9_cif.got.tgz:16509.got - 2010.04.10 20:52:16.
