data_PCOD8273423
_publ_section_title
;
Structure prediction by ZEFSAII (Michael W. Deem and Ramdas Pophale) SiO2 
 PCOD8273423
Probable space group: C M M M
;
_chemical_formula_sum "Si O2"
_cell_formula_units_Z 72
_cell_length_a 8.908743
_cell_length_b 17.974112
_cell_length_c 22.880116
_cell_angle_alpha 90.000000
_cell_angle_beta 90.000000
_cell_angle_gamma 90.000000
_cell_volume 3663.718488
_symmetry_space_group_name_H-M "C M M M"
_symmetry_group_IT_number 65
_symmetry_cell_setting 'orthorhombic'
loop_
_space_group_symop_operation_xyz
x,y,z
-x,-y,z
x,-y,-z
-x,y,-z
-x,-y,-z
x,y,-z
-x,y,z
x,-y,z
1/2+x,1/2+y,z
1/2-x,1/2-y,z
1/2+x,1/2-y,-z
1/2-x,1/2+y,-z
1/2-x,1/2-y,-z
1/2+x,1/2+y,-z
1/2-x,1/2+y,z
1/2+x,1/2-y,z
loop_
_atom_site_type_symbol
_atom_site_label
_atom_site_fract_x
_atom_site_fract_y
_atom_site_fract_z
Si Si1 0.176825 0.829768 0.000000
Si Si2 0.673328 0.412952 0.883753
Si Si3 0.824962 0.825926 0.565048
Si Si4 0.824338 0.914875 0.676451
Si Si5 0.177274 0.329551 0.219940
O O1 0.250000 0.750000 0.000000
O O2 0.230030 0.874059 0.942848
O O3 0.000000 0.820431 0.000000
O O4 0.500000 0.393751 0.870196
O O5 0.696645 0.500000 0.892071
O O6 0.775103 0.385876 0.830711
O O7 0.767542 0.848408 0.500000
O O8 0.750000 0.750000 0.587010
O O9 0.786144 0.892049 0.609857
O O10 0.000000 0.810206 0.563959
O O11 0.730216 0.862028 0.718445
O O12 0.000000 0.904460 0.690350
O O13 0.775017 0.000000 0.685402
O O14 0.250000 0.250000 0.207721
O O15 0.000000 0.320211 0.220632
#
# Coordination Sequence:
#
# PCOD8273423 Si02
#       5
#     8  16  16  16  16
#     4  10  21  37  59  87 117 152 191 230 274 326
#     4  10  21  39  62  87 117 151 187 229 279 333
#     4   9  18  33  54  80 109 143 184 228 274 327
#     4  10  21  37  57  82 113 148 185 228 280 334
#     4  12  25  40  59  83 112 147 189 234 280 332
#
# _framework density 19.652163999999999
#
# number of rings (size 3 to 8) (size 9 to 14) (size 15 to 20)
#    0.000    1.778    0.000    4.333    0.000   10.667 
#    0.000    2.222    0.000    2.000    0.000    4.667 
#    0.000    0.000    0.000    0.000    0.000    0.000 
#
# Total GULP energy -446536.740057 kJ/mol
# GULP energy per Si atom -12403.798335 kJ/mol
# Density = 1.960743 g / cm^3
# Si number density = 19.652164 Si / 1000 Ang^3
#
#
#
# Elastic Constant Matrix: (Units=GPa)
#
#
# Indices 1 2 3 4 5 6 
#
# 1 71.1124 35.7089 40.2566 0.0000 0.0000 0.0000
# 2 35.7089 105.3820 42.7463 0.0000 0.0000 0.0000
# 3 40.2566 42.7463 116.7886 0.0000 0.0000 0.0000
# 4 0.0000 0.0000 0.0000 38.5565 0.0000 0.0000
# 5 0.0000 0.0000 0.0000 0.0000 8.3636 0.0000
# 6 0.0000 0.0000 0.0000 0.0000 0.0000 32.0158
#
#
#
# Elastic Compliance Matrix: (Units=1/GPa)
#
#
# Indices 1 2 3 4 5 6 
#
# 1 0.019108 -0.004466 -0.004952 0.000000 0.000000 0.000000
# 2 -0.004466 0.012188 -0.002921 0.000000 0.000000 0.000000
# 3 -0.004952 -0.002921 0.011339 0.000000 0.000000 0.000000
# 4 0.000000 0.000000 0.000000 0.025936 0.000000 0.000000
# 5 0.000000 0.000000 0.000000 0.000000 0.119566 0.000000
# 6 0.000000 0.000000 0.000000 0.000000 0.000000 0.031235
#
#
# Mechanical properties :
#
#
# Convention : Reuss Voigt Hill
#
# Bulk Modulus (GPa) = 55.69282 58.96739 57.33011
# Shear Modulus (GPa) = 19.99721 27.42527 23.71124
#
# Velocity S-wave (km/s) = 3.19338 3.73974 3.47731
# Velocity P-wave (km/s) = 6.48056 6.97984 6.73483
#
# Compressibility (1/GPa) = 0.01795564
#
# Stress axis : x y z
#
# Youngs Moduli (GPa) = 52.33367 82.05013 88.19421
#
# Poissons Ratio (x) = 0.36645 0.43672
# Poissons Ratio (y) = 0.23373 0.25765
# Poissons Ratio (z) = 0.25915 0.23970
#
# Static dielectric constant tensor:
#      x y z
#    x 3.506300 0.000000 0.000000 
#    y 0.000000 3.656750 0.000000 
#    z 0.000000 0.000000 3.883830 
# 
# 
# High freq. dielectric constant tensor:
#      x y z
#    x 1.752710 0.000000 0.000000 
#    y 0.000000 1.772860 0.000000 
#    z 0.000000 0.000000 1.783330 
# 
# From -- ./inp_files/67124.got.cif
#   From: 2010.03.12/outbox.cif.g09.slc.cpg/sg65_34_cif.got.tgz:67124.got - 2010.04.10 20:52:16.
