data_PCOD8273023
_publ_section_title
;
Structure prediction by ZEFSAII (Michael W. Deem and Ramdas Pophale) SiO2 
 PCOD8273023
Probable space group: C M M M
;
_chemical_formula_sum "Si O2"
_cell_formula_units_Z 96
_cell_length_a 8.987975
_cell_length_b 19.574987
_cell_length_c 30.909908
_cell_angle_alpha 90.000000
_cell_angle_beta 90.000000
_cell_angle_gamma 90.000000
_cell_volume 5438.273566
_symmetry_space_group_name_H-M "C M M M"
_symmetry_group_IT_number 65
_symmetry_cell_setting 'orthorhombic'
loop_
_space_group_symop_operation_xyz
x,y,z
-x,-y,z
x,-y,-z
-x,y,-z
-x,-y,-z
x,y,-z
-x,y,z
x,-y,z
1/2+x,1/2+y,z
1/2-x,1/2-y,z
1/2+x,1/2-y,-z
1/2-x,1/2+y,-z
1/2-x,1/2-y,-z
1/2+x,1/2+y,-z
1/2-x,1/2+y,z
1/2+x,1/2-y,z
loop_
_atom_site_type_symbol
_atom_site_label
_atom_site_fract_x
_atom_site_fract_y
_atom_site_fract_z
Si Si1 0.327618 0.579970 0.386240
Si Si2 0.826567 0.677569 0.776896
Si Si3 0.826337 0.823559 0.953014
Si Si4 0.825509 0.578303 0.701753
Si Si5 0.673848 0.823293 0.127856
Si Si6 0.326668 0.819530 0.449622
O O1 0.500000 0.599661 0.387458
O O2 0.300750 0.500000 0.392972
O O3 0.260958 0.604121 0.340521
O O4 0.243134 0.616821 0.424942
O O5 0.750000 0.750000 0.769495
O O6 0.768142 0.623274 0.741948
O O7 0.795449 0.644765 0.824632
O O8 0.000000 0.691229 0.771071
O O9 0.750000 0.750000 0.955129
O O10 0.750403 0.864652 0.912490
O O11 0.000000 0.815012 0.943541
O O12 0.801136 0.860087 0.000000
O O13 0.786039 0.500000 0.712416
O O14 0.000000 0.587731 0.693311
O O15 0.500000 0.817018 0.118409
O O16 0.750000 0.750000 0.128939
O O17 0.295356 0.831767 0.500000
O O18 0.500000 0.814318 0.439125
O O19 0.250000 0.750000 0.433476
#
# Coordination Sequence:
#
# PCOD8273023 Si02
#       6
#    16  16  16  16  16  16
#     4  10  21  36  54  77 104 133 166 204 245 288
#     4   9  18  30  45  67  91 118 152 189 232 279
#     4   9  15  21  30  46  70 102 139 174 211 259
#     4   9  18  34  53  70  93 126 162 199 238 282
#     4   9  15  23  35  52  77 106 138 176 218 266
#     4  10  21  37  57  80 106 136 169 204 243 288
#
# _framework density 17.652660999999998
#
# number of rings (size 3 to 8) (size 9 to 14) (size 15 to 20)
#    0.000    2.667    0.000    3.000    0.000    5.333 
#    0.000    3.333    0.000    0.000    0.000    0.000 
#    0.000    0.667    0.000    8.333    0.000    4.500 
#
# Total GULP energy -594842.114676 kJ/mol
# GULP energy per Si atom -12392.544056 kJ/mol
# Density = 1.761248 g / cm^3
# Si number density = 17.652661 Si / 1000 Ang^3
#
#
#
# Elastic Constant Matrix: (Units=GPa)
#
#
# Indices 1 2 3 4 5 6 
#
# 1 100.0189 33.4454 69.6933 0.0000 0.0000 0.0000
# 2 33.4454 48.4813 55.2069 0.0000 0.0000 0.0000
# 3 69.6933 55.2069 142.5229 0.0000 0.0000 0.0000
# 4 0.0000 0.0000 0.0000 6.3475 0.0000 0.0000
# 5 0.0000 0.0000 0.0000 0.0000 29.8038 0.0000
# 6 0.0000 0.0000 0.0000 0.0000 0.0000 20.6446
#
#
#
# Elastic Compliance Matrix: (Units=1/GPa)
#
#
# Indices 1 2 3 4 5 6 
#
# 1 0.015527 -0.003696 -0.006161 0.000000 0.000000 0.000000
# 2 -0.003696 0.037785 -0.012829 0.000000 0.000000 0.000000
# 3 -0.006161 -0.012829 0.014999 0.000000 0.000000 0.000000
# 4 0.000000 0.000000 0.000000 0.157542 0.000000 0.000000
# 5 0.000000 0.000000 0.000000 0.000000 0.033553 0.000000
# 6 0.000000 0.000000 0.000000 0.000000 0.000000 0.048439
#
#
# Mechanical properties :
#
#
# Convention : Reuss Voigt Hill
#
# Bulk Modulus (GPa) = 43.59427 67.52381 55.55904
# Shear Modulus (GPa) = 13.85575 20.20434 17.03004
#
# Velocity S-wave (km/s) = 2.80466 3.38679 3.10938
# Velocity P-wave (km/s) = 5.93611 7.32313 6.66579
#
# Compressibility (1/GPa) = 0.02293879
#
# Stress axis : x y z
#
# Youngs Moduli (GPa) = 64.40403 26.46579 66.67324
#
# Poissons Ratio (x) = 0.09781 0.41078
# Poissons Ratio (y) = 0.23801 0.85534
# Poissons Ratio (z) = 0.39680 0.33953
#
# Static dielectric constant tensor:
#      x y z
#    x 3.396150 0.000000 0.000000 
#    y 0.000000 2.857570 0.000000 
#    z 0.000000 0.000000 4.233500 
# 
# 
# High freq. dielectric constant tensor:
#      x y z
#    x 1.694360 0.000000 0.000000 
#    y 0.000000 1.625220 0.000000 
#    z 0.000000 0.000000 1.707780 
# 
# From -- ./inp_files/73453.got.cif
#   From: 2010.03.12/outbox.cif.g09.slc.cpg/sg65_37_cif.got.tgz:73453.got - 2010.04.10 20:52:16.
