data_PCOD8273179
_publ_section_title
;
Structure prediction by ZEFSAII (Michael W. Deem and Ramdas Pophale) SiO2 
 PCOD8273179
Probable space group: C M M M
;
_chemical_formula_sum "Si O2"
_cell_formula_units_Z 96
_cell_length_a 14.748270
_cell_length_b 26.068545
_cell_length_c 13.568420
_cell_angle_alpha 90.000000
_cell_angle_beta 90.000000
_cell_angle_gamma 90.000000
_cell_volume 5216.595352
_symmetry_space_group_name_H-M "C M M M"
_symmetry_group_IT_number 65
_symmetry_cell_setting 'orthorhombic'
loop_
_space_group_symop_operation_xyz
x,y,z
-x,-y,z
x,-y,-z
-x,y,-z
-x,-y,-z
x,y,-z
-x,y,z
x,-y,z
1/2+x,1/2+y,z
1/2-x,1/2-y,z
1/2+x,1/2-y,-z
1/2-x,1/2+y,-z
1/2-x,1/2-y,-z
1/2+x,1/2+y,-z
1/2-x,1/2+y,z
1/2+x,1/2-y,z
loop_
_atom_site_type_symbol
_atom_site_label
_atom_site_fract_x
_atom_site_fract_y
_atom_site_fract_z
Si Si1 0.186722 0.559778 0.884667
Si Si2 0.732939 0.626292 0.278995
Si Si3 0.000000 0.609525 0.884311
Si Si4 0.000000 0.274612 0.883824
Si Si5 0.604797 0.817792 0.614982
Si Si6 0.401545 0.556767 0.615840
Si Si7 0.152549 0.231695 0.243205
O O1 0.200380 0.500000 0.858859
O O2 0.254719 0.595620 0.823313
O O3 0.086276 0.576544 0.851665
O O4 0.204127 0.570030 0.000000
O O5 0.829234 0.644226 0.324477
O O6 0.684804 0.589829 0.355961
O O7 0.660259 0.671455 0.262522
O O8 0.000000 0.667315 0.838637
O O9 0.000000 0.617421 0.000000
O O10 0.912764 0.243988 0.847204
O O11 0.000000 0.274948 0.000000
O O12 0.631722 0.817389 0.500000
O O13 0.500000 0.835132 0.628522
O O14 0.618835 0.760310 0.657281
O O15 0.402867 0.553741 0.500000
O O16 0.500000 0.578430 0.652629
O O17 0.388249 0.500000 0.660567
O O18 0.250000 0.250000 0.207464
#
# Coordination Sequence:
#
# PCOD8273179 Si02
#       7
#    16  16   8   8  16  16  16
#     4  10  21  36  56  84 115 150 194 240 285 335
#     4  11  22  34  59  83 114 150 192 238 285 346
#     4   9  17  32  55  79 104 141 183 225 272 326
#     4  11  22  37  57  80 117 151 185 234 289 336
#     4  10  21  38  59  84 120 155 185 228 287 355
#     4   9  19  36  57  81 108 141 187 242 294 339
#     4  10  22  36  54  82 113 145 193 231 274 342
#
# _framework density 18.402806000000002
#
# number of rings (size 3 to 8) (size 9 to 14) (size 15 to 20)
#    0.000    2.000    0.833    3.750    2.333    5.667 
#    0.000    1.667    0.000    0.000    0.000    5.833 
#    0.000    0.000    0.000    0.000    0.000    0.000 
#
# Total GULP energy -595008.403344 kJ/mol
# GULP energy per Si atom -12396.008403 kJ/mol
# Density = 1.836092 g / cm^3
# Si number density = 18.402806 Si / 1000 Ang^3
#
#
#
# Elastic Constant Matrix: (Units=GPa)
#
#
# Indices 1 2 3 4 5 6 
#
# 1 98.8125 53.3560 39.8112 0.0000 0.0000 0.0000
# 2 53.3560 119.2692 51.2908 0.0000 0.0000 0.0000
# 3 39.8112 51.2908 88.5507 0.0000 0.0000 0.0000
# 4 0.0000 0.0000 0.0000 27.5217 0.0000 0.0000
# 5 0.0000 0.0000 0.0000 0.0000 23.4030 0.0000
# 6 0.0000 0.0000 0.0000 0.0000 0.0000 22.4200
#
#
#
# Elastic Compliance Matrix: (Units=1/GPa)
#
#
# Indices 1 2 3 4 5 6 
#
# 1 0.014151 -0.004787 -0.003589 0.000000 0.000000 0.000000
# 2 -0.004787 0.012785 -0.005253 0.000000 0.000000 0.000000
# 3 -0.003589 -0.005253 0.015950 0.000000 0.000000 0.000000
# 4 0.000000 0.000000 0.000000 0.036335 0.000000 0.000000
# 5 0.000000 0.000000 0.000000 0.000000 0.042730 0.000000
# 6 0.000000 0.000000 0.000000 0.000000 0.000000 0.044603
#
#
# Mechanical properties :
#
#
# Convention : Reuss Voigt Hill
#
# Bulk Modulus (GPa) = 63.99431 66.17203 65.08317
# Shear Modulus (GPa) = 25.12291 25.48055 25.30173
#
# Velocity S-wave (km/s) = 3.69883 3.72506 3.71197
# Velocity P-wave (km/s) = 7.28639 7.38492 7.33582
#
# Compressibility (1/GPa) = 0.01562639
#
# Stress axis : x y z
#
# Youngs Moduli (GPa) = 70.66528 78.21650 62.69784
#
# Poissons Ratio (x) = 0.37443 0.22505
# Poissons Ratio (y) = 0.33828 0.32936
# Poissons Ratio (z) = 0.25365 0.41089
#
# Static dielectric constant tensor:
#      x y z
#    x 3.715000 0.000000 0.000000 
#    y 0.000000 3.588050 0.000000 
#    z 0.000000 0.000000 3.249880 
# 
# 
# High freq. dielectric constant tensor:
#      x y z
#    x 1.718410 0.000000 0.000000 
#    y 0.000000 1.713610 0.000000 
#    z 0.000000 0.000000 1.703900 
# 
# From -- ./inp_files/40993.got.cif
#   From: 2010.03.12/outbox.cif.g09.slc.cpg/sg65_21_cif.got.tgz:40993.got - 2010.04.10 20:52:16.
