data_PCOD8273048
_publ_section_title
;
Structure prediction by ZEFSAII (Michael W. Deem and Ramdas Pophale) SiO2 
 PCOD8273048
Probable space group: C M M M
;
_chemical_formula_sum "Si O2"
_cell_formula_units_Z 96
_cell_length_a 9.256287
_cell_length_b 18.756527
_cell_length_c 30.348726
_cell_angle_alpha 90.000000
_cell_angle_beta 90.000000
_cell_angle_gamma 90.000000
_cell_volume 5269.018253
_symmetry_space_group_name_H-M "C M M M"
_symmetry_group_IT_number 65
_symmetry_cell_setting 'orthorhombic'
loop_
_space_group_symop_operation_xyz
x,y,z
-x,-y,z
x,-y,-z
-x,y,-z
-x,-y,-z
x,y,-z
-x,y,z
x,-y,z
1/2+x,1/2+y,z
1/2-x,1/2-y,z
1/2+x,1/2-y,-z
1/2-x,1/2+y,-z
1/2-x,1/2-y,-z
1/2+x,1/2+y,-z
1/2-x,1/2+y,z
1/2+x,1/2-y,z
loop_
_atom_site_type_symbol
_atom_site_label
_atom_site_fract_x
_atom_site_fract_y
_atom_site_fract_z
Si Si1 0.162801 0.915299 0.548193
Si Si2 0.833094 0.917369 0.214557
Si Si3 0.831877 0.679007 0.050407
Si Si4 0.669116 0.081242 0.368033
Si Si5 0.839334 0.916331 0.113671
Si Si6 0.828326 0.674678 0.715498
O O1 0.217251 0.887944 0.500000
O O2 0.260737 0.885517 0.587754
O O3 0.000000 0.888652 0.556221
O O4 0.169358 0.000000 0.548460
O O5 0.804710 0.896235 0.163993
O O6 0.726351 0.868167 0.242216
O O7 0.000000 0.902940 0.227233
O O8 0.794628 0.000000 0.222961
O O9 0.750000 0.750000 0.064901
O O10 0.779534 0.615847 0.081503
O O11 0.000000 0.691788 0.057724
O O12 0.796272 0.658672 0.000000
O O13 0.500000 0.083326 0.375459
O O14 0.717028 0.129495 0.327250
O O15 0.721583 0.000000 0.359145
O O16 0.000000 0.888664 0.101225
O O17 0.832362 0.000000 0.107479
O O18 0.750000 0.750000 0.712706
O O19 0.000000 0.685419 0.719020
#
# Coordination Sequence:
#
# PCOD8273048 Si02
#       6
#    16  16  16  16  16  16
#     4   8  14  25  43  70 101 129 160 200 245 295
#     4   9  19  37  59  81 105 134 170 211 256 309
#     4  10  21  36  54  77 106 141 180 219 258 303
#     4   9  18  32  50  73 100 130 165 206 253 303
#     4   9  19  36  57  81 108 137 170 210 257 309
#     4  11  23  37  53  75 104 137 174 215 258 306
#
# _framework density 18.219714
#
# number of rings (size 3 to 8) (size 9 to 14) (size 15 to 20)
#    0.000    2.667    0.000    3.000    0.000    5.667 
#    0.000    6.667    0.000    0.500    0.000    0.000 
#    0.000    0.000    0.000    0.000    0.000    0.000 
#
# Total GULP energy -595137.233519 kJ/mol
# GULP energy per Si atom -12398.692365 kJ/mol
# Density = 1.817824 g / cm^3
# Si number density = 18.219714 Si / 1000 Ang^3
#
#
#
# Elastic Constant Matrix: (Units=GPa)
#
#
# Indices 1 2 3 4 5 6 
#
# 1 80.2437 47.0899 64.0067 0.0000 0.0000 0.0000
# 2 47.0899 71.8065 60.7506 0.0000 0.0000 0.0000
# 3 64.0067 60.7506 124.2460 0.0000 0.0000 0.0000
# 4 0.0000 0.0000 0.0000 -1.5518 0.0000 0.0000
# 5 0.0000 0.0000 0.0000 0.0000 16.7374 0.0000
# 6 0.0000 0.0000 0.0000 0.0000 0.0000 26.1795
#
#
#
# Elastic Compliance Matrix: (Units=1/GPa)
#
#
# Indices 1 2 3 4 5 6 
#
# 1 0.024186 -0.009073 -0.008024 0.000000 0.000000 0.000000
# 2 -0.009073 0.027155 -0.008604 0.000000 0.000000 0.000000
# 3 -0.008024 -0.008604 0.016389 0.000000 0.000000 0.000000
# 4 0.000000 0.000000 0.000000 -0.644400 0.000000 0.000000
# 5 0.000000 0.000000 0.000000 0.000000 0.059747 0.000000
# 6 0.000000 0.000000 0.000000 0.000000 0.000000 0.038198
#
#
# Mechanical properties :
#
#
# Convention : Reuss Voigt Hill
#
# Bulk Modulus (GPa) = 61.23696 68.88784 65.06240
# Shear Modulus (GPa) = -11.85168 15.23626 1.69229
#
# Velocity S-wave (km/s) = -2.55323 2.89494 0.96480
# Velocity P-wave (km/s) = 4.99913 7.00470 6.08511
#
# Compressibility (1/GPa) = 0.01633001
#
# Stress axis : x y z
#
# Youngs Moduli (GPa) = 41.34540 36.82533 61.01721
#
# Poissons Ratio (x) = 0.33411 0.48958
# Poissons Ratio (y) = 0.37513 0.52497
# Poissons Ratio (z) = 0.33174 0.31683
#
# Static dielectric constant tensor:
#      x y z
#    x 3.469440 0.000000 0.000000 
#    y 0.000000 3.146280 0.000000 
#    z 0.000000 0.000000 3.591820 
# 
# 
# High freq. dielectric constant tensor:
#      x y z
#    x 1.706870 0.000000 0.000000 
#    y 0.000000 1.682160 0.000000 
#    z 0.000000 0.000000 1.717500 
# 
# From -- ./inp_files/73159.got.cif
#   From: 2010.03.12/outbox.cif.g09.slc.cpg/sg65_37_cif.got.tgz:73159.got - 2010.04.10 20:52:16.
