data_PCOD8273405
_publ_section_title
;
Structure prediction by ZEFSAII (Michael W. Deem and Ramdas Pophale) SiO2 
 PCOD8273405
Probable space group: C M M M
;
_chemical_formula_sum "Si O2"
_cell_formula_units_Z 72
_cell_length_a 8.706620
_cell_length_b 18.339042
_cell_length_c 22.866656
_cell_angle_alpha 90.000000
_cell_angle_beta 90.000000
_cell_angle_gamma 90.000000
_cell_volume 3651.143428
_symmetry_space_group_name_H-M "C M M M"
_symmetry_group_IT_number 65
_symmetry_cell_setting 'orthorhombic'
loop_
_space_group_symop_operation_xyz
x,y,z
-x,-y,z
x,-y,-z
-x,y,-z
-x,-y,-z
x,y,-z
-x,y,z
x,-y,z
1/2+x,1/2+y,z
1/2-x,1/2-y,z
1/2+x,1/2-y,-z
1/2-x,1/2+y,-z
1/2-x,1/2-y,-z
1/2+x,1/2+y,-z
1/2-x,1/2+y,z
1/2+x,1/2-y,z
loop_
_atom_site_type_symbol
_atom_site_label
_atom_site_fract_x
_atom_site_fract_y
_atom_site_fract_z
Si Si1 0.680864 0.173610 0.433403
Si Si2 0.681155 0.669923 0.892101
Si Si3 0.320174 0.085453 0.000000
Si Si4 0.671924 0.585863 0.333509
Si Si5 0.179188 0.414923 0.786626
O O1 0.729817 0.156425 0.500000
O O2 0.500000 0.176525 0.426401
O O3 0.750000 0.250000 0.412441
O O4 0.748902 0.111115 0.392945
O O5 0.500000 0.675612 0.898364
O O6 0.750000 0.750000 0.897230
O O7 0.746555 0.619480 0.942764
O O8 0.723564 0.633601 0.830765
O O9 0.500000 0.102045 0.000000
O O10 0.285218 0.000000 0.000000
O O11 0.500000 0.618249 0.327889
O O12 0.665399 0.500000 0.336603
O O13 0.772547 0.610828 0.278052
O O14 0.217811 0.500000 0.796785
O O15 0.000000 0.399420 0.795941
#
# Coordination Sequence:
#
# PCOD8273405 Si02
#       5
#    16  16   8  16  16
#     4  10  21  37  57  81 111 148 190 236 287 344
#     4  12  25  41  62  89 122 156 195 241 288 339
#     4  11  24  43  66  91 121 157 196 237 286 343
#     4  10  21  37  58  85 116 150 190 236 285 339
#     4  10  21  39  62  87 117 152 191 236 287 343
#
# _framework density 19.719849
#
# number of rings (size 3 to 8) (size 9 to 14) (size 15 to 20)
#    0.000    1.444    0.000    5.333    0.000    8.889 
#    0.000    6.667    0.000    0.000    0.000    0.000 
#    0.000    0.000    0.000    0.000    0.000    0.000 
#
# Total GULP energy -446586.923776 kJ/mol
# GULP energy per Si atom -12405.192327 kJ/mol
# Density = 1.967497 g / cm^3
# Si number density = 19.719849 Si / 1000 Ang^3
#
#
#
# Elastic Constant Matrix: (Units=GPa)
#
#
# Indices 1 2 3 4 5 6 
#
# 1 128.3662 67.2791 55.1811 0.0000 0.0000 0.0000
# 2 67.2791 68.9726 55.3179 0.0000 0.0000 0.0000
# 3 55.1811 55.3179 124.5771 0.0000 0.0000 0.0000
# 4 0.0000 0.0000 0.0000 -10.9325 0.0000 0.0000
# 5 0.0000 0.0000 0.0000 0.0000 52.2111 0.0000
# 6 0.0000 0.0000 0.0000 0.0000 0.0000 34.8993
#
#
#
# Elastic Compliance Matrix: (Units=1/GPa)
#
#
# Indices 1 2 3 4 5 6 
#
# 1 0.015944 -0.015358 -0.000243 0.000000 0.000000 0.000000
# 2 -0.015358 0.037311 -0.009765 0.000000 0.000000 0.000000
# 3 -0.000243 -0.009765 0.012471 0.000000 0.000000 0.000000
# 4 0.000000 0.000000 0.000000 -0.091470 0.000000 0.000000
# 5 0.000000 0.000000 0.000000 0.000000 0.019153 0.000000
# 6 0.000000 0.000000 0.000000 0.000000 0.000000 0.028654
#
#
# Mechanical properties :
#
#
# Convention : Reuss Voigt Hill
#
# Bulk Modulus (GPa) = 66.69095 75.27466 70.98280
# Shear Modulus (GPa) = 64.27442 24.84476 44.55959
#
# Velocity S-wave (km/s) = 5.71529 3.55334 4.75872
# Velocity P-wave (km/s) = 8.80030 7.42225 8.14049
#
# Compressibility (1/GPa) = 0.01499454
#
# Stress axis : x y z
#
# Youngs Moduli (GPa) = 62.72051 26.80185 80.18695
#
# Poissons Ratio (x) = 0.41161 0.01947
# Poissons Ratio (y) = 0.96323 0.78304
# Poissons Ratio (z) = 0.01523 0.26172
#
# Static dielectric constant tensor:
#      x y z
#    x 3.860200 0.000000 0.000000 
#    y 0.000000 3.569960 0.000000 
#    z 0.000000 0.000000 3.754570 
# 
# 
# High freq. dielectric constant tensor:
#      x y z
#    x 1.788300 0.000000 0.000000 
#    y 0.000000 1.766260 0.000000 
#    z 0.000000 0.000000 1.782940 
# 
# From -- ./inp_files/67001.got.cif
#   From: 2010.03.12/outbox.cif.g09.slc.cpg/sg65_34_cif.got.tgz:67001.got - 2010.04.10 20:52:16.
