data_PCOD8273493
_publ_section_title
;
Structure prediction by ZEFSAII (Michael W. Deem and Ramdas Pophale) SiO2 
 PCOD8273493
Probable space group: C M M M
;
_chemical_formula_sum "Si O2"
_cell_formula_units_Z 80
_cell_length_a 22.967350
_cell_length_b 14.650468
_cell_length_c 11.340541
_cell_angle_alpha 90.000000
_cell_angle_beta 90.000000
_cell_angle_gamma 90.000000
_cell_volume 3815.892750
_symmetry_space_group_name_H-M "C M M M"
_symmetry_group_IT_number 65
_symmetry_cell_setting 'orthorhombic'
loop_
_space_group_symop_operation_xyz
x,y,z
-x,-y,z
x,-y,-z
-x,y,-z
-x,-y,-z
x,y,-z
-x,y,z
x,-y,z
1/2+x,1/2+y,z
1/2-x,1/2-y,z
1/2+x,1/2-y,-z
1/2-x,1/2+y,-z
1/2-x,1/2-y,-z
1/2+x,1/2+y,-z
1/2-x,1/2+y,z
1/2+x,1/2-y,z
loop_
_atom_site_type_symbol
_atom_site_label
_atom_site_fract_x
_atom_site_fract_y
_atom_site_fract_z
Si Si1 0.163122 0.396009 0.863902
Si Si2 0.222942 0.104183 0.247235
Si Si3 0.300516 0.328060 0.500000
Si Si4 0.067542 0.242772 0.500000
Si Si5 0.604972 0.605602 0.137957
Si Si6 0.062955 0.718159 0.240865
O O1 0.149985 0.500000 0.824582
O O2 0.216057 0.349189 0.790046
O O3 0.107090 0.335898 0.839777
O O4 0.179870 0.391216 0.000000
O O5 0.211160 0.112758 0.384952
O O6 0.169980 0.140856 0.167924
O O7 0.231326 0.000000 0.211515
O O8 0.250000 0.250000 0.500000
O O9 0.370748 0.311916 0.500000
O O10 0.072454 0.301417 0.619729
O O11 0.000000 0.196984 0.500000
O O12 0.594806 0.500000 0.177326
O O13 0.564037 0.672627 0.213695
O O14 0.592251 0.617008 0.000000
O O15 0.000000 0.681189 0.204137
#
# Coordination Sequence:
#
# PCOD8273493 Si02
#       6
#    16  16   8   8  16  16
#     4  10  22  40  62  90 124 161 201 250 311 371
#     4  10  21  37  58  86 121 155 196 251 307 365
#     4  12  21  35  62  90 120 157 207 259 306 360
#     4  10  22  41  61  85 125 166 205 254 310 372
#     4  10  21  37  59  87 119 155 195 243 301 363
#     4  11  23  41  62  87 119 161 209 254 300 361
#
# _framework density 20.964950000000002
#
# number of rings (size 3 to 8) (size 9 to 14) (size 15 to 20)
#    0.000    1.600    2.000    2.700    0.000    4.800 
#    0.000    6.000    0.000    4.800    0.000    0.000 
#    0.000    0.000    0.000    0.000    0.000    0.000 
#
# Total GULP energy -495523.845111 kJ/mol
# GULP energy per Si atom -12388.096128 kJ/mol
# Density = 2.091723 g / cm^3
# Si number density = 20.964950 Si / 1000 Ang^3
#
#
#
# Elastic Constant Matrix: (Units=GPa)
#
#
# Indices 1 2 3 4 5 6 
#
# 1 142.3785 20.2966 34.7706 0.0000 0.0000 0.0000
# 2 20.2966 38.4614 14.5332 0.0000 0.0000 0.0000
# 3 34.7706 14.5332 91.9167 0.0000 0.0000 0.0000
# 4 0.0000 0.0000 0.0000 25.4383 0.0000 0.0000
# 5 0.0000 0.0000 0.0000 0.0000 13.0391 0.0000
# 6 0.0000 0.0000 0.0000 0.0000 0.0000 19.0611
#
#
#
# Elastic Compliance Matrix: (Units=1/GPa)
#
#
# Indices 1 2 3 4 5 6 
#
# 1 0.008119 -0.003322 -0.002546 0.000000 0.000000 0.000000
# 2 -0.003322 0.029012 -0.003330 0.000000 0.000000 0.000000
# 3 -0.002546 -0.003330 0.012369 0.000000 0.000000 0.000000
# 4 0.000000 0.000000 0.000000 0.039311 0.000000 0.000000
# 5 0.000000 0.000000 0.000000 0.000000 0.076692 0.000000
# 6 0.000000 0.000000 0.000000 0.000000 0.000000 0.052463
#
#
# Mechanical properties :
#
#
# Convention : Reuss Voigt Hill
#
# Bulk Modulus (GPa) = 32.15187 45.77306 38.96246
# Shear Modulus (GPa) = 20.26502 25.05145 22.65824
#
# Velocity S-wave (km/s) = 3.11241 3.46051 3.29107
# Velocity P-wave (km/s) = 5.31841 6.15202 5.75034
#
# Compressibility (1/GPa) = 0.03110239
#
# Stress axis : x y z
#
# Youngs Moduli (GPa) = 123.16931 34.46873 80.84685
#
# Poissons Ratio (x) = 0.11452 0.20583
# Poissons Ratio (y) = 0.40922 0.26925
# Poissons Ratio (z) = 0.31358 0.11479
#
# Static dielectric constant tensor:
#      x y z
#    x 4.190500 0.000000 0.000000 
#    y 0.000000 3.583090 0.000000 
#    z 0.000000 0.000000 3.862020 
# 
# 
# High freq. dielectric constant tensor:
#      x y z
#    x 1.839860 0.000000 0.000000 
#    y 0.000000 1.791640 0.000000 
#    z 0.000000 0.000000 1.832210 
# 
# From -- ./inp_files/30420.got.cif
#   From: 2010.03.12/outbox.cif.g09.slc.cpg/sg65_16_cif.got.tgz:30420.got - 2010.04.10 20:52:16.
