data_PCOD8273480
_publ_section_title
;
Structure prediction by ZEFSAII (Michael W. Deem and Ramdas Pophale) SiO2 
 PCOD8273480
Probable space group: C M M M
;
_chemical_formula_sum "Si O2"
_cell_formula_units_Z 64
_cell_length_a 7.839969
_cell_length_b 14.876260
_cell_length_c 27.819478
_cell_angle_alpha 90.000000
_cell_angle_beta 90.000000
_cell_angle_gamma 90.000000
_cell_volume 3244.569507
_symmetry_space_group_name_H-M "C M M M"
_symmetry_group_IT_number 65
_symmetry_cell_setting 'orthorhombic'
loop_
_space_group_symop_operation_xyz
x,y,z
-x,-y,z
x,-y,-z
-x,y,-z
-x,-y,-z
x,y,-z
-x,y,z
x,-y,z
1/2+x,1/2+y,z
1/2-x,1/2-y,z
1/2+x,1/2-y,-z
1/2-x,1/2+y,-z
1/2-x,1/2-y,-z
1/2+x,1/2+y,-z
1/2-x,1/2+y,z
1/2+x,1/2-y,z
loop_
_atom_site_type_symbol
_atom_site_label
_atom_site_fract_x
_atom_site_fract_y
_atom_site_fract_z
Si Si1 0.500000 0.605874 0.554149
Si Si2 0.196171 0.853024 0.127330
Si Si3 0.195929 0.000000 0.196389
Si Si4 0.701147 0.000000 0.945842
Si Si5 0.696568 0.000000 0.303181
Si Si6 0.799337 0.653984 0.623634
O O1 0.500000 0.500000 0.555251
O O2 0.500000 0.643546 0.500000
O O3 0.675841 0.639315 0.578155
O O4 0.250000 0.750000 0.123851
O O5 0.234441 0.908163 0.078835
O O6 0.000000 0.848168 0.137252
O O7 0.279614 0.909894 0.172211
O O8 0.204268 0.000000 0.253578
O O9 0.000000 0.000000 0.180899
O O10 0.500000 0.000000 0.944923
O O11 0.772517 0.000000 0.000000
O O12 0.748395 0.914077 0.334257
O O13 0.500000 0.000000 0.289856
O O14 0.750000 0.750000 0.645573
O O15 0.000000 0.645908 0.608495
#
# Coordination Sequence:
#
# PCOD8273480 Si02
#       6
#     8  16   8   8   8  16
#     4  11  24  42  66  91 119 163 201 242 304 355
#     4  10  21  38  58  85 118 154 196 244 296 348
#     4   9  21  37  58  84 112 153 194 241 295 351
#     4  10  21  37  58  85 115 155 200 243 298 351
#     4  10  23  39  60  87 118 154 197 242 295 352
#     4  11  23  41  62  90 123 158 200 247 297 357
#
# _framework density 19.725268
#
# number of rings (size 3 to 8) (size 9 to 14) (size 15 to 20)
#    0.000    1.750    2.500    1.875    1.750    6.500 
#    0.000    6.250    0.000    0.000    0.000    0.000 
#    0.000    0.000    0.000    0.000    0.000    0.000 
#
# Total GULP energy -396550.643393 kJ/mol
# GULP energy per Si atom -12392.207606 kJ/mol
# Density = 1.968037 g / cm^3
# Si number density = 19.725268 Si / 1000 Ang^3
#
#
#
# Elastic Constant Matrix: (Units=GPa)
#
#
# Indices 1 2 3 4 5 6 
#
# 1 76.9546 37.9682 39.3373 0.0000 0.0000 0.0000
# 2 37.9682 199.8965 87.7845 0.0000 0.0000 0.0000
# 3 39.3373 87.7845 155.8308 0.0000 0.0000 0.0000
# 4 0.0000 0.0000 0.0000 24.3319 0.0000 0.0000
# 5 0.0000 0.0000 0.0000 0.0000 25.2404 0.0000
# 6 0.0000 0.0000 0.0000 0.0000 0.0000 26.6738
#
#
#
# Elastic Compliance Matrix: (Units=1/GPa)
#
#
# Indices 1 2 3 4 5 6 
#
# 1 0.015299 -0.001608 -0.002956 0.000000 0.000000 0.000000
# 2 -0.001608 0.006816 -0.003434 0.000000 0.000000 0.000000
# 3 -0.002956 -0.003434 0.009098 0.000000 0.000000 0.000000
# 4 0.000000 0.000000 0.000000 0.041098 0.000000 0.000000
# 5 0.000000 0.000000 0.000000 0.000000 0.039619 0.000000
# 6 0.000000 0.000000 0.000000 0.000000 0.000000 0.037490
#
#
# Mechanical properties :
#
#
# Convention : Reuss Voigt Hill
#
# Bulk Modulus (GPa) = 65.71497 84.76245 75.23871
# Shear Modulus (GPa) = 29.32752 33.08867 31.20810
#
# Velocity S-wave (km/s) = 3.86009 4.10014 3.98193
# Velocity P-wave (km/s) = 7.29757 8.09195 7.70500
#
# Compressibility (1/GPa) = 0.01521723
#
# Stress axis : x y z
#
# Youngs Moduli (GPa) = 65.36341 146.71623 109.91561
#
# Poissons Ratio (x) = 0.23586 0.32496
# Poissons Ratio (y) = 0.10508 0.37743
# Poissons Ratio (z) = 0.19324 0.50379
#
# Static dielectric constant tensor:
#      x y z
#    x 3.666210 0.000000 0.000000 
#    y 0.000000 4.034410 0.000000 
#    z 0.000000 0.000000 3.571050 
# 
# 
# High freq. dielectric constant tensor:
#      x y z
#    x 1.775790 0.000000 0.000000 
#    y 0.000000 1.785030 0.000000 
#    z 0.000000 0.000000 1.759280 
# 
# From -- ./inp_files/72423.got.cif
#   From: 2010.03.12/outbox.cif.g09.slc.cpg/sg65_37_cif.got.tgz:72423.got - 2010.04.10 20:52:16.
