data_PCOD8273386
_publ_section_title
;
Structure prediction by ZEFSAII (Michael W. Deem and Ramdas Pophale) SiO2 
 PCOD8273386
Probable space group: C M M M
;
_chemical_formula_sum "Si O2"
_cell_formula_units_Z 88
_cell_length_a 18.015349
_cell_length_b 9.021912
_cell_length_c 27.929994
_cell_angle_alpha 90.000000
_cell_angle_beta 90.000000
_cell_angle_gamma 90.000000
_cell_volume 4539.542735
_symmetry_space_group_name_H-M "C M M M"
_symmetry_group_IT_number 65
_symmetry_cell_setting 'orthorhombic'
loop_
_space_group_symop_operation_xyz
x,y,z
-x,-y,z
x,-y,-z
-x,y,-z
-x,-y,-z
x,y,-z
-x,y,z
x,-y,z
1/2+x,1/2+y,z
1/2-x,1/2-y,z
1/2+x,1/2-y,-z
1/2-x,1/2+y,-z
1/2-x,1/2-y,-z
1/2+x,1/2+y,-z
1/2-x,1/2+y,z
1/2+x,1/2-y,z
loop_
_atom_site_type_symbol
_atom_site_label
_atom_site_fract_x
_atom_site_fract_y
_atom_site_fract_z
Si Si1 0.914590 0.172386 0.866702
Si Si2 0.674117 0.826722 0.944943
Si Si3 0.586851 0.329081 0.322132
Si Si4 0.583348 0.824100 0.500000
Si Si5 0.671957 0.673310 0.773451
Si Si6 0.829624 0.675665 0.406602
O O1 0.893257 0.264017 0.913811
O O2 0.866507 0.230751 0.821973
O O3 0.000000 0.202496 0.854575
O O4 0.899906 0.000000 0.876752
O O5 0.750000 0.750000 0.928049
O O6 0.682927 0.000000 0.936195
O O7 0.656394 0.789113 0.000000
O O8 0.500000 0.296732 0.321793
O O9 0.604130 0.500000 0.334891
O O10 0.618078 0.286942 0.270246
O O11 0.624602 0.222386 0.360302
O O12 0.500000 0.757528 0.500000
O O13 0.626433 0.766871 0.453246
O O14 0.579332 0.000000 0.500000
O O15 0.686307 0.500000 0.776676
O O16 0.750000 0.750000 0.765239
O O17 0.819676 0.500000 0.406823
O O18 0.750000 0.750000 0.405926
#
# Coordination Sequence:
#
# PCOD8273386 Si02
#       6
#    16  16  16   8  16  16
#     4  10  21  37  57  81 110 145 184 225 271 324
#     4  10  21  37  57  81 110 144 182 225 273 325
#     4  10  21  38  59  83 113 147 183 226 276 328
#     4   9  19  36  57  81 110 145 184 229 280 328
#     4  10  21  37  57  81 110 145 183 224 272 324
#     4  11  22  37  58  83 113 148 187 229 274 327
#
# _framework density 19.385211999999999
#
# number of rings (size 3 to 8) (size 9 to 14) (size 15 to 20)
#    0.000    1.909    0.000    3.545    0.000    9.455 
#    0.000    3.182    0.000    6.545    0.000    0.000 
#    0.000    0.000    0.000    0.000    0.000    0.000 
#
# Total GULP energy -545824.919998 kJ/mol
# GULP energy per Si atom -12405.111818 kJ/mol
# Density = 1.934109 g / cm^3
# Si number density = 19.385212 Si / 1000 Ang^3
#
#
#
# Elastic Constant Matrix: (Units=GPa)
#
#
# Indices 1 2 3 4 5 6 
#
# 1 141.1506 47.2230 63.9497 0.0000 0.0000 0.0000
# 2 47.2230 62.3630 48.5834 0.0000 0.0000 0.0000
# 3 63.9497 48.5834 123.4254 0.0000 0.0000 0.0000
# 4 0.0000 0.0000 0.0000 30.6408 0.0000 0.0000
# 5 0.0000 0.0000 0.0000 0.0000 41.9348 0.0000
# 6 0.0000 0.0000 0.0000 0.0000 0.0000 22.2284
#
#
#
# Elastic Compliance Matrix: (Units=1/GPa)
#
#
# Indices 1 2 3 4 5 6 
#
# 1 0.010334 -0.005270 -0.003280 0.000000 0.000000 0.000000
# 2 -0.005270 0.025815 -0.007431 0.000000 0.000000 0.000000
# 3 -0.003280 -0.007431 0.012726 0.000000 0.000000 0.000000
# 4 0.000000 0.000000 0.000000 0.032636 0.000000 0.000000
# 5 0.000000 0.000000 0.000000 0.000000 0.023847 0.000000
# 6 0.000000 0.000000 0.000000 0.000000 0.000000 0.044988
#
#
# Mechanical properties :
#
#
# Convention : Reuss Voigt Hill
#
# Bulk Modulus (GPa) = 59.12381 71.82793 65.47587
# Shear Modulus (GPa) = 26.60371 30.10631 28.35501
#
# Velocity S-wave (km/s) = 3.70857 3.94516 3.82869
# Velocity P-wave (km/s) = 6.99312 7.60827 7.30717
#
# Compressibility (1/GPa) = 0.01691366
#
# Stress axis : x y z
#
# Youngs Moduli (GPa) = 96.77140 38.73778 78.57705
#
# Poissons Ratio (x) = 0.20414 0.25771
# Poissons Ratio (y) = 0.50997 0.58389
# Poissons Ratio (z) = 0.31739 0.28785
#
# Static dielectric constant tensor:
#      x y z
#    x 3.610910 0.000000 0.000000 
#    y 0.000000 3.431490 0.000000 
#    z 0.000000 0.000000 3.726950 
# 
# 
# High freq. dielectric constant tensor:
#      x y z
#    x 1.766620 0.000000 0.000000 
#    y 0.000000 1.742760 0.000000 
#    z 0.000000 0.000000 1.769290 
# 
# From -- ./inp_files/77924.got.cif
#   From: 2010.03.12/outbox.cif.g09.slc.cpg/sg65_39_cif.got.tgz:77924.got - 2010.04.10 20:52:16.
