data_PCOD8273006
_publ_section_title
;
Structure prediction by ZEFSAII (Michael W. Deem and Ramdas Pophale) SiO2 
 PCOD8273006
Probable space group: C M M M
;
_chemical_formula_sum "Si O2"
_cell_formula_units_Z 104
_cell_length_a 9.090493
_cell_length_b 19.653564
_cell_length_c 32.596296
_cell_angle_alpha 90.000000
_cell_angle_beta 90.000000
_cell_angle_gamma 90.000000
_cell_volume 5823.673344
_symmetry_space_group_name_H-M "C M M M"
_symmetry_group_IT_number 65
_symmetry_cell_setting 'orthorhombic'
loop_
_space_group_symop_operation_xyz
x,y,z
-x,-y,z
x,-y,-z
-x,y,-z
-x,-y,-z
x,y,-z
-x,y,z
x,-y,z
1/2+x,1/2+y,z
1/2-x,1/2-y,z
1/2+x,1/2-y,-z
1/2-x,1/2+y,-z
1/2-x,1/2-y,-z
1/2+x,1/2+y,-z
1/2-x,1/2+y,z
1/2+x,1/2-y,z
loop_
_atom_site_type_symbol
_atom_site_label
_atom_site_fract_x
_atom_site_fract_y
_atom_site_fract_z
Si Si1 0.329521 0.079649 0.256806
Si Si2 0.672722 0.322386 0.588741
Si Si3 0.827366 0.819107 0.197807
Si Si4 0.829398 0.182137 0.897247
Si Si5 0.831869 0.579180 0.953279
Si Si6 0.669639 0.679951 0.500000
Si Si7 0.171629 0.921807 0.339987
O O1 0.500000 0.100374 0.255461
O O2 0.241298 0.117506 0.221369
O O3 0.263958 0.101295 0.300592
O O4 0.306507 0.000000 0.249091
O O5 0.500000 0.309783 0.593616
O O6 0.750000 0.250000 0.595381
O O7 0.709444 0.356069 0.543550
O O8 0.728353 0.376179 0.622266
O O9 0.750000 0.750000 0.213063
O O10 0.793501 0.831894 0.150161
O O11 0.000000 0.813736 0.206967
O O12 0.750000 0.250000 0.912994
O O13 0.775693 0.118261 0.923093
O O14 0.000000 0.192971 0.904963
O O15 0.799014 0.500000 0.947609
O O16 0.000000 0.595733 0.941670
O O17 0.800163 0.601308 0.000000
O O18 0.500000 0.697737 0.500000
O O19 0.750000 0.750000 0.500000
O O20 0.000000 0.910247 0.330529
O O21 0.203418 0.000000 0.351435
#
# Coordination Sequence:
#
# PCOD8273006 Si02
#       7
#    16  16  16  16  16   8  16
#     4  10  21  36  54  76 101 132 170 208 249 300
#     4   9  17  29  47  70  94 123 159 198 241 289
#     4  10  21  37  56  78 105 135 168 209 255 302
#     4  10  21  36  55  79 106 137 172 210 254 303
#     4   9  19  36  56  78 106 140 176 214 256 300
#     4   8  14  26  43  65  93 121 153 194 238 286
#     4   9  18  33  50  68  95 130 164 200 245 294
#
# _framework density 17.858143999999999
#
# number of rings (size 3 to 8) (size 9 to 14) (size 15 to 20)
#    0.000    2.615    0.000    1.846    0.000    5.538 
#    0.000    5.769    0.000    2.308    0.000    0.000 
#    0.000    8.615    0.000    0.000    0.000    0.000 
#
# Total GULP energy -644682.273266 kJ/mol
# GULP energy per Si atom -12397.736024 kJ/mol
# Density = 1.781750 g / cm^3
# Si number density = 17.858144 Si / 1000 Ang^3
#
#
#
# Elastic Constant Matrix: (Units=GPa)
#
#
# Indices 1 2 3 4 5 6 
#
# 1 80.5597 45.2433 58.9732 0.0000 0.0000 0.0000
# 2 45.2433 76.7552 63.8501 0.0000 0.0000 0.0000
# 3 58.9732 63.8501 107.7499 0.0000 0.0000 0.0000
# 4 0.0000 0.0000 0.0000 33.6120 0.0000 0.0000
# 5 0.0000 0.0000 0.0000 0.0000 27.4247 0.0000
# 6 0.0000 0.0000 0.0000 0.0000 0.0000 32.2485
#
#
#
# Elastic Compliance Matrix: (Units=1/GPa)
#
#
# Indices 1 2 3 4 5 6 
#
# 1 0.021950 -0.005807 -0.008572 0.000000 0.000000 0.000000
# 2 -0.005807 0.027231 -0.012958 0.000000 0.000000 0.000000
# 3 -0.008572 -0.012958 0.021651 0.000000 0.000000 0.000000
# 4 0.000000 0.000000 0.000000 0.029751 0.000000 0.000000
# 5 0.000000 0.000000 0.000000 0.000000 0.036463 0.000000
# 6 0.000000 0.000000 0.000000 0.000000 0.000000 0.031009
#
#
# Mechanical properties :
#
#
# Convention : Reuss Voigt Hill
#
# Bulk Modulus (GPa) = 61.89367 66.79980 64.34673
# Shear Modulus (GPa) = 21.91866 25.12358 23.52112
#
# Velocity S-wave (km/s) = 3.50719 3.75486 3.63314
# Velocity P-wave (km/s) = 7.15082 7.50237 7.32871
#
# Compressibility (1/GPa) = 0.01615674
#
# Stress axis : x y z
#
# Youngs Moduli (GPa) = 45.55835 36.72306 46.18734
#
# Poissons Ratio (x) = 0.21327 0.39592
# Poissons Ratio (y) = 0.26458 0.59849
# Poissons Ratio (z) = 0.39053 0.47585
#
# Static dielectric constant tensor:
#      x y z
#    x 3.292070 0.000000 0.000000 
#    y 0.000000 3.164700 0.000000 
#    z 0.000000 0.000000 3.600840 
# 
# 
# High freq. dielectric constant tensor:
#      x y z
#    x 1.695880 0.000000 0.000000 
#    y 0.000000 1.678160 0.000000 
#    z 0.000000 0.000000 1.700500 
# 
# From -- ./inp_files/75484.got.cif
#   From: 2010.03.12/outbox.cif.g09.slc.cpg/sg65_38_cif.got.tgz:75484.got - 2010.04.10 20:52:16.
