data_PCOD8273885
_publ_section_title
;
Structure prediction by ZEFSAII (Michael W. Deem and Ramdas Pophale) SiO2 
 PCOD8273885
Probable space group: C M M M
;
_chemical_formula_sum "Si O2"
_cell_formula_units_Z 96
_cell_length_a 19.167890
_cell_length_b 14.993011
_cell_length_c 15.827488
_cell_angle_alpha 90.000000
_cell_angle_beta 90.000000
_cell_angle_gamma 90.000000
_cell_volume 4548.572915
_symmetry_space_group_name_H-M "C M M M"
_symmetry_group_IT_number 65
_symmetry_cell_setting 'orthorhombic'
loop_
_space_group_symop_operation_xyz
x,y,z
-x,-y,z
x,-y,-z
-x,y,-z
-x,-y,-z
x,y,-z
-x,y,z
x,-y,z
1/2+x,1/2+y,z
1/2-x,1/2-y,z
1/2+x,1/2-y,-z
1/2-x,1/2+y,-z
1/2-x,1/2-y,-z
1/2+x,1/2+y,-z
1/2-x,1/2+y,z
1/2+x,1/2-y,z
loop_
_atom_site_type_symbol
_atom_site_label
_atom_site_fract_x
_atom_site_fract_y
_atom_site_fract_z
Si Si1 0.264551 0.853356 0.404288
Si Si2 0.000000 0.594897 0.696873
Si Si3 0.500000 0.727887 0.407180
Si Si4 0.648754 0.901705 0.758124
Si Si5 0.582537 0.602563 0.844536
Si Si6 0.330853 0.765712 0.091155
Si Si7 0.885022 0.902307 0.652499
O O1 0.287998 0.881524 0.500000
O O2 0.250000 0.750000 0.400740
O O3 0.323775 0.875206 0.335440
O O4 0.193799 0.903527 0.380043
O O5 0.934047 0.596218 0.757593
O O6 0.000000 0.500000 0.644974
O O7 0.000000 0.682595 0.643404
O O8 0.500000 0.764654 0.500000
O O9 0.430381 0.671240 0.394120
O O10 0.665235 0.832284 0.830766
O O11 0.678901 0.000000 0.780992
O O12 0.500000 0.624561 0.847084
O O13 0.595336 0.500000 0.875203
O O14 0.625474 0.673604 0.899241
O O15 0.612460 0.616987 0.751388
O O16 0.250000 0.750000 0.083280
O O17 0.355969 0.805985 0.000000
O O18 0.917203 0.000000 0.634021
#
# Coordination Sequence:
#
# PCOD8273885 Si02
#       7
#    16   8   8  16  16  16  16
#     4  11  23  39  62  93 130 174 223 273 328 389
#     4  10  24  44  64  86 113 153 215 278 327 380
#     4  12  23  35  56  86 123 165 208 261 324 384
#     4  11  24  43  66  91 124 171 221 272 327 385
#     4  10  21  40  68  99 132 175 222 270 334 406
#     4  11  25  43  66  99 135 172 214 267 332 400
#     4  11  22  37  59  91 129 170 212 258 316 387
#
# _framework density 21.105522000000001
#
# number of rings (size 3 to 8) (size 9 to 14) (size 15 to 20)
#    0.000    1.167    0.833    5.750    1.167    7.833 
#    0.000    4.167    0.000    1.500    0.000    0.000 
#    0.000    0.000    0.000    0.000    0.000    0.000 
#
# Total GULP energy -594835.500417 kJ/mol
# GULP energy per Si atom -12392.406259 kJ/mol
# Density = 2.105749 g / cm^3
# Si number density = 21.105522 Si / 1000 Ang^3
#
#
#
# Elastic Constant Matrix: (Units=GPa)
#
#
# Indices 1 2 3 4 5 6 
#
# 1 91.9374 24.5957 43.7306 0.0000 0.0000 0.0000
# 2 24.5957 117.0522 58.4553 0.0000 0.0000 0.0000
# 3 43.7306 58.4553 141.5357 0.0000 0.0000 0.0000
# 4 0.0000 0.0000 0.0000 8.6214 0.0000 0.0000
# 5 0.0000 0.0000 0.0000 0.0000 22.1082 0.0000
# 6 0.0000 0.0000 0.0000 0.0000 0.0000 31.2115
#
#
#
# Elastic Compliance Matrix: (Units=1/GPa)
#
#
# Indices 1 2 3 4 5 6 
#
# 1 0.012826 -0.000902 -0.003590 0.000000 0.000000 0.000000
# 2 -0.000902 0.010827 -0.004193 0.000000 0.000000 0.000000
# 3 -0.003590 -0.004193 0.009906 0.000000 0.000000 0.000000
# 4 0.000000 0.000000 0.000000 0.115990 0.000000 0.000000
# 5 0.000000 0.000000 0.000000 0.000000 0.045232 0.000000
# 6 0.000000 0.000000 0.000000 0.000000 0.000000 0.032039
#
#
# Mechanical properties :
#
#
# Convention : Reuss Voigt Hill
#
# Bulk Modulus (GPa) = 61.77176 67.12094 64.44635
# Shear Modulus (GPa) = 20.03310 27.30447 23.66878
#
# Velocity S-wave (km/s) = 3.08423 3.60072 3.35244
# Velocity P-wave (km/s) = 6.48189 7.01131 6.75179
#
# Compressibility (1/GPa) = 0.01618863
#
# Stress axis : x y z
#
# Youngs Moduli (GPa) = 77.96629 92.36523 100.94595
#
# Poissons Ratio (x) = 0.08332 0.36243
# Poissons Ratio (y) = 0.07033 0.42324
# Poissons Ratio (z) = 0.27992 0.38726
#
# Static dielectric constant tensor:
#      x y z
#    x 4.094850 0.000000 0.000000 
#    y 0.000000 3.853450 0.000000 
#    z 0.000000 0.000000 4.086210 
# 
# 
# High freq. dielectric constant tensor:
#      x y z
#    x 1.834840 0.000000 0.000000 
#    y 0.000000 1.842240 0.000000 
#    z 0.000000 0.000000 1.820390 
# 
# From -- ./inp_files/44171.got.cif
#   From: 2010.03.12/outbox.cif.g09.slc.cpg/sg65_23_cif.got.tgz:44171.got - 2010.04.10 20:52:16.
