data_PCOD8273693
_publ_section_title
;
Structure prediction by ZEFSAII (Michael W. Deem and Ramdas Pophale) SiO2 
 PCOD8273693
Probable space group: C M M M
;
_chemical_formula_sum "Si O2"
_cell_formula_units_Z 104
_cell_length_a 20.610505
_cell_length_b 29.114687
_cell_length_c 9.035810
_cell_angle_alpha 90.000000
_cell_angle_beta 90.000000
_cell_angle_gamma 90.000000
_cell_volume 5422.104067
_symmetry_space_group_name_H-M "C M M M"
_symmetry_group_IT_number 65
_symmetry_cell_setting 'orthorhombic'
loop_
_space_group_symop_operation_xyz
x,y,z
-x,-y,z
x,-y,-z
-x,y,-z
-x,-y,-z
x,y,-z
-x,y,z
x,-y,z
1/2+x,1/2+y,z
1/2-x,1/2-y,z
1/2+x,1/2-y,-z
1/2-x,1/2+y,-z
1/2-x,1/2-y,-z
1/2+x,1/2+y,-z
1/2-x,1/2+y,z
1/2+x,1/2-y,z
loop_
_atom_site_type_symbol
_atom_site_label
_atom_site_fract_x
_atom_site_fract_y
_atom_site_fract_z
Si Si1 0.926899 0.218332 0.172259
Si Si2 0.683719 0.772416 0.670426
Si Si3 0.781184 0.625450 0.329374
Si Si4 0.500000 0.054426 0.333586
Si Si5 0.869861 0.446654 0.174225
Si Si6 0.425082 0.552414 0.666364
Si Si7 0.351733 0.627232 0.170635
O O1 0.879818 0.254233 0.249466
O O2 0.903917 0.166654 0.203596
O O3 0.000000 0.223620 0.234895
O O4 0.925297 0.229584 0.000000
O O5 0.679761 0.757827 0.500000
O O6 0.750000 0.750000 0.737812
O O7 0.680138 0.827179 0.691378
O O8 0.779456 0.610121 0.500000
O O9 0.811463 0.584029 0.235316
O O10 0.709478 0.636078 0.273595
O O11 0.500000 0.074668 0.500000
O O12 0.563919 0.071579 0.248713
O O13 0.500000 0.000000 0.336749
O O14 0.856278 0.500000 0.213674
O O15 0.876411 0.439766 0.000000
O O16 0.412575 0.571212 0.500000
O O17 0.500000 0.557240 0.708244
O O18 0.402540 0.500000 0.675416
O O19 0.383656 0.579095 0.787292
O O20 0.330021 0.626248 0.000000
#
# Coordination Sequence:
#
# PCOD8273693 Si02
#       7
#    16  16  16   8  16  16  16
#     4  10  22  39  60  88 119 151 191 238 288 347
#     4  10  21  40  63  87 116 151 194 242 290 343
#     4  11  23  39  60  85 115 151 193 238 288 346
#     4   9  17  33  59  87 115 151 193 235 285 343
#     4  10  21  38  60  87 119 153 193 240 289 345
#     4   9  19  36  56  79 110 149 192 236 283 336
#     4  11  22  36  57  84 115 150 191 237 287 343
#
# _framework density 19.180745999999999
#
# number of rings (size 3 to 8) (size 9 to 14) (size 15 to 20)
#    0.000    1.923    1.538    2.538    0.000    6.154 
#    1.385    0.769    0.000    0.000    0.000    0.000 
#    0.000    0.000    0.000    0.000    0.000    0.000 
#
# Total GULP energy -644944.359473 kJ/mol
# GULP energy per Si atom -12402.776144 kJ/mol
# Density = 1.913709 g / cm^3
# Si number density = 19.180746 Si / 1000 Ang^3
#
#
#
# Elastic Constant Matrix: (Units=GPa)
#
#
# Indices 1 2 3 4 5 6 
#
# 1 131.2219 49.2588 51.9020 0.0000 0.0000 0.0000
# 2 49.2588 79.0878 49.4360 0.0000 0.0000 0.0000
# 3 51.9020 49.4360 87.4948 0.0000 0.0000 0.0000
# 4 0.0000 0.0000 0.0000 32.3408 0.0000 0.0000
# 5 0.0000 0.0000 0.0000 0.0000 39.1643 0.0000
# 6 0.0000 0.0000 0.0000 0.0000 0.0000 32.5414
#
#
#
# Elastic Compliance Matrix: (Units=1/GPa)
#
#
# Indices 1 2 3 4 5 6 
#
# 1 0.010791 -0.004205 -0.004026 0.000000 0.000000 0.000000
# 2 -0.004205 0.021187 -0.009476 0.000000 0.000000 0.000000
# 3 -0.004026 -0.009476 0.019172 0.000000 0.000000 0.000000
# 4 0.000000 0.000000 0.000000 0.030921 0.000000 0.000000
# 5 0.000000 0.000000 0.000000 0.000000 0.025533 0.000000
# 6 0.000000 0.000000 0.000000 0.000000 0.000000 0.030730
#
#
# Mechanical properties :
#
#
# Convention : Reuss Voigt Hill
#
# Bulk Modulus (GPa) = 63.54988 66.55535 65.05262
# Shear Modulus (GPa) = 27.93405 30.62316 29.27860
#
# Velocity S-wave (km/s) = 3.82037 4.00003 3.91123
# Velocity P-wave (km/s) = 7.25702 7.49053 7.37470
#
# Compressibility (1/GPa) = 0.01573567
#
# Stress axis : x y z
#
# Youngs Moduli (GPa) = 92.66636 47.19945 52.16063
#
# Poissons Ratio (x) = 0.19847 0.20998
# Poissons Ratio (y) = 0.38966 0.49430
# Poissons Ratio (z) = 0.37304 0.44728
#
# Static dielectric constant tensor:
#      x y z
#    x 3.518680 0.000000 0.000000 
#    y 0.000000 3.410510 0.000000 
#    z 0.000000 0.000000 3.531240 
# 
# 
# High freq. dielectric constant tensor:
#      x y z
#    x 1.748040 0.000000 0.000000 
#    y 0.000000 1.740660 0.000000 
#    z 0.000000 0.000000 1.749480 
# 
# From -- ./inp_files/12393.got.cif
#   From: 2010.03.12/outbox.cif.g09.slc.cpg/sg65_7_cif.got.tgz:12393.got - 2010.04.10 20:52:16.
