data_PCOD8273679
_publ_section_title
;
Structure prediction by ZEFSAII (Michael W. Deem and Ramdas Pophale) SiO2 
 PCOD8273679
Probable space group: C M M M
;
_chemical_formula_sum "Si O2"
_cell_formula_units_Z 88
_cell_length_a 21.124162
_cell_length_b 8.673350
_cell_length_c 25.214415
_cell_angle_alpha 90.000000
_cell_angle_beta 90.000000
_cell_angle_gamma 90.000000
_cell_volume 4619.715789
_symmetry_space_group_name_H-M "C M M M"
_symmetry_group_IT_number 65
_symmetry_cell_setting 'orthorhombic'
loop_
_space_group_symop_operation_xyz
x,y,z
-x,-y,z
x,-y,-z
-x,y,-z
-x,-y,-z
x,y,-z
-x,y,z
x,-y,z
1/2+x,1/2+y,z
1/2-x,1/2-y,z
1/2+x,1/2-y,-z
1/2-x,1/2+y,-z
1/2-x,1/2-y,-z
1/2+x,1/2+y,-z
1/2-x,1/2+y,z
1/2+x,1/2-y,z
loop_
_atom_site_type_symbol
_atom_site_label
_atom_site_fract_x
_atom_site_fract_y
_atom_site_fract_z
Si Si1 0.129859 0.181094 0.894331
Si Si2 0.927203 0.181181 0.284292
Si Si3 0.317631 0.816444 0.000000
Si Si4 0.000000 0.179289 0.939551
Si Si5 0.818217 0.681518 0.211057
Si Si6 0.074702 0.671456 0.393898
Si Si7 0.575653 0.673512 0.500000
O O1 0.151708 0.241639 0.949822
O O2 0.056148 0.222800 0.899147
O O3 0.166387 0.273274 0.849030
O O4 0.143156 0.000000 0.886061
O O5 0.877025 0.260435 0.245880
O O6 0.907021 0.222424 0.344147
O O7 0.000000 0.236617 0.272856
O O8 0.922408 0.000000 0.275824
O O9 0.250000 0.750000 0.000000
O O10 0.321888 0.000000 0.000000
O O11 0.000000 0.000000 0.951954
O O12 0.000000 0.257150 0.000000
O O13 0.813034 0.500000 0.216763
O O14 0.750000 0.750000 0.228679
O O15 0.102723 0.500000 0.385476
O O16 0.103303 0.743012 0.447740
O O17 0.000000 0.663152 0.400171
O O18 0.601220 0.500000 0.500000
O O19 0.500000 0.676034 0.500000
#
# Coordination Sequence:
#
# PCOD8273679 Si02
#       7
#    16  16   8   8  16  16   8
#     4  11  22  40  63  87 115 149 187 231 281 341
#     4  10  21  38  60  86 117 155 196 240 294 353
#     4  12  24  39  58  83 111 146 184 230 283 339
#     4   9  18  36  62  90 116 148 182 217 272 339
#     4  12  26  44  63  87 117 152 196 245 294 347
#     4   9  16  27  45  73 110 150 192 240 291 343
#     4   9  15  23  39  67 106 151 194 237 288 347
#
# _framework density 19.04879
#
# number of rings (size 3 to 8) (size 9 to 14) (size 15 to 20)
#    0.000    1.636    0.909    4.909    1.273    4.364 
#    0.000    1.818    0.000    0.000    0.000    0.636 
#    0.000    0.000    0.000    0.000    0.000    0.000 
#
# Total GULP energy -545261.636061 kJ/mol
# GULP energy per Si atom -12392.309910 kJ/mol
# Density = 1.900543 g / cm^3
# Si number density = 19.048790 Si / 1000 Ang^3
#
#
#
# Elastic Constant Matrix: (Units=GPa)
#
#
# Indices 1 2 3 4 5 6 
#
# 1 102.3105 49.1477 45.2339 0.0000 0.0000 0.0000
# 2 49.1477 103.5255 39.3926 0.0000 0.0000 0.0000
# 3 45.2339 39.3926 120.0724 0.0000 0.0000 0.0000
# 4 0.0000 0.0000 0.0000 40.3742 0.0000 0.0000
# 5 0.0000 0.0000 0.0000 0.0000 27.2487 0.0000
# 6 0.0000 0.0000 0.0000 0.0000 0.0000 21.8619
#
#
#
# Elastic Compliance Matrix: (Units=1/GPa)
#
#
# Indices 1 2 3 4 5 6 
#
# 1 0.013835 -0.005239 -0.003493 0.000000 0.000000 0.000000
# 2 -0.005239 0.013021 -0.002298 0.000000 0.000000 0.000000
# 3 -0.003493 -0.002298 0.010398 0.000000 0.000000 0.000000
# 4 0.000000 0.000000 0.000000 0.024768 0.000000 0.000000
# 5 0.000000 0.000000 0.000000 0.000000 0.036699 0.000000
# 6 0.000000 0.000000 0.000000 0.000000 0.000000 0.045742
#
#
# Mechanical properties :
#
#
# Convention : Reuss Voigt Hill
#
# Bulk Modulus (GPa) = 65.81668 65.93966 65.87817
# Shear Modulus (GPa) = 29.13935 30.70590 29.92263
#
# Velocity S-wave (km/s) = 3.91541 4.01928 3.96768
# Velocity P-wave (km/s) = 7.42073 7.49872 7.45983
#
# Compressibility (1/GPa) = 0.01519372
#
# Stress axis : x y z
#
# Youngs Moduli (GPa) = 72.27881 76.79843 96.16939
#
# Poissons Ratio (x) = 0.40234 0.33595
# Poissons Ratio (y) = 0.37866 0.22102
# Poissons Ratio (z) = 0.25249 0.17650
#
# Static dielectric constant tensor:
#      x y z
#    x 2.653220 0.000000 0.000000 
#    y 0.000000 3.628390 0.000000 
#    z 0.000000 0.000000 3.643140 
# 
# 
# High freq. dielectric constant tensor:
#      x y z
#    x 1.714000 0.000000 0.000000 
#    y 0.000000 1.748010 0.000000 
#    z 0.000000 0.000000 1.749680 
# 
# From -- ./inp_files/71058.got.cif
#   From: 2010.03.12/outbox.cif.g09.slc.cpg/sg65_36_cif.got.tgz:71058.got - 2010.04.10 20:52:16.
