data_PCOD8273065
_publ_section_title
;
Structure prediction by ZEFSAII (Michael W. Deem and Ramdas Pophale) SiO2 
 PCOD8273065
Probable space group: C M M M
;
_chemical_formula_sum "Si O2"
_cell_formula_units_Z 96
_cell_length_a 20.096004
_cell_length_b 27.604677
_cell_length_c 8.874609
_cell_angle_alpha 90.000000
_cell_angle_beta 90.000000
_cell_angle_gamma 90.000000
_cell_volume 4923.133427
_symmetry_space_group_name_H-M "C M M M"
_symmetry_group_IT_number 65
_symmetry_cell_setting 'orthorhombic'
loop_
_space_group_symop_operation_xyz
x,y,z
-x,-y,z
x,-y,-z
-x,y,-z
-x,-y,-z
x,y,-z
-x,y,z
x,-y,z
1/2+x,1/2+y,z
1/2-x,1/2-y,z
1/2+x,1/2-y,-z
1/2-x,1/2+y,-z
1/2-x,1/2-y,-z
1/2+x,1/2+y,-z
1/2-x,1/2+y,z
1/2+x,1/2-y,z
loop_
_atom_site_type_symbol
_atom_site_label
_atom_site_fract_x
_atom_site_fract_y
_atom_site_fract_z
Si Si1 0.307258 0.286926 0.177746
Si Si2 0.800718 0.111500 0.677907
Si Si3 0.814491 0.555711 0.174170
Si Si4 0.926597 0.945991 0.321159
Si Si5 0.075636 0.367864 0.174102
Si Si6 0.076392 0.268528 0.322859
O O1 0.250000 0.250000 0.229409
O O2 0.284765 0.338941 0.237569
O O3 0.378092 0.272254 0.247402
O O4 0.314581 0.288555 0.000000
O O5 0.801066 0.120373 0.500000
O O6 0.745553 0.072022 0.719748
O O7 0.871557 0.091432 0.738308
O O8 0.831134 0.500000 0.207759
O O9 0.879910 0.586168 0.217296
O O10 0.794730 0.563848 0.000000
O O11 0.923307 0.948193 0.500000
O O12 0.000000 0.928443 0.268489
O O13 0.912446 0.000000 0.257270
O O14 0.099506 0.321631 0.269531
O O15 0.000000 0.381979 0.213604
O O16 0.083665 0.353448 0.000000
O O17 0.085495 0.264917 0.500000
O O18 0.000000 0.259000 0.274382
#
# Coordination Sequence:
#
# PCOD8273065 Si02
#       6
#    16  16  16  16  16  16
#     4  11  24  40  57  78 107 144 185 227 273 328
#     4  11  22  35  55  82 109 138 177 225 274 324
#     4  10  21  36  54  78 110 146 182 223 271 323
#     4   8  15  30  52  77 105 136 169 206 250 302
#     4   9  18  34  56  80 107 142 183 224 268 320
#     4  10  21  37  58  84 112 142 179 224 274 329
#
# _framework density 19.499775
#
# number of rings (size 3 to 8) (size 9 to 14) (size 15 to 20)
#    0.000    2.167    0.000    3.500    0.000    9.000 
#    0.000    3.333    0.000    1.500    0.000    9.333 
#    0.000    0.000    0.000    0.000    0.000    0.000 
#
# Total GULP energy -595336.430987 kJ/mol
# GULP energy per Si atom -12402.842312 kJ/mol
# Density = 1.945539 g / cm^3
# Si number density = 19.499775 Si / 1000 Ang^3
#
#
#
# Elastic Constant Matrix: (Units=GPa)
#
#
# Indices 1 2 3 4 5 6 
#
# 1 86.7952 27.0257 25.2157 0.0000 0.0000 0.0000
# 2 27.0257 76.1696 19.2679 0.0000 0.0000 0.0000
# 3 25.2157 19.2679 43.4601 0.0000 0.0000 0.0000
# 4 0.0000 0.0000 0.0000 20.8027 0.0000 0.0000
# 5 0.0000 0.0000 0.0000 0.0000 29.7690 0.0000
# 6 0.0000 0.0000 0.0000 0.0000 0.0000 41.4623
#
#
#
# Elastic Compliance Matrix: (Units=1/GPa)
#
#
# Indices 1 2 3 4 5 6 
#
# 1 0.014609 -0.003423 -0.006958 0.000000 0.000000 0.000000
# 2 -0.003423 0.015589 -0.004925 0.000000 0.000000 0.000000
# 3 -0.006958 -0.004925 0.029231 0.000000 0.000000 0.000000
# 4 0.000000 0.000000 0.000000 0.048071 0.000000 0.000000
# 5 0.000000 0.000000 0.000000 0.000000 0.033592 0.000000
# 6 0.000000 0.000000 0.000000 0.000000 0.000000 0.024118
#
#
# Mechanical properties :
#
#
# Convention : Reuss Voigt Hill
#
# Bulk Modulus (GPa) = 34.70446 38.82705 36.76576
# Shear Modulus (GPa) = 24.33946 27.40119 25.87032
#
# Velocity S-wave (km/s) = 3.53681 3.75267 3.64634
# Velocity P-wave (km/s) = 5.87492 6.22346 6.05170
#
# Compressibility (1/GPa) = 0.02881474
#
# Stress axis : x y z
#
# Youngs Moduli (GPa) = 68.45188 64.14765 34.21084
#
# Poissons Ratio (x) = 0.21959 0.23805
# Poissons Ratio (y) = 0.23432 0.16850
# Poissons Ratio (z) = 0.47632 0.31594
#
# Static dielectric constant tensor:
#      x y z
#    x 3.814010 0.000000 0.000000 
#    y 0.000000 3.568390 0.000000 
#    z 0.000000 0.000000 3.364740 
# 
# 
# High freq. dielectric constant tensor:
#      x y z
#    x 1.771130 0.000000 0.000000 
#    y 0.000000 1.760620 0.000000 
#    z 0.000000 0.000000 1.742300 
# 
# From -- ./inp_files/12232.got.cif
#   From: 2010.03.12/outbox.cif.g09.slc.cpg/sg65_7_cif.got.tgz:12232.got - 2010.04.10 20:52:16.
