data_PCOD8273275
_publ_section_title
;
Structure prediction by ZEFSAII (Michael W. Deem and Ramdas Pophale) SiO2 
 PCOD8273275
Probable space group: C M M M
;
_chemical_formula_sum "Si O2"
_cell_formula_units_Z 64
_cell_length_a 8.764984
_cell_length_b 17.877175
_cell_length_c 20.831103
_cell_angle_alpha 90.000000
_cell_angle_beta 90.000000
_cell_angle_gamma 90.000000
_cell_volume 3264.091206
_symmetry_space_group_name_H-M "C M M M"
_symmetry_group_IT_number 65
_symmetry_cell_setting 'orthorhombic'
loop_
_space_group_symop_operation_xyz
x,y,z
-x,-y,z
x,-y,-z
-x,y,-z
-x,-y,-z
x,y,-z
-x,y,z
x,-y,z
1/2+x,1/2+y,z
1/2-x,1/2-y,z
1/2+x,1/2-y,-z
1/2-x,1/2+y,-z
1/2-x,1/2-y,-z
1/2+x,1/2+y,-z
1/2-x,1/2+y,z
1/2+x,1/2-y,z
loop_
_atom_site_type_symbol
_atom_site_label
_atom_site_fract_x
_atom_site_fract_y
_atom_site_fract_z
Si Si1 0.172829 0.588414 0.500000
Si Si2 0.320346 0.085984 0.264310
Si Si3 0.819639 0.168994 0.617949
Si Si4 0.820487 0.668755 0.861837
Si Si5 0.321010 0.830393 0.000000
O O1 0.171706 0.500000 0.500000
O O2 0.260010 0.614588 0.563011
O O3 0.000000 0.619821 0.500000
O O4 0.500000 0.097469 0.275653
O O5 0.228919 0.136867 0.313615
O O6 0.268954 0.111326 0.193189
O O7 0.273500 0.000000 0.273460
O O8 0.750000 0.250000 0.606768
O O9 0.000000 0.174825 0.614344
O O10 0.750000 0.750000 0.849820
O O11 0.000000 0.680428 0.859201
O O12 0.771326 0.632394 0.931656
O O13 0.250000 0.750000 0.000000
O O14 0.500000 0.821493 0.000000
#
# Coordination Sequence:
#
# PCOD8273275 Si02
#       5
#     8  16  16  16   8
#     4  11  24  43  66  91 121 153 182 219 270 323
#     4  10  21  37  55  78 111 148 185 228 280 333
#     4  12  25  41  62  87 115 147 187 231 273 322
#     4   9  17  30  50  75 103 138 180 227 276 327
#     4   8  14  26  45  71 101 133 175 224 273 324
#
# _framework density 19.607294
#
# number of rings (size 3 to 8) (size 9 to 14) (size 15 to 20)
#    0.000    1.875    0.000    4.500    0.000    7.500 
#    0.000    0.625    0.000    3.750    0.000    0.000 
#    0.000   12.000    0.000    0.000    0.000    0.000 
#
# Total GULP energy -396632.396370 kJ/mol
# GULP energy per Si atom -12394.762387 kJ/mol
# Density = 1.956267 g / cm^3
# Si number density = 19.607294 Si / 1000 Ang^3
#
#
#
# Elastic Constant Matrix: (Units=GPa)
#
#
# Indices 1 2 3 4 5 6 
#
# 1 83.4610 29.7462 45.3436 0.0000 0.0000 0.0000
# 2 29.7462 70.8627 28.8358 0.0000 0.0000 0.0000
# 3 45.3436 28.8358 146.5998 0.0000 0.0000 0.0000
# 4 0.0000 0.0000 0.0000 24.2414 0.0000 0.0000
# 5 0.0000 0.0000 0.0000 0.0000 -78.4071 0.0000
# 6 0.0000 0.0000 0.0000 0.0000 0.0000 24.9782
#
#
#
# Elastic Compliance Matrix: (Units=1/GPa)
#
#
# Indices 1 2 3 4 5 6 
#
# 1 0.015928 -0.005089 -0.003926 0.000000 0.000000 0.000000
# 2 -0.005089 0.016965 -0.001763 0.000000 0.000000 0.000000
# 3 -0.003926 -0.001763 0.008382 0.000000 0.000000 0.000000
# 4 0.000000 0.000000 0.000000 0.041252 0.000000 0.000000
# 5 0.000000 0.000000 0.000000 0.000000 -0.012754 0.000000
# 6 0.000000 0.000000 0.000000 0.000000 0.000000 0.040035
#
#
# Mechanical properties :
#
#
# Convention : Reuss Voigt Hill
#
# Bulk Modulus (GPa) = 50.70786 56.53052 53.61919
# Shear Modulus (GPa) = 36.24843 7.29568 21.77206
#
# Velocity S-wave (km/s) = 4.30434 1.93106 3.33589
# Velocity P-wave (km/s) = 7.11484 5.81944 6.49950
#
# Compressibility (1/GPa) = 0.01972081
#
# Stress axis : x y z
#
# Youngs Moduli (GPa) = 62.78217 58.94367 119.29903
#
# Poissons Ratio (x) = 0.29995 0.46833
# Poissons Ratio (y) = 0.31948 0.21033
# Poissons Ratio (z) = 0.24646 0.10392
#
# Static dielectric constant tensor:
#      x y z
#    x 3.595540 0.000000 0.000000 
#    y 0.000000 3.434330 0.000000 
#    z 0.000000 0.000000 4.358000 
# 
# 
# High freq. dielectric constant tensor:
#      x y z
#    x 1.759610 0.000000 0.000000 
#    y 0.000000 1.746380 0.000000 
#    z 0.000000 0.000000 1.794680 
# 
# From -- ./inp_files/58809.got.cif
#   From: 2010.03.12/outbox.cif.g09.slc.cpg/sg65_30_cif.got.tgz:58809.got - 2010.04.10 20:52:16.
