data_PCOD8273523
_publ_section_title
;
Structure prediction by ZEFSAII (Michael W. Deem and Ramdas Pophale) SiO2 
 PCOD8273523
Probable space group: C M M M
;
_chemical_formula_sum "Si O2"
_cell_formula_units_Z 80
_cell_length_a 28.680783
_cell_length_b 15.977619
_cell_length_c 9.026351
_cell_angle_alpha 90.000000
_cell_angle_beta 90.000000
_cell_angle_gamma 90.000000
_cell_volume 4136.330973
_symmetry_space_group_name_H-M "C M M M"
_symmetry_group_IT_number 65
_symmetry_cell_setting 'orthorhombic'
loop_
_space_group_symop_operation_xyz
x,y,z
-x,-y,z
x,-y,-z
-x,y,-z
-x,-y,-z
x,y,-z
-x,y,z
x,-y,z
1/2+x,1/2+y,z
1/2-x,1/2-y,z
1/2+x,1/2-y,-z
1/2-x,1/2+y,-z
1/2-x,1/2-y,-z
1/2+x,1/2+y,-z
1/2-x,1/2+y,z
1/2+x,1/2-y,z
loop_
_atom_site_type_symbol
_atom_site_label
_atom_site_fract_x
_atom_site_fract_y
_atom_site_fract_z
Si Si1 0.113632 0.000000 0.175327
Si Si2 0.713072 0.500000 0.325393
Si Si3 0.946587 0.136946 0.329002
Si Si4 0.141897 0.406296 0.827248
Si Si5 0.052044 0.307144 0.168595
Si Si6 0.771931 0.662747 0.674496
O O1 0.165264 0.000000 0.238262
O O2 0.086856 0.081707 0.229372
O O3 0.115873 0.000000 0.000000
O O4 0.703117 0.500000 0.500000
O O5 0.740937 0.416745 0.276589
O O6 0.932323 0.126585 0.500000
O O7 0.939186 0.232130 0.281722
O O8 0.000000 0.108907 0.303689
O O9 0.148095 0.500000 0.764817
O O10 0.088864 0.379395 0.794459
O O11 0.177065 0.344126 0.745308
O O12 0.153243 0.402806 0.000000
O O13 0.000000 0.344169 0.190668
O O14 0.058381 0.274392 0.000000
O O15 0.778287 0.664672 0.500000
O O16 0.750000 0.750000 0.731627
#
# Coordination Sequence:
#
# PCOD8273523 Si02
#       6
#     8   8  16  16  16  16
#     4  12  25  37  56  85 118 153 191 236 289 343
#     4  10  22  41  59  84 121 152 192 243 289 344
#     4  10  21  38  59  83 114 153 196 239 284 337
#     4  10  21  37  59  87 117 150 189 235 288 344
#     4   9  19  36  57  84 118 153 191 234 283 341
#     4  10  22  40  62  86 112 150 194 238 292 348
#
# _framework density 19.340812
#
# number of rings (size 3 to 8) (size 9 to 14) (size 15 to 20)
#    0.000    2.000    1.000    1.800    2.800    4.800 
#    0.000    2.000    0.000    0.000    0.000    4.200 
#    0.000    0.000    0.000    0.000    0.000    0.000 
#
# Total GULP energy -496105.413515 kJ/mol
# GULP energy per Si atom -12402.635338 kJ/mol
# Density = 1.929679 g / cm^3
# Si number density = 19.340812 Si / 1000 Ang^3
#
#
#
# Elastic Constant Matrix: (Units=GPa)
#
#
# Indices 1 2 3 4 5 6 
#
# 1 141.6600 70.2226 48.7346 0.0000 0.0000 0.0000
# 2 70.2226 123.8192 30.0899 0.0000 0.0000 0.0000
# 3 48.7346 30.0899 53.3442 0.0000 0.0000 0.0000
# 4 0.0000 0.0000 0.0000 22.2167 0.0000 0.0000
# 5 0.0000 0.0000 0.0000 0.0000 32.2487 0.0000
# 6 0.0000 0.0000 0.0000 0.0000 0.0000 34.6878
#
#
#
# Elastic Compliance Matrix: (Units=1/GPa)
#
#
# Indices 1 2 3 4 5 6 
#
# 1 0.012493 -0.004996 -0.008595 0.000000 0.000000 0.000000
# 2 -0.004996 0.011358 -0.001842 0.000000 0.000000 0.000000
# 3 -0.008595 -0.001842 0.027637 0.000000 0.000000 0.000000
# 4 0.000000 0.000000 0.000000 0.045011 0.000000 0.000000
# 5 0.000000 0.000000 0.000000 0.000000 0.031009 0.000000
# 6 0.000000 0.000000 0.000000 0.000000 0.000000 0.028829
#
#
# Mechanical properties :
#
#
# Convention : Reuss Voigt Hill
#
# Bulk Modulus (GPa) = 48.49344 68.54640 58.51992
# Shear Modulus (GPa) = 25.76304 29.14907 27.45606
#
# Velocity S-wave (km/s) = 3.65369 3.88639 3.77183
# Velocity P-wave (km/s) = 6.55186 7.46036 7.02082
#
# Compressibility (1/GPa) = 0.02062134
#
# Stress axis : x y z
#
# Youngs Moduli (GPa) = 80.04592 88.04719 36.18305
#
# Poissons Ratio (x) = 0.43992 0.31099
# Poissons Ratio (y) = 0.39995 0.06664
# Poissons Ratio (z) = 0.68799 0.16216
#
# Static dielectric constant tensor:
#      x y z
#    x 3.628020 0.000000 0.000000 
#    y 0.000000 3.595880 0.000000 
#    z 0.000000 0.000000 3.463590 
# 
# 
# High freq. dielectric constant tensor:
#      x y z
#    x 1.763080 0.000000 0.000000 
#    y 0.000000 1.752430 0.000000 
#    z 0.000000 0.000000 1.747080 
# 
# From -- ./inp_files/16079.got.cif
#   From: 2010.03.12/outbox.cif.g09.slc.cpg/sg65_9_cif.got.tgz:16079.got - 2010.04.10 20:52:16.
