data_PCOD8273112
_publ_section_title
;
Structure prediction by ZEFSAII (Michael W. Deem and Ramdas Pophale) SiO2 
 PCOD8273112
Probable space group: C M M M
;
_chemical_formula_sum "Si O2"
_cell_formula_units_Z 96
_cell_length_a 18.639978
_cell_length_b 9.227074
_cell_length_c 30.507516
_cell_angle_alpha 90.000000
_cell_angle_beta 90.000000
_cell_angle_gamma 90.000000
_cell_volume 5247.062614
_symmetry_space_group_name_H-M "C M M M"
_symmetry_group_IT_number 65
_symmetry_cell_setting 'orthorhombic'
loop_
_space_group_symop_operation_xyz
x,y,z
-x,-y,z
x,-y,-z
-x,y,-z
-x,-y,-z
x,y,-z
-x,y,z
x,-y,z
1/2+x,1/2+y,z
1/2-x,1/2-y,z
1/2+x,1/2-y,-z
1/2-x,1/2+y,-z
1/2-x,1/2-y,-z
1/2+x,1/2+y,-z
1/2-x,1/2+y,z
1/2+x,1/2-y,z
loop_
_atom_site_type_symbol
_atom_site_label
_atom_site_fract_x
_atom_site_fract_y
_atom_site_fract_z
Si Si1 0.177219 0.669340 0.548943
Si Si2 0.918017 0.169261 0.714282
Si Si3 0.416739 0.168006 0.870835
Si Si4 0.417700 0.168849 0.628869
Si Si5 0.673772 0.671972 0.201362
Si Si6 0.179983 0.332604 0.049248
O O1 0.148925 0.707301 0.500000
O O2 0.192159 0.500000 0.553383
O O3 0.250000 0.750000 0.559589
O O4 0.120032 0.723155 0.584545
O O5 0.887085 0.248911 0.671328
O O6 0.867750 0.214309 0.754395
O O7 0.000000 0.218159 0.724495
O O8 0.914576 0.000000 0.705022
O O9 0.500000 0.210502 0.869766
O O10 0.374091 0.271501 0.838342
O O11 0.387790 0.198711 0.919742
O O12 0.405072 0.000000 0.857686
O O13 0.500000 0.209097 0.622313
O O14 0.405135 0.000000 0.636924
O O15 0.684519 0.500000 0.196668
O O16 0.750000 0.750000 0.201271
O O17 0.200732 0.500000 0.049846
O O18 0.250000 0.250000 0.067144
O O19 0.159880 0.281065 0.000000
#
# Coordination Sequence:
#
# PCOD8273112 Si02
#       6
#    16  16  16  16  16  16
#     4   9  18  32  49  70  98 131 165 202 245 293
#     4   9  19  36  55  74  99 132 167 204 251 305
#     4  10  21  36  55  80 108 139 176 217 261 308
#     4   9  18  32  51  75 100 128 164 205 248 294
#     4  11  23  38  56  78 105 137 174 215 260 310
#     4   9  18  33  53  77 106 140 176 214 257 305
#
# _framework density 18.295950999999999
#
# number of rings (size 3 to 8) (size 9 to 14) (size 15 to 20)
#    0.000    2.500    0.000    1.500    0.000    6.333 
#    0.000    8.333    0.000    0.000    0.000    8.167 
#    0.000    0.000    0.000    0.000    0.000    0.000 
#
# Total GULP energy -595228.984839 kJ/mol
# GULP energy per Si atom -12400.603851 kJ/mol
# Density = 1.825431 g / cm^3
# Si number density = 18.295951 Si / 1000 Ang^3
#
#
#
# Elastic Constant Matrix: (Units=GPa)
#
#
# Indices 1 2 3 4 5 6 
#
# 1 120.4973 49.0641 82.7886 0.0000 0.0000 0.0000
# 2 49.0641 51.7350 55.5033 0.0000 0.0000 0.0000
# 3 82.7886 55.5033 143.3979 0.0000 0.0000 0.0000
# 4 0.0000 0.0000 0.0000 30.7980 0.0000 0.0000
# 5 0.0000 0.0000 0.0000 0.0000 35.7498 0.0000
# 6 0.0000 0.0000 0.0000 0.0000 0.0000 25.1787
#
#
#
# Elastic Compliance Matrix: (Units=1/GPa)
#
#
# Indices 1 2 3 4 5 6 
#
# 1 0.015842 -0.008913 -0.005696 0.000000 0.000000 0.000000
# 2 -0.008913 0.038070 -0.009590 0.000000 0.000000 0.000000
# 3 -0.005696 -0.009590 0.013974 0.000000 0.000000 0.000000
# 4 0.000000 0.000000 0.000000 0.032470 0.000000 0.000000
# 5 0.000000 0.000000 0.000000 0.000000 0.027972 0.000000
# 6 0.000000 0.000000 0.000000 0.000000 0.000000 0.039716
#
#
# Mechanical properties :
#
#
# Convention : Reuss Voigt Hill
#
# Bulk Modulus (GPa) = 51.31238 76.70470 64.00854
# Shear Modulus (GPa) = 22.42786 26.89690 24.66238
#
# Velocity S-wave (km/s) = 3.50499 3.83835 3.67545
# Velocity P-wave (km/s) = 6.66983 7.85235 7.28512
#
# Compressibility (1/GPa) = 0.01948847
#
# Stress axis : x y z
#
# Youngs Moduli (GPa) = 63.12489 26.26736 71.56147
#
# Poissons Ratio (x) = 0.23411 0.40763
# Poissons Ratio (y) = 0.56261 0.68626
# Poissons Ratio (z) = 0.35957 0.25190
#
# Static dielectric constant tensor:
#      x y z
#    x 3.507420 0.000000 0.000000 
#    y 0.000000 3.342730 0.000000 
#    z 0.000000 0.000000 3.666550 
# 
# 
# High freq. dielectric constant tensor:
#      x y z
#    x 1.704830 0.000000 0.000000 
#    y 0.000000 1.704720 0.000000 
#    z 0.000000 0.000000 1.722240 
# 
# From -- ./inp_files/73114.got.cif
#   From: 2010.03.12/outbox.cif.g09.slc.cpg/sg65_37_cif.got.tgz:73114.got - 2010.04.10 20:52:16.
