data_PCOD8273346
_publ_section_title
;
Structure prediction by ZEFSAII (Michael W. Deem and Ramdas Pophale) SiO2 
 PCOD8273346
Probable space group: C M M M
;
_chemical_formula_sum "Si O2"
_cell_formula_units_Z 104
_cell_length_a 26.570564
_cell_length_b 8.871374
_cell_length_c 22.735084
_cell_angle_alpha 90.000000
_cell_angle_beta 90.000000
_cell_angle_gamma 90.000000
_cell_volume 5359.055131
_symmetry_space_group_name_H-M "C M M M"
_symmetry_group_IT_number 65
_symmetry_cell_setting 'orthorhombic'
loop_
_space_group_symop_operation_xyz
x,y,z
-x,-y,z
x,-y,-z
-x,y,-z
-x,-y,-z
x,y,-z
-x,y,z
x,-y,z
1/2+x,1/2+y,z
1/2-x,1/2-y,z
1/2+x,1/2-y,-z
1/2-x,1/2+y,-z
1/2-x,1/2-y,-z
1/2+x,1/2+y,-z
1/2-x,1/2+y,z
1/2+x,1/2-y,z
loop_
_atom_site_type_symbol
_atom_site_label
_atom_site_fract_x
_atom_site_fract_y
_atom_site_fract_z
Si Si1 0.802357 0.676521 0.931510
Si Si2 0.898594 0.178360 0.129696
Si Si3 0.350745 0.677162 0.566126
Si Si4 0.444065 0.328070 0.641359
Si Si5 0.000000 0.178984 0.066296
Si Si6 0.700399 0.174658 0.328368
Si Si7 0.397036 0.825242 0.253877
O O1 0.799448 0.500000 0.918204
O O2 0.750000 0.750000 0.909550
O O3 0.849308 0.744918 0.897074
O O4 0.810549 0.711691 0.000000
O O5 0.903930 0.222089 0.197337
O O6 0.949231 0.238196 0.097714
O O7 0.892898 0.000000 0.122782
O O8 0.345345 0.740063 0.500000
O O9 0.341170 0.500000 0.567848
O O10 0.406449 0.719202 0.589298
O O11 0.310078 0.755976 0.607533
O O12 0.500000 0.308071 0.615955
O O13 0.433612 0.500000 0.661223
O O14 0.438469 0.221740 0.698202
O O15 0.000000 0.000000 0.067276
O O16 0.000000 0.241894 0.000000
O O17 0.750000 0.250000 0.301445
O O18 0.657156 0.209672 0.281645
O O19 0.709272 0.000000 0.337376
O O20 0.403577 0.000000 0.237165
#
# Coordination Sequence:
#
# PCOD8273346 Si02
#       7
#    16  16  16  16   8  16  16
#     4  10  21  38  60  86 116 150 189 234 285 340
#     4  11  22  37  60  87 116 152 194 239 287 342
#     4   9  18  33  53  79 110 142 179 223 271 327
#     4   9  18  33  54  78 106 141 181 225 274 328
#     4   9  20  38  59  85 117 153 192 233 280 337
#     4  10  21  37  57  78 105 142 182 226 277 331
#     4  10  22  38  54  78 110 143 183 229 278 332
#
# _framework density 19.406404999999999
#
# number of rings (size 3 to 8) (size 9 to 14) (size 15 to 20)
#    0.000    2.231    0.000    2.308    1.077    5.231 
#    0.000    4.231    0.000    2.769    0.000    4.308 
#    0.000    0.000    0.000    0.000    0.000    0.000 
#
# Total GULP energy -644899.098385 kJ/mol
# GULP energy per Si atom -12401.905738 kJ/mol
# Density = 1.936224 g / cm^3
# Si number density = 19.406405 Si / 1000 Ang^3
#
#
#
# Elastic Constant Matrix: (Units=GPa)
#
#
# Indices 1 2 3 4 5 6 
#
# 1 104.0999 25.8007 27.6602 0.0000 0.0000 0.0000
# 2 25.8007 52.3056 28.4301 0.0000 0.0000 0.0000
# 3 27.6602 28.4301 97.5427 0.0000 0.0000 0.0000
# 4 0.0000 0.0000 0.0000 29.9310 0.0000 0.0000
# 5 0.0000 0.0000 0.0000 0.0000 12.0969 0.0000
# 6 0.0000 0.0000 0.0000 0.0000 0.0000 29.1100
#
#
#
# Elastic Compliance Matrix: (Units=1/GPa)
#
#
# Indices 1 2 3 4 5 6 
#
# 1 0.011222 -0.004522 -0.001864 0.000000 0.000000 0.000000
# 2 -0.004522 0.024540 -0.005870 0.000000 0.000000 0.000000
# 3 -0.001864 -0.005870 0.012491 0.000000 0.000000 0.000000
# 4 0.000000 0.000000 0.000000 0.033410 0.000000 0.000000
# 5 0.000000 0.000000 0.000000 0.000000 0.082666 0.000000
# 6 0.000000 0.000000 0.000000 0.000000 0.000000 0.034352
#
#
# Mechanical properties :
#
#
# Convention : Reuss Voigt Hill
#
# Bulk Modulus (GPa) = 42.12239 46.41445 44.26842
# Shear Modulus (GPa) = 21.63487 25.69807 23.66647
#
# Velocity S-wave (km/s) = 3.34253 3.64291 3.49595
# Velocity P-wave (km/s) = 6.05386 6.45472 6.25750
#
# Compressibility (1/GPa) = 0.02374034
#
# Stress axis : x y z
#
# Youngs Moduli (GPa) = 89.10798 40.75022 80.05473
#
# Poissons Ratio (x) = 0.18429 0.14924
# Poissons Ratio (y) = 0.40298 0.46992
# Poissons Ratio (z) = 0.16612 0.23921
#
# Static dielectric constant tensor:
#      x y z
#    x 3.697240 0.000000 0.000000 
#    y 0.000000 3.511390 0.000000 
#    z 0.000000 0.000000 3.524930 
# 
# 
# High freq. dielectric constant tensor:
#      x y z
#    x 1.766270 0.000000 0.000000 
#    y 0.000000 1.751490 0.000000 
#    z 0.000000 0.000000 1.750970 
# 
# From -- ./inp_files/65890.got.cif
#   From: 2010.03.12/outbox.cif.g09.slc.cpg/sg65_33_cif.got.tgz:65890.got - 2010.04.10 20:52:16.
