data_PCOD8273246
_publ_section_title
;
Structure prediction by ZEFSAII (Michael W. Deem and Ramdas Pophale) SiO2 
 PCOD8273246
Probable space group: C M M M
;
_chemical_formula_sum "Si O2"
_cell_formula_units_Z 104
_cell_length_a 25.422497
_cell_length_b 9.129015
_cell_length_c 29.812758
_cell_angle_alpha 90.000000
_cell_angle_beta 90.000000
_cell_angle_gamma 90.000000
_cell_volume 6919.015129
_symmetry_space_group_name_H-M "C M M M"
_symmetry_group_IT_number 65
_symmetry_cell_setting 'orthorhombic'
loop_
_space_group_symop_operation_xyz
x,y,z
-x,-y,z
x,-y,-z
-x,y,-z
-x,-y,-z
x,y,-z
-x,y,z
x,-y,z
1/2+x,1/2+y,z
1/2-x,1/2-y,z
1/2+x,1/2-y,-z
1/2-x,1/2+y,-z
1/2-x,1/2-y,-z
1/2+x,1/2+y,-z
1/2-x,1/2+y,z
1/2+x,1/2-y,z
loop_
_atom_site_type_symbol
_atom_site_label
_atom_site_fract_x
_atom_site_fract_y
_atom_site_fract_z
Si Si1 0.937464 0.164679 0.549309
Si Si2 0.059957 0.332149 0.192629
Si Si3 0.000000 0.832150 0.946867
Si Si4 0.098722 0.671955 0.904629
Si Si5 0.937317 0.165046 0.720896
Si Si6 0.195633 0.170198 0.947983
Si Si7 0.437195 0.835594 0.365472
O O1 0.919377 0.221971 0.500000
O O2 0.914245 0.266111 0.588661
O O3 0.000000 0.165340 0.551710
O O4 0.916712 0.000000 0.556910
O O5 0.062024 0.500000 0.207953
O O6 0.094280 0.303933 0.148591
O O7 0.083910 0.238263 0.233444
O O8 0.000000 0.285911 0.181605
O O9 0.051120 0.748814 0.929896
O O10 0.000000 0.000000 0.929325
O O11 0.000000 0.829382 0.000000
O O12 0.098709 0.500000 0.916938
O O13 0.152326 0.747867 0.918932
O O14 0.914936 0.248217 0.677361
O O15 0.000000 0.172682 0.720737
O O16 0.916435 0.000000 0.719001
O O17 0.250000 0.250000 0.937336
O O18 0.199431 0.000000 0.934100
O O19 0.180442 0.185729 0.000000
O O20 0.500000 0.831026 0.365808
O O21 0.415929 0.000000 0.362337
#
# Coordination Sequence:
#
# PCOD8273246 Si02
#       7
#    16  16   8  16  16  16  16
#     4   8  13  20  28  37  51  72  99 136 182 229
#     4   9  17  30  43  58  82 108 134 163 200 245
#     4  11  23  35  47  67  95 123 149 177 208 249
#     4  11  21  34  51  71  93 119 146 176 215 257
#     4   9  16  24  35  50  66  89 121 154 189 231
#     4  10  21  37  55  74  94 117 146 179 213 250
#     4   9  15  21  29  41  57  79 107 142 184 229
#
# _framework density 15.031040000000001
#
# number of rings (size 3 to 8) (size 9 to 14) (size 15 to 20)
#    0.000    2.538    0.769    3.000    0.000    8.615 
#    0.000    1.538    0.000    0.000    0.000    0.000 
#    0.000    0.000    0.000    0.000    0.000    0.000 
#
# Total GULP energy -644685.927558 kJ/mol
# GULP energy per Si atom -12397.806299 kJ/mol
# Density = 1.499683 g / cm^3
# Si number density = 15.031040 Si / 1000 Ang^3
#
#
#
# Elastic Constant Matrix: (Units=GPa)
#
#
# Indices 1 2 3 4 5 6 
#
# 1 45.4390 37.3228 36.5208 0.0000 0.0000 0.0000
# 2 37.3228 136.5903 79.6493 0.0000 0.0000 0.0000
# 3 36.5208 79.6493 119.1801 0.0000 0.0000 0.0000
# 4 0.0000 0.0000 0.0000 32.4524 0.0000 0.0000
# 5 0.0000 0.0000 0.0000 0.0000 3.3911 0.0000
# 6 0.0000 0.0000 0.0000 0.0000 0.0000 17.9429
#
#
#
# Elastic Compliance Matrix: (Units=1/GPa)
#
#
# Indices 1 2 3 4 5 6 
#
# 1 0.031011 -0.004805 -0.006292 0.000000 0.000000 0.000000
# 2 -0.004805 0.012741 -0.007042 0.000000 0.000000 0.000000
# 3 -0.006292 -0.007042 0.015025 0.000000 0.000000 0.000000
# 4 0.000000 0.000000 0.000000 0.030814 0.000000 0.000000
# 5 0.000000 0.000000 0.000000 0.000000 0.294890 0.000000
# 6 0.000000 0.000000 0.000000 0.000000 0.000000 0.055732
#
#
# Mechanical properties :
#
#
# Convention : Reuss Voigt Hill
#
# Bulk Modulus (GPa) = 44.44637 67.57723 56.01180
# Shear Modulus (GPa) = 10.33076 20.60503 15.46790
#
# Velocity S-wave (km/s) = 2.62448 3.70649 3.21138
# Velocity P-wave (km/s) = 6.23039 7.96075 7.14812
#
# Compressibility (1/GPa) = 0.02249903
#
# Stress axis : x y z
#
# Youngs Moduli (GPa) = 32.24667 78.48909 66.55506
#
# Poissons Ratio (x) = 0.37712 0.41875
# Poissons Ratio (y) = 0.15494 0.46870
# Poissons Ratio (z) = 0.20289 0.55275
#
# Static dielectric constant tensor:
#      x y z
#    x 2.494790 0.000000 0.000000 
#    y 0.000000 3.133600 0.000000 
#    z 0.000000 0.000000 3.109260 
# 
# 
# High freq. dielectric constant tensor:
#      x y z
#    x 1.495340 0.000000 0.000000 
#    y 0.000000 1.593840 0.000000 
#    z 0.000000 0.000000 1.587730 
# 
# From -- ./inp_files/78473.got.cif
#   From: 2010.03.12/outbox.cif.g09.slc.cpg/sg65_40_cif.got.tgz:78473.got - 2010.04.10 20:52:16.
