data_PCOD8273113
_publ_section_title
;
Structure prediction by ZEFSAII (Michael W. Deem and Ramdas Pophale) SiO2 
 PCOD8273113
Probable space group: C M M M
;
_chemical_formula_sum "Si O2"
_cell_formula_units_Z 96
_cell_length_a 18.566881
_cell_length_b 9.076335
_cell_length_c 30.137210
_cell_angle_alpha 90.000000
_cell_angle_beta 90.000000
_cell_angle_gamma 90.000000
_cell_volume 5078.699480
_symmetry_space_group_name_H-M "C M M M"
_symmetry_group_IT_number 65
_symmetry_cell_setting 'orthorhombic'
loop_
_space_group_symop_operation_xyz
x,y,z
-x,-y,z
x,-y,-z
-x,y,-z
-x,-y,-z
x,y,-z
-x,y,z
x,-y,z
1/2+x,1/2+y,z
1/2-x,1/2-y,z
1/2+x,1/2-y,-z
1/2-x,1/2+y,-z
1/2-x,1/2-y,-z
1/2+x,1/2+y,-z
1/2-x,1/2+y,z
1/2+x,1/2-y,z
loop_
_atom_site_type_symbol
_atom_site_label
_atom_site_fract_x
_atom_site_fract_y
_atom_site_fract_z
Si Si1 0.416754 0.328095 0.209352
Si Si2 0.173441 0.173508 0.705614
Si Si3 0.177011 0.328394 0.551504
Si Si4 0.085154 0.333165 0.878851
Si Si5 0.583180 0.671719 0.620226
Si Si6 0.823405 0.171961 0.051249
O O1 0.500000 0.292301 0.219736
O O2 0.406230 0.500000 0.199384
O O3 0.369974 0.275091 0.251010
O O4 0.387804 0.238650 0.166978
O O5 0.250000 0.250000 0.704230
O O6 0.127472 0.223267 0.663160
O O7 0.185236 0.000000 0.705905
O O8 0.162480 0.296571 0.500000
O O9 0.185277 0.500000 0.561666
O O10 0.250000 0.250000 0.567772
O O11 0.109527 0.263318 0.577869
O O12 0.114216 0.500000 0.881432
O O13 0.112401 0.239893 0.920418
O O14 0.000000 0.327693 0.881039
O O15 0.500000 0.708268 0.628926
O O16 0.594803 0.500000 0.610295
O O17 0.750000 0.250000 0.065904
O O18 0.816101 0.000000 0.061142
O O19 0.841112 0.203521 0.000000
#
# Coordination Sequence:
#
# PCOD8273113 Si02
#       6
#    16  16  16  16  16  16
#     4   9  18  35  57  77 102 139 180 220 264 316
#     4  10  21  36  55  80 108 139 177 221 269 321
#     4  10  21  37  57  81 110 144 182 224 270 321
#     4  10  21  36  55  81 112 144 179 221 268 318
#     4  10  21  37  57  81 110 144 182 224 271 323
#     4  10  21  37  57  80 107 141 181 224 270 321
#
# _framework density 18.902476
#
# number of rings (size 3 to 8) (size 9 to 14) (size 15 to 20)
#    0.000    2.167    0.000    2.500    0.000    9.333 
#    0.000    5.000    0.000    3.000    0.000    0.000 
#    0.000    0.000    0.000    0.000    0.000    0.000 
#
# Total GULP energy -595434.698886 kJ/mol
# GULP energy per Si atom -12404.889560 kJ/mol
# Density = 1.885945 g / cm^3
# Si number density = 18.902476 Si / 1000 Ang^3
#
#
#
# Elastic Constant Matrix: (Units=GPa)
#
#
# Indices 1 2 3 4 5 6 
#
# 1 100.2347 49.5554 65.3034 0.0000 0.0000 0.0000
# 2 49.5554 89.3854 62.3441 0.0000 0.0000 0.0000
# 3 65.3034 62.3441 117.4899 0.0000 0.0000 0.0000
# 4 0.0000 0.0000 0.0000 28.5901 0.0000 0.0000
# 5 0.0000 0.0000 0.0000 0.0000 38.5229 0.0000
# 6 0.0000 0.0000 0.0000 0.0000 0.0000 35.8441
#
#
#
# Elastic Compliance Matrix: (Units=1/GPa)
#
#
# Indices 1 2 3 4 5 6 
#
# 1 0.016669 -0.004412 -0.006924 0.000000 0.000000 0.000000
# 2 -0.004412 0.018929 -0.007592 0.000000 0.000000 0.000000
# 3 -0.006924 -0.007592 0.016388 0.000000 0.000000 0.000000
# 4 0.000000 0.000000 0.000000 0.034977 0.000000 0.000000
# 5 0.000000 0.000000 0.000000 0.000000 0.025959 0.000000
# 6 0.000000 0.000000 0.000000 0.000000 0.000000 0.027899
#
#
# Mechanical properties :
#
#
# Convention : Reuss Voigt Hill
#
# Bulk Modulus (GPa) = 70.76937 73.50174 72.13555
# Shear Modulus (GPa) = 27.26504 29.25191 28.25848
#
# Velocity S-wave (km/s) = 3.80202 3.93812 3.87067
# Velocity P-wave (km/s) = 7.53620 7.72318 7.63026
#
# Compressibility (1/GPa) = 0.01413041
#
# Stress axis : x y z
#
# Youngs Moduli (GPa) = 59.99284 52.82982 61.01966
#
# Poissons Ratio (x) = 0.23309 0.42248
# Poissons Ratio (y) = 0.26469 0.46325
# Poissons Ratio (z) = 0.41537 0.40108
#
# Static dielectric constant tensor:
#      x y z
#    x 3.381230 0.000000 0.000000 
#    y 0.000000 3.518950 0.000000 
#    z 0.000000 0.000000 3.550480 
# 
# 
# High freq. dielectric constant tensor:
#      x y z
#    x 1.732490 0.000000 0.000000 
#    y 0.000000 1.736910 0.000000 
#    z 0.000000 0.000000 1.744060 
# 
# From -- ./inp_files/73164.got.cif
#   From: 2010.03.12/outbox.cif.g09.slc.cpg/sg65_37_cif.got.tgz:73164.got - 2010.04.10 20:52:16.
