data_PCOD8273807
_publ_section_title
;
Structure prediction by ZEFSAII (Michael W. Deem and Ramdas Pophale) SiO2 
 PCOD8273807
Probable space group: C M M M
;
_chemical_formula_sum "Si O2"
_cell_formula_units_Z 52
_cell_length_a 19.879612
_cell_length_b 17.055991
_cell_length_c 7.342636
_cell_angle_alpha 90.000000
_cell_angle_beta 90.000000
_cell_angle_gamma 90.000000
_cell_volume 2489.641767
_symmetry_space_group_name_H-M "C M M M"
_symmetry_group_IT_number 65
_symmetry_cell_setting 'orthorhombic'
loop_
_space_group_symop_operation_xyz
x,y,z
-x,-y,z
x,-y,-z
-x,y,-z
-x,-y,-z
x,y,-z
-x,y,z
x,-y,z
1/2+x,1/2+y,z
1/2-x,1/2-y,z
1/2+x,1/2-y,-z
1/2-x,1/2+y,-z
1/2-x,1/2-y,-z
1/2+x,1/2+y,-z
1/2-x,1/2+y,z
1/2+x,1/2-y,z
loop_
_atom_site_type_symbol
_atom_site_label
_atom_site_fract_x
_atom_site_fract_y
_atom_site_fract_z
Si Si1 0.378342 0.087100 0.215841
Si Si2 0.500000 0.194886 0.783201
Si Si3 0.000000 0.829498 0.500000
Si Si4 0.358272 0.407473 0.500000
Si Si5 0.260584 0.341085 0.211392
O O1 0.435084 0.146607 0.285007
O O2 0.305646 0.114848 0.285103
O O3 0.392794 0.000000 0.292633
O O4 0.379731 0.086247 0.000000
O O5 0.500000 0.277712 0.682931
O O6 0.500000 0.209369 0.000000
O O7 0.063849 0.885911 0.500000
O O8 0.349342 0.500000 0.500000
O O9 0.324767 0.371658 0.319616
O O10 0.250000 0.250000 0.248117
O O11 0.274125 0.358640 0.000000
#
# Coordination Sequence:
#
# PCOD8273807 Si02
#       5
#    16   8   4   8  16
#     4   9  17  32  57  89 123 156 190 232 287 352
#     4  10  21  39  61  85 119 159 193 235 292 351
#     4  12  27  44  61  84 110 148 208 258 297 354
#     4  12  26  43  63  86 118 158 200 252 307 353
#     4  10  21  39  64  93 123 157 199 244 293 354
#
# _framework density 20.886538000000002
#
# number of rings (size 3 to 8) (size 9 to 14) (size 15 to 20)
#    0.000    1.846    0.000    3.923    0.000    8.615 
#    0.000    3.077    0.000    2.769    0.000    0.000 
#    0.000    0.000    0.000    0.000    0.000    0.000 
#
# Total GULP energy -322477.102843 kJ/mol
# GULP energy per Si atom -12402.965494 kJ/mol
# Density = 2.083900 g / cm^3
# Si number density = 20.886538 Si / 1000 Ang^3
#
#
#
# Elastic Constant Matrix: (Units=GPa)
#
#
# Indices 1 2 3 4 5 6 
#
# 1 152.8529 39.8532 46.2755 0.0000 0.0000 0.0000
# 2 39.8532 102.1310 45.8463 0.0000 0.0000 0.0000
# 3 46.2755 45.8463 90.6290 0.0000 0.0000 0.0000
# 4 0.0000 0.0000 0.0000 -110.0427 0.0000 0.0000
# 5 0.0000 0.0000 0.0000 0.0000 26.2400 0.0000
# 6 0.0000 0.0000 0.0000 0.0000 0.0000 45.1011
#
#
#
# Elastic Compliance Matrix: (Units=1/GPa)
#
#
# Indices 1 2 3 4 5 6 
#
# 1 0.007949 -0.001656 -0.003221 0.000000 0.000000 0.000000
# 2 -0.001656 0.013013 -0.005737 0.000000 0.000000 0.000000
# 3 -0.003221 -0.005737 0.015581 0.000000 0.000000 0.000000
# 4 0.000000 0.000000 0.000000 -0.009087 0.000000 0.000000
# 5 0.000000 0.000000 0.000000 0.000000 0.038110 0.000000
# 6 0.000000 0.000000 0.000000 0.000000 0.000000 0.022172
#
#
# Mechanical properties :
#
#
# Convention : Reuss Voigt Hill
#
# Bulk Modulus (GPa) = 65.29827 67.72922 66.51375
# Shear Modulus (GPa) = 43.83208 6.50222 25.16715
#
# Velocity S-wave (km/s) = 4.58600 1.76632 3.47500
# Velocity P-wave (km/s) = 7.70539 6.05454 6.92930
#
# Compressibility (1/GPa) = 0.01531434
#
# Stress axis : x y z
#
# Youngs Moduli (GPa) = 125.79898 76.84629 64.18035
#
# Poissons Ratio (x) = 0.12725 0.20674
# Poissons Ratio (y) = 0.20831 0.36822
# Poissons Ratio (z) = 0.40523 0.44089
#
# Static dielectric constant tensor:
#      x y z
#    x 3.957880 0.000000 0.000000 
#    y 0.000000 3.863180 0.000000 
#    z 0.000000 0.000000 3.622510 
# 
# 
# High freq. dielectric constant tensor:
#      x y z
#    x 1.824220 0.000000 0.000000 
#    y 0.000000 1.822450 0.000000 
#    z 0.000000 0.000000 1.815080 
# 
# From -- ./inp_files/8422.got.cif
#   From: 2010.03.12/outbox.cif.g09.slc.cpg/sg65_5_cif.got.tgz:8422.got - 2010.04.10 20:52:16.
