data_PCOD8273279
_publ_section_title
;
Structure prediction by ZEFSAII (Michael W. Deem and Ramdas Pophale) SiO2 
 PCOD8273279
Probable space group: C M M M
;
_chemical_formula_sum "Si O2"
_cell_formula_units_Z 64
_cell_length_a 7.870849
_cell_length_b 18.166585
_cell_length_c 22.351785
_cell_angle_alpha 90.000000
_cell_angle_beta 90.000000
_cell_angle_gamma 90.000000
_cell_volume 3196.002330
_symmetry_space_group_name_H-M "C M M M"
_symmetry_group_IT_number 65
_symmetry_cell_setting 'orthorhombic'
loop_
_space_group_symop_operation_xyz
x,y,z
-x,-y,z
x,-y,-z
-x,y,-z
-x,-y,-z
x,y,-z
-x,y,z
x,-y,z
1/2+x,1/2+y,z
1/2-x,1/2-y,z
1/2+x,1/2-y,-z
1/2-x,1/2+y,-z
1/2-x,1/2-y,-z
1/2+x,1/2+y,-z
1/2-x,1/2+y,z
1/2+x,1/2-y,z
loop_
_atom_site_type_symbol
_atom_site_label
_atom_site_fract_x
_atom_site_fract_y
_atom_site_fract_z
Si Si1 0.799111 0.665754 0.000000
Si Si2 0.304680 0.081139 0.113678
Si Si3 0.305992 0.586390 0.649804
Si Si4 0.000000 0.412747 0.566712
Si Si5 0.196708 0.166054 0.227876
O O1 0.750000 0.750000 0.000000
O O2 0.720193 0.626525 0.058976
O O3 0.000000 0.659855 0.000000
O O4 0.500000 0.070350 0.098062
O O5 0.293760 0.125456 0.175108
O O6 0.218824 0.000000 0.119440
O O7 0.500000 0.605142 0.629745
O O8 0.286372 0.500000 0.662012
O O9 0.172526 0.613782 0.599681
O O10 0.254557 0.627924 0.710018
O O11 0.000000 0.500000 0.563231
O O12 0.000000 0.378733 0.500000
O O13 0.250000 0.250000 0.231340
O O14 0.000000 0.158438 0.213846
#
# Coordination Sequence:
#
# PCOD8273279 Si02
#       5
#     8  16  16   8  16
#     4  10  21  37  55  79 111 148 189 234 280 340
#     4  10  21  37  58  81 109 146 188 234 286 339
#     4   9  19  35  55  82 115 149 187 236 288 339
#     4   9  18  32  56  88 116 147 188 232 281 341
#     4  11  23  37  55  82 111 146 186 234 284 341
#
# _framework density 20.025016999999998
#
# number of rings (size 3 to 8) (size 9 to 14) (size 15 to 20)
#    0.000    2.125    0.000    2.625    3.500    6.500 
#    0.000    2.500    0.000    3.000    0.000    0.000 
#    0.000    0.000    0.000    0.000    0.000    0.000 
#
# Total GULP energy -396765.848020 kJ/mol
# GULP energy per Si atom -12398.932751 kJ/mol
# Density = 1.997944 g / cm^3
# Si number density = 20.025017 Si / 1000 Ang^3
#
#
#
# Elastic Constant Matrix: (Units=GPa)
#
#
# Indices 1 2 3 4 5 6 
#
# 1 71.2640 30.1427 61.6433 0.0000 0.0000 0.0000
# 2 30.1427 118.6460 78.1781 0.0000 0.0000 0.0000
# 3 61.6433 78.1781 179.4282 0.0000 0.0000 0.0000
# 4 0.0000 0.0000 0.0000 10.1765 0.0000 0.0000
# 5 0.0000 0.0000 0.0000 0.0000 19.8365 0.0000
# 6 0.0000 0.0000 0.0000 0.0000 0.0000 21.5892
#
#
#
# Elastic Compliance Matrix: (Units=1/GPa)
#
#
# Indices 1 2 3 4 5 6 
#
# 1 0.020017 -0.000777 -0.006538 0.000000 0.000000 0.000000
# 2 -0.000777 0.011853 -0.004897 0.000000 0.000000 0.000000
# 3 -0.006538 -0.004897 0.009953 0.000000 0.000000 0.000000
# 4 0.000000 0.000000 0.000000 0.098266 0.000000 0.000000
# 5 0.000000 0.000000 0.000000 0.000000 0.050412 0.000000
# 6 0.000000 0.000000 0.000000 0.000000 0.000000 0.046319
#
#
# Mechanical properties :
#
#
# Convention : Reuss Voigt Hill
#
# Bulk Modulus (GPa) = 57.48033 78.80740 68.14386
# Shear Modulus (GPa) = 18.72350 23.61206 21.16778
#
# Velocity S-wave (km/s) = 3.06110 3.43757 3.25478
# Velocity P-wave (km/s) = 6.42342 7.42938 6.94464
#
# Compressibility (1/GPa) = 0.01739726
#
# Stress axis : x y z
#
# Youngs Moduli (GPa) = 49.95873 84.36791 100.46956
#
# Poissons Ratio (x) = 0.06557 0.65688
# Poissons Ratio (y) = 0.03883 0.49203
# Poissons Ratio (z) = 0.32664 0.41318
#
# Static dielectric constant tensor:
#      x y z
#    x 3.714240 0.000000 0.000000 
#    y 0.000000 4.048560 0.000000 
#    z 0.000000 0.000000 3.765130 
# 
# 
# High freq. dielectric constant tensor:
#      x y z
#    x 1.778980 0.000000 0.000000 
#    y 0.000000 1.775430 0.000000 
#    z 0.000000 0.000000 1.783740 
# 
# From -- ./inp_files/58900.got.cif
#   From: 2010.03.12/outbox.cif.g09.slc.cpg/sg65_30_cif.got.tgz:58900.got - 2010.04.10 20:52:16.
