data_PCOD8273677
_publ_section_title
;
Structure prediction by ZEFSAII (Michael W. Deem and Ramdas Pophale) SiO2 
 PCOD8273677
Probable space group: C M M M
;
_chemical_formula_sum "Si O2"
_cell_formula_units_Z 64
_cell_length_a 25.881288
_cell_length_b 8.240909
_cell_length_c 14.628628
_cell_angle_alpha 90.000000
_cell_angle_beta 90.000000
_cell_angle_gamma 90.000000
_cell_volume 3120.071885
_symmetry_space_group_name_H-M "C M M M"
_symmetry_group_IT_number 65
_symmetry_cell_setting 'orthorhombic'
loop_
_space_group_symop_operation_xyz
x,y,z
-x,-y,z
x,-y,-z
-x,y,-z
-x,-y,-z
x,y,-z
-x,y,z
x,-y,z
1/2+x,1/2+y,z
1/2-x,1/2-y,z
1/2+x,1/2-y,-z
1/2-x,1/2+y,-z
1/2-x,1/2-y,-z
1/2+x,1/2+y,-z
1/2-x,1/2+y,z
1/2+x,1/2-y,z
loop_
_atom_site_type_symbol
_atom_site_label
_atom_site_fract_x
_atom_site_fract_y
_atom_site_fract_z
Si Si1 0.000000 0.310955 0.895578
Si Si2 0.878748 0.316063 0.394308
Si Si3 0.942758 0.000000 0.608058
Si Si4 0.307081 0.183348 0.231547
Si Si5 0.893439 0.811889 0.101319
O O1 0.053416 0.248893 0.849966
O O2 0.000000 0.500000 0.886470
O O3 0.000000 0.248353 0.000000
O O4 0.863873 0.291080 0.500000
O O5 0.902731 0.500000 0.380029
O O6 0.826473 0.300228 0.335890
O O7 0.915749 0.168906 0.360426
O O8 0.946024 0.000000 0.500000
O O9 0.000000 0.000000 0.651155
O O10 0.250000 0.250000 0.224680
O O11 0.344518 0.277411 0.163711
O O12 0.306843 0.000000 0.197895
O O13 0.898758 0.000000 0.089214
O O14 0.886415 0.731569 0.000000
#
# Coordination Sequence:
#
# PCOD8273677 Si02
#       5
#     8  16   8  16  16
#     4   9  17  33  59  87 116 149 188 237 287 344
#     4   9  20  39  60  86 121 157 198 244 294 351
#     4   9  18  34  60  90 119 157 199 240 292 349
#     4  11  24  40  60  85 115 152 195 245 297 349
#     4  10  21  38  60  86 117 153 193 238 290 348
#
# _framework density 20.512346999999998
#
# number of rings (size 3 to 8) (size 9 to 14) (size 15 to 20)
#    0.000    2.250    0.000    1.875    3.500    4.500 
#    2.250    2.500    0.000    0.000    0.000    0.000 
#    0.000    0.000    0.000    0.000    0.000    0.000 
#
# Total GULP energy -396573.325101 kJ/mol
# GULP energy per Si atom -12392.916409 kJ/mol
# Density = 2.046566 g / cm^3
# Si number density = 20.512347 Si / 1000 Ang^3
#
#
#
# Elastic Constant Matrix: (Units=GPa)
#
#
# Indices 1 2 3 4 5 6 
#
# 1 179.8415 63.9552 51.7547 0.0000 0.0000 0.0000
# 2 63.9552 118.6402 29.5564 0.0000 0.0000 0.0000
# 3 51.7547 29.5564 67.2083 0.0000 0.0000 0.0000
# 4 0.0000 0.0000 0.0000 22.9733 0.0000 0.0000
# 5 0.0000 0.0000 0.0000 0.0000 32.8264 0.0000
# 6 0.0000 0.0000 0.0000 0.0000 0.0000 37.8701
#
#
#
# Elastic Compliance Matrix: (Units=1/GPa)
#
#
# Indices 1 2 3 4 5 6 
#
# 1 0.008070 -0.003147 -0.004830 0.000000 0.000000 0.000000
# 2 -0.003147 0.010693 -0.002279 0.000000 0.000000 0.000000
# 3 -0.004830 -0.002279 0.019601 0.000000 0.000000 0.000000
# 4 0.000000 0.000000 0.000000 0.043529 0.000000 0.000000
# 5 0.000000 0.000000 0.000000 0.000000 0.030463 0.000000
# 6 0.000000 0.000000 0.000000 0.000000 0.000000 0.026406
#
#
# Mechanical properties :
#
#
# Convention : Reuss Voigt Hill
#
# Bulk Modulus (GPa) = 56.01897 72.91362 64.46630
# Shear Modulus (GPa) = 30.26184 33.42886 31.84535
#
# Velocity S-wave (km/s) = 3.84513 4.04133 3.94445
# Velocity P-wave (km/s) = 6.86167 7.57627 7.22780
#
# Compressibility (1/GPa) = 0.01785110
#
# Stress axis : x y z
#
# Youngs Moduli (GPa) = 123.92318 93.51940 51.01763
#
# Poissons Ratio (x) = 0.29428 0.24643
# Poissons Ratio (y) = 0.38995 0.11629
# Poissons Ratio (z) = 0.59858 0.21316
#
# Static dielectric constant tensor:
#      x y z
#    x 3.639420 0.000000 0.000000 
#    y 0.000000 3.989490 0.000000 
#    z 0.000000 0.000000 3.657930 
# 
# 
# High freq. dielectric constant tensor:
#      x y z
#    x 1.791330 0.000000 0.000000 
#    y 0.000000 1.820070 0.000000 
#    z 0.000000 0.000000 1.792570 
# 
# From -- ./inp_files/45118.got.cif
#   From: 2010.03.12/outbox.cif.g09.slc.cpg/sg65_23_cif.got.tgz:45118.got - 2010.04.10 20:52:16.
