data_PCOD8273226
_publ_section_title
;
Structure prediction by ZEFSAII (Michael W. Deem and Ramdas Pophale) SiO2 
 PCOD8273226
Probable space group: C M M M
;
_chemical_formula_sum "Si O2"
_cell_formula_units_Z 96
_cell_length_a 9.183057
_cell_length_b 28.536960
_cell_length_c 20.120596
_cell_angle_alpha 90.000000
_cell_angle_beta 90.000000
_cell_angle_gamma 90.000000
_cell_volume 5272.733575
_symmetry_space_group_name_H-M "C M M M"
_symmetry_group_IT_number 65
_symmetry_cell_setting 'orthorhombic'
loop_
_space_group_symop_operation_xyz
x,y,z
-x,-y,z
x,-y,-z
-x,y,-z
-x,-y,-z
x,y,-z
-x,y,z
x,-y,z
1/2+x,1/2+y,z
1/2-x,1/2-y,z
1/2+x,1/2-y,-z
1/2-x,1/2+y,-z
1/2-x,1/2-y,-z
1/2+x,1/2+y,-z
1/2-x,1/2+y,z
1/2+x,1/2-y,z
loop_
_atom_site_type_symbol
_atom_site_label
_atom_site_fract_x
_atom_site_fract_y
_atom_site_fract_z
Si Si1 0.832086 0.640202 0.925921
Si Si2 0.332822 0.553275 0.273640
Si Si3 0.670360 0.201345 0.804393
Si Si4 0.329454 0.860963 0.676764
Si Si5 0.330565 0.447716 0.119673
Si Si6 0.831681 0.202954 0.422145
O O1 0.769725 0.676863 0.871860
O O2 0.755006 0.590070 0.923170
O O3 0.000000 0.631062 0.909629
O O4 0.809545 0.661137 0.000000
O O5 0.500000 0.568364 0.285478
O O6 0.308569 0.500000 0.297404
O O7 0.225245 0.585944 0.315474
O O8 0.291621 0.558453 0.196705
O O9 0.500000 0.211703 0.809564
O O10 0.750000 0.250000 0.793303
O O11 0.708400 0.167851 0.743042
O O12 0.500000 0.860713 0.660970
O O13 0.242958 0.840148 0.614654
O O14 0.500000 0.439613 0.107354
O O15 0.285844 0.500000 0.096244
O O16 0.814073 0.193798 0.500000
O O17 0.750000 0.250000 0.399726
O O18 0.000000 0.207611 0.401311
#
# Coordination Sequence:
#
# PCOD8273226 Si02
#       6
#    16  16  16  16  16  16
#     4  10  21  37  53  71 101 138 176 220 270 323
#     4   9  18  33  54  80 109 141 177 219 269 321
#     4  10  22  37  52  75 102 133 175 221 267 314
#     4  11  21  34  56  84 112 143 180 221 267 318
#     4   9  18  33  53  77 104 134 171 217 267 319
#     4  10  21  37  57  83 116 151 185 221 264 316
#
# _framework density 18.206873999999999
#
# number of rings (size 3 to 8) (size 9 to 14) (size 15 to 20)
#    0.000    2.167    1.667    2.500    0.000    6.000 
#    0.000    3.333    0.000    0.500    0.000    3.500 
#    0.000    0.000    0.000    0.000    0.000    0.000 
#
# Total GULP energy -595318.152335 kJ/mol
# GULP energy per Si atom -12402.461507 kJ/mol
# Density = 1.816543 g / cm^3
# Si number density = 18.206874 Si / 1000 Ang^3
#
#
#
# Elastic Constant Matrix: (Units=GPa)
#
#
# Indices 1 2 3 4 5 6 
#
# 1 78.9777 46.9797 38.9025 0.0000 0.0000 0.0000
# 2 46.9797 100.0448 34.0774 0.0000 0.0000 0.0000
# 3 38.9025 34.0774 60.1370 0.0000 0.0000 0.0000
# 4 0.0000 0.0000 0.0000 26.9892 0.0000 0.0000
# 5 0.0000 0.0000 0.0000 0.0000 25.0057 0.0000
# 6 0.0000 0.0000 0.0000 0.0000 0.0000 36.7799
#
#
#
# Elastic Compliance Matrix: (Units=1/GPa)
#
#
# Indices 1 2 3 4 5 6 
#
# 1 0.021687 -0.006698 -0.010234 0.000000 0.000000 0.000000
# 2 -0.006698 0.014455 -0.003858 0.000000 0.000000 0.000000
# 3 -0.010234 -0.003858 0.025435 0.000000 0.000000 0.000000
# 4 0.000000 0.000000 0.000000 0.037052 0.000000 0.000000
# 5 0.000000 0.000000 0.000000 0.000000 0.039991 0.000000
# 6 0.000000 0.000000 0.000000 0.000000 0.000000 0.027189
#
#
# Mechanical properties :
#
#
# Convention : Reuss Voigt Hill
#
# Bulk Modulus (GPa) = 50.00688 53.23098 51.61893
# Shear Modulus (GPa) = 23.35856 25.70162 24.53009
#
# Velocity S-wave (km/s) = 3.58572 3.76126 3.67454
# Velocity P-wave (km/s) = 6.68347 6.93996 6.81292
#
# Compressibility (1/GPa) = 0.01999725
#
# Stress axis : x y z
#
# Youngs Moduli (GPa) = 46.11055 69.18002 39.31578
#
# Poissons Ratio (x) = 0.46338 0.40234
# Poissons Ratio (y) = 0.30885 0.15169
# Poissons Ratio (z) = 0.47188 0.26691
#
# Static dielectric constant tensor:
#      x y z
#    x 3.319620 0.000000 0.000000 
#    y 0.000000 3.333940 0.000000 
#    z 0.000000 0.000000 3.265000 
# 
# 
# High freq. dielectric constant tensor:
#      x y z
#    x 1.705810 0.000000 0.000000 
#    y 0.000000 1.704810 0.000000 
#    z 0.000000 0.000000 1.694190 
# 
# From -- ./inp_files/56679.got.cif
#   From: 2010.03.12/outbox.cif.g09.slc.cpg/sg65_29_cif.got.tgz:56679.got - 2010.04.10 20:52:16.
