data_PCOD8273554
_publ_section_title
;
Structure prediction by ZEFSAII (Michael W. Deem and Ramdas Pophale) SiO2 
 PCOD8273554
Probable space group: C M M M
;
_chemical_formula_sum "Si O2"
_cell_formula_units_Z 64
_cell_length_a 10.810453
_cell_length_b 26.842053
_cell_length_c 12.740134
_cell_angle_alpha 90.000000
_cell_angle_beta 90.000000
_cell_angle_gamma 90.000000
_cell_volume 3696.865229
_symmetry_space_group_name_H-M "C M M M"
_symmetry_group_IT_number 65
_symmetry_cell_setting 'orthorhombic'
loop_
_space_group_symop_operation_xyz
x,y,z
-x,-y,z
x,-y,-z
-x,y,-z
-x,-y,-z
x,y,-z
-x,y,z
x,-y,z
1/2+x,1/2+y,z
1/2-x,1/2-y,z
1/2+x,1/2-y,-z
1/2-x,1/2+y,-z
1/2-x,1/2-y,-z
1/2+x,1/2+y,-z
1/2-x,1/2+y,z
1/2+x,1/2-y,z
loop_
_atom_site_type_symbol
_atom_site_label
_atom_site_fract_x
_atom_site_fract_y
_atom_site_fract_z
Si Si1 0.643976 0.789824 0.122894
Si Si2 0.145216 0.943512 0.618159
Si Si3 0.267823 0.105039 0.192713
Si Si4 0.856966 0.055913 0.000000
Si Si5 0.000000 0.443371 0.885029
O O1 0.500000 0.774521 0.152080
O O2 0.750000 0.750000 0.154318
O O3 0.684762 0.838682 0.185361
O O4 0.650583 0.801057 0.000000
O O5 0.194103 0.934457 0.500000
O O6 0.207406 0.903187 0.693975
O O7 0.000000 0.934862 0.622266
O O8 0.176541 0.000000 0.654244
O O9 0.174343 0.089032 0.101056
O O10 0.383796 0.069197 0.185064
O O11 0.000000 0.046225 0.000000
O O12 0.793365 0.000000 0.000000
O O13 0.000000 0.500000 0.912465
O O14 0.000000 0.415006 0.000000
#
# Coordination Sequence:
#
# PCOD8273554 Si02
#       5
#    16  16  16   8   8
#     4  10  21  38  56  79 112 149 189 235 285 340
#     4   9  19  36  56  79 111 150 189 230 277 331
#     4  12  20  34  54  78 110 146 186 226 277 335
#     4  11  22  31  46  79 116 144 178 225 273 336
#     4  11  20  30  49  77 113 151 178 207 269 342
#
# _framework density 17.311962999999999
#
# number of rings (size 3 to 8) (size 9 to 14) (size 15 to 20)
#    0.000    1.500    3.750    3.750    0.000    4.000 
#    0.000    0.625    0.000    3.000    0.000    0.000 
#    0.000    0.000    0.000    0.000    0.000    0.000 
#
# Total GULP energy -396586.634445 kJ/mol
# GULP energy per Si atom -12393.332326 kJ/mol
# Density = 1.727256 g / cm^3
# Si number density = 17.311963 Si / 1000 Ang^3
#
#
#
# Elastic Constant Matrix: (Units=GPa)
#
#
# Indices 1 2 3 4 5 6 
#
# 1 103.2315 51.1396 42.4636 0.0000 0.0000 0.0000
# 2 51.1396 89.7533 34.2088 0.0000 0.0000 0.0000
# 3 42.4636 34.2088 90.6871 0.0000 0.0000 0.0000
# 4 0.0000 0.0000 0.0000 -49.4693 0.0000 0.0000
# 5 0.0000 0.0000 0.0000 0.0000 -19.3416 0.0000
# 6 0.0000 0.0000 0.0000 0.0000 0.0000 32.9439
#
#
#
# Elastic Compliance Matrix: (Units=1/GPa)
#
#
# Indices 1 2 3 4 5 6 
#
# 1 0.014859 -0.006791 -0.004396 0.000000 0.000000 0.000000
# 2 -0.006791 0.016116 -0.002899 0.000000 0.000000 0.000000
# 3 -0.004396 -0.002899 0.014179 0.000000 0.000000 0.000000
# 4 0.000000 0.000000 0.000000 -0.020215 0.000000 0.000000
# 5 0.000000 0.000000 0.000000 0.000000 -0.051702 0.000000
# 6 0.000000 0.000000 0.000000 0.000000 0.000000 0.030355
#
#
# Mechanical properties :
#
#
# Convention : Reuss Voigt Hill
#
# Bulk Modulus (GPa) = 58.88772 59.92176 59.40474
# Shear Modulus (GPa) = 133.59544 3.21728 68.40636
#
# Velocity S-wave (km/s) = 8.79414 1.36472 6.29283
# Velocity P-wave (km/s) = 11.71347 6.09683 9.33747
#
# Compressibility (1/GPa) = 0.01698147
#
# Stress axis : x y z
#
# Youngs Moduli (GPa) = 67.29704 62.04955 70.52635
#
# Poissons Ratio (x) = 0.42138 0.31004
# Poissons Ratio (y) = 0.45702 0.20449
# Poissons Ratio (z) = 0.29585 0.17991
#
# Static dielectric constant tensor:
#      x y z
#    x 3.438350 0.000000 0.000000 
#    y 0.000000 3.136320 0.000000 
#    z 0.000000 0.000000 3.956510 
# 
# 
# High freq. dielectric constant tensor:
#      x y z
#    x 1.681840 0.000000 0.000000 
#    y 0.000000 1.655940 0.000000 
#    z 0.000000 0.000000 1.640870 
# 
# From -- ./inp_files/22246.got.cif
#   From: 2010.03.12/outbox.cif.g09.slc.cpg/sg65_12_cif.got.tgz:22246.got - 2010.04.10 20:52:16.
