data_PCOD8273699
_publ_section_title
;
Structure prediction by ZEFSAII (Michael W. Deem and Ramdas Pophale) SiO2 
 PCOD8273699
Probable space group: C M M M
;
_chemical_formula_sum "Si O2"
_cell_formula_units_Z 64
_cell_length_a 28.673750
_cell_length_b 8.625761
_cell_length_c 12.584440
_cell_angle_alpha 90.000000
_cell_angle_beta 90.000000
_cell_angle_gamma 90.000000
_cell_volume 3112.546222
_symmetry_space_group_name_H-M "C M M M"
_symmetry_group_IT_number 65
_symmetry_cell_setting 'orthorhombic'
loop_
_space_group_symop_operation_xyz
x,y,z
-x,-y,z
x,-y,-z
-x,y,-z
-x,-y,-z
x,y,-z
-x,y,z
x,-y,z
1/2+x,1/2+y,z
1/2-x,1/2-y,z
1/2+x,1/2-y,-z
1/2-x,1/2+y,-z
1/2-x,1/2-y,-z
1/2+x,1/2+y,-z
1/2-x,1/2+y,z
1/2+x,1/2-y,z
loop_
_atom_site_type_symbol
_atom_site_label
_atom_site_fract_x
_atom_site_fract_y
_atom_site_fract_z
Si Si1 0.800170 0.819676 0.622598
Si Si2 0.945442 0.832832 0.500000
Si Si3 0.947200 0.185242 0.269820
Si Si4 0.301352 0.682187 0.000000
Si Si5 0.142373 0.318331 0.805966
O O1 0.813563 0.792455 0.500000
O O2 0.750000 0.750000 0.649462
O O3 0.838243 0.729981 0.691224
O O4 0.799716 0.000000 0.652648
O O5 0.933898 0.747746 0.611612
O O6 0.000000 0.866213 0.500000
O O7 0.919287 0.000000 0.500000
O O8 0.911670 0.264167 0.187215
O O9 0.000000 0.232120 0.238049
O O10 0.941683 0.000000 0.268696
O O11 0.250000 0.750000 0.000000
O O12 0.328516 0.734044 0.895954
O O13 0.296910 0.500000 0.000000
O O14 0.145964 0.500000 0.824334
#
# Coordination Sequence:
#
# PCOD8273699 Si02
#       5
#    16   8  16   8  16
#     4  10  21  38  60  87 121 160 202 249 304 366
#     4   7  12  26  51  81 114 155 202 249 293 343
#     4   9  18  35  59  88 123 165 212 257 303 359
#     4  12  26  48  73  94 119 154 204 257 311 369
#     4  12  25  40  61  91 127 162 203 251 309 369
#
# _framework density 20.561944
#
# number of rings (size 3 to 8) (size 9 to 14) (size 15 to 20)
#    0.000    1.875    0.000    6.375    1.750    2.000 
#    0.000    0.625    0.000    6.000    0.000    0.000 
#    0.000    0.000    0.000    0.000    0.000    0.000 
#
# Total GULP energy -396692.502850 kJ/mol
# GULP energy per Si atom -12396.640714 kJ/mol
# Density = 2.051514 g / cm^3
# Si number density = 20.561944 Si / 1000 Ang^3
#
#
#
# Elastic Constant Matrix: (Units=GPa)
#
#
# Indices 1 2 3 4 5 6 
#
# 1 147.4343 59.5347 70.2064 0.0000 0.0000 0.0000
# 2 59.5347 125.4162 42.3525 0.0000 0.0000 0.0000
# 3 70.2064 42.3525 84.2913 0.0000 0.0000 0.0000
# 4 0.0000 0.0000 0.0000 25.1315 0.0000 0.0000
# 5 0.0000 0.0000 0.0000 0.0000 31.4119 0.0000
# 6 0.0000 0.0000 0.0000 0.0000 0.0000 35.6118
#
#
#
# Elastic Compliance Matrix: (Units=1/GPa)
#
#
# Indices 1 2 3 4 5 6 
#
# 1 0.012004 -0.002796 -0.008593 0.000000 0.000000 0.000000
# 2 -0.002796 0.010254 -0.002823 0.000000 0.000000 0.000000
# 3 -0.008593 -0.002823 0.020439 0.000000 0.000000 0.000000
# 4 0.000000 0.000000 0.000000 0.039791 0.000000 0.000000
# 5 0.000000 0.000000 0.000000 0.000000 0.031835 0.000000
# 6 0.000000 0.000000 0.000000 0.000000 0.000000 0.028081
#
#
# Mechanical properties :
#
#
# Convention : Reuss Voigt Hill
#
# Bulk Modulus (GPa) = 70.06592 77.92545 73.99568
# Shear Modulus (GPa) = 28.47615 30.76760 29.62188
#
# Velocity S-wave (km/s) = 3.72546 3.87245 3.79966
# Velocity P-wave (km/s) = 7.25637 7.61411 7.43739
#
# Compressibility (1/GPa) = 0.01427227
#
# Stress axis : x y z
#
# Youngs Moduli (GPa) = 83.30796 97.52058 48.92577
#
# Poissons Ratio (x) = 0.27270 0.42041
# Poissons Ratio (y) = 0.23296 0.13813
# Poissons Ratio (z) = 0.71585 0.27532
#
# Static dielectric constant tensor:
#      x y z
#    x 3.874350 0.000000 0.000000 
#    y 0.000000 3.580300 0.000000 
#    z 0.000000 0.000000 3.764980 
# 
# 
# High freq. dielectric constant tensor:
#      x y z
#    x 1.817810 0.000000 0.000000 
#    y 0.000000 1.787720 0.000000 
#    z 0.000000 0.000000 1.793260 
# 
# From -- ./inp_files/33221.got.cif
#   From: 2010.03.12/outbox.cif.g09.slc.cpg/sg65_17_cif.got.tgz:33221.got - 2010.04.10 20:52:16.
