data_PCOD8273351
_publ_section_title
;
Structure prediction by ZEFSAII (Michael W. Deem and Ramdas Pophale) SiO2 
 PCOD8273351
Probable space group: C M M M
;
_chemical_formula_sum "Si O2"
_cell_formula_units_Z 64
_cell_length_a 8.543694
_cell_length_b 16.449491
_cell_length_c 22.007497
_cell_angle_alpha 90.000000
_cell_angle_beta 90.000000
_cell_angle_gamma 90.000000
_cell_volume 3092.920810
_symmetry_space_group_name_H-M "C M M M"
_symmetry_group_IT_number 65
_symmetry_cell_setting 'orthorhombic'
loop_
_space_group_symop_operation_xyz
x,y,z
-x,-y,z
x,-y,-z
-x,y,-z
-x,-y,-z
x,y,-z
-x,y,z
x,-y,z
1/2+x,1/2+y,z
1/2-x,1/2-y,z
1/2+x,1/2-y,-z
1/2-x,1/2+y,-z
1/2-x,1/2-y,-z
1/2+x,1/2+y,-z
1/2-x,1/2+y,z
1/2+x,1/2-y,z
loop_
_atom_site_type_symbol
_atom_site_label
_atom_site_fract_x
_atom_site_fract_y
_atom_site_fract_z
Si Si1 0.182163 0.665323 0.736436
Si Si2 0.684296 0.339795 0.133613
Si Si3 0.813931 0.838228 0.500000
Si Si4 0.321264 0.000000 0.928255
Si Si5 0.328468 0.592967 0.375581
O O1 0.250000 0.750000 0.712609
O O2 0.271501 0.638707 0.797297
O O3 0.213650 0.603808 0.681657
O O4 0.000000 0.670733 0.752083
O O5 0.500000 0.334529 0.126091
O O6 0.750000 0.250000 0.114432
O O7 0.743889 0.415646 0.093897
O O8 0.750000 0.750000 0.500000
O O9 0.747664 0.877092 0.562084
O O10 0.000000 0.845225 0.500000
O O11 0.500000 0.000000 0.905861
O O12 0.306757 0.000000 0.000000
O O13 0.500000 0.634913 0.364275
O O14 0.358804 0.500000 0.384953
#
# Coordination Sequence:
#
# PCOD8273351 Si02
#       5
#    16  16   8   8  16
#     4  11  22  38  60  87 120 156 201 251 306 367
#     4  11  23  42  68  97 132 173 218 268 322 379
#     4  10  21  37  57  79 107 150 195 246 300 362
#     4  11  25  45  69  99 135 174 217 264 315 377
#     4  10  21  37  57  82 114 151 196 245 303 366
#
# _framework density 20.692416000000001
#
# number of rings (size 3 to 8) (size 9 to 14) (size 15 to 20)
#    0.000    1.375    0.000    7.500    1.750    6.500 
#    0.000    0.000    0.000    2.250    0.000    0.000 
#    0.000    0.000    0.000    0.000    0.000    0.000 
#
# Total GULP energy -396645.396345 kJ/mol
# GULP energy per Si atom -12395.168636 kJ/mol
# Density = 2.064532 g / cm^3
# Si number density = 20.692416 Si / 1000 Ang^3
#
#
#
# Elastic Constant Matrix: (Units=GPa)
#
#
# Indices 1 2 3 4 5 6 
#
# 1 137.6165 54.1326 45.0244 0.0000 0.0000 0.0000
# 2 54.1326 125.2195 60.5473 0.0000 0.0000 0.0000
# 3 45.0244 60.5473 107.0029 0.0000 0.0000 0.0000
# 4 0.0000 0.0000 0.0000 44.7630 0.0000 0.0000
# 5 0.0000 0.0000 0.0000 0.0000 54.4816 0.0000
# 6 0.0000 0.0000 0.0000 0.0000 0.0000 33.8998
#
#
#
# Elastic Compliance Matrix: (Units=1/GPa)
#
#
# Indices 1 2 3 4 5 6 
#
# 1 0.009120 -0.002873 -0.002212 0.000000 0.000000 0.000000
# 2 -0.002873 0.011899 -0.005524 0.000000 0.000000 0.000000
# 3 -0.002212 -0.005524 0.013402 0.000000 0.000000 0.000000
# 4 0.000000 0.000000 0.000000 0.022340 0.000000 0.000000
# 5 0.000000 0.000000 0.000000 0.000000 0.018355 0.000000
# 6 0.000000 0.000000 0.000000 0.000000 0.000000 0.029499
#
#
# Mechanical properties :
#
#
# Convention : Reuss Voigt Hill
#
# Bulk Modulus (GPa) = 75.73922 76.58305 76.16114
# Shear Modulus (GPa) = 38.39226 40.63785 39.51505
#
# Velocity S-wave (km/s) = 4.31208 4.43640 4.37468
# Velocity P-wave (km/s) = 7.84053 7.95819 7.89958
#
# Compressibility (1/GPa) = 0.01320320
#
# Stress axis : x y z
#
# Youngs Moduli (GPa) = 109.64360 84.03947 74.61560
#
# Poissons Ratio (x) = 0.24147 0.16504
# Poissons Ratio (y) = 0.31504 0.41218
# Poissons Ratio (z) = 0.24251 0.46424
#
# Static dielectric constant tensor:
#      x y z
#    x 3.780740 0.000000 0.000000 
#    y 0.000000 3.717950 0.000000 
#    z 0.000000 0.000000 3.710330 
# 
# 
# High freq. dielectric constant tensor:
#      x y z
#    x 1.811450 0.000000 0.000000 
#    y 0.000000 1.814280 0.000000 
#    z 0.000000 0.000000 1.816000 
# 
# From -- ./inp_files/58844.got.cif
#   From: 2010.03.12/outbox.cif.g09.slc.cpg/sg65_30_cif.got.tgz:58844.got - 2010.04.10 20:52:16.
