data_PCOD8273808
_publ_section_title
;
Structure prediction by ZEFSAII (Michael W. Deem and Ramdas Pophale) SiO2 
 PCOD8273808
Probable space group: C M M M
;
_chemical_formula_sum "Si O2"
_cell_formula_units_Z 72
_cell_length_a 16.137481
_cell_length_b 8.849775
_cell_length_c 24.371442
_cell_angle_alpha 90.000000
_cell_angle_beta 90.000000
_cell_angle_gamma 90.000000
_cell_volume 3480.560597
_symmetry_space_group_name_H-M "C M M M"
_symmetry_group_IT_number 65
_symmetry_cell_setting 'orthorhombic'
loop_
_space_group_symop_operation_xyz
x,y,z
-x,-y,z
x,-y,-z
-x,y,-z
-x,-y,-z
x,y,-z
-x,y,z
x,-y,z
1/2+x,1/2+y,z
1/2-x,1/2-y,z
1/2+x,1/2-y,-z
1/2-x,1/2+y,-z
1/2-x,1/2-y,-z
1/2+x,1/2+y,-z
1/2-x,1/2+y,z
1/2+x,1/2-y,z
loop_
_atom_site_type_symbol
_atom_site_label
_atom_site_fract_x
_atom_site_fract_y
_atom_site_fract_z
Si Si1 0.500000 0.327398 0.564900
Si Si2 0.665764 0.322653 0.828878
Si Si3 0.092994 0.330117 0.269542
Si Si4 0.593154 0.320470 0.940512
Si Si5 0.162694 0.321253 0.616084
O O1 0.500000 0.500000 0.586473
O O2 0.500000 0.321224 0.500000
O O3 0.415733 0.247058 0.584456
O O4 0.674011 0.500000 0.832804
O O5 0.750000 0.250000 0.808054
O O6 0.599138 0.280131 0.782738
O O7 0.643770 0.253750 0.889006
O O8 0.112833 0.500000 0.249585
O O9 0.153366 0.283872 0.319177
O O10 0.000000 0.318185 0.292846
O O11 0.500000 0.257992 0.936083
O O12 0.591585 0.500000 0.936684
O O13 0.630990 0.270257 0.000000
O O14 0.164258 0.500000 0.605267
O O15 0.250000 0.250000 0.595755
#
# Coordination Sequence:
#
# PCOD8273808 Si02
#       5
#     8  16  16  16  16
#     4  11  25  45  69  99 133 171 216 263 312 367
#     4  11  22  34  51  79 111 148 192 237 292 355
#     4  10  21  39  61  87 119 154 195 246 304 361
#     4   8  15  30  51  73  99 134 181 236 290 349
#     4  11  23  42  67  97 131 171 215 261 315 373
#
# _framework density 20.686323000000002
#
# number of rings (size 3 to 8) (size 9 to 14) (size 15 to 20)
#    0.000    1.889    1.111    3.667    0.000    6.667 
#    0.000    0.000    0.000    2.000    0.000    7.778 
#    0.000    0.000    0.000    0.000    0.000    0.000 
#
# Total GULP energy -446266.254955 kJ/mol
# GULP energy per Si atom -12396.284860 kJ/mol
# Density = 2.063924 g / cm^3
# Si number density = 20.686323 Si / 1000 Ang^3
#
#
#
# Elastic Constant Matrix: (Units=GPa)
#
#
# Indices 1 2 3 4 5 6 
#
# 1 122.6628 45.1107 42.9396 0.0000 0.0000 0.0000
# 2 45.1107 88.5881 46.0796 0.0000 0.0000 0.0000
# 3 42.9396 46.0796 97.6506 0.0000 0.0000 0.0000
# 4 0.0000 0.0000 0.0000 27.5346 0.0000 0.0000
# 5 0.0000 0.0000 0.0000 0.0000 23.3783 0.0000
# 6 0.0000 0.0000 0.0000 0.0000 0.0000 29.4314
#
#
#
# Elastic Compliance Matrix: (Units=1/GPa)
#
#
# Indices 1 2 3 4 5 6 
#
# 1 0.010577 -0.003932 -0.002796 0.000000 0.000000 0.000000
# 2 -0.003932 0.016422 -0.006020 0.000000 0.000000 0.000000
# 3 -0.002796 -0.006020 0.014311 0.000000 0.000000 0.000000
# 4 0.000000 0.000000 0.000000 0.036318 0.000000 0.000000
# 5 0.000000 0.000000 0.000000 0.000000 0.042775 0.000000
# 6 0.000000 0.000000 0.000000 0.000000 0.000000 0.033977
#
#
# Mechanical properties :
#
#
# Convention : Reuss Voigt Hill
#
# Bulk Modulus (GPa) = 63.23439 64.12903 63.68171
# Shear Modulus (GPa) = 27.00565 27.72031 27.36298
#
# Velocity S-wave (km/s) = 3.61707 3.66461 3.64092
# Velocity P-wave (km/s) = 6.93389 6.99813 6.96608
#
# Compressibility (1/GPa) = 0.01581418
#
# Stress axis : x y z
#
# Youngs Moduli (GPa) = 94.54406 60.89456 69.87754
#
# Poissons Ratio (x) = 0.23943 0.19535
# Poissons Ratio (y) = 0.37174 0.42068
# Poissons Ratio (z) = 0.26431 0.36660
#
# Static dielectric constant tensor:
#      x y z
#    x 3.792320 0.000000 0.000000 
#    y 0.000000 3.543510 0.000000 
#    z 0.000000 0.000000 3.873980 
# 
# 
# High freq. dielectric constant tensor:
#      x y z
#    x 1.811340 0.000000 0.000000 
#    y 0.000000 1.787320 0.000000 
#    z 0.000000 0.000000 1.818090 
# 
# From -- ./inp_files/74613.got.cif
#   From: 2010.03.12/outbox.cif.g09.slc.cpg/sg65_38_cif.got.tgz:74613.got - 2010.04.10 20:52:16.
