data_PCOD8273302
_publ_section_title
;
Structure prediction by ZEFSAII (Michael W. Deem and Ramdas Pophale) SiO2 
 PCOD8273302
Probable space group: C M M M
;
_chemical_formula_sum "Si O2"
_cell_formula_units_Z 104
_cell_length_a 20.726540
_cell_length_b 8.846998
_cell_length_c 30.289454
_cell_angle_alpha 90.000000
_cell_angle_beta 90.000000
_cell_angle_gamma 90.000000
_cell_volume 5554.106240
_symmetry_space_group_name_H-M "C M M M"
_symmetry_group_IT_number 65
_symmetry_cell_setting 'orthorhombic'
loop_
_space_group_symop_operation_xyz
x,y,z
-x,-y,z
x,-y,-z
-x,y,-z
-x,-y,-z
x,y,-z
-x,y,z
x,-y,z
1/2+x,1/2+y,z
1/2-x,1/2-y,z
1/2+x,1/2-y,-z
1/2-x,1/2+y,-z
1/2-x,1/2-y,-z
1/2+x,1/2+y,-z
1/2-x,1/2+y,z
1/2+x,1/2-y,z
loop_
_atom_site_type_symbol
_atom_site_label
_atom_site_fract_x
_atom_site_fract_y
_atom_site_fract_z
Si Si1 0.816531 0.821422 0.550364
Si Si2 0.500000 0.332052 0.948034
Si Si3 0.572496 0.318882 0.385098
Si Si4 0.072353 0.819325 0.195149
Si Si5 0.869045 0.678357 0.050653
Si Si6 0.814235 0.179170 0.132016
Si Si7 0.076022 0.164136 0.709885
O O1 0.829279 0.771458 0.500000
O O2 0.750000 0.750000 0.568029
O O3 0.876536 0.758484 0.578970
O O4 0.810683 0.000000 0.554759
O O5 0.500000 0.500000 0.925901
O O6 0.562038 0.239500 0.932835
O O7 0.500000 0.350399 0.000000
O O8 0.500000 0.263229 0.397691
O O9 0.572824 0.500000 0.382999
O O10 0.594021 0.253195 0.336519
O O11 0.123864 0.761717 0.159377
O O12 0.093178 0.752111 0.243689
O O13 0.000000 0.764279 0.181775
O O14 0.072934 0.000000 0.198351
O O15 0.867091 0.500000 0.056752
O O16 0.817052 0.758141 0.081929
O O17 0.854808 0.724501 0.000000
O O18 0.750000 0.250000 0.153869
O O19 0.809573 0.000000 0.131456
O O20 0.000000 0.139826 0.709500
O O21 0.110390 0.000000 0.710102
#
# Coordination Sequence:
#
# PCOD8273302 Si02
#       7
#    16   8  16  16  16  16  16
#     4   9  17  28  41  59  88 125 161 197 237 284
#     4   9  17  31  53  81 109 135 165 201 241 285
#     4   8  13  22  40  66  91 116 151 198 247 287
#     4   8  15  29  50  74  96 123 161 201 241 288
#     4  10  21  37  56  78 105 135 168 207 249 291
#     4  11  23  37  54  75 104 135 165 204 249 300
#     4   7  10  20  40  66  94 118 146 192 245 290
#
# _framework density 18.724885
#
# number of rings (size 3 to 8) (size 9 to 14) (size 15 to 20)
#    0.000    3.154    0.000    3.000    1.077    2.462 
#    0.000    2.308    0.000    0.462    0.000    3.231 
#    0.000    7.385    0.000    0.000    0.000    0.000 
#
# Total GULP energy -644206.159082 kJ/mol
# GULP energy per Si atom -12388.579982 kJ/mol
# Density = 1.868227 g / cm^3
# Si number density = 18.724885 Si / 1000 Ang^3
#
#
#
# Elastic Constant Matrix: (Units=GPa)
#
#
# Indices 1 2 3 4 5 6 
#
# 1 126.9246 24.0943 77.0810 0.0000 0.0000 0.0000
# 2 24.0943 36.4059 24.7073 0.0000 0.0000 0.0000
# 3 77.0810 24.7073 123.7410 0.0000 0.0000 0.0000
# 4 0.0000 0.0000 0.0000 8.1282 0.0000 0.0000
# 5 0.0000 0.0000 0.0000 0.0000 17.3718 0.0000
# 6 0.0000 0.0000 0.0000 0.0000 0.0000 25.2858
#
#
#
# Elastic Compliance Matrix: (Units=1/GPa)
#
#
# Indices 1 2 3 4 5 6 
#
# 1 0.013072 -0.003615 -0.007421 0.000000 0.000000 0.000000
# 2 -0.003615 0.032773 -0.004292 0.000000 0.000000 0.000000
# 3 -0.007421 -0.004292 0.013561 0.000000 0.000000 0.000000
# 4 0.000000 0.000000 0.000000 0.123029 0.000000 0.000000
# 5 0.000000 0.000000 0.000000 0.000000 0.057565 0.000000
# 6 0.000000 0.000000 0.000000 0.000000 0.000000 0.039548
#
#
# Mechanical properties :
#
#
# Convention : Reuss Voigt Hill
#
# Bulk Modulus (GPa) = 34.78211 59.87074 47.32642
# Shear Modulus (GPa) = 15.63546 20.90309 18.26927
#
# Velocity S-wave (km/s) = 2.89279 3.34477 3.12696
# Velocity P-wave (km/s) = 5.45649 6.85273 6.19408
#
# Compressibility (1/GPa) = 0.02875041
#
# Stress axis : x y z
#
# Youngs Moduli (GPa) = 76.50217 30.51267 73.74122
#
# Poissons Ratio (x) = 0.11030 0.54722
# Poissons Ratio (y) = 0.27655 0.31650
# Poissons Ratio (z) = 0.56770 0.13096
#
# Static dielectric constant tensor:
#      x y z
#    x 3.057330 0.000000 0.000000 
#    y 0.000000 2.935970 0.000000 
#    z 0.000000 0.000000 3.889090 
# 
# 
# High freq. dielectric constant tensor:
#      x y z
#    x 1.712390 0.000000 0.000000 
#    y 0.000000 1.674390 0.000000 
#    z 0.000000 0.000000 1.734890 
# 
# From -- ./inp_files/78259.got.cif
#   From: 2010.03.12/outbox.cif.g09.slc.cpg/sg65_40_cif.got.tgz:78259.got - 2010.04.10 20:52:16.
