data_PCOD8273731
_publ_section_title
;
Structure prediction by ZEFSAII (Michael W. Deem and Ramdas Pophale) SiO2 
 PCOD8273731
Probable space group: C M M M
;
_chemical_formula_sum "Si O2"
_cell_formula_units_Z 72
_cell_length_a 17.481497
_cell_length_b 26.100409
_cell_length_c 7.566014
_cell_angle_alpha 90.000000
_cell_angle_beta 90.000000
_cell_angle_gamma 90.000000
_cell_volume 3452.177149
_symmetry_space_group_name_H-M "C M M M"
_symmetry_group_IT_number 65
_symmetry_cell_setting 'orthorhombic'
loop_
_space_group_symop_operation_xyz
x,y,z
-x,-y,z
x,-y,-z
-x,y,-z
-x,-y,-z
x,y,-z
-x,y,z
x,-y,z
1/2+x,1/2+y,z
1/2-x,1/2-y,z
1/2+x,1/2-y,-z
1/2-x,1/2+y,-z
1/2-x,1/2-y,-z
1/2+x,1/2+y,-z
1/2-x,1/2+y,z
1/2+x,1/2-y,z
loop_
_atom_site_type_symbol
_atom_site_label
_atom_site_fract_x
_atom_site_fract_y
_atom_site_fract_z
Si Si1 0.298881 0.441348 0.299628
Si Si2 0.663169 0.766928 0.697467
Si Si3 0.412498 0.586426 0.000000
Si Si4 0.000000 0.558605 0.289355
Si Si5 0.414622 0.292932 0.000000
Si Si6 0.650115 0.882872 0.709745
O O1 0.319601 0.423650 0.500000
O O2 0.272672 0.500000 0.299848
O O3 0.372592 0.434477 0.176683
O O4 0.227420 0.409598 0.220337
O O5 0.628066 0.763679 0.500000
O O6 0.750000 0.750000 0.692716
O O7 0.622191 0.726808 0.821151
O O8 0.651620 0.824110 0.774796
O O9 0.500000 0.567016 0.000000
O O10 0.407751 0.646857 0.000000
O O11 0.924898 0.588047 0.215618
O O12 0.000000 0.500000 0.219927
O O13 0.000000 0.559315 0.500000
O O14 0.500000 0.272699 0.000000
O O15 0.650149 0.885713 0.500000
#
# Coordination Sequence:
#
# PCOD8273731 Si02
#       6
#    16  16   8   8   8  16
#     4  10  21  39  64  91 120 156 197 241 298 367
#     4  10  21  38  61  87 117 155 202 254 301 354
#     4  11  25  43  61  86 119 154 198 254 310 362
#     4   9  16  28  50  83 123 161 198 243 293 352
#     4  11  25  40  58  84 116 157 200 245 303 360
#     4   9  18  32  56  88 121 158 200 244 296 355
#
# _framework density 20.856404000000001
#
# number of rings (size 3 to 8) (size 9 to 14) (size 15 to 20)
#    0.000    2.111    0.000    2.667    1.556    8.000 
#    0.000    3.333    0.000    0.000    0.000    3.111 
#    0.000    0.000    0.000    0.000    0.000    0.000 
#
# Total GULP energy -446422.839076 kJ/mol
# GULP energy per Si atom -12400.634419 kJ/mol
# Density = 2.080893 g / cm^3
# Si number density = 20.856404 Si / 1000 Ang^3
#
#
#
# Elastic Constant Matrix: (Units=GPa)
#
#
# Indices 1 2 3 4 5 6 
#
# 1 120.8891 24.1818 37.8192 0.0000 0.0000 0.0000
# 2 24.1818 81.3937 12.2587 0.0000 0.0000 0.0000
# 3 37.8192 12.2587 87.1119 0.0000 0.0000 0.0000
# 4 0.0000 0.0000 0.0000 22.6030 0.0000 0.0000
# 5 0.0000 0.0000 0.0000 0.0000 87.1294 0.0000
# 6 0.0000 0.0000 0.0000 0.0000 0.0000 41.1084
#
#
#
# Elastic Compliance Matrix: (Units=1/GPa)
#
#
# Indices 1 2 3 4 5 6 
#
# 1 0.009999 -0.002367 -0.004008 0.000000 0.000000 0.000000
# 2 -0.002367 0.013112 -0.000818 0.000000 0.000000 0.000000
# 3 -0.004008 -0.000818 0.013335 0.000000 0.000000 0.000000
# 4 0.000000 0.000000 0.000000 0.044242 0.000000 0.000000
# 5 0.000000 0.000000 0.000000 0.000000 0.011477 0.000000
# 6 0.000000 0.000000 0.000000 0.000000 0.000000 0.024326
#
#
# Mechanical properties :
#
#
# Convention : Reuss Voigt Hill
#
# Bulk Modulus (GPa) = 45.32911 48.65714 46.99313
# Shear Modulus (GPa) = 36.17143 44.51049 40.34096
#
# Velocity S-wave (km/s) = 4.16902 4.62469 4.40275
# Velocity P-wave (km/s) = 6.70488 7.20397 6.95890
#
# Compressibility (1/GPa) = 0.02206088
#
# Stress axis : x y z
#
# Youngs Moduli (GPa) = 100.00545 76.26394 74.99268
#
# Poissons Ratio (x) = 0.18053 0.30058
# Poissons Ratio (y) = 0.23673 0.06131
# Poissons Ratio (z) = 0.40083 0.06235
#
# Static dielectric constant tensor:
#      x y z
#    x 3.743720 0.000000 0.000000 
#    y 0.000000 3.930970 0.000000 
#    z 0.000000 0.000000 3.815850 
# 
# 
# High freq. dielectric constant tensor:
#      x y z
#    x 1.814940 0.000000 0.000000 
#    y 0.000000 1.830200 0.000000 
#    z 0.000000 0.000000 1.805570 
# 
# From -- ./inp_files/7435.got.cif
#   From: 2010.03.12/outbox.cif.g09.slc.cpg/sg65_4_cif.got.tgz:7435.got - 2010.04.10 20:52:16.
