data_PCOD8273220
_publ_section_title
;
Structure prediction by ZEFSAII (Michael W. Deem and Ramdas Pophale) SiO2 
 PCOD8273220
Probable space group: C M M M
;
_chemical_formula_sum "Si O2"
_cell_formula_units_Z 88
_cell_length_a 17.820901
_cell_length_b 21.179844
_cell_length_c 12.551772
_cell_angle_alpha 90.000000
_cell_angle_beta 90.000000
_cell_angle_gamma 90.000000
_cell_volume 4737.589815
_symmetry_space_group_name_H-M "C M M M"
_symmetry_group_IT_number 65
_symmetry_cell_setting 'orthorhombic'
loop_
_space_group_symop_operation_xyz
x,y,z
-x,-y,z
x,-y,-z
-x,y,-z
-x,-y,-z
x,y,-z
-x,y,z
x,-y,z
1/2+x,1/2+y,z
1/2-x,1/2-y,z
1/2+x,1/2-y,-z
1/2-x,1/2+y,-z
1/2-x,1/2-y,-z
1/2+x,1/2+y,-z
1/2-x,1/2+y,z
1/2+x,1/2-y,z
loop_
_atom_site_type_symbol
_atom_site_label
_atom_site_fract_x
_atom_site_fract_y
_atom_site_fract_z
Si Si1 0.587469 0.738058 0.694721
Si Si2 0.327339 0.792880 0.500000
Si Si3 0.668387 0.606641 0.705043
Si Si4 0.784480 0.572146 0.876085
Si Si5 0.084405 0.000000 0.618279
Si Si6 0.763789 0.427066 0.500000
Si Si7 0.584616 0.165576 0.121733
O O1 0.500000 0.722874 0.672382
O O2 0.621980 0.779980 0.602255
O O3 0.637970 0.676398 0.697086
O O4 0.598277 0.772974 0.806923
O O5 0.250000 0.750000 0.500000
O O6 0.321967 0.868892 0.500000
O O7 0.712962 0.599745 0.814904
O O8 0.598673 0.559552 0.694961
O O9 0.718870 0.584987 0.607309
O O10 0.798886 0.500000 0.843085
O O11 0.859354 0.609899 0.844208
O O12 0.765721 0.578979 0.000000
O O13 0.127874 0.000000 0.500000
O O14 0.000000 0.000000 0.583925
O O15 0.796519 0.500000 0.500000
O O16 0.500000 0.139710 0.137520
O O17 0.598663 0.186531 0.000000
#
# Coordination Sequence:
#
# PCOD8273220 Si02
#       7
#    16   8  16  16   8   8  16
#     4  11  24  39  59  86 118 153 194 243 293 349
#     4  12  23  38  61  87 119 155 195 238 295 353
#     4  12  20  37  58  83 119 152 191 238 288 344
#     4  10  21  36  59  87 116 152 192 239 289 345
#     4  11  22  36  57  85 116 153 197 240 287 342
#     4  12  22  36  57  87 116 154 190 242 292 337
#     4   9  20  39  60  84 115 151 194 243 292 342
#
# _framework density 18.574845
#
# number of rings (size 3 to 8) (size 9 to 14) (size 15 to 20)
#    0.000    1.182    4.545    1.909    0.000    1.091 
#    0.000    3.636    0.000    4.364    0.000    0.000 
#    0.000    0.727    0.000    0.000    0.000    0.000 
#
# Total GULP energy -545325.009969 kJ/mol
# GULP energy per Si atom -12393.750227 kJ/mol
# Density = 1.853257 g / cm^3
# Si number density = 18.574845 Si / 1000 Ang^3
#
#
#
# Elastic Constant Matrix: (Units=GPa)
#
#
# Indices 1 2 3 4 5 6 
#
# 1 74.9993 54.9881 46.2430 0.0000 0.0000 0.0000
# 2 54.9881 156.3660 46.4842 0.0000 0.0000 0.0000
# 3 46.2430 46.4842 81.9330 0.0000 0.0000 0.0000
# 4 0.0000 0.0000 0.0000 35.5187 0.0000 0.0000
# 5 0.0000 0.0000 0.0000 0.0000 40.5478 0.0000
# 6 0.0000 0.0000 0.0000 0.0000 0.0000 51.2314
#
#
#
# Elastic Compliance Matrix: (Units=1/GPa)
#
#
# Indices 1 2 3 4 5 6 
#
# 1 0.023507 -0.005199 -0.010318 0.000000 0.000000 0.000000
# 2 -0.005199 0.008843 -0.002082 0.000000 0.000000 0.000000
# 3 -0.010318 -0.002082 0.019210 0.000000 0.000000 0.000000
# 4 0.000000 0.000000 0.000000 0.028154 0.000000 0.000000
# 5 0.000000 0.000000 0.000000 0.000000 0.024662 0.000000
# 6 0.000000 0.000000 0.000000 0.000000 0.000000 0.019519
#
#
# Mechanical properties :
#
#
# Convention : Reuss Voigt Hill
#
# Bulk Modulus (GPa) = 61.12099 67.63652 64.37876
# Shear Modulus (GPa) = 30.38632 36.49845 33.44239
#
# Velocity S-wave (km/s) = 4.04900 4.43757 4.24773
# Velocity P-wave (km/s) = 7.40512 7.92137 7.66759
#
# Compressibility (1/GPa) = 0.01636099
#
# Stress axis : x y z
#
# Youngs Moduli (GPa) = 42.54016 113.08745 52.05686
#
# Poissons Ratio (x) = 0.58799 0.53710
# Poissons Ratio (y) = 0.22118 0.10840
# Poissons Ratio (z) = 0.43891 0.23548
#
# Static dielectric constant tensor:
#      x y z
#    x 3.524880 0.000000 0.000000 
#    y 0.000000 8.038910 0.000000 
#    z 0.000000 0.000000 3.432040 
# 
# 
# High freq. dielectric constant tensor:
#      x y z
#    x 1.715850 0.000000 0.000000 
#    y 0.000000 1.728740 0.000000 
#    z 0.000000 0.000000 1.729680 
# 
# From -- ./inp_files/26834.got.cif
#   From: 2010.03.12/outbox.cif.g09.slc.cpg/sg65_14_cif.got.tgz:26834.got - 2010.04.10 20:52:16.
