data_PCOD8273454
_publ_section_title
;
Structure prediction by ZEFSAII (Michael W. Deem and Ramdas Pophale) SiO2 
 PCOD8273454
Probable space group: C M M M
;
_chemical_formula_sum "Si O2"
_cell_formula_units_Z 88
_cell_length_a 18.953952
_cell_length_b 24.658835
_cell_length_c 8.939076
_cell_angle_alpha 90.000000
_cell_angle_beta 90.000000
_cell_angle_gamma 90.000000
_cell_volume 4177.966571
_symmetry_space_group_name_H-M "C M M M"
_symmetry_group_IT_number 65
_symmetry_cell_setting 'orthorhombic'
loop_
_space_group_symop_operation_xyz
x,y,z
-x,-y,z
x,-y,-z
-x,y,-z
-x,-y,-z
x,y,-z
-x,y,z
x,-y,z
1/2+x,1/2+y,z
1/2-x,1/2-y,z
1/2+x,1/2-y,-z
1/2-x,1/2+y,-z
1/2-x,1/2-y,-z
1/2+x,1/2+y,-z
1/2-x,1/2+y,z
1/2+x,1/2-y,z
loop_
_atom_site_type_symbol
_atom_site_label
_atom_site_fract_x
_atom_site_fract_y
_atom_site_fract_z
Si Si1 0.141459 0.937772 0.824128
Si Si2 0.205663 0.842049 0.676081
Si Si3 0.920054 0.236935 0.326907
Si Si4 0.079159 0.440254 0.822491
Si Si5 0.500000 0.435862 0.333595
Si Si6 0.347865 0.832139 0.177161
O O1 0.202466 0.901546 0.751457
O O2 0.068235 0.916434 0.755496
O O3 0.156628 0.000000 0.782132
O O4 0.139065 0.929200 0.000000
O O5 0.213105 0.847928 0.500000
O O6 0.135974 0.808729 0.722291
O O7 0.275434 0.813870 0.742296
O O8 0.908661 0.252395 0.500000
O O9 0.908137 0.290121 0.226483
O O10 0.000000 0.215674 0.298880
O O11 0.107362 0.500000 0.771595
O O12 0.129748 0.392156 0.764857
O O13 0.000000 0.431506 0.759351
O O14 0.076380 0.437671 0.000000
O O15 0.500000 0.500000 0.346425
O O16 0.500000 0.409502 0.500000
O O17 0.337676 0.830235 0.000000
#
# Coordination Sequence:
#
# PCOD8273454 Si02
#       6
#    16  16  16  16   8  16
#     4  10  21  37  57  84 118 154 195 247 303 352
#     4  11  24  40  60  85 117 158 204 249 299 364
#     4  10  23  43  64  85 112 150 197 250 305 361
#     4   8  15  30  54  85 119 153 190 232 280 340
#     4   9  17  31  53  79 109 149 193 235 284 347
#     4  11  22  37  60  90 122 155 194 241 300 364
#
# _framework density 21.062878999999999
#
# number of rings (size 3 to 8) (size 9 to 14) (size 15 to 20)
#    0.000    2.091    0.000    3.545    1.273    7.636 
#    0.000    1.818    0.000    1.636    0.000    6.364 
#    0.000    0.000    0.000    0.000    0.000    0.000 
#
# Total GULP energy -545612.525113 kJ/mol
# GULP energy per Si atom -12400.284662 kJ/mol
# Density = 2.101494 g / cm^3
# Si number density = 21.062879 Si / 1000 Ang^3
#
#
#
# Elastic Constant Matrix: (Units=GPa)
#
#
# Indices 1 2 3 4 5 6 
#
# 1 112.3384 43.6620 30.8166 0.0000 0.0000 0.0000
# 2 43.6620 100.5128 41.3104 0.0000 0.0000 0.0000
# 3 30.8166 41.3104 72.2784 0.0000 0.0000 0.0000
# 4 0.0000 0.0000 0.0000 31.0912 0.0000 0.0000
# 5 0.0000 0.0000 0.0000 0.0000 32.7861 0.0000
# 6 0.0000 0.0000 0.0000 0.0000 0.0000 -14.2967
#
#
#
# Elastic Compliance Matrix: (Units=1/GPa)
#
#
# Indices 1 2 3 4 5 6 
#
# 1 0.011065 -0.003748 -0.002575 0.000000 0.000000 0.000000
# 2 -0.003748 0.014273 -0.006560 0.000000 0.000000 0.000000
# 3 -0.002575 -0.006560 0.018683 0.000000 0.000000 0.000000
# 4 0.000000 0.000000 0.000000 0.032163 0.000000 0.000000
# 5 0.000000 0.000000 0.000000 0.000000 0.030501 0.000000
# 6 0.000000 0.000000 0.000000 0.000000 0.000000 -0.069946
#
#
# Mechanical properties :
#
#
# Convention : Reuss Voigt Hill
#
# Bulk Modulus (GPa) = 54.78180 57.41197 56.09689
# Shear Modulus (GPa) = 72.89741 21.20551 47.05146
#
# Velocity S-wave (km/s) = 5.88936 3.17641 4.73150
# Velocity P-wave (km/s) = 8.50360 6.38509 7.51933
#
# Compressibility (1/GPa) = 0.01825424
#
# Stress axis : x y z
#
# Youngs Moduli (GPa) = 90.37599 70.06183 53.52558
#
# Poissons Ratio (x) = 0.26259 0.13785
# Poissons Ratio (y) = 0.33873 0.35111
# Poissons Ratio (z) = 0.23276 0.45959
#
# Static dielectric constant tensor:
#      x y z
#    x 3.856250 0.000000 0.000000 
#    y 0.000000 3.932180 0.000000 
#    z 0.000000 0.000000 3.555510 
# 
# 
# High freq. dielectric constant tensor:
#      x y z
#    x 1.825900 0.000000 0.000000 
#    y 0.000000 1.830390 0.000000 
#    z 0.000000 0.000000 1.805850 
# 
# From -- ./inp_files/11798.got.cif
#   From: 2010.03.12/outbox.cif.g09.slc.cpg/sg65_6_cif.got.tgz:11798.got - 2010.04.10 20:52:16.
