data_PCOD8273491
_publ_section_title
;
Structure prediction by ZEFSAII (Michael W. Deem and Ramdas Pophale) SiO2 
 PCOD8273491
Probable space group: C M M M
;
_chemical_formula_sum "Si O2"
_cell_formula_units_Z 72
_cell_length_a 19.767587
_cell_length_b 19.447834
_cell_length_c 9.300549
_cell_angle_alpha 90.000000
_cell_angle_beta 90.000000
_cell_angle_gamma 90.000000
_cell_volume 3575.472836
_symmetry_space_group_name_H-M "C M M M"
_symmetry_group_IT_number 65
_symmetry_cell_setting 'orthorhombic'
loop_
_space_group_symop_operation_xyz
x,y,z
-x,-y,z
x,-y,-z
-x,y,-z
-x,-y,-z
x,y,-z
-x,y,z
x,-y,z
1/2+x,1/2+y,z
1/2-x,1/2-y,z
1/2+x,1/2-y,-z
1/2-x,1/2+y,-z
1/2-x,1/2-y,-z
1/2+x,1/2+y,-z
1/2-x,1/2+y,z
1/2+x,1/2-y,z
loop_
_atom_site_type_symbol
_atom_site_label
_atom_site_fract_x
_atom_site_fract_y
_atom_site_fract_z
Si Si1 0.080494 0.574868 0.161754
Si Si2 0.134452 0.920130 0.168697
Si Si3 0.000000 0.919415 0.661147
Si Si4 0.806743 0.196262 0.333485
Si Si5 0.575969 0.797572 0.335200
O O1 0.105654 0.500000 0.218545
O O2 0.109751 0.636962 0.256056
O O3 0.000000 0.576823 0.168167
O O4 0.106417 0.585563 0.000000
O O5 0.065880 0.897840 0.249518
O O6 0.194257 0.873001 0.236651
O O7 0.152488 0.000000 0.195537
O O8 0.126149 0.905050 0.000000
O O9 0.000000 0.884863 0.500000
O O10 0.000000 0.000000 0.639677
O O11 0.794813 0.176366 0.500000
O O12 0.750000 0.250000 0.281200
O O13 0.879618 0.230631 0.307821
O O14 0.575363 0.819088 0.500000
O O15 0.500000 0.780878 0.279957
#
# Coordination Sequence:
#
# PCOD8273491 Si02
#       5
#    16  16   8  16  16
#     4   8  14  26  45  70 100 132 167 209 257 312
#     4  10  21  37  58  86 118 150 191 242 293 349
#     4   9  17  31  55  87 119 151 186 229 286 345
#     4  10  22  39  57  79 111 150 191 234 286 349
#     4   9  18  32  51  76 103 133 175 227 278 331
#
# _framework density 20.137198000000001
#
# number of rings (size 3 to 8) (size 9 to 14) (size 15 to 20)
#    0.000    2.778    0.000    1.667    1.556    4.444 
#    0.000    3.333    0.000    6.667    0.000    0.000 
#    0.000    0.000    0.000    0.000    0.000    0.000 
#
# Total GULP energy -446229.980714 kJ/mol
# GULP energy per Si atom -12395.277242 kJ/mol
# Density = 2.009136 g / cm^3
# Si number density = 20.137198 Si / 1000 Ang^3
#
#
#
# Elastic Constant Matrix: (Units=GPa)
#
#
# Indices 1 2 3 4 5 6 
#
# 1 62.4449 36.2845 34.4011 0.0000 0.0000 0.0000
# 2 36.2845 110.0046 64.9217 0.0000 0.0000 0.0000
# 3 34.4011 64.9217 102.6805 0.0000 0.0000 0.0000
# 4 0.0000 0.0000 0.0000 37.8746 0.0000 0.0000
# 5 0.0000 0.0000 0.0000 0.0000 18.4291 0.0000
# 6 0.0000 0.0000 0.0000 0.0000 0.0000 26.0186
#
#
#
# Elastic Compliance Matrix: (Units=1/GPa)
#
#
# Indices 1 2 3 4 5 6 
#
# 1 0.020896 -0.004404 -0.004216 0.000000 0.000000 0.000000
# 2 -0.004404 0.015430 -0.008280 0.000000 0.000000 0.000000
# 3 -0.004216 -0.008280 0.016387 0.000000 0.000000 0.000000
# 4 0.000000 0.000000 0.000000 0.026403 0.000000 0.000000
# 5 0.000000 0.000000 0.000000 0.000000 0.054262 0.000000
# 6 0.000000 0.000000 0.000000 0.000000 0.000000 0.038434
#
#
# Mechanical properties :
#
#
# Convention : Reuss Voigt Hill
#
# Bulk Modulus (GPa) = 52.87801 60.70497 56.79149
# Shear Modulus (GPa) = 23.59413 25.76599 24.68006
#
# Velocity S-wave (km/s) = 3.42668 3.58092 3.50465
# Velocity P-wave (km/s) = 6.47858 6.87811 6.68134
#
# Compressibility (1/GPa) = 0.01891145
#
# Stress axis : x y z
#
# Youngs Moduli (GPa) = 47.85626 64.80827 61.02415
#
# Poissons Ratio (x) = 0.28543 0.25729
# Poissons Ratio (y) = 0.21077 0.50531
# Poissons Ratio (z) = 0.20177 0.53664
#
# Static dielectric constant tensor:
#      x y z
#    x 3.404870 0.000000 0.000000 
#    y 0.000000 3.879130 0.000000 
#    z 0.000000 0.000000 3.669110 
# 
# 
# High freq. dielectric constant tensor:
#      x y z
#    x 1.750760 0.000000 0.000000 
#    y 0.000000 1.794850 0.000000 
#    z 0.000000 0.000000 1.779130 
# 
# From -- ./inp_files/11268.got.cif
#   From: 2010.03.12/outbox.cif.g09.slc.cpg/sg65_6_cif.got.tgz:11268.got - 2010.04.10 20:52:16.
