data_PCOD8273742
_publ_section_title
;
Structure prediction by ZEFSAII (Michael W. Deem and Ramdas Pophale) SiO2 
 PCOD8273742
Probable space group: C M M M
;
_chemical_formula_sum "Si O2"
_cell_formula_units_Z 96
_cell_length_a 25.250789
_cell_length_b 23.260585
_cell_length_c 8.654206
_cell_angle_alpha 90.000000
_cell_angle_beta 90.000000
_cell_angle_gamma 90.000000
_cell_volume 5083.031658
_symmetry_space_group_name_H-M "C M M M"
_symmetry_group_IT_number 65
_symmetry_cell_setting 'orthorhombic'
loop_
_space_group_symop_operation_xyz
x,y,z
-x,-y,z
x,-y,-z
-x,y,-z
-x,-y,-z
x,y,-z
-x,y,z
x,-y,z
1/2+x,1/2+y,z
1/2-x,1/2-y,z
1/2+x,1/2-y,-z
1/2-x,1/2+y,-z
1/2-x,1/2-y,-z
1/2+x,1/2+y,-z
1/2-x,1/2+y,z
1/2+x,1/2-y,z
loop_
_atom_site_type_symbol
_atom_site_label
_atom_site_fract_x
_atom_site_fract_y
_atom_site_fract_z
Si Si1 0.000000 0.932104 0.324691
Si Si2 0.095042 0.866069 0.818581
Si Si3 0.061337 0.748067 0.681317
Si Si4 0.500000 0.936129 0.318016
Si Si5 0.690353 0.933743 0.679390
Si Si6 0.903886 0.632451 0.819960
Si Si7 0.800743 0.065422 0.821877
O O1 0.948599 0.911258 0.234682
O O2 0.000000 0.907499 0.500000
O O3 0.000000 0.000000 0.325485
O O4 0.089038 0.807340 0.725592
O O5 0.151892 0.892296 0.776295
O O6 0.088859 0.854451 0.000000
O O7 0.066147 0.737199 0.500000
O O8 0.092925 0.698574 0.770100
O O9 0.000000 0.748998 0.733701
O O10 0.500000 0.939567 0.500000
O O11 0.447826 0.903487 0.268232
O O12 0.500000 0.000000 0.245691
O O13 0.679241 0.922763 0.500000
O O14 0.653454 0.892434 0.779562
O O15 0.750808 0.917754 0.717065
O O16 0.678880 0.000000 0.724220
O O17 0.914566 0.627170 0.000000
O O18 0.818845 0.000000 0.788840
O O19 0.784443 0.072876 0.000000
#
# Coordination Sequence:
#
# PCOD8273742 Si02
#       7
#     8  16  16   8  16  16  16
#     4  11  23  36  53  82 119 155 193 239 290 347
#     4  11  22  37  60  87 117 152 195 243 293 348
#     4  11  23  40  61  83 115 157 197 240 292 347
#     4  11  23  38  57  84 119 153 187 233 288 347
#     4  10  21  38  61  88 119 156 194 235 288 347
#     4  12  24  38  60  87 116 151 195 242 289 343
#     4   9  19  37  60  87 119 154 192 237 290 345
#
# _framework density 18.886365999999999
#
# number of rings (size 3 to 8) (size 9 to 14) (size 15 to 20)
#    0.000    1.333    1.667    4.500    0.000    7.000 
#    0.000    2.500    0.000    5.000    0.000    0.000 
#    0.000    0.000    0.000    0.000    0.000    0.000 
#
# Total GULP energy -595492.235801 kJ/mol
# GULP energy per Si atom -12406.088246 kJ/mol
# Density = 1.884338 g / cm^3
# Si number density = 18.886366 Si / 1000 Ang^3
#
#
#
# Elastic Constant Matrix: (Units=GPa)
#
#
# Indices 1 2 3 4 5 6 
#
# 1 100.9094 49.3642 27.9300 0.0000 0.0000 0.0000
# 2 49.3642 102.0656 21.3848 0.0000 0.0000 0.0000
# 3 27.9300 21.3848 63.1220 0.0000 0.0000 0.0000
# 4 0.0000 0.0000 0.0000 30.5204 0.0000 0.0000
# 5 0.0000 0.0000 0.0000 0.0000 28.8891 0.0000
# 6 0.0000 0.0000 0.0000 0.0000 0.0000 38.6193
#
#
#
# Elastic Compliance Matrix: (Units=1/GPa)
#
#
# Indices 1 2 3 4 5 6 
#
# 1 0.013935 -0.005864 -0.004179 0.000000 0.000000 0.000000
# 2 -0.005864 0.013014 -0.001814 0.000000 0.000000 0.000000
# 3 -0.004179 -0.001814 0.018306 0.000000 0.000000 0.000000
# 4 0.000000 0.000000 0.000000 0.032765 0.000000 0.000000
# 5 0.000000 0.000000 0.000000 0.000000 0.034615 0.000000
# 6 0.000000 0.000000 0.000000 0.000000 0.000000 0.025894
#
#
# Mechanical properties :
#
#
# Convention : Reuss Voigt Hill
#
# Bulk Modulus (GPa) = 46.42508 51.49500 48.96004
# Shear Modulus (GPa) = 29.51158 30.76695 30.13926
#
# Velocity S-wave (km/s) = 3.95724 4.04054 3.99911
# Velocity P-wave (km/s) = 6.74643 7.00662 6.87776
#
# Compressibility (1/GPa) = 0.02154008
#
# Stress axis : x y z
#
# Youngs Moduli (GPa) = 71.75975 76.84058 54.62620
#
# Poissons Ratio (x) = 0.45061 0.22830
# Poissons Ratio (y) = 0.42081 0.09910
# Poissons Ratio (z) = 0.29991 0.13940
#
# Static dielectric constant tensor:
#      x y z
#    x 4.637130 0.000000 0.000000 
#    y 0.000000 3.524590 0.000000 
#    z 0.000000 0.000000 3.570520 
# 
# 
# High freq. dielectric constant tensor:
#      x y z
#    x 1.734080 0.000000 0.000000 
#    y 0.000000 1.736830 0.000000 
#    z 0.000000 0.000000 1.745790 
# 
# From -- ./inp_files/14342.got.cif
#   From: 2010.03.12/outbox.cif.g09.slc.cpg/sg65_8_cif.got.tgz:14342.got - 2010.04.10 20:52:16.
