data_PCOD8273371
_publ_section_title
;
Structure prediction by ZEFSAII (Michael W. Deem and Ramdas Pophale) SiO2 
 PCOD8273371
Probable space group: C M M M
;
_chemical_formula_sum "Si O2"
_cell_formula_units_Z 72
_cell_length_a 8.867013
_cell_length_b 18.034523
_cell_length_c 23.729632
_cell_angle_alpha 90.000000
_cell_angle_beta 90.000000
_cell_angle_gamma 90.000000
_cell_volume 3794.661215
_symmetry_space_group_name_H-M "C M M M"
_symmetry_group_IT_number 65
_symmetry_cell_setting 'orthorhombic'
loop_
_space_group_symop_operation_xyz
x,y,z
-x,-y,z
x,-y,-z
-x,y,-z
-x,-y,-z
x,y,-z
-x,y,z
x,-y,z
1/2+x,1/2+y,z
1/2-x,1/2-y,z
1/2+x,1/2-y,-z
1/2-x,1/2+y,-z
1/2-x,1/2-y,-z
1/2+x,1/2+y,-z
1/2-x,1/2+y,z
1/2+x,1/2-y,z
loop_
_atom_site_type_symbol
_atom_site_label
_atom_site_fract_x
_atom_site_fract_y
_atom_site_fract_z
Si Si1 0.822213 0.670111 0.000000
Si Si2 0.325637 0.913341 0.888206
Si Si3 0.178248 0.170750 0.788267
Si Si4 0.680440 0.583515 0.319724
Si Si5 0.830949 0.911894 0.559631
O O1 0.750000 0.750000 0.000000
O O2 0.768185 0.625967 0.944944
O O3 0.000000 0.678736 0.000000
O O4 0.500000 0.894590 0.875822
O O5 0.224492 0.885545 0.836985
O O6 0.299848 0.000000 0.896254
O O7 0.250000 0.250000 0.799897
O O8 0.239254 0.138029 0.729007
O O9 0.000000 0.179051 0.787684
O O10 0.500000 0.582505 0.322011
O O11 0.739257 0.500000 0.307271
O O12 0.744392 0.613518 0.380794
O O13 0.749239 0.887274 0.500000
O O14 0.000000 0.880082 0.557186
O O15 0.836806 0.000000 0.562363
#
# Coordination Sequence:
#
# PCOD8273371 Si02
#       5
#     8  16  16  16  16
#     4  10  21  37  57  81 109 140 169 200 242 290
#     4  10  21  38  59  81 105 133 167 207 250 296
#     4  11  22  35  51  72 101 136 172 210 253 300
#     4   8  14  25  42  65  92 122 158 202 250 297
#     4   7   9  15  31  57  87 116 148 191 243 294
#
# _framework density 18.974025999999999
#
# number of rings (size 3 to 8) (size 9 to 14) (size 15 to 20)
#    0.000    2.889    0.000    4.333    0.000    5.333 
#    0.000    0.000    0.000    2.667    0.000    0.000 
#    0.000    2.667    0.000   25.111    0.000   20.667 
#
# Total GULP energy -445988.531596 kJ/mol
# GULP energy per Si atom -12388.570322 kJ/mol
# Density = 1.893084 g / cm^3
# Si number density = 18.974026 Si / 1000 Ang^3
#
#
#
# Elastic Constant Matrix: (Units=GPa)
#
#
# Indices 1 2 3 4 5 6 
#
# 1 28.3557 19.1458 31.0836 0.0000 0.0000 0.0000
# 2 19.1458 83.4404 52.5650 0.0000 0.0000 0.0000
# 3 31.0836 52.5650 186.6857 0.0000 0.0000 0.0000
# 4 0.0000 0.0000 0.0000 11.3671 0.0000 0.0000
# 5 0.0000 0.0000 0.0000 0.0000 -13.3281 0.0000
# 6 0.0000 0.0000 0.0000 0.0000 0.0000 17.1344
#
#
#
# Elastic Compliance Matrix: (Units=1/GPa)
#
#
# Indices 1 2 3 4 5 6 
#
# 1 0.046283 -0.007008 -0.005733 0.000000 0.000000 0.000000
# 2 -0.007008 0.015630 -0.003234 0.000000 0.000000 0.000000
# 3 -0.005733 -0.003234 0.007222 0.000000 0.000000 0.000000
# 4 0.000000 0.000000 0.000000 0.087973 0.000000 0.000000
# 5 0.000000 0.000000 0.000000 0.000000 -0.075029 0.000000
# 6 0.000000 0.000000 0.000000 0.000000 0.000000 0.058362
#
#
# Mechanical properties :
#
#
# Convention : Reuss Voigt Hill
#
# Bulk Modulus (GPa) = 26.89323 56.00784 41.45053
# Shear Modulus (GPa) = 27.05842 16.08050 21.56946
#
# Velocity S-wave (km/s) = 3.78044 2.91435 3.37529
# Velocity P-wave (km/s) = 5.76716 6.39584 6.08962
#
# Compressibility (1/GPa) = 0.03718408
#
# Stress axis : x y z
#
# Youngs Moduli (GPa) = 21.60640 63.97938 138.47075
#
# Poissons Ratio (x) = 0.44838 0.79383
# Poissons Ratio (y) = 0.15142 0.44782
# Poissons Ratio (z) = 0.12387 0.20691
#
# Static dielectric constant tensor:
#      x y z
#    x 3.026160 0.000000 0.000000 
#    y 0.000000 3.247500 0.000000 
#    z 0.000000 0.000000 4.222000 
# 
# 
# High freq. dielectric constant tensor:
#      x y z
#    x 1.681910 0.000000 0.000000 
#    y 0.000000 1.713500 0.000000 
#    z 0.000000 0.000000 1.772450 
# 
# From -- ./inp_files/59266.got.cif
#   From: 2010.03.12/outbox.cif.g09.slc.cpg/sg65_30_cif.got.tgz:59266.got - 2010.04.10 20:52:16.
