data_PCOD8273755
_publ_section_title
;
Structure prediction by ZEFSAII (Michael W. Deem and Ramdas Pophale) SiO2 
 PCOD8273755
Probable space group: C M M M
;
_chemical_formula_sum "Si O2"
_cell_formula_units_Z 80
_cell_length_a 17.826200
_cell_length_b 9.541831
_cell_length_c 23.605599
_cell_angle_alpha 90.000000
_cell_angle_beta 90.000000
_cell_angle_gamma 90.000000
_cell_volume 4015.184631
_symmetry_space_group_name_H-M "C M M M"
_symmetry_group_IT_number 65
_symmetry_cell_setting 'orthorhombic'
loop_
_space_group_symop_operation_xyz
x,y,z
-x,-y,z
x,-y,-z
-x,y,-z
-x,-y,-z
x,y,-z
-x,y,z
x,-y,z
1/2+x,1/2+y,z
1/2-x,1/2-y,z
1/2+x,1/2-y,-z
1/2-x,1/2+y,-z
1/2-x,1/2-y,-z
1/2+x,1/2+y,-z
1/2-x,1/2+y,z
1/2+x,1/2-y,z
loop_
_atom_site_type_symbol
_atom_site_label
_atom_site_fract_x
_atom_site_fract_y
_atom_site_fract_z
Si Si1 0.411574 0.659186 0.651653
Si Si2 0.661115 0.241009 0.875179
Si Si3 0.910735 0.000000 0.934528
Si Si4 0.917498 0.500000 0.934712
Si Si5 0.412748 0.837820 0.241501
Si Si6 0.824161 0.663321 0.433947
O O1 0.500000 0.649935 0.651912
O O2 0.378218 0.500000 0.648372
O O3 0.383296 0.737538 0.708259
O O4 0.390017 0.756106 0.598502
O O5 0.750000 0.250000 0.876945
O O6 0.621023 0.376808 0.897298
O O7 0.636334 0.201511 0.812321
O O8 0.633175 0.129548 0.919744
O O9 0.000000 0.000000 0.933834
O O10 0.882279 0.000000 0.000000
O O11 0.000000 0.500000 0.903667
O O12 0.934474 0.500000 0.000000
O O13 0.500000 0.810296 0.228270
O O14 0.399333 0.000000 0.258291
O O15 0.842988 0.672603 0.500000
O O16 0.816730 0.500000 0.415273
O O17 0.750000 0.750000 0.418513
#
# Coordination Sequence:
#
# PCOD8273755 Si02
#       6
#    16  16   8   8  16  16
#     4  10  22  39  61  92 125 162 208 258 312 368
#     4  12  25  40  62  94 127 158 200 259 319 371
#     4  11  25  43  63  89 123 165 206 247 308 383
#     4  11  23  43  69  91 117 161 212 251 298 377
#     4  10  21  40  64  85 114 160 210 255 305 374
#     4  10  21  38  61  89 124 167 212 259 314 374
#
# _framework density 19.924365000000002
#
# number of rings (size 3 to 8) (size 9 to 14) (size 15 to 20)
#    0.000    1.400    1.000    4.200    1.400    7.600 
#    0.000    4.000    0.000    0.000    0.000    0.000 
#    0.000    0.000    0.000    0.000    0.000    0.000 
#
# Total GULP energy -495886.712157 kJ/mol
# GULP energy per Si atom -12397.167804 kJ/mol
# Density = 1.987902 g / cm^3
# Si number density = 19.924365 Si / 1000 Ang^3
#
#
#
# Elastic Constant Matrix: (Units=GPa)
#
#
# Indices 1 2 3 4 5 6 
#
# 1 88.9224 45.4291 35.5050 0.0000 0.0000 0.0000
# 2 45.4291 181.5321 53.2106 0.0000 0.0000 0.0000
# 3 35.5050 53.2106 82.1954 0.0000 0.0000 0.0000
# 4 0.0000 0.0000 0.0000 41.2298 0.0000 0.0000
# 5 0.0000 0.0000 0.0000 0.0000 16.0083 0.0000
# 6 0.0000 0.0000 0.0000 0.0000 0.0000-4666.6298
#
#
#
# Elastic Compliance Matrix: (Units=1/GPa)
#
#
# Indices 1 2 3 4 5 6 
#
# 1 0.014253 -0.002175 -0.004749 0.000000 0.000000 0.000000
# 2 -0.002175 0.007131 -0.003677 0.000000 0.000000 0.000000
# 3 -0.004749 -0.003677 0.016598 0.000000 0.000000 0.000000
# 4 0.000000 0.000000 0.000000 0.024254 0.000000 0.000000
# 5 0.000000 0.000000 0.000000 0.000000 0.062468 0.000000
# 6 0.000000 0.000000 0.000000 0.000000 0.000000 -0.000214
#
#
# Mechanical properties :
#
#
# Convention : Reuss Voigt Hill
#
# Bulk Modulus (GPa) = 59.59283 68.99324 64.29304
# Shear Modulus (GPa) = 33.05062 -907.31134 -437.13036
#
# Velocity S-wave (km/s) = 4.07726 -21.36273 -14.82805
# Velocity P-wave (km/s) = 7.22079 23.95383 16.15001
#
# Compressibility (1/GPa) = 0.01678054
#
# Stress axis : x y z
#
# Youngs Moduli (GPa) = 70.16083 140.23948 60.24989
#
# Poissons Ratio (x) = 0.30501 0.28611
# Poissons Ratio (y) = 0.15259 0.22152
# Poissons Ratio (z) = 0.33317 0.51562
#
# Static dielectric constant tensor:
#      x y z
#    x 3.623220 0.000000 0.000000 
#    y 0.000000 4.158300 0.000000 
#    z 0.000000 0.000000 3.669270 
# 
# 
# High freq. dielectric constant tensor:
#      x y z
#    x 1.771680 0.000000 0.000000 
#    y 0.000000 1.801120 0.000000 
#    z 0.000000 0.000000 1.784270 
# 
# From -- ./inp_files/75039.got.cif
#   From: 2010.03.12/outbox.cif.g09.slc.cpg/sg65_38_cif.got.tgz:75039.got - 2010.04.10 20:52:16.
