data_PCOD8273156
_publ_section_title
;
Structure prediction by ZEFSAII (Michael W. Deem and Ramdas Pophale) SiO2 
 PCOD8273156
Probable space group: C M M M
;
_chemical_formula_sum "Si O2"
_cell_formula_units_Z 88
_cell_length_a 22.175823
_cell_length_b 22.153000
_cell_length_c 8.935268
_cell_angle_alpha 90.000000
_cell_angle_beta 90.000000
_cell_angle_gamma 90.000000
_cell_volume 4389.548755
_symmetry_space_group_name_H-M "C M M M"
_symmetry_group_IT_number 65
_symmetry_cell_setting 'orthorhombic'
loop_
_space_group_symop_operation_xyz
x,y,z
-x,-y,z
x,-y,-z
-x,y,-z
-x,-y,-z
x,y,-z
-x,y,z
x,-y,z
1/2+x,1/2+y,z
1/2-x,1/2-y,z
1/2+x,1/2-y,-z
1/2-x,1/2+y,-z
1/2-x,1/2-y,-z
1/2+x,1/2+y,-z
1/2-x,1/2+y,z
1/2+x,1/2-y,z
loop_
_atom_site_type_symbol
_atom_site_label
_atom_site_fract_x
_atom_site_fract_y
_atom_site_fract_z
Si Si1 0.343884 0.596027 0.826098
Si Si2 0.070985 0.000000 0.322540
Si Si3 0.379172 0.290637 0.676833
Si Si4 0.500000 0.709864 0.831693
Si Si5 0.620603 0.153170 0.675120
Si Si6 0.209069 0.567136 0.169169
Si Si7 0.500000 0.852857 0.833715
O O1 0.396927 0.559380 0.744131
O O2 0.333528 0.662790 0.754979
O O3 0.280342 0.563236 0.802121
O O4 0.360894 0.601241 0.000000
O O5 0.079489 0.000000 0.500000
O O6 0.000000 0.000000 0.279027
O O7 0.376270 0.297605 0.500000
O O8 0.443382 0.313106 0.738201
O O9 0.365619 0.221907 0.726902
O O10 0.500000 0.781413 0.838249
O O11 0.500000 0.682933 0.000000
O O12 0.609056 0.151626 0.500000
O O13 0.677714 0.112924 0.717122
O O14 0.560559 0.125535 0.750550
O O15 0.182991 0.500000 0.195409
O O16 0.195773 0.589097 0.000000
O O17 0.500000 0.880761 0.000000
#
# Coordination Sequence:
#
# PCOD8273156 Si02
#       7
#    16   8  16   8  16  16   8
#     4  11  23  41  63  87 118 157 205 251 293 349
#     4  11  25  43  63  89 123 162 203 250 304 352
#     4  10  21  36  55  85 122 156 193 242 299 353
#     4   9  17  31  53  81 113 153 197 234 284 349
#     4  10  21  37  60  90 123 157 194 242 297 356
#     4  10  22  42  63  84 114 154 200 247 297 354
#     4   9  17  33  58  86 118 154 191 235 288 345
#
# _framework density 20.047618
#
# number of rings (size 3 to 8) (size 9 to 14) (size 15 to 20)
#    0.000    1.909    0.909    2.455    1.273    7.636 
#    0.000    4.091    0.000    2.727    0.000    0.000 
#    0.000    0.000    0.000    0.000    0.000    0.000 
#
# Total GULP energy -545591.997536 kJ/mol
# GULP energy per Si atom -12399.818126 kJ/mol
# Density = 2.000199 g / cm^3
# Si number density = 20.047618 Si / 1000 Ang^3
#
#
#
# Elastic Constant Matrix: (Units=GPa)
#
#
# Indices 1 2 3 4 5 6 
#
# 1 81.6616 43.6496 44.3509 0.0000 0.0000 0.0000
# 2 43.6496 97.8881 46.4588 0.0000 0.0000 0.0000
# 3 44.3509 46.4588 105.3176 0.0000 0.0000 0.0000
# 4 0.0000 0.0000 0.0000 33.0910 0.0000 0.0000
# 5 0.0000 0.0000 0.0000 0.0000 31.5605 0.0000
# 6 0.0000 0.0000 0.0000 0.0000 0.0000 28.3520
#
#
#
# Elastic Compliance Matrix: (Units=1/GPa)
#
#
# Indices 1 2 3 4 5 6 
#
# 1 0.018021 -0.005608 -0.005115 0.000000 0.000000 0.000000
# 2 -0.005608 0.014666 -0.004108 0.000000 0.000000 0.000000
# 3 -0.005115 -0.004108 0.013461 0.000000 0.000000 0.000000
# 4 0.000000 0.000000 0.000000 0.030220 0.000000 0.000000
# 5 0.000000 0.000000 0.000000 0.000000 0.031685 0.000000
# 6 0.000000 0.000000 0.000000 0.000000 0.000000 0.035271
#
#
# Mechanical properties :
#
#
# Convention : Reuss Voigt Hill
#
# Bulk Modulus (GPa) = 60.65688 61.53180 61.09434
# Shear Modulus (GPa) = 28.01387 28.62791 28.32089
#
# Velocity S-wave (km/s) = 3.74219 3.78298 3.76264
# Velocity P-wave (km/s) = 6.99958 7.05980 7.02975
#
# Compressibility (1/GPa) = 0.01648618
#
# Stress axis : x y z
#
# Youngs Moduli (GPa) = 55.48939 68.18369 74.28699
#
# Poissons Ratio (x) = 0.38240 0.37999
# Poissons Ratio (y) = 0.31120 0.30517
# Poissons Ratio (z) = 0.28384 0.28010
#
# Static dielectric constant tensor:
#      x y z
#    x 3.631850 0.000000 0.000000 
#    y 0.000000 3.538300 0.000000 
#    z 0.000000 0.000000 3.680750 
# 
# 
# High freq. dielectric constant tensor:
#      x y z
#    x 1.774810 0.000000 0.000000 
#    y 0.000000 1.775280 0.000000 
#    z 0.000000 0.000000 1.790540 
# 
# From -- ./inp_files/11892.got.cif
#   From: 2010.03.12/outbox.cif.g09.slc.cpg/sg65_6_cif.got.tgz:11892.got - 2010.04.10 20:52:16.
