data_PCOD8273285
_publ_section_title
;
Structure prediction by ZEFSAII (Michael W. Deem and Ramdas Pophale) SiO2 
 PCOD8273285
Probable space group: C M M M
;
_chemical_formula_sum "Si O2"
_cell_formula_units_Z 120
_cell_length_a 26.416383
_cell_length_b 9.028158
_cell_length_c 27.101194
_cell_angle_alpha 90.000000
_cell_angle_beta 90.000000
_cell_angle_gamma 90.000000
_cell_volume 6463.398433
_symmetry_space_group_name_H-M "C M M M"
_symmetry_group_IT_number 65
_symmetry_cell_setting 'orthorhombic'
loop_
_space_group_symop_operation_xyz
x,y,z
-x,-y,z
x,-y,-z
-x,y,-z
-x,-y,-z
x,y,-z
-x,y,z
x,-y,z
1/2+x,1/2+y,z
1/2-x,1/2-y,z
1/2+x,1/2-y,-z
1/2-x,1/2+y,-z
1/2-x,1/2-y,-z
1/2+x,1/2+y,-z
1/2-x,1/2+y,z
1/2+x,1/2-y,z
loop_
_atom_site_type_symbol
_atom_site_label
_atom_site_fract_x
_atom_site_fract_y
_atom_site_fract_z
Si Si1 0.108040 0.323945 0.400650
Si Si2 0.943404 0.323962 0.055601
Si Si3 0.378887 0.329222 0.701367
Si Si4 0.628473 0.832374 0.139901
Si Si5 0.802370 0.173096 0.788966
Si Si6 0.555964 0.836933 0.231146
Si Si7 0.701555 0.664736 0.442756
Si Si8 0.500000 0.175665 0.556331
O O1 0.111127 0.500000 0.403830
O O2 0.125436 0.270246 0.346924
O O3 0.149330 0.254882 0.437316
O O4 0.051139 0.269061 0.415556
O O5 0.944286 0.500000 0.060698
O O6 0.899218 0.262231 0.091687
O O7 0.000000 0.264167 0.068994
O O8 0.929417 0.275423 0.000000
O O9 0.378632 0.500000 0.686058
O O10 0.335256 0.288671 0.740586
O O11 0.430925 0.286941 0.728446
O O12 0.675090 0.733880 0.159221
O O13 0.587429 0.827869 0.182110
O O14 0.647625 0.000000 0.129781
O O15 0.750000 0.250000 0.778102
O O16 0.795048 0.000000 0.795665
O O17 0.500000 0.805822 0.213041
O O18 0.561985 0.000000 0.255793
O O19 0.712399 0.645732 0.500000
O O20 0.697217 0.500000 0.418523
O O21 0.750000 0.750000 0.418613
O O22 0.500000 0.236792 0.500000
O O23 0.500000 0.000000 0.555280
#
# Coordination Sequence:
#
# PCOD8273285 Si02
#       8
#    16  16  16  16  16  16  16   8
#     4  11  22  37  59  84 112 146 184 225 270 321
#     4   8  13  22  41  73 110 143 176 216 261 309
#     4  10  22  37  51  74 105 135 169 210 262 317
#     4   9  16  28  48  74 102 134 173 215 260 309
#     4  10  21  37  56  75  99 132 172 219 269 324
#     4   9  17  29  47  70  98 132 171 210 249 301
#     4  10  21  38  60  85 111 139 174 218 268 320
#     4   9  20  38  59  83 111 147 189 227 264 313
#
# _framework density 18.566085000000001
#
# number of rings (size 3 to 8) (size 9 to 14) (size 15 to 20)
#    0.000    2.467    0.000    2.800    0.933    5.333 
#    0.000    2.333    0.000    4.400    0.000    0.933 
#    0.000    0.000    0.000    0.000    0.000    0.000 
#
# Total GULP energy -743600.904612 kJ/mol
# GULP energy per Si atom -12393.348410 kJ/mol
# Density = 1.852383 g / cm^3
# Si number density = 18.566085 Si / 1000 Ang^3
#
#
#
# Elastic Constant Matrix: (Units=GPa)
#
#
# Indices 1 2 3 4 5 6 
#
# 1 108.7878 50.8375 29.7674 0.0000 0.0000 0.0000
# 2 50.8375 79.1355 34.7318 0.0000 0.0000 0.0000
# 3 29.7674 34.7318 77.9228 0.0000 0.0000 0.0000
# 4 0.0000 0.0000 0.0000 17.7606 0.0000 0.0000
# 5 0.0000 0.0000 0.0000 0.0000 6.4870 0.0000
# 6 0.0000 0.0000 0.0000 0.0000 0.0000 21.8470
#
#
#
# Elastic Compliance Matrix: (Units=1/GPa)
#
#
# Indices 1 2 3 4 5 6 
#
# 1 0.013290 -0.007844 -0.001581 0.000000 0.000000 0.000000
# 2 -0.007844 0.020339 -0.006069 0.000000 0.000000 0.000000
# 3 -0.001581 -0.006069 0.016142 0.000000 0.000000 0.000000
# 4 0.000000 0.000000 0.000000 0.056304 0.000000 0.000000
# 5 0.000000 0.000000 0.000000 0.000000 0.154154 0.000000
# 6 0.000000 0.000000 0.000000 0.000000 0.000000 0.045773
#
#
# Mechanical properties :
#
#
# Convention : Reuss Voigt Hill
#
# Bulk Modulus (GPa) = 53.23705 55.16885 54.20295
# Shear Modulus (GPa) = 14.56653 19.25289 16.90971
#
# Velocity S-wave (km/s) = 2.80407 3.22373 3.02120
# Velocity P-wave (km/s) = 6.26262 6.60575 6.43647
#
# Compressibility (1/GPa) = 0.01878391
#
# Stress axis : x y z
#
# Youngs Moduli (GPa) = 75.24245 49.16574 61.94927
#
# Poissons Ratio (x) = 0.38566 0.09793
# Poissons Ratio (y) = 0.59021 0.37598
# Poissons Ratio (z) = 0.11894 0.29839
#
# Static dielectric constant tensor:
#      x y z
#    x 3.608550 0.000000 0.000000 
#    y 0.000000 3.446930 0.000000 
#    z 0.000000 0.000000 3.491440 
# 
# 
# High freq. dielectric constant tensor:
#      x y z
#    x 1.719710 0.000000 0.000000 
#    y 0.000000 1.702980 0.000000 
#    z 0.000000 0.000000 1.711240 
# 
# From -- ./inp_files/76130.got.cif
#   From: 2010.03.12/outbox.cif.g09.slc.cpg/sg65_39_cif.got.tgz:76130.got - 2010.04.10 20:52:16.
