data_PCOD8273376
_publ_section_title
;
Structure prediction by ZEFSAII (Michael W. Deem and Ramdas Pophale) SiO2 
 PCOD8273376
Probable space group: C M M M
;
_chemical_formula_sum "Si O2"
_cell_formula_units_Z 88
_cell_length_a 18.025118
_cell_length_b 8.963821
_cell_length_c 28.921763
_cell_angle_alpha 90.000000
_cell_angle_beta 90.000000
_cell_angle_gamma 90.000000
_cell_volume 4673.002947
_symmetry_space_group_name_H-M "C M M M"
_symmetry_group_IT_number 65
_symmetry_cell_setting 'orthorhombic'
loop_
_space_group_symop_operation_xyz
x,y,z
-x,-y,z
x,-y,-z
-x,y,-z
-x,-y,-z
x,y,-z
-x,y,z
x,-y,z
1/2+x,1/2+y,z
1/2-x,1/2-y,z
1/2+x,1/2-y,-z
1/2-x,1/2+y,-z
1/2-x,1/2-y,-z
1/2+x,1/2+y,-z
1/2-x,1/2+y,z
1/2+x,1/2-y,z
loop_
_atom_site_type_symbol
_atom_site_label
_atom_site_fract_x
_atom_site_fract_y
_atom_site_fract_z
Si Si1 0.829252 0.324810 0.000000
Si Si2 0.170510 0.176625 0.173785
Si Si3 0.586837 0.827461 0.907965
Si Si4 0.417192 0.677336 0.736659
Si Si5 0.671239 0.325752 0.548823
Si Si6 0.670218 0.323835 0.351392
O O1 0.750000 0.250000 0.000000
O O2 0.874507 0.273774 0.955031
O O3 0.817485 0.500000 0.000000
O O4 0.250000 0.250000 0.166890
O O5 0.116230 0.224797 0.132997
O O6 0.134636 0.233844 0.221699
O O7 0.179925 0.000000 0.173120
O O8 0.500000 0.800772 0.913794
O O9 0.604910 0.000000 0.897123
O O10 0.500000 0.743371 0.742626
O O11 0.420762 0.500000 0.736667
O O12 0.384114 0.737691 0.688281
O O13 0.628438 0.283015 0.500000
O O14 0.685952 0.500000 0.549323
O O15 0.750000 0.250000 0.547803
O O16 0.633167 0.282657 0.598063
O O17 0.681053 0.500000 0.345951
O O18 0.750000 0.250000 0.345370
#
# Coordination Sequence:
#
# PCOD8273376 Si02
#       6
#     8  16  16  16  16  16
#     4  10  21  37  57  81 109 142 177 212 250 292
#     4  11  22  36  55  78 104 133 168 210 253 299
#     4  10  21  38  59  82 109 140 173 209 251 298
#     4   9  18  32  49  69  94 126 162 198 240 292
#     4   8  13  21  35  58  86 113 144 185 231 277
#     4   9  16  27  45  66  89 119 154 193 236 283
#
# _framework density 18.831572999999999
#
# number of rings (size 3 to 8) (size 9 to 14) (size 15 to 20)
#    0.000    2.545    0.000    2.455    0.000    4.364 
#    0.000    0.909    0.000    4.909    0.000    3.818 
#    0.000    0.000    0.000   29.455    0.000   13.818 
#
# Total GULP energy -545193.656679 kJ/mol
# GULP energy per Si atom -12390.764925 kJ/mol
# Density = 1.878871 g / cm^3
# Si number density = 18.831573 Si / 1000 Ang^3
#
#
#
# Elastic Constant Matrix: (Units=GPa)
#
#
# Indices 1 2 3 4 5 6 
#
# 1 98.5124 22.0632 56.2810 0.0000 0.0000 0.0000
# 2 22.0632 29.1412 32.2487 0.0000 0.0000 0.0000
# 3 56.2810 32.2487 182.6294 0.0000 0.0000 0.0000
# 4 0.0000 0.0000 0.0000 21.0457 0.0000 0.0000
# 5 0.0000 0.0000 0.0000 0.0000 16.6352 0.0000
# 6 0.0000 0.0000 0.0000 0.0000 0.0000 20.4348
#
#
#
# Elastic Compliance Matrix: (Units=1/GPa)
#
#
# Indices 1 2 3 4 5 6 
#
# 1 0.013351 -0.006904 -0.002895 0.000000 0.000000 0.000000
# 2 -0.006904 0.046220 -0.006034 0.000000 0.000000 0.000000
# 3 -0.002895 -0.006034 0.007433 0.000000 0.000000 0.000000
# 4 0.000000 0.000000 0.000000 0.047516 0.000000 0.000000
# 5 0.000000 0.000000 0.000000 0.000000 0.060113 0.000000
# 6 0.000000 0.000000 0.000000 0.000000 0.000000 0.048936
#
#
# Mechanical properties :
#
#
# Convention : Reuss Voigt Hill
#
# Bulk Modulus (GPa) = 28.29829 59.05208 43.67518
# Shear Modulus (GPa) = 18.72540 24.93581 21.83061
#
# Velocity S-wave (km/s) = 3.15677 3.64283 3.40848
# Velocity P-wave (km/s) = 5.32415 7.00855 6.22360
#
# Compressibility (1/GPa) = 0.03533783
#
# Stress axis : x y z
#
# Youngs Moduli (GPa) = 74.89801 21.63548 134.53004
#
# Poissons Ratio (x) = 0.14938 0.38951
# Poissons Ratio (y) = 0.51713 0.81173
# Poissons Ratio (z) = 0.21686 0.13054
#
# Static dielectric constant tensor:
#      x y z
#    x 3.283370 0.000000 0.000000 
#    y 0.000000 3.295980 0.000000 
#    z 0.000000 0.000000 4.224050 
# 
# 
# High freq. dielectric constant tensor:
#      x y z
#    x 1.708130 0.000000 0.000000 
#    y 0.000000 1.707220 0.000000 
#    z 0.000000 0.000000 1.764750 
# 
# From -- ./inp_files/76452.got.cif
#   From: 2010.03.12/outbox.cif.g09.slc.cpg/sg65_39_cif.got.tgz:76452.got - 2010.04.10 20:52:16.
