data_PCOD8273373
_publ_section_title
;
Structure prediction by ZEFSAII (Michael W. Deem and Ramdas Pophale) SiO2 
 PCOD8273373
Probable space group: C M M M
;
_chemical_formula_sum "Si O2"
_cell_formula_units_Z 64
_cell_length_a 18.057804
_cell_length_b 8.879699
_cell_length_c 20.866471
_cell_angle_alpha 90.000000
_cell_angle_beta 90.000000
_cell_angle_gamma 90.000000
_cell_volume 3345.894057
_symmetry_space_group_name_H-M "C M M M"
_symmetry_group_IT_number 65
_symmetry_cell_setting 'orthorhombic'
loop_
_space_group_symop_operation_xyz
x,y,z
-x,-y,z
x,-y,-z
-x,y,-z
-x,-y,-z
x,y,-z
-x,y,z
x,-y,z
1/2+x,1/2+y,z
1/2-x,1/2-y,z
1/2+x,1/2-y,-z
1/2-x,1/2+y,-z
1/2-x,1/2-y,-z
1/2+x,1/2+y,-z
1/2-x,1/2+y,z
1/2+x,1/2-y,z
loop_
_atom_site_type_symbol
_atom_site_label
_atom_site_fract_x
_atom_site_fract_y
_atom_site_fract_z
Si Si1 0.587902 0.664933 0.500000
Si Si2 0.413483 0.825807 0.872986
Si Si3 0.829043 0.178048 0.240267
Si Si4 0.829717 0.322522 0.000000
Si Si5 0.916851 0.819796 0.637348
O O1 0.625071 0.500000 0.500000
O O2 0.500000 0.647625 0.500000
O O3 0.610193 0.745939 0.567463
O O4 0.500000 0.799499 0.882300
O O5 0.385693 0.724905 0.814708
O O6 0.395074 0.000000 0.858813
O O7 0.373938 0.768815 0.937430
O O8 0.750000 0.250000 0.226800
O O9 0.861190 0.238175 0.307989
O O10 0.820769 0.000000 0.240438
O O11 0.750000 0.250000 0.000000
O O12 0.820741 0.500000 0.000000
O O13 0.000000 0.762190 0.653240
O O14 0.917559 0.000000 0.633961
#
# Coordination Sequence:
#
# PCOD8273373 Si02
#       5
#     8  16  16   8  16
#     4   7  10  20  41  68  95 123 160 207 256 303
#     4  10  21  38  59  81 105 135 172 213 257 305
#     4  11  22  35  51  74 106 140 175 215 259 307
#     4  10  21  37  57  81 109 140 171 206 250 300
#     4   8  14  26  46  71  97 127 166 212 258 304
#
# _framework density 19.127921000000001
#
# number of rings (size 3 to 8) (size 9 to 14) (size 15 to 20)
#    0.000    2.625    0.000    4.125    0.000    6.000 
#    0.000    0.625    0.000    2.250    0.000    2.625 
#    0.000   14.000    0.000    0.000    0.000    0.000 
#
# Total GULP energy -396615.833956 kJ/mol
# GULP energy per Si atom -12394.244811 kJ/mol
# Density = 1.908438 g / cm^3
# Si number density = 19.127921 Si / 1000 Ang^3
#
#
#
# Elastic Constant Matrix: (Units=GPa)
#
#
# Indices 1 2 3 4 5 6 
#
# 1 97.7922 23.4213 56.6922 0.0000 0.0000 0.0000
# 2 23.4213 33.5194 33.8002 0.0000 0.0000 0.0000
# 3 56.6922 33.8002 171.8403 0.0000 0.0000 0.0000
# 4 0.0000 0.0000 0.0000 -21.4142 0.0000 0.0000
# 5 0.0000 0.0000 0.0000 0.0000 20.4587 0.0000
# 6 0.0000 0.0000 0.0000 0.0000 0.0000 19.8078
#
#
#
# Elastic Compliance Matrix: (Units=1/GPa)
#
#
# Indices 1 2 3 4 5 6 
#
# 1 0.013608 -0.006214 -0.003267 0.000000 0.000000 0.000000
# 2 -0.006214 0.040052 -0.005828 0.000000 0.000000 0.000000
# 3 -0.003267 -0.005828 0.008044 0.000000 0.000000 0.000000
# 4 0.000000 0.000000 0.000000 -0.046698 0.000000 0.000000
# 5 0.000000 0.000000 0.000000 0.000000 0.048879 0.000000
# 6 0.000000 0.000000 0.000000 0.000000 0.000000 0.050485
#
#
# Mechanical properties :
#
#
# Convention : Reuss Voigt Hill
#
# Bulk Modulus (GPa) = 32.16928 58.99769 45.58349
# Shear Modulus (GPa) = 32.18534 16.38634 24.28584
#
# Velocity S-wave (km/s) = 4.10645 2.93007 3.56709
# Velocity P-wave (km/s) = 6.27203 6.50829 6.39125
#
# Compressibility (1/GPa) = 0.03108556
#
# Stress axis : x y z
#
# Youngs Moduli (GPa) = 73.48574 24.96740 124.32238
#
# Poissons Ratio (x) = 0.15515 0.40619
# Poissons Ratio (y) = 0.45663 0.72456
# Poissons Ratio (z) = 0.24009 0.14551
#
# Static dielectric constant tensor:
#      x y z
#    x 3.380740 0.000000 0.000000 
#    y 0.000000 3.119610 0.000000 
#    z 0.000000 0.000000 4.067020 
# 
# 
# High freq. dielectric constant tensor:
#      x y z
#    x 1.734370 0.000000 0.000000 
#    y 0.000000 1.697930 0.000000 
#    z 0.000000 0.000000 1.771440 
# 
# From -- ./inp_files/58864.got.cif
#   From: 2010.03.12/outbox.cif.g09.slc.cpg/sg65_30_cif.got.tgz:58864.got - 2010.04.10 20:52:16.
