data_PCOD8273672
_publ_section_title
;
Structure prediction by ZEFSAII (Michael W. Deem and Ramdas Pophale) SiO2 
 PCOD8273672
Probable space group: C M M M
;
_chemical_formula_sum "Si O2"
_cell_formula_units_Z 104
_cell_length_a 26.184020
_cell_length_b 23.597713
_cell_length_c 8.614925
_cell_angle_alpha 90.000000
_cell_angle_beta 90.000000
_cell_angle_gamma 90.000000
_cell_volume 5323.015610
_symmetry_space_group_name_H-M "C M M M"
_symmetry_group_IT_number 65
_symmetry_cell_setting 'orthorhombic'
loop_
_space_group_symop_operation_xyz
x,y,z
-x,-y,z
x,-y,-z
-x,y,-z
-x,-y,-z
x,y,-z
-x,y,z
x,-y,z
1/2+x,1/2+y,z
1/2-x,1/2-y,z
1/2+x,1/2-y,-z
1/2-x,1/2+y,-z
1/2-x,1/2-y,-z
1/2+x,1/2+y,-z
1/2-x,1/2+y,z
1/2+x,1/2-y,z
loop_
_atom_site_type_symbol
_atom_site_label
_atom_site_fract_x
_atom_site_fract_y
_atom_site_fract_z
Si Si1 0.940607 0.562163 0.829854
Si Si2 0.820011 0.064440 0.681086
Si Si3 0.211415 0.564565 0.820062
Si Si4 0.941327 0.254664 0.316395
Si Si5 0.373608 0.142002 0.323726
Si Si6 0.907015 0.137159 0.182423
Si Si7 0.000000 0.062368 0.184249
O O1 0.916010 0.500000 0.823044
O O2 0.919593 0.597384 0.685702
O O3 0.000000 0.558184 0.808220
O O4 0.926587 0.588597 0.000000
O O5 0.829679 0.073806 0.500000
O O6 0.761249 0.076626 0.718329
O O7 0.852760 0.109964 0.776298
O O8 0.834413 0.000000 0.730864
O O9 0.191551 0.500000 0.785068
O O10 0.171604 0.614594 0.778439
O O11 0.225618 0.570394 0.000000
O O12 0.944399 0.259550 0.500000
O O13 0.899686 0.300726 0.255000
O O14 0.916722 0.195620 0.268748
O O15 0.000000 0.262265 0.250092
O O16 0.354771 0.149998 0.500000
O O17 0.949966 0.094238 0.244015
O O18 0.910793 0.148149 0.000000
O O19 0.000000 0.000000 0.258702
O O20 0.000000 0.058867 0.000000
#
# Coordination Sequence:
#
# PCOD8273672 Si02
#       7
#    16  16  16  16  16  16   8
#     4   9  18  32  49  72 104 140 179 230 290 346
#     4  10  21  38  61  89 120 153 187 227 282 346
#     4  10  21  38  60  86 116 150 189 238 293 344
#     4  10  22  40  58  78 113 157 197 240 288 339
#     4  11  22  35  54  80 109 147 193 239 289 343
#     4  11  21  36  59  87 118 153 192 234 282 336
#     4   9  18  32  53  85 121 149 178 223 276 331
#
# _framework density 19.537797000000001
#
# number of rings (size 3 to 8) (size 9 to 14) (size 15 to 20)
#    0.000    1.923    0.769    3.692    0.000    6.769 
#    0.000    1.538    0.000    6.462    0.000    0.000 
#    0.000    0.000    0.000    0.000    0.000    0.000 
#
# Total GULP energy -644418.290385 kJ/mol
# GULP energy per Si atom -12392.659430 kJ/mol
# Density = 1.949333 g / cm^3
# Si number density = 19.537797 Si / 1000 Ang^3
#
#
#
# Elastic Constant Matrix: (Units=GPa)
#
#
# Indices 1 2 3 4 5 6 
#
# 1 93.1341 61.8778 9.7150 0.0000 0.0000 0.0000
# 2 61.8778 116.6835 10.1447 0.0000 0.0000 0.0000
# 3 9.7150 10.1447 25.7943 0.0000 0.0000 0.0000
# 4 0.0000 0.0000 0.0000 26.2139 0.0000 0.0000
# 5 0.0000 0.0000 0.0000 0.0000 30.5025 0.0000
# 6 0.0000 0.0000 0.0000 0.0000 0.0000 52.8107
#
#
#
# Elastic Compliance Matrix: (Units=1/GPa)
#
#
# Indices 1 2 3 4 5 6 
#
# 1 0.016788 -0.008649 -0.002921 0.000000 0.000000 0.000000
# 2 -0.008649 0.013329 -0.001985 0.000000 0.000000 0.000000
# 3 -0.002921 -0.001985 0.040649 0.000000 0.000000 0.000000
# 4 0.000000 0.000000 0.000000 0.038148 0.000000 0.000000
# 5 0.000000 0.000000 0.000000 0.000000 0.032784 0.000000
# 6 0.000000 0.000000 0.000000 0.000000 0.000000 0.018936
#
#
# Mechanical properties :
#
#
# Convention : Reuss Voigt Hill
#
# Bulk Modulus (GPa) = 22.90620 44.34300 33.62460
# Shear Modulus (GPa) = 24.71619 32.16372 28.43995
#
# Velocity S-wave (km/s) = 3.56061 4.06178 3.81942
# Velocity P-wave (km/s) = 5.35289 6.68900 6.05789
#
# Compressibility (1/GPa) = 0.04365629
#
# Stress axis : x y z
#
# Youngs Moduli (GPa) = 59.56560 75.02267 24.60074
#
# Poissons Ratio (x) = 0.64886 0.07187
# Poissons Ratio (y) = 0.51518 0.04883
# Poissons Ratio (z) = 0.17402 0.14891
#
# Static dielectric constant tensor:
#      x y z
#    x 3.564520 0.000000 0.000000 
#    y 0.000000 3.673410 0.000000 
#    z 0.000000 0.000000 3.510920 
# 
# 
# High freq. dielectric constant tensor:
#      x y z
#    x 1.762780 0.000000 0.000000 
#    y 0.000000 1.756890 0.000000 
#    z 0.000000 0.000000 1.751630 
# 
# From -- ./inp_files/16744.got.cif
#   From: 2010.03.12/outbox.cif.g09.slc.cpg/sg65_9_cif.got.tgz:16744.got - 2010.04.10 20:52:16.
