data_PCOD8273591
_publ_section_title
;
Structure prediction by ZEFSAII (Michael W. Deem and Ramdas Pophale) SiO2 
 PCOD8273591
Probable space group: C M M M
;
_chemical_formula_sum "Si O2"
_cell_formula_units_Z 104
_cell_length_a 29.777423
_cell_length_b 8.791447
_cell_length_c 19.677611
_cell_angle_alpha 90.000000
_cell_angle_beta 90.000000
_cell_angle_gamma 90.000000
_cell_volume 5151.335590
_symmetry_space_group_name_H-M "C M M M"
_symmetry_group_IT_number 65
_symmetry_cell_setting 'orthorhombic'
loop_
_space_group_symop_operation_xyz
x,y,z
-x,-y,z
x,-y,-z
-x,y,-z
-x,-y,-z
x,y,-z
-x,y,z
x,-y,z
1/2+x,1/2+y,z
1/2-x,1/2-y,z
1/2+x,1/2-y,-z
1/2-x,1/2+y,-z
1/2-x,1/2-y,-z
1/2+x,1/2+y,-z
1/2-x,1/2+y,z
1/2+x,1/2-y,z
loop_
_atom_site_type_symbol
_atom_site_label
_atom_site_fract_x
_atom_site_fract_y
_atom_site_fract_z
Si Si1 0.170579 0.169109 0.870623
Si Si2 0.298042 0.818061 0.732252
Si Si3 0.203202 0.324987 0.000000
Si Si4 0.051328 0.674432 0.421194
Si Si5 0.887314 0.820986 0.312619
Si Si6 0.425771 0.332071 0.922091
Si Si7 0.549880 0.172232 0.203474
O O1 0.190708 0.254519 0.806489
O O2 0.117468 0.153607 0.873272
O O3 0.192706 0.000000 0.875440
O O4 0.177557 0.274874 0.934195
O O5 0.250000 0.750000 0.707821
O O6 0.338713 0.762182 0.683792
O O7 0.295337 0.000000 0.732457
O O8 0.250000 0.250000 0.000000
O O9 0.210145 0.500000 0.000000
O O10 0.063395 0.692024 0.500000
O O11 0.057664 0.500000 0.397571
O O12 0.085093 0.781259 0.380155
O O13 0.000000 0.725493 0.408038
O O14 0.915698 0.772626 0.246748
O O15 0.878303 0.000000 0.308192
O O16 0.447508 0.500000 0.927556
O O17 0.455805 0.221045 0.876060
O O18 0.418384 0.270687 0.000000
O O19 0.500000 0.184385 0.235996
O O20 0.567777 0.000000 0.206045
#
# Coordination Sequence:
#
# PCOD8273591 Si02
#       7
#    16  16   8  16  16  16  16
#     4  11  21  38  58  80 110 143 187 244 306 369
#     4  12  25  42  63  88 118 155 200 249 304 364
#     4  12  24  36  52  76 105 142 187 240 302 369
#     4   9  19  38  65  98 136 175 212 250 296 352
#     4  12  24  39  62  93 128 165 205 251 302 357
#     4  10  21  38  59  80 108 147 192 246 307 370
#     4  11  24  40  59  85 117 155 202 253 305 364
#
# _framework density 20.188939000000001
#
# number of rings (size 3 to 8) (size 9 to 14) (size 15 to 20)
#    0.000    1.077    2.308    5.769    0.000    4.923 
#    0.000    2.308    0.000    0.462    0.000    0.000 
#    0.000    0.000    0.000    0.000    0.000    0.000 
#
# Total GULP energy -644426.180397 kJ/mol
# GULP energy per Si atom -12392.811161 kJ/mol
# Density = 2.014299 g / cm^3
# Si number density = 20.188939 Si / 1000 Ang^3
#
#
#
# Elastic Constant Matrix: (Units=GPa)
#
#
# Indices 1 2 3 4 5 6 
#
# 1 112.0480 47.8211 34.7508 0.0000 0.0000 0.0000
# 2 47.8211 154.5226 35.6127 0.0000 0.0000 0.0000
# 3 34.7508 35.6127 86.8839 0.0000 0.0000 0.0000
# 4 0.0000 0.0000 0.0000 33.6496 0.0000 0.0000
# 5 0.0000 0.0000 0.0000 0.0000 20.0499 0.0000
# 6 0.0000 0.0000 0.0000 0.0000 0.0000 30.1458
#
#
#
# Elastic Compliance Matrix: (Units=1/GPa)
#
#
# Indices 1 2 3 4 5 6 
#
# 1 0.011100 -0.002664 -0.003348 0.000000 0.000000 0.000000
# 2 -0.002664 0.007786 -0.002126 0.000000 0.000000 0.000000
# 3 -0.003348 -0.002126 0.013720 0.000000 0.000000 0.000000
# 4 0.000000 0.000000 0.000000 0.029718 0.000000 0.000000
# 5 0.000000 0.000000 0.000000 0.000000 0.049876 0.000000
# 6 0.000000 0.000000 0.000000 0.000000 0.000000 0.033172
#
#
# Mechanical properties :
#
#
# Convention : Reuss Voigt Hill
#
# Bulk Modulus (GPa) = 61.23329 65.53597 63.38463
# Shear Modulus (GPa) = 29.92402 32.45372 31.18887
#
# Velocity S-wave (km/s) = 3.85411 4.01371 3.93472
# Velocity P-wave (km/s) = 7.08530 7.34926 7.21849
#
# Compressibility (1/GPa) = 0.01633099
#
# Stress axis : x y z
#
# Youngs Moduli (GPa) = 90.09140 128.43852 72.88599
#
# Poissons Ratio (x) = 0.34210 0.24401
# Poissons Ratio (y) = 0.23996 0.15495
# Poissons Ratio (z) = 0.30161 0.27306
#
# Static dielectric constant tensor:
#      x y z
#    x 3.825440 0.000000 0.000000 
#    y 0.000000 3.756460 0.000000 
#    z 0.000000 0.000000 3.501920 
# 
# 
# High freq. dielectric constant tensor:
#      x y z
#    x 1.790800 0.000000 0.000000 
#    y 0.000000 1.794990 0.000000 
#    z 0.000000 0.000000 1.770790 
# 
# From -- ./inp_files/65934.got.cif
#   From: 2010.03.12/outbox.cif.g09.slc.cpg/sg65_33_cif.got.tgz:65934.got - 2010.04.10 20:52:16.
