data_PCOD8273020
_publ_section_title
;
Structure prediction by ZEFSAII (Michael W. Deem and Ramdas Pophale) SiO2 
 PCOD8273020
Probable space group: C M M M
;
_chemical_formula_sum "Si O2"
_cell_formula_units_Z 72
_cell_length_a 8.961931
_cell_length_b 18.569487
_cell_length_c 23.224801
_cell_angle_alpha 90.000000
_cell_angle_beta 90.000000
_cell_angle_gamma 90.000000
_cell_volume 3865.035644
_symmetry_space_group_name_H-M "C M M M"
_symmetry_group_IT_number 65
_symmetry_cell_setting 'orthorhombic'
loop_
_space_group_symop_operation_xyz
x,y,z
-x,-y,z
x,-y,-z
-x,y,-z
-x,-y,-z
x,y,-z
-x,y,z
x,-y,z
1/2+x,1/2+y,z
1/2-x,1/2-y,z
1/2+x,1/2-y,-z
1/2-x,1/2+y,-z
1/2-x,1/2-y,-z
1/2+x,1/2+y,-z
1/2-x,1/2+y,z
1/2+x,1/2-y,z
loop_
_atom_site_type_symbol
_atom_site_label
_atom_site_fract_x
_atom_site_fract_y
_atom_site_fract_z
Si Si1 0.673341 0.416516 0.829237
Si Si2 0.836827 0.414620 0.500000
Si Si3 0.673974 0.322779 0.935654
Si Si4 0.676816 0.172718 0.269269
Si Si5 0.821523 0.580833 0.623483
O O1 0.500000 0.402603 0.814565
O O2 0.714007 0.500000 0.827902
O O3 0.713690 0.387755 0.892847
O O4 0.776237 0.376576 0.783686
O O5 0.855179 0.500000 0.500000
O O6 0.756228 0.393304 0.439399
O O7 0.000000 0.378065 0.500000
O O8 0.500000 0.307163 0.936202
O O9 0.750000 0.250000 0.912904
O O10 0.730683 0.343071 0.000000
O O11 0.500000 0.181098 0.269337
O O12 0.750000 0.250000 0.263200
O O13 0.735885 0.135397 0.327887
O O14 0.764581 0.500000 0.638274
O O15 0.000000 0.580167 0.620297
#
# Coordination Sequence:
#
# PCOD8273020 Si02
#       5
#    16   8  16  16  16
#     4  10  21  36  54  77 103 131 166 208 253 299
#     4   7  10  20  41  68  95 121 154 199 246 291
#     4   9  18  33  53  76 102 133 167 202 242 290
#     4  11  22  35  51  72 101 135 171 209 251 299
#     4   8  14  26  46  71  96 124 161 204 248 294
#
# _framework density 18.628546
#
# number of rings (size 3 to 8) (size 9 to 14) (size 15 to 20)
#    0.000    2.778    0.000    3.333    0.000    4.444 
#    0.000    2.778    0.000    0.000    0.000    7.000 
#    0.000   12.444    0.000    0.000    0.000    0.000 
#
# Total GULP energy -446165.897444 kJ/mol
# GULP energy per Si atom -12393.497151 kJ/mol
# Density = 1.858615 g / cm^3
# Si number density = 18.628546 Si / 1000 Ang^3
#
#
#
# Elastic Constant Matrix: (Units=GPa)
#
#
# Indices 1 2 3 4 5 6 
#
# 1 35.3727 33.7838 36.8354 0.0000 0.0000 0.0000
# 2 33.7838 125.0416 75.9229 0.0000 0.0000 0.0000
# 3 36.8354 75.9229 145.1668 0.0000 0.0000 0.0000
# 4 0.0000 0.0000 0.0000 22.3056 0.0000 0.0000
# 5 0.0000 0.0000 0.0000 0.0000 5.6644 0.0000
# 6 0.0000 0.0000 0.0000 0.0000 0.0000 12.6733
#
#
#
# Elastic Compliance Matrix: (Units=1/GPa)
#
#
# Indices 1 2 3 4 5 6 
#
# 1 0.042453 -0.007223 -0.006995 0.000000 0.000000 0.000000
# 2 -0.007223 0.012948 -0.004939 0.000000 0.000000 0.000000
# 3 -0.006995 -0.004939 0.011247 0.000000 0.000000 0.000000
# 4 0.000000 0.000000 0.000000 0.044832 0.000000 0.000000
# 5 0.000000 0.000000 0.000000 0.000000 0.176542 0.000000
# 6 0.000000 0.000000 0.000000 0.000000 0.000000 0.078906
#
#
# Mechanical properties :
#
#
# Convention : Reuss Voigt Hill
#
# Bulk Modulus (GPa) = 35.29318 66.51835 50.90576
# Shear Modulus (GPa) = 12.05738 18.73126 15.39432
#
# Velocity S-wave (km/s) = 2.54688 3.17442 2.87781
# Velocity P-wave (km/s) = 5.25696 7.01578 6.19907
#
# Compressibility (1/GPa) = 0.02833409
#
# Stress axis : x y z
#
# Youngs Moduli (GPa) = 23.55567 77.23420 88.91645
#
# Poissons Ratio (x) = 0.55786 0.62193
# Poissons Ratio (y) = 0.17014 0.43915
# Poissons Ratio (z) = 0.16476 0.38145
#
# Static dielectric constant tensor:
#      x y z
#    x 3.061380 0.000000 0.000000 
#    y 0.000000 3.353200 0.000000 
#    z 0.000000 0.000000 4.021170 
# 
# 
# High freq. dielectric constant tensor:
#      x y z
#    x 1.683320 0.000000 0.000000 
#    y 0.000000 1.709500 0.000000 
#    z 0.000000 0.000000 1.746960 
# 
# From -- ./inp_files/59202.got.cif
#   From: 2010.03.12/outbox.cif.g09.slc.cpg/sg65_30_cif.got.tgz:59202.got - 2010.04.10 20:52:16.
