data_PCOD8273323
_publ_section_title
;
Structure prediction by ZEFSAII (Michael W. Deem and Ramdas Pophale) SiO2 
 PCOD8273323
Probable space group: C M M M
;
_chemical_formula_sum "Si O2"
_cell_formula_units_Z 112
_cell_length_a 14.701412
_cell_length_b 24.739096
_cell_length_c 15.279302
_cell_angle_alpha 90.000000
_cell_angle_beta 90.000000
_cell_angle_gamma 90.000000
_cell_volume 5557.076680
_symmetry_space_group_name_H-M "C M M M"
_symmetry_group_IT_number 65
_symmetry_cell_setting 'orthorhombic'
loop_
_space_group_symop_operation_xyz
x,y,z
-x,-y,z
x,-y,-z
-x,y,-z
-x,-y,-z
x,y,-z
-x,y,z
x,-y,z
1/2+x,1/2+y,z
1/2-x,1/2-y,z
1/2+x,1/2-y,-z
1/2-x,1/2+y,-z
1/2-x,1/2-y,-z
1/2+x,1/2+y,-z
1/2-x,1/2+y,z
1/2+x,1/2-y,z
loop_
_atom_site_type_symbol
_atom_site_label
_atom_site_fract_x
_atom_site_fract_y
_atom_site_fract_z
Si Si1 0.223606 0.059584 0.102965
Si Si2 0.602954 0.270719 0.738776
Si Si3 0.893707 0.840762 0.900626
Si Si4 0.398111 0.440642 0.396202
Si Si5 0.708365 0.337408 0.400650
Si Si6 0.399130 0.157723 0.667912
Si Si7 0.100550 0.438867 0.205300
O O1 0.153755 0.104957 0.136408
O O2 0.325451 0.074723 0.131915
O O3 0.194858 0.000000 0.138912
O O4 0.222904 0.058694 0.000000
O O5 0.500000 0.289908 0.718053
O O6 0.632930 0.292140 0.834690
O O7 0.668856 0.291314 0.661961
O O8 0.609630 0.205684 0.739927
O O9 0.000000 0.852607 0.899721
O O10 0.861964 0.826044 0.000000
O O11 0.397579 0.442167 0.500000
O O12 0.500000 0.426869 0.362771
O O13 0.368117 0.500000 0.360500
O O14 0.328407 0.394844 0.363337
O O15 0.675047 0.326610 0.500000
O O16 0.818217 0.336743 0.402171
O O17 0.500000 0.160989 0.623290
O O18 0.385715 0.100274 0.713049
O O19 0.111587 0.500000 0.240509
O O20 0.000000 0.430278 0.163931
#
# Coordination Sequence:
#
# PCOD8273323 Si02
#       7
#    16  16  16  16  16  16  16
#     4   9  17  29  48  77 110 140 172 214 263 315
#     4  10  21  37  56  79 109 142 178 223 270 318
#     4   9  18  34  56  80 108 144 181 216 260 315
#     4   8  15  30  52  78 108 139 172 214 263 313
#     4  11  22  35  55  81 109 144 182 220 268 324
#     4  10  22  38  54  74 103 139 180 227 274 318
#     4   9  18  34  55  75  97 131 175 221 269 319
#
# _framework density 20.154481000000001
#
# number of rings (size 3 to 8) (size 9 to 14) (size 15 to 20)
#    0.000    2.571    0.000    2.143    0.000    3.429 
#    0.000    5.714    0.000    6.857    0.000    4.000 
#    0.000    0.000    0.000    0.000    0.000    0.000 
#
# Total GULP energy -694069.922032 kJ/mol
# GULP energy per Si atom -12394.105751 kJ/mol
# Density = 2.010861 g / cm^3
# Si number density = 20.154481 Si / 1000 Ang^3
#
#
#
# Elastic Constant Matrix: (Units=GPa)
#
#
# Indices 1 2 3 4 5 6 
#
# 1 93.5319 36.8596 30.7671 0.0000 0.0000 0.0000
# 2 36.8596 98.9289 41.1390 0.0000 0.0000 0.0000
# 3 30.7671 41.1390 37.9711 0.0000 0.0000 0.0000
# 4 0.0000 0.0000 0.0000 21.3970 0.0000 0.0000
# 5 0.0000 0.0000 0.0000 0.0000 27.1176 0.0000
# 6 0.0000 0.0000 0.0000 0.0000 0.0000 24.1251
#
#
#
# Elastic Compliance Matrix: (Units=1/GPa)
#
#
# Indices 1 2 3 4 5 6 
#
# 1 0.014626 -0.000949 -0.010823 0.000000 0.000000 0.000000
# 2 -0.000949 0.018458 -0.019229 0.000000 0.000000 0.000000
# 3 -0.010823 -0.019229 0.055939 0.000000 0.000000 0.000000
# 4 0.000000 0.000000 0.000000 0.046735 0.000000 0.000000
# 5 0.000000 0.000000 0.000000 0.000000 0.036876 0.000000
# 6 0.000000 0.000000 0.000000 0.000000 0.000000 0.041451
#
#
# Mechanical properties :
#
#
# Convention : Reuss Voigt Hill
#
# Bulk Modulus (GPa) = 37.00858 49.77371 43.39114
# Shear Modulus (GPa) = 17.53805 22.63902 20.08853
#
# Velocity S-wave (km/s) = 2.95308 3.35517 3.16052
# Velocity P-wave (km/s) = 5.47996 6.30549 5.90716
#
# Compressibility (1/GPa) = 0.02702076
#
# Stress axis : x y z
#
# Youngs Moduli (GPa) = 68.37337 54.17660 17.87658
#
# Poissons Ratio (x) = 0.05139 0.19348
# Poissons Ratio (y) = 0.06486 0.34376
# Poissons Ratio (z) = 0.74000 1.04179
#
# Static dielectric constant tensor:
#      x y z
#    x 3.883060 0.000000 0.000000 
#    y 0.000000 4.091660 0.000000 
#    z 0.000000 0.000000 3.286120 
# 
# 
# High freq. dielectric constant tensor:
#      x y z
#    x 1.794340 0.000000 0.000000 
#    y 0.000000 1.795770 0.000000 
#    z 0.000000 0.000000 1.751350 
# 
# From -- ./inp_files/40753.got.cif
#   From: 2010.03.12/outbox.cif.g09.slc.cpg/sg65_21_cif.got.tgz:40753.got - 2010.04.10 20:52:16.
