data_PCOD8273617
_publ_section_title
;
Structure prediction by ZEFSAII (Michael W. Deem and Ramdas Pophale) SiO2 
 PCOD8273617
Probable space group: C M M M
;
_chemical_formula_sum "Si O2"
_cell_formula_units_Z 104
_cell_length_a 8.838771
_cell_length_b 21.694659
_cell_length_c 26.738470
_cell_angle_alpha 90.000000
_cell_angle_beta 90.000000
_cell_angle_gamma 90.000000
_cell_volume 5127.211861
_symmetry_space_group_name_H-M "C M M M"
_symmetry_group_IT_number 65
_symmetry_cell_setting 'orthorhombic'
loop_
_space_group_symop_operation_xyz
x,y,z
-x,-y,z
x,-y,-z
-x,y,-z
-x,-y,-z
x,y,-z
-x,y,z
x,-y,z
1/2+x,1/2+y,z
1/2-x,1/2-y,z
1/2+x,1/2-y,-z
1/2-x,1/2+y,-z
1/2-x,1/2-y,-z
1/2+x,1/2+y,-z
1/2-x,1/2+y,z
1/2+x,1/2-y,z
loop_
_atom_site_type_symbol
_atom_site_label
_atom_site_fract_x
_atom_site_fract_y
_atom_site_fract_z
Si Si1 0.178362 0.314643 0.379969
Si Si2 0.329083 0.628290 0.290511
Si Si3 0.828639 0.190467 0.812071
Si Si4 0.820419 0.431395 0.443330
Si Si5 0.679341 0.500000 0.854062
Si Si6 0.679746 0.500000 0.258933
Si Si7 0.177329 0.683134 0.000000
Si Si8 0.322210 0.879930 0.102278
O O1 0.250000 0.250000 0.398843
O O2 0.221643 0.326617 0.322149
O O3 0.243306 0.374109 0.410521
O O4 0.000000 0.308264 0.385825
O O5 0.500000 0.635658 0.311310
O O6 0.326071 0.640412 0.231444
O O7 0.267719 0.558223 0.292417
O O8 0.750000 0.250000 0.788295
O O9 0.725535 0.172001 0.858553
O O10 0.000000 0.202593 0.830162
O O11 0.764505 0.420835 0.500000
O O12 0.764808 0.500000 0.425089
O O13 0.000000 0.429909 0.440954
O O14 0.500000 0.500000 0.851596
O O15 0.748187 0.500000 0.797540
O O16 0.732890 0.558447 0.885241
O O17 0.500000 0.500000 0.253318
O O18 0.250000 0.750000 0.000000
O O19 0.228114 0.643678 0.047928
O O20 0.000000 0.694284 0.000000
O O21 0.500000 0.892644 0.105440
#
# Coordination Sequence:
#
# PCOD8273617 Si02
#       8
#    16  16  16  16   8   8   8  16
#     4  11  23  37  57  87 122 157 201 250 297 354
#     4  10  21  38  59  83 117 157 193 236 293 350
#     4  11  22  37  58  83 113 151 194 239 288 349
#     4   8  16  34  59  85 115 153 198 249 303 355
#     4  11  21  40  64  89 118 149 189 234 284 348
#     4   9  18  37  60  84 114 153 192 235 290 346
#     4  10  24  43  62  85 117 150 188 234 285 342
#     4  11  23  40  61  87 116 150 190 237 288 342
#
# _framework density 20.283930000000002
#
# number of rings (size 3 to 8) (size 9 to 14) (size 15 to 20)
#    0.000    1.846    1.538    3.000    1.077    5.538 
#    0.000    1.538    0.000    1.385    0.000    4.308 
#    0.000    0.000    0.000    0.000    0.000    0.000 
#
# Total GULP energy -644661.223164 kJ/mol
# GULP energy per Si atom -12397.331215 kJ/mol
# Density = 2.023776 g / cm^3
# Si number density = 20.283930 Si / 1000 Ang^3
#
#
#
# Elastic Constant Matrix: (Units=GPa)
#
#
# Indices 1 2 3 4 5 6 
#
# 1 55.8309 36.3562 23.7970 0.0000 0.0000 0.0000
# 2 36.3562 151.5204 44.5852 0.0000 0.0000 0.0000
# 3 23.7970 44.5852 88.2250 0.0000 0.0000 0.0000
# 4 0.0000 0.0000 0.0000 28.8029 0.0000 0.0000
# 5 0.0000 0.0000 0.0000 0.0000 16.9889 0.0000
# 6 0.0000 0.0000 0.0000 0.0000 0.0000 31.1241
#
#
#
# Elastic Compliance Matrix: (Units=1/GPa)
#
#
# Indices 1 2 3 4 5 6 
#
# 1 0.022310 -0.004208 -0.003891 0.000000 0.000000 0.000000
# 2 -0.004208 0.008546 -0.003184 0.000000 0.000000 0.000000
# 3 -0.003891 -0.003184 0.013993 0.000000 0.000000 0.000000
# 4 0.000000 0.000000 0.000000 0.034719 0.000000 0.000000
# 5 0.000000 0.000000 0.000000 0.000000 0.058862 0.000000
# 6 0.000000 0.000000 0.000000 0.000000 0.000000 0.032129
#
#
# Mechanical properties :
#
#
# Convention : Reuss Voigt Hill
#
# Bulk Modulus (GPa) = 44.87663 56.11702 50.49682
# Shear Modulus (GPa) = 24.93095 28.10569 26.51832
#
# Velocity S-wave (km/s) = 3.50965 3.72642 3.61966
# Velocity P-wave (km/s) = 6.21255 6.80006 6.51293
#
# Compressibility (1/GPa) = 0.02228331
#
# Stress axis : x y z
#
# Youngs Moduli (GPa) = 44.82284 117.00887 71.46322
#
# Poissons Ratio (x) = 0.49239 0.27807
# Poissons Ratio (y) = 0.18862 0.22753
# Poissons Ratio (z) = 0.17441 0.37254
#
# Static dielectric constant tensor:
#      x y z
#    x 3.420400 0.000000 0.000000 
#    y 0.000000 3.880930 0.000000 
#    z 0.000000 0.000000 3.663080 
# 
# 
# High freq. dielectric constant tensor:
#      x y z
#    x 1.769420 0.000000 0.000000 
#    y 0.000000 1.813310 0.000000 
#    z 0.000000 0.000000 1.785980 
# 
# From -- ./inp_files/73412.got.cif
#   From: 2010.03.12/outbox.cif.g09.slc.cpg/sg65_37_cif.got.tgz:73412.got - 2010.04.10 20:52:16.
