data_PCOD8273701
_publ_section_title
;
Structure prediction by ZEFSAII (Michael W. Deem and Ramdas Pophale) SiO2 
 PCOD8273701
Probable space group: C M M M
;
_chemical_formula_sum "Si O2"
_cell_formula_units_Z 88
_cell_length_a 18.988105
_cell_length_b 9.687740
_cell_length_c 23.687361
_cell_angle_alpha 90.000000
_cell_angle_beta 90.000000
_cell_angle_gamma 90.000000
_cell_volume 4357.333270
_symmetry_space_group_name_H-M "C M M M"
_symmetry_group_IT_number 65
_symmetry_cell_setting 'orthorhombic'
loop_
_space_group_symop_operation_xyz
x,y,z
-x,-y,z
x,-y,-z
-x,y,-z
-x,-y,-z
x,y,-z
-x,y,z
x,-y,z
1/2+x,1/2+y,z
1/2-x,1/2-y,z
1/2+x,1/2-y,-z
1/2-x,1/2+y,-z
1/2-x,1/2-y,-z
1/2+x,1/2+y,-z
1/2-x,1/2+y,z
1/2+x,1/2-y,z
loop_
_atom_site_type_symbol
_atom_site_label
_atom_site_fract_x
_atom_site_fract_y
_atom_site_fract_z
Si Si1 0.916995 0.764394 0.863081
Si Si2 0.681757 0.339229 0.363937
Si Si3 0.181425 0.161000 0.767303
Si Si4 0.582605 0.000000 0.936127
Si Si5 0.806147 0.852080 0.937702
Si Si6 0.582834 0.844776 0.435460
O O1 0.885249 0.771817 0.799992
O O2 0.894990 0.627996 0.897484
O O3 0.876098 0.877257 0.900337
O O4 0.000000 0.792147 0.860002
O O5 0.692932 0.500000 0.380661
O O6 0.750000 0.250000 0.379929
O O7 0.663304 0.325153 0.298282
O O8 0.617395 0.274017 0.397944
O O9 0.250000 0.250000 0.783025
O O10 0.193472 0.000000 0.783768
O O11 0.500000 0.000000 0.944209
O O12 0.616119 0.000000 0.000000
O O13 0.750000 0.750000 0.908323
O O14 0.768381 0.000000 0.942454
O O15 0.827146 0.796267 0.000000
O O16 0.606732 0.823883 0.500000
O O17 0.500000 0.825634 0.429605
O O18 0.604278 0.000000 0.415460
#
# Coordination Sequence:
#
# PCOD8273701 Si02
#       6
#    16  16  16   8  16  16
#     4  11  23  38  59  86 115 148 187 233 289 350
#     4  10  21  38  60  88 120 158 206 256 306 358
#     4  10  23  41  63  87 117 158 199 245 298 354
#     4   9  20  38  58  84 116 148 182 230 290 347
#     4  10  22  38  58  83 109 143 183 224 276 337
#     4   9  19  37  60  88 124 166 208 251 304 361
#
# _framework density 20.195838999999999
#
# number of rings (size 3 to 8) (size 9 to 14) (size 15 to 20)
#    0.000    2.091    0.000    2.727    2.545    5.091 
#    0.000    3.636    0.000    0.000    0.000    0.000 
#    0.000    0.000    0.000    0.000    0.000    0.000 
#
# Total GULP energy -545247.921978 kJ/mol
# GULP energy per Si atom -12391.998227 kJ/mol
# Density = 2.014987 g / cm^3
# Si number density = 20.195839 Si / 1000 Ang^3
#
#
#
# Elastic Constant Matrix: (Units=GPa)
#
#
# Indices 1 2 3 4 5 6 
#
# 1 116.4874 58.6183 56.0124 0.0000 0.0000 0.0000
# 2 58.6183 148.1764 59.9802 0.0000 0.0000 0.0000
# 3 56.0124 59.9802 96.6992 0.0000 0.0000 0.0000
# 4 0.0000 0.0000 0.0000 37.0027 0.0000 0.0000
# 5 0.0000 0.0000 0.0000 0.0000 38.6593 0.0000
# 6 0.0000 0.0000 0.0000 0.0000 0.0000 33.9029
#
#
#
# Elastic Compliance Matrix: (Units=1/GPa)
#
#
# Indices 1 2 3 4 5 6 
#
# 1 0.012673 -0.002727 -0.005650 0.000000 0.000000 0.000000
# 2 -0.002727 0.009598 -0.004374 0.000000 0.000000 0.000000
# 3 -0.005650 -0.004374 0.016327 0.000000 0.000000 0.000000
# 4 0.000000 0.000000 0.000000 0.027025 0.000000 0.000000
# 5 0.000000 0.000000 0.000000 0.000000 0.025867 0.000000
# 6 0.000000 0.000000 0.000000 0.000000 0.000000 0.029496
#
#
# Mechanical properties :
#
#
# Convention : Reuss Voigt Hill
#
# Bulk Modulus (GPa) = 76.34966 78.95386 77.65176
# Shear Modulus (GPa) = 33.14493 34.36312 33.75403
#
# Velocity S-wave (km/s) = 4.05554 4.12939 4.09263
# Velocity P-wave (km/s) = 7.73412 7.86860 7.80165
#
# Compressibility (1/GPa) = 0.01309764
#
# Stress axis : x y z
#
# Youngs Moduli (GPa) = 78.90589 104.18962 61.24843
#
# Poissons Ratio (x) = 0.28408 0.34603
# Poissons Ratio (y) = 0.21515 0.26790
# Poissons Ratio (z) = 0.44579 0.45572
#
# Static dielectric constant tensor:
#      x y z
#    x 3.442580 0.000000 0.000000 
#    y 0.000000 3.967790 0.000000 
#    z 0.000000 0.000000 3.671170 
# 
# 
# High freq. dielectric constant tensor:
#      x y z
#    x 1.780130 0.000000 0.000000 
#    y 0.000000 1.802820 0.000000 
#    z 0.000000 0.000000 1.788180 
# 
# From -- ./inp_files/70939.got.cif
#   From: 2010.03.12/outbox.cif.g09.slc.cpg/sg65_36_cif.got.tgz:70939.got - 2010.04.10 20:52:16.
