data_PCOD8273890
_publ_section_title
;
Structure prediction by ZEFSAII (Michael W. Deem and Ramdas Pophale) SiO2 
 PCOD8273890
Probable space group: C M M M
;
_chemical_formula_sum "Si O2"
_cell_formula_units_Z 64
_cell_length_a 21.835608
_cell_length_b 16.626231
_cell_length_c 8.705680
_cell_angle_alpha 90.000000
_cell_angle_beta 90.000000
_cell_angle_gamma 90.000000
_cell_volume 3160.543694
_symmetry_space_group_name_H-M "C M M M"
_symmetry_group_IT_number 65
_symmetry_cell_setting 'orthorhombic'
loop_
_space_group_symop_operation_xyz
x,y,z
-x,-y,z
x,-y,-z
-x,y,-z
-x,-y,-z
x,y,-z
-x,y,z
x,-y,z
1/2+x,1/2+y,z
1/2-x,1/2-y,z
1/2+x,1/2-y,-z
1/2-x,1/2+y,-z
1/2-x,1/2-y,-z
1/2+x,1/2+y,-z
1/2-x,1/2+y,z
1/2+x,1/2-y,z
loop_
_atom_site_type_symbol
_atom_site_label
_atom_site_fract_x
_atom_site_fract_y
_atom_site_fract_z
Si Si1 0.114710 0.679254 0.679088
Si Si2 0.927524 0.000000 0.324802
Si Si3 0.136865 0.150723 0.179538
Si Si4 0.772363 0.593580 0.177250
Si Si5 0.000000 0.409513 0.818700
O O1 0.101761 0.674725 0.500000
O O2 0.115901 0.771265 0.729448
O O3 0.178324 0.635958 0.716105
O O4 0.060445 0.634938 0.764905
O O5 0.903897 0.077653 0.236578
O O6 0.903465 0.000000 0.500000
O O7 0.000000 0.000000 0.319355
O O8 0.207778 0.134219 0.213733
O O9 0.125335 0.163851 0.000000
O O10 0.768316 0.500000 0.218770
O O11 0.790872 0.606306 0.000000
O O12 0.000000 0.500000 0.752030
O O13 0.000000 0.411211 0.000000
#
# Coordination Sequence:
#
# PCOD8273890 Si02
#       5
#    16   8  16  16   8
#     4  12  26  41  63  97 133 168 209 266 329 382
#     4  11  25  43  65  95 135 172 209 268 330 382
#     4  11  23  43  68  95 127 172 222 265 311 379
#     4  10  21  41  66  94 127 168 218 266 315 378
#     4  11  25  47  71  94 123 168 219 265 315 383
#
# _framework density 20.249680000000001
#
# number of rings (size 3 to 8) (size 9 to 14) (size 15 to 20)
#    0.000    1.000    1.250    5.250    1.750   10.500 
#    0.000    0.000    0.000    0.000    0.000    0.000 
#    0.000    0.000    0.000    0.000    0.000    0.000 
#
# Total GULP energy -397032.242588 kJ/mol
# GULP energy per Si atom -12407.257581 kJ/mol
# Density = 2.020359 g / cm^3
# Si number density = 20.249680 Si / 1000 Ang^3
#
#
#
# Elastic Constant Matrix: (Units=GPa)
#
#
# Indices 1 2 3 4 5 6 
#
# 1 93.5259 43.3087 26.2540 0.0000 0.0000 0.0000
# 2 43.3087 148.7666 26.3685 0.0000 0.0000 0.0000
# 3 26.2540 26.3685 61.7546 0.0000 0.0000 0.0000
# 4 0.0000 0.0000 0.0000 -4.3065 0.0000 0.0000
# 5 0.0000 0.0000 0.0000 0.0000 -39.6274 0.0000
# 6 0.0000 0.0000 0.0000 0.0000 0.0000 28.9192
#
#
#
# Elastic Compliance Matrix: (Units=1/GPa)
#
#
# Indices 1 2 3 4 5 6 
#
# 1 0.013356 -0.003118 -0.004347 0.000000 0.000000 0.000000
# 2 -0.003118 0.008000 -0.002090 0.000000 0.000000 0.000000
# 3 -0.004347 -0.002090 0.018934 0.000000 0.000000 0.000000
# 4 0.000000 0.000000 0.000000 -0.232206 0.000000 0.000000
# 5 0.000000 0.000000 0.000000 0.000000 -0.025235 0.000000
# 6 0.000000 0.000000 0.000000 0.000000 0.000000 0.034579
#
#
# Mechanical properties :
#
#
# Convention : Reuss Voigt Hill
#
# Bulk Modulus (GPa) = 47.21496 55.10105 51.15800
# Shear Modulus (GPa) = -31.96905 10.87146 -10.54880
#
# Velocity S-wave (km/s) = -3.97765 2.31956 -2.28488
# Velocity P-wave (km/s) = 1.50712 5.86888 4.28457
#
# Compressibility (1/GPa) = 0.02117973
#
# Stress axis : x y z
#
# Youngs Moduli (GPa) = 74.87165 124.99835 52.81573
#
# Poissons Ratio (x) = 0.38971 0.22959
# Poissons Ratio (y) = 0.23343 0.11041
# Poissons Ratio (z) = 0.32546 0.26131
#
# Static dielectric constant tensor:
#      x y z
#    x 3.736640 0.000000 0.000000 
#    y 0.000000 4.228960 0.000000 
#    z 0.000000 0.000000 3.799610 
# 
# 
# High freq. dielectric constant tensor:
#      x y z
#    x 1.804280 0.000000 0.000000 
#    y 0.000000 1.812660 0.000000 
#    z 0.000000 0.000000 1.798010 
# 
# From -- ./inp_files/13393.got.cif
#   From: 2010.03.12/outbox.cif.g09.slc.cpg/sg65_7_cif.got.tgz:13393.got - 2010.04.10 20:52:16.
