data_PCOD8273457
_publ_section_title
;
Structure prediction by ZEFSAII (Michael W. Deem and Ramdas Pophale) SiO2 
 PCOD8273457
Probable space group: C M M M
;
_chemical_formula_sum "Si O2"
_cell_formula_units_Z 64
_cell_length_a 8.788639
_cell_length_b 28.264887
_cell_length_c 12.724988
_cell_angle_alpha 90.000000
_cell_angle_beta 90.000000
_cell_angle_gamma 90.000000
_cell_volume 3161.012847
_symmetry_space_group_name_H-M "C M M M"
_symmetry_group_IT_number 65
_symmetry_cell_setting 'orthorhombic'
loop_
_space_group_symop_operation_xyz
x,y,z
-x,-y,z
x,-y,-z
-x,y,-z
-x,-y,-z
x,y,-z
-x,y,z
x,-y,z
1/2+x,1/2+y,z
1/2-x,1/2-y,z
1/2+x,1/2-y,-z
1/2-x,1/2+y,-z
1/2-x,1/2-y,-z
1/2+x,1/2+y,-z
1/2-x,1/2+y,z
1/2+x,1/2-y,z
loop_
_atom_site_type_symbol
_atom_site_label
_atom_site_fract_x
_atom_site_fract_y
_atom_site_fract_z
Si Si1 0.669380 0.444242 0.000000
Si Si2 0.678988 0.945440 0.216193
Si Si3 0.180539 0.302182 0.500000
Si Si4 0.678851 0.639375 0.312130
Si Si5 0.822596 0.201189 0.116793
O O1 0.759092 0.428142 0.896669
O O2 0.652707 0.500000 0.000000
O O3 0.500000 0.420737 0.000000
O O4 0.500000 0.937237 0.218617
O O5 0.758902 0.914451 0.307677
O O6 0.721106 0.000000 0.237928
O O7 0.250000 0.250000 0.500000
O O8 0.234145 0.330751 0.398770
O O9 0.000000 0.297632 0.500000
O O10 0.500000 0.639728 0.337064
O O11 0.721427 0.660900 0.198966
O O12 0.750000 0.250000 0.154739
O O13 0.000000 0.210240 0.115917
O O14 0.764708 0.186329 0.000000
#
# Coordination Sequence:
#
# PCOD8273457 Si02
#       5
#     8  16   8  16  16
#     4   9  17  31  53  81 116 161 208 253 301 355
#     4  10  21  37  57  86 125 165 207 255 308 367
#     4  12  26  46  69  92 123 158 204 259 313 367
#     4  11  23  39  63  91 121 158 207 255 307 371
#     4   9  19  35  55  83 118 153 189 237 296 360
#
# _framework density 20.246675
#
# number of rings (size 3 to 8) (size 9 to 14) (size 15 to 20)
#    0.000    1.875    0.000    3.750    1.750    7.000 
#    0.000    0.625    0.000    3.750    0.000    0.000 
#    0.000    0.000    0.000    0.000    0.000    0.000 
#
# Total GULP energy -396826.918474 kJ/mol
# GULP energy per Si atom -12400.841202 kJ/mol
# Density = 2.020059 g / cm^3
# Si number density = 20.246675 Si / 1000 Ang^3
#
#
#
# Elastic Constant Matrix: (Units=GPa)
#
#
# Indices 1 2 3 4 5 6 
#
# 1 118.2030 65.0627 59.7877 0.0000 0.0000 0.0000
# 2 65.0627 124.8633 70.5820 0.0000 0.0000 0.0000
# 3 59.7877 70.5820 89.8898 0.0000 0.0000 0.0000
# 4 0.0000 0.0000 0.0000 29.9605 0.0000 0.0000
# 5 0.0000 0.0000 0.0000 0.0000 34.5647 0.0000
# 6 0.0000 0.0000 0.0000 0.0000 0.0000 35.1378
#
#
#
# Elastic Compliance Matrix: (Units=1/GPa)
#
#
# Indices 1 2 3 4 5 6 
#
# 1 0.013567 -0.003539 -0.006244 0.000000 0.000000 0.000000
# 2 -0.003539 0.015324 -0.009678 0.000000 0.000000 0.000000
# 3 -0.006244 -0.009678 0.022877 0.000000 0.000000 0.000000
# 4 0.000000 0.000000 0.000000 0.033377 0.000000 0.000000
# 5 0.000000 0.000000 0.000000 0.000000 0.028931 0.000000
# 6 0.000000 0.000000 0.000000 0.000000 0.000000 0.028459
#
#
# Mechanical properties :
#
#
# Convention : Reuss Voigt Hill
#
# Bulk Modulus (GPa) = 77.85767 80.42452 79.14109
# Shear Modulus (GPa) = 26.91916 29.10083 28.01000
#
# Velocity S-wave (km/s) = 3.65027 3.79531 3.72349
# Velocity P-wave (km/s) = 7.50360 7.68208 7.59336
#
# Compressibility (1/GPa) = 0.01284395
#
# Stress axis : x y z
#
# Youngs Moduli (GPa) = 73.71021 65.25727 43.71127
#
# Poissons Ratio (x) = 0.23098 0.27294
# Poissons Ratio (y) = 0.26089 0.42305
# Poissons Ratio (z) = 0.46027 0.63158
#
# Static dielectric constant tensor:
#      x y z
#    x 3.736460 0.000000 0.000000 
#    y 0.000000 3.629930 0.000000 
#    z 0.000000 0.000000 3.639120 
# 
# 
# High freq. dielectric constant tensor:
#      x y z
#    x 1.797760 0.000000 0.000000 
#    y 0.000000 1.799450 0.000000 
#    z 0.000000 0.000000 1.777790 
# 
# From -- ./inp_files/20947.got.cif
#   From: 2010.03.12/outbox.cif.g09.slc.cpg/sg65_11_cif.got.tgz:20947.got - 2010.04.10 20:52:16.
