data_PCOD8273704
_publ_section_title
;
Structure prediction by ZEFSAII (Michael W. Deem and Ramdas Pophale) SiO2 
 PCOD8273704
Probable space group: C M M M
;
_chemical_formula_sum "Si O2"
_cell_formula_units_Z 112
_cell_length_a 14.371454
_cell_length_b 14.527150
_cell_length_c 26.965138
_cell_angle_alpha 90.000000
_cell_angle_beta 90.000000
_cell_angle_gamma 90.000000
_cell_volume 5629.680877
_symmetry_space_group_name_H-M "C M M M"
_symmetry_group_IT_number 65
_symmetry_cell_setting 'orthorhombic'
loop_
_space_group_symop_operation_xyz
x,y,z
-x,-y,z
x,-y,-z
-x,y,-z
-x,-y,-z
x,y,-z
-x,y,z
x,-y,z
1/2+x,1/2+y,z
1/2-x,1/2-y,z
1/2+x,1/2-y,-z
1/2-x,1/2+y,-z
1/2-x,1/2-y,-z
1/2+x,1/2+y,-z
1/2-x,1/2+y,z
1/2+x,1/2-y,z
loop_
_atom_site_type_symbol
_atom_site_label
_atom_site_fract_x
_atom_site_fract_y
_atom_site_fract_z
Si Si1 0.397178 0.103270 0.872942
Si Si2 0.776565 0.111226 0.352215
Si Si3 0.254842 0.357163 0.945679
Si Si4 0.396281 0.399176 0.140449
Si Si5 0.648300 0.762339 0.788892
Si Si6 0.895311 0.728049 0.682783
Si Si7 0.603564 0.608467 0.445136
O O1 0.500000 0.145438 0.881004
O O2 0.343229 0.106631 0.924818
O O3 0.344501 0.159804 0.830807
O O4 0.403585 0.000000 0.853339
O O5 0.850403 0.168675 0.318762
O O6 0.672185 0.152370 0.344067
O O7 0.813327 0.135789 0.407653
O O8 0.778569 0.000000 0.341451
O O9 0.250000 0.250000 0.952107
O O10 0.334906 0.380264 0.907382
O O11 0.272316 0.402349 0.000000
O O12 0.500000 0.394752 0.119564
O O13 0.371122 0.500000 0.161598
O O14 0.387564 0.330686 0.186340
O O15 0.750000 0.750000 0.766590
O O16 0.589006 0.793764 0.741335
O O17 0.000000 0.724064 0.659197
O O18 0.628043 0.647550 0.500000
O O19 0.500000 0.645158 0.428781
O O20 0.597453 0.500000 0.447432
#
# Coordination Sequence:
#
# PCOD8273704 Si02
#       7
#    16  16  16  16  16  16  16
#     4  11  23  39  62  86 109 144 186 229 278 333
#     4  10  21  38  60  89 123 160 204 255 304 354
#     4  11  23  39  60  84 112 147 180 220 276 337
#     4  11  23  39  62  87 111 144 184 229 282 338
#     4  12  22  42  63  82 114 150 189 235 287 336
#     4  11  24  41  60  86 122 163 203 247 304 366
#     4   8  14  28  55  89 122 160 207 256 305 357
#
# _framework density 19.894555
#
# number of rings (size 3 to 8) (size 9 to 14) (size 15 to 20)
#    0.000    1.429    4.286    2.571    0.000    4.000 
#    0.000    4.286    0.000    1.286    0.000    2.000 
#    0.000    0.000    0.000    0.000    0.000    0.000 
#
# Total GULP energy -693826.636719 kJ/mol
# GULP energy per Si atom -12389.761370 kJ/mol
# Density = 1.984927 g / cm^3
# Si number density = 19.894555 Si / 1000 Ang^3
#
#
#
# Elastic Constant Matrix: (Units=GPa)
#
#
# Indices 1 2 3 4 5 6 
#
# 1 132.1931 29.0817 45.4603 0.0000 0.0000 0.0000
# 2 29.0817 104.2762 30.6152 0.0000 0.0000 0.0000
# 3 45.4603 30.6152 124.7408 0.0000 0.0000 0.0000
# 4 0.0000 0.0000 0.0000 -63.5317 0.0000 0.0000
# 5 0.0000 0.0000 0.0000 0.0000 9.7084 0.0000
# 6 0.0000 0.0000 0.0000 0.0000 0.0000 26.3109
#
#
#
# Elastic Compliance Matrix: (Units=1/GPa)
#
#
# Indices 1 2 3 4 5 6 
#
# 1 0.008904 -0.001649 -0.002840 0.000000 0.000000 0.000000
# 2 -0.001649 0.010640 -0.002010 0.000000 0.000000 0.000000
# 3 -0.002840 -0.002010 0.009545 0.000000 0.000000 0.000000
# 4 0.000000 0.000000 0.000000 -0.015740 0.000000 0.000000
# 5 0.000000 0.000000 0.000000 0.000000 0.103004 0.000000
# 6 0.000000 0.000000 0.000000 0.000000 0.000000 0.038007
#
#
# Mechanical properties :
#
#
# Convention : Reuss Voigt Hill
#
# Bulk Modulus (GPa) = 62.15200 63.50272 62.82736
# Shear Modulus (GPa) = 28.94804 11.56771 20.25787
#
# Velocity S-wave (km/s) = 3.81868 2.41395 3.19448
# Velocity P-wave (km/s) = 7.12402 6.30543 6.72719
#
# Compressibility (1/GPa) = 0.01608959
#
# Stress axis : x y z
#
# Youngs Moduli (GPa) = 112.30525 93.98365 104.76572
#
# Poissons Ratio (x) = 0.15502 0.29756
# Poissons Ratio (y) = 0.18524 0.21061
# Poissons Ratio (z) = 0.31897 0.18893
#
# Static dielectric constant tensor:
#      x y z
#    x 3.875560 0.000000 0.000000 
#    y 0.000000 3.695580 0.000000 
#    z 0.000000 0.000000 4.028390 
# 
# 
# High freq. dielectric constant tensor:
#      x y z
#    x 1.785010 0.000000 0.000000 
#    y 0.000000 1.768240 0.000000 
#    z 0.000000 0.000000 1.768460 
# 
# From -- ./inp_files/74860.got.cif
#   From: 2010.03.12/outbox.cif.g09.slc.cpg/sg65_38_cif.got.tgz:74860.got - 2010.04.10 20:52:16.
