data_PCOD8273442
_publ_section_title
;
Structure prediction by ZEFSAII (Michael W. Deem and Ramdas Pophale) SiO2 
 PCOD8273442
Probable space group: C M M M
;
_chemical_formula_sum "Si O2"
_cell_formula_units_Z 104
_cell_length_a 17.865440
_cell_length_b 8.815501
_cell_length_c 34.232279
_cell_angle_alpha 90.000000
_cell_angle_beta 90.000000
_cell_angle_gamma 90.000000
_cell_volume 5391.337613
_symmetry_space_group_name_H-M "C M M M"
_symmetry_group_IT_number 65
_symmetry_cell_setting 'orthorhombic'
loop_
_space_group_symop_operation_xyz
x,y,z
-x,-y,z
x,-y,-z
-x,y,-z
-x,-y,-z
x,y,-z
-x,y,z
x,-y,z
1/2+x,1/2+y,z
1/2-x,1/2-y,z
1/2+x,1/2-y,-z
1/2-x,1/2+y,-z
1/2-x,1/2-y,-z
1/2+x,1/2+y,-z
1/2-x,1/2+y,z
1/2+x,1/2-y,z
loop_
_atom_site_type_symbol
_atom_site_label
_atom_site_fract_x
_atom_site_fract_y
_atom_site_fract_z
Si Si1 0.831875 0.678942 0.797935
Si Si2 0.330763 0.677636 0.041331
Si Si3 0.332030 0.679640 0.875216
Si Si4 0.169109 0.679374 0.500000
Si Si5 0.169272 0.821757 0.351294
Si Si6 0.912928 0.175903 0.272909
Si Si7 0.412521 0.824955 0.577838
O O1 0.823277 0.500000 0.800623
O O2 0.750000 0.750000 0.791179
O O3 0.871257 0.742280 0.837849
O O4 0.886438 0.722284 0.762954
O O5 0.317355 0.500000 0.042093
O O6 0.250000 0.750000 0.040760
O O7 0.372093 0.720082 0.082614
O O8 0.372935 0.722763 0.000000
O O9 0.328800 0.500000 0.868177
O O10 0.250000 0.750000 0.876855
O O11 0.175239 0.500000 0.500000
O O12 0.250000 0.750000 0.500000
O O13 0.125677 0.735771 0.538360
O O14 0.250000 0.750000 0.356422
O O15 0.132241 0.768509 0.310809
O O16 0.115684 0.773226 0.386185
O O17 0.178566 0.000000 0.352255
O O18 0.000000 0.205304 0.280736
O O19 0.896953 0.000000 0.263565
O O20 0.500000 0.800199 0.572811
O O21 0.392328 0.000000 0.585612
#
# Coordination Sequence:
#
# PCOD8273442 Si02
#       7
#    16  16  16   8  16  16  16
#     4  11  21  33  51  74 101 133 172 214 255 305
#     4   8  13  20  31  50  78 114 155 197 242 294
#     4   9  15  24  39  59  87 123 162 204 251 301
#     4  10  21  37  57  83 115 152 193 234 276 322
#     4  11  23  39  60  86 114 144 179 219 264 316
#     4  10  22  40  59  79 105 135 168 211 263 315
#     4  10  21  38  60  85 115 151 189 230 275 321
#
# _framework density 19.290203999999999
#
# number of rings (size 3 to 8) (size 9 to 14) (size 15 to 20)
#    0.000    2.154    0.000    4.846    0.000    7.077 
#    0.000    0.000    0.000    1.385    0.000    0.000 
#    0.000    0.615    0.000    7.077    0.000    4.615 
#
# Total GULP energy -644350.201848 kJ/mol
# GULP energy per Si atom -12391.350036 kJ/mol
# Density = 1.924630 g / cm^3
# Si number density = 19.290204 Si / 1000 Ang^3
#
#
#
# Elastic Constant Matrix: (Units=GPa)
#
#
# Indices 1 2 3 4 5 6 
#
# 1 57.2903 17.5152 33.3918 0.0000 0.0000 0.0000
# 2 17.5152 70.1565 47.9668 0.0000 0.0000 0.0000
# 3 33.3918 47.9668 181.8176 0.0000 0.0000 0.0000
# 4 0.0000 0.0000 0.0000 28.6465 0.0000 0.0000
# 5 0.0000 0.0000 0.0000 0.0000 1.5378 0.0000
# 6 0.0000 0.0000 0.0000 0.0000 0.0000 21.2689
#
#
#
# Elastic Compliance Matrix: (Units=1/GPa)
#
#
# Indices 1 2 3 4 5 6 
#
# 1 0.020064 -0.003038 -0.002884 0.000000 0.000000 0.000000
# 2 -0.003038 0.017851 -0.004151 0.000000 0.000000 0.000000
# 3 -0.002884 -0.004151 0.007125 0.000000 0.000000 0.000000
# 4 0.000000 0.000000 0.000000 0.034908 0.000000 0.000000
# 5 0.000000 0.000000 0.000000 0.000000 0.650293 0.000000
# 6 0.000000 0.000000 0.000000 0.000000 0.000000 0.047017
#
#
# Mechanical properties :
#
#
# Convention : Reuss Voigt Hill
#
# Bulk Modulus (GPa) = 40.16967 56.33466 48.25217
# Shear Modulus (GPa) = 6.20577 24.31668 15.26123
#
# Velocity S-wave (km/s) = 1.79556 3.55430 2.81577
# Velocity P-wave (km/s) = 5.01675 6.79053 5.96989
#
# Compressibility (1/GPa) = 0.02489440
#
# Stress axis : x y z
#
# Youngs Moduli (GPa) = 49.83969 56.02048 140.35467
#
# Poissons Ratio (x) = 0.17018 0.40471
# Poissons Ratio (y) = 0.15140 0.58267
# Poissons Ratio (z) = 0.14371 0.23256
#
# Static dielectric constant tensor:
#      x y z
#    x 3.130930 0.000000 0.000000 
#    y 0.000000 3.654770 0.000000 
#    z 0.000000 0.000000 4.456270 
# 
# 
# High freq. dielectric constant tensor:
#      x y z
#    x 1.705750 0.000000 0.000000 
#    y 0.000000 1.750310 0.000000 
#    z 0.000000 0.000000 1.787100 
# 
# From -- ./inp_files/78170.got.cif
#   From: 2010.03.12/outbox.cif.g09.slc.cpg/sg65_40_cif.got.tgz:78170.got - 2010.04.10 20:52:16.
