data_PCOD8273034
_publ_section_title
;
Structure prediction by ZEFSAII (Michael W. Deem and Ramdas Pophale) SiO2 
 PCOD8273034
Probable space group: C M M M
;
_chemical_formula_sum "Si O2"
_cell_formula_units_Z 96
_cell_length_a 9.072869
_cell_length_b 18.073186
_cell_length_c 30.729615
_cell_angle_alpha 90.000000
_cell_angle_beta 90.000000
_cell_angle_gamma 90.000000
_cell_volume 5038.908563
_symmetry_space_group_name_H-M "C M M M"
_symmetry_group_IT_number 65
_symmetry_cell_setting 'orthorhombic'
loop_
_space_group_symop_operation_xyz
x,y,z
-x,-y,z
x,-y,-z
-x,y,-z
-x,-y,-z
x,y,-z
-x,y,z
x,-y,z
1/2+x,1/2+y,z
1/2-x,1/2-y,z
1/2+x,1/2-y,-z
1/2-x,1/2+y,-z
1/2-x,1/2-y,-z
1/2+x,1/2+y,-z
1/2-x,1/2+y,z
1/2+x,1/2-y,z
loop_
_atom_site_type_symbol
_atom_site_label
_atom_site_fract_x
_atom_site_fract_y
_atom_site_fract_z
Si Si1 0.333375 0.412106 0.452506
Si Si2 0.169501 0.584966 0.949471
Si Si3 0.668887 0.913340 0.802078
Si Si4 0.674124 0.915865 0.631861
Si Si5 0.825442 0.171776 0.123228
Si Si6 0.827066 0.327593 0.715259
O O1 0.277492 0.383203 0.500000
O O2 0.500000 0.385369 0.444818
O O3 0.324314 0.500000 0.452542
O O4 0.234725 0.380626 0.413139
O O5 0.206031 0.500000 0.937868
O O6 0.275813 0.638955 0.923050
O O7 0.000000 0.602038 0.937450
O O8 0.198568 0.600268 0.000000
O O9 0.500000 0.894408 0.814587
O O10 0.776948 0.883846 0.839049
O O11 0.713217 0.878004 0.756269
O O12 0.692818 0.000000 0.797463
O O13 0.500000 0.913756 0.629830
O O14 0.734134 0.867823 0.672086
O O15 0.730295 0.000000 0.638160
O O16 0.750000 0.250000 0.131861
O O17 0.000000 0.181697 0.123516
O O18 0.750000 0.250000 0.721573
O O19 0.000000 0.314398 0.711510
#
# Coordination Sequence:
#
# PCOD8273034 Si02
#       6
#    16  16  16  16  16  16
#     4   8  14  25  42  67  99 131 163 203 253 306
#     4   9  19  38  63  88 115 149 188 229 275 327
#     4  10  21  39  62  84 109 142 178 219 270 325
#     4   9  17  30  49  73 100 130 168 212 256 306
#     4  12  25  39  57  83 116 151 187 228 273 322
#     4  10  21  36  54  77 105 138 174 213 260 313
#
# _framework density 19.051743999999999
#
# number of rings (size 3 to 8) (size 9 to 14) (size 15 to 20)
#    0.000    2.333    0.000    4.000    0.000    8.333 
#    0.000    2.500    0.000    3.500    0.000    0.000 
#    0.000    0.000    0.000    0.000    0.000    0.000 
#
# Total GULP energy -595211.611714 kJ/mol
# GULP energy per Si atom -12400.241911 kJ/mol
# Density = 1.900838 g / cm^3
# Si number density = 19.051744 Si / 1000 Ang^3
#
#
#
# Elastic Constant Matrix: (Units=GPa)
#
#
# Indices 1 2 3 4 5 6 
#
# 1 75.6515 42.0157 52.9292 0.0000 0.0000 0.0000
# 2 42.0157 92.4038 55.0133 0.0000 0.0000 0.0000
# 3 52.9292 55.0133 135.7646 0.0000 0.0000 0.0000
# 4 0.0000 0.0000 0.0000 -4.8907 0.0000 0.0000
# 5 0.0000 0.0000 0.0000 0.0000 -40.4670 0.0000
# 6 0.0000 0.0000 0.0000 0.0000 0.0000 26.7127
#
#
#
# Elastic Compliance Matrix: (Units=1/GPa)
#
#
# Indices 1 2 3 4 5 6 
#
# 1 0.020415 -0.005989 -0.005532 0.000000 0.000000 0.000000
# 2 -0.005989 0.016020 -0.004157 0.000000 0.000000 0.000000
# 3 -0.005532 -0.004157 0.011207 0.000000 0.000000 0.000000
# 4 0.000000 0.000000 0.000000 -0.204472 0.000000 0.000000
# 5 0.000000 0.000000 0.000000 0.000000 -0.024711 0.000000
# 6 0.000000 0.000000 0.000000 0.000000 0.000000 0.037435
#
#
# Mechanical properties :
#
#
# Convention : Reuss Voigt Hill
#
# Bulk Modulus (GPa) = 61.40158 67.08179 64.24168
# Shear Modulus (GPa) = -46.58927 6.52845 -20.03041
#
# Velocity S-wave (km/s) = -4.95047 1.85314 -3.24600
# Velocity P-wave (km/s) = 0.61432 6.31392 4.44343
#
# Compressibility (1/GPa) = 0.01628623
#
# Stress axis : x y z
#
# Youngs Moduli (GPa) = 48.98254 62.42230 89.23171
#
# Poissons Ratio (x) = 0.37386 0.49366
# Poissons Ratio (y) = 0.29336 0.37089
# Poissons Ratio (z) = 0.27099 0.25946
#
# Static dielectric constant tensor:
#      x y z
#    x 3.411610 0.000000 0.000000 
#    y 0.000000 3.339210 0.000000 
#    z 0.000000 0.000000 3.845540 
# 
# 
# High freq. dielectric constant tensor:
#      x y z
#    x 1.726740 0.000000 0.000000 
#    y 0.000000 1.723930 0.000000 
#    z 0.000000 0.000000 1.760690 
# 
# From -- ./inp_files/73134.got.cif
#   From: 2010.03.12/outbox.cif.g09.slc.cpg/sg65_37_cif.got.tgz:73134.got - 2010.04.10 20:52:16.
