data_PCOD8273709
_publ_section_title
;
Structure prediction by ZEFSAII (Michael W. Deem and Ramdas Pophale) SiO2 
 PCOD8273709
Probable space group: C M M M
;
_chemical_formula_sum "Si O2"
_cell_formula_units_Z 72
_cell_length_a 15.733052
_cell_length_b 8.871314
_cell_length_c 26.224402
_cell_angle_alpha 90.000000
_cell_angle_beta 90.000000
_cell_angle_gamma 90.000000
_cell_volume 3660.214382
_symmetry_space_group_name_H-M "C M M M"
_symmetry_group_IT_number 65
_symmetry_cell_setting 'orthorhombic'
loop_
_space_group_symop_operation_xyz
x,y,z
-x,-y,z
x,-y,-z
-x,y,-z
-x,-y,-z
x,y,-z
-x,y,z
x,-y,z
1/2+x,1/2+y,z
1/2-x,1/2-y,z
1/2+x,1/2-y,-z
1/2-x,1/2+y,-z
1/2-x,1/2-y,-z
1/2+x,1/2+y,-z
1/2-x,1/2+y,z
1/2+x,1/2-y,z
loop_
_atom_site_type_symbol
_atom_site_label
_atom_site_fract_x
_atom_site_fract_y
_atom_site_fract_z
Si Si1 0.406997 0.680215 0.000000
Si Si2 0.500000 0.172085 0.269926
Si Si3 0.838074 0.823982 0.440526
Si Si4 0.156483 0.175710 0.784639
Si Si5 0.000000 0.327830 0.390498
Si Si6 0.664833 0.327653 0.895833
O O1 0.369598 0.749521 0.947608
O O2 0.404975 0.500000 0.000000
O O3 0.500000 0.744563 0.000000
O O4 0.586708 0.250795 0.251708
O O5 0.500000 0.182076 0.330192
O O6 0.500000 0.000000 0.250519
O O7 0.852565 0.792070 0.500000
O O8 0.750000 0.750000 0.421722
O O9 0.916037 0.753020 0.410543
O O10 0.833728 0.000000 0.428280
O O11 0.250000 0.250000 0.777572
O O12 0.115080 0.191355 0.842260
O O13 0.167251 0.000000 0.771069
O O14 0.000000 0.500000 0.409649
O O15 0.679173 0.500000 0.909864
O O16 0.750000 0.250000 0.880473
#
# Coordination Sequence:
#
# PCOD8273709 Si02
#       6
#     8   8  16  16   8  16
#     4   9  17  28  47  75 106 137 170 212 263 326
#     4  11  25  42  60  84 115 152 197 246 295 344
#     4  10  21  38  62  92 125 161 199 238 283 338
#     4  10  21  38  61  86 112 147 192 239 291 349
#     4  11  24  40  59  86 119 157 198 244 295 344
#     4   9  18  32  53  77 102 136 175 218 270 333
#
# _framework density 19.670978999999999
#
# number of rings (size 3 to 8) (size 9 to 14) (size 15 to 20)
#    0.000    2.111    0.000    2.667    1.556    6.222 
#    0.000    0.000    0.000    0.667    0.000    0.000 
#    0.000    0.000    0.000    0.000    0.000    0.000 
#
# Total GULP energy -445998.539654 kJ/mol
# GULP energy per Si atom -12388.848324 kJ/mol
# Density = 1.962621 g / cm^3
# Si number density = 19.670979 Si / 1000 Ang^3
#
#
#
# Elastic Constant Matrix: (Units=GPa)
#
#
# Indices 1 2 3 4 5 6 
#
# 1 140.2428 60.9026 56.6715 0.0000 0.0000 0.0000
# 2 60.9026 106.9116 52.6216 0.0000 0.0000 0.0000
# 3 56.6715 52.6216 85.0100 0.0000 0.0000 0.0000
# 4 0.0000 0.0000 0.0000 25.6509 0.0000 0.0000
# 5 0.0000 0.0000 0.0000 0.0000 83.1552 0.0000
# 6 0.0000 0.0000 0.0000 0.0000 0.0000 32.2613
#
#
#
# Elastic Compliance Matrix: (Units=1/GPa)
#
#
# Indices 1 2 3 4 5 6 
#
# 1 0.010696 -0.003715 -0.004831 0.000000 0.000000 0.000000
# 2 -0.003715 0.014743 -0.006649 0.000000 0.000000 0.000000
# 3 -0.004831 -0.006649 0.019099 0.000000 0.000000 0.000000
# 4 0.000000 0.000000 0.000000 0.038985 0.000000 0.000000
# 5 0.000000 0.000000 0.000000 0.000000 0.012026 0.000000
# 6 0.000000 0.000000 0.000000 0.000000 0.000000 0.030997
#
#
# Mechanical properties :
#
#
# Convention : Reuss Voigt Hill
#
# Bulk Modulus (GPa) = 70.68066 74.72843 72.70455
# Shear Modulus (GPa) = 30.93080 39.01138 34.97109
#
# Velocity S-wave (km/s) = 3.96966 4.45814 4.22097
# Velocity P-wave (km/s) = 7.55118 8.03565 7.79718
#
# Compressibility (1/GPa) = 0.01414814
#
# Stress axis : x y z
#
# Youngs Moduli (GPa) = 93.49308 67.83072 52.35805
#
# Poissons Ratio (x) = 0.25202 0.25292
# Poissons Ratio (y) = 0.34737 0.34812
# Poissons Ratio (z) = 0.45162 0.45100
#
# Static dielectric constant tensor:
#      x y z
#    x 3.539280 0.000000 0.000000 
#    y 0.000000 3.615180 0.000000 
#    z 0.000000 0.000000 3.928220 
# 
# 
# High freq. dielectric constant tensor:
#      x y z
#    x 1.766630 0.000000 0.000000 
#    y 0.000000 1.763110 0.000000 
#    z 0.000000 0.000000 1.778150 
# 
# From -- ./inp_files/74698.got.cif
#   From: 2010.03.12/outbox.cif.g09.slc.cpg/sg65_38_cif.got.tgz:74698.got - 2010.04.10 20:52:16.
