data_PCOD8273604
_publ_section_title
;
Structure prediction by ZEFSAII (Michael W. Deem and Ramdas Pophale) SiO2 
 PCOD8273604
Probable space group: C M M M
;
_chemical_formula_sum "Si O2"
_cell_formula_units_Z 80
_cell_length_a 14.534429
_cell_length_b 18.390246
_cell_length_c 15.458838
_cell_angle_alpha 90.000000
_cell_angle_beta 90.000000
_cell_angle_gamma 90.000000
_cell_volume 4132.019472
_symmetry_space_group_name_H-M "C M M M"
_symmetry_group_IT_number 65
_symmetry_cell_setting 'orthorhombic'
loop_
_space_group_symop_operation_xyz
x,y,z
-x,-y,z
x,-y,-z
-x,y,-z
-x,-y,-z
x,y,-z
-x,y,z
x,-y,z
1/2+x,1/2+y,z
1/2-x,1/2-y,z
1/2+x,1/2-y,-z
1/2-x,1/2+y,-z
1/2-x,1/2-y,-z
1/2+x,1/2+y,-z
1/2-x,1/2+y,z
1/2+x,1/2-y,z
loop_
_atom_site_type_symbol
_atom_site_label
_atom_site_fract_x
_atom_site_fract_y
_atom_site_fract_z
Si Si1 0.209632 0.586474 0.905585
Si Si2 0.102633 0.084648 0.357628
Si Si3 0.727293 0.170005 0.403450
Si Si4 0.392323 0.914731 0.265090
Si Si5 0.099517 0.913917 0.159130
O O1 0.212135 0.500000 0.902776
O O2 0.143981 0.613722 0.828258
O O3 0.313946 0.617285 0.894330
O O4 0.173259 0.612984 0.000000
O O5 0.176891 0.127459 0.412930
O O6 0.115062 0.107865 0.258259
O O7 0.000000 0.104463 0.389978
O O8 0.121628 0.000000 0.369968
O O9 0.683943 0.174531 0.500000
O O10 0.750000 0.250000 0.366918
O O11 0.656013 0.129652 0.341105
O O12 0.500000 0.899027 0.269268
O O13 0.369944 0.000000 0.277679
O O14 0.000000 0.882829 0.126495
O O15 0.096076 0.000000 0.150725
#
# Coordination Sequence:
#
# PCOD8273604 Si02
#       5
#    16  16  16  16  16
#     4   9  16  27  48  80 114 144 178 226 281 330
#     4   9  17  32  56  82 107 137 175 220 269 324
#     4  11  24  39  56  80 111 145 181 226 280 335
#     4  10  21  38  59  82 111 148 191 236 277 322
#     4   8  13  23  43  73 107 139 171 212 264 319
#
# _framework density 19.360992
#
# number of rings (size 3 to 8) (size 9 to 14) (size 15 to 20)
#    0.000    2.600    2.000    1.800    0.000    4.000 
#    0.000    8.000    0.000    0.600    0.000    0.000 
#    0.000    0.000    0.000    0.000    0.000    0.000 
#
# Total GULP energy -495696.132929 kJ/mol
# GULP energy per Si atom -12392.403323 kJ/mol
# Density = 1.931693 g / cm^3
# Si number density = 19.360992 Si / 1000 Ang^3
#
#
#
# Elastic Constant Matrix: (Units=GPa)
#
#
# Indices 1 2 3 4 5 6 
#
# 1 130.4039 44.9329 65.1723 0.0000 0.0000 0.0000
# 2 44.9329 50.0157 39.2929 0.0000 0.0000 0.0000
# 3 65.1723 39.2929 122.7718 0.0000 0.0000 0.0000
# 4 0.0000 0.0000 0.0000 10.5932 0.0000 0.0000
# 5 0.0000 0.0000 0.0000 0.0000 13.9516 0.0000
# 6 0.0000 0.0000 0.0000 0.0000 0.0000 11.0954
#
#
#
# Elastic Compliance Matrix: (Units=1/GPa)
#
#
# Indices 1 2 3 4 5 6 
#
# 1 0.012449 -0.008005 -0.004046 0.000000 0.000000 0.000000
# 2 -0.008005 0.031857 -0.005946 0.000000 0.000000 0.000000
# 3 -0.004046 -0.005946 0.012196 0.000000 0.000000 0.000000
# 4 0.000000 0.000000 0.000000 0.094400 0.000000 0.000000
# 5 0.000000 0.000000 0.000000 0.000000 0.071677 0.000000
# 6 0.000000 0.000000 0.000000 0.000000 0.000000 0.090128
#
#
# Mechanical properties :
#
#
# Convention : Reuss Voigt Hill
#
# Bulk Modulus (GPa) = 48.76493 66.88750 57.82622
# Shear Modulus (GPa) = 14.06324 17.38093 15.72209
#
# Velocity S-wave (km/s) = 2.69805 2.99946 2.85274
# Velocity P-wave (km/s) = 5.91167 6.82776 6.38616
#
# Compressibility (1/GPa) = 0.02050654
#
# Stress axis : x y z
#
# Youngs Moduli (GPa) = 80.32742 31.39062 81.99181
#
# Poissons Ratio (x) = 0.25128 0.33178
# Poissons Ratio (y) = 0.64302 0.48755
# Poissons Ratio (z) = 0.32504 0.18666
#
# Static dielectric constant tensor:
#      x y z
#    x 3.968640 0.000000 0.000000 
#    y 0.000000 3.029480 0.000000 
#    z 0.000000 0.000000 3.589540 
# 
# 
# High freq. dielectric constant tensor:
#      x y z
#    x 1.761860 0.000000 0.000000 
#    y 0.000000 1.693390 0.000000 
#    z 0.000000 0.000000 1.756240 
# 
# From -- ./inp_files/40015.got.cif
#   From: 2010.03.12/outbox.cif.g09.slc.cpg/sg65_21_cif.got.tgz:40015.got - 2010.04.10 20:52:16.
