data_PCOD8273537
_publ_section_title
;
Structure prediction by ZEFSAII (Michael W. Deem and Ramdas Pophale) SiO2 
 PCOD8273537
Probable space group: C M M M
;
_chemical_formula_sum "Si O2"
_cell_formula_units_Z 64
_cell_length_a 23.824626
_cell_length_b 15.414249
_cell_length_c 8.910443
_cell_angle_alpha 90.000000
_cell_angle_beta 90.000000
_cell_angle_gamma 90.000000
_cell_volume 3272.259660
_symmetry_space_group_name_H-M "C M M M"
_symmetry_group_IT_number 65
_symmetry_cell_setting 'orthorhombic'
loop_
_space_group_symop_operation_xyz
x,y,z
-x,-y,z
x,-y,-z
-x,y,-z
-x,-y,-z
x,y,-z
-x,y,z
x,-y,z
1/2+x,1/2+y,z
1/2-x,1/2-y,z
1/2+x,1/2-y,-z
1/2-x,1/2+y,-z
1/2-x,1/2-y,-z
1/2+x,1/2+y,-z
1/2-x,1/2+y,z
1/2+x,1/2-y,z
loop_
_atom_site_type_symbol
_atom_site_label
_atom_site_fract_x
_atom_site_fract_y
_atom_site_fract_z
Si Si1 0.000000 0.142206 0.173730
Si Si2 0.110059 0.600520 0.825380
Si Si3 0.780613 0.661351 0.676543
Si Si4 0.000000 0.325961 0.322631
Si Si5 0.909584 0.000000 0.827145
Si Si6 0.291126 0.500000 0.676933
O O1 0.000000 0.225512 0.278158
O O2 0.054909 0.085765 0.210946
O O3 0.000000 0.170585 0.000000
O O4 0.123916 0.500000 0.795585
O O5 0.160451 0.658817 0.762275
O O6 0.053819 0.625251 0.740349
O O7 0.101814 0.620773 0.000000
O O8 0.792566 0.653138 0.500000
O O9 0.750000 0.750000 0.718193
O O10 0.740937 0.584616 0.737306
O O11 0.000000 0.333372 0.500000
O O12 0.854707 0.000000 0.728207
O O13 0.892071 0.000000 0.000000
O O14 0.291556 0.500000 0.500000
#
# Coordination Sequence:
#
# PCOD8273537 Si02
#       6
#     8  16  16   8   8   8
#     4   9  20  41  61  87 122 160 201 250 301 352
#     4  11  24  43  65  90 120 155 200 252 303 359
#     4  10  22  40  62  90 125 163 203 247 300 361
#     4  12  26  40  63  92 120 157 200 247 304 363
#     4   9  20  38  62  86 121 163 201 246 301 357
#     4  10  21  37  59  89 127 162 199 252 300 352
#
# _framework density 19.558349
#
# number of rings (size 3 to 8) (size 9 to 14) (size 15 to 20)
#    0.000    1.750    1.250    3.000    3.500    5.500 
#    0.000    1.250    0.000    0.000    0.000    0.000 
#    0.000    0.000    0.000    0.000    0.000    0.000 
#
# Total GULP energy -396961.540312 kJ/mol
# GULP energy per Si atom -12405.048135 kJ/mol
# Density = 1.951383 g / cm^3
# Si number density = 19.558349 Si / 1000 Ang^3
#
#
#
# Elastic Constant Matrix: (Units=GPa)
#
#
# Indices 1 2 3 4 5 6 
#
# 1 161.6102 54.8956 62.3989 0.0000 0.0000 0.0000
# 2 54.8956 119.0991 52.7721 0.0000 0.0000 0.0000
# 3 62.3989 52.7721 92.7818 0.0000 0.0000 0.0000
# 4 0.0000 0.0000 0.0000 21.2414 0.0000 0.0000
# 5 0.0000 0.0000 0.0000 0.0000 49.2335 0.0000
# 6 0.0000 0.0000 0.0000 0.0000 0.0000 23.3861
#
#
#
# Elastic Compliance Matrix: (Units=1/GPa)
#
#
# Indices 1 2 3 4 5 6 
#
# 1 0.008664 -0.001887 -0.004754 0.000000 0.000000 0.000000
# 2 -0.001887 0.011637 -0.005349 0.000000 0.000000 0.000000
# 3 -0.004754 -0.005349 0.017017 0.000000 0.000000 0.000000
# 4 0.000000 0.000000 0.000000 0.047078 0.000000 0.000000
# 5 0.000000 0.000000 0.000000 0.000000 0.020311 0.000000
# 6 0.000000 0.000000 0.000000 0.000000 0.000000 0.042760
#
#
# Mechanical properties :
#
#
# Convention : Reuss Voigt Hill
#
# Bulk Modulus (GPa) = 74.97422 79.29158 77.13290
# Shear Modulus (GPa) = 28.42621 32.33383 30.38002
#
# Velocity S-wave (km/s) = 3.81649 4.07037 3.94547
# Velocity P-wave (km/s) = 7.60511 7.91957 7.76393
#
# Compressibility (1/GPa) = 0.01333792
#
# Stress axis : x y z
#
# Youngs Moduli (GPa) = 115.41802 85.93649 58.76323
#
# Poissons Ratio (x) = 0.16218 0.27933
# Poissons Ratio (y) = 0.21782 0.31434
# Poissons Ratio (z) = 0.54864 0.45970
#
# Static dielectric constant tensor:
#      x y z
#    x 3.644680 0.000000 0.000000 
#    y 0.000000 3.707440 0.000000 
#    z 0.000000 0.000000 3.470330 
# 
# 
# High freq. dielectric constant tensor:
#      x y z
#    x 1.775480 0.000000 0.000000 
#    y 0.000000 1.772820 0.000000 
#    z 0.000000 0.000000 1.757110 
# 
# From -- ./inp_files/13414.got.cif
#   From: 2010.03.12/outbox.cif.g09.slc.cpg/sg65_7_cif.got.tgz:13414.got - 2010.04.10 20:52:16.
