data_PCOD8273727
_publ_section_title
;
Structure prediction by ZEFSAII (Michael W. Deem and Ramdas Pophale) SiO2 
 PCOD8273727
Probable space group: C M M M
;
_chemical_formula_sum "Si O2"
_cell_formula_units_Z 72
_cell_length_a 18.321813
_cell_length_b 8.861512
_cell_length_c 22.898159
_cell_angle_alpha 90.000000
_cell_angle_beta 90.000000
_cell_angle_gamma 90.000000
_cell_volume 3717.721413
_symmetry_space_group_name_H-M "C M M M"
_symmetry_group_IT_number 65
_symmetry_cell_setting 'orthorhombic'
loop_
_space_group_symop_operation_xyz
x,y,z
-x,-y,z
x,-y,-z
-x,y,-z
-x,-y,-z
x,y,-z
-x,y,z
x,-y,z
1/2+x,1/2+y,z
1/2-x,1/2-y,z
1/2+x,1/2-y,-z
1/2-x,1/2+y,-z
1/2-x,1/2-y,-z
1/2+x,1/2+y,-z
1/2-x,1/2+y,z
1/2+x,1/2-y,z
loop_
_atom_site_type_symbol
_atom_site_label
_atom_site_fract_x
_atom_site_fract_y
_atom_site_fract_z
Si Si1 0.583130 0.322207 0.383094
Si Si2 0.826152 0.176154 0.932133
Si Si3 0.414466 0.825084 0.835228
Si Si4 0.413241 0.829550 0.500000
Si Si5 0.670931 0.321114 0.270045
O O1 0.500000 0.267718 0.372769
O O2 0.586445 0.500000 0.390543
O O3 0.617052 0.250243 0.441763
O O4 0.630626 0.265777 0.328647
O O5 0.750000 0.250000 0.912596
O O6 0.890971 0.256914 0.897399
O O7 0.823310 0.000000 0.916900
O O8 0.841722 0.205065 0.000000
O O9 0.500000 0.801079 0.827838
O O10 0.374745 0.733785 0.784807
O O11 0.392499 0.000000 0.832018
O O12 0.500000 0.816914 0.500000
O O13 0.385135 0.000000 0.500000
O O14 0.677190 0.500000 0.267571
O O15 0.750000 0.250000 0.268388
#
# Coordination Sequence:
#
# PCOD8273727 Si02
#       5
#    16  16  16   8  16
#     4   9  18  34  56  80 107 142 183 225 271 326
#     4  10  21  38  61  87 116 151 189 229 274 327
#     4  11  24  40  59  84 114 148 186 231 281 331
#     4   9  17  29  50  81 112 141 175 221 274 325
#     4  11  23  39  59  82 111 147 187 231 280 334
#
# _framework density 19.366702
#
# number of rings (size 3 to 8) (size 9 to 14) (size 15 to 20)
#    0.000    1.889    0.000    3.667    0.000    7.556 
#    0.000    5.000    0.000    0.000    0.000    0.000 
#    0.000    0.000    0.000    0.000    0.000    0.000 
#
# Total GULP energy -446559.489008 kJ/mol
# GULP energy per Si atom -12404.430250 kJ/mol
# Density = 1.932262 g / cm^3
# Si number density = 19.366702 Si / 1000 Ang^3
#
#
#
# Elastic Constant Matrix: (Units=GPa)
#
#
# Indices 1 2 3 4 5 6 
#
# 1 90.3037 43.9945 59.3669 0.0000 0.0000 0.0000
# 2 43.9945 80.0445 48.9720 0.0000 0.0000 0.0000
# 3 59.3669 48.9720 130.3413 0.0000 0.0000 0.0000
# 4 0.0000 0.0000 0.0000 27.2249 0.0000 0.0000
# 5 0.0000 0.0000 0.0000 0.0000 20.5633 0.0000
# 6 0.0000 0.0000 0.0000 0.0000 0.0000 21.5088
#
#
#
# Elastic Compliance Matrix: (Units=1/GPa)
#
#
# Indices 1 2 3 4 5 6 
#
# 1 0.017975 -0.006324 -0.005811 0.000000 0.000000 0.000000
# 2 -0.006324 0.018447 -0.004050 0.000000 0.000000 0.000000
# 3 -0.005811 -0.004050 0.011841 0.000000 0.000000 0.000000
# 4 0.000000 0.000000 0.000000 0.036731 0.000000 0.000000
# 5 0.000000 0.000000 0.000000 0.000000 0.048630 0.000000
# 6 0.000000 0.000000 0.000000 0.000000 0.000000 0.046493
#
#
# Mechanical properties :
#
#
# Convention : Reuss Voigt Hill
#
# Bulk Modulus (GPa) = 62.92677 67.26183 65.09430
# Shear Modulus (GPa) = 22.95837 23.74982 23.35409
#
# Velocity S-wave (km/s) = 3.44678 3.50569 3.47636
# Velocity P-wave (km/s) = 6.95724 7.15489 7.05676
#
# Compressibility (1/GPa) = 0.01589149
#
# Stress axis : x y z
#
# Youngs Moduli (GPa) = 55.63260 54.20891 84.45425
#
# Poissons Ratio (x) = 0.34284 0.49076
# Poissons Ratio (y) = 0.35184 0.34207
# Poissons Ratio (z) = 0.32328 0.21957
#
# Static dielectric constant tensor:
#      x y z
#    x 3.445900 0.000000 0.000000 
#    y 0.000000 3.635280 0.000000 
#    z 0.000000 0.000000 3.742190 
# 
# 
# High freq. dielectric constant tensor:
#      x y z
#    x 1.740520 0.000000 0.000000 
#    y 0.000000 1.764110 0.000000 
#    z 0.000000 0.000000 1.770920 
# 
# From -- ./inp_files/70324.got.cif
#   From: 2010.03.12/outbox.cif.g09.slc.cpg/sg65_36_cif.got.tgz:70324.got - 2010.04.10 20:52:16.
