data_PCOD8273909
_publ_section_title
;
Structure prediction by ZEFSAII (Michael W. Deem and Ramdas Pophale) SiO2 
 PCOD8273909
Probable space group: C M M M
;
_chemical_formula_sum "Si O2"
_cell_formula_units_Z 88
_cell_length_a 16.771950
_cell_length_b 30.439027
_cell_length_c 10.001636
_cell_angle_alpha 90.000000
_cell_angle_beta 90.000000
_cell_angle_gamma 90.000000
_cell_volume 5106.053603
_symmetry_space_group_name_H-M "C M M M"
_symmetry_group_IT_number 65
_symmetry_cell_setting 'orthorhombic'
loop_
_space_group_symop_operation_xyz
x,y,z
-x,-y,z
x,-y,-z
-x,y,-z
-x,-y,-z
x,y,-z
-x,y,z
x,-y,z
1/2+x,1/2+y,z
1/2-x,1/2-y,z
1/2+x,1/2-y,-z
1/2-x,1/2+y,-z
1/2-x,1/2-y,-z
1/2+x,1/2+y,-z
1/2-x,1/2+y,z
1/2+x,1/2-y,z
loop_
_atom_site_type_symbol
_atom_site_label
_atom_site_fract_x
_atom_site_fract_y
_atom_site_fract_z
Si Si1 0.354360 0.549387 0.655084
Si Si2 0.409997 0.218631 0.500000
Si Si3 0.405685 0.657664 0.000000
Si Si4 0.594729 0.241764 0.000000
Si Si5 0.684263 0.362997 0.743874
Si Si6 0.500000 0.449321 0.848602
Si Si7 0.809411 0.709362 0.753417
Si Si8 0.410083 0.677304 0.500000
O O1 0.381875 0.552944 0.500000
O O2 0.321017 0.500000 0.682651
O O3 0.290776 0.587978 0.690243
O O4 0.425392 0.562087 0.755150
O O5 0.500000 0.200138 0.500000
O O6 0.363058 0.200129 0.625797
O O7 0.411209 0.270742 0.500000
O O8 0.372907 0.632503 0.871423
O O9 0.500000 0.657160 0.000000
O O10 0.375556 0.708037 0.000000
O O11 0.629901 0.217946 0.127859
O O12 0.500000 0.237595 0.000000
O O13 0.762291 0.335627 0.782797
O O14 0.635064 0.337917 0.631085
O O15 0.500000 0.500000 0.881014
O O16 0.500000 0.426124 0.000000
O O17 0.750000 0.750000 0.730263
O O18 0.500000 0.658470 0.500000
#
# Coordination Sequence:
#
# PCOD8273909 Si02
#       8
#    16   8   8   8  16   8  16   8
#     4  10  22  37  52  72 102 143 189 227 274 324
#     4  11  22  36  54  76 107 143 178 219 264 320
#     4  11  23  35  50  78 109 143 186 223 262 315
#     4  11  22  40  58  76 111 151 182 215 260 324
#     4  12  23  34  53  76 104 143 179 230 271 309
#     4   9  19  35  53  73  99 137 181 233 273 307
#     4  12  21  36  55  80 110 139 179 221 269 318
#     4  11  21  33  48  74 105 141 182 217 262 315
#
# _framework density 17.234445000000001
#
# number of rings (size 3 to 8) (size 9 to 14) (size 15 to 20)
#    0.000    1.000    4.545    3.000    3.818    4.000 
#    0.000    0.000    0.000    0.000    0.000    0.000 
#    0.000    4.364    0.000    0.000    0.000    0.000 
#
# Total GULP energy -545430.682956 kJ/mol
# GULP energy per Si atom -12396.151885 kJ/mol
# Density = 1.719522 g / cm^3
# Si number density = 17.234445 Si / 1000 Ang^3
#
#
#
# Elastic Constant Matrix: (Units=GPa)
#
#
# Indices 1 2 3 4 5 6 
#
# 1 66.2413 27.2256 29.0228 0.0000 0.0000 0.0000
# 2 27.2256 105.3027 22.1084 0.0000 0.0000 0.0000
# 3 29.0228 22.1084 127.9832 0.0000 0.0000 0.0000
# 4 0.0000 0.0000 0.0000 16.1790 0.0000 0.0000
# 5 0.0000 0.0000 0.0000 0.0000 34.3469 0.0000
# 6 0.0000 0.0000 0.0000 0.0000 0.0000 -38.4786
#
#
#
# Elastic Compliance Matrix: (Units=1/GPa)
#
#
# Indices 1 2 3 4 5 6 
#
# 1 0.018249 -0.003994 -0.003448 0.000000 0.000000 0.000000
# 2 -0.003994 0.010728 -0.000947 0.000000 0.000000 0.000000
# 3 -0.003448 -0.000947 0.008759 0.000000 0.000000 0.000000
# 4 0.000000 0.000000 0.000000 0.061809 0.000000 0.000000
# 5 0.000000 0.000000 0.000000 0.000000 0.029115 0.000000
# 6 0.000000 0.000000 0.000000 0.000000 0.000000 -0.025988
#
#
# Mechanical properties :
#
#
# Convention : Reuss Voigt Hill
#
# Bulk Modulus (GPa) = 47.71881 50.69345 49.20613
# Shear Modulus (GPa) = 39.54566 17.15413 28.34989
#
# Velocity S-wave (km/s) = 4.79536 3.15832 4.06020
# Velocity P-wave (km/s) = 7.64257 6.54048 7.11290
#
# Compressibility (1/GPa) = 0.02095610
#
# Stress axis : x y z
#
# Youngs Moduli (GPa) = 54.79815 93.21372 114.16606
#
# Poissons Ratio (x) = 0.37231 0.39368
# Poissons Ratio (y) = 0.21887 0.10817
# Poissons Ratio (z) = 0.18896 0.08832
#
# Static dielectric constant tensor:
#      x y z
#    x 3.129960 0.000000 0.000000 
#    y 0.000000 3.442220 0.000000 
#    z 0.000000 0.000000 3.406840 
# 
# 
# High freq. dielectric constant tensor:
#      x y z
#    x 1.627000 0.000000 0.000000 
#    y 0.000000 1.659660 0.000000 
#    z 0.000000 0.000000 1.693060 
# 
# From -- ./inp_files/10254.got.cif
#   From: 2010.03.12/outbox.cif.g09.slc.cpg/sg65_6_cif.got.tgz:10254.got - 2010.04.10 20:52:16.
