data_PCOD8273434
_publ_section_title
;
Structure prediction by ZEFSAII (Michael W. Deem and Ramdas Pophale) SiO2 
 PCOD8273434
Probable space group: C M M M
;
_chemical_formula_sum "Si O2"
_cell_formula_units_Z 88
_cell_length_a 22.602866
_cell_length_b 23.974287
_cell_length_c 8.817881
_cell_angle_alpha 90.000000
_cell_angle_beta 90.000000
_cell_angle_gamma 90.000000
_cell_volume 4778.300341
_symmetry_space_group_name_H-M "C M M M"
_symmetry_group_IT_number 65
_symmetry_cell_setting 'orthorhombic'
loop_
_space_group_symop_operation_xyz
x,y,z
-x,-y,z
x,-y,-z
-x,y,-z
-x,-y,-z
x,y,-z
-x,y,z
x,-y,z
1/2+x,1/2+y,z
1/2-x,1/2-y,z
1/2+x,1/2-y,-z
1/2-x,1/2+y,-z
1/2-x,1/2-y,-z
1/2+x,1/2+y,-z
1/2-x,1/2+y,z
1/2+x,1/2-y,z
loop_
_atom_site_type_symbol
_atom_site_label
_atom_site_fract_x
_atom_site_fract_y
_atom_site_fract_z
Si Si1 0.338948 0.936176 0.174818
Si Si2 0.431440 0.268572 0.675129
Si Si3 0.931322 0.641551 0.325097
Si Si4 0.283056 0.435150 0.675994
Si Si5 0.000000 0.936611 0.679433
Si Si6 0.390113 0.625530 0.822696
O O1 0.394677 0.898673 0.217307
O O2 0.283121 0.918515 0.276369
O O3 0.356624 0.000000 0.207248
O O4 0.322258 0.927011 0.000000
O O5 0.419368 0.282431 0.500000
O O6 0.500000 0.278559 0.713846
O O7 0.413365 0.205176 0.711529
O O8 0.392105 0.309219 0.778500
O O9 0.917932 0.627634 0.500000
O O10 0.000000 0.632043 0.289002
O O11 0.292155 0.421253 0.500000
O O12 0.295174 0.500000 0.710447
O O13 0.327149 0.398683 0.775433
O O14 0.941459 0.907050 0.737170
O O15 0.000000 0.933453 0.500000
O O16 0.000000 0.000000 0.737772
O O17 0.399384 0.618251 0.000000
#
# Coordination Sequence:
#
# PCOD8273434 Si02
#       6
#    16  16  16  16   8  16
#     4  10  21  37  57  83 115 147 178 221 278 332
#     4   9  18  35  57  78 107 147 187 227 272 326
#     4   9  19  36  59  86 112 144 185 226 269 321
#     4  10  21  38  59  79 104 145 190 228 272 330
#     4  11  23  37  53  75 107 147 190 233 274 321
#     4  12  23  34  53  82 112 143 182 230 282 330
#
# _framework density 18.416588999999998
#
# number of rings (size 3 to 8) (size 9 to 14) (size 15 to 20)
#    0.000    1.909    0.909    4.636    0.000    6.545 
#    0.000    4.545    0.000    5.455    0.000    0.000 
#    0.000    0.000    0.000    0.000    0.000    0.000 
#
# Total GULP energy -545787.344039 kJ/mol
# GULP energy per Si atom -12404.257819 kJ/mol
# Density = 1.837467 g / cm^3
# Si number density = 18.416589 Si / 1000 Ang^3
#
#
#
# Elastic Constant Matrix: (Units=GPa)
#
#
# Indices 1 2 3 4 5 6 
#
# 1 73.7886 49.4035 23.4672 0.0000 0.0000 0.0000
# 2 49.4035 94.6790 36.2658 0.0000 0.0000 0.0000
# 3 23.4672 36.2658 65.9569 0.0000 0.0000 0.0000
# 4 0.0000 0.0000 0.0000 27.0861 0.0000 0.0000
# 5 0.0000 0.0000 0.0000 0.0000 23.8589 0.0000
# 6 0.0000 0.0000 0.0000 0.0000 0.0000 8.2944
#
#
#
# Elastic Compliance Matrix: (Units=1/GPa)
#
#
# Indices 1 2 3 4 5 6 
#
# 1 0.021003 -0.010257 -0.001833 0.000000 0.000000 0.000000
# 2 -0.010257 0.018389 -0.006462 0.000000 0.000000 0.000000
# 3 -0.001833 -0.006462 0.019366 0.000000 0.000000 0.000000
# 4 0.000000 0.000000 0.000000 0.036919 0.000000 0.000000
# 5 0.000000 0.000000 0.000000 0.000000 0.041913 0.000000
# 6 0.000000 0.000000 0.000000 0.000000 0.000000 0.120563
#
#
# Mechanical properties :
#
#
# Convention : Reuss Voigt Hill
#
# Bulk Modulus (GPa) = 46.17889 50.29972 48.23930
# Shear Modulus (GPa) = 16.53027 20.20040 18.36533
#
# Velocity S-wave (km/s) = 2.99921 3.31548 3.16130
# Velocity P-wave (km/s) = 6.09284 6.48290 6.29089
#
# Compressibility (1/GPa) = 0.02165492
#
# Stress axis : x y z
#
# Youngs Moduli (GPa) = 47.61337 54.37973 51.63562
#
# Poissons Ratio (x) = 0.55777 0.09464
# Poissons Ratio (y) = 0.48837 0.33365
# Poissons Ratio (z) = 0.08727 0.35139
#
# Static dielectric constant tensor:
#      x y z
#    x 3.311450 0.000000 0.000000 
#    y 0.000000 3.475830 0.000000 
#    z 0.000000 0.000000 3.368020 
# 
# 
# High freq. dielectric constant tensor:
#      x y z
#    x 1.705420 0.000000 0.000000 
#    y 0.000000 1.717110 0.000000 
#    z 0.000000 0.000000 1.719120 
# 
# From -- ./inp_files/11702.got.cif
#   From: 2010.03.12/outbox.cif.g09.slc.cpg/sg65_6_cif.got.tgz:11702.got - 2010.04.10 20:52:16.
