data_PCOD8273159
_publ_section_title
;
Structure prediction by ZEFSAII (Michael W. Deem and Ramdas Pophale) SiO2 
 PCOD8273159
Probable space group: C M M M
;
_chemical_formula_sum "Si O2"
_cell_formula_units_Z 104
_cell_length_a 9.286561
_cell_length_b 23.383767
_cell_length_c 25.253578
_cell_angle_alpha 90.000000
_cell_angle_beta 90.000000
_cell_angle_gamma 90.000000
_cell_volume 5483.935141
_symmetry_space_group_name_H-M "C M M M"
_symmetry_group_IT_number 65
_symmetry_cell_setting 'orthorhombic'
loop_
_space_group_symop_operation_xyz
x,y,z
-x,-y,z
x,-y,-z
-x,y,-z
-x,-y,-z
x,y,-z
-x,y,z
x,-y,z
1/2+x,1/2+y,z
1/2-x,1/2-y,z
1/2+x,1/2-y,-z
1/2-x,1/2+y,-z
1/2-x,1/2-y,-z
1/2+x,1/2+y,-z
1/2-x,1/2+y,z
1/2+x,1/2-y,z
loop_
_atom_site_type_symbol
_atom_site_label
_atom_site_fract_x
_atom_site_fract_y
_atom_site_fract_z
Si Si1 0.331483 0.612207 0.250164
Si Si2 0.335175 0.391825 0.439594
Si Si3 0.833482 0.808078 0.847229
Si Si4 0.830185 0.500000 0.399292
Si Si5 0.670466 0.000000 0.276427
Si Si6 0.838097 0.500000 0.937082
Si Si7 0.167206 0.191353 0.347683
Si Si8 0.332811 0.389985 0.939452
O O1 0.500000 0.596259 0.251976
O O2 0.290284 0.647232 0.197947
O O3 0.237879 0.555059 0.248391
O O4 0.285324 0.648788 0.301136
O O5 0.314328 0.372253 0.500000
O O6 0.500000 0.410401 0.428038
O O7 0.232961 0.444700 0.427671
O O8 0.292324 0.337959 0.403392
O O9 0.750000 0.750000 0.838469
O O10 0.794243 0.834906 0.904290
O O11 0.000000 0.792548 0.843355
O O12 0.786094 0.500000 0.337998
O O13 0.000000 0.500000 0.407283
O O14 0.500000 0.000000 0.268090
O O15 0.756489 0.556394 0.916916
O O16 0.000000 0.500000 0.914399
O O17 0.836915 0.500000 0.000000
O O18 0.250000 0.250000 0.341573
O O19 0.000000 0.205975 0.343468
O O20 0.500000 0.406415 0.934069
O O21 0.291812 0.375240 0.000000
#
# Coordination Sequence:
#
# PCOD8273159 Si02
#       8
#    16  16  16   8   8   8  16  16
#     4  10  21  39  60  81 108 144 182 221 271 331
#     4  10  21  37  57  81 110 147 187 222 265 327
#     4  10  22  38  57  82 110 145 188 229 272 324
#     4  11  22  36  56  85 115 141 176 225 278 326
#     4  11  23  37  59  89 114 139 176 225 277 327
#     4   9  17  30  51  80 109 139 180 228 275 320
#     4  10  21  36  56  79 105 142 183 223 269 317
#     4   9  18  34  55  79 111 150 187 224 272 331
#
# _framework density 18.964483999999999
#
# number of rings (size 3 to 8) (size 9 to 14) (size 15 to 20)
#    0.000    2.077    1.538    1.385    0.000    6.462 
#    0.000    3.077    0.000    0.000    0.000    0.000 
#    0.000    0.000    0.000    0.000    0.000    0.000 
#
# Total GULP energy -645008.803485 kJ/mol
# GULP energy per Si atom -12404.015452 kJ/mol
# Density = 1.892132 g / cm^3
# Si number density = 18.964484 Si / 1000 Ang^3
#
#
#
# Elastic Constant Matrix: (Units=GPa)
#
#
# Indices 1 2 3 4 5 6 
#
# 1 74.3296 70.0178 43.1215 0.0000 0.0000 0.0000
# 2 70.0178 152.6717 63.5080 0.0000 0.0000 0.0000
# 3 43.1215 63.5080 115.0503 0.0000 0.0000 0.0000
# 4 0.0000 0.0000 0.0000 14.7496 0.0000 0.0000
# 5 0.0000 0.0000 0.0000 0.0000 19.4680 0.0000
# 6 0.0000 0.0000 0.0000 0.0000 0.0000 34.9283
#
#
#
# Elastic Compliance Matrix: (Units=1/GPa)
#
#
# Indices 1 2 3 4 5 6 
#
# 1 0.024995 -0.009821 -0.003947 0.000000 0.000000 0.000000
# 2 -0.009821 0.012361 -0.003142 0.000000 0.000000 0.000000
# 3 -0.003947 -0.003142 0.011906 0.000000 0.000000 0.000000
# 4 0.000000 0.000000 0.000000 0.067799 0.000000 0.000000
# 5 0.000000 0.000000 0.000000 0.000000 0.051366 0.000000
# 6 0.000000 0.000000 0.000000 0.000000 0.000000 0.028630
#
#
# Mechanical properties :
#
#
# Convention : Reuss Voigt Hill
#
# Bulk Modulus (GPa) = 64.76304 77.26069 71.01186
# Shear Modulus (GPa) = 21.18417 24.85611 23.02014
#
# Velocity S-wave (km/s) = 3.34585 3.62424 3.48782
# Velocity P-wave (km/s) = 7.01071 7.63817 7.33115
#
# Compressibility (1/GPa) = 0.01544091
#
# Stress axis : x y z
#
# Youngs Moduli (GPa) = 40.00824 80.89710 83.99266
#
# Poissons Ratio (x) = 0.79451 0.33151
# Poissons Ratio (y) = 0.39293 0.26394
# Poissons Ratio (z) = 0.15791 0.25422
#
# Static dielectric constant tensor:
#      x y z
#    x 3.436700 0.000000 0.000000 
#    y 0.000000 3.359100 0.000000 
#    z 0.000000 0.000000 3.611150 
# 
# 
# High freq. dielectric constant tensor:
#      x y z
#    x 1.731970 0.000000 0.000000 
#    y 0.000000 1.736220 0.000000 
#    z 0.000000 0.000000 1.743840 
# 
# From -- ./inp_files/73391.got.cif
#   From: 2010.03.12/outbox.cif.g09.slc.cpg/sg65_37_cif.got.tgz:73391.got - 2010.04.10 20:52:16.
