data_PCOD8273654
_publ_section_title
;
Structure prediction by ZEFSAII (Michael W. Deem and Ramdas Pophale) SiO2 
 PCOD8273654
Probable space group: C M M M
;
_chemical_formula_sum "Si O2"
_cell_formula_units_Z 96
_cell_length_a 9.063480
_cell_length_b 28.515378
_cell_length_c 18.746390
_cell_angle_alpha 90.000000
_cell_angle_beta 90.000000
_cell_angle_gamma 90.000000
_cell_volume 4844.977467
_symmetry_space_group_name_H-M "C M M M"
_symmetry_group_IT_number 65
_symmetry_cell_setting 'orthorhombic'
loop_
_space_group_symop_operation_xyz
x,y,z
-x,-y,z
x,-y,-z
-x,y,-z
-x,-y,-z
x,y,-z
-x,y,z
x,-y,z
1/2+x,1/2+y,z
1/2-x,1/2-y,z
1/2+x,1/2-y,-z
1/2-x,1/2+y,-z
1/2-x,1/2-y,-z
1/2+x,1/2+y,-z
1/2-x,1/2+y,z
1/2+x,1/2-y,z
loop_
_atom_site_type_symbol
_atom_site_label
_atom_site_fract_x
_atom_site_fract_y
_atom_site_fract_z
Si Si1 0.661121 0.050980 0.582991
Si Si2 0.328327 0.620658 0.335552
Si Si3 0.172950 0.299616 0.418691
Si Si4 0.672113 0.388054 0.919422
Si Si5 0.173745 0.052502 0.211988
Si Si6 0.334551 0.795032 0.915126
O O1 0.659313 0.044239 0.500000
O O2 0.500000 0.071526 0.607427
O O3 0.797873 0.084045 0.601370
O O4 0.685362 0.000000 0.619105
O O5 0.500000 0.633367 0.329281
O O6 0.238817 0.667248 0.356560
O O7 0.265862 0.593190 0.265268
O O8 0.201432 0.318666 0.500000
O O9 0.250000 0.250000 0.409343
O O10 0.000000 0.293836 0.404996
O O11 0.500000 0.375916 0.916675
O O12 0.711849 0.431823 0.868823
O O13 0.754892 0.342272 0.889761
O O14 0.721474 0.400997 0.000000
O O15 0.000000 0.049732 0.224112
O O16 0.241084 0.000000 0.224162
O O17 0.500000 0.794785 0.884721
O O18 0.250000 0.750000 0.883092
O O19 0.333948 0.792481 0.000000
#
# Coordination Sequence:
#
# PCOD8273654 Si02
#       6
#    16  16  16  16  16  16
#     4   9  18  32  49  71 101 136 174 216 258 299
#     4  11  21  33  52  77 107 142 177 214 261 318
#     4  10  21  38  60  85 113 144 180 222 264 308
#     4   9  17  31  53  78 102 133 178 228 276 328
#     4   9  19  35  53  76 107 140 176 223 276 324
#     4   9  16  27  46  73 104 133 161 199 250 308
#
# _framework density 19.814333999999999
#
# number of rings (size 3 to 8) (size 9 to 14) (size 15 to 20)
#    0.000    2.500    0.000    3.000    0.000    6.667 
#    0.000    5.000    0.000    2.500    0.000    2.333 
#    0.000    0.000    0.000    0.000    0.000    0.000 
#
# Total GULP energy -594755.649906 kJ/mol
# GULP energy per Si atom -12390.742706 kJ/mol
# Density = 1.976924 g / cm^3
# Si number density = 19.814334 Si / 1000 Ang^3
#
#
#
# Elastic Constant Matrix: (Units=GPa)
#
#
# Indices 1 2 3 4 5 6 
#
# 1 78.6338 48.7338 32.2701 0.0000 0.0000 0.0000
# 2 48.7338 127.1621 63.4688 0.0000 0.0000 0.0000
# 3 32.2701 63.4688 80.2256 0.0000 0.0000 0.0000
# 4 0.0000 0.0000 0.0000 18.1860 0.0000 0.0000
# 5 0.0000 0.0000 0.0000 0.0000 15.7659 0.0000
# 6 0.0000 0.0000 0.0000 0.0000 0.0000 23.8522
#
#
#
# Elastic Compliance Matrix: (Units=1/GPa)
#
#
# Indices 1 2 3 4 5 6 
#
# 1 0.017048 -0.005141 -0.002790 0.000000 0.000000 0.000000
# 2 -0.005141 0.014546 -0.009440 0.000000 0.000000 0.000000
# 3 -0.002790 -0.009440 0.021055 0.000000 0.000000 0.000000
# 4 0.000000 0.000000 0.000000 0.054987 0.000000 0.000000
# 5 0.000000 0.000000 0.000000 0.000000 0.063428 0.000000
# 6 0.000000 0.000000 0.000000 0.000000 0.000000 0.041925
#
#
# Mechanical properties :
#
#
# Convention : Reuss Voigt Hill
#
# Bulk Modulus (GPa) = 55.84292 63.88522 59.86407
# Shear Modulus (GPa) = 19.70827 20.99741 20.35284
#
# Velocity S-wave (km/s) = 3.15722 3.25885 3.20844
# Velocity P-wave (km/s) = 6.44477 6.81704 6.63352
#
# Compressibility (1/GPa) = 0.01790737
#
# Stress axis : x y z
#
# Youngs Moduli (GPa) = 58.65633 68.74900 47.49405
#
# Poissons Ratio (x) = 0.35343 0.13253
# Poissons Ratio (y) = 0.30155 0.44833
# Poissons Ratio (z) = 0.16368 0.64896
#
# Static dielectric constant tensor:
#      x y z
#    x 3.588160 0.000000 0.000000 
#    y 0.000000 3.734140 0.000000 
#    z 0.000000 0.000000 3.477160 
# 
# 
# High freq. dielectric constant tensor:
#      x y z
#    x 1.756940 0.000000 0.000000 
#    y 0.000000 1.778520 0.000000 
#    z 0.000000 0.000000 1.747200 
# 
# From -- ./inp_files/60163.got.cif
#   From: 2010.03.12/outbox.cif.g09.slc.cpg/sg65_31_cif.got.tgz:60163.got - 2010.04.10 20:52:16.
