data_PCOD8273127
_publ_section_title
;
Structure prediction by ZEFSAII (Michael W. Deem and Ramdas Pophale) SiO2 
 PCOD8273127
Probable space group: C M M M
;
_chemical_formula_sum "Si O2"
_cell_formula_units_Z 72
_cell_length_a 18.527487
_cell_length_b 13.779161
_cell_length_c 14.499466
_cell_angle_alpha 90.000000
_cell_angle_beta 90.000000
_cell_angle_gamma 90.000000
_cell_volume 3701.615455
_symmetry_space_group_name_H-M "C M M M"
_symmetry_group_IT_number 65
_symmetry_cell_setting 'orthorhombic'
loop_
_space_group_symop_operation_xyz
x,y,z
-x,-y,z
x,-y,-z
-x,y,-z
-x,-y,-z
x,y,-z
-x,y,z
x,-y,z
1/2+x,1/2+y,z
1/2-x,1/2-y,z
1/2+x,1/2-y,-z
1/2-x,1/2+y,-z
1/2-x,1/2-y,-z
1/2+x,1/2+y,-z
1/2-x,1/2+y,z
1/2+x,1/2-y,z
loop_
_atom_site_type_symbol
_atom_site_label
_atom_site_fract_x
_atom_site_fract_y
_atom_site_fract_z
Si Si1 0.920814 0.239658 0.106101
Si Si2 0.352250 0.113963 0.777216
Si Si3 0.668235 0.231265 0.399430
Si Si4 0.414010 0.385460 0.500000
Si Si5 0.212362 0.112465 0.105801
O O1 0.914986 0.341445 0.159714
O O2 0.859867 0.165354 0.141314
O O3 0.000000 0.194089 0.124119
O O4 0.909400 0.263835 0.000000
O O5 0.363702 0.159272 0.676216
O O6 0.276674 0.142923 0.826132
O O7 0.362452 0.000000 0.770039
O O8 0.667141 0.178544 0.500000
O O9 0.750000 0.250000 0.369386
O O10 0.621725 0.332323 0.409563
O O11 0.394583 0.500000 0.500000
O O12 0.500000 0.369596 0.500000
O O13 0.195217 0.000000 0.113059
O O14 0.232487 0.140666 0.000000
#
# Coordination Sequence:
#
# PCOD8273127 Si02
#       5
#    16  16  16   8  16
#     4  10  21  36  55  80 114 153 190 232 281 334
#     4  11  22  36  57  82 113 150 192 235 274 323
#     4   9  20  38  58  85 114 147 181 227 279 332
#     4   9  19  38  63  87 111 139 174 225 284 338
#     4   9  18  34  58  85 112 146 188 234 284 334
#
# _framework density 19.450966999999999
#
# number of rings (size 3 to 8) (size 9 to 14) (size 15 to 20)
#    0.667    1.667    0.000    2.667    0.000    6.222 
#    0.000    4.444    0.000    0.667    0.000    0.000 
#    0.000    0.000    0.000    0.000    0.000    0.000 
#
# Total GULP energy -446120.203272 kJ/mol
# GULP energy per Si atom -12392.227869 kJ/mol
# Density = 1.940670 g / cm^3
# Si number density = 19.450967 Si / 1000 Ang^3
#
#
#
# Elastic Constant Matrix: (Units=GPa)
#
#
# Indices 1 2 3 4 5 6 
#
# 1 81.4171 43.6301 20.2235 0.0000 0.0000 0.0000
# 2 43.6301 95.5558 41.7184 0.0000 0.0000 0.0000
# 3 20.2235 41.7184 69.3622 0.0000 0.0000 0.0000
# 4 0.0000 0.0000 0.0000 34.5596 0.0000 0.0000
# 5 0.0000 0.0000 0.0000 0.0000 -6.1035 0.0000
# 6 0.0000 0.0000 0.0000 0.0000 0.0000 24.5526
#
#
#
# Elastic Compliance Matrix: (Units=1/GPa)
#
#
# Indices 1 2 3 4 5 6 
#
# 1 0.016268 -0.007265 -0.000374 0.000000 0.000000 0.000000
# 2 -0.007265 0.017436 -0.008369 0.000000 0.000000 0.000000
# 3 -0.000374 -0.008369 0.019559 0.000000 0.000000 0.000000
# 4 0.000000 0.000000 0.000000 0.028936 0.000000 0.000000
# 5 0.000000 0.000000 0.000000 0.000000 -0.163841 0.000000
# 6 0.000000 0.000000 0.000000 0.000000 0.000000 0.040729
#
#
# Mechanical properties :
#
#
# Convention : Reuss Voigt Hill
#
# Bulk Modulus (GPa) = 47.06104 50.83099 48.94602
# Shear Modulus (GPa) = -2753.92013 19.98596 -1366.96708
#
# Velocity S-wave (km/s) = -37.66830 3.20895 -26.53868
# Velocity P-wave (km/s) = 43.21597 6.31818 30.22996
#
# Compressibility (1/GPa) = 0.02124900
#
# Stress axis : x y z
#
# Youngs Moduli (GPa) = 61.46887 57.35305 51.12606
#
# Poissons Ratio (x) = 0.41666 0.01911
# Poissons Ratio (y) = 0.44656 0.42786
# Poissons Ratio (z) = 0.02297 0.47997
#
# Static dielectric constant tensor:
#      x y z
#    x 3.666780 0.000000 0.000000 
#    y 0.000000 3.477640 0.000000 
#    z 0.000000 0.000000 3.489400 
# 
# 
# High freq. dielectric constant tensor:
#      x y z
#    x 1.753690 0.000000 0.000000 
#    y 0.000000 1.747570 0.000000 
#    z 0.000000 0.000000 1.752800 
# 
# From -- ./inp_files/42143.got.cif
#   From: 2010.03.12/outbox.cif.g09.slc.cpg/sg65_22_cif.got.tgz:42143.got - 2010.04.10 20:52:16.
