data_PCOD8273086
_publ_section_title
;
Structure prediction by ZEFSAII (Michael W. Deem and Ramdas Pophale) SiO2 
 PCOD8273086
Probable space group: C M M M
;
_chemical_formula_sum "Si O2"
_cell_formula_units_Z 104
_cell_length_a 9.062231
_cell_length_b 26.362319
_cell_length_c 22.156488
_cell_angle_alpha 90.000000
_cell_angle_beta 90.000000
_cell_angle_gamma 90.000000
_cell_volume 5293.216545
_symmetry_space_group_name_H-M "C M M M"
_symmetry_group_IT_number 65
_symmetry_cell_setting 'orthorhombic'
loop_
_space_group_symop_operation_xyz
x,y,z
-x,-y,z
x,-y,-z
-x,y,-z
-x,-y,-z
x,y,-z
-x,y,z
x,-y,z
1/2+x,1/2+y,z
1/2-x,1/2-y,z
1/2+x,1/2-y,-z
1/2-x,1/2+y,-z
1/2-x,1/2-y,-z
1/2+x,1/2+y,-z
1/2-x,1/2+y,z
1/2+x,1/2-y,z
loop_
_atom_site_type_symbol
_atom_site_label
_atom_site_fract_x
_atom_site_fract_y
_atom_site_fract_z
Si Si1 0.170412 0.851388 0.069017
Si Si2 0.174537 0.094612 0.630845
Si Si3 0.832284 0.399575 0.753702
Si Si4 0.827174 0.801084 0.569630
Si Si5 0.669245 0.201158 0.174910
Si Si6 0.168895 0.557524 0.120308
Si Si7 0.331829 0.000000 0.428713
O O1 0.260380 0.813000 0.110654
O O2 0.226703 0.908742 0.078602
O O3 0.000000 0.849105 0.087341
O O4 0.195432 0.835368 0.000000
O O5 0.219545 0.088852 0.700371
O O6 0.227690 0.149508 0.606283
O O7 0.250813 0.050424 0.593309
O O8 0.000000 0.088546 0.624009
O O9 0.810041 0.342251 0.775757
O O10 0.792111 0.436855 0.808901
O O11 0.000000 0.408577 0.731430
O O12 0.783890 0.809890 0.500000
O O13 0.750000 0.750000 0.594741
O O14 0.000000 0.793171 0.578004
O O15 0.500000 0.213811 0.162739
O O16 0.750000 0.250000 0.202144
O O17 0.191696 0.500000 0.099857
O O18 0.000000 0.575750 0.111011
O O19 0.500000 0.000000 0.404759
O O20 0.326666 0.000000 0.500000
#
# Coordination Sequence:
#
# PCOD8273086 Si02
#       7
#    16  16  16  16  16  16   8
#     4  10  21  36  54  80 113 146 185 234 284 338
#     4  11  23  38  59  88 119 153 193 238 291 347
#     4   9  20  37  56  81 112 147 186 229 276 330
#     4   9  19  36  57  81 111 146 184 229 279 333
#     4  10  21  38  60  83 111 150 190 233 286 338
#     4   9  19  36  57  79 106 145 186 228 282 336
#     4  11  25  43  63  87 117 157 200 243 294 351
#
# _framework density 19.647789
#
# number of rings (size 3 to 8) (size 9 to 14) (size 15 to 20)
#    0.000    2.231    0.000    3.000    1.077    8.308 
#    0.000    6.154    0.000    0.000    0.000    0.000 
#    0.000    0.000    0.000    0.000    0.000    0.000 
#
# Total GULP energy -644938.951659 kJ/mol
# GULP energy per Si atom -12402.672147 kJ/mol
# Density = 1.960307 g / cm^3
# Si number density = 19.647789 Si / 1000 Ang^3
#
#
#
# Elastic Constant Matrix: (Units=GPa)
#
#
# Indices 1 2 3 4 5 6 
#
# 1 99.6780 38.9535 32.3749 0.0000 0.0000 0.0000
# 2 38.9535 89.1126 8.4399 0.0000 0.0000 0.0000
# 3 32.3749 8.4399 55.9668 0.0000 0.0000 0.0000
# 4 0.0000 0.0000 0.0000 12.0935 0.0000 0.0000
# 5 0.0000 0.0000 0.0000 0.0000 30.0656 0.0000
# 6 0.0000 0.0000 0.0000 0.0000 0.0000 35.4270
#
#
#
# Elastic Compliance Matrix: (Units=1/GPa)
#
#
# Indices 1 2 3 4 5 6 
#
# 1 0.014763 -0.005726 -0.007677 0.000000 0.000000 0.000000
# 2 -0.005726 0.013606 0.001261 0.000000 0.000000 0.000000
# 3 -0.007677 0.001261 0.022118 0.000000 0.000000 0.000000
# 4 0.000000 0.000000 0.000000 0.082689 0.000000 0.000000
# 5 0.000000 0.000000 0.000000 0.000000 0.033261 0.000000
# 6 0.000000 0.000000 0.000000 0.000000 0.000000 0.028227
#
#
# Mechanical properties :
#
#
# Convention : Reuss Voigt Hill
#
# Bulk Modulus (GPa) = 38.16390 44.92156 41.54273
# Shear Modulus (GPa) = 21.96038 26.51649 24.23844
#
# Velocity S-wave (km/s) = 3.34683 3.67766 3.51614
# Velocity P-wave (km/s) = 5.86526 6.39896 6.13791
#
# Compressibility (1/GPa) = 0.02620278
#
# Stress axis : x y z
#
# Youngs Moduli (GPa) = 67.73462 73.49949 45.21147
#
# Poissons Ratio (x) = 0.42089 0.34707
# Poissons Ratio (y) = 0.38788 -0.05700
# Poissons Ratio (z) = 0.51997 -0.09267
#
# Static dielectric constant tensor:
#      x y z
#    x 3.622490 0.000000 0.000000 
#    y 0.000000 3.709040 0.000000 
#    z 0.000000 0.000000 3.416640 
# 
# 
# High freq. dielectric constant tensor:
#      x y z
#    x 1.768010 0.000000 0.000000 
#    y 0.000000 1.773990 0.000000 
#    z 0.000000 0.000000 1.758340 
# 
# From -- ./inp_files/60386.got.cif
#   From: 2010.03.12/outbox.cif.g09.slc.cpg/sg65_31_cif.got.tgz:60386.got - 2010.04.10 20:52:16.
