data_PCOD8273570
_publ_section_title
;
Structure prediction by ZEFSAII (Michael W. Deem and Ramdas Pophale) SiO2 
 PCOD8273570
Probable space group: C M M M
;
_chemical_formula_sum "Si O2"
_cell_formula_units_Z 80
_cell_length_a 23.626776
_cell_length_b 9.210953
_cell_length_c 20.151961
_cell_angle_alpha 90.000000
_cell_angle_beta 90.000000
_cell_angle_gamma 90.000000
_cell_volume 4385.572997
_symmetry_space_group_name_H-M "C M M M"
_symmetry_group_IT_number 65
_symmetry_cell_setting 'orthorhombic'
loop_
_space_group_symop_operation_xyz
x,y,z
-x,-y,z
x,-y,-z
-x,y,-z
-x,-y,-z
x,y,-z
-x,y,z
x,-y,z
1/2+x,1/2+y,z
1/2-x,1/2-y,z
1/2+x,1/2-y,-z
1/2-x,1/2+y,-z
1/2-x,1/2-y,-z
1/2+x,1/2+y,-z
1/2-x,1/2+y,z
1/2+x,1/2-y,z
loop_
_atom_site_type_symbol
_atom_site_label
_atom_site_fract_x
_atom_site_fract_y
_atom_site_fract_z
Si Si1 0.565276 0.168373 0.075559
Si Si2 0.387645 0.333862 0.426607
Si Si3 0.500000 0.160448 0.594195
Si Si4 0.604411 0.330719 0.195030
Si Si5 0.500000 0.838481 0.251067
Si Si6 0.691362 0.668533 0.692035
O O1 0.500000 0.194586 0.098393
O O2 0.608010 0.261738 0.121196
O O3 0.581068 0.000000 0.081958
O O4 0.573043 0.220562 0.000000
O O5 0.359000 0.323574 0.500000
O O6 0.402823 0.500000 0.408553
O O7 0.445010 0.244484 0.429921
O O8 0.345775 0.271739 0.369865
O O9 0.500000 0.143837 0.671715
O O10 0.500000 0.000000 0.562012
O O11 0.590445 0.500000 0.189004
O O12 0.554986 0.250328 0.232939
O O13 0.661165 0.303521 0.237136
O O14 0.500000 0.000000 0.217627
O O15 0.703738 0.500000 0.681169
O O16 0.750000 0.750000 0.693490
#
# Coordination Sequence:
#
# PCOD8273570 Si02
#       6
#    16  16   8  16   8  16
#     4   9  18  32  51  80 118 152 179 211 259 321
#     4  10  21  38  58  79 109 147 180 218 274 333
#     4  11  22  34  53  83 115 143 178 223 268 324
#     4  11  21  34  55  82 111 142 180 228 270 316
#     4  11  21  32  51  80 110 145 180 216 271 328
#     4  10  23  40  57  79 105 138 185 233 276 321
#
# _framework density 18.241630000000001
#
# number of rings (size 3 to 8) (size 9 to 14) (size 15 to 20)
#    0.000    1.800    3.000    2.100    0.000    5.600 
#    0.000    1.000    0.000    0.600    0.000    0.000 
#    0.000    0.000    0.000    0.000    0.000    0.000 
#
# Total GULP energy -495924.802109 kJ/mol
# GULP energy per Si atom -12398.120053 kJ/mol
# Density = 1.820011 g / cm^3
# Si number density = 18.241630 Si / 1000 Ang^3
#
#
#
# Elastic Constant Matrix: (Units=GPa)
#
#
# Indices 1 2 3 4 5 6 
#
# 1 107.2604 59.1475 51.0142 0.0000 0.0000 0.0000
# 2 59.1475 96.2629 52.2206 0.0000 0.0000 0.0000
# 3 51.0142 52.2206 126.0634 0.0000 0.0000 0.0000
# 4 0.0000 0.0000 0.0000 25.7845 0.0000 0.0000
# 5 0.0000 0.0000 0.0000 0.0000 22.4452 0.0000
# 6 0.0000 0.0000 0.0000 0.0000 0.0000 36.2727
#
#
#
# Elastic Compliance Matrix: (Units=1/GPa)
#
#
# Indices 1 2 3 4 5 6 
#
# 1 0.014869 -0.007574 -0.002880 0.000000 0.000000 0.000000
# 2 -0.007574 0.017257 -0.004084 0.000000 0.000000 0.000000
# 3 -0.002880 -0.004084 0.010789 0.000000 0.000000 0.000000
# 4 0.000000 0.000000 0.000000 0.038783 0.000000 0.000000
# 5 0.000000 0.000000 0.000000 0.000000 0.044553 0.000000
# 6 0.000000 0.000000 0.000000 0.000000 0.000000 0.027569
#
#
# Mechanical properties :
#
#
# Convention : Reuss Voigt Hill
#
# Bulk Modulus (GPa) = 72.24800 72.70572 72.47686
# Shear Modulus (GPa) = 26.66525 28.04743 27.35634
#
# Velocity S-wave (km/s) = 3.82747 3.92542 3.87675
# Velocity P-wave (km/s) = 7.69577 7.77745 7.73672
#
# Compressibility (1/GPa) = 0.01384121
#
# Stress axis : x y z
#
# Youngs Moduli (GPa) = 67.25221 57.94633 92.68301
#
# Poissons Ratio (x) = 0.43889 0.26690
# Poissons Ratio (y) = 0.50938 0.37849
# Poissons Ratio (z) = 0.19367 0.23663
#
# Static dielectric constant tensor:
#      x y z
#    x 2.964120 0.000000 0.000000 
#    y 0.000000 3.457530 0.000000 
#    z 0.000000 0.000000 3.735760 
# 
# 
# High freq. dielectric constant tensor:
#      x y z
#    x 1.669570 0.000000 0.000000 
#    y 0.000000 1.710800 0.000000 
#    z 0.000000 0.000000 1.730150 
# 
# From -- ./inp_files/59630.got.cif
#   From: 2010.03.12/outbox.cif.g09.slc.cpg/sg65_30_cif.got.tgz:59630.got - 2010.04.10 20:52:16.
