data_PCOD8273619
_publ_section_title
;
Structure prediction by ZEFSAII (Michael W. Deem and Ramdas Pophale) SiO2 
 PCOD8273619
Probable space group: C M M M
;
_chemical_formula_sum "Si O2"
_cell_formula_units_Z 104
_cell_length_a 10.763202
_cell_length_b 17.834882
_cell_length_c 27.516995
_cell_angle_alpha 90.000000
_cell_angle_beta 90.000000
_cell_angle_gamma 90.000000
_cell_volume 5282.174402
_symmetry_space_group_name_H-M "C M M M"
_symmetry_group_IT_number 65
_symmetry_cell_setting 'orthorhombic'
loop_
_space_group_symop_operation_xyz
x,y,z
-x,-y,z
x,-y,-z
-x,y,-z
-x,-y,-z
x,y,-z
-x,y,z
x,-y,z
1/2+x,1/2+y,z
1/2-x,1/2-y,z
1/2+x,1/2-y,-z
1/2-x,1/2+y,-z
1/2-x,1/2-y,-z
1/2+x,1/2+y,-z
1/2-x,1/2+y,z
1/2+x,1/2-y,z
loop_
_atom_site_type_symbol
_atom_site_label
_atom_site_fract_x
_atom_site_fract_y
_atom_site_fract_z
Si Si1 0.851125 0.683805 0.500000
Si Si2 0.355920 0.687936 0.945065
Si Si3 0.250448 0.661279 0.228127
Si Si4 0.500000 0.915062 0.345845
Si Si5 0.142756 0.918434 0.860499
Si Si6 0.277032 0.161822 0.396933
Si Si7 0.000000 0.415991 0.768661
Si Si8 0.642879 0.583990 0.320980
O O1 0.750000 0.750000 0.500000
O O2 0.819021 0.636845 0.451369
O O3 0.000000 0.707556 0.500000
O O4 0.500000 0.714726 0.933521
O O5 0.250000 0.750000 0.938092
O O6 0.309277 0.623502 0.908552
O O7 0.351649 0.656835 0.000000
O O8 0.250000 0.750000 0.228605
O O9 0.344465 0.631255 0.187870
O O10 0.286774 0.633807 0.281681
O O11 0.117421 0.629797 0.212175
O O12 0.616615 0.865184 0.360816
O O13 0.500000 0.920703 0.288845
O O14 0.500000 0.000000 0.368294
O O15 0.000000 0.933625 0.868136
O O16 0.209754 0.000000 0.855135
O O17 0.250000 0.250000 0.394650
O O18 0.156731 0.118642 0.375667
O O19 0.000000 0.500000 0.790514
O O20 0.500000 0.581699 0.307155
O O21 0.699898 0.500000 0.320070
#
# Coordination Sequence:
#
# PCOD8273619 Si02
#       8
#     8  16  16   8  16  16   8  16
#     4  10  22  40  62  93 124 160 201 252 309 357
#     4   9  18  35  60  89 120 155 201 254 307 362
#     4  12  25  38  61  88 121 158 205 252 298 365
#     4  11  22  39  62  87 122 155 192 247 300 352
#     4  10  21  38  59  83 119 160 200 249 306 361
#     4  11  23  38  64  88 120 152 201 243 297 357
#     4  11  24  40  61  88 124 162 200 246 309 367
#     4  11  24  41  62  87 120 157 196 244 305 367
#
# _framework density 19.688860999999999
#
# number of rings (size 3 to 8) (size 9 to 14) (size 15 to 20)
#    0.000    1.385    2.308    3.231    3.231    2.154 
#    1.385    3.462    0.000    0.923    0.000    2.154 
#    0.000    0.000    0.000    0.000    0.000    0.000 
#
# Total GULP energy -644376.153552 kJ/mol
# GULP energy per Si atom -12391.849107 kJ/mol
# Density = 1.964405 g / cm^3
# Si number density = 19.688861 Si / 1000 Ang^3
#
#
#
# Elastic Constant Matrix: (Units=GPa)
#
#
# Indices 1 2 3 4 5 6 
#
# 1 67.9136 30.2441 18.5606 0.0000 0.0000 0.0000
# 2 30.2441 150.3213 55.0608 0.0000 0.0000 0.0000
# 3 18.5606 55.0608 110.3301 0.0000 0.0000 0.0000
# 4 0.0000 0.0000 0.0000 5.4988 0.0000 0.0000
# 5 0.0000 0.0000 0.0000 0.0000 22.2777 0.0000
# 6 0.0000 0.0000 0.0000 0.0000 0.0000 29.3551
#
#
#
# Elastic Compliance Matrix: (Units=1/GPa)
#
#
# Indices 1 2 3 4 5 6 
#
# 1 0.016338 -0.002790 -0.001356 0.000000 0.000000 0.000000
# 2 -0.002790 0.008617 -0.003831 0.000000 0.000000 0.000000
# 3 -0.001356 -0.003831 0.011204 0.000000 0.000000 0.000000
# 4 0.000000 0.000000 0.000000 0.181857 0.000000 0.000000
# 5 0.000000 0.000000 0.000000 0.000000 0.044888 0.000000
# 6 0.000000 0.000000 0.000000 0.000000 0.000000 0.034066
#
#
# Mechanical properties :
#
#
# Convention : Reuss Voigt Hill
#
# Bulk Modulus (GPa) = 49.49528 59.58847 54.54187
# Shear Modulus (GPa) = 15.64168 26.40628 21.02398
#
# Velocity S-wave (km/s) = 2.82164 3.66618 3.27128
# Velocity P-wave (km/s) = 5.98405 6.94636 6.48309
#
# Compressibility (1/GPa) = 0.02020395
#
# Stress axis : x y z
#
# Youngs Moduli (GPa) = 61.20765 116.04855 89.25650
#
# Poissons Ratio (x) = 0.32383 0.12102
# Poissons Ratio (y) = 0.17080 0.34194
# Poissons Ratio (z) = 0.08299 0.44458
#
# Static dielectric constant tensor:
#      x y z
#    x 3.996660 0.000000 0.000000 
#    y 0.000000 3.939580 0.000000 
#    z 0.000000 0.000000 3.820140 
# 
# 
# High freq. dielectric constant tensor:
#      x y z
#    x 1.773220 0.000000 0.000000 
#    y 0.000000 1.762080 0.000000 
#    z 0.000000 0.000000 1.769910 
# 
# From -- ./inp_files/74414.got.cif
#   From: 2010.03.12/outbox.cif.g09.slc.cpg/sg65_38_cif.got.tgz:74414.got - 2010.04.10 20:52:16.
