data_PCOD8273447
_publ_section_title
;
Structure prediction by ZEFSAII (Michael W. Deem and Ramdas Pophale) SiO2 
 PCOD8273447
Probable space group: C M M M
;
_chemical_formula_sum "Si O2"
_cell_formula_units_Z 72
_cell_length_a 17.885721
_cell_length_b 8.721022
_cell_length_c 22.879924
_cell_angle_alpha 90.000000
_cell_angle_beta 90.000000
_cell_angle_gamma 90.000000
_cell_volume 3568.850959
_symmetry_space_group_name_H-M "C M M M"
_symmetry_group_IT_number 65
_symmetry_cell_setting 'orthorhombic'
loop_
_space_group_symop_operation_xyz
x,y,z
-x,-y,z
x,-y,-z
-x,y,-z
-x,-y,-z
x,y,-z
-x,y,z
x,-y,z
1/2+x,1/2+y,z
1/2-x,1/2-y,z
1/2+x,1/2-y,-z
1/2-x,1/2+y,-z
1/2-x,1/2-y,-z
1/2+x,1/2+y,-z
1/2-x,1/2+y,z
1/2+x,1/2-y,z
loop_
_atom_site_type_symbol
_atom_site_label
_atom_site_fract_x
_atom_site_fract_y
_atom_site_fract_z
Si Si1 0.411889 0.324014 0.609482
Si Si2 0.831504 0.680603 0.500000
Si Si3 0.168680 0.318923 0.283049
Si Si4 0.327751 0.320442 0.064805
Si Si5 0.914379 0.820271 0.822806
O O1 0.500000 0.310358 0.602862
O O2 0.385474 0.500000 0.607194
O O3 0.374804 0.232395 0.557219
O O4 0.388686 0.250673 0.670615
O O5 0.824775 0.500000 0.500000
O O6 0.750000 0.750000 0.500000
O O7 0.172983 0.500000 0.290278
O O8 0.250000 0.250000 0.294098
O O9 0.138935 0.276545 0.219123
O O10 0.315671 0.500000 0.062499
O O11 0.250000 0.250000 0.086590
O O12 0.392627 0.277697 0.110633
O O13 0.349817 0.258429 0.000000
O O14 0.000000 0.772473 0.812859
O O15 0.902216 0.000000 0.810117
#
# Coordination Sequence:
#
# PCOD8273447 Si02
#       5
#    16   8  16  16  16
#     4  11  24  43  66  92 124 159 196 241 294 348
#     4  12  25  42  65  93 127 163 203 246 289 342
#     4  12  25  41  62  87 117 153 196 243 292 348
#     4   9  18  33  54  80 110 147 191 237 286 342
#     4  10  21  37  57  83 116 152 191 238 292 348
#
# _framework density 20.174561000000001
#
# number of rings (size 3 to 8) (size 9 to 14) (size 15 to 20)
#    0.000    1.333    0.000    6.000    0.000    9.333 
#    0.000    2.222    0.000    0.000    0.000    4.667 
#    0.000    0.000    0.000    0.000    0.000    0.000 
#
# Total GULP energy -446565.084493 kJ/mol
# GULP energy per Si atom -12404.585680 kJ/mol
# Density = 2.012864 g / cm^3
# Si number density = 20.174561 Si / 1000 Ang^3
#
#
#
# Elastic Constant Matrix: (Units=GPa)
#
#
# Indices 1 2 3 4 5 6 
#
# 1 88.9676 51.6466 36.7680 0.0000 0.0000 0.0000
# 2 51.6466 129.9855 47.9594 0.0000 0.0000 0.0000
# 3 36.7680 47.9594 113.3241 0.0000 0.0000 0.0000
# 4 0.0000 0.0000 0.0000 75.4086 0.0000 0.0000
# 5 0.0000 0.0000 0.0000 0.0000 43.3165 0.0000
# 6 0.0000 0.0000 0.0000 0.0000 0.0000 31.1950
#
#
#
# Elastic Compliance Matrix: (Units=1/GPa)
#
#
# Indices 1 2 3 4 5 6 
#
# 1 0.015345 -0.005048 -0.002842 0.000000 0.000000 0.000000
# 2 -0.005048 0.010778 -0.002923 0.000000 0.000000 0.000000
# 3 -0.002842 -0.002923 0.010984 0.000000 0.000000 0.000000
# 4 0.000000 0.000000 0.000000 0.013261 0.000000 0.000000
# 5 0.000000 0.000000 0.000000 0.000000 0.023086 0.000000
# 6 0.000000 0.000000 0.000000 0.000000 0.000000 0.032056
#
#
# Mechanical properties :
#
#
# Convention : Reuss Voigt Hill
#
# Bulk Modulus (GPa) = 64.60489 67.22504 65.91497
# Shear Modulus (GPa) = 37.79371 43.04422 40.41897
#
# Velocity S-wave (km/s) = 4.33290 4.62409 4.48086
# Velocity P-wave (km/s) = 7.55807 7.86789 7.71454
#
# Compressibility (1/GPa) = 0.01547870
#
# Stress axis : x y z
#
# Youngs Moduli (GPa) = 65.16640 92.78537 91.04543
#
# Poissons Ratio (x) = 0.46842 0.25878
# Poissons Ratio (y) = 0.32899 0.26614
# Poissons Ratio (z) = 0.18522 0.27123
#
# Static dielectric constant tensor:
#      x y z
#    x 3.119350 0.000000 0.000000 
#    y 0.000000 4.626750 0.000000 
#    z 0.000000 0.000000 4.484600 
# 
# 
# High freq. dielectric constant tensor:
#      x y z
#    x 1.794460 0.000000 0.000000 
#    y 0.000000 1.789290 0.000000 
#    z 0.000000 0.000000 1.806160 
# 
# From -- ./inp_files/70301.got.cif
#   From: 2010.03.12/outbox.cif.g09.slc.cpg/sg65_36_cif.got.tgz:70301.got - 2010.04.10 20:52:16.
