data_PCOD8273515
_publ_section_title
;
Structure prediction by ZEFSAII (Michael W. Deem and Ramdas Pophale) SiO2 
 PCOD8273515
Probable space group: C M M M
;
_chemical_formula_sum "Si O2"
_cell_formula_units_Z 104
_cell_length_a 26.837078
_cell_length_b 11.807424
_cell_length_c 16.917969
_cell_angle_alpha 90.000000
_cell_angle_beta 90.000000
_cell_angle_gamma 90.000000
_cell_volume 5360.911183
_symmetry_space_group_name_H-M "C M M M"
_symmetry_group_IT_number 65
_symmetry_cell_setting 'orthorhombic'
loop_
_space_group_symop_operation_xyz
x,y,z
-x,-y,z
x,-y,-z
-x,y,-z
-x,-y,-z
x,y,-z
-x,y,z
x,-y,z
1/2+x,1/2+y,z
1/2-x,1/2-y,z
1/2+x,1/2-y,-z
1/2-x,1/2+y,-z
1/2-x,1/2-y,-z
1/2+x,1/2+y,-z
1/2-x,1/2+y,z
1/2+x,1/2-y,z
loop_
_atom_site_type_symbol
_atom_site_label
_atom_site_fract_x
_atom_site_fract_y
_atom_site_fract_z
Si Si1 0.559106 0.313123 0.000000
Si Si2 0.895132 0.126387 0.161528
Si Si3 0.718175 0.131390 0.310489
Si Si4 0.805896 0.713717 0.853345
Si Si5 0.876352 0.370452 0.412641
Si Si6 0.862205 0.375655 0.000000
Si Si7 0.941487 0.785893 0.686124
Si Si8 0.059290 0.000000 0.411218
O O1 0.576423 0.379703 0.077951
O O2 0.500000 0.296381 0.000000
O O3 0.587049 0.194126 0.000000
O O4 0.839099 0.173200 0.155530
O O5 0.926941 0.202046 0.222233
O O6 0.891261 0.000000 0.195208
O O7 0.750000 0.250000 0.315847
O O8 0.691678 0.136741 0.225206
O O9 0.679444 0.145243 0.381103
O O10 0.742103 0.000000 0.316893
O O11 0.750000 0.750000 0.874372
O O12 0.827812 0.641175 0.924123
O O13 0.879845 0.313652 0.500000
O O14 0.890589 0.500000 0.420075
O O15 0.916044 0.322911 0.351092
O O16 0.883678 0.500000 0.000000
O O17 0.920933 0.891267 0.635473
O O18 0.000000 0.771454 0.679146
O O19 0.081130 0.000000 0.500000
O O20 0.000000 0.000000 0.412827
#
# Coordination Sequence:
#
# PCOD8273515 Si02
#       8
#     8  16  16  16  16   8  16   8
#     4  10  23  40  58  86 122 162 205 248 299 353
#     4  11  22  38  61  89 120 158 203 248 298 363
#     4  10  21  39  63  89 121 162 202 249 305 364
#     4  10  21  38  59  88 120 156 194 246 301 364
#     4  10  22  41  62  85 117 156 198 248 304 362
#     4  10  21  37  59  85 116 155 200 248 299 357
#     4  11  21  36  58  85 117 154 198 246 301 358
#     4   9  18  32  52  79 113 149 187 240 302 354
#
# _framework density 19.399688000000001
#
# number of rings (size 3 to 8) (size 9 to 14) (size 15 to 20)
#    0.000    1.769    2.308    1.846    0.000    6.000 
#    1.385    0.769    0.000    1.846    0.000    0.000 
#    0.000    0.000    0.000    0.000    0.000    0.000 
#
# Total GULP energy -644407.498643 kJ/mol
# GULP energy per Si atom -12392.451897 kJ/mol
# Density = 1.935553 g / cm^3
# Si number density = 19.399688 Si / 1000 Ang^3
#
#
#
# Elastic Constant Matrix: (Units=GPa)
#
#
# Indices 1 2 3 4 5 6 
#
# 1 98.7368 49.3011 33.4042 0.0000 0.0000 0.0000
# 2 49.3011 112.8116 39.5826 0.0000 0.0000 0.0000
# 3 33.4042 39.5826 126.7606 0.0000 0.0000 0.0000
# 4 0.0000 0.0000 0.0000 25.7440 0.0000 0.0000
# 5 0.0000 0.0000 0.0000 0.0000 22.9695 0.0000
# 6 0.0000 0.0000 0.0000 0.0000 0.0000 18.6608
#
#
#
# Elastic Compliance Matrix: (Units=1/GPa)
#
#
# Indices 1 2 3 4 5 6 
#
# 1 0.013352 -0.005167 -0.001905 0.000000 0.000000 0.000000
# 2 -0.005167 0.011954 -0.002371 0.000000 0.000000 0.000000
# 3 -0.001905 -0.002371 0.009131 0.000000 0.000000 0.000000
# 4 0.000000 0.000000 0.000000 0.038844 0.000000 0.000000
# 5 0.000000 0.000000 0.000000 0.000000 0.043536 0.000000
# 6 0.000000 0.000000 0.000000 0.000000 0.000000 0.053588
#
#
# Mechanical properties :
#
#
# Convention : Reuss Voigt Hill
#
# Bulk Modulus (GPa) = 64.30266 64.76495 64.53380
# Shear Modulus (GPa) = 25.70997 27.87627 26.79312
#
# Velocity S-wave (km/s) = 3.64439 3.79482 3.72036
# Velocity P-wave (km/s) = 7.13631 7.25657 7.19669
#
# Compressibility (1/GPa) = 0.01555146
#
# Stress axis : x y z
#
# Youngs Moduli (GPa) = 74.89307 83.65148 109.51169
#
# Poissons Ratio (x) = 0.43221 0.20865
# Poissons Ratio (y) = 0.38695 0.25969
# Poissons Ratio (z) = 0.14269 0.19837
#
# Static dielectric constant tensor:
#      x y z
#    x 3.302990 0.000000 0.000000 
#    y 0.000000 3.670020 0.000000 
#    z 0.000000 0.000000 3.817140 
# 
# 
# High freq. dielectric constant tensor:
#      x y z
#    x 1.738050 0.000000 0.000000 
#    y 0.000000 1.757540 0.000000 
#    z 0.000000 0.000000 1.774250 
# 
# From -- ./inp_files/57575.got.cif
#   From: 2010.03.12/outbox.cif.g09.slc.cpg/sg65_29_cif.got.tgz:57575.got - 2010.04.10 20:52:16.
