data_PCOD8273863
_publ_section_title
;
Structure prediction by ZEFSAII (Michael W. Deem and Ramdas Pophale) SiO2 
 PCOD8273863
Probable space group: C M M M
;
_chemical_formula_sum "Si O2"
_cell_formula_units_Z 72
_cell_length_a 8.922631
_cell_length_b 15.695724
_cell_length_c 25.912314
_cell_angle_alpha 90.000000
_cell_angle_beta 90.000000
_cell_angle_gamma 90.000000
_cell_volume 3628.945817
_symmetry_space_group_name_H-M "C M M M"
_symmetry_group_IT_number 65
_symmetry_cell_setting 'orthorhombic'
loop_
_space_group_symop_operation_xyz
x,y,z
-x,-y,z
x,-y,-z
-x,y,-z
-x,-y,-z
x,y,-z
-x,y,z
x,-y,z
1/2+x,1/2+y,z
1/2-x,1/2-y,z
1/2+x,1/2-y,-z
1/2-x,1/2+y,-z
1/2-x,1/2-y,-z
1/2+x,1/2+y,-z
1/2-x,1/2+y,z
1/2+x,1/2-y,z
loop_
_atom_site_type_symbol
_atom_site_label
_atom_site_fract_x
_atom_site_fract_y
_atom_site_fract_z
Si Si1 0.332150 0.596517 0.901912
Si Si2 0.677882 0.000000 0.738841
Si Si3 0.174539 0.659533 0.000000
Si Si4 0.676353 0.836838 0.440633
Si Si5 0.323188 0.337762 0.792316
Si Si6 0.322986 0.000000 0.380119
O O1 0.500000 0.617320 0.921651
O O2 0.321139 0.500000 0.881959
O O3 0.218969 0.608600 0.948882
O O4 0.290393 0.655567 0.853534
O O5 0.746248 0.084422 0.763396
O O6 0.724242 0.000000 0.679185
O O7 0.500000 0.000000 0.747158
O O8 0.250000 0.750000 0.000000
O O9 0.000000 0.672785 0.000000
O O10 0.720008 0.853294 0.500000
O O11 0.500000 0.827744 0.433345
O O12 0.750000 0.750000 0.419888
O O13 0.742106 0.915416 0.407530
O O14 0.500000 0.338538 0.780844
O O15 0.250000 0.250000 0.772319
O O16 0.500000 0.000000 0.387489
#
# Coordination Sequence:
#
# PCOD8273863 Si02
#       6
#    16   8   8  16  16   8
#     4  10  21  40  63  86 115 150 187 235 291 348
#     4  11  23  40  61  87 119 156 198 251 301 354
#     4  12  25  38  55  85 119 153 191 233 282 347
#     4   9  17  32  55  82 114 152 193 237 284 340
#     4  11  23  42  65  90 117 154 200 247 299 357
#     4   9  19  35  56  82 113 151 196 237 288 348
#
# _framework density 19.840471999999998
#
# number of rings (size 3 to 8) (size 9 to 14) (size 15 to 20)
#    0.000    1.778    1.111    3.333    0.000    7.556 
#    0.000    5.000    0.000    2.667    0.000    0.000 
#    0.000    0.000    0.000    0.000    0.000    0.000 
#
# Total GULP energy -446496.713288 kJ/mol
# GULP energy per Si atom -12402.686480 kJ/mol
# Density = 1.979531 g / cm^3
# Si number density = 19.840472 Si / 1000 Ang^3
#
#
#
# Elastic Constant Matrix: (Units=GPa)
#
#
# Indices 1 2 3 4 5 6 
#
# 1 99.1682 59.0161 56.5485 0.0000 0.0000 0.0000
# 2 59.0161 173.3241 73.4036 0.0000 0.0000 0.0000
# 3 56.5485 73.4036 105.8075 0.0000 0.0000 0.0000
# 4 0.0000 0.0000 0.0000 8.0667 0.0000 0.0000
# 5 0.0000 0.0000 0.0000 0.0000 23.7348 0.0000
# 6 0.0000 0.0000 0.0000 0.0000 0.0000 36.9304
#
#
#
# Elastic Compliance Matrix: (Units=1/GPa)
#
#
# Indices 1 2 3 4 5 6 
#
# 1 0.015210 -0.002459 -0.006423 0.000000 0.000000 0.000000
# 2 -0.002459 0.008567 -0.004630 0.000000 0.000000 0.000000
# 3 -0.006423 -0.004630 0.016096 0.000000 0.000000 0.000000
# 4 0.000000 0.000000 0.000000 0.123967 0.000000 0.000000
# 5 0.000000 0.000000 0.000000 0.000000 0.042132 0.000000
# 6 0.000000 0.000000 0.000000 0.000000 0.000000 0.027078
#
#
# Mechanical properties :
#
#
# Convention : Reuss Voigt Hill
#
# Bulk Modulus (GPa) = 77.82032 84.02626 80.92329
# Shear Modulus (GPa) = 18.91392 26.36848 22.64120
#
# Velocity S-wave (km/s) = 3.09091 3.64953 3.38177
# Velocity P-wave (km/s) = 7.21432 7.75897 7.49160
#
# Compressibility (1/GPa) = 0.01285011
#
# Stress axis : x y z
#
# Youngs Moduli (GPa) = 65.74770 116.72262 62.12848
#
# Poissons Ratio (x) = 0.28697 0.39906
# Poissons Ratio (y) = 0.16165 0.28763
# Poissons Ratio (z) = 0.42230 0.54037
#
# Static dielectric constant tensor:
#      x y z
#    x 3.597380 0.000000 0.000000 
#    y 0.000000 3.847500 0.000000 
#    z 0.000000 0.000000 3.775490 
# 
# 
# High freq. dielectric constant tensor:
#      x y z
#    x 1.762690 0.000000 0.000000 
#    y 0.000000 1.791220 0.000000 
#    z 0.000000 0.000000 1.768670 
# 
# From -- ./inp_files/72634.got.cif
#   From: 2010.03.12/outbox.cif.g09.slc.cpg/sg65_37_cif.got.tgz:72634.got - 2010.04.10 20:52:16.
