data_PCOD8273377
_publ_section_title
;
Structure prediction by ZEFSAII (Michael W. Deem and Ramdas Pophale) SiO2 
 PCOD8273377
Probable space group: C M M M
;
_chemical_formula_sum "Si O2"
_cell_formula_units_Z 72
_cell_length_a 8.950535
_cell_length_b 18.116846
_cell_length_c 23.130081
_cell_angle_alpha 90.000000
_cell_angle_beta 90.000000
_cell_angle_gamma 90.000000
_cell_volume 3750.669022
_symmetry_space_group_name_H-M "C M M M"
_symmetry_group_IT_number 65
_symmetry_cell_setting 'orthorhombic'
loop_
_space_group_symop_operation_xyz
x,y,z
-x,-y,z
x,-y,-z
-x,y,-z
-x,-y,-z
x,y,-z
-x,y,z
x,-y,z
1/2+x,1/2+y,z
1/2-x,1/2-y,z
1/2+x,1/2-y,-z
1/2-x,1/2+y,-z
1/2-x,1/2-y,-z
1/2+x,1/2+y,-z
1/2-x,1/2+y,z
1/2+x,1/2-y,z
loop_
_atom_site_type_symbol
_atom_site_label
_atom_site_fract_x
_atom_site_fract_y
_atom_site_fract_z
Si Si1 0.176947 0.170824 0.216723
Si Si2 0.175708 0.826924 0.564690
Si Si3 0.824617 0.670958 0.000000
Si Si4 0.677438 0.417980 0.672464
Si Si5 0.673220 0.086351 0.885271
O O1 0.250000 0.250000 0.207689
O O2 0.235028 0.135463 0.276748
O O3 0.225044 0.116285 0.166033
O O4 0.000000 0.180147 0.215998
O O5 0.221157 0.852833 0.500000
O O6 0.250000 0.750000 0.580956
O O7 0.232711 0.887442 0.610484
O O8 0.000000 0.815322 0.569709
O O9 0.750000 0.750000 0.000000
O O10 0.773705 0.625614 0.056104
O O11 0.000000 0.682867 0.000000
O O12 0.500000 0.421995 0.674272
O O13 0.745009 0.500000 0.680737
O O14 0.500000 0.103135 0.871791
O O15 0.702298 0.000000 0.892622
#
# Coordination Sequence:
#
# PCOD8273377 Si02
#       5
#    16  16   8  16  16
#     4  11  22  36  55  78 106 140 177 217 262 312
#     4   9  17  30  50  74  99 130 168 209 253 303
#     4  10  21  37  57  81 109 142 177 214 258 306
#     4   9  18  32  50  74 103 133 168 213 261 306
#     4  10  21  38  59  82 109 140 175 216 262 311
#
# _framework density 19.196574999999999
#
# number of rings (size 3 to 8) (size 9 to 14) (size 15 to 20)
#    0.000    2.222    0.000    3.000    0.000    5.778 
#    0.000    3.333    0.000    5.333    0.000    3.111 
#    0.000    0.000    0.000    0.000    0.000    0.000 
#
# Total GULP energy -446453.545887 kJ/mol
# GULP energy per Si atom -12401.487386 kJ/mol
# Density = 1.915288 g / cm^3
# Si number density = 19.196575 Si / 1000 Ang^3
#
#
#
# Elastic Constant Matrix: (Units=GPa)
#
#
# Indices 1 2 3 4 5 6 
#
# 1 35.6438 31.2312 31.5981 0.0000 0.0000 0.0000
# 2 31.2312 134.2713 66.5007 0.0000 0.0000 0.0000
# 3 31.5981 66.5007 142.9345 0.0000 0.0000 0.0000
# 4 0.0000 0.0000 0.0000 38.1366 0.0000 0.0000
# 5 0.0000 0.0000 0.0000 0.0000 23.5936 0.0000
# 6 0.0000 0.0000 0.0000 0.0000 0.0000 26.8659
#
#
#
# Elastic Compliance Matrix: (Units=1/GPa)
#
#
# Indices 1 2 3 4 5 6 
#
# 1 0.038441 -0.006149 -0.005637 0.000000 0.000000 0.000000
# 2 -0.006149 0.010661 -0.003601 0.000000 0.000000 0.000000
# 3 -0.005637 -0.003601 0.009918 0.000000 0.000000 0.000000
# 4 0.000000 0.000000 0.000000 0.026222 0.000000 0.000000
# 5 0.000000 0.000000 0.000000 0.000000 0.042384 0.000000
# 6 0.000000 0.000000 0.000000 0.000000 0.000000 0.037222
#
#
# Mechanical properties :
#
#
# Convention : Reuss Voigt Hill
#
# Bulk Modulus (GPa) = 35.40405 63.50106 49.45255
# Shear Modulus (GPa) = 24.38589 29.95387 27.16988
#
# Velocity S-wave (km/s) = 3.56803 3.95444 3.76620
# Velocity P-wave (km/s) = 5.95461 7.34856 6.68800
#
# Compressibility (1/GPa) = 0.02824536
#
# Stress axis : x y z
#
# Youngs Moduli (GPa) = 26.01413 93.79721 100.83062
#
# Poissons Ratio (x) = 0.57680 0.56838
# Poissons Ratio (y) = 0.15997 0.36307
# Poissons Ratio (z) = 0.14664 0.33774
#
# Static dielectric constant tensor:
#      x y z
#    x 3.346260 0.000000 0.000000 
#    y 0.000000 3.742280 0.000000 
#    z 0.000000 0.000000 3.820680 
# 
# 
# High freq. dielectric constant tensor:
#      x y z
#    x 1.718390 0.000000 0.000000 
#    y 0.000000 1.756730 0.000000 
#    z 0.000000 0.000000 1.765330 
# 
# From -- ./inp_files/67119.got.cif
#   From: 2010.03.12/outbox.cif.g09.slc.cpg/sg65_34_cif.got.tgz:67119.got - 2010.04.10 20:52:16.
