data_PCOD8273794
_publ_section_title
;
Structure prediction by ZEFSAII (Michael W. Deem and Ramdas Pophale) SiO2 
 PCOD8273794
Probable space group: C M M M
;
_chemical_formula_sum "Si O2"
_cell_formula_units_Z 88
_cell_length_a 9.225295
_cell_length_b 23.218916
_cell_length_c 22.479348
_cell_angle_alpha 90.000000
_cell_angle_beta 90.000000
_cell_angle_gamma 90.000000
_cell_volume 4815.106682
_symmetry_space_group_name_H-M "C M M M"
_symmetry_group_IT_number 65
_symmetry_cell_setting 'orthorhombic'
loop_
_space_group_symop_operation_xyz
x,y,z
-x,-y,z
x,-y,-z
-x,y,-z
-x,-y,-z
x,y,-z
-x,y,z
x,-y,z
1/2+x,1/2+y,z
1/2-x,1/2-y,z
1/2+x,1/2-y,-z
1/2-x,1/2+y,-z
1/2-x,1/2-y,-z
1/2+x,1/2+y,-z
1/2-x,1/2+y,z
1/2+x,1/2-y,z
loop_
_atom_site_type_symbol
_atom_site_label
_atom_site_fract_x
_atom_site_fract_y
_atom_site_fract_z
Si Si1 0.167558 0.933292 0.432266
Si Si2 0.331812 0.809379 0.000000
Si Si3 0.668293 0.896381 0.675939
Si Si4 0.663797 0.500000 0.126186
Si Si5 0.166786 0.309294 0.223940
Si Si6 0.164007 0.000000 0.266564
Si Si7 0.670169 0.115130 0.113042
O O1 0.217147 0.923089 0.500000
O O2 0.264685 0.892402 0.390353
O O3 0.000000 0.916648 0.424608
O O4 0.192375 0.000000 0.414166
O O5 0.250000 0.750000 0.000000
O O6 0.287574 0.844356 0.058417
O O7 0.500000 0.795009 0.000000
O O8 0.500000 0.913267 0.671885
O O9 0.689836 0.836199 0.710424
O O10 0.753195 0.943976 0.712355
O O11 0.500000 0.500000 0.101392
O O12 0.663905 0.500000 0.196564
O O13 0.745408 0.443913 0.102483
O O14 0.250000 0.250000 0.219361
O O15 0.222284 0.353896 0.173823
O O16 0.000000 0.295269 0.211688
O O17 0.000000 0.000000 0.292283
O O18 0.500000 0.100973 0.115505
#
# Coordination Sequence:
#
# PCOD8273794 Si02
#       7
#    16   8  16   8  16   8  16
#     4   9  18  32  50  76 111 146 179 217 265 321
#     4  10  22  39  62  85 109 150 194 232 277 326
#     4  11  21  33  53  81 110 142 179 223 274 322
#     4  11  23  36  56  86 113 146 185 224 276 331
#     4  10  22  37  55  79 108 141 180 227 274 320
#     4  11  21  33  51  79 111 144 181 217 268 333
#     4  10  21  39  59  82 114 148 182 225 278 333
#
# _framework density 18.275815999999999
#
# number of rings (size 3 to 8) (size 9 to 14) (size 15 to 20)
#    0.000    1.818    2.727    2.182    0.000    4.364 
#    0.000    2.727    0.000    0.545    0.000    0.000 
#    0.000    0.000    0.000    0.000    0.000    0.000 
#
# Total GULP energy -545695.604796 kJ/mol
# GULP energy per Si atom -12402.172836 kJ/mol
# Density = 1.823422 g / cm^3
# Si number density = 18.275816 Si / 1000 Ang^3
#
#
#
# Elastic Constant Matrix: (Units=GPa)
#
#
# Indices 1 2 3 4 5 6 
#
# 1 99.0459 70.2590 50.2749 0.0000 0.0000 0.0000
# 2 70.2590 130.0583 49.8225 0.0000 0.0000 0.0000
# 3 50.2749 49.8225 111.3513 0.0000 0.0000 0.0000
# 4 0.0000 0.0000 0.0000 6.5195 0.0000 0.0000
# 5 0.0000 0.0000 0.0000 0.0000 27.9213 0.0000
# 6 0.0000 0.0000 0.0000 0.0000 0.0000 36.3412
#
#
#
# Elastic Compliance Matrix: (Units=1/GPa)
#
#
# Indices 1 2 3 4 5 6 
#
# 1 0.018124 -0.008033 -0.004589 0.000000 0.000000 0.000000
# 2 -0.008033 0.012840 -0.002118 0.000000 0.000000 0.000000
# 3 -0.004589 -0.002118 0.012000 0.000000 0.000000 0.000000
# 4 0.000000 0.000000 0.000000 0.153387 0.000000 0.000000
# 5 0.000000 0.000000 0.000000 0.000000 0.035815 0.000000
# 6 0.000000 0.000000 0.000000 0.000000 0.000000 0.027517
#
#
# Mechanical properties :
#
#
# Convention : Reuss Voigt Hill
#
# Bulk Modulus (GPa) = 74.16051 75.68536 74.92294
# Shear Modulus (GPa) = 17.02674 25.49633 21.26154
#
# Velocity S-wave (km/s) = 3.05561 3.73914 3.41452
# Velocity P-wave (km/s) = 7.28805 7.75527 7.52529
#
# Compressibility (1/GPa) = 0.01348426
#
# Stress axis : x y z
#
# Youngs Moduli (GPa) = 55.17670 77.88361 83.33281
#
# Poissons Ratio (x) = 0.62562 0.38238
# Poissons Ratio (y) = 0.44322 0.17651
# Poissons Ratio (z) = 0.25319 0.16497
#
# Static dielectric constant tensor:
#      x y z
#    x 3.443950 0.000000 0.000000 
#    y 0.000000 3.145170 0.000000 
#    z 0.000000 0.000000 3.553430 
# 
# 
# High freq. dielectric constant tensor:
#      x y z
#    x 1.710470 0.000000 0.000000 
#    y 0.000000 1.689190 0.000000 
#    z 0.000000 0.000000 1.718980 
# 
# From -- ./inp_files/59943.got.cif
#   From: 2010.03.12/outbox.cif.g09.slc.cpg/sg65_30_cif.got.tgz:59943.got - 2010.04.10 20:52:16.
