data_PCOD8273015
_publ_section_title
;
Structure prediction by ZEFSAII (Michael W. Deem and Ramdas Pophale) SiO2 
 PCOD8273015
Probable space group: C M M M
;
_chemical_formula_sum "Si O2"
_cell_formula_units_Z 96
_cell_length_a 17.366358
_cell_length_b 14.053838
_cell_length_c 20.408489
_cell_angle_alpha 90.000000
_cell_angle_beta 90.000000
_cell_angle_gamma 90.000000
_cell_volume 4980.977092
_symmetry_space_group_name_H-M "C M M M"
_symmetry_group_IT_number 65
_symmetry_cell_setting 'orthorhombic'
loop_
_space_group_symop_operation_xyz
x,y,z
-x,-y,z
x,-y,-z
-x,y,-z
-x,-y,-z
x,y,-z
-x,y,z
x,-y,z
1/2+x,1/2+y,z
1/2-x,1/2-y,z
1/2+x,1/2-y,-z
1/2-x,1/2+y,-z
1/2-x,1/2-y,-z
1/2+x,1/2+y,-z
1/2-x,1/2+y,z
1/2+x,1/2-y,z
loop_
_atom_site_type_symbol
_atom_site_label
_atom_site_fract_x
_atom_site_fract_y
_atom_site_fract_z
Si Si1 0.587816 0.762917 0.811093
Si Si2 0.408653 0.105909 0.072759
Si Si3 0.684441 0.392499 0.749698
Si Si4 0.089343 0.695119 0.572471
Si Si5 0.146313 0.388683 0.297110
Si Si6 0.912086 0.103905 0.380025
O O1 0.500000 0.728378 0.823185
O O2 0.622134 0.821254 0.872816
O O3 0.645310 0.673749 0.804348
O O4 0.585983 0.829663 0.746409
O O5 0.500000 0.102033 0.076750
O O6 0.375895 0.000000 0.087468
O O7 0.382425 0.138941 0.000000
O O8 0.682074 0.500000 0.776324
O O9 0.770869 0.361321 0.732447
O O10 0.637353 0.379763 0.683857
O O11 0.112132 0.657295 0.500000
O O12 0.140821 0.642481 0.626820
O O13 0.104475 0.809205 0.570907
O O14 0.000000 0.672948 0.587169
O O15 0.128445 0.500000 0.291965
O O16 0.000000 0.106127 0.356609
O O17 0.892979 0.000000 0.412328
#
# Coordination Sequence:
#
# PCOD8273015 Si02
#       6
#    16  16  16  16  16  16
#     4  11  20  32  57  86 109 139 181 225 270 319
#     4   8  15  29  50  81 119 150 179 221 270 317
#     4  10  21  36  54  76 106 142 180 224 271 319
#     4  10  21  36  55  80 107 138 178 228 284 333
#     4  11  23  37  53  76 108 144 181 220 269 329
#     4   9  17  32  54  77 101 133 176 223 270 320
#
# _framework density 19.273326999999998
#
# number of rings (size 3 to 8) (size 9 to 14) (size 15 to 20)
#    0.000    2.167    1.667    2.500    0.000    3.667 
#    0.000    4.167    0.000    5.500    0.000    4.667 
#    0.000    0.000    0.000    0.000    0.000    0.000 
#
# Total GULP energy -595002.742316 kJ/mol
# GULP energy per Si atom -12395.890465 kJ/mol
# Density = 1.922946 g / cm^3
# Si number density = 19.273327 Si / 1000 Ang^3
#
#
#
# Elastic Constant Matrix: (Units=GPa)
#
#
# Indices 1 2 3 4 5 6 
#
# 1 59.5797 37.0367 28.9557 0.0000 0.0000 0.0000
# 2 37.0367 99.9094 50.7568 0.0000 0.0000 0.0000
# 3 28.9557 50.7568 113.5079 0.0000 0.0000 0.0000
# 4 0.0000 0.0000 0.0000 30.7339 0.0000 0.0000
# 5 0.0000 0.0000 0.0000 0.0000 9.4996 0.0000
# 6 0.0000 0.0000 0.0000 0.0000 0.0000 25.6166
#
#
#
# Elastic Compliance Matrix: (Units=1/GPa)
#
#
# Indices 1 2 3 4 5 6 
#
# 1 0.022382 -0.006983 -0.002587 0.000000 0.000000 0.000000
# 2 -0.006983 0.015130 -0.004984 0.000000 0.000000 0.000000
# 3 -0.002587 -0.004984 0.011699 0.000000 0.000000 0.000000
# 4 0.000000 0.000000 0.000000 0.032537 0.000000 0.000000
# 5 0.000000 0.000000 0.000000 0.000000 0.105268 0.000000
# 6 0.000000 0.000000 0.000000 0.000000 0.000000 0.039037
#
#
# Mechanical properties :
#
#
# Convention : Reuss Voigt Hill
#
# Bulk Modulus (GPa) = 49.74547 56.27728 53.01137
# Shear Modulus (GPa) = 19.09401 23.58654 21.34027
#
# Velocity S-wave (km/s) = 3.15095 3.50207 3.33114
# Velocity P-wave (km/s) = 6.25336 6.75393 6.50846
#
# Compressibility (1/GPa) = 0.02010233
#
# Stress axis : x y z
#
# Youngs Moduli (GPa) = 44.67796 66.09501 85.47947
#
# Poissons Ratio (x) = 0.46153 0.22116
# Poissons Ratio (y) = 0.31198 0.42605
# Poissons Ratio (z) = 0.11559 0.32943
#
# Static dielectric constant tensor:
#      x y z
#    x 3.376090 0.000000 0.000000 
#    y 0.000000 3.793680 0.000000 
#    z 0.000000 0.000000 3.512570 
# 
# 
# High freq. dielectric constant tensor:
#      x y z
#    x 1.729420 0.000000 0.000000 
#    y 0.000000 1.756520 0.000000 
#    z 0.000000 0.000000 1.729310 
# 
# From -- ./inp_files/62619.got.cif
#   From: 2010.03.12/outbox.cif.g09.slc.cpg/sg65_32_cif.got.tgz:62619.got - 2010.04.10 20:52:16.
