data_PCOD8273382
_publ_section_title
;
Structure prediction by ZEFSAII (Michael W. Deem and Ramdas Pophale) SiO2 
 PCOD8273382
Probable space group: C M M M
;
_chemical_formula_sum "Si O2"
_cell_formula_units_Z 64
_cell_length_a 8.967085
_cell_length_b 18.543150
_cell_length_c 19.936687
_cell_angle_alpha 90.000000
_cell_angle_beta 90.000000
_cell_angle_gamma 90.000000
_cell_volume 3315.032485
_symmetry_space_group_name_H-M "C M M M"
_symmetry_group_IT_number 65
_symmetry_cell_setting 'orthorhombic'
loop_
_space_group_symop_operation_xyz
x,y,z
-x,-y,z
x,-y,-z
-x,y,-z
-x,-y,-z
x,y,-z
-x,y,z
x,-y,z
1/2+x,1/2+y,z
1/2-x,1/2-y,z
1/2+x,1/2-y,-z
1/2-x,1/2+y,-z
1/2-x,1/2-y,-z
1/2+x,1/2+y,-z
1/2-x,1/2+y,z
1/2+x,1/2-y,z
loop_
_atom_site_type_symbol
_atom_site_label
_atom_site_fract_x
_atom_site_fract_y
_atom_site_fract_z
Si Si1 0.176033 0.672503 0.000000
Si Si2 0.674807 0.324269 0.609017
Si Si3 0.673850 0.324029 0.763991
Si Si4 0.325552 0.083062 0.128973
Si Si5 0.329541 0.085032 0.500000
O O1 0.250000 0.750000 0.000000
O O2 0.229243 0.628409 0.064996
O O3 0.000000 0.682257 0.000000
O O4 0.500000 0.319384 0.594340
O O5 0.750000 0.250000 0.585827
O O6 0.709218 0.340249 0.686576
O O7 0.746616 0.388178 0.566593
O O8 0.500000 0.315782 0.777765
O O9 0.750000 0.250000 0.787937
O O10 0.738010 0.390651 0.805603
O O11 0.500000 0.093756 0.141961
O O12 0.286056 0.000000 0.115708
O O13 0.500000 0.112139 0.500000
O O14 0.320134 0.000000 0.500000
#
# Coordination Sequence:
#
# PCOD8273382 Si02
#       5
#     8  16  16  16   8
#     4  10  21  37  57  81 109 144 187 230 274 326
#     4  10  21  38  60  83 110 145 184 227 274 326
#     4  10  21  37  58  84 112 144 184 228 273 325
#     4  10  21  37  57  81 112 149 185 225 275 329
#     4  11  24  39  56  81 113 147 184 227 274 327
#
# _framework density 19.305994999999999
#
# number of rings (size 3 to 8) (size 9 to 14) (size 15 to 20)
#    0.000    1.875    0.000    3.375    0.000   10.000 
#    0.000    5.000    0.000    2.250    0.000    0.000 
#    0.000    0.000    0.000    0.000    0.000    0.000 
#
# Total GULP energy -396994.627336 kJ/mol
# GULP energy per Si atom -12406.082104 kJ/mol
# Density = 1.926205 g / cm^3
# Si number density = 19.305995 Si / 1000 Ang^3
#
#
#
# Elastic Constant Matrix: (Units=GPa)
#
#
# Indices 1 2 3 4 5 6 
#
# 1 93.8986 58.2525 56.1338 0.0000 0.0000 0.0000
# 2 58.2525 130.5146 69.9964 0.0000 0.0000 0.0000
# 3 56.1338 69.9964 111.4113 0.0000 0.0000 0.0000
# 4 0.0000 0.0000 0.0000 -8.7412 0.0000 0.0000
# 5 0.0000 0.0000 0.0000 0.0000 24.7549 0.0000
# 6 0.0000 0.0000 0.0000 0.0000 0.0000 36.6493
#
#
#
# Elastic Compliance Matrix: (Units=1/GPa)
#
#
# Indices 1 2 3 4 5 6 
#
# 1 0.016804 -0.004463 -0.005662 0.000000 0.000000 0.000000
# 2 -0.004463 0.012741 -0.005756 0.000000 0.000000 0.000000
# 3 -0.005662 -0.005756 0.015445 0.000000 0.000000 0.000000
# 4 0.000000 0.000000 0.000000 -0.114401 0.000000 0.000000
# 5 0.000000 0.000000 0.000000 0.000000 0.040396 0.000000
# 6 0.000000 0.000000 0.000000 0.000000 0.000000 0.027286
#
#
# Mechanical properties :
#
#
# Convention : Reuss Voigt Hill
#
# Bulk Modulus (GPa) = 75.60531 78.28777 76.94654
# Shear Modulus (GPa) = 145.16921 20.62872 82.89897
#
# Velocity S-wave (km/s) = 8.68085 3.27236 6.55993
# Velocity P-wave (km/s) = 11.82044 7.41059 9.86508
#
# Compressibility (1/GPa) = 0.01322658
#
# Stress axis : x y z
#
# Youngs Moduli (GPa) = 59.51081 78.48612 64.74564
#
# Poissons Ratio (x) = 0.35030 0.36661
# Poissons Ratio (y) = 0.26561 0.37268
# Poissons Ratio (z) = 0.33697 0.45177
#
# Static dielectric constant tensor:
#      x y z
#    x 3.580330 0.000000 0.000000 
#    y 0.000000 3.451160 0.000000 
#    z 0.000000 0.000000 3.616310 
# 
# 
# High freq. dielectric constant tensor:
#      x y z
#    x 1.756700 0.000000 0.000000 
#    y 0.000000 1.751870 0.000000 
#    z 0.000000 0.000000 1.763300 
# 
# From -- ./inp_files/58834.got.cif
#   From: 2010.03.12/outbox.cif.g09.slc.cpg/sg65_30_cif.got.tgz:58834.got - 2010.04.10 20:52:16.
