data_PCOD8273499
_publ_section_title
;
Structure prediction by ZEFSAII (Michael W. Deem and Ramdas Pophale) SiO2 
 PCOD8273499
Probable space group: C M M M
;
_chemical_formula_sum "Si O2"
_cell_formula_units_Z 88
_cell_length_a 20.362577
_cell_length_b 8.758536
_cell_length_c 24.174384
_cell_angle_alpha 90.000000
_cell_angle_beta 90.000000
_cell_angle_gamma 90.000000
_cell_volume 4311.413481
_symmetry_space_group_name_H-M "C M M M"
_symmetry_group_IT_number 65
_symmetry_cell_setting 'orthorhombic'
loop_
_space_group_symop_operation_xyz
x,y,z
-x,-y,z
x,-y,-z
-x,y,-z
-x,-y,-z
x,y,-z
-x,y,z
x,-y,z
1/2+x,1/2+y,z
1/2-x,1/2-y,z
1/2+x,1/2-y,-z
1/2-x,1/2+y,-z
1/2-x,1/2-y,-z
1/2+x,1/2+y,-z
1/2-x,1/2+y,z
1/2+x,1/2-y,z
loop_
_atom_site_type_symbol
_atom_site_label
_atom_site_fract_x
_atom_site_fract_y
_atom_site_fract_z
Si Si1 0.682007 0.176528 0.065124
Si Si2 0.865626 0.320094 0.563421
Si Si3 0.500000 0.330032 0.565048
Si Si4 0.575538 0.178991 0.257474
Si Si5 0.075442 0.178351 0.141101
Si Si6 0.184584 0.820397 0.667402
O O1 0.750000 0.250000 0.086413
O O2 0.620561 0.262215 0.091780
O O3 0.681435 0.000000 0.082283
O O4 0.674741 0.199305 0.000000
O O5 0.851050 0.272670 0.500000
O O6 0.860128 0.500000 0.571661
O O7 0.937260 0.266448 0.583513
O O8 0.814981 0.234342 0.603376
O O9 0.500000 0.500000 0.592249
O O10 0.500000 0.349196 0.500000
O O11 0.500000 0.221987 0.269952
O O12 0.595838 0.234710 0.196747
O O13 0.619709 0.262811 0.302315
O O14 0.588038 0.000000 0.261501
O O15 0.000000 0.213516 0.125198
O O16 0.087106 0.000000 0.150589
O O17 0.250000 0.750000 0.695572
O O18 0.188329 0.000000 0.670782
#
# Coordination Sequence:
#
# PCOD8273499 Si02
#       6
#    16  16   8  16  16  16
#     4  10  21  37  58  86 122 164 209 254 301 355
#     4  10  21  38  60  86 118 155 195 240 293 354
#     4   9  17  31  53  83 115 147 187 233 280 333
#     4  10  22  42  67  92 120 155 197 246 301 359
#     4  10  21  38  61  90 123 158 200 249 301 356
#     4  12  26  43  63  88 121 156 198 246 298 360
#
# _framework density 20.410938000000002
#
# number of rings (size 3 to 8) (size 9 to 14) (size 15 to 20)
#    0.000    1.727    0.000    4.091    1.273    6.909 
#    0.000    5.455    0.000    0.000    0.000    0.000 
#    0.000    0.000    0.000    0.000    0.000    0.000 
#
# Total GULP energy -545756.595796 kJ/mol
# GULP energy per Si atom -12403.558995 kJ/mol
# Density = 2.036448 g / cm^3
# Si number density = 20.410938 Si / 1000 Ang^3
#
#
#
# Elastic Constant Matrix: (Units=GPa)
#
#
# Indices 1 2 3 4 5 6 
#
# 1 108.7562 57.5593 50.7838 0.0000 0.0000 0.0000
# 2 57.5593 139.1632 42.4091 0.0000 0.0000 0.0000
# 3 50.7838 42.4091 66.0656 0.0000 0.0000 0.0000
# 4 0.0000 0.0000 0.0000 36.7317 0.0000 0.0000
# 5 0.0000 0.0000 0.0000 0.0000 28.7864 0.0000
# 6 0.0000 0.0000 0.0000 0.0000 0.0000 38.9460
#
#
#
# Elastic Compliance Matrix: (Units=1/GPa)
#
#
# Indices 1 2 3 4 5 6 
#
# 1 0.015588 -0.003476 -0.009751 0.000000 0.000000 0.000000
# 2 -0.003476 0.009708 -0.003560 0.000000 0.000000 0.000000
# 3 -0.009751 -0.003560 0.024917 0.000000 0.000000 0.000000
# 4 0.000000 0.000000 0.000000 0.027224 0.000000 0.000000
# 5 0.000000 0.000000 0.000000 0.000000 0.034739 0.000000
# 6 0.000000 0.000000 0.000000 0.000000 0.000000 0.025677
#
#
# Mechanical properties :
#
#
# Convention : Reuss Voigt Hill
#
# Bulk Modulus (GPa) = 60.09787 68.38770 64.24278
# Shear Modulus (GPa) = 28.25289 31.77499 30.01394
#
# Velocity S-wave (km/s) = 3.72452 3.94986 3.83885
# Velocity P-wave (km/s) = 6.92849 7.37428 7.15486
#
# Compressibility (1/GPa) = 0.01663953
#
# Stress axis : x y z
#
# Youngs Moduli (GPa) = 64.15379 103.00392 40.13277
#
# Poissons Ratio (x) = 0.35801 0.39133
# Poissons Ratio (y) = 0.22298 0.14289
# Poissons Ratio (z) = 0.62555 0.36673
#
# Static dielectric constant tensor:
#      x y z
#    x 4.221550 0.000000 0.000000 
#    y 0.000000 3.818920 0.000000 
#    z 0.000000 0.000000 3.595390 
# 
# 
# High freq. dielectric constant tensor:
#      x y z
#    x 1.804380 0.000000 0.000000 
#    y 0.000000 1.813710 0.000000 
#    z 0.000000 0.000000 1.788290 
# 
# From -- ./inp_files/70937.got.cif
#   From: 2010.03.12/outbox.cif.g09.slc.cpg/sg65_36_cif.got.tgz:70937.got - 2010.04.10 20:52:16.
