data_PCOD8273130
_publ_section_title
;
Structure prediction by ZEFSAII (Michael W. Deem and Ramdas Pophale) SiO2 
 PCOD8273130
Probable space group: C M M M
;
_chemical_formula_sum "Si O2"
_cell_formula_units_Z 88
_cell_length_a 18.798385
_cell_length_b 27.364846
_cell_length_c 8.893819
_cell_angle_alpha 90.000000
_cell_angle_beta 90.000000
_cell_angle_gamma 90.000000
_cell_volume 4575.113106
_symmetry_space_group_name_H-M "C M M M"
_symmetry_group_IT_number 65
_symmetry_cell_setting 'orthorhombic'
loop_
_space_group_symop_operation_xyz
x,y,z
-x,-y,z
x,-y,-z
-x,y,-z
-x,-y,-z
x,y,-z
-x,y,z
x,-y,z
1/2+x,1/2+y,z
1/2-x,1/2-y,z
1/2+x,1/2-y,-z
1/2-x,1/2+y,-z
1/2-x,1/2-y,-z
1/2+x,1/2+y,-z
1/2-x,1/2+y,z
1/2+x,1/2-y,z
loop_
_atom_site_type_symbol
_atom_site_label
_atom_site_fract_x
_atom_site_fract_y
_atom_site_fract_z
Si Si1 0.331574 0.912982 0.829146
Si Si2 0.327896 0.444823 0.170902
Si Si3 0.652073 0.655337 0.677610
Si Si4 0.688998 0.183217 0.324713
Si Si5 0.422590 0.000000 0.179298
Si Si6 0.419133 0.741767 0.176934
O O1 0.256279 0.939368 0.822245
O O2 0.343771 0.868718 0.715829
O O3 0.386266 0.951367 0.761671
O O4 0.348147 0.895818 0.000000
O O5 0.347865 0.500000 0.229327
O O6 0.360239 0.400852 0.270220
O O7 0.355183 0.438898 0.000000
O O8 0.644376 0.656264 0.500000
O O9 0.728140 0.679430 0.726717
O O10 0.591060 0.687907 0.753347
O O11 0.683489 0.194826 0.500000
O O12 0.642907 0.223759 0.240536
O O13 0.500000 0.000000 0.248441
O O14 0.419770 0.000000 0.000000
O O15 0.500000 0.759399 0.216645
O O16 0.408877 0.738608 0.000000
#
# Coordination Sequence:
#
# PCOD8273130 Si02
#       6
#    16  16  16  16   8  16
#     4   9  16  29  48  72 102 137 179 224 264 307
#     4   9  16  29  52  79 107 140 179 222 266 312
#     4  10  21  36  56  84 114 144 179 221 272 327
#     4  10  21  36  55  81 110 142 179 222 270 323
#     4   9  16  26  43  67  97 135 178 223 264 303
#     4  11  24  40  58  80 106 140 183 227 273 327
#
# _framework density 19.234497000000001
#
# number of rings (size 3 to 8) (size 9 to 14) (size 15 to 20)
#    0.000    2.273    0.909    2.182    0.000    6.909 
#    0.000    2.273    0.000    1.091    0.000    3.818 
#    0.000    0.000    0.000    0.000    0.000    0.000 
#
# Total GULP energy -545281.746495 kJ/mol
# GULP energy per Si atom -12392.766966 kJ/mol
# Density = 1.919072 g / cm^3
# Si number density = 19.234497 Si / 1000 Ang^3
#
#
#
# Elastic Constant Matrix: (Units=GPa)
#
#
# Indices 1 2 3 4 5 6 
#
# 1 38.6262 34.3411 24.5929 0.0000 0.0000 0.0000
# 2 34.3411 119.8518 42.4608 0.0000 0.0000 0.0000
# 3 24.5929 42.4608 67.8510 0.0000 0.0000 0.0000
# 4 0.0000 0.0000 0.0000 -4.4620 0.0000 0.0000
# 5 0.0000 0.0000 0.0000 0.0000 18.6591 0.0000
# 6 0.0000 0.0000 0.0000 0.0000 0.0000 45.0443
#
#
#
# Elastic Compliance Matrix: (Units=1/GPa)
#
#
# Indices 1 2 3 4 5 6 
#
# 1 0.038666 -0.007856 -0.009099 0.000000 0.000000 0.000000
# 2 -0.007856 0.012316 -0.004860 0.000000 0.000000 0.000000
# 3 -0.009099 -0.004860 0.021078 0.000000 0.000000 0.000000
# 4 0.000000 0.000000 0.000000 -0.224114 0.000000 0.000000
# 5 0.000000 0.000000 0.000000 0.000000 0.053593 0.000000
# 6 0.000000 0.000000 0.000000 0.000000 0.000000 0.022200
#
#
# Mechanical properties :
#
#
# Convention : Reuss Voigt Hill
#
# Bulk Modulus (GPa) = 35.17275 47.67982 41.42629
# Shear Modulus (GPa) = -215.94693 20.17722 -97.88485
#
# Velocity S-wave (km/s) = -10.60728 3.24236 -7.14148
# Velocity P-wave (km/s) = 11.47576 6.23376 6.81298
#
# Compressibility (1/GPa) = 0.02843110
#
# Stress axis : x y z
#
# Youngs Moduli (GPa) = 25.86226 81.19286 47.44369
#
# Poissons Ratio (x) = 0.63781 0.43168
# Poissons Ratio (y) = 0.20316 0.23059
# Poissons Ratio (z) = 0.23532 0.39462
#
# Static dielectric constant tensor:
#      x y z
#    x 3.418430 0.000000 0.000000 
#    y 0.000000 3.711620 0.000000 
#    z 0.000000 0.000000 3.370480 
# 
# 
# High freq. dielectric constant tensor:
#      x y z
#    x 1.721910 0.000000 0.000000 
#    y 0.000000 1.762790 0.000000 
#    z 0.000000 0.000000 1.735600 
# 
# From -- ./inp_files/10161.got.cif
#   From: 2010.03.12/outbox.cif.g09.slc.cpg/sg65_6_cif.got.tgz:10161.got - 2010.04.10 20:52:16.
