data_PCOD8273827
_publ_section_title
;
Structure prediction by ZEFSAII (Michael W. Deem and Ramdas Pophale) SiO2 
 PCOD8273827
Probable space group: C M M M
;
_chemical_formula_sum "Si O2"
_cell_formula_units_Z 72
_cell_length_a 17.497847
_cell_length_b 15.001728
_cell_length_c 13.422972
_cell_angle_alpha 90.000000
_cell_angle_beta 90.000000
_cell_angle_gamma 90.000000
_cell_volume 3523.502516
_symmetry_space_group_name_H-M "C M M M"
_symmetry_group_IT_number 65
_symmetry_cell_setting 'orthorhombic'
loop_
_space_group_symop_operation_xyz
x,y,z
-x,-y,z
x,-y,-z
-x,y,-z
-x,-y,-z
x,y,-z
-x,y,z
x,-y,z
1/2+x,1/2+y,z
1/2-x,1/2-y,z
1/2+x,1/2-y,-z
1/2-x,1/2+y,-z
1/2-x,1/2-y,-z
1/2+x,1/2+y,-z
1/2-x,1/2+y,z
1/2+x,1/2-y,z
loop_
_atom_site_type_symbol
_atom_site_label
_atom_site_fract_x
_atom_site_fract_y
_atom_site_fract_z
Si Si1 0.088801 0.744911 0.113563
Si Si2 0.912998 0.897713 0.264814
Si Si3 0.637944 0.900198 0.255318
Si Si4 0.272147 0.352227 0.612474
Si Si5 0.000000 0.605772 0.610462
O O1 0.105531 0.838249 0.168043
O O2 0.139610 0.665636 0.161016
O O3 0.000000 0.717904 0.121144
O O4 0.115021 0.756566 0.000000
O O5 0.859628 0.868068 0.356264
O O6 0.000000 0.882923 0.300786
O O7 0.898450 0.000000 0.234252
O O8 0.718598 0.906055 0.311627
O O9 0.575025 0.860820 0.331813
O O10 0.616600 0.000000 0.219067
O O11 0.261038 0.387930 0.500000
O O12 0.250000 0.250000 0.620225
O O13 0.000000 0.500000 0.602411
O O14 0.000000 0.648286 0.500000
#
# Coordination Sequence:
#
# PCOD8273827 Si02
#       5
#    16  16  16  16   8
#     4  10  21  39  63  90 122 160 204 256 311 361
#     4  10  22  42  66  91 121 160 210 262 310 364
#     4  11  21  36  58  88 125 161 203 248 298 369
#     4  11  23  40  63  91 125 165 204 249 312 374
#     4   9  18  32  53  83 118 157 197 237 285 351
#
# _framework density 20.434213
#
# number of rings (size 3 to 8) (size 9 to 14) (size 15 to 20)
#    0.000    1.667    3.333    1.333    0.000    4.000 
#    0.000    6.667    0.000    2.667    0.000    0.000 
#    0.000    0.000    0.000    0.000    0.000    0.000 
#
# Total GULP energy -446527.063910 kJ/mol
# GULP energy per Si atom -12403.529553 kJ/mol
# Density = 2.038770 g / cm^3
# Si number density = 20.434213 Si / 1000 Ang^3
#
#
#
# Elastic Constant Matrix: (Units=GPa)
#
#
# Indices 1 2 3 4 5 6 
#
# 1 99.9286 34.9506 48.7774 0.0000 0.0000 0.0000
# 2 34.9506 122.8065 56.8149 0.0000 0.0000 0.0000
# 3 48.7774 56.8149 124.1478 0.0000 0.0000 0.0000
# 4 0.0000 0.0000 0.0000 12.0079 0.0000 0.0000
# 5 0.0000 0.0000 0.0000 0.0000 30.0782 0.0000
# 6 0.0000 0.0000 0.0000 0.0000 0.0000 27.9307
#
#
#
# Elastic Compliance Matrix: (Units=1/GPa)
#
#
# Indices 1 2 3 4 5 6 
#
# 1 0.012640 -0.001649 -0.004211 0.000000 0.000000 0.000000
# 2 -0.001649 0.010545 -0.004178 0.000000 0.000000 0.000000
# 3 -0.004211 -0.004178 0.011622 0.000000 0.000000 0.000000
# 4 0.000000 0.000000 0.000000 0.083278 0.000000 0.000000
# 5 0.000000 0.000000 0.000000 0.000000 0.033247 0.000000
# 6 0.000000 0.000000 0.000000 0.000000 0.000000 0.035803
#
#
# Mechanical properties :
#
#
# Convention : Reuss Voigt Hill
#
# Bulk Modulus (GPa) = 67.89055 69.77430 68.83242
# Shear Modulus (GPa) = 23.57151 27.75937 25.66544
#
# Velocity S-wave (km/s) = 3.40005 3.68975 3.54786
# Velocity P-wave (km/s) = 6.97925 7.23687 7.10923
#
# Compressibility (1/GPa) = 0.01472959
#
# Stress axis : x y z
#
# Youngs Moduli (GPa) = 79.11674 94.83122 86.04647
#
# Poissons Ratio (x) = 0.15636 0.36238
# Poissons Ratio (y) = 0.13045 0.35950
# Poissons Ratio (z) = 0.33320 0.39621
#
# Static dielectric constant tensor:
#      x y z
#    x 3.704920 0.000000 0.000000 
#    y 0.000000 3.641790 0.000000 
#    z 0.000000 0.000000 3.646250 
# 
# 
# High freq. dielectric constant tensor:
#      x y z
#    x 1.795590 0.000000 0.000000 
#    y 0.000000 1.803060 0.000000 
#    z 0.000000 0.000000 1.781980 
# 
# From -- ./inp_files/42121.got.cif
#   From: 2010.03.12/outbox.cif.g09.slc.cpg/sg65_22_cif.got.tgz:42121.got - 2010.04.10 20:52:16.
