data_PCOD8273533
_publ_section_title
;
Structure prediction by ZEFSAII (Michael W. Deem and Ramdas Pophale) SiO2 
 PCOD8273533
Probable space group: C M M M
;
_chemical_formula_sum "Si O2"
_cell_formula_units_Z 72
_cell_length_a 22.686914
_cell_length_b 18.975249
_cell_length_c 8.707663
_cell_angle_alpha 90.000000
_cell_angle_beta 90.000000
_cell_angle_gamma 90.000000
_cell_volume 3748.560471
_symmetry_space_group_name_H-M "C M M M"
_symmetry_group_IT_number 65
_symmetry_cell_setting 'orthorhombic'
loop_
_space_group_symop_operation_xyz
x,y,z
-x,-y,z
x,-y,-z
-x,y,-z
-x,-y,-z
x,y,-z
-x,y,z
x,-y,z
1/2+x,1/2+y,z
1/2-x,1/2-y,z
1/2+x,1/2-y,-z
1/2-x,1/2+y,-z
1/2-x,1/2-y,-z
1/2+x,1/2+y,-z
1/2-x,1/2+y,z
1/2+x,1/2-y,z
loop_
_atom_site_type_symbol
_atom_site_label
_atom_site_fract_x
_atom_site_fract_y
_atom_site_fract_z
Si Si1 0.500000 0.582243 0.321193
Si Si2 0.827940 0.417908 0.179531
Si Si3 0.565150 0.824025 0.817884
Si Si4 0.102838 0.171137 0.818241
Si Si5 0.772032 0.173567 0.319615
O O1 0.500000 0.500000 0.285836
O O2 0.500000 0.599271 0.500000
O O3 0.441377 0.613814 0.247773
O O4 0.831734 0.500000 0.215371
O O5 0.889198 0.383537 0.236925
O O6 0.775376 0.385313 0.277280
O O7 0.817055 0.402451 0.000000
O O8 0.500000 0.841970 0.752703
O O9 0.585571 0.748235 0.753955
O O10 0.562971 0.821071 0.000000
O O11 0.168344 0.152261 0.765659
O O12 0.099062 0.168809 0.000000
O O13 0.783600 0.173872 0.500000
O O14 0.750000 0.250000 0.261885
#
# Coordination Sequence:
#
# PCOD8273533 Si02
#       5
#     8  16  16  16  16
#     4  11  25  43  61  87 126 161 192 242 302 358
#     4  10  21  37  59  88 121 156 194 241 297 353
#     4   9  17  32  57  89 118 147 188 238 289 340
#     4  11  21  37  64  91 116 152 200 250 294 347
#     4  11  23  38  59  87 118 157 202 247 300 358
#
# _framework density 19.207373
#
# number of rings (size 3 to 8) (size 9 to 14) (size 15 to 20)
#    0.000    1.667    3.333    1.667    0.000    3.556 
#    0.000    2.222    0.000    0.000    0.000    1.556 
#    0.000    0.000    0.000    0.000    0.000    0.000 
#
# Total GULP energy -446537.957697 kJ/mol
# GULP energy per Si atom -12403.832158 kJ/mol
# Density = 1.916366 g / cm^3
# Si number density = 19.207373 Si / 1000 Ang^3
#
#
#
# Elastic Constant Matrix: (Units=GPa)
#
#
# Indices 1 2 3 4 5 6 
#
# 1 174.9382 77.2714 35.2871 0.0000 0.0000 0.0000
# 2 77.2714 120.2126 50.3025 0.0000 0.0000 0.0000
# 3 35.2871 50.3025 54.5775 0.0000 0.0000 0.0000
# 4 0.0000 0.0000 0.0000 24.2399 0.0000 0.0000
# 5 0.0000 0.0000 0.0000 0.0000 16.7102 0.0000
# 6 0.0000 0.0000 0.0000 0.0000 0.0000 38.6797
#
#
#
# Elastic Compliance Matrix: (Units=1/GPa)
#
#
# Indices 1 2 3 4 5 6 
#
# 1 0.007999 -0.004847 -0.000705 0.000000 0.000000 0.000000
# 2 -0.004847 0.016478 -0.012053 0.000000 0.000000 0.000000
# 3 -0.000705 -0.012053 0.029887 0.000000 0.000000 0.000000
# 4 0.000000 0.000000 0.000000 0.041254 0.000000 0.000000
# 5 0.000000 0.000000 0.000000 0.000000 0.059844 0.000000
# 6 0.000000 0.000000 0.000000 0.000000 0.000000 0.025853
#
#
# Mechanical properties :
#
#
# Convention : Reuss Voigt Hill
#
# Bulk Modulus (GPa) = 52.20676 75.05003 63.62839
# Shear Modulus (GPa) = 22.43049 28.38379 25.40714
#
# Velocity S-wave (km/s) = 3.42103 3.84833 3.64095
# Velocity P-wave (km/s) = 6.54554 7.67493 7.13263
#
# Compressibility (1/GPa) = 0.01915461
#
# Stress axis : x y z
#
# Youngs Moduli (GPa) = 125.00882 60.68722 33.45904
#
# Poissons Ratio (x) = 0.29416 0.02358
# Poissons Ratio (y) = 0.60593 0.40329
# Poissons Ratio (z) = 0.08808 0.73148
#
# Static dielectric constant tensor:
#      x y z
#    x 3.551580 0.000000 0.000000 
#    y 0.000000 3.520460 0.000000 
#    z 0.000000 0.000000 3.301410 
# 
# 
# High freq. dielectric constant tensor:
#      x y z
#    x 1.766060 0.000000 0.000000 
#    y 0.000000 1.745900 0.000000 
#    z 0.000000 0.000000 1.728270 
# 
# From -- ./inp_files/9199.got.cif
#   From: 2010.03.12/outbox.cif.g09.slc.cpg/sg65_5_cif.got.tgz:9199.got - 2010.04.10 20:52:16.
