data_PCOD8273928
_publ_section_title
;
Structure prediction by ZEFSAII (Michael W. Deem and Ramdas Pophale) SiO2 
 PCOD8273928
Probable space group: C M M M
;
_chemical_formula_sum "Si O2"
_cell_formula_units_Z 96
_cell_length_a 26.208226
_cell_length_b 10.251406
_cell_length_c 18.191408
_cell_angle_alpha 90.000000
_cell_angle_beta 90.000000
_cell_angle_gamma 90.000000
_cell_volume 4887.506785
_symmetry_space_group_name_H-M "C M M M"
_symmetry_group_IT_number 65
_symmetry_cell_setting 'orthorhombic'
loop_
_space_group_symop_operation_xyz
x,y,z
-x,-y,z
x,-y,-z
-x,y,-z
-x,-y,-z
x,y,-z
-x,y,z
x,-y,z
1/2+x,1/2+y,z
1/2-x,1/2-y,z
1/2+x,1/2-y,-z
1/2-x,1/2+y,-z
1/2-x,1/2-y,-z
1/2+x,1/2+y,-z
1/2-x,1/2+y,z
1/2+x,1/2-y,z
loop_
_atom_site_type_symbol
_atom_site_label
_atom_site_fract_x
_atom_site_fract_y
_atom_site_fract_z
Si Si1 0.614689 0.149112 0.914638
Si Si2 0.709405 0.643812 0.416670
Si Si3 0.795888 0.351849 0.807844
Si Si4 0.130417 0.766029 0.693300
Si Si5 0.441595 0.645909 0.181926
Si Si6 0.444297 0.847927 0.579900
O O1 0.671099 0.169021 0.881501
O O2 0.574310 0.246987 0.878150
O O3 0.596281 0.000000 0.900931
O O4 0.618025 0.182667 0.000000
O O5 0.691703 0.677387 0.500000
O O6 0.734700 0.500000 0.414239
O O7 0.750000 0.750000 0.388775
O O8 0.661882 0.640650 0.361194
O O9 0.774355 0.500000 0.803548
O O10 0.750000 0.250000 0.809020
O O11 0.831883 0.327955 0.738018
O O12 0.094996 0.849992 0.747209
O O13 0.095329 0.676312 0.643816
O O14 0.500000 0.674098 0.205221
O O15 0.436529 0.500000 0.148313
O O16 0.426131 0.792160 0.500000
O O17 0.500000 0.787149 0.599351
O O18 0.450481 0.000000 0.572545
#
# Coordination Sequence:
#
# PCOD8273928 Si02
#       6
#    16  16  16  16  16  16
#     4   9  20  40  63  86 112 143 181 222 265 319
#     4  10  22  38  55  77 105 139 182 231 280 329
#     4  10  22  37  55  81 112 144 180 222 268 320
#     4  11  20  34  56  77 106 146 188 225 271 326
#     4  10  22  38  56  83 117 149 182 222 269 321
#     4   9  18  32  51  78 110 143 184 235 286 332
#
# _framework density 19.641915999999998
#
# number of rings (size 3 to 8) (size 9 to 14) (size 15 to 20)
#    0.000    2.167    0.000    3.000    0.000    8.000 
#    0.000    3.333    0.000    0.000    0.000    7.000 
#    0.000    0.000    0.000    0.000    0.000    0.000 
#
# Total GULP energy -595007.624138 kJ/mol
# GULP energy per Si atom -12395.992170 kJ/mol
# Density = 1.959721 g / cm^3
# Si number density = 19.641916 Si / 1000 Ang^3
#
#
#
# Elastic Constant Matrix: (Units=GPa)
#
#
# Indices 1 2 3 4 5 6 
#
# 1 120.8991 70.6198 64.8758 0.0000 0.0000 0.0000
# 2 70.6198 123.2806 52.1416 0.0000 0.0000 0.0000
# 3 64.8758 52.1416 129.4936 0.0000 0.0000 0.0000
# 4 0.0000 0.0000 0.0000 13.6804 0.0000 0.0000
# 5 0.0000 0.0000 0.0000 0.0000 26.9228 0.0000
# 6 0.0000 0.0000 0.0000 0.0000 0.0000 28.2088
#
#
#
# Elastic Compliance Matrix: (Units=1/GPa)
#
#
# Indices 1 2 3 4 5 6 
#
# 1 0.014485 -0.006301 -0.004719 0.000000 0.000000 0.000000
# 2 -0.006301 0.012518 -0.001884 0.000000 0.000000 0.000000
# 3 -0.004719 -0.001884 0.010845 0.000000 0.000000 0.000000
# 4 0.000000 0.000000 0.000000 0.073097 0.000000 0.000000
# 5 0.000000 0.000000 0.000000 0.000000 0.037143 0.000000
# 6 0.000000 0.000000 0.000000 0.000000 0.000000 0.035450
#
#
# Mechanical properties :
#
#
# Convention : Reuss Voigt Hill
#
# Bulk Modulus (GPa) = 83.06198 83.21642 83.13920
# Shear Modulus (GPa) = 23.43463 26.16481 24.79972
#
# Velocity S-wave (km/s) = 3.45787 3.65374 3.55715
# Velocity P-wave (km/s) = 7.63691 7.76263 7.70003
#
# Compressibility (1/GPa) = 0.01203920
#
# Stress axis : x y z
#
# Youngs Moduli (GPa) = 69.03909 79.88649 92.20639
#
# Poissons Ratio (x) = 0.50338 0.43517
# Poissons Ratio (y) = 0.43503 0.17367
# Poissons Ratio (z) = 0.32583 0.15047
#
# Static dielectric constant tensor:
#      x y z
#    x 3.593440 0.000000 0.000000 
#    y 0.000000 3.464320 0.000000 
#    z 0.000000 0.000000 3.713480 
# 
# 
# High freq. dielectric constant tensor:
#      x y z
#    x 1.762660 0.000000 0.000000 
#    y 0.000000 1.760510 0.000000 
#    z 0.000000 0.000000 1.770910 
# 
# From -- ./inp_files/56687.got.cif
#   From: 2010.03.12/outbox.cif.g09.slc.cpg/sg65_29_cif.got.tgz:56687.got - 2010.04.10 20:52:16.
