data_PCOD8273385
_publ_section_title
;
Structure prediction by ZEFSAII (Michael W. Deem and Ramdas Pophale) SiO2 
 PCOD8273385
Probable space group: C M M M
;
_chemical_formula_sum "Si O2"
_cell_formula_units_Z 80
_cell_length_a 14.458997
_cell_length_b 29.467117
_cell_length_c 9.171273
_cell_angle_alpha 90.000000
_cell_angle_beta 90.000000
_cell_angle_gamma 90.000000
_cell_volume 3907.558030
_symmetry_space_group_name_H-M "C M M M"
_symmetry_group_IT_number 65
_symmetry_cell_setting 'orthorhombic'
loop_
_space_group_symop_operation_xyz
x,y,z
-x,-y,z
x,-y,-z
-x,y,-z
-x,-y,-z
x,y,-z
-x,y,z
x,-y,z
1/2+x,1/2+y,z
1/2-x,1/2-y,z
1/2+x,1/2-y,-z
1/2-x,1/2+y,-z
1/2-x,1/2-y,-z
1/2+x,1/2+y,-z
1/2-x,1/2+y,z
1/2+x,1/2-y,z
loop_
_atom_site_type_symbol
_atom_site_label
_atom_site_fract_x
_atom_site_fract_y
_atom_site_fract_z
Si Si1 0.892306 0.608151 0.669481
Si Si2 0.389883 0.802345 0.835513
Si Si3 0.389680 0.284699 0.664816
Si Si4 0.605583 0.373118 0.830823
Si Si5 0.751381 0.448261 0.168171
O O1 0.870973 0.614850 0.500000
O O2 0.855690 0.652571 0.753695
O O3 0.838505 0.564834 0.732100
O O4 0.000000 0.599541 0.698015
O O5 0.500000 0.800432 0.835637
O O6 0.349458 0.758775 0.750728
O O7 0.350943 0.802889 0.000000
O O8 0.352519 0.283264 0.500000
O O9 0.500000 0.283490 0.669112
O O10 0.353758 0.330480 0.741654
O O11 0.500000 0.383388 0.786385
O O12 0.663178 0.417777 0.790218
O O13 0.613243 0.360386 0.000000
O O14 0.723932 0.500000 0.201024
O O15 0.779696 0.441401 0.000000
#
# Coordination Sequence:
#
# PCOD8273385 Si02
#       5
#    16  16  16  16  16
#     4  10  21  37  57  81 110 144 181 222 270 323
#     4   9  16  28  50  79 110 144 180 218 263 316
#     4   9  16  27  47  77 112 147 181 217 260 313
#     4   9  18  34  56  81 110 144 181 221 267 320
#     4  10  22  39  58  81 108 139 179 228 278 325
#
# _framework density 20.473144000000001
#
# number of rings (size 3 to 8) (size 9 to 14) (size 15 to 20)
#    0.000    2.600    0.000    1.800    0.000    8.000 
#    0.000    5.000    0.000    6.000    0.000    4.200 
#    0.000    0.000    0.000    0.000    0.000    0.000 
#
# Total GULP energy -496138.183754 kJ/mol
# GULP energy per Si atom -12403.454594 kJ/mol
# Density = 2.042655 g / cm^3
# Si number density = 20.473144 Si / 1000 Ang^3
#
#
#
# Elastic Constant Matrix: (Units=GPa)
#
#
# Indices 1 2 3 4 5 6 
#
# 1 37.9265 26.2793 25.3430 0.0000 0.0000 0.0000
# 2 26.2793 134.1986 52.3281 0.0000 0.0000 0.0000
# 3 25.3430 52.3281 112.1626 0.0000 0.0000 0.0000
# 4 0.0000 0.0000 0.0000 21.2151 0.0000 0.0000
# 5 0.0000 0.0000 0.0000 0.0000 20.1754 0.0000
# 6 0.0000 0.0000 0.0000 0.0000 0.0000 18.9190
#
#
#
# Elastic Compliance Matrix: (Units=1/GPa)
#
#
# Indices 1 2 3 4 5 6 
#
# 1 0.033007 -0.004346 -0.005430 0.000000 0.000000 0.000000
# 2 -0.004346 0.009681 -0.003535 0.000000 0.000000 0.000000
# 3 -0.005430 -0.003535 0.011792 0.000000 0.000000 0.000000
# 4 0.000000 0.000000 0.000000 0.047136 0.000000 0.000000
# 5 0.000000 0.000000 0.000000 0.000000 0.049565 0.000000
# 6 0.000000 0.000000 0.000000 0.000000 0.000000 0.052857
#
#
# Mechanical properties :
#
#
# Convention : Reuss Voigt Hill
#
# Bulk Modulus (GPa) = 35.89690 54.68761 45.29225
# Shear Modulus (GPa) = 20.83808 24.08438 22.46123
#
# Velocity S-wave (km/s) = 3.19380 3.43357 3.31585
# Velocity P-wave (km/s) = 5.58321 6.51837 6.06883
#
# Compressibility (1/GPa) = 0.02785756
#
# Stress axis : x y z
#
# Youngs Moduli (GPa) = 30.29685 103.29587 84.80648
#
# Poissons Ratio (x) = 0.44894 0.46052
# Poissons Ratio (y) = 0.13167 0.29975
# Poissons Ratio (z) = 0.16452 0.36510
#
# Static dielectric constant tensor:
#      x y z
#    x 3.446410 0.000000 0.000000 
#    y 0.000000 3.720020 0.000000 
#    z 0.000000 0.000000 3.778850 
# 
# 
# High freq. dielectric constant tensor:
#      x y z
#    x 1.786560 0.000000 0.000000 
#    y 0.000000 1.797770 0.000000 
#    z 0.000000 0.000000 1.802300 
# 
# From -- ./inp_files/9630.got.cif
#   From: 2010.03.12/outbox.cif.g09.slc.cpg/sg65_5_cif.got.tgz:9630.got - 2010.04.10 20:52:16.
